AV-unprocessed.smi:1385|AV-procd|sdf|5629|dock9
  -GOLD-   22720 5243D 1   1.00000     0.00000
 Structure written by MMmdl.
 39 40  0  0  0  0  0  0  0  0  2 V2000
  153.7532  141.5727  160.7409 C   0  0  0  0  0  0  0  0  0  0  0  0
  153.2731  140.9370  159.4812 C   0  0  0  0  0  0  0  0  0  0  0  0
  153.8096  139.8146  158.9872 N   0  0  0  0  0  0  0  0  0  0  0  0
  153.1970  139.4136  157.8080 N   0  0  0  0  0  0  0  0  0  0  0  0
  152.2111  140.2471  157.4484 C   0  0  0  0  0  0  0  0  0  0  0  0
  151.4174  140.0746  156.2834 N   0  0  0  0  0  0  0  0  0  0  0  0
  150.1486  139.6370  156.1977 C   0  0  0  0  0  0  0  0  0  0  0  0
  149.4455  139.2983  157.1502 O   0  0  0  0  0  0  0  0  0  0  0  0
  149.7272  139.6114  154.9246 N   0  0  0  0  0  0  0  0  0  0  0  0
  148.3941  139.2023  154.4916 C   0  0  2  0  0  0  0  0  0  0  0  0
  148.1245  137.7304  154.8534 C   0  0  0  0  0  0  0  0  0  0  0  0
  146.7588  137.2715  154.3174 C   0  0  0  0  0  0  0  0  0  0  0  0
  146.6662  137.4699  152.8461 N   0  3  1  0  0  0  0  0  0  0  0  0
  145.4167  136.9181  152.2610 C   0  0  0  0  0  0  0  0  0  0  0  0
  145.6652  136.0563  151.0186 C   0  0  0  0  0  0  0  0  0  0  0  0
  145.4297  136.6255  149.8344 N   0  0  0  0  0  0  0  0  0  0  0  0
  146.0766  134.9019  151.1210 O   0  0  0  0  0  0  0  0  0  0  0  0
  146.8879  138.8905  152.4728 C   0  0  0  0  0  0  0  0  0  0  0  0
  148.2541  139.3913  152.9725 C   0  0  0  0  0  0  0  0  0  0  0  0
  151.9492  141.6026  158.5325 S   0  0  0  0  0  0  0  0  0  0  0  0
  154.8107  141.3575  160.8979 H   0  0  0  0  0  0  0  0  0  0  0  0
  153.1865  141.1899  161.5898 H   0  0  0  0  0  0  0  0  0  0  0  0
  153.6225  142.6537  160.6902 H   0  0  0  0  0  0  0  0  0  0  0  0
  151.8700  140.3146  155.4139 H   0  0  0  0  0  0  0  0  0  0  0  0
  150.3722  139.9038  154.2050 H   0  0  0  0  0  0  0  0  0  0  0  0
  147.6506  139.8324  154.9839 H   0  0  0  0  0  0  0  0  0  0  0  0
  148.9088  137.0946  154.4396 H   0  0  0  0  0  0  0  0  0  0  0  0
  148.1559  137.5947  155.9352 H   0  0  0  0  0  0  0  0  0  0  0  0
  146.6135  136.2200  154.5666 H   0  0  0  0  0  0  0  0  0  0  0  0
  145.9584  137.8249  154.8115 H   0  0  0  0  0  0  0  0  0  0  0  0
  144.8667  136.3536  153.0161 H   0  0  0  0  0  0  0  0  0  0  0  0
  144.7666  137.7357  151.9461 H   0  0  0  0  0  0  0  0  0  0  0  0
  145.5735  136.1039  148.9817 H   0  0  0  0  0  0  0  0  0  0  0  0
  145.1037  137.5810  149.7941 H   0  0  0  0  0  0  0  0  0  0  0  0
  146.8443  138.9975  151.3882 H   0  0  0  0  0  0  0  0  0  0  0  0
  146.0866  139.5057  152.8855 H   0  0  0  0  0  0  0  0  0  0  0  0
  148.3766  140.4438  152.7137 H   0  0  0  0  0  0  0  0  0  0  0  0
  149.0487  138.8511  152.4552 H   0  0  0  0  0  0  0  0  0  0  0  0
  147.4230  136.9453  152.4301 H   0  0  0  0  0  0  0  0  0  0  0  0
  1  2  1  0  0  0  0
  1 21  1  0  0  0  0
  1 22  1  0  0  0  0
  1 23  1  0  0  0  0
  2 20  1  0  0  0  0
  2  3  2  0  0  0  0
  3  4  1  0  0  0  0
  4  5  2  0  0  0  0
  5  6  1  0  0  0  0
  5 20  1  0  0  0  0
  6  7  1  0  0  0  0
  6 24  1  0  0  0  0
  7  8  2  0  0  0  0
  7  9  1  0  0  0  0
  9 10  1  0  0  0  0
  9 25  1  0  0  0  0
 10 19  1  0  0  0  0
 10 11  1  0  0  0  0
 10 26  1  0  0  0  0
 11 12  1  0  0  0  0
 11 27  1  0  0  0  0
 11 28  1  0  0  0  0
 12 13  1  0  0  0  0
 12 29  1  0  0  0  0
 12 30  1  0  0  0  0
 13 14  1  0  0  0  0
 13 18  1  0  0  0  0
 13 39  1  0  0  0  0
 14 15  1  0  0  0  0
 14 31  1  0  0  0  0
 14 32  1  0  0  0  0
 15 16  1  0  0  0  0
 15 17  2  0  0  0  0
 16 33  1  0  0  0  0
 16 34  1  0  0  0  0
 18 19  1  0  0  0  0
 18 35  1  0  0  0  0
 18 36  1  0  0  0  0
 19 37  1  0  0  0  0
 19 38  1  0  0  0  0
M  CHG  1  13   1
M  END
> <s_m_source_file>
AV-unprocessed.smi

> <i_m_source_file_index>
1385

> <i_lp_mmshare_version>
43012

> <i_f3d_flags>
0

> <s_epik_input>
W0NIM11jMW5uYyhzMSlbTkhdQyg9TylbTkhdW0NIXTJbQ0gyXVtDSDJdTihbQ0gyXVtDSDJdMilbQ0gyXUMoPU8pW05IMl0=

> <s_epik_cmdline>
J2VwaWtfcHl0aG9uJywgJy1waCcsICc3LjAnLCAnLXRuJywgJzgnLCAnLW1hJywgJzIwMCcsICctbWV0YWxfYmluZGluZycsICctaW1hZScsICc8aW5maWxlLm1hZT4nLCAnLW9tYWUnLCAnPG91dGZpbGUubWFlPic=

> <r_lp_tautomer_probability>
1

> <r_epik_Ionization_Penalty>
0.866317

> <r_epik_Ionization_Penalty_Charging>
0.862349

> <r_epik_Ionization_Penalty_Neutral>
0.00396799

> <r_epik_State_Penalty>
0.898939

> <r_epik_Charging_Adjusted_Penalty>
1.76129

> <i_epik_Tot_Q>
1

> <i_epik_Tot_abs_Q>
1

> <r_epik_Metal_State_Penalty>
1.25402

> <b_epik_Metal_Only>
0

> <s_lp_Force_Field>
OPLS_2005

> <r_lp_Energy>
10.5623

> <b_lp_Chiralities_Consistent>
1

> <s_lp_Variant>
AV-unprocessed.smi:1385-2

> <Gold.Version>
5.8.1

> <Gold.Id.Protein>
6NUR|6NUR_protein|mol2

> <Gold.PLP.Fitness>
38.4137

> <Gold.PLP.PLP>
-26.5935

> <Gold.PLP.part.hbond>
-4.9712

> <Gold.PLP.part.metal>
0.0000

> <Gold.PLP.part.buried>
0.6570

> <Gold.PLP.part.nonpolar>
-22.1733

> <Gold.PLP.part.repulsive>
0.6794

> <Gold.PLP.ligand.clash>
0.0000

> <Gold.PLP.ligand.torsion>
1.5871

> <Gold.PLP.Chemscore.Hbond>
4.9920

> <Gold.PLP.Chemscore.CHOScore>
0.0000

> <Gold.PLP.Chemscore.Metal>
0.0000

> <Gold.Chemscore.Hbonds>
donor molecule, donor type, donor heavy atom, donor atom, acceptor molecule, acceptor atom, score
      L1  H    13    39       P1  7948  2.00
      L1  H    16    33       P1  7921  1.00
      L1  H    16    34       P1 10171  0.96
      P1  H  7997  8010       L1     4  0.68

> <Gold.PLP.Chemscore.Internal.Correction>
0.0184

> <Gold.Rescore>
     Score         DG    S(hbond)    S(metal)    S(lipo)     H(rot)  DE(clash)    DE(int)     intcor
     14.82     -18.15       3.24        0.00      60.89       2.07       1.75       1.58       ----

> <Gold.Chemscore.Fitness>
14.8174

> <Gold.Chemscore.DG>
-18.1525

> <Gold.Chemscore.ZeroCoef>
-5.4800

> <Gold.Chemscore.Hbond>
3.2438

> <Gold.Chemscore.Metal>
0.0000

> <Gold.Chemscore.Lipo>
60.8942

> <Gold.Chemscore.Internal_Hbond>
0.0000

> <Gold.Chemscore.DEClash>
1.7538

> <Gold.Chemscore.DEInternal>
1.5813

> <Gold.Chemscore.Rot>
2.0650

> <Gold.Chemscore.Internal.Correction>
   9.000000E+99

> <Gold.Chemscore.Hbonds>
donor molecule, donor type, donor heavy atom, donor atom, acceptor molecule, acceptor atom, score
      L1  H    13    39       P1  7948  1.00
      L1  H    16    33       P1  7921  1.00
      L1  H    16    34       P1 10171  0.89
      P1  H  7997  8010       L1     4  0.02

> <Gold.Chemscore.Hbond.Weighted>
-10.8343

> <Gold.Chemscore.Metal.Weighted>
-0.0000

> <Gold.Chemscore.Lipo.Weighted>
-7.1246

> <Gold.Chemscore.Internal_Hbond.Weighted>
0.0000

> <Gold.Chemscore.DEClash.Weighted>
1.7538

> <Gold.Chemscore.DEInternal.Weighted>
1.5813

> <Gold.Chemscore.Rot.Weighted>
5.2864

> <Gold.Chemscore.Internal.Correction.Weighted>
   9.000000E+99

> <Gold.Protein.RotatedTorsions>
[ 6907 6896 6895 6894 ] final    4.12 input  -60.11 | X-H torsion
[ 7974 7965 7964 7962 ] final  -65.39 input  175.53 | X-H torsion
[ 8008 7997 7996 7995 ] final   60.70 input   59.86 | X-H torsion
[ 10167 10162 10161 10158 ] final  171.50 input  -65.29 | X-H torsion
[ 10718 10713 10712 10709 ] final   -4.43 input   66.30 | X-H torsion
[ 10763 10752 10751 10750 ] final  159.87 input  -60.55 | X-H torsion
[ 11005 11000 10999 10996 ] final   62.75 input  -57.11 | X-H torsion

> <Gold.Protein.ActiveResidues>
 VAL166  LYS551  ARG553  GLY616  TRP617  ASP618  TYR619  PRO620  LYS621  CYS622 
 ASP623  PHE694  ASN695  SER759  ASP760  ASP761  ALA762  ILE779  LEU786  VAL792 
 PHE793  MET794  SER795  GLU796  ALA797  LYS798  CYS799  TRP800  GLU811  SER814 

> <Gold.Protein.RotatedAtoms>
  151.6362  135.1018  160.0131 H   0  0  0  0  0  0  0  0  0  0  0  0  # atno 6907 bound_to 6896
  152.4079  133.6914  159.6381 H   0  0  0  0  0  0  0  0  0  0  0  0  # atno 6908 bound_to 6896
  150.7972  133.8593  159.3268 H   0  0  0  0  0  0  0  0  0  0  0  0  # atno 6909 bound_to 6896
  145.7549  140.8890  143.0460 H   0  0  0  0  0  0  0  0  0  0  0  0  # atno 7974 bound_to 7965
  155.5866  140.3492  155.4555 H   0  0  0  0  0  0  0  0  0  0  0  0  # atno 8008 bound_to 7997
  156.0333  140.1279  157.0259 H   0  0  0  0  0  0  0  0  0  0  0  0  # atno 8009 bound_to 7997
  154.4361  140.1039  156.6117 H   0  0  0  0  0  0  0  0  0  0  0  0  # atno 8010 bound_to 7997
  139.5048  144.3479  151.9952 H   0  0  0  0  0  0  0  0  0  0  0  0  # atno 10167 bound_to 10162
  156.7614  130.5271  149.5784 H   0  0  0  0  0  0  0  0  0  0  0  0  # atno 10718 bound_to 10713
  154.2386  135.2775  155.2862 H   0  0  0  0  0  0  0  0  0  0  0  0  # atno 10763 bound_to 10752
  154.5564  135.5660  153.6971 H   0  0  0  0  0  0  0  0  0  0  0  0  # atno 10764 bound_to 10752
  153.0004  135.6287  154.2530 H   0  0  0  0  0  0  0  0  0  0  0  0  # atno 10765 bound_to 10752
  140.0071  134.6353  155.9838 H   0  0  0  0  0  0  0  0  0  0  0  0  # atno 11005 bound_to 11000
  144.6842  139.9642  143.7481 LP  0  0  0  0  0  0  0  0  0  0  0  0  # atno 17320 bound_to 7965
  146.0321  139.3344  143.0749 LP  0  0  0  0  0  0  0  0  0  0  0  0  # atno 17321 bound_to 7965
  140.2916  144.3747  150.6087 LP  0  0  0  0  0  0  0  0  0  0  0  0  # atno 17342 bound_to 10162
  140.5942  143.2167  151.7195 LP  0  0  0  0  0  0  0  0  0  0  0  0  # atno 17343 bound_to 10162
  156.1337  130.6196  151.0369 LP  0  0  0  0  0  0  0  0  0  0  0  0  # atno 17370 bound_to 10713
  157.6733  131.0856  150.7559 LP  0  0  0  0  0  0  0  0  0  0  0  0  # atno 17371 bound_to 10713
  141.1685  133.6537  156.4564 LP  0  0  0  0  0  0  0  0  0  0  0  0  # atno 17394 bound_to 11000
  140.4621  134.6831  157.5090 LP  0  0  0  0  0  0  0  0  0  0  0  0  # atno 17395 bound_to 11000

$$$$
