AV-unprocessed.smi:1047|AV-procd|sdf|4570|dock4
  -GOLD-   22720 3 23D 1   1.00000     0.00000
 Structure written by MMmdl.
 56 58  0  0  0  0  0  0  0  0  2 V2000
  142.0168  144.6947  158.0620 C   0  0  0  0  0  0  0  0  0  0  0  0
  142.6909  145.5467  156.9772 C   0  0  0  0  0  0  0  0  0  0  0  0
  143.1529  144.8021  155.8065 N   0  0  0  0  0  0  0  0  0  0  0  0
  143.7138  145.6718  154.7753 C   0  0  0  0  0  0  0  0  0  0  0  0
  144.2244  144.8700  153.5660 C   0  0  0  0  0  0  0  0  0  0  0  0
  145.1730  143.9008  154.0003 O   0  0  0  0  0  0  0  0  0  0  0  0
  144.6421  142.9947  154.9644 C   0  0  1  0  0  0  0  0  0  0  0  0
  145.7454  141.9984  155.3451 C   0  0  0  0  0  0  0  0  0  0  0  0
  146.0003  141.0424  154.2492 N   0  3  0  0  0  0  0  0  0  0  0  0
  147.2332  141.3210  153.4865 C   0  0  0  0  0  0  0  0  0  0  0  0
  148.4920  140.8567  154.2464 C   0  0  1  0  0  0  0  0  0  0  0  0
  149.5959  140.8613  153.3629 O   0  0  0  0  0  0  0  0  0  0  0  0
  148.8580  141.7604  155.4408 C   0  0  0  0  0  0  0  0  0  0  0  0
  149.9367  141.2172  156.2464 N   0  0  0  0  0  0  0  0  0  0  0  0
  150.5043  140.0020  156.1235 C   0  0  0  0  0  0  0  0  0  0  0  0
  151.4816  139.6981  156.9723 N   0  0  0  0  0  0  0  0  0  0  0  0
  151.5630  140.8534  157.7306 C   0  0  0  0  0  0  0  0  0  0  0  0
  152.4087  141.1828  158.8121 C   0  0  0  0  0  0  0  0  0  0  0  0
  152.3123  142.4394  159.4512 C   0  0  0  0  0  0  0  0  0  0  0  0
  153.2438  142.7517  160.6094 C   0  0  0  0  0  0  0  0  0  0  0  0
  151.3566  143.3895  159.0097 C   0  0  0  0  0  0  0  0  0  0  0  0
  151.2344  144.7455  159.6821 C   0  0  0  0  0  0  0  0  0  0  0  0
  150.5051  143.0777  157.9294 C   0  0  0  0  0  0  0  0  0  0  0  0
  150.6111  141.8239  157.3012 C   0  0  0  0  0  0  0  0  0  0  0  0
  144.1503  143.8054  156.1800 C   0  0  0  0  0  0  0  0  0  0  0  0
  141.7922  145.3014  158.9392 H   0  0  0  0  0  0  0  0  0  0  0  0
  142.6657  143.8790  158.3821 H   0  0  0  0  0  0  0  0  0  0  0  0
  141.0764  144.2645  157.7185 H   0  0  0  0  0  0  0  0  0  0  0  0
  142.0133  146.3436  156.6675 H   0  0  0  0  0  0  0  0  0  0  0  0
  143.5458  146.0433  157.4381 H   0  0  0  0  0  0  0  0  0  0  0  0
  142.9639  146.3828  154.4295 H   0  0  0  0  0  0  0  0  0  0  0  0
  144.5339  146.2591  155.1913 H   0  0  0  0  0  0  0  0  0  0  0  0
  143.3979  144.3756  153.0535 H   0  0  0  0  0  0  0  0  0  0  0  0
  144.6979  145.5344  152.8432 H   0  0  0  0  0  0  0  0  0  0  0  0
  143.8010  142.4522  154.5281 H   0  0  0  0  0  0  0  0  0  0  0  0
  146.6653  142.5298  155.5930 H   0  0  0  0  0  0  0  0  0  0  0  0
  145.4473  141.4391  156.2330 H   0  0  0  0  0  0  0  0  0  0  0  0
  146.0631  140.1127  154.6389 H   0  0  0  0  0  0  0  0  0  0  0  0
  147.1810  140.8418  152.5077 H   0  0  0  0  0  0  0  0  0  0  0  0
  147.2723  142.3964  153.3125 H   0  0  0  0  0  0  0  0  0  0  0  0
  148.3487  139.8367  154.6060 H   0  0  0  0  0  0  0  0  0  0  0  0
  149.4167  140.2770  152.6426 H   0  0  0  0  0  0  0  0  0  0  0  0
  149.1639  142.7467  155.0880 H   0  0  0  0  0  0  0  0  0  0  0  0
  147.9897  141.9171  156.0825 H   0  0  0  0  0  0  0  0  0  0  0  0
  150.1782  139.2992  155.3707 H   0  0  0  0  0  0  0  0  0  0  0  0
  153.1367  140.4591  159.1485 H   0  0  0  0  0  0  0  0  0  0  0  0
  153.8317  143.6453  160.3978 H   0  0  0  0  0  0  0  0  0  0  0  0
  153.9387  141.9318  160.7942 H   0  0  0  0  0  0  0  0  0  0  0  0
  152.6738  142.9199  161.5235 H   0  0  0  0  0  0  0  0  0  0  0  0
  150.4321  145.3378  159.2410 H   0  0  0  0  0  0  0  0  0  0  0  0
  152.1626  145.3076  159.5766 H   0  0  0  0  0  0  0  0  0  0  0  0
  151.0182  144.6288  160.7441 H   0  0  0  0  0  0  0  0  0  0  0  0
  149.7741  143.7932  157.5834 H   0  0  0  0  0  0  0  0  0  0  0  0
  145.0000  144.2956  156.6587 H   0  0  0  0  0  0  0  0  0  0  0  0
  143.7283  143.1239  156.9198 H   0  0  0  0  0  0  0  0  0  0  0  0
  145.2162  141.0750  153.6132 H   0  0  0  0  0  0  0  0  0  0  0  0
  1  2  1  0  0  0  0
  1 26  1  0  0  0  0
  1 27  1  0  0  0  0
  1 28  1  0  0  0  0
  2  3  1  0  0  0  0
  2 29  1  0  0  0  0
  2 30  1  0  0  0  0
  3 25  1  0  0  0  0
  3  4  1  0  0  0  0
  4  5  1  0  0  0  0
  4 31  1  0  0  0  0
  4 32  1  0  0  0  0
  5  6  1  0  0  0  0
  5 33  1  0  0  0  0
  5 34  1  0  0  0  0
  6  7  1  0  0  0  0
  7  8  1  0  0  0  0
  7 25  1  0  0  0  0
  7 35  1  0  0  0  0
  8  9  1  0  0  0  0
  8 36  1  0  0  0  0
  8 37  1  0  0  0  0
  9 10  1  0  0  0  0
  9 38  1  0  0  0  0
  9 56  1  0  0  0  0
 10 11  1  0  0  0  0
 10 39  1  0  0  0  0
 10 40  1  0  0  0  0
 11 12  1  0  0  0  0
 11 13  1  0  0  0  0
 11 41  1  0  0  0  0
 12 42  1  0  0  0  0
 13 14  1  0  0  0  0
 13 43  1  0  0  0  0
 13 44  1  0  0  0  0
 14 24  1  0  0  0  0
 14 15  1  0  0  0  0
 15 16  2  0  0  0  0
 15 45  1  0  0  0  0
 16 17  1  0  0  0  0
 17 24  2  0  0  0  0
 17 18  1  0  0  0  0
 18 19  2  0  0  0  0
 18 46  1  0  0  0  0
 19 20  1  0  0  0  0
 19 21  1  0  0  0  0
 20 47  1  0  0  0  0
 20 48  1  0  0  0  0
 20 49  1  0  0  0  0
 21 22  1  0  0  0  0
 21 23  2  0  0  0  0
 22 50  1  0  0  0  0
 22 51  1  0  0  0  0
 22 52  1  0  0  0  0
 23 24  1  0  0  0  0
 23 53  1  0  0  0  0
 25 54  1  0  0  0  0
 25 55  1  0  0  0  0
M  CHG  1   9   1
M  END
> <s_m_source_file>
AV-unprocessed.smi

> <i_m_source_file_index>
1047

> <i_lp_mmshare_version>
43012

> <i_f3d_flags>
0

> <s_epik_input>
W0NIM11bQ0gyXU4xW0NIMl1bQ0gyXU9bQ0BIXShbQ0gyXTEpW0NIMl1bTkhdW0NIMl1bQ0BIXShbT0hdKVtDSDJdbihbY0hdbjIpYyhjMjMpW2NIXWMoW0NIM10pYyhbY0hdMylbQ0gzXQ==

> <s_epik_cmdline>
J2VwaWtfcHl0aG9uJywgJy1waCcsICc3LjAnLCAnLXRuJywgJzgnLCAnLW1hJywgJzIwMCcsICctbWV0YWxfYmluZGluZycsICctaW1hZScsICc8aW5maWxlLm1hZT4nLCAnLW9tYWUnLCAnPG91dGZpbGUubWFlPic=

> <r_epik_Ionization_Penalty>
0.692425

> <r_epik_Ionization_Penalty_Charging>
0.0243549

> <r_epik_Ionization_Penalty_Neutral>
0.66807

> <r_epik_State_Penalty>
0.592789

> <r_epik_Charging_Adjusted_Penalty>
0.617144

> <i_epik_Tot_Q>
1

> <i_epik_Tot_abs_Q>
1

> <r_epik_Metal_State_Penalty>
0.508021

> <b_epik_Metal_Only>
0

> <s_lp_Force_Field>
OPLS_2005

> <r_lp_Energy>
31.2277

> <b_lp_Chiralities_Consistent>
1

> <s_lp_Variant>
AV-unprocessed.smi:1047-11

> <Gold.Version>
5.8.1

> <Gold.Id.Protein>
6NUR|6NUR_protein|mol2

> <Gold.PLP.Fitness>
57.9312

> <Gold.PLP.PLP>
-46.8600

> <Gold.PLP.part.hbond>
-3.2908

> <Gold.PLP.part.metal>
0.0000

> <Gold.PLP.part.buried>
-4.6588

> <Gold.PLP.part.nonpolar>
-40.6771

> <Gold.PLP.part.repulsive>
0.2359

> <Gold.PLP.ligand.clash>
0.0000

> <Gold.PLP.ligand.torsion>
0.6349

> <Gold.PLP.Chemscore.Hbond>
4.0545

> <Gold.PLP.Chemscore.CHOScore>
0.0000

> <Gold.PLP.Chemscore.Metal>
0.0000

> <Gold.Chemscore.Hbonds>
donor molecule, donor type, donor heavy atom, donor atom, acceptor molecule, acceptor atom, score
      L1  H     9    56       P1 10175  2.00
      L1  H    12    42       P1  7957  0.86
      P1  H  7989  7998       L1    12  0.27
      P1  H  8011  8017       L1    12  0.80

> <Gold.PLP.Chemscore.Internal.Correction>
0.1775

> <Gold.Rescore>
     Score         DG    S(hbond)    S(metal)    S(lipo)     H(rot)  DE(clash)    DE(int)     intcor
     19.31     -21.16       2.02        0.00     133.32       2.60       0.25       1.60       ----

> <Gold.Chemscore.Fitness>
19.3146

> <Gold.Chemscore.DG>
-21.1648

> <Gold.Chemscore.ZeroCoef>
-5.4800

> <Gold.Chemscore.Hbond>
2.0225

> <Gold.Chemscore.Metal>
0.0000

> <Gold.Chemscore.Lipo>
133.3161

> <Gold.Chemscore.Internal_Hbond>
0.0000

> <Gold.Chemscore.DEClash>
0.2506

> <Gold.Chemscore.DEInternal>
1.5996

> <Gold.Chemscore.Rot>
2.6049

> <Gold.Chemscore.Internal.Correction>
   9.000000E+99

> <Gold.Chemscore.Hbonds>
donor molecule, donor type, donor heavy atom, donor atom, acceptor molecule, acceptor atom, score
      L1  H     9    56       P1 10175  0.59
      L1  H    12    42       P1  7957  0.79
      P1  H  7989  7998       L1    12  0.10
      P1  H  8011  8017       L1    12  0.11

> <Gold.Chemscore.Hbond.Weighted>
-6.7553

> <Gold.Chemscore.Metal.Weighted>
-0.0000

> <Gold.Chemscore.Lipo.Weighted>
-15.5980

> <Gold.Chemscore.Internal_Hbond.Weighted>
0.0000

> <Gold.Chemscore.DEClash.Weighted>
0.2506

> <Gold.Chemscore.DEInternal.Weighted>
1.5996

> <Gold.Chemscore.Rot.Weighted>
6.6685

> <Gold.Chemscore.Internal.Correction.Weighted>
   9.000000E+99

> <Gold.Protein.RotatedTorsions>
[ 6907 6896 6895 6894 ] final   -4.33 input  -60.11 | X-H torsion
[ 7974 7965 7964 7962 ] final  -26.15 input  175.53 | X-H torsion
[ 8008 7997 7996 7995 ] final  -57.79 input   59.86 | X-H torsion
[ 10167 10162 10161 10158 ] final   95.08 input  -65.29 | X-H torsion
[ 10718 10713 10712 10709 ] final  164.95 input   66.30 | X-H torsion
[ 10763 10752 10751 10750 ] final  -18.71 input  -60.55 | X-H torsion
[ 11005 11000 10999 10996 ] final   -9.09 input  -57.11 | X-H torsion

> <Gold.Protein.ActiveResidues>
 VAL166  LYS551  ARG553  GLY616  TRP617  ASP618  TYR619  PRO620  LYS621  CYS622 
 ASP623  PHE694  ASN695  SER759  ASP760  ASP761  ALA762  ILE779  LEU786  VAL792 
 PHE793  MET794  SER795  GLU796  ALA797  LYS798  CYS799  TRP800  GLU811  SER814 

> <Gold.Protein.RotatedAtoms>
  151.4994  135.1061  159.9824 H   0  0  0  0  0  0  0  0  0  0  0  0  # atno 6907 bound_to 6896
  152.4708  133.8022  159.6969 H   0  0  0  0  0  0  0  0  0  0  0  0  # atno 6908 bound_to 6896
  150.8716  133.7434  159.2985 H   0  0  0  0  0  0  0  0  0  0  0  0  # atno 6909 bound_to 6896
  146.1444  140.4982  142.8638 H   0  0  0  0  0  0  0  0  0  0  0  0  # atno 7974 bound_to 7965
  154.4282  140.1099  156.5854 H   0  0  0  0  0  0  0  0  0  0  0  0  # atno 8008 bound_to 7997
  155.6068  140.3494  155.4591 H   0  0  0  0  0  0  0  0  0  0  0  0  # atno 8009 bound_to 7997
  156.0130  140.1223  157.0424 H   0  0  0  0  0  0  0  0  0  0  0  0  # atno 8010 bound_to 7997
  139.8022  144.6809  150.9750 H   0  0  0  0  0  0  0  0  0  0  0  0  # atno 10167 bound_to 10162
  157.0871  131.0408  151.2552 H   0  0  0  0  0  0  0  0  0  0  0  0  # atno 10718 bound_to 10713
  153.5934  135.7001  153.5413 H   0  0  0  0  0  0  0  0  0  0  0  0  # atno 10763 bound_to 10752
  153.3158  135.4088  155.1375 H   0  0  0  0  0  0  0  0  0  0  0  0  # atno 10764 bound_to 10752
  154.8596  135.3683  154.5467 H   0  0  0  0  0  0  0  0  0  0  0  0  # atno 10765 bound_to 10752
  140.7304  133.8754  155.8889 H   0  0  0  0  0  0  0  0  0  0  0  0  # atno 11005 bound_to 11000
  144.7829  140.5878  143.6593 LP  0  0  0  0  0  0  0  0  0  0  0  0  # atno 17320 bound_to 7965
  145.4971  139.1485  143.3677 LP  0  0  0  0  0  0  0  0  0  0  0  0  # atno 17321 bound_to 7965
  140.7820  143.4270  151.0753 LP  0  0  0  0  0  0  0  0  0  0  0  0  # atno 17342 bound_to 10162
  139.7941  143.8177  152.3155 LP  0  0  0  0  0  0  0  0  0  0  0  0  # atno 17343 bound_to 10162
  157.4752  130.7732  149.7361 LP  0  0  0  0  0  0  0  0  0  0  0  0  # atno 17370 bound_to 10713
  155.9908  130.3942  150.3013 LP  0  0  0  0  0  0  0  0  0  0  0  0  # atno 17371 bound_to 10713
  140.9926  134.1258  157.4394 LP  0  0  0  0  0  0  0  0  0  0  0  0  # atno 17394 bound_to 11000
  139.8827  135.0045  156.6252 LP  0  0  0  0  0  0  0  0  0  0  0  0  # atno 17395 bound_to 11000

$$$$
