AV-unprocessed.smi:290|AV-procd|sdf|2233|dock9
  -GOLD-   2262022103D 1   1.00000     0.00000
 Structure written by MMmdl.
 59 62  0  0  0  0  0  0  0  0  2 V2000
  152.1954  143.1202  158.5808 C   0  0  0  0  0  0  0  0  0  0  0  0
  151.4317  141.8249  158.2596 C   0  0  2  0  0  0  0  0  0  0  0  0
  152.3665  140.7539  158.1727 O   0  0  0  0  0  0  0  0  0  0  0  0
  151.8484  139.7720  157.2941 C   0  0  0  0  0  0  0  0  0  0  0  0
  151.2455  140.6191  156.1834 C   0  0  0  0  0  0  0  0  0  0  0  0
  150.6236  141.8010  156.9299 C   0  0  2  0  0  0  0  0  0  0  0  0
  150.8372  142.9671  156.1531 O   0  0  0  0  0  0  0  0  0  0  0  0
  149.0842  141.6996  157.1298 C   0  0  0  0  0  0  0  0  0  0  0  0
  148.3421  141.1293  156.0122 N   0  0  0  0  0  0  0  0  0  0  0  0
  148.1194  141.7092  154.7820 C   0  0  0  0  0  0  0  0  0  0  0  0
  147.4237  140.9918  153.9423 N   0  0  0  0  0  0  0  0  0  0  0  0
  147.1669  139.8167  154.6372 C   0  0  0  0  0  0  0  0  0  0  0  0
  146.4759  138.6111  154.3291 C   0  0  0  0  0  0  0  0  0  0  0  0
  145.8577  138.3571  153.1553 N   0  0  0  0  0  0  0  0  0  0  0  0
  146.6898  138.5212  151.9724 C   0  0  0  0  0  0  0  0  0  0  0  0
  146.5611  137.2272  151.1776 C   0  0  0  0  0  0  0  0  0  0  0  0
  145.2093  136.6422  151.6101 C   0  0  1  0  0  0  0  0  0  0  0  0
  145.1623  135.1691  151.3574 N   0  3  1  0  0  0  0  0  0  0  0  0
  146.0498  134.3511  152.2185 C   0  0  0  0  0  0  0  0  0  0  0  0
  143.7737  134.6332  151.3463 C   0  0  0  0  0  0  0  0  0  0  0  0
  143.7315  133.1557  150.9234 C   0  0  0  0  0  0  0  0  0  0  0  0
  142.3972  132.7586  150.6852 O   0  0  0  0  0  0  0  0  0  0  0  0
  145.1458  137.0816  153.0939 C   0  0  2  0  0  0  0  0  0  0  0  0
  143.7238  137.2690  153.6626 C   0  0  0  0  0  0  0  0  0  0  0  0
  146.4380  137.6385  155.2713 N   0  0  0  0  0  0  0  0  0  0  0  0
  147.0400  137.8283  156.4490 C   0  0  0  0  0  0  0  0  0  0  0  0
  147.7175  138.8955  156.8777 N   0  0  0  0  0  0  0  0  0  0  0  0
  147.7509  139.8791  155.9330 C   0  0  0  0  0  0  0  0  0  0  0  0
  144.4065  137.1362  151.0590 H   0  0  0  0  0  0  0  0  0  0  0  0
  145.6798  136.3500  153.7021 H   0  0  0  0  0  0  0  0  0  0  0  0
  151.5157  143.9687  158.6622 H   0  0  0  0  0  0  0  0  0  0  0  0
  152.9348  143.3493  157.8128 H   0  0  0  0  0  0  0  0  0  0  0  0
  152.7250  143.0305  159.5292 H   0  0  0  0  0  0  0  0  0  0  0  0
  150.7789  141.6068  159.1018 H   0  0  0  0  0  0  0  0  0  0  0  0
  152.6289  139.1009  156.9356 H   0  0  0  0  0  0  0  0  0  0  0  0
  151.0904  139.1771  157.8048 H   0  0  0  0  0  0  0  0  0  0  0  0
  152.0586  140.9591  155.5395 H   0  0  0  0  0  0  0  0  0  0  0  0
  150.5487  140.0729  155.5503 H   0  0  0  0  0  0  0  0  0  0  0  0
  150.0168  143.4292  156.0730 H   0  0  0  0  0  0  0  0  0  0  0  0
  148.8649  141.1064  158.0189 H   0  0  0  0  0  0  0  0  0  0  0  0
  148.6713  142.6908  157.3238 H   0  0  0  0  0  0  0  0  0  0  0  0
  148.4903  142.6900  154.5215 H   0  0  0  0  0  0  0  0  0  0  0  0
  146.2918  139.3575  151.3969 H   0  0  0  0  0  0  0  0  0  0  0  0
  147.7322  138.7489  152.2006 H   0  0  0  0  0  0  0  0  0  0  0  0
  146.6400  137.4040  150.1049 H   0  0  0  0  0  0  0  0  0  0  0  0
  147.3690  136.5515  151.4637 H   0  0  0  0  0  0  0  0  0  0  0  0
  145.8181  134.5015  153.2736 H   0  0  0  0  0  0  0  0  0  0  0  0
  147.0986  134.5893  152.0443 H   0  0  0  0  0  0  0  0  0  0  0  0
  145.9386  133.2886  152.0050 H   0  0  0  0  0  0  0  0  0  0  0  0
  143.3317  134.7542  152.3365 H   0  0  0  0  0  0  0  0  0  0  0  0
  143.1310  135.1999  150.6729 H   0  0  0  0  0  0  0  0  0  0  0  0
  144.3321  132.9689  150.0335 H   0  0  0  0  0  0  0  0  0  0  0  0
  144.1384  132.5289  151.7173 H   0  0  0  0  0  0  0  0  0  0  0  0
  141.9180  133.4952  150.3358 H   0  0  0  0  0  0  0  0  0  0  0  0
  143.1416  136.3512  153.6725 H   0  0  0  0  0  0  0  0  0  0  0  0
  143.1646  138.0054  153.0846 H   0  0  0  0  0  0  0  0  0  0  0  0
  143.7609  137.6241  154.6929 H   0  0  0  0  0  0  0  0  0  0  0  0
  146.9677  137.0083  157.1485 H   0  0  0  0  0  0  0  0  0  0  0  0
  145.5083  135.0518  150.4153 H   0  0  0  0  0  0  0  0  0  0  0  0
  1  2  1  0  0  0  0
  1 31  1  0  0  0  0
  1 32  1  0  0  0  0
  1 33  1  0  0  0  0
  2  6  1  0  0  0  0
  2  3  1  0  0  0  0
  2 34  1  0  0  0  0
  3  4  1  0  0  0  0
  4  5  1  0  0  0  0
  4 35  1  0  0  0  0
  4 36  1  0  0  0  0
  5  6  1  0  0  0  0
  5 37  1  0  0  0  0
  5 38  1  0  0  0  0
  6  7  1  0  0  0  0
  6  8  1  0  0  0  0
  7 39  1  0  0  0  0
  8  9  1  0  0  0  0
  8 40  1  0  0  0  0
  8 41  1  0  0  0  0
  9 28  1  0  0  0  0
  9 10  1  0  0  0  0
 10 11  2  0  0  0  0
 10 42  1  0  0  0  0
 11 12  1  0  0  0  0
 12 28  2  0  0  0  0
 12 13  1  0  0  0  0
 13 14  1  0  0  0  0
 13 25  2  0  0  0  0
 14 23  1  0  0  0  0
 14 15  1  0  0  0  0
 15 16  1  0  0  0  0
 15 43  1  0  0  0  0
 15 44  1  0  0  0  0
 16 17  1  0  0  0  0
 16 45  1  0  0  0  0
 16 46  1  0  0  0  0
 17 29  1  0  0  0  0
 17 18  1  0  0  0  0
 17 23  1  0  0  0  0
 18 19  1  0  0  0  0
 18 20  1  0  0  0  0
 18 59  1  0  0  0  0
 19 47  1  0  0  0  0
 19 48  1  0  0  0  0
 19 49  1  0  0  0  0
 20 21  1  0  0  0  0
 20 50  1  0  0  0  0
 20 51  1  0  0  0  0
 21 22  1  0  0  0  0
 21 52  1  0  0  0  0
 21 53  1  0  0  0  0
 22 54  1  0  0  0  0
 23 30  1  0  0  0  0
 23 24  1  0  0  0  0
 24 55  1  0  0  0  0
 24 56  1  0  0  0  0
 24 57  1  0  0  0  0
 25 26  1  0  0  0  0
 26 27  2  0  0  0  0
 26 58  1  0  0  0  0
 27 28  1  0  0  0  0
M  CHG  1  18   1
M  END
> <s_m_source_file>
AV-unprocessed.smi

> <i_m_source_file_index>
290

> <i_lp_mmshare_version>
43012

> <i_f3d_flags>
0

> <s_epik_input>
W0NIMl0xW0NIMl1PW0NAQEhdKFtDSDNdKVtDQEBdMShbT0hdKVtDSDJdbihbY0hdbjIpYyhjMjMpbltjSF1uYzNONFtDSDJdW0NIMl1bQ0BIXShbQ0BIXTRbQ0gzXSlOKFtDSDNdKVtDSDJdW0NIMl1bT0hd

> <s_epik_cmdline>
J2VwaWtfcHl0aG9uJywgJy1waCcsICc3LjAnLCAnLXRuJywgJzgnLCAnLW1hJywgJzIwMCcsICctbWV0YWxfYmluZGluZycsICctaW1hZScsICc8aW5maWxlLm1hZT4nLCAnLW9tYWUnLCAnPG91dGZpbGUubWFlPic=

> <r_lp_tautomer_probability>
1

> <r_epik_Ionization_Penalty>
0.0036983

> <r_epik_Ionization_Penalty_Charging>
0.0032725

> <r_epik_Ionization_Penalty_Neutral>
0.000425798

> <r_epik_State_Penalty>
-0

> <r_epik_Charging_Adjusted_Penalty>
0.0032725

> <i_epik_Tot_Q>
1

> <i_epik_Tot_abs_Q>
1

> <r_epik_Metal_State_Penalty>
-0

> <b_epik_Metal_Only>
0

> <s_lp_Force_Field>
OPLS_2005

> <r_lp_Energy>
66.0364

> <b_lp_Chiralities_Consistent>
1

> <s_lp_Variant>
AV-unprocessed.smi:290-19

> <Gold.Version>
5.8.1

> <Gold.Id.Protein>
6NUR|6NUR_protein|mol2

> <Gold.PLP.Fitness>
42.9707

> <Gold.PLP.PLP>
-35.3525

> <Gold.PLP.part.hbond>
-2.8995

> <Gold.PLP.part.metal>
0.0000

> <Gold.PLP.part.buried>
1.6259

> <Gold.PLP.part.nonpolar>
-33.6618

> <Gold.PLP.part.repulsive>
0.5916

> <Gold.PLP.ligand.clash>
0.0000

> <Gold.PLP.ligand.torsion>
0.8293

> <Gold.PLP.Chemscore.Hbond>
1.9920

> <Gold.PLP.Chemscore.CHOScore>
1.0000

> <Gold.PLP.Chemscore.Metal>
0.0000

> <Gold.Chemscore.Hbonds>
donor molecule, donor type, donor heavy atom, donor atom, acceptor molecule, acceptor atom, score
      L1  H     7    39       P1  8028  1.00
      L1  H    22    54       P1 10186  0.96
      L1  C    10    42       P1  8028  1.00

> <Gold.PLP.Chemscore.Internal.Correction>
0.3009

> <Gold.Rescore>
     Score         DG    S(hbond)    S(metal)    S(lipo)     H(rot)  DE(clash)    DE(int)     intcor
     10.91     -13.56       1.95        0.00      93.46       3.67       1.88       0.78       ----

> <Gold.Chemscore.Fitness>
10.9084

> <Gold.Chemscore.DG>
-13.5593

> <Gold.Chemscore.ZeroCoef>
-5.4800

> <Gold.Chemscore.Hbond>
1.9549

> <Gold.Chemscore.Metal>
0.0000

> <Gold.Chemscore.Lipo>
93.4559

> <Gold.Chemscore.Internal_Hbond>
0.0000

> <Gold.Chemscore.DEClash>
1.8756

> <Gold.Chemscore.DEInternal>
0.7753

> <Gold.Chemscore.Rot>
3.6658

> <Gold.Chemscore.Internal.Correction>
   9.000000E+99

> <Gold.Chemscore.Hbonds>
donor molecule, donor type, donor heavy atom, donor atom, acceptor molecule, acceptor atom, score
      L1  H     7    39       P1  8028  0.99
      L1  H    22    54       P1 10186  0.89

> <Gold.Chemscore.Hbond.Weighted>
-6.5293

> <Gold.Chemscore.Metal.Weighted>
-0.0000

> <Gold.Chemscore.Lipo.Weighted>
-10.9343

> <Gold.Chemscore.Internal_Hbond.Weighted>
0.0000

> <Gold.Chemscore.DEClash.Weighted>
1.8756

> <Gold.Chemscore.DEInternal.Weighted>
0.7753

> <Gold.Chemscore.Rot.Weighted>
9.3844

> <Gold.Chemscore.Internal.Correction.Weighted>
   9.000000E+99

> <Gold.Protein.RotatedTorsions>
[ 6907 6896 6895 6894 ] final -164.07 input  -60.11 | X-H torsion
[ 7974 7965 7964 7962 ] final  118.19 input  175.53 | X-H torsion
[ 8008 7997 7996 7995 ] final -137.20 input   59.86 | X-H torsion
[ 10167 10162 10161 10158 ] final  125.27 input  -65.29 | X-H torsion
[ 10718 10713 10712 10709 ] final  106.71 input   66.30 | X-H torsion
[ 10763 10752 10751 10750 ] final  -42.52 input  -60.55 | X-H torsion
[ 11005 11000 10999 10996 ] final   74.74 input  -57.11 | X-H torsion

> <Gold.Protein.ActiveResidues>
 VAL166  LYS551  ARG553  GLY616  TRP617  ASP618  TYR619  PRO620  LYS621  CYS622 
 ASP623  PHE694  ASN695  SER759  ASP760  ASP761  ALA762  ILE779  LEU786  VAL792 
 PHE793  MET794  SER795  GLU796  ALA797  LYS798  CYS799  TRP800  GLU811  SER814 

> <Gold.Protein.RotatedAtoms>
  151.4060  133.3742  159.2737 H   0  0  0  0  0  0  0  0  0  0  0  0  # atno 6907 bound_to 6896
  150.9398  134.8809  159.7616 H   0  0  0  0  0  0  0  0  0  0  0  0  # atno 6908 bound_to 6896
  152.5066  134.4009  159.9468 H   0  0  0  0  0  0  0  0  0  0  0  0  # atno 6909 bound_to 6896
  145.1582  139.3171  143.4531 H   0  0  0  0  0  0  0  0  0  0  0  0  # atno 7974 bound_to 7965
  155.4079  140.0510  157.3033 H   0  0  0  0  0  0  0  0  0  0  0  0  # atno 8008 bound_to 7997
  154.4960  140.2138  155.9407 H   0  0  0  0  0  0  0  0  0  0  0  0  # atno 8009 bound_to 7997
  156.1405  140.3155  155.8494 H   0  0  0  0  0  0  0  0  0  0  0  0  # atno 8010 bound_to 7997
  139.5695  144.6931  151.3818 H   0  0  0  0  0  0  0  0  0  0  0  0  # atno 10167 bound_to 10162
  157.6657  131.0857  150.6048 H   0  0  0  0  0  0  0  0  0  0  0  0  # atno 10718 bound_to 10713
  153.9804  135.6717  153.4750 H   0  0  0  0  0  0  0  0  0  0  0  0  # atno 10763 bound_to 10752
  153.0751  135.4953  154.8384 H   0  0  0  0  0  0  0  0  0  0  0  0  # atno 10764 bound_to 10752
  154.7168  135.3108  154.9072 H   0  0  0  0  0  0  0  0  0  0  0  0  # atno 10765 bound_to 10752
  139.9376  134.7459  156.1185 H   0  0  0  0  0  0  0  0  0  0  0  0  # atno 11005 bound_to 11000
  146.3486  140.1682  142.8590 LP  0  0  0  0  0  0  0  0  0  0  0  0  # atno 17320 bound_to 7965
  145.0359  140.8908  143.5081 LP  0  0  0  0  0  0  0  0  0  0  0  0  # atno 17321 bound_to 7965
  140.6979  143.7703  150.7356 LP  0  0  0  0  0  0  0  0  0  0  0  0  # atno 17342 bound_to 10162
  140.1205  143.4616  152.2316 LP  0  0  0  0  0  0  0  0  0  0  0  0  # atno 17343 bound_to 10162
  156.6349  130.4442  149.5773 LP  0  0  0  0  0  0  0  0  0  0  0  0  # atno 17370 bound_to 10713
  156.2254  130.6762  151.1410 LP  0  0  0  0  0  0  0  0  0  0  0  0  # atno 17371 bound_to 10713
  141.0997  133.6682  156.2726 LP  0  0  0  0  0  0  0  0  0  0  0  0  # atno 17394 bound_to 11000
  140.6034  134.5532  157.5521 LP  0  0  0  0  0  0  0  0  0  0  0  0  # atno 17395 bound_to 11000

$$$$
