AV-unprocessed.smi:2324|AV-procd|sdf|9294|dock2
  -GOLD-   2272012513D 1   1.00000     0.00000
 Structure written by MMmdl.
 37 39  0  0  0  0  0  0  0  0  1 V2000
  147.0115  138.1575  155.2647 O   0  0  0  0  0  0  0  0  0  0  0  0
  147.5061  137.6536  154.2578 C   0  0  0  0  0  0  0  0  0  0  0  0
  146.7469  136.9532  153.3883 N   0  0  0  0  0  0  0  0  0  0  0  0
  145.3566  136.6381  153.3862 C   0  0  0  0  0  0  0  0  0  0  0  0
  144.9277  135.8698  152.2826 C   0  0  0  0  0  0  0  0  0  0  0  0
  143.5705  135.5148  152.1999 C   0  0  0  0  0  0  0  0  0  0  0  0
  142.7265  135.9549  153.2334 C   0  0  0  0  0  0  0  0  0  0  0  0
  143.1776  136.6893  154.2728 N   0  0  0  0  0  0  0  0  0  0  0  0
  144.4705  137.0225  154.3433 N   0  0  0  0  0  0  0  0  0  0  0  0
  148.8107  137.7651  153.9572 N   0  0  0  0  0  0  0  0  0  0  0  0
  149.8055  138.4765  154.7533 C   0  0  1  0  0  0  0  0  0  0  0  0
  151.1846  138.3572  154.0918 C   0  0  0  0  0  0  0  0  0  0  0  0
  152.2243  139.1939  154.8526 C   0  0  0  0  0  0  0  0  0  0  0  0
  151.8068  140.5552  154.9343 O   0  0  0  0  0  0  0  0  0  0  0  0
  150.5517  140.7723  155.5818 C   0  0  2  0  0  0  0  0  0  0  0  0
  150.6330  140.5179  157.0812 C   0  0  0  0  0  0  0  0  0  0  0  0
  149.8653  141.3846  158.0516 C   0  0  0  0  0  0  0  0  0  0  0  0
  151.3711  141.4763  157.9858 C   0  0  0  0  0  0  0  0  0  0  0  0
  149.4379  139.9646  154.8868 C   0  0  0  0  0  0  0  0  0  0  0  0
  147.2559  136.5871  152.5969 H   0  0  0  0  0  0  0  0  0  0  0  0
  145.6205  135.5582  151.5143 H   0  0  0  0  0  0  0  0  0  0  0  0
  143.1913  134.9284  151.3761 H   0  0  0  0  0  0  0  0  0  0  0  0
  141.6734  135.7163  153.2273 H   0  0  0  0  0  0  0  0  0  0  0  0
  149.1376  137.3231  153.1094 H   0  0  0  0  0  0  0  0  0  0  0  0
  149.8575  138.0219  155.7441 H   0  0  0  0  0  0  0  0  0  0  0  0
  151.4994  137.3136  154.0565 H   0  0  0  0  0  0  0  0  0  0  0  0
  151.1330  138.7028  153.0583 H   0  0  0  0  0  0  0  0  0  0  0  0
  152.3996  138.7844  155.8476 H   0  0  0  0  0  0  0  0  0  0  0  0
  153.1810  139.1572  154.3317 H   0  0  0  0  0  0  0  0  0  0  0  0
  150.3233  141.8304  155.4486 H   0  0  0  0  0  0  0  0  0  0  0  0
  150.7002  139.4680  157.3566 H   0  0  0  0  0  0  0  0  0  0  0  0
  149.2924  142.2161  157.6460 H   0  0  0  0  0  0  0  0  0  0  0  0
  149.4272  140.8963  158.9195 H   0  0  0  0  0  0  0  0  0  0  0  0
  151.9386  141.0506  158.8108 H   0  0  0  0  0  0  0  0  0  0  0  0
  151.8003  142.3697  157.5365 H   0  0  0  0  0  0  0  0  0  0  0  0
  149.2735  140.3829  153.8927 H   0  0  0  0  0  0  0  0  0  0  0  0
  148.4977  140.0826  155.4268 H   0  0  0  0  0  0  0  0  0  0  0  0
  1  2  2  0  0  0  0
  2  3  1  0  0  0  0
  2 10  1  0  0  0  0
  3  4  1  0  0  0  0
  3 20  1  0  0  0  0
  4  9  1  0  0  0  0
  4  5  2  0  0  0  0
  5  6  1  0  0  0  0
  5 21  1  0  0  0  0
  6  7  2  0  0  0  0
  6 22  1  0  0  0  0
  7  8  1  0  0  0  0
  7 23  1  0  0  0  0
  8  9  2  0  0  0  0
 10 11  1  0  0  0  0
 10 24  1  0  0  0  0
 11 19  1  0  0  0  0
 11 12  1  0  0  0  0
 11 25  1  0  0  0  0
 12 13  1  0  0  0  0
 12 26  1  0  0  0  0
 12 27  1  0  0  0  0
 13 14  1  0  0  0  0
 13 28  1  0  0  0  0
 13 29  1  0  0  0  0
 14 15  1  0  0  0  0
 15 16  1  0  0  0  0
 15 19  1  0  0  0  0
 15 30  1  0  0  0  0
 16 18  1  0  0  0  0
 16 17  1  0  0  0  0
 16 31  1  0  0  0  0
 17 18  1  0  0  0  0
 17 32  1  0  0  0  0
 17 33  1  0  0  0  0
 18 34  1  0  0  0  0
 18 35  1  0  0  0  0
 19 36  1  0  0  0  0
 19 37  1  0  0  0  0
M  END
> <s_m_source_file>
AV-unprocessed.smi

> <i_m_source_file_index>
2324

> <i_lp_mmshare_version>
43012

> <i_f3d_flags>
0

> <s_epik_input>
bjFuW2NIXVtjSF1bY0hdYzFbTkhdQyg9TylbTkhdW0NAQEhdMltDSDJdW0NIMl1PW0NASF0oW0NIMl0yKVtDSF0zW0NIMl1bQ0gyXTM=

> <s_epik_cmdline>
J2VwaWtfcHl0aG9uJywgJy1waCcsICc3LjAnLCAnLXRuJywgJzgnLCAnLW1hJywgJzIwMCcsICctbWV0YWxfYmluZGluZycsICctaW1hZScsICc8aW5maWxlLm1hZT4nLCAnLW9tYWUnLCAnPG91dGZpbGUubWFlPic=

> <r_lp_tautomer_probability>
1

> <r_epik_Ionization_Penalty>
0.00521499

> <r_epik_Ionization_Penalty_Charging>
0

> <r_epik_Ionization_Penalty_Neutral>
0.00521499

> <r_epik_State_Penalty>
-0

> <r_epik_Charging_Adjusted_Penalty>
0

> <i_epik_Tot_Q>
0

> <i_epik_Tot_abs_Q>
0

> <r_epik_Metal_State_Penalty>
-0

> <b_epik_Metal_Only>
0

> <s_lp_Force_Field>
OPLS_2005

> <r_lp_Energy>
28.1305

> <b_lp_Chiralities_Consistent>
1

> <s_lp_Variant>
AV-unprocessed.smi:2324-4

> <Gold.Version>
5.8.1

> <Gold.Id.Protein>
6NUR|6NUR_protein|mol2

> <Gold.PLP.Fitness>
35.1533

> <Gold.PLP.PLP>
-27.0946

> <Gold.PLP.part.hbond>
-2.9073

> <Gold.PLP.part.metal>
0.0000

> <Gold.PLP.part.buried>
-3.6029

> <Gold.PLP.part.nonpolar>
-20.8635

> <Gold.PLP.part.repulsive>
0.2732

> <Gold.PLP.ligand.clash>
0.0000

> <Gold.PLP.ligand.torsion>
0.5681

> <Gold.PLP.Chemscore.Hbond>
2.7048

> <Gold.PLP.Chemscore.CHOScore>
0.0000

> <Gold.PLP.Chemscore.Metal>
0.0000

> <Gold.Chemscore.Hbonds>
donor molecule, donor type, donor heavy atom, donor atom, acceptor molecule, acceptor atom, score
      L1  H     3    20       P1  7948  0.94
      L1  H    10    24       P1  7948  1.00
      P1  H  7989  7998       L1    14  0.61

> <Gold.PLP.Chemscore.Internal.Correction>
1.0805

> <Gold.Rescore>
     Score         DG    S(hbond)    S(metal)    S(lipo)     H(rot)  DE(clash)    DE(int)     intcor
     14.60     -16.47       2.07        0.00      62.02       1.25       0.06       1.81       ----

> <Gold.Chemscore.Fitness>
14.6005

> <Gold.Chemscore.DG>
-16.4728

> <Gold.Chemscore.ZeroCoef>
-5.4800

> <Gold.Chemscore.Hbond>
2.0749

> <Gold.Chemscore.Metal>
0.0000

> <Gold.Chemscore.Lipo>
62.0203

> <Gold.Chemscore.Internal_Hbond>
0.0000

> <Gold.Chemscore.DEClash>
0.0582

> <Gold.Chemscore.DEInternal>
1.8140

> <Gold.Chemscore.Rot>
1.2476

> <Gold.Chemscore.Internal.Correction>
   9.000000E+99

> <Gold.Chemscore.Hbonds>
donor molecule, donor type, donor heavy atom, donor atom, acceptor molecule, acceptor atom, score
      L1  H     3    20       P1  7948  0.91
      L1  H    10    24       P1  7948  0.96
      P1  H  7989  7998       L1    14  0.12

> <Gold.Chemscore.Hbond.Weighted>
-6.9302

> <Gold.Chemscore.Metal.Weighted>
-0.0000

> <Gold.Chemscore.Lipo.Weighted>
-7.2564

> <Gold.Chemscore.Internal_Hbond.Weighted>
0.0000

> <Gold.Chemscore.DEClash.Weighted>
0.0582

> <Gold.Chemscore.DEInternal.Weighted>
1.8140

> <Gold.Chemscore.Rot.Weighted>
3.1938

> <Gold.Chemscore.Internal.Correction.Weighted>
   9.000000E+99

> <Gold.Protein.RotatedTorsions>
[ 6907 6896 6895 6894 ] final  114.99 input  -60.11 | X-H torsion
[ 7974 7965 7964 7962 ] final   91.59 input  175.53 | X-H torsion
[ 8008 7997 7996 7995 ] final -143.80 input   59.86 | X-H torsion
[ 10167 10162 10161 10158 ] final  -65.51 input  -65.29 | X-H torsion
[ 10718 10713 10712 10709 ] final    2.98 input   66.30 | X-H torsion
[ 10763 10752 10751 10750 ] final   72.22 input  -60.55 | X-H torsion
[ 11005 11000 10999 10996 ] final   28.13 input  -57.11 | X-H torsion

> <Gold.Protein.ActiveResidues>
 VAL166  LYS551  ARG553  GLY616  TRP617  ASP618  TYR619  PRO620  LYS621  CYS622 
 ASP623  PHE694  ASN695  SER759  ASP760  ASP761  ALA762  ILE779  LEU786  VAL792 
 PHE793  MET794  SER795  GLU796  ALA797  LYS798  CYS799  TRP800  GLU811  SER814 

> <Gold.Protein.RotatedAtoms>
  152.4769  133.8159  159.7027 H   0  0  0  0  0  0  0  0  0  0  0  0  # atno 6907 bound_to 6896
  150.8791  133.7387  159.2944 H   0  0  0  0  0  0  0  0  0  0  0  0  # atno 6908 bound_to 6896
  151.4897  135.1060  159.9852 H   0  0  0  0  0  0  0  0  0  0  0  0  # atno 6909 bound_to 6896
  145.5037  139.2276  143.2763 H   0  0  0  0  0  0  0  0  0  0  0  0  # atno 7974 bound_to 7965
  155.5166  140.0588  157.2914 H   0  0  0  0  0  0  0  0  0  0  0  0  # atno 8008 bound_to 7997
  154.4532  140.1960  156.0402 H   0  0  0  0  0  0  0  0  0  0  0  0  # atno 8009 bound_to 7997
  156.0748  140.3255  155.7624 H   0  0  0  0  0  0  0  0  0  0  0  0  # atno 8010 bound_to 7997
  140.5725  143.2319  151.6510 H   0  0  0  0  0  0  0  0  0  0  0  0  # atno 10167 bound_to 10162
  156.8711  130.5620  149.5657 H   0  0  0  0  0  0  0  0  0  0  0  0  # atno 10718 bound_to 10713
  153.0446  135.5108  154.7711 H   0  0  0  0  0  0  0  0  0  0  0  0  # atno 10763 bound_to 10752
  154.6621  135.2940  154.9854 H   0  0  0  0  0  0  0  0  0  0  0  0  # atno 10764 bound_to 10752
  154.0702  135.6678  153.4876 H   0  0  0  0  0  0  0  0  0  0  0  0  # atno 10765 bound_to 10752
  140.3189  134.2566  155.7720 H   0  0  0  0  0  0  0  0  0  0  0  0  # atno 11005 bound_to 11000
  146.2210  140.5839  142.9017 LP  0  0  0  0  0  0  0  0  0  0  0  0  # atno 17320 bound_to 7965
  144.7766  140.5752  143.6634 LP  0  0  0  0  0  0  0  0  0  0  0  0  # atno 17321 bound_to 7965
  139.5125  144.3475  152.0683 LP  0  0  0  0  0  0  0  0  0  0  0  0  # atno 17342 bound_to 10162
  140.2614  144.4063  150.6184 LP  0  0  0  0  0  0  0  0  0  0  0  0  # atno 17343 bound_to 10162
  156.0726  130.5755  150.9412 LP  0  0  0  0  0  0  0  0  0  0  0  0  # atno 17370 bound_to 10713
  157.6195  131.0931  150.8648 LP  0  0  0  0  0  0  0  0  0  0  0  0  # atno 17371 bound_to 10713
  141.2091  133.7758  157.0017 LP  0  0  0  0  0  0  0  0  0  0  0  0  # atno 17394 bound_to 11000
  140.0959  134.9564  157.1849 LP  0  0  0  0  0  0  0  0  0  0  0  0  # atno 17395 bound_to 11000

$$$$
