AV-unprocessed.smi:252|AV-procd|sdf|1941|dock6
  -GOLD-   2262021 63D 1   1.00000     0.00000
 Structure written by MMmdl.
 56 59  0  0  0  0  0  0  0  0  1 V2000
  146.2092  131.4871  151.8350 C   0  0  0  0  0  0  0  0  0  0  0  0
  147.1377  132.7022  151.9869 C   0  0  0  0  0  0  0  0  0  0  0  0
  147.6100  132.9406  153.4250 C   0  0  0  0  0  0  0  0  0  0  0  0
  147.2679  132.1890  154.3388 O   0  0  0  0  0  0  0  0  0  0  0  0
  148.4046  134.0061  153.6087 N   0  0  0  0  0  0  0  0  0  0  0  0
  148.9682  134.4257  154.8876 C   0  0  1  0  0  0  0  0  0  0  0  0
  149.7148  133.2479  155.5408 C   0  0  0  0  0  0  0  0  0  0  0  0
  150.3941  133.6978  156.8440 C   0  0  0  0  0  0  0  0  0  0  0  0
  151.3052  134.9108  156.5965 C   0  0  0  0  0  0  0  0  0  0  0  0
  150.5608  135.9891  155.9524 N   0  0  0  0  0  0  0  0  0  0  0  0
  151.2452  137.1508  155.8954 C   0  0  0  0  0  0  0  0  0  0  0  0
  152.4855  137.1826  155.3400 N   0  0  0  0  0  0  0  0  0  0  0  0
  153.1608  138.3352  155.2874 C   0  0  0  0  0  0  0  0  0  0  0  0
  152.7892  139.5427  155.7200 N   0  0  0  0  0  0  0  0  0  0  0  0
  151.5445  139.5070  156.2772 C   0  0  0  0  0  0  0  0  0  0  0  0
  150.7113  138.3616  156.4062 C   0  0  0  0  0  0  0  0  0  0  0  0
  149.5171  138.7050  157.0273 N   0  0  0  0  0  0  0  0  0  0  0  0
  149.6377  139.9850  157.2548 C   0  0  0  0  0  0  0  0  0  0  0  0
  150.8231  140.5463  156.8356 N   0  0  0  0  0  0  0  0  0  0  0  0
  151.2232  141.9382  156.9633 C   0  0  0  0  0  0  0  0  0  0  0  0
  151.4361  142.4245  158.4316 C   0  0  1  0  0  0  0  0  0  0  0  0
  150.2258  142.3893  159.1762 O   0  0  0  0  0  0  0  0  0  0  0  0
  152.4767  141.5993  159.2056 C   0  0  0  0  0  0  0  0  0  0  0  0
  153.4640  142.6265  159.7629 C   0  0  0  0  0  0  0  0  0  0  0  0
  152.7713  143.8610  159.7008 O   0  0  0  0  0  0  0  0  0  0  0  0
  152.0222  143.8523  158.4973 C   0  0  2  0  0  0  0  0  0  0  0  0
  151.0203  145.0174  158.4489 C   0  0  0  0  0  0  0  0  0  0  0  0
  149.9193  135.6238  154.6921 C   0  0  0  0  0  0  0  0  0  0  0  0
  145.9111  131.3585  150.7944 H   0  0  0  0  0  0  0  0  0  0  0  0
  145.2999  131.6049  152.4257 H   0  0  0  0  0  0  0  0  0  0  0  0
  146.7016  130.5671  152.1519 H   0  0  0  0  0  0  0  0  0  0  0  0
  148.0137  132.5725  151.3503 H   0  0  0  0  0  0  0  0  0  0  0  0
  146.6241  133.5979  151.6356 H   0  0  0  0  0  0  0  0  0  0  0  0
  148.6328  134.5709  152.8036 H   0  0  0  0  0  0  0  0  0  0  0  0
  148.1567  134.7243  155.5545 H   0  0  0  0  0  0  0  0  0  0  0  0
  149.0255  132.4275  155.7440 H   0  0  0  0  0  0  0  0  0  0  0  0
  150.4698  132.8600  154.8553 H   0  0  0  0  0  0  0  0  0  0  0  0
  149.6331  133.9582  157.5808 H   0  0  0  0  0  0  0  0  0  0  0  0
  150.9713  132.8770  157.2702 H   0  0  0  0  0  0  0  0  0  0  0  0
  151.7213  135.2610  157.5423 H   0  0  0  0  0  0  0  0  0  0  0  0
  152.1458  134.6202  155.9644 H   0  0  0  0  0  0  0  0  0  0  0  0
  154.1394  138.2827  154.8334 H   0  0  0  0  0  0  0  0  0  0  0  0
  148.8616  140.5585  157.7400 H   0  0  0  0  0  0  0  0  0  0  0  0
  152.1254  142.0729  156.3668 H   0  0  0  0  0  0  0  0  0  0  0  0
  150.4647  142.5419  156.4637 H   0  0  0  0  0  0  0  0  0  0  0  0
  150.3787  141.8978  159.9688 H   0  0  0  0  0  0  0  0  0  0  0  0
  152.0170  141.0315  160.0162 H   0  0  0  0  0  0  0  0  0  0  0  0
  153.0080  140.8782  158.5844 H   0  0  0  0  0  0  0  0  0  0  0  0
  153.7816  142.3973  160.7801 H   0  0  0  0  0  0  0  0  0  0  0  0
  154.3531  142.6844  159.1332 H   0  0  0  0  0  0  0  0  0  0  0  0
  152.7413  143.9854  157.6865 H   0  0  0  0  0  0  0  0  0  0  0  0
  150.4176  144.9775  157.5413 H   0  0  0  0  0  0  0  0  0  0  0  0
  151.5433  145.9738  158.4577 H   0  0  0  0  0  0  0  0  0  0  0  0
  150.3439  145.0087  159.3036 H   0  0  0  0  0  0  0  0  0  0  0  0
  150.6842  135.3745  153.9551 H   0  0  0  0  0  0  0  0  0  0  0  0
  149.3675  136.4806  154.3023 H   0  0  0  0  0  0  0  0  0  0  0  0
  1  2  1  0  0  0  0
  1 29  1  0  0  0  0
  1 30  1  0  0  0  0
  1 31  1  0  0  0  0
  2  3  1  0  0  0  0
  2 32  1  0  0  0  0
  2 33  1  0  0  0  0
  3  4  2  0  0  0  0
  3  5  1  0  0  0  0
  5  6  1  0  0  0  0
  5 34  1  0  0  0  0
  6 28  1  0  0  0  0
  6  7  1  0  0  0  0
  6 35  1  0  0  0  0
  7  8  1  0  0  0  0
  7 36  1  0  0  0  0
  7 37  1  0  0  0  0
  8  9  1  0  0  0  0
  8 38  1  0  0  0  0
  8 39  1  0  0  0  0
  9 10  1  0  0  0  0
  9 40  1  0  0  0  0
  9 41  1  0  0  0  0
 10 11  1  0  0  0  0
 10 28  1  0  0  0  0
 11 16  1  0  0  0  0
 11 12  2  0  0  0  0
 12 13  1  0  0  0  0
 13 14  2  0  0  0  0
 13 42  1  0  0  0  0
 14 15  1  0  0  0  0
 15 19  1  0  0  0  0
 15 16  2  0  0  0  0
 16 17  1  0  0  0  0
 17 18  2  0  0  0  0
 18 19  1  0  0  0  0
 18 43  1  0  0  0  0
 19 20  1  0  0  0  0
 20 21  1  0  0  0  0
 20 44  1  0  0  0  0
 20 45  1  0  0  0  0
 21 26  1  0  0  0  0
 21 22  1  0  0  0  0
 21 23  1  0  0  0  0
 22 46  1  0  0  0  0
 23 24  1  0  0  0  0
 23 47  1  0  0  0  0
 23 48  1  0  0  0  0
 24 25  1  0  0  0  0
 24 49  1  0  0  0  0
 24 50  1  0  0  0  0
 25 26  1  0  0  0  0
 26 27  1  0  0  0  0
 26 51  1  0  0  0  0
 27 52  1  0  0  0  0
 27 53  1  0  0  0  0
 27 54  1  0  0  0  0
 28 55  1  0  0  0  0
 28 56  1  0  0  0  0
M  END
> <s_m_source_file>
AV-unprocessed.smi

> <i_m_source_file_index>
252

> <i_lp_mmshare_version>
43012

> <i_f3d_flags>
0

> <s_epik_input>
W0NIM11bQ0gyXUMoPU8pW05IXVtDQEBIXTFbQ0gyXVtDSDJdW0NIMl1OKFtDSDJdMSljKG5bY0hdbjIpYyhjMjMpbltjSF1uM1tDSDJdW0NAQF00KFtPSF0pW0NIMl1bQ0gyXU9bQ0BIXTRbQ0gzXQ==

> <s_epik_cmdline>
J2VwaWtfcHl0aG9uJywgJy1waCcsICc3LjAnLCAnLXRuJywgJzgnLCAnLW1hJywgJzIwMCcsICctbWV0YWxfYmluZGluZycsICctaW1hZScsICc8aW5maWxlLm1hZT4nLCAnLW9tYWUnLCAnPG91dGZpbGUubWFlPic=

> <r_lp_tautomer_probability>
1

> <r_epik_Ionization_Penalty>
0.00182575

> <r_epik_Ionization_Penalty_Charging>
0

> <r_epik_Ionization_Penalty_Neutral>
0.00182575

> <r_epik_State_Penalty>
0.00104524

> <r_epik_Charging_Adjusted_Penalty>
0.00104524

> <i_epik_Tot_Q>
0

> <i_epik_Tot_abs_Q>
0

> <r_epik_Metal_State_Penalty>
-0

> <b_epik_Metal_Only>
0

> <s_lp_Force_Field>
OPLS_2005

> <r_lp_Energy>
42.5457

> <b_lp_Chiralities_Consistent>
1

> <s_lp_Variant>
AV-unprocessed.smi:252-6

> <Gold.Version>
5.8.1

> <Gold.Id.Protein>
6NUR|6NUR_protein|mol2

> <Gold.PLP.Fitness>
50.8935

> <Gold.PLP.PLP>
-43.3511

> <Gold.PLP.part.hbond>
-4.0000

> <Gold.PLP.part.metal>
0.0000

> <Gold.PLP.part.buried>
-4.6368

> <Gold.PLP.part.nonpolar>
-35.8291

> <Gold.PLP.part.repulsive>
0.1677

> <Gold.PLP.ligand.clash>
0.0000

> <Gold.PLP.ligand.torsion>
0.3897

> <Gold.PLP.Chemscore.Hbond>
2.7040

> <Gold.PLP.Chemscore.CHOScore>
0.0000

> <Gold.PLP.Chemscore.Metal>
0.0000

> <Gold.Chemscore.Hbonds>
donor molecule, donor type, donor heavy atom, donor atom, acceptor molecule, acceptor atom, score
      L1  H     5    34       P1  7948  0.80
      P1  H  7997  8010       L1    14  0.85
      P1  H 10752 10765       L1    12  0.69

> <Gold.PLP.Chemscore.Internal.Correction>
0.2097

> <Gold.Rescore>
     Score         DG    S(hbond)    S(metal)    S(lipo)     H(rot)  DE(clash)    DE(int)     intcor
     14.29     -18.02       2.17        0.00     104.47       2.70       1.69       2.04       ----

> <Gold.Chemscore.Fitness>
14.2914

> <Gold.Chemscore.DG>
-18.0221

> <Gold.Chemscore.ZeroCoef>
-5.4800

> <Gold.Chemscore.Hbond>
2.1683

> <Gold.Chemscore.Metal>
0.0000

> <Gold.Chemscore.Lipo>
104.4670

> <Gold.Chemscore.Internal_Hbond>
0.0000

> <Gold.Chemscore.DEClash>
1.6930

> <Gold.Chemscore.DEInternal>
2.0376

> <Gold.Chemscore.Rot>
2.7041

> <Gold.Chemscore.Internal.Correction>
   9.000000E+99

> <Gold.Chemscore.Hbonds>
donor molecule, donor type, donor heavy atom, donor atom, acceptor molecule, acceptor atom, score
      L1  H     5    34       P1  7948  0.12
      P1  H  7997  8010       L1    14  0.15
      P1  H 10752 10765       L1    12  0.60

> <Gold.Chemscore.Hbond.Weighted>
-7.2420

> <Gold.Chemscore.Metal.Weighted>
-0.0000

> <Gold.Chemscore.Lipo.Weighted>
-12.2226

> <Gold.Chemscore.Internal_Hbond.Weighted>
0.0000

> <Gold.Chemscore.DEClash.Weighted>
1.6930

> <Gold.Chemscore.DEInternal.Weighted>
2.0376

> <Gold.Chemscore.Rot.Weighted>
6.9225

> <Gold.Chemscore.Internal.Correction.Weighted>
   9.000000E+99

> <Gold.Protein.RotatedTorsions>
[ 6907 6896 6895 6894 ] final -140.28 input  -60.11 | X-H torsion
[ 7974 7965 7964 7962 ] final -137.03 input  175.53 | X-H torsion
[ 8008 7997 7996 7995 ] final   99.99 input   59.86 | X-H torsion
[ 10167 10162 10161 10158 ] final -177.72 input  -65.29 | X-H torsion
[ 10718 10713 10712 10709 ] final  151.87 input   66.30 | X-H torsion
[ 10763 10752 10751 10750 ] final -169.30 input  -60.55 | X-H torsion
[ 11005 11000 10999 10996 ] final -143.37 input  -57.11 | X-H torsion

> <Gold.Protein.ActiveResidues>
 VAL166  LYS551  ARG553  GLY616  TRP617  ASP618  TYR619  PRO620  LYS621  CYS622 
 ASP623  PHE694  ASN695  SER759  ASP760  ASP761  ALA762  ILE779  LEU786  VAL792 
 PHE793  MET794  SER795  GLU796  ALA797  LYS798  CYS799  TRP800  GLU811  SER814 

> <Gold.Protein.RotatedAtoms>
  151.0586  133.5563  159.2635 H   0  0  0  0  0  0  0  0  0  0  0  0  # atno 6907 bound_to 6896
  151.2547  135.0633  159.9085 H   0  0  0  0  0  0  0  0  0  0  0  0  # atno 6908 bound_to 6896
  152.5394  134.0341  159.8092 H   0  0  0  0  0  0  0  0  0  0  0  0  # atno 6909 bound_to 6896
  144.8876  140.6597  143.5166 H   0  0  0  0  0  0  0  0  0  0  0  0  # atno 7974 bound_to 7965
  156.1159  140.3220  155.8139 H   0  0  0  0  0  0  0  0  0  0  0  0  # atno 8008 bound_to 7997
  155.4590  140.0538  157.3010 H   0  0  0  0  0  0  0  0  0  0  0  0  # atno 8009 bound_to 7997
  154.4793  140.2046  155.9816 H   0  0  0  0  0  0  0  0  0  0  0  0  # atno 8010 bound_to 7997
  139.5467  144.2218  152.1000 H   0  0  0  0  0  0  0  0  0  0  0  0  # atno 10167 bound_to 10162
  157.2652  131.0806  151.1638 H   0  0  0  0  0  0  0  0  0  0  0  0  # atno 10718 bound_to 10713
  154.6537  135.2915  154.9955 H   0  0  0  0  0  0  0  0  0  0  0  0  # atno 10763 bound_to 10752
  154.1039  135.6572  153.4877 H   0  0  0  0  0  0  0  0  0  0  0  0  # atno 10764 bound_to 10752
  153.0390  135.5249  154.7456 H   0  0  0  0  0  0  0  0  0  0  0  0  # atno 10765 bound_to 10752
  140.8132  134.2720  157.4932 H   0  0  0  0  0  0  0  0  0  0  0  0  # atno 11005 bound_to 11000
  145.3841  139.1630  143.4265 LP  0  0  0  0  0  0  0  0  0  0  0  0  # atno 17320 bound_to 7965
  146.3034  140.3924  142.8696 LP  0  0  0  0  0  0  0  0  0  0  0  0  # atno 17321 bound_to 7965
  140.1706  144.4940  150.6582 LP  0  0  0  0  0  0  0  0  0  0  0  0  # atno 17342 bound_to 10162
  140.6717  143.2288  151.5609 LP  0  0  0  0  0  0  0  0  0  0  0  0  # atno 17343 bound_to 10162
  157.3132  130.6900  149.6227 LP  0  0  0  0  0  0  0  0  0  0  0  0  # atno 17370 bound_to 10713
  155.9663  130.4357  150.5104 LP  0  0  0  0  0  0  0  0  0  0  0  0  # atno 17371 bound_to 10713
  139.8713  134.9494  156.4026 LP  0  0  0  0  0  0  0  0  0  0  0  0  # atno 17394 bound_to 11000
  140.9176  133.7667  155.9868 LP  0  0  0  0  0  0  0  0  0  0  0  0  # atno 17395 bound_to 11000

$$$$
