AV-unprocessed.smi:2346|AV-procd|sdf|9366|dock2
  -GOLD-   2272012593D 1   1.00000     0.00000
 Structure written by MMmdl.
 44 46  0  0  0  0  0  0  0  0  1 V2000
  145.1752  143.2919  158.6955 C   0  0  0  0  0  0  0  0  0  0  0  0
  146.0766  142.5505  157.8877 O   0  0  0  0  0  0  0  0  0  0  0  0
  146.0106  142.7039  156.5178 C   0  0  0  0  0  0  0  0  0  0  0  0
  145.0395  143.5011  155.8605 C   0  0  0  0  0  0  0  0  0  0  0  0
  145.0339  143.6075  154.4557 C   0  0  0  0  0  0  0  0  0  0  0  0
  144.0347  144.4270  153.7906 C   0  0  0  0  0  0  0  0  0  0  0  0
  143.2394  145.0794  153.2611 N   0  0  0  0  0  0  0  0  0  0  0  0
  145.9983  142.9185  153.6968 C   0  0  0  0  0  0  0  0  0  0  0  0
  146.9646  142.1241  154.3401 C   0  0  0  0  0  0  0  0  0  0  0  0
  146.9759  142.0110  155.7524 C   0  0  0  0  0  0  0  0  0  0  0  0
  147.8910  141.2546  156.4508 O   0  0  0  0  0  0  0  0  0  0  0  0
  148.9493  140.6267  155.7411 C   0  0  0  0  0  0  0  0  0  0  0  0
  150.1867  141.5337  155.8075 C   0  0  0  0  0  0  0  0  0  0  0  0
  151.1756  141.0353  156.7542 N   0  0  0  0  0  0  0  0  0  0  0  0
  151.8883  139.8806  156.7030 C   0  0  0  0  0  0  0  0  0  0  0  0
  151.7521  138.8996  155.5712 C   0  0  1  0  0  0  0  0  0  0  0  0
  153.0809  138.6888  154.8336 C   0  0  0  0  0  0  0  0  0  0  0  0
  151.2812  137.6408  156.0088 O   0  0  0  0  0  0  0  0  0  0  0  0
  152.7444  139.6865  157.7094 N   0  0  0  0  0  0  0  0  0  0  0  0
  152.5471  140.8012  158.4997 C   0  0  0  0  0  0  0  0  0  0  0  0
  153.1453  141.1769  159.7238 C   0  0  0  0  0  0  0  0  0  0  0  0
  152.7723  142.3782  160.3615 C   0  0  0  0  0  0  0  0  0  0  0  0
  151.8002  143.2207  159.7843 C   0  0  0  0  0  0  0  0  0  0  0  0
  151.1969  142.8677  158.5623 C   0  0  0  0  0  0  0  0  0  0  0  0
  151.5706  141.6659  157.9309 C   0  0  0  0  0  0  0  0  0  0  0  0
  145.3501  143.0477  159.7432 H   0  0  0  0  0  0  0  0  0  0  0  0
  144.1379  143.0425  158.4679 H   0  0  0  0  0  0  0  0  0  0  0  0
  145.3247  144.3658  158.5772 H   0  0  0  0  0  0  0  0  0  0  0  0
  144.2884  144.0393  156.4198 H   0  0  0  0  0  0  0  0  0  0  0  0
  146.0038  142.9949  152.6187 H   0  0  0  0  0  0  0  0  0  0  0  0
  147.6911  141.6124  153.7275 H   0  0  0  0  0  0  0  0  0  0  0  0
  149.1799  139.6560  156.1830 H   0  0  0  0  0  0  0  0  0  0  0  0
  148.6645  140.4670  154.7005 H   0  0  0  0  0  0  0  0  0  0  0  0
  150.6423  141.6422  154.8235 H   0  0  0  0  0  0  0  0  0  0  0  0
  149.8926  142.5378  156.1147 H   0  0  0  0  0  0  0  0  0  0  0  0
  151.0077  139.2648  154.8650 H   0  0  0  0  0  0  0  0  0  0  0  0
  153.4569  139.6293  154.4299 H   0  0  0  0  0  0  0  0  0  0  0  0
  152.9634  137.9964  153.9995 H   0  0  0  0  0  0  0  0  0  0  0  0
  153.8450  138.2847  155.4988 H   0  0  0  0  0  0  0  0  0  0  0  0
  151.8176  136.9703  155.6134 H   0  0  0  0  0  0  0  0  0  0  0  0
  153.8897  140.5374  160.1746 H   0  0  0  0  0  0  0  0  0  0  0  0
  153.2332  142.6540  161.2986 H   0  0  0  0  0  0  0  0  0  0  0  0
  151.5177  144.1377  160.2799 H   0  0  0  0  0  0  0  0  0  0  0  0
  150.4489  143.5088  158.1200 H   0  0  0  0  0  0  0  0  0  0  0  0
  1  2  1  0  0  0  0
  1 26  1  0  0  0  0
  1 27  1  0  0  0  0
  1 28  1  0  0  0  0
  2  3  1  0  0  0  0
  3 10  1  0  0  0  0
  3  4  2  0  0  0  0
  4  5  1  0  0  0  0
  4 29  1  0  0  0  0
  5  6  1  0  0  0  0
  5  8  2  0  0  0  0
  6  7  3  0  0  0  0
  8  9  1  0  0  0  0
  8 30  1  0  0  0  0
  9 10  2  0  0  0  0
  9 31  1  0  0  0  0
 10 11  1  0  0  0  0
 11 12  1  0  0  0  0
 12 13  1  0  0  0  0
 12 32  1  0  0  0  0
 12 33  1  0  0  0  0
 13 14  1  0  0  0  0
 13 34  1  0  0  0  0
 13 35  1  0  0  0  0
 14 25  1  0  0  0  0
 14 15  1  0  0  0  0
 15 16  1  0  0  0  0
 15 19  2  0  0  0  0
 16 17  1  0  0  0  0
 16 18  1  0  0  0  0
 16 36  1  0  0  0  0
 17 37  1  0  0  0  0
 17 38  1  0  0  0  0
 17 39  1  0  0  0  0
 18 40  1  0  0  0  0
 19 20  1  0  0  0  0
 20 25  2  0  0  0  0
 20 21  1  0  0  0  0
 21 22  2  0  0  0  0
 21 41  1  0  0  0  0
 22 23  1  0  0  0  0
 22 42  1  0  0  0  0
 23 24  2  0  0  0  0
 23 43  1  0  0  0  0
 24 25  1  0  0  0  0
 24 44  1  0  0  0  0
M  END
> <s_m_source_file>
AV-unprocessed.smi

> <i_m_source_file_index>
2346

> <i_lp_mmshare_version>
43012

> <i_f3d_flags>
0

> <s_epik_input>
W0NIM11PYzFbY0hdYyhDI04pW2NIXVtjSF1jMU9bQ0gyXVtDSDJdbihjKG4yKVtDQEhdKFtDSDNdKVtPSF0pYyhjMjMpW2NIXVtjSF1bY0hdW2NIXTM=

> <s_epik_cmdline>
J2VwaWtfcHl0aG9uJywgJy1waCcsICc3LjAnLCAnLXRuJywgJzgnLCAnLW1hJywgJzIwMCcsICctbWV0YWxfYmluZGluZycsICctaW1hZScsICc8aW5maWxlLm1hZT4nLCAnLW9tYWUnLCAnPG91dGZpbGUubWFlPic=

> <r_epik_Ionization_Penalty>
0.0419826

> <r_epik_Ionization_Penalty_Charging>
0

> <r_epik_Ionization_Penalty_Neutral>
0.0419826

> <r_epik_State_Penalty>
0.0354317

> <r_epik_Charging_Adjusted_Penalty>
0.0354317

> <i_epik_Tot_Q>
0

> <i_epik_Tot_abs_Q>
0

> <r_epik_Metal_State_Penalty>
3.65115e-05

> <b_epik_Metal_Only>
0

> <s_lp_Force_Field>
OPLS_2005

> <r_lp_Energy>
17.2355

> <b_lp_Chiralities_Consistent>
1

> <s_lp_Variant>
AV-unprocessed.smi:2346-2

> <Gold.Version>
5.8.1

> <Gold.Id.Protein>
6NUR|6NUR_protein|mol2

> <Gold.PLP.Fitness>
49.5849

> <Gold.PLP.PLP>
-47.7310

> <Gold.PLP.part.hbond>
-2.0000

> <Gold.PLP.part.metal>
0.0000

> <Gold.PLP.part.buried>
-6.0401

> <Gold.PLP.part.nonpolar>
-40.9357

> <Gold.PLP.part.repulsive>
0.3350

> <Gold.PLP.ligand.clash>
0.0000

> <Gold.PLP.ligand.torsion>
0.6276

> <Gold.PLP.Chemscore.Hbond>
1.0000

> <Gold.PLP.Chemscore.CHOScore>
0.0000

> <Gold.PLP.Chemscore.Metal>
0.0000

> <Gold.Chemscore.Hbonds>
donor molecule, donor type, donor heavy atom, donor atom, acceptor molecule, acceptor atom, score
      P1  H  7997  8008       L1    19  1.00

> <Gold.PLP.Chemscore.Internal.Correction>
0.1090

> <Gold.Rescore>
     Score         DG    S(hbond)    S(metal)    S(lipo)     H(rot)  DE(clash)    DE(int)     intcor
     12.77     -13.60       0.47        0.00     112.30       2.57       0.20       0.63       ----

> <Gold.Chemscore.Fitness>
12.7663

> <Gold.Chemscore.DG>
-13.6020

> <Gold.Chemscore.ZeroCoef>
-5.4800

> <Gold.Chemscore.Hbond>
0.4663

> <Gold.Chemscore.Metal>
0.0000

> <Gold.Chemscore.Lipo>
112.2981

> <Gold.Chemscore.Internal_Hbond>
0.0000

> <Gold.Chemscore.DEClash>
0.2023

> <Gold.Chemscore.DEInternal>
0.6334

> <Gold.Chemscore.Rot>
2.5681

> <Gold.Chemscore.Internal.Correction>
   9.000000E+99

> <Gold.Chemscore.Hbonds>
donor molecule, donor type, donor heavy atom, donor atom, acceptor molecule, acceptor atom, score
      P1  H  7997  8008       L1    19  0.14

> <Gold.Chemscore.Hbond.Weighted>
-1.5574

> <Gold.Chemscore.Metal.Weighted>
-0.0000

> <Gold.Chemscore.Lipo.Weighted>
-13.1389

> <Gold.Chemscore.Internal_Hbond.Weighted>
0.0000

> <Gold.Chemscore.DEClash.Weighted>
0.2023

> <Gold.Chemscore.DEInternal.Weighted>
0.6334

> <Gold.Chemscore.Rot.Weighted>
6.5743

> <Gold.Chemscore.Internal.Correction.Weighted>
   9.000000E+99

> <Gold.Protein.RotatedTorsions>
[ 6907 6896 6895 6894 ] final -155.64 input  -60.11 | X-H torsion
[ 7974 7965 7964 7962 ] final  156.40 input  175.53 | X-H torsion
[ 8008 7997 7996 7995 ] final  -75.39 input   59.86 | X-H torsion
[ 10167 10162 10161 10158 ] final -126.02 input  -65.29 | X-H torsion
[ 10718 10713 10712 10709 ] final  162.01 input   66.30 | X-H torsion
[ 10763 10752 10751 10750 ] final  107.68 input  -60.55 | X-H torsion
[ 11005 11000 10999 10996 ] final -140.50 input  -57.11 | X-H torsion

> <Gold.Protein.ActiveResidues>
 VAL166  LYS551  ARG553  GLY616  TRP617  ASP618  TYR619  PRO620  LYS621  CYS622 
 ASP623  PHE694  ASN695  SER759  ASP760  ASP761  ALA762  ILE779  LEU786  VAL792 
 PHE793  MET794  SER795  GLU796  ALA797  LYS798  CYS799  TRP800  GLU811  SER814 

> <Gold.Protein.RotatedAtoms>
  151.2755  133.4234  159.2623 H   0  0  0  0  0  0  0  0  0  0  0  0  # atno 6907 bound_to 6896
  151.0407  134.9605  159.8170 H   0  0  0  0  0  0  0  0  0  0  0  0  # atno 6908 bound_to 6896
  152.5364  134.2713  159.9025 H   0  0  0  0  0  0  0  0  0  0  0  0  # atno 6909 bound_to 6896
  144.7965  139.7199  143.6200 H   0  0  0  0  0  0  0  0  0  0  0  0  # atno 7974 bound_to 7965
  154.5413  140.0745  156.8514 H   0  0  0  0  0  0  0  0  0  0  0  0  # atno 8008 bound_to 7997
  155.3176  140.3394  155.4224 H   0  0  0  0  0  0  0  0  0  0  0  0  # atno 8009 bound_to 7997
  156.1877  140.1674  156.8140 H   0  0  0  0  0  0  0  0  0  0  0  0  # atno 8010 bound_to 7997
  139.9759  143.5794  152.2396 H   0  0  0  0  0  0  0  0  0  0  0  0  # atno 10167 bound_to 10162
  157.1285  131.0510  151.2382 H   0  0  0  0  0  0  0  0  0  0  0  0  # atno 10718 bound_to 10713
  153.4101  135.3836  155.2044 H   0  0  0  0  0  0  0  0  0  0  0  0  # atno 10763 bound_to 10752
  154.8737  135.3792  154.4511 H   0  0  0  0  0  0  0  0  0  0  0  0  # atno 10764 bound_to 10752
  153.5019  135.7088  153.5889 H   0  0  0  0  0  0  0  0  0  0  0  0  # atno 10765 bound_to 10752
  140.8416  134.2394  157.4807 H   0  0  0  0  0  0  0  0  0  0  0  0  # atno 11005 bound_to 11000
  146.2235  139.5679  142.9603 LP  0  0  0  0  0  0  0  0  0  0  0  0  # atno 17320 bound_to 7965
  145.5660  141.0399  143.2200 LP  0  0  0  0  0  0  0  0  0  0  0  0  # atno 17321 bound_to 7965
  139.6446  144.7657  151.2270 LP  0  0  0  0  0  0  0  0  0  0  0  0  # atno 17342 bound_to 10162
  140.7506  143.6261  150.8467 LP  0  0  0  0  0  0  0  0  0  0  0  0  # atno 17343 bound_to 10162
  157.4413  130.7546  149.7072 LP  0  0  0  0  0  0  0  0  0  0  0  0  # atno 17370 bound_to 10713
  155.9813  130.4021  150.3480 LP  0  0  0  0  0  0  0  0  0  0  0  0  # atno 17371 bound_to 10713
  139.8703  134.9638  156.4475 LP  0  0  0  0  0  0  0  0  0  0  0  0  # atno 17394 bound_to 11000
  140.8888  133.7863  155.9549 LP  0  0  0  0  0  0  0  0  0  0  0  0  # atno 17395 bound_to 11000

$$$$
