AV-unprocessed.smi:2021|AV-procd|sdf|8179|dock8
  -GOLD-   2272010433D 1   1.00000     0.00000
 Structure written by MMmdl.
 41 42  0  0  0  0  0  0  0  0  1 V2000
  152.3542  142.6723  159.3208 C   0  0  0  0  0  0  0  0  0  0  0  0
  151.5092  143.4472  158.2954 C   0  0  0  0  0  0  0  0  0  0  0  0
  151.0319  144.8095  158.8279 C   0  0  0  0  0  0  0  0  0  0  0  0
  150.3857  142.6014  157.6464 C   0  0  0  0  0  0  0  0  0  0  0  0
  150.7842  141.5349  156.7216 N   0  0  0  0  0  0  0  0  0  0  0  0
  151.4967  140.4410  157.3760 C   0  0  0  0  0  0  0  0  0  0  0  0
  151.8545  139.3138  156.3925 C   0  0  0  0  0  0  0  0  0  0  0  0
  150.6752  138.8475  155.7478 O   0  0  0  0  0  0  0  0  0  0  0  0
  149.9912  139.8762  155.0368 C   0  0  1  0  0  0  0  0  0  0  0  0
  148.7505  139.2638  154.3652 C   0  0  0  0  0  0  0  0  0  0  0  0
  148.7692  137.8063  154.4284 N   0  0  0  0  0  0  0  0  0  0  0  0
  148.5535  137.0806  155.5343 C   0  0  0  0  0  0  0  0  0  0  0  0
  148.3388  137.5773  156.6399 O   0  0  0  0  0  0  0  0  0  0  0  0
  148.6001  135.7652  155.2683 N   0  0  0  0  0  0  0  0  0  0  0  0
  148.4093  134.6864  156.1675 C   0  0  0  0  0  0  0  0  0  0  0  0
  148.3739  134.9587  157.4773 N   0  0  0  0  0  0  0  0  0  0  0  0
  148.1831  133.8144  158.2422 N   0  0  0  0  0  0  0  0  0  0  0  0
  148.0820  132.7225  157.4783 C   0  0  0  0  0  0  0  0  0  0  0  0
  148.2086  132.9826  155.7476 S   0  0  0  0  0  0  0  0  0  0  0  0
  149.6175  140.9922  156.0315 C   0  0  0  0  0  0  0  0  0  0  0  0
  151.7802  142.4237  160.2134 H   0  0  0  0  0  0  0  0  0  0  0  0
  153.2166  143.2586  159.6391 H   0  0  0  0  0  0  0  0  0  0  0  0
  152.7288  141.7412  158.8949 H   0  0  0  0  0  0  0  0  0  0  0  0
  152.1867  143.6940  157.4770 H   0  0  0  0  0  0  0  0  0  0  0  0
  150.3985  144.7193  159.7079 H   0  0  0  0  0  0  0  0  0  0  0  0
  150.4692  145.3526  158.0680 H   0  0  0  0  0  0  0  0  0  0  0  0
  151.8818  145.4323  159.1080 H   0  0  0  0  0  0  0  0  0  0  0  0
  149.7305  142.1985  158.4199 H   0  0  0  0  0  0  0  0  0  0  0  0
  149.7648  143.3036  157.0882 H   0  0  0  0  0  0  0  0  0  0  0  0
  152.4221  140.8046  157.8161 H   0  0  0  0  0  0  0  0  0  0  0  0
  150.8923  140.0366  158.1894 H   0  0  0  0  0  0  0  0  0  0  0  0
  152.5701  139.6640  155.6471 H   0  0  0  0  0  0  0  0  0  0  0  0
  152.3236  138.4840  156.9213 H   0  0  0  0  0  0  0  0  0  0  0  0
  150.6535  140.2854  154.2715 H   0  0  0  0  0  0  0  0  0  0  0  0
  147.8447  139.6169  154.8590 H   0  0  0  0  0  0  0  0  0  0  0  0
  148.6819  139.5879  153.3254 H   0  0  0  0  0  0  0  0  0  0  0  0
  148.9337  137.3174  153.5608 H   0  0  0  0  0  0  0  0  0  0  0  0
  148.7861  135.5041  154.3113 H   0  0  0  0  0  0  0  0  0  0  0  0
  147.9315  131.7569  157.9377 H   0  0  0  0  0  0  0  0  0  0  0  0
  148.9062  140.6025  156.7617 H   0  0  0  0  0  0  0  0  0  0  0  0
  149.1046  141.7911  155.4946 H   0  0  0  0  0  0  0  0  0  0  0  0
  1  2  1  0  0  0  0
  1 21  1  0  0  0  0
  1 22  1  0  0  0  0
  1 23  1  0  0  0  0
  2  3  1  0  0  0  0
  2  4  1  0  0  0  0
  2 24  1  0  0  0  0
  3 25  1  0  0  0  0
  3 26  1  0  0  0  0
  3 27  1  0  0  0  0
  4  5  1  0  0  0  0
  4 28  1  0  0  0  0
  4 29  1  0  0  0  0
  5 20  1  0  0  0  0
  5  6  1  0  0  0  0
  6  7  1  0  0  0  0
  6 30  1  0  0  0  0
  6 31  1  0  0  0  0
  7  8  1  0  0  0  0
  7 32  1  0  0  0  0
  7 33  1  0  0  0  0
  8  9  1  0  0  0  0
  9 10  1  0  0  0  0
  9 20  1  0  0  0  0
  9 34  1  0  0  0  0
 10 11  1  0  0  0  0
 10 35  1  0  0  0  0
 10 36  1  0  0  0  0
 11 12  1  0  0  0  0
 11 37  1  0  0  0  0
 12 13  2  0  0  0  0
 12 14  1  0  0  0  0
 14 15  1  0  0  0  0
 14 38  1  0  0  0  0
 15 19  1  0  0  0  0
 15 16  2  0  0  0  0
 16 17  1  0  0  0  0
 17 18  2  0  0  0  0
 18 19  1  0  0  0  0
 18 39  1  0  0  0  0
 20 40  1  0  0  0  0
 20 41  1  0  0  0  0
M  END
> <s_m_source_file>
AV-unprocessed.smi

> <i_m_source_file_index>
2021

> <i_lp_mmshare_version>
43012

> <i_f3d_flags>
0

> <s_epik_input>
W0NIM11bQ0hdKFtDSDNdKVtDSDJdTjFbQ0gyXVtDSDJdT1tDQEhdKFtDSDJdMSlbQ0gyXVtOSF1DKD1PKVtOSF1jMm5uW2NIXXMy

> <s_epik_cmdline>
J2VwaWtfcHl0aG9uJywgJy1waCcsICc3LjAnLCAnLXRuJywgJzgnLCAnLW1hJywgJzIwMCcsICctbWV0YWxfYmluZGluZycsICctaW1hZScsICc8aW5maWxlLm1hZT4nLCAnLW9tYWUnLCAnPG91dGZpbGUubWFlPic=

> <r_lp_tautomer_probability>
1

> <r_epik_Ionization_Penalty>
1.11451

> <r_epik_Ionization_Penalty_Charging>
0

> <r_epik_Ionization_Penalty_Neutral>
1.11451

> <r_epik_State_Penalty>
1.17021

> <r_epik_Charging_Adjusted_Penalty>
1.17021

> <i_epik_Tot_Q>
0

> <i_epik_Tot_abs_Q>
0

> <r_epik_Metal_State_Penalty>
1.53642

> <b_epik_Metal_Only>
0

> <s_lp_Force_Field>
OPLS_2005

> <r_lp_Energy>
25.242

> <b_lp_Chiralities_Consistent>
1

> <s_lp_Variant>
AV-unprocessed.smi:2021-5

> <Gold.Version>
5.8.1

> <Gold.Id.Protein>
6NUR|6NUR_protein|mol2

> <Gold.PLP.Fitness>
39.3530

> <Gold.PLP.PLP>
-32.2785

> <Gold.PLP.part.hbond>
-3.0000

> <Gold.PLP.part.metal>
0.0000

> <Gold.PLP.part.buried>
-4.1058

> <Gold.PLP.part.nonpolar>
-25.3839

> <Gold.PLP.part.repulsive>
0.1613

> <Gold.PLP.ligand.clash>
0.0000

> <Gold.PLP.ligand.torsion>
0.9482

> <Gold.PLP.Chemscore.Hbond>
2.9750

> <Gold.PLP.Chemscore.CHOScore>
0.0000

> <Gold.PLP.Chemscore.Metal>
0.0000

> <Gold.Chemscore.Hbonds>
donor molecule, donor type, donor heavy atom, donor atom, acceptor molecule, acceptor atom, score
      L1  H    11    37       P1  7948  1.00

> <Gold.PLP.Chemscore.Internal.Correction>
0.0460

> <Gold.Rescore>
     Score         DG    S(hbond)    S(metal)    S(lipo)     H(rot)  DE(clash)    DE(int)     intcor
     13.53     -18.87       2.60        0.00      80.37       1.84       0.02       5.33       ----

> <Gold.Chemscore.Fitness>
13.5265

> <Gold.Chemscore.DG>
-18.8679

> <Gold.Chemscore.ZeroCoef>
-5.4800

> <Gold.Chemscore.Hbond>
2.6043

> <Gold.Chemscore.Metal>
0.0000

> <Gold.Chemscore.Lipo>
80.3708

> <Gold.Chemscore.Internal_Hbond>
0.0000

> <Gold.Chemscore.DEClash>
0.0159

> <Gold.Chemscore.DEInternal>
5.3255

> <Gold.Chemscore.Rot>
1.8413

> <Gold.Chemscore.Internal.Correction>
   9.000000E+99

> <Gold.Chemscore.Hbonds>
donor molecule, donor type, donor heavy atom, donor atom, acceptor molecule, acceptor atom, score
      L1  H    11    37       P1  7948  0.96

> <Gold.Chemscore.Hbond.Weighted>
-8.6983

> <Gold.Chemscore.Metal.Weighted>
-0.0000

> <Gold.Chemscore.Lipo.Weighted>
-9.4034

> <Gold.Chemscore.Internal_Hbond.Weighted>
0.0000

> <Gold.Chemscore.DEClash.Weighted>
0.0159

> <Gold.Chemscore.DEInternal.Weighted>
5.3255

> <Gold.Chemscore.Rot.Weighted>
4.7138

> <Gold.Chemscore.Internal.Correction.Weighted>
   9.000000E+99

> <Gold.Protein.RotatedTorsions>
[ 6907 6896 6895 6894 ] final -127.98 input  -60.11 | X-H torsion
[ 7974 7965 7964 7962 ] final  168.02 input  175.53 | X-H torsion
[ 8008 7997 7996 7995 ] final -128.09 input   59.86 | X-H torsion
[ 10167 10162 10161 10158 ] final    8.64 input  -65.29 | X-H torsion
[ 10718 10713 10712 10709 ] final  -83.30 input   66.30 | X-H torsion
[ 10763 10752 10751 10750 ] final  -33.25 input  -60.55 | X-H torsion
[ 11005 11000 10999 10996 ] final  -43.18 input  -57.11 | X-H torsion

> <Gold.Protein.ActiveResidues>
 VAL166  LYS551  ARG553  GLY616  TRP617  ASP618  TYR619  PRO620  LYS621  CYS622 
 ASP623  PHE694  ASN695  SER759  ASP760  ASP761  ALA762  ILE779  LEU786  VAL792 
 PHE793  MET794  SER795  GLU796  ALA797  LYS798  CYS799  TRP800  GLU811  SER814 

> <Gold.Protein.RotatedAtoms>
  150.9131  133.6973  159.2849 H   0  0  0  0  0  0  0  0  0  0  0  0  # atno 6907 bound_to 6896
  151.4453  135.1023  159.9692 H   0  0  0  0  0  0  0  0  0  0  0  0  # atno 6908 bound_to 6896
  152.4940  133.8529  159.7266 H   0  0  0  0  0  0  0  0  0  0  0  0  # atno 6909 bound_to 6896
  144.7403  139.8846  143.6399 H   0  0  0  0  0  0  0  0  0  0  0  0  # atno 7974 bound_to 7965
  155.2570  140.0434  157.2993 H   0  0  0  0  0  0  0  0  0  0  0  0  # atno 8008 bound_to 7997
  154.5734  140.2380  155.8127 H   0  0  0  0  0  0  0  0  0  0  0  0  # atno 8009 bound_to 7997
  156.2140  140.2990  155.9804 H   0  0  0  0  0  0  0  0  0  0  0  0  # atno 8010 bound_to 7997
  140.6302  143.8010  150.7286 H   0  0  0  0  0  0  0  0  0  0  0  0  # atno 10167 bound_to 10162
  156.0020  130.4661  150.4236 H   0  0  0  0  0  0  0  0  0  0  0  0  # atno 10718 bound_to 10713
  153.8272  135.6869  153.4819 H   0  0  0  0  0  0  0  0  0  0  0  0  # atno 10763 bound_to 10752
  153.1533  135.4609  154.9666 H   0  0  0  0  0  0  0  0  0  0  0  0  # atno 10764 bound_to 10752
  154.7902  135.3299  154.7738 H   0  0  0  0  0  0  0  0  0  0  0  0  # atno 10765 bound_to 10752
  141.0366  133.6797  156.2697 H   0  0  0  0  0  0  0  0  0  0  0  0  # atno 11005 bound_to 11000
  146.1186  139.4201  143.0242 LP  0  0  0  0  0  0  0  0  0  0  0  0  # atno 17320 bound_to 7965
  145.7337  141.0033  143.1338 LP  0  0  0  0  0  0  0  0  0  0  0  0  # atno 17321 bound_to 7965
  140.1620  143.4267  152.2060 LP  0  0  0  0  0  0  0  0  0  0  0  0  # atno 17342 bound_to 10162
  139.5517  144.7343  151.4414 LP  0  0  0  0  0  0  0  0  0  0  0  0  # atno 17343 bound_to 10162
  157.2291  131.0500  151.2503 LP  0  0  0  0  0  0  0  0  0  0  0  0  # atno 17370 bound_to 10713
  157.3728  130.7190  149.6577 LP  0  0  0  0  0  0  0  0  0  0  0  0  # atno 17371 bound_to 10713
  140.6310  134.5263  157.5559 LP  0  0  0  0  0  0  0  0  0  0  0  0  # atno 17394 bound_to 11000
  139.9245  134.8083  156.1109 LP  0  0  0  0  0  0  0  0  0  0  0  0  # atno 17395 bound_to 11000

$$$$
