AV-unprocessed.smi:3153|AV-procd|sdf|12019|dock3
  -GOLD-   2272017433D 1   1.00000     0.00000
 Structure written by MMmdl.
 38 39  0  0  0  0  0  0  0  0  2 V2000
  144.4596  135.1990  149.7347 O   0  0  0  0  0  0  0  0  0  0  0  0
  145.0096  134.9644  151.0198 C   0  0  0  0  0  0  0  0  0  0  0  0
  145.5045  136.3230  151.5649 C   0  0  0  0  0  0  0  0  0  0  0  0
  146.2155  136.1898  152.8544 N   0  3  0  0  0  0  0  0  0  0  0  0
  146.2390  137.4268  153.6581 C   0  0  0  0  0  0  0  0  0  0  0  0
  146.4885  138.6566  152.7717 C   0  0  0  0  0  0  0  0  0  0  0  0
  147.1217  139.7367  153.5047 N   0  0  0  0  0  0  0  0  0  0  0  0
  146.6200  140.9895  153.7897 C   0  0  0  0  0  0  0  0  0  0  0  0
  147.5699  141.6531  154.5120 C   0  0  0  0  0  0  0  0  0  0  0  0
  148.6280  140.7089  154.6279 C   0  0  0  0  0  0  0  0  0  0  0  0
  148.3545  139.5611  154.0283 N   0  0  0  0  0  0  0  0  0  0  0  0
  143.8838  134.4148  151.9285 C   0  0  0  0  0  0  0  0  0  0  0  0
  143.4048  133.0117  151.5156 C   0  0  0  0  0  0  0  0  0  0  0  0
  144.5750  132.0213  151.4489 C   0  0  0  0  0  0  0  0  0  0  0  0
  145.6700  132.5302  150.5014 C   0  0  0  0  0  0  0  0  0  0  0  0
  146.1598  133.9321  150.9073 C   0  0  0  0  0  0  0  0  0  0  0  0
  145.1488  135.1259  149.0916 H   0  0  0  0  0  0  0  0  0  0  0  0
  146.1707  136.7970  150.8423 H   0  0  0  0  0  0  0  0  0  0  0  0
  144.6575  136.9974  151.7008 H   0  0  0  0  0  0  0  0  0  0  0  0
  145.7679  135.4627  153.3938 H   0  0  0  0  0  0  0  0  0  0  0  0
  145.2884  137.5273  154.1839 H   0  0  0  0  0  0  0  0  0  0  0  0
  147.0205  137.3473  154.4149 H   0  0  0  0  0  0  0  0  0  0  0  0
  147.1269  138.3908  151.9281 H   0  0  0  0  0  0  0  0  0  0  0  0
  145.5502  139.0267  152.3558 H   0  0  0  0  0  0  0  0  0  0  0  0
  145.6410  141.3029  153.4579 H   0  0  0  0  0  0  0  0  0  0  0  0
  147.5159  142.6589  154.9017 H   0  0  0  0  0  0  0  0  0  0  0  0
  149.5786  140.8219  155.1281 H   0  0  0  0  0  0  0  0  0  0  0  0
  144.2445  134.3668  152.9570 H   0  0  0  0  0  0  0  0  0  0  0  0
  143.0362  135.1014  151.9399 H   0  0  0  0  0  0  0  0  0  0  0  0
  142.6573  132.6535  152.2241 H   0  0  0  0  0  0  0  0  0  0  0  0
  142.9087  133.0589  150.5457 H   0  0  0  0  0  0  0  0  0  0  0  0
  144.9909  131.8761  152.4468 H   0  0  0  0  0  0  0  0  0  0  0  0
  144.2183  131.0458  151.1166 H   0  0  0  0  0  0  0  0  0  0  0  0
  146.5080  131.8325  150.4970 H   0  0  0  0  0  0  0  0  0  0  0  0
  145.2868  132.5540  149.4805 H   0  0  0  0  0  0  0  0  0  0  0  0
  146.9106  134.2685  150.1914 H   0  0  0  0  0  0  0  0  0  0  0  0
  146.6704  133.8576  151.8684 H   0  0  0  0  0  0  0  0  0  0  0  0
  147.1669  135.9089  152.6634 H   0  0  0  0  0  0  0  0  0  0  0  0
  1  2  1  0  0  0  0
  1 17  1  0  0  0  0
  2 16  1  0  0  0  0
  2  3  1  0  0  0  0
  2 12  1  0  0  0  0
  3  4  1  0  0  0  0
  3 18  1  0  0  0  0
  3 19  1  0  0  0  0
  4  5  1  0  0  0  0
  4 20  1  0  0  0  0
  4 38  1  0  0  0  0
  5  6  1  0  0  0  0
  5 21  1  0  0  0  0
  5 22  1  0  0  0  0
  6  7  1  0  0  0  0
  6 23  1  0  0  0  0
  6 24  1  0  0  0  0
  7 11  1  0  0  0  0
  7  8  1  0  0  0  0
  8  9  2  0  0  0  0
  8 25  1  0  0  0  0
  9 10  1  0  0  0  0
  9 26  1  0  0  0  0
 10 11  2  0  0  0  0
 10 27  1  0  0  0  0
 12 13  1  0  0  0  0
 12 28  1  0  0  0  0
 12 29  1  0  0  0  0
 13 14  1  0  0  0  0
 13 30  1  0  0  0  0
 13 31  1  0  0  0  0
 14 15  1  0  0  0  0
 14 32  1  0  0  0  0
 14 33  1  0  0  0  0
 15 16  1  0  0  0  0
 15 34  1  0  0  0  0
 15 35  1  0  0  0  0
 16 36  1  0  0  0  0
 16 37  1  0  0  0  0
M  CHG  1   4   1
M  END
> <s_m_source_file>
AV-unprocessed.smi

> <i_m_source_file_index>
3153

> <i_lp_mmshare_version>
43012

> <i_f3d_flags>
0

> <s_epik_input>
W0NIMl0xW0NIMl1bQ0gyXVtDSDJdW0NIMl1DMShbT0hdKVtDSDJdW05IXVtDSDJdW0NIMl1uMltjSF1bY0hdW2NIXW4y

> <s_epik_cmdline>
J2VwaWtfcHl0aG9uJywgJy1waCcsICc3LjAnLCAnLXRuJywgJzgnLCAnLW1hJywgJzIwMCcsICctbWV0YWxfYmluZGluZycsICctaW1hZScsICc8aW5maWxlLm1hZT4nLCAnLW9tYWUnLCAnPG91dGZpbGUubWFlPic=

> <r_lp_tautomer_probability>
1

> <r_epik_Ionization_Penalty>
0.0240152

> <r_epik_Ionization_Penalty_Charging>
0.0240119

> <r_epik_Ionization_Penalty_Neutral>
3.38076e-06

> <r_epik_State_Penalty>
0.0194671

> <r_epik_Charging_Adjusted_Penalty>
0.043479

> <i_epik_Tot_Q>
1

> <i_epik_Tot_abs_Q>
1

> <r_epik_Metal_State_Penalty>
0.0195093

> <b_epik_Metal_Only>
0

> <s_lp_Force_Field>
OPLS_2005

> <r_lp_Energy>
15.7554

> <b_lp_Chiralities_Consistent>
1

> <s_lp_Variant>
AV-unprocessed.smi:3153-1

> <Gold.Version>
5.8.1

> <Gold.Id.Protein>
6NUR|6NUR_protein|mol2

> <Gold.PLP.Fitness>
45.4795

> <Gold.PLP.PLP>
-34.6333

> <Gold.PLP.part.hbond>
-2.0000

> <Gold.PLP.part.metal>
0.0000

> <Gold.PLP.part.buried>
-5.7408

> <Gold.PLP.part.nonpolar>
-28.9629

> <Gold.PLP.part.repulsive>
1.5618

> <Gold.PLP.ligand.clash>
0.0000

> <Gold.PLP.ligand.torsion>
0.4026

> <Gold.PLP.Chemscore.Hbond>
3.0000

> <Gold.PLP.Chemscore.CHOScore>
0.8679

> <Gold.PLP.Chemscore.Metal>
0.0000

> <Gold.Chemscore.Hbonds>
donor molecule, donor type, donor heavy atom, donor atom, acceptor molecule, acceptor atom, score
      L1  H     1    17       P1  7921  1.00
      L1  H     4    38       P1  7948  2.00
      L1  C     8    25       P1 10175  1.00

> <Gold.PLP.Chemscore.Internal.Correction>
0.0475

> <Gold.Rescore>
     Score         DG    S(hbond)    S(metal)    S(lipo)     H(rot)  DE(clash)    DE(int)     intcor
     15.23     -15.64       1.99        0.00      79.45       2.26       0.00       0.40       ----

> <Gold.Chemscore.Fitness>
15.2346

> <Gold.Chemscore.DG>
-15.6429

> <Gold.Chemscore.ZeroCoef>
-5.4800

> <Gold.Chemscore.Hbond>
1.9921

> <Gold.Chemscore.Metal>
0.0000

> <Gold.Chemscore.Lipo>
79.4452

> <Gold.Chemscore.Internal_Hbond>
0.0000

> <Gold.Chemscore.DEClash>
0.0038

> <Gold.Chemscore.DEInternal>
0.4045

> <Gold.Chemscore.Rot>
2.2601

> <Gold.Chemscore.Internal.Correction>
   9.000000E+99

> <Gold.Chemscore.Hbonds>
donor molecule, donor type, donor heavy atom, donor atom, acceptor molecule, acceptor atom, score
      L1  H     1    17       P1  7921  1.00
      L1  H     4    38       P1  7948  0.94

> <Gold.Chemscore.Hbond.Weighted>
-6.6536

> <Gold.Chemscore.Metal.Weighted>
-0.0000

> <Gold.Chemscore.Lipo.Weighted>
-9.2951

> <Gold.Chemscore.Internal_Hbond.Weighted>
0.0000

> <Gold.Chemscore.DEClash.Weighted>
0.0038

> <Gold.Chemscore.DEInternal.Weighted>
0.4045

> <Gold.Chemscore.Rot.Weighted>
5.7858

> <Gold.Chemscore.Internal.Correction.Weighted>
   9.000000E+99

> <Gold.Protein.RotatedTorsions>
[ 6907 6896 6895 6894 ] final  -78.77 input  -60.11 | X-H torsion
[ 7974 7965 7964 7962 ] final  157.64 input  175.53 | X-H torsion
[ 8008 7997 7996 7995 ] final  -41.62 input   59.86 | X-H torsion
[ 10167 10162 10161 10158 ] final   -2.02 input  -65.29 | X-H torsion
[ 10718 10713 10712 10709 ] final   39.60 input   66.30 | X-H torsion
[ 10763 10752 10751 10750 ] final  -48.73 input  -60.55 | X-H torsion
[ 11005 11000 10999 10996 ] final  -39.71 input  -57.11 | X-H torsion

> <Gold.Protein.ActiveResidues>
 VAL166  LYS551  ARG553  GLY616  TRP617  ASP618  TYR619  PRO620  LYS621  CYS622 
 ASP623  PHE694  ASN695  SER759  ASP760  ASP761  ALA762  ILE779  LEU786  VAL792 
 PHE793  MET794  SER795  GLU796  ALA797  LYS798  CYS799  TRP800  GLU811  SER814 

> <Gold.Protein.RotatedAtoms>
  150.6965  134.4222  159.5210 H   0  0  0  0  0  0  0  0  0  0  0  0  # atno 6907 bound_to 6896
  152.1963  134.8625  160.0521 H   0  0  0  0  0  0  0  0  0  0  0  0  # atno 6908 bound_to 6896
  151.9561  133.3646  159.4055 H   0  0  0  0  0  0  0  0  0  0  0  0  # atno 6909 bound_to 6896
  144.7891  139.7369  143.6228 H   0  0  0  0  0  0  0  0  0  0  0  0  # atno 7974 bound_to 7965
  154.4003  140.1494  156.3221 H   0  0  0  0  0  0  0  0  0  0  0  0  # atno 8008 bound_to 7997
  155.8520  140.3457  155.5678 H   0  0  0  0  0  0  0  0  0  0  0  0  # atno 8009 bound_to 7997
  155.7974  140.0865  157.1966 H   0  0  0  0  0  0  0  0  0  0  0  0  # atno 8010 bound_to 7997
  140.6834  143.6706  150.8188 H   0  0  0  0  0  0  0  0  0  0  0  0  # atno 10167 bound_to 10162
  157.3724  130.7708  149.7129 H   0  0  0  0  0  0  0  0  0  0  0  0  # atno 10718 bound_to 10713
  154.0825  135.6589  153.4840 H   0  0  0  0  0  0  0  0  0  0  0  0  # atno 10763 bound_to 10752
  153.0351  135.5183  154.7460 H   0  0  0  0  0  0  0  0  0  0  0  0  # atno 10764 bound_to 10752
  154.6559  135.3008  154.9896 H   0  0  0  0  0  0  0  0  0  0  0  0  # atno 10765 bound_to 10752
  141.0121  133.6903  156.2223 H   0  0  0  0  0  0  0  0  0  0  0  0  # atno 11005 bound_to 11000
  146.2136  139.5510  142.9665 LP  0  0  0  0  0  0  0  0  0  0  0  0  # atno 17320 bound_to 7965
  145.5841  141.0378  143.2106 LP  0  0  0  0  0  0  0  0  0  0  0  0  # atno 17321 bound_to 7965
  140.0409  143.5347  152.2718 LP  0  0  0  0  0  0  0  0  0  0  0  0  # atno 17342 bound_to 10162
  139.6174  144.7622  151.2817 LP  0  0  0  0  0  0  0  0  0  0  0  0  # atno 17343 bound_to 10162
  155.9758  130.4084  150.3822 LP  0  0  0  0  0  0  0  0  0  0  0  0  # atno 17370 bound_to 10713
  157.1915  131.0416  151.2698 LP  0  0  0  0  0  0  0  0  0  0  0  0  # atno 17371 bound_to 10713
  140.6715  134.4862  157.5587 LP  0  0  0  0  0  0  0  0  0  0  0  0  # atno 17394 bound_to 11000
  139.9096  134.8374  156.1577 LP  0  0  0  0  0  0  0  0  0  0  0  0  # atno 17395 bound_to 11000

$$$$
