AV-unprocessed.smi:529|AV-procd|sdf|2840|dock4
  -GOLD-   2262023333D 1   1.00000     0.00000
 Structure written by MMmdl.
 30 31  0  0  0  0  0  0  0  0  1 V2000
  149.7396  139.1608  157.8784 N   0  0  0  0  0  0  0  0  0  0  0  0
  149.7188  139.1350  156.5921 C   0  0  0  0  0  0  0  0  0  0  0  0
  149.7120  137.6458  155.5334 S   0  0  0  0  0  0  0  0  0  0  0  0
  149.6596  138.6669  154.1124 C   0  0  0  0  0  0  0  0  0  0  0  0
  149.6543  139.9618  154.4241 C   0  0  0  0  0  0  0  0  0  0  0  0
  149.6937  140.2642  155.7700 N   0  0  0  0  0  0  0  0  0  0  0  0
  149.6551  141.6408  156.2652 C   0  0  0  0  0  0  0  0  0  0  0  0
  150.8645  142.0131  157.1340 C   0  0  0  0  0  0  0  0  0  0  0  0
  151.6549  141.1542  157.5281 O   0  0  0  0  0  0  0  0  0  0  0  0
  150.9872  143.3145  157.4352 N   0  0  0  0  0  0  0  0  0  0  0  0
  152.0563  143.8895  158.2472 C   0  0  0  0  0  0  0  0  0  0  0  0
  152.1807  143.1842  159.6144 C   0  0  0  0  0  0  0  0  0  0  0  0
  152.2070  144.2956  160.6649 C   0  0  0  0  0  0  0  0  0  0  0  0
  151.3964  145.4255  160.0382 C   0  0  0  0  0  0  0  0  0  0  0  0
  151.7659  145.3698  158.5557 C   0  0  0  0  0  0  0  0  0  0  0  0
  149.7553  138.2216  158.2479 H   0  0  0  0  0  0  0  0  0  0  0  0
  149.6328  138.2436  153.1193 H   0  0  0  0  0  0  0  0  0  0  0  0
  149.6210  140.7880  153.7288 H   0  0  0  0  0  0  0  0  0  0  0  0
  149.5789  142.3393  155.4305 H   0  0  0  0  0  0  0  0  0  0  0  0
  148.7503  141.7835  156.8577 H   0  0  0  0  0  0  0  0  0  0  0  0
  150.2927  143.9537  157.0767 H   0  0  0  0  0  0  0  0  0  0  0  0
  152.9988  143.8229  157.7005 H   0  0  0  0  0  0  0  0  0  0  0  0
  151.3162  142.5442  159.7984 H   0  0  0  0  0  0  0  0  0  0  0  0
  153.0660  142.5501  159.6698 H   0  0  0  0  0  0  0  0  0  0  0  0
  151.8075  143.9736  161.6270 H   0  0  0  0  0  0  0  0  0  0  0  0
  153.2340  144.6269  160.8242 H   0  0  0  0  0  0  0  0  0  0  0  0
  150.3312  145.2249  160.1604 H   0  0  0  0  0  0  0  0  0  0  0  0
  151.6079  146.3957  160.4880 H   0  0  0  0  0  0  0  0  0  0  0  0
  152.6725  145.9540  158.3926 H   0  0  0  0  0  0  0  0  0  0  0  0
  150.9902  145.8021  157.9223 H   0  0  0  0  0  0  0  0  0  0  0  0
  1  2  2  0  0  0  0
  1 16  1  0  0  0  0
  2  6  1  0  0  0  0
  2  3  1  0  0  0  0
  3  4  1  0  0  0  0
  4  5  2  0  0  0  0
  4 17  1  0  0  0  0
  5  6  1  0  0  0  0
  5 18  1  0  0  0  0
  6  7  1  0  0  0  0
  7  8  1  0  0  0  0
  7 19  1  0  0  0  0
  7 20  1  0  0  0  0
  8  9  2  0  0  0  0
  8 10  1  0  0  0  0
 10 11  1  0  0  0  0
 10 21  1  0  0  0  0
 11 15  1  0  0  0  0
 11 12  1  0  0  0  0
 11 22  1  0  0  0  0
 12 13  1  0  0  0  0
 12 23  1  0  0  0  0
 12 24  1  0  0  0  0
 13 14  1  0  0  0  0
 13 25  1  0  0  0  0
 13 26  1  0  0  0  0
 14 15  1  0  0  0  0
 14 27  1  0  0  0  0
 14 28  1  0  0  0  0
 15 29  1  0  0  0  0
 15 30  1  0  0  0  0
M  END
> <s_m_source_file>
AV-unprocessed.smi

> <i_m_source_file_index>
529

> <i_lp_mmshare_version>
43012

> <i_f3d_flags>
0

> <s_epik_input>
W0hdL049YzFcc1tjSF1bY0hdbjFbQ0gyXUMoPU8pW05IXVtDSF0yW0NIMl1bQ0gyXVtDSDJdW0NIMl0y

> <s_epik_cmdline>
J2VwaWtfcHl0aG9uJywgJy1waCcsICc3LjAnLCAnLXRuJywgJzgnLCAnLW1hJywgJzIwMCcsICctbWV0YWxfYmluZGluZycsICctaW1hZScsICc8aW5maWxlLm1hZT4nLCAnLW9tYWUnLCAnPG91dGZpbGUubWFlPic=

> <r_epik_Ionization_Penalty>
2.18041

> <r_epik_Ionization_Penalty_Charging>
2.18041

> <r_epik_Ionization_Penalty_Neutral>
1.25369e-07

> <r_epik_State_Penalty>
2.33404

> <r_epik_Charging_Adjusted_Penalty>
4.51444

> <i_epik_Tot_Q>
0

> <i_epik_Tot_abs_Q>
0

> <r_epik_Metal_State_Penalty>
2.33404

> <b_epik_Metal_Only>
0

> <s_lp_Force_Field>
OPLS_2005

> <r_lp_Energy>
15.3577

> <b_lp_Chiralities_Consistent>
1

> <s_lp_Variant>
AV-unprocessed.smi:529-2

> <Gold.Version>
5.8.1

> <Gold.Id.Protein>
6NUR|6NUR_protein|mol2

> <Gold.PLP.Fitness>
40.1706

> <Gold.PLP.PLP>
-31.8760

> <Gold.PLP.part.hbond>
-0.7675

> <Gold.PLP.part.metal>
0.0000

> <Gold.PLP.part.buried>
-1.9995

> <Gold.PLP.part.nonpolar>
-28.3029

> <Gold.PLP.part.repulsive>
0.0016

> <Gold.PLP.ligand.clash>
0.0000

> <Gold.PLP.ligand.torsion>
0.1554

> <Gold.PLP.Chemscore.Hbond>
0.7150

> <Gold.PLP.Chemscore.CHOScore>
2.1503

> <Gold.PLP.Chemscore.Metal>
0.0000

> <Gold.Chemscore.Hbonds>
donor molecule, donor type, donor heavy atom, donor atom, acceptor molecule, acceptor atom, score
      L1  H    10    21       P1  8028  0.78
      L1  C     4    17       P1  7948  1.00
      L1  C     4    17       P1  7957  0.51
      L1  C     5    18       P1  7957  0.44

> <Gold.PLP.Chemscore.Internal.Correction>
0.0095

> <Gold.Rescore>
     Score         DG    S(hbond)    S(metal)    S(lipo)     H(rot)  DE(clash)    DE(int)     intcor
     12.67     -14.67       0.93        0.00      86.28       1.56       0.72       1.28       ----

> <Gold.Chemscore.Fitness>
12.6694

> <Gold.Chemscore.DG>
-14.6694

> <Gold.Chemscore.ZeroCoef>
-5.4800

> <Gold.Chemscore.Hbond>
0.9273

> <Gold.Chemscore.Metal>
0.0000

> <Gold.Chemscore.Lipo>
86.2790

> <Gold.Chemscore.Internal_Hbond>
0.0000

> <Gold.Chemscore.DEClash>
0.7243

> <Gold.Chemscore.DEInternal>
1.2757

> <Gold.Chemscore.Rot>
1.5635

> <Gold.Chemscore.Internal.Correction>
   9.000000E+99

> <Gold.Chemscore.Hbonds>
donor molecule, donor type, donor heavy atom, donor atom, acceptor molecule, acceptor atom, score
      L1  H    10    21       P1  8028  0.73

> <Gold.Chemscore.Hbond.Weighted>
-3.0973

> <Gold.Chemscore.Metal.Weighted>
-0.0000

> <Gold.Chemscore.Lipo.Weighted>
-10.0946

> <Gold.Chemscore.Internal_Hbond.Weighted>
0.0000

> <Gold.Chemscore.DEClash.Weighted>
0.7243

> <Gold.Chemscore.DEInternal.Weighted>
1.2757

> <Gold.Chemscore.Rot.Weighted>
4.0025

> <Gold.Chemscore.Internal.Correction.Weighted>
   9.000000E+99

> <Gold.Protein.RotatedTorsions>
[ 6907 6896 6895 6894 ] final  -47.45 input  -60.11 | X-H torsion
[ 7974 7965 7964 7962 ] final  -73.25 input  175.53 | X-H torsion
[ 8008 7997 7996 7995 ] final  135.00 input   59.86 | X-H torsion
[ 10167 10162 10161 10158 ] final  150.10 input  -65.29 | X-H torsion
[ 10718 10713 10712 10709 ] final  -66.75 input   66.30 | X-H torsion
[ 10763 10752 10751 10750 ] final   28.00 input  -60.55 | X-H torsion
[ 11005 11000 10999 10996 ] final   85.59 input  -57.11 | X-H torsion

> <Gold.Protein.ActiveResidues>
 VAL166  LYS551  ARG553  GLY616  TRP617  ASP618  TYR619  PRO620  LYS621  CYS622 
 ASP623  PHE694  ASN695  SER759  ASP760  ASP761  ALA762  ILE779  LEU786  VAL792 
 PHE793  MET794  SER795  GLU796  ALA797  LYS798  CYS799  TRP800  GLU811  SER814 

> <Gold.Protein.RotatedAtoms>
  150.9007  134.8419  159.7357 H   0  0  0  0  0  0  0  0  0  0  0  0  # atno 6907 bound_to 6896
  152.4890  134.4507  159.9583 H   0  0  0  0  0  0  0  0  0  0  0  0  # atno 6908 bound_to 6896
  151.4559  133.3566  159.2837 H   0  0  0  0  0  0  0  0  0  0  0  0  # atno 6909 bound_to 6896
  145.6546  140.9272  143.0966 H   0  0  0  0  0  0  0  0  0  0  0  0  # atno 7974 bound_to 7965
  156.3001  140.2482  156.3509 H   0  0  0  0  0  0  0  0  0  0  0  0  # atno 8008 bound_to 7997
  154.8966  140.0407  157.1889 H   0  0  0  0  0  0  0  0  0  0  0  0  # atno 8009 bound_to 7997
  154.8543  140.2910  155.5583 H   0  0  0  0  0  0  0  0  0  0  0  0  # atno 8010 bound_to 7997
  139.4854  144.5549  151.7335 H   0  0  0  0  0  0  0  0  0  0  0  0  # atno 10167 bound_to 10162
  156.0595  130.4267  150.1755 H   0  0  0  0  0  0  0  0  0  0  0  0  # atno 10718 bound_to 10713
  153.0519  135.6523  154.0671 H   0  0  0  0  0  0  0  0  0  0  0  0  # atno 10763 bound_to 10752
  154.0358  135.2907  155.3363 H   0  0  0  0  0  0  0  0  0  0  0  0  # atno 10764 bound_to 10752
  154.6813  135.5319  153.8333 H   0  0  0  0  0  0  0  0  0  0  0  0  # atno 10765 bound_to 10752
  139.8967  134.8297  156.2604 H   0  0  0  0  0  0  0  0  0  0  0  0  # atno 11005 bound_to 11000
  144.7110  139.8370  143.7414 LP  0  0  0  0  0  0  0  0  0  0  0  0  # atno 17320 bound_to 7965
  146.1176  139.4189  143.0249 LP  0  0  0  0  0  0  0  0  0  0  0  0  # atno 17321 bound_to 7965
  140.5109  144.1026  150.5995 LP  0  0  0  0  0  0  0  0  0  0  0  0  # atno 17342 bound_to 10162
  140.3952  143.2732  152.0013 LP  0  0  0  0  0  0  0  0  0  0  0  0  # atno 17343 bound_to 10162
  156.9825  130.9868  151.3434 LP  0  0  0  0  0  0  0  0  0  0  0  0  # atno 17370 bound_to 10713
  157.5592  130.8234  149.8244 LP  0  0  0  0  0  0  0  0  0  0  0  0  # atno 17371 bound_to 10713
  141.0166  133.7065  156.1199 LP  0  0  0  0  0  0  0  0  0  0  0  0  # atno 17394 bound_to 11000
  140.7292  134.4273  157.5567 LP  0  0  0  0  0  0  0  0  0  0  0  0  # atno 17395 bound_to 11000

$$$$
