AV-unprocessed.smi:3285|AV-procd|sdf|12582|dock2
  -GOLD-   2272018503D 1   1.00000     0.00000
 Structure written by MMmdl.
 45 46  0  0  0  0  0  0  0  0  2 V2000
  146.8857  142.3875  154.1357 C   0  0  0  0  0  0  0  0  0  0  0  0
  147.6193  141.0830  154.0094 C   0  0  0  0  0  0  0  0  0  0  0  0
  147.0851  140.0977  153.3082 N   0  0  0  0  0  0  0  0  0  0  0  0
  147.9967  139.0400  153.3777 O   0  0  0  0  0  0  0  0  0  0  0  0
  149.0587  139.4360  154.1245 C   0  0  0  0  0  0  0  0  0  0  0  0
  150.1518  138.4398  154.3162 C   0  0  0  0  0  0  0  0  0  0  0  0
  148.8844  140.7222  154.5559 C   0  0  0  0  0  0  0  0  0  0  0  0
  149.8008  141.5651  155.4007 C   0  0  0  0  0  0  0  0  0  0  0  0
  149.3086  141.6476  156.8513 C   0  0  0  0  0  0  0  0  0  0  0  0
  149.8088  142.8719  157.5101 N   0  3  0  0  0  0  0  0  0  0  0  0
  151.2648  143.1174  157.3823 C   0  0  2  0  0  0  0  0  0  0  0  0
  152.0608  141.9456  157.9807 C   0  0  0  0  0  0  0  0  0  0  0  0
  151.9611  141.9047  159.5140 C   0  0  0  0  0  0  0  0  0  0  0  0
  152.4040  143.2316  160.1636 C   0  0  2  0  0  0  0  0  0  0  0  0
  152.2913  143.1257  161.6950 C   0  0  0  0  0  0  0  0  0  0  0  0
  151.6004  144.4229  159.5784 C   0  0  1  0  0  0  0  0  0  0  0  0
  152.0443  145.7824  160.1477 C   0  0  0  0  0  0  0  0  0  0  0  0
  151.7031  144.4442  158.0376 C   0  0  0  0  0  0  0  0  0  0  0  0
  147.3720  143.1662  153.5482 H   0  0  0  0  0  0  0  0  0  0  0  0
  146.8584  142.7217  155.1728 H   0  0  0  0  0  0  0  0  0  0  0  0
  145.8543  142.3069  153.7894 H   0  0  0  0  0  0  0  0  0  0  0  0
  151.1223  138.8825  154.0914 H   0  0  0  0  0  0  0  0  0  0  0  0
  150.0167  137.5769  153.6636 H   0  0  0  0  0  0  0  0  0  0  0  0
  150.1720  138.0835  155.3462 H   0  0  0  0  0  0  0  0  0  0  0  0
  150.8125  141.1584  155.3849 H   0  0  0  0  0  0  0  0  0  0  0  0
  149.8821  142.5722  154.9901 H   0  0  0  0  0  0  0  0  0  0  0  0
  148.2180  141.6444  156.8727 H   0  0  0  0  0  0  0  0  0  0  0  0
  149.6462  140.7694  157.4007 H   0  0  0  0  0  0  0  0  0  0  0  0
  149.3110  143.6716  157.1457 H   0  0  0  0  0  0  0  0  0  0  0  0
  151.4931  143.1613  156.3164 H   0  0  0  0  0  0  0  0  0  0  0  0
  151.7196  140.9999  157.5575 H   0  0  0  0  0  0  0  0  0  0  0  0
  153.1096  142.0426  157.6965 H   0  0  0  0  0  0  0  0  0  0  0  0
  150.9363  141.6747  159.8090 H   0  0  0  0  0  0  0  0  0  0  0  0
  152.5752  141.0855  159.8901 H   0  0  0  0  0  0  0  0  0  0  0  0
  153.4576  143.3816  159.9227 H   0  0  0  0  0  0  0  0  0  0  0  0
  151.2510  143.0494  162.0130 H   0  0  0  0  0  0  0  0  0  0  0  0
  152.7330  143.9874  162.1944 H   0  0  0  0  0  0  0  0  0  0  0  0
  152.8157  142.2445  162.0655 H   0  0  0  0  0  0  0  0  0  0  0  0
  150.5505  144.2893  159.8432 H   0  0  0  0  0  0  0  0  0  0  0  0
  153.1086  145.9538  159.9833 H   0  0  0  0  0  0  0  0  0  0  0  0
  151.8534  145.8562  161.2179 H   0  0  0  0  0  0  0  0  0  0  0  0
  151.5009  146.6006  159.6744 H   0  0  0  0  0  0  0  0  0  0  0  0
  152.7392  144.6411  157.7587 H   0  0  0  0  0  0  0  0  0  0  0  0
  151.1338  145.2806  157.6328 H   0  0  0  0  0  0  0  0  0  0  0  0
  149.6004  142.7888  158.4949 H   0  0  0  0  0  0  0  0  0  0  0  0
  1  2  1  0  0  0  0
  1 19  1  0  0  0  0
  1 20  1  0  0  0  0
  1 21  1  0  0  0  0
  2  7  1  0  0  0  0
  2  3  2  0  0  0  0
  3  4  1  0  0  0  0
  4  5  1  0  0  0  0
  5  6  1  0  0  0  0
  5  7  2  0  0  0  0
  6 22  1  0  0  0  0
  6 23  1  0  0  0  0
  6 24  1  0  0  0  0
  7  8  1  0  0  0  0
  8  9  1  0  0  0  0
  8 25  1  0  0  0  0
  8 26  1  0  0  0  0
  9 10  1  0  0  0  0
  9 27  1  0  0  0  0
  9 28  1  0  0  0  0
 10 11  1  0  0  0  0
 10 29  1  0  0  0  0
 10 45  1  0  0  0  0
 11 18  1  0  0  0  0
 11 12  1  0  0  0  0
 11 30  1  0  0  0  0
 12 13  1  0  0  0  0
 12 31  1  0  0  0  0
 12 32  1  0  0  0  0
 13 14  1  0  0  0  0
 13 33  1  0  0  0  0
 13 34  1  0  0  0  0
 14 15  1  0  0  0  0
 14 16  1  0  0  0  0
 14 35  1  0  0  0  0
 15 36  1  0  0  0  0
 15 37  1  0  0  0  0
 15 38  1  0  0  0  0
 16 17  1  0  0  0  0
 16 18  1  0  0  0  0
 16 39  1  0  0  0  0
 17 40  1  0  0  0  0
 17 41  1  0  0  0  0
 17 42  1  0  0  0  0
 18 43  1  0  0  0  0
 18 44  1  0  0  0  0
M  CHG  1  10   1
M  END
> <s_m_source_file>
AV-unprocessed.smi

> <i_m_source_file_index>
3285

> <i_lp_mmshare_version>
43012

> <i_f3d_flags>
0

> <s_epik_input>
W0NIM11jMW5vYyhbQ0gzXSljMVtDSDJdW0NIMl1bTkhdW0NAQEhdMltDSDJdW0NIMl1bQ0BASF0oW0NIM10pW0NAQEhdKFtDSDNdKVtDSDJdMg==

> <s_epik_cmdline>
J2VwaWtfcHl0aG9uJywgJy1waCcsICc3LjAnLCAnLXRuJywgJzgnLCAnLW1hJywgJzIwMCcsICctbWV0YWxfYmluZGluZycsICctaW1hZScsICc8aW5maWxlLm1hZT4nLCAnLW9tYWUnLCAnPG91dGZpbGUubWFlPic=

> <r_lp_tautomer_probability>
1

> <r_epik_Ionization_Penalty>
0.000204615

> <r_epik_Ionization_Penalty_Charging>
0.000204615

> <r_epik_Ionization_Penalty_Neutral>
9.28663e-11

> <r_epik_State_Penalty>
-0

> <r_epik_Charging_Adjusted_Penalty>
0.000204615

> <i_epik_Tot_Q>
1

> <i_epik_Tot_abs_Q>
1

> <r_epik_Metal_State_Penalty>
-0

> <b_epik_Metal_Only>
0

> <s_lp_Force_Field>
OPLS_2005

> <r_lp_Energy>
13.9042

> <b_lp_Chiralities_Consistent>
1

> <s_lp_Variant>
AV-unprocessed.smi:3285-3

> <Gold.Version>
5.8.1

> <Gold.Id.Protein>
6NUR|6NUR_protein|mol2

> <Gold.PLP.Fitness>
49.8835

> <Gold.PLP.PLP>
-44.6697

> <Gold.PLP.part.hbond>
-1.0000

> <Gold.PLP.part.metal>
0.0000

> <Gold.PLP.part.buried>
-5.6194

> <Gold.PLP.part.nonpolar>
-39.4632

> <Gold.PLP.part.repulsive>
1.5165

> <Gold.PLP.ligand.clash>
0.0000

> <Gold.PLP.ligand.torsion>
0.3959

> <Gold.PLP.Chemscore.Hbond>
2.0000

> <Gold.PLP.Chemscore.CHOScore>
0.0000

> <Gold.PLP.Chemscore.Metal>
0.0000

> <Gold.Chemscore.Hbonds>
donor molecule, donor type, donor heavy atom, donor atom, acceptor molecule, acceptor atom, score
      L1  H    10    29       P1  8028  1.95

> <Gold.PLP.Chemscore.Internal.Correction>
0.0055

> <Gold.Rescore>
     Score         DG    S(hbond)    S(metal)    S(lipo)     H(rot)  DE(clash)    DE(int)     intcor
     20.19     -20.67       0.81        0.00     136.26       1.35       0.18       0.29       ----

> <Gold.Chemscore.Fitness>
20.1943

> <Gold.Chemscore.DG>
-20.6652

> <Gold.Chemscore.ZeroCoef>
-5.4800

> <Gold.Chemscore.Hbond>
0.8052

> <Gold.Chemscore.Metal>
0.0000

> <Gold.Chemscore.Lipo>
136.2626

> <Gold.Chemscore.Internal_Hbond>
0.0000

> <Gold.Chemscore.DEClash>
0.1777

> <Gold.Chemscore.DEInternal>
0.2932

> <Gold.Chemscore.Rot>
1.3465

> <Gold.Chemscore.Internal.Correction>
   9.000000E+99

> <Gold.Chemscore.Hbonds>
donor molecule, donor type, donor heavy atom, donor atom, acceptor molecule, acceptor atom, score
      L1  H    10    29       P1  8028  0.61

> <Gold.Chemscore.Hbond.Weighted>
-2.6895

> <Gold.Chemscore.Metal.Weighted>
-0.0000

> <Gold.Chemscore.Lipo.Weighted>
-15.9427

> <Gold.Chemscore.Internal_Hbond.Weighted>
0.0000

> <Gold.Chemscore.DEClash.Weighted>
0.1777

> <Gold.Chemscore.DEInternal.Weighted>
0.2932

> <Gold.Chemscore.Rot.Weighted>
3.4470

> <Gold.Chemscore.Internal.Correction.Weighted>
   9.000000E+99

> <Gold.Protein.RotatedTorsions>
[ 6907 6896 6895 6894 ] final  -53.96 input  -60.11 | X-H torsion
[ 7974 7965 7964 7962 ] final -141.83 input  175.53 | X-H torsion
[ 8008 7997 7996 7995 ] final   71.77 input   59.86 | X-H torsion
[ 10167 10162 10161 10158 ] final  111.97 input  -65.29 | X-H torsion
[ 10718 10713 10712 10709 ] final -139.02 input   66.30 | X-H torsion
[ 10763 10752 10751 10750 ] final -147.96 input  -60.55 | X-H torsion
[ 11005 11000 10999 10996 ] final  143.67 input  -57.11 | X-H torsion

> <Gold.Protein.ActiveResidues>
 VAL166  LYS551  ARG553  GLY616  TRP617  ASP618  TYR619  PRO620  LYS621  CYS622 
 ASP623  PHE694  ASN695  SER759  ASP760  ASP761  ALA762  ILE779  LEU786  VAL792 
 PHE793  MET794  SER795  GLU796  ALA797  LYS798  CYS799  TRP800  GLU811  SER814 

> <Gold.Protein.RotatedAtoms>
  150.8380  134.7661  159.6908 H   0  0  0  0  0  0  0  0  0  0  0  0  # atno 6907 bound_to 6896
  152.4473  134.5464  159.9864 H   0  0  0  0  0  0  0  0  0  0  0  0  # atno 6908 bound_to 6896
  151.5610  133.3365  159.3007 H   0  0  0  0  0  0  0  0  0  0  0  0  # atno 6909 bound_to 6896
  144.8489  140.6032  143.5403 H   0  0  0  0  0  0  0  0  0  0  0  0  # atno 7974 bound_to 7965
  155.7588  140.3487  155.5187 H   0  0  0  0  0  0  0  0  0  0  0  0  # atno 8008 bound_to 7997
  155.8933  140.1021  157.1424 H   0  0  0  0  0  0  0  0  0  0  0  0  # atno 8009 bound_to 7997
  154.4036  140.1300  156.4331 H   0  0  0  0  0  0  0  0  0  0  0  0  # atno 8010 bound_to 7997
  139.6571  144.7129  151.1936 H   0  0  0  0  0  0  0  0  0  0  0  0  # atno 10167 bound_to 10162
  156.3060  130.7455  151.1519 H   0  0  0  0  0  0  0  0  0  0  0  0  # atno 10718 bound_to 10713
  154.8258  135.3346  154.6900 H   0  0  0  0  0  0  0  0  0  0  0  0  # atno 10763 bound_to 10752
  153.7526  135.6938  153.4947 H   0  0  0  0  0  0  0  0  0  0  0  0  # atno 10764 bound_to 10752
  153.2165  135.4463  155.0391 H   0  0  0  0  0  0  0  0  0  0  0  0  # atno 10765 bound_to 10752
  140.0572  134.9224  157.1121 H   0  0  0  0  0  0  0  0  0  0  0  0  # atno 11005 bound_to 11000
  145.4540  139.1520  143.3903 LP  0  0  0  0  0  0  0  0  0  0  0  0  # atno 17320 bound_to 7965
  146.2768  140.4667  142.8792 LP  0  0  0  0  0  0  0  0  0  0  0  0  # atno 17321 bound_to 7965
  140.7564  143.6055  150.8657 LP  0  0  0  0  0  0  0  0  0  0  0  0  # atno 17342 bound_to 10162
  139.9708  143.6058  152.2974 LP  0  0  0  0  0  0  0  0  0  0  0  0  # atno 17343 bound_to 10162
  157.7380  131.0546  150.5323 LP  0  0  0  0  0  0  0  0  0  0  0  0  # atno 17370 bound_to 10713
  156.5457  130.4219  149.6132 LP  0  0  0  0  0  0  0  0  0  0  0  0  # atno 17371 bound_to 10713
  140.3826  134.2270  155.7170 LP  0  0  0  0  0  0  0  0  0  0  0  0  # atno 17394 bound_to 11000
  141.1957  133.8099  157.0703 LP  0  0  0  0  0  0  0  0  0  0  0  0  # atno 17395 bound_to 11000

$$$$
