AV-unprocessed.smi:78|AV-procd|sdf|775|dock4
  -GOLD-   2262017123D 1   1.00000     0.00000
 Structure written by MMmdl.
 56 59  0  0  0  0  0  0  0  0  1 V2000
  147.9912  132.3571  160.6959 C   0  0  0  0  0  0  0  0  0  0  0  0
  147.7206  133.8472  160.9519 C   0  0  0  0  0  0  0  0  0  0  0  0
  146.9526  134.0296  162.2717 C   0  0  0  0  0  0  0  0  0  0  0  0
  146.9886  134.4800  159.7451 C   0  0  0  0  0  0  0  0  0  0  0  0
  147.8721  135.0175  158.5839 C   0  0  2  0  0  0  0  0  0  0  0  0
  148.5427  136.3366  159.0238 C   0  0  0  0  0  0  0  0  0  0  0  0
  149.4285  136.3094  159.8761 O   0  0  0  0  0  0  0  0  0  0  0  0
  148.1519  137.4965  158.4675 N   0  0  0  0  0  0  0  0  0  0  0  0
  147.1416  137.6563  157.4236 C   0  0  0  0  0  0  0  0  0  0  0  0
  146.2752  136.4046  157.2106 C   0  0  0  0  0  0  0  0  0  0  0  0
  147.0848  135.1998  157.3545 N   0  0  0  0  0  0  0  0  0  0  0  0
  146.8860  134.1504  156.5169 C   0  0  0  0  0  0  0  0  0  0  0  0
  146.7154  132.9187  157.0622 N   0  0  0  0  0  0  0  0  0  0  0  0
  146.4965  131.8580  156.2809 C   0  0  0  0  0  0  0  0  0  0  0  0
  146.4004  131.8077  154.9515 N   0  0  0  0  0  0  0  0  0  0  0  0
  146.5620  133.0422  154.3951 C   0  0  0  0  0  0  0  0  0  0  0  0
  146.8204  134.2541  155.0966 C   0  0  0  0  0  0  0  0  0  0  0  0
  146.9272  135.3041  154.1927 N   0  0  0  0  0  0  0  0  0  0  0  0
  146.7582  134.7439  153.0270 C   0  0  0  0  0  0  0  0  0  0  0  0
  146.4932  133.3922  153.0569 N   0  0  0  0  0  0  0  0  0  0  0  0
  146.2739  132.5164  151.9366 C   0  0  0  0  0  0  0  0  0  0  0  0
  146.3606  133.0237  150.4891 C   0  0  0  0  0  0  0  0  0  0  0  0
  144.8183  133.0810  150.4169 C   0  0  0  0  0  0  0  0  0  0  0  0
  144.1876  134.4393  150.7817 C   0  0  0  0  0  0  0  0  0  0  0  0
  144.6415  135.4702  149.9281 O   0  0  0  0  0  0  0  0  0  0  0  0
  144.1535  132.6105  149.1086 C   0  0  0  0  0  0  0  0  0  0  0  0
  142.8561  132.0886  149.3149 O   0  0  0  0  0  0  0  0  0  0  0  0
  144.8479  132.0689  151.5836 C   0  0  0  0  0  0  0  0  0  0  0  0
  147.0621  131.7984  160.5791 H   0  0  0  0  0  0  0  0  0  0  0  0
  148.5466  131.9107  161.5210 H   0  0  0  0  0  0  0  0  0  0  0  0
  148.5822  132.2145  159.7908 H   0  0  0  0  0  0  0  0  0  0  0  0
  148.6962  134.3153  161.0625 H   0  0  0  0  0  0  0  0  0  0  0  0
  145.9553  133.5926  162.2128 H   0  0  0  0  0  0  0  0  0  0  0  0
  146.8409  135.0805  162.5346 H   0  0  0  0  0  0  0  0  0  0  0  0
  147.4768  133.5490  163.0981 H   0  0  0  0  0  0  0  0  0  0  0  0
  146.2861  133.7500  159.3405 H   0  0  0  0  0  0  0  0  0  0  0  0
  146.3674  135.2915  160.1279 H   0  0  0  0  0  0  0  0  0  0  0  0
  148.6951  134.3255  158.4076 H   0  0  0  0  0  0  0  0  0  0  0  0
  148.6095  138.3393  158.7836 H   0  0  0  0  0  0  0  0  0  0  0  0
  146.5153  138.5202  157.6473 H   0  0  0  0  0  0  0  0  0  0  0  0
  147.6725  137.8867  156.4994 H   0  0  0  0  0  0  0  0  0  0  0  0
  145.4703  136.3749  157.9455 H   0  0  0  0  0  0  0  0  0  0  0  0
  145.8078  136.4664  156.2272 H   0  0  0  0  0  0  0  0  0  0  0  0
  146.3759  130.9158  156.7951 H   0  0  0  0  0  0  0  0  0  0  0  0
  146.8104  135.3182  152.1144 H   0  0  0  0  0  0  0  0  0  0  0  0
  146.9309  131.6605  152.0962 H   0  0  0  0  0  0  0  0  0  0  0  0
  146.8550  133.9837  150.3472 H   0  0  0  0  0  0  0  0  0  0  0  0
  146.7971  132.2761  149.8250 H   0  0  0  0  0  0  0  0  0  0  0  0
  143.0995  134.3936  150.7269 H   0  0  0  0  0  0  0  0  0  0  0  0
  144.4253  134.7278  151.8054 H   0  0  0  0  0  0  0  0  0  0  0  0
  145.2300  135.0951  149.2907 H   0  0  0  0  0  0  0  0  0  0  0  0
  144.0725  133.4328  148.3969 H   0  0  0  0  0  0  0  0  0  0  0  0
  144.7459  131.8333  148.6252 H   0  0  0  0  0  0  0  0  0  0  0  0
  142.2406  132.8057  149.3139 H   0  0  0  0  0  0  0  0  0  0  0  0
  144.8158  131.0257  151.2659 H   0  0  0  0  0  0  0  0  0  0  0  0
  144.0998  132.2556  152.3545 H   0  0  0  0  0  0  0  0  0  0  0  0
  1  2  1  0  0  0  0
  1 29  1  0  0  0  0
  1 30  1  0  0  0  0
  1 31  1  0  0  0  0
  2  3  1  0  0  0  0
  2  4  1  0  0  0  0
  2 32  1  0  0  0  0
  3 33  1  0  0  0  0
  3 34  1  0  0  0  0
  3 35  1  0  0  0  0
  4  5  1  0  0  0  0
  4 36  1  0  0  0  0
  4 37  1  0  0  0  0
  5 11  1  0  0  0  0
  5  6  1  0  0  0  0
  5 38  1  0  0  0  0
  6  7  2  0  0  0  0
  6  8  1  0  0  0  0
  8  9  1  0  0  0  0
  8 39  1  0  0  0  0
  9 10  1  0  0  0  0
  9 40  1  0  0  0  0
  9 41  1  0  0  0  0
 10 11  1  0  0  0  0
 10 42  1  0  0  0  0
 10 43  1  0  0  0  0
 11 12  1  0  0  0  0
 12 17  1  0  0  0  0
 12 13  2  0  0  0  0
 13 14  1  0  0  0  0
 14 15  2  0  0  0  0
 14 44  1  0  0  0  0
 15 16  1  0  0  0  0
 16 20  1  0  0  0  0
 16 17  2  0  0  0  0
 17 18  1  0  0  0  0
 18 19  2  0  0  0  0
 19 20  1  0  0  0  0
 19 45  1  0  0  0  0
 20 21  1  0  0  0  0
 21 28  1  0  0  0  0
 21 22  1  0  0  0  0
 21 46  1  0  0  0  0
 22 23  1  0  0  0  0
 22 47  1  0  0  0  0
 22 48  1  0  0  0  0
 23 24  1  0  0  0  0
 23 26  1  0  0  0  0
 23 28  1  0  0  0  0
 24 25  1  0  0  0  0
 24 49  1  0  0  0  0
 24 50  1  0  0  0  0
 25 51  1  0  0  0  0
 26 27  1  0  0  0  0
 26 52  1  0  0  0  0
 26 53  1  0  0  0  0
 27 54  1  0  0  0  0
 28 55  1  0  0  0  0
 28 56  1  0  0  0  0
M  END
> <s_m_source_file>
AV-unprocessed.smi

> <i_m_source_file_index>
78

> <i_lp_mmshare_version>
43012

> <i_f3d_flags>
0

> <s_epik_input>
W0NIM11bQ0hdKFtDSDNdKVtDSDJdW0NAQEhdMUMoPU8pW05IXVtDSDJdW0NIMl1OMWMobltjSF1uMiljKGMyMyluW2NIXW4zW0NIXShbQ0gyXTQpW0NIMl1DNChbQ0gyXVtPSF0pW0NIMl1bT0hd

> <s_epik_cmdline>
J2VwaWtfcHl0aG9uJywgJy1waCcsICc3LjAnLCAnLXRuJywgJzgnLCAnLW1hJywgJzIwMCcsICctbWV0YWxfYmluZGluZycsICctaW1hZScsICc8aW5maWxlLm1hZT4nLCAnLW9tYWUnLCAnPG91dGZpbGUubWFlPic=

> <r_lp_tautomer_probability>
1

> <r_epik_Ionization_Penalty>
0.000550083

> <r_epik_Ionization_Penalty_Charging>
0

> <r_epik_Ionization_Penalty_Neutral>
0.000550083

> <r_epik_State_Penalty>
0.000250415

> <r_epik_Charging_Adjusted_Penalty>
0.000250415

> <i_epik_Tot_Q>
0

> <i_epik_Tot_abs_Q>
0

> <r_epik_Metal_State_Penalty>
-0

> <b_epik_Metal_Only>
0

> <s_lp_Force_Field>
OPLS_2005

> <r_lp_Energy>
48.6174

> <b_lp_Chiralities_Consistent>
1

> <s_lp_Variant>
AV-unprocessed.smi:78-1

> <Gold.Version>
5.8.1

> <Gold.Id.Protein>
6NUR|6NUR_protein|mol2

> <Gold.PLP.Fitness>
45.7148

> <Gold.PLP.PLP>
-35.1775

> <Gold.PLP.part.hbond>
-5.4262

> <Gold.PLP.part.metal>
0.0000

> <Gold.PLP.part.buried>
-4.5852

> <Gold.PLP.part.nonpolar>
-25.8227

> <Gold.PLP.part.repulsive>
0.3549

> <Gold.PLP.ligand.clash>
0.0000

> <Gold.PLP.ligand.torsion>
1.8774

> <Gold.PLP.Chemscore.Hbond>
3.9175

> <Gold.PLP.Chemscore.CHOScore>
0.6189

> <Gold.PLP.Chemscore.Metal>
0.0000

> <Gold.Chemscore.Hbonds>
donor molecule, donor type, donor heavy atom, donor atom, acceptor molecule, acceptor atom, score
      L1  H    25    51       P1  7921  1.00
      L1  H    27    54       P1 10186  0.99
      P1  H  6896  6909       L1     7  1.00
      P1  H 10785 10796       L1    27  0.90
      L1  C    19    45       P1  7948  0.61

> <Gold.PLP.Chemscore.Internal.Correction>
0.6830

> <Gold.Rescore>
     Score         DG    S(hbond)    S(metal)    S(lipo)     H(rot)  DE(clash)    DE(int)     intcor
     13.66     -16.38       3.27        0.00      73.79       3.39       0.94       1.77       ----

> <Gold.Chemscore.Fitness>
13.6644

> <Gold.Chemscore.DG>
-16.3784

> <Gold.Chemscore.ZeroCoef>
-5.4800

> <Gold.Chemscore.Hbond>
3.2732

> <Gold.Chemscore.Metal>
0.0000

> <Gold.Chemscore.Lipo>
73.7938

> <Gold.Chemscore.Internal_Hbond>
0.0000

> <Gold.Chemscore.DEClash>
0.9440

> <Gold.Chemscore.DEInternal>
1.7700

> <Gold.Chemscore.Rot>
3.3859

> <Gold.Chemscore.Internal.Correction>
   9.000000E+99

> <Gold.Chemscore.Hbonds>
donor molecule, donor type, donor heavy atom, donor atom, acceptor molecule, acceptor atom, score
      L1  H    25    51       P1  7921  0.99
      L1  H    27    54       P1 10186  0.92
      P1  H  6896  6909       L1     7  0.86
      P1  H 10785 10796       L1    27  0.19

> <Gold.Chemscore.Hbond.Weighted>
-10.9325

> <Gold.Chemscore.Metal.Weighted>
-0.0000

> <Gold.Chemscore.Lipo.Weighted>
-8.6339

> <Gold.Chemscore.Internal_Hbond.Weighted>
0.0000

> <Gold.Chemscore.DEClash.Weighted>
0.9440

> <Gold.Chemscore.DEInternal.Weighted>
1.7700

> <Gold.Chemscore.Rot.Weighted>
8.6679

> <Gold.Chemscore.Internal.Correction.Weighted>
   9.000000E+99

> <Gold.Protein.RotatedTorsions>
[ 6907 6896 6895 6894 ] final   65.50 input  -60.11 | X-H torsion
[ 7974 7965 7964 7962 ] final  -33.83 input  175.53 | X-H torsion
[ 8008 7997 7996 7995 ] final   -1.05 input   59.86 | X-H torsion
[ 10167 10162 10161 10158 ] final  -33.41 input  -65.29 | X-H torsion
[ 10718 10713 10712 10709 ] final  113.59 input   66.30 | X-H torsion
[ 10763 10752 10751 10750 ] final  109.07 input  -60.55 | X-H torsion
[ 11005 11000 10999 10996 ] final   -5.60 input  -57.11 | X-H torsion

> <Gold.Protein.ActiveResidues>
 VAL166  LYS551  ARG553  GLY616  TRP617  ASP618  TYR619  PRO620  LYS621  CYS622 
 ASP623  PHE694  ASN695  SER759  ASP760  ASP761  ALA762  ILE779  LEU786  VAL792 
 PHE793  MET794  SER795  GLU796  ALA797  LYS798  CYS799  TRP800  GLU811  SER814 

> <Gold.Protein.RotatedAtoms>
  152.4412  134.5586  159.9887 H   0  0  0  0  0  0  0  0  0  0  0  0  # atno 6907 bound_to 6896
  151.5683  133.3388  159.2992 H   0  0  0  0  0  0  0  0  0  0  0  0  # atno 6908 bound_to 6896
  150.8319  134.7609  159.6925 H   0  0  0  0  0  0  0  0  0  0  0  0  # atno 6909 bound_to 6896
  146.0879  140.5964  142.8878 H   0  0  0  0  0  0  0  0  0  0  0  0  # atno 7974 bound_to 7965
  154.6511  140.2569  155.7213 H   0  0  0  0  0  0  0  0  0  0  0  0  # atno 8008 bound_to 7997
  156.2575  140.2868  156.0866 H   0  0  0  0  0  0  0  0  0  0  0  0  # atno 8009 bound_to 7997
  155.1450  140.0381  157.2798 H   0  0  0  0  0  0  0  0  0  0  0  0  # atno 8010 bound_to 7997
  140.7205  143.3622  151.1940 H   0  0  0  0  0  0  0  0  0  0  0  0  # atno 10167 bound_to 10162
  157.6329  131.0986  150.7063 H   0  0  0  0  0  0  0  0  0  0  0  0  # atno 10718 bound_to 10713
  153.4296  135.3791  155.2162 H   0  0  0  0  0  0  0  0  0  0  0  0  # atno 10763 bound_to 10752
  154.8749  135.3837  154.4284 H   0  0  0  0  0  0  0  0  0  0  0  0  # atno 10764 bound_to 10752
  153.4815  135.7088  153.5998 H   0  0  0  0  0  0  0  0  0  0  0  0  # atno 10765 bound_to 10752
  140.6929  133.9055  155.8630 H   0  0  0  0  0  0  0  0  0  0  0  0  # atno 11005 bound_to 11000
  144.7339  140.4752  143.6918 LP  0  0  0  0  0  0  0  0  0  0  0  0  # atno 17320 bound_to 7965
  145.6095  139.1512  143.3084 LP  0  0  0  0  0  0  0  0  0  0  0  0  # atno 17321 bound_to 7965
  139.7176  143.9274  152.2973 LP  0  0  0  0  0  0  0  0  0  0  0  0  # atno 17342 bound_to 10162
  139.9021  144.6906  150.8654 LP  0  0  0  0  0  0  0  0  0  0  0  0  # atno 17343 bound_to 10162
  156.7399  130.4736  149.5480 LP  0  0  0  0  0  0  0  0  0  0  0  0  # atno 17370 bound_to 10713
  156.1546  130.6333  151.0641 LP  0  0  0  0  0  0  0  0  0  0  0  0  # atno 17371 bound_to 10713
  141.0226  134.0867  157.4103 LP  0  0  0  0  0  0  0  0  0  0  0  0  # atno 17394 bound_to 11000
  139.8918  135.0121  156.6812 LP  0  0  0  0  0  0  0  0  0  0  0  0  # atno 17395 bound_to 11000

$$$$
