AV-unprocessed.smi:628|AV-procd|sdf|3114|dock6
  -GOLD-   22720 0 33D 1   1.00000     0.00000
 Structure written by MMmdl.
 31 32  0  0  0  0  0  0  0  0  2 V2000
  151.5136  141.6751  157.7847 O   0  0  0  0  0  0  0  0  0  0  0  0
  150.5518  142.2769  157.3041 C   0  0  0  0  0  0  0  0  0  0  0  0
  149.5615  141.5788  156.3633 C   0  0  0  0  0  0  0  0  0  0  0  0
  150.1720  140.5170  155.5805 N   0  0  0  0  0  0  0  0  0  0  0  0
  151.5142  140.2057  155.4674 C   0  0  0  0  0  0  0  0  0  0  0  0
  151.5655  139.1384  154.6229 C   0  0  0  0  0  0  0  0  0  0  0  0
  152.7943  138.4143  154.1720 C   0  0  0  0  0  0  0  0  0  0  0  0
  152.6567  137.3375  153.5510 O   0  0  0  0  0  0  0  0  0  0  0  0
  153.9104  138.9140  154.4356 O   0  5  0  0  0  0  0  0  0  0  0  0
  150.2263  138.8479  154.2546 C   0  0  0  0  0  0  0  0  0  0  0  0
  149.3862  139.6883  154.8432 N   0  0  0  0  0  0  0  0  0  0  0  0
  150.2931  143.5675  157.5639 N   0  0  0  0  0  0  0  0  0  0  0  0
  151.0982  144.4299  158.4251 C   0  0  0  0  0  0  0  0  0  0  0  0
  152.5747  144.4600  157.9802 C   0  0  0  0  0  0  0  0  0  0  0  0
  153.3484  143.6687  159.0346 C   0  0  0  0  0  0  0  0  0  0  0  0
  152.5627  143.8974  160.3216 C   0  0  0  0  0  0  0  0  0  0  0  0
  151.0994  143.9082  159.8752 C   0  0  0  0  0  0  0  0  0  0  0  0
  148.7482  141.1510  156.9508 H   0  0  0  0  0  0  0  0  0  0  0  0
  149.1188  142.3119  155.6872 H   0  0  0  0  0  0  0  0  0  0  0  0
  152.2896  140.7544  155.9811 H   0  0  0  0  0  0  0  0  0  0  0  0
  149.8447  138.0770  153.6015 H   0  0  0  0  0  0  0  0  0  0  0  0
  149.4823  143.9846  157.1302 H   0  0  0  0  0  0  0  0  0  0  0  0
  150.6923  145.4434  158.4047 H   0  0  0  0  0  0  0  0  0  0  0  0
  152.7369  144.0677  156.9754 H   0  0  0  0  0  0  0  0  0  0  0  0
  152.9255  145.4929  157.9786 H   0  0  0  0  0  0  0  0  0  0  0  0
  153.3372  142.6080  158.7806 H   0  0  0  0  0  0  0  0  0  0  0  0
  154.3895  143.9821  159.1153 H   0  0  0  0  0  0  0  0  0  0  0  0
  152.7654  143.1393  161.0786 H   0  0  0  0  0  0  0  0  0  0  0  0
  152.8259  144.8682  160.7436 H   0  0  0  0  0  0  0  0  0  0  0  0
  150.4781  144.5178  160.5321 H   0  0  0  0  0  0  0  0  0  0  0  0
  150.7092  142.8899  159.9193 H   0  0  0  0  0  0  0  0  0  0  0  0
  1  2  2  0  0  0  0
  2  3  1  0  0  0  0
  2 12  1  0  0  0  0
  3  4  1  0  0  0  0
  3 18  1  0  0  0  0
  3 19  1  0  0  0  0
  4 11  1  0  0  0  0
  4  5  1  0  0  0  0
  5  6  2  0  0  0  0
  5 20  1  0  0  0  0
  6  7  1  0  0  0  0
  6 10  1  0  0  0  0
  7  8  2  0  0  0  0
  7  9  1  0  0  0  0
 10 11  2  0  0  0  0
 10 21  1  0  0  0  0
 12 13  1  0  0  0  0
 12 22  1  0  0  0  0
 13 17  1  0  0  0  0
 13 14  1  0  0  0  0
 13 23  1  0  0  0  0
 14 15  1  0  0  0  0
 14 24  1  0  0  0  0
 14 25  1  0  0  0  0
 15 16  1  0  0  0  0
 15 26  1  0  0  0  0
 15 27  1  0  0  0  0
 16 17  1  0  0  0  0
 16 28  1  0  0  0  0
 16 29  1  0  0  0  0
 17 30  1  0  0  0  0
 17 31  1  0  0  0  0
M  CHG  1   9  -1
M  END
> <s_m_source_file>
AV-unprocessed.smi

> <i_m_source_file_index>
628

> <i_lp_mmshare_version>
43012

> <i_f3d_flags>
0

> <s_epik_input>
W0NIMl0xW0NIMl1bQ0gyXVtDSDJdW0NIXTFbTkhdQyg9TylbQ0gyXW4yW2NIXWMoW2NIXW4yKUMoPU8pW09IXQ==

> <s_epik_cmdline>
J2VwaWtfcHl0aG9uJywgJy1waCcsICc3LjAnLCAnLXRuJywgJzgnLCAnLW1hJywgJzIwMCcsICctbWV0YWxfYmluZGluZycsICctaW1hZScsICc8aW5maWxlLm1hZT4nLCAnLW9tYWUnLCAnPG91dGZpbGUubWFlPic=

> <r_epik_Ionization_Penalty>
0.000955839

> <r_epik_Ionization_Penalty_Charging>
0.000925564

> <r_epik_Ionization_Penalty_Neutral>
3.02757e-05

> <r_epik_State_Penalty>
0.000600209

> <r_epik_Charging_Adjusted_Penalty>
0.00152577

> <i_epik_Tot_Q>
-1

> <i_epik_Tot_abs_Q>
1

> <r_epik_Metal_State_Penalty>
-0

> <b_epik_Metal_Only>
0

> <s_lp_Force_Field>
OPLS_2005

> <r_lp_Energy>
22.3574

> <b_lp_Chiralities_Consistent>
1

> <s_lp_Variant>
AV-unprocessed.smi:628-1

> <Gold.Version>
5.8.1

> <Gold.Id.Protein>
6NUR|6NUR_protein|mol2

> <Gold.PLP.Fitness>
52.1211

> <Gold.PLP.PLP>
-38.0225

> <Gold.PLP.part.hbond>
-2.7977

> <Gold.PLP.part.metal>
0.0000

> <Gold.PLP.part.buried>
-3.8743

> <Gold.PLP.part.nonpolar>
-32.3850

> <Gold.PLP.part.repulsive>
1.5478

> <Gold.PLP.ligand.clash>
0.2226

> <Gold.PLP.ligand.torsion>
0.5191

> <Gold.PLP.Chemscore.Hbond>
4.5280

> <Gold.PLP.Chemscore.CHOScore>
0.5895

> <Gold.PLP.Chemscore.Metal>
0.0000

> <Gold.Chemscore.Hbonds>
donor molecule, donor type, donor heavy atom, donor atom, acceptor molecule, acceptor atom, score
      L1  H    12    22       P1  8028  0.90
      P1  H  7997  8010       L1     9  2.00
      P1  H 10752 10763       L1     8  1.60
      L1  C    10    21       P1  7948  0.70

> <Gold.PLP.Chemscore.Internal.Correction>
0.0070

> <Gold.Rescore>
     Score         DG    S(hbond)    S(metal)    S(lipo)     H(rot)  DE(clash)    DE(int)     intcor
     14.99     -19.80       2.25        0.00      93.44       1.61       0.98       3.83       ----

> <Gold.Chemscore.Fitness>
14.9893

> <Gold.Chemscore.DG>
-19.8016

> <Gold.Chemscore.ZeroCoef>
-5.4800

> <Gold.Chemscore.Hbond>
2.2477

> <Gold.Chemscore.Metal>
0.0000

> <Gold.Chemscore.Lipo>
93.4448

> <Gold.Chemscore.Internal_Hbond>
0.0000

> <Gold.Chemscore.DEClash>
0.9815

> <Gold.Chemscore.DEInternal>
3.8307

> <Gold.Chemscore.Rot>
1.6089

> <Gold.Chemscore.Internal.Correction>
   9.000000E+99

> <Gold.Chemscore.Hbonds>
donor molecule, donor type, donor heavy atom, donor atom, acceptor molecule, acceptor atom, score
      L1  H    12    22       P1  8028  0.49
      P1  H  7997  8010       L1     9  0.95
      P1  H 10752 10763       L1     8  0.80

> <Gold.Chemscore.Hbond.Weighted>
-7.5073

> <Gold.Chemscore.Metal.Weighted>
-0.0000

> <Gold.Chemscore.Lipo.Weighted>
-10.9330

> <Gold.Chemscore.Internal_Hbond.Weighted>
0.0000

> <Gold.Chemscore.DEClash.Weighted>
0.9815

> <Gold.Chemscore.DEInternal.Weighted>
3.8307

> <Gold.Chemscore.Rot.Weighted>
4.1188

> <Gold.Chemscore.Internal.Correction.Weighted>
   9.000000E+99

> <Gold.Protein.RotatedTorsions>
[ 6907 6896 6895 6894 ] final  -36.49 input  -60.11 | X-H torsion
[ 7974 7965 7964 7962 ] final  -53.25 input  175.53 | X-H torsion
[ 8008 7997 7996 7995 ] final  120.71 input   59.86 | X-H torsion
[ 10167 10162 10161 10158 ] final  147.04 input  -65.29 | X-H torsion
[ 10718 10713 10712 10709 ] final  146.67 input   66.30 | X-H torsion
[ 10763 10752 10751 10750 ] final   17.10 input  -60.55 | X-H torsion
[ 11005 11000 10999 10996 ] final -175.76 input  -57.11 | X-H torsion

> <Gold.Protein.ActiveResidues>
 VAL166  LYS551  ARG553  GLY616  TRP617  ASP618  TYR619  PRO620  LYS621  CYS622 
 ASP623  PHE694  ASN695  SER759  ASP760  ASP761  ALA762  ILE779  LEU786  VAL792 
 PHE793  MET794  SER795  GLU796  ALA797  LYS798  CYS799  TRP800  GLU811  SER814 

> <Gold.Protein.RotatedAtoms>
  151.0265  134.9508  159.8087 H   0  0  0  0  0  0  0  0  0  0  0  0  # atno 6907 bound_to 6896
  152.5336  134.2835  159.9026 H   0  0  0  0  0  0  0  0  0  0  0  0  # atno 6908 bound_to 6896
  151.2843  133.4152  159.2663 H   0  0  0  0  0  0  0  0  0  0  0  0  # atno 6909 bound_to 6896
  145.8990  140.8010  142.9753 H   0  0  0  0  0  0  0  0  0  0  0  0  # atno 7974 bound_to 7965
  156.2655  140.2825  156.1193 H   0  0  0  0  0  0  0  0  0  0  0  0  # atno 8008 bound_to 7997
  155.1173  140.0391  157.2758 H   0  0  0  0  0  0  0  0  0  0  0  0  # atno 8009 bound_to 7997
  154.6697  140.2585  155.7026 H   0  0  0  0  0  0  0  0  0  0  0  0  # atno 8010 bound_to 7997
  139.4896  144.5785  151.6919 H   0  0  0  0  0  0  0  0  0  0  0  0  # atno 10167 bound_to 10162
  157.3304  131.0919  151.1167 H   0  0  0  0  0  0  0  0  0  0  0  0  # atno 10718 bound_to 10713
  153.1369  135.6752  153.9088 H   0  0  0  0  0  0  0  0  0  0  0  0  # atno 10763 bound_to 10752
  153.8556  135.3087  155.3436 H   0  0  0  0  0  0  0  0  0  0  0  0  # atno 10764 bound_to 10752
  154.7755  135.4916  153.9819 H   0  0  0  0  0  0  0  0  0  0  0  0  # atno 10765 bound_to 10752
  140.4596  134.6267  157.4837 H   0  0  0  0  0  0  0  0  0  0  0  0  # atno 11005 bound_to 11000
  144.6734  140.1647  143.7419 LP  0  0  0  0  0  0  0  0  0  0  0  0  # atno 17320 bound_to 7965
  145.8815  139.2325  143.1602 LP  0  0  0  0  0  0  0  0  0  0  0  0  # atno 17321 bound_to 7965
  140.5386  144.0616  150.6079 LP  0  0  0  0  0  0  0  0  0  0  0  0  # atno 17342 bound_to 10162
  140.3630  143.2897  152.0362 LP  0  0  0  0  0  0  0  0  0  0  0  0  # atno 17343 bound_to 10162
  157.2418  130.6573  149.5893 LP  0  0  0  0  0  0  0  0  0  0  0  0  # atno 17370 bound_to 10713
  155.9695  130.4566  150.5931 LP  0  0  0  0  0  0  0  0  0  0  0  0  # atno 17371 bound_to 10713
  139.9953  134.6920  155.9619 LP  0  0  0  0  0  0  0  0  0  0  0  0  # atno 17394 bound_to 11000
  141.1627  133.6538  156.4373 LP  0  0  0  0  0  0  0  0  0  0  0  0  # atno 17395 bound_to 11000

$$$$
