AV-unprocessed.smi:35|AV-procd|sdf|261|dock1
  -GOLD-   2262016 23D 1   1.00000     0.00000
 Structure written by MMmdl.
 29 30  0  0  0  0  0  0  0  0  1 V2000
  140.7775  135.1106  153.8756 O   0  0  0  0  0  0  0  0  0  0  0  0
  141.9462  135.4564  153.7173 C   0  0  0  0  0  0  0  0  0  0  0  0
  142.9839  134.5349  153.8852 N   0  0  0  0  0  0  0  0  0  0  0  0
  144.3448  134.8075  153.7307 C   0  0  0  0  0  0  0  0  0  0  0  0
  145.1720  133.9105  153.8873 O   0  0  0  0  0  0  0  0  0  0  0  0
  144.7019  136.1298  153.3825 N   0  0  0  0  0  0  0  0  0  0  0  0
  146.1613  136.4845  153.1893 C   0  0  2  0  0  0  0  0  0  0  0  0
  146.4516  137.6058  153.9680 O   0  0  0  0  0  0  0  0  0  0  0  0
  147.2977  138.4878  153.2379 C   0  0  2  0  0  0  0  0  0  0  0  0
  147.2260  139.9198  153.7970 C   0  0  0  0  0  0  0  0  0  0  0  0
  148.2423  140.7160  153.2259 O   0  0  0  0  0  0  0  0  0  0  0  0
  146.8199  138.3186  151.7891 C   0  0  2  0  0  0  0  0  0  0  0  0
  145.6826  139.1260  151.5301 O   0  0  0  0  0  0  0  0  0  0  0  0
  146.5075  136.8269  151.7236 C   0  0  2  0  0  0  0  0  0  0  0  0
  145.5160  136.5057  150.7621 O   0  0  0  0  0  0  0  0  0  0  0  0
  143.7047  137.0784  153.1988 C   0  0  0  0  0  0  0  0  0  0  0  0
  142.3895  136.7967  153.3496 C   0  0  0  0  0  0  0  0  0  0  0  0
  141.1241  138.2888  153.0395 Br  0  0  0  0  0  0  0  0  0  0  0  0
  142.7269  133.5911  154.1353 H   0  0  0  0  0  0  0  0  0  0  0  0
  146.7477  135.6494  153.5763 H   0  0  0  0  0  0  0  0  0  0  0  0
  148.3208  138.1111  153.3007 H   0  0  0  0  0  0  0  0  0  0  0  0
  146.2707  140.3768  153.5375 H   0  0  0  0  0  0  0  0  0  0  0  0
  147.3057  139.9270  154.8845 H   0  0  0  0  0  0  0  0  0  0  0  0
  148.5197  140.3139  152.4168 H   0  0  0  0  0  0  0  0  0  0  0  0
  147.5975  138.5952  151.0764 H   0  0  0  0  0  0  0  0  0  0  0  0
  145.1248  138.6678  150.9199 H   0  0  0  0  0  0  0  0  0  0  0  0
  147.4198  136.2840  151.4730 H   0  0  0  0  0  0  0  0  0  0  0  0
  145.1374  137.3131  150.4485 H   0  0  0  0  0  0  0  0  0  0  0  0
  143.9773  138.0858  152.9211 H   0  0  0  0  0  0  0  0  0  0  0  0
  1  2  2  0  0  0  0
  2 17  1  0  0  0  0
  2  3  1  0  0  0  0
  3 19  1  0  0  0  0
  3  4  1  0  0  0  0
  4  5  2  0  0  0  0
  4  6  1  0  0  0  0
  6  7  1  0  0  0  0
  6 16  1  0  0  0  0
  7 14  1  0  0  0  0
  7  8  1  0  0  0  0
  7 20  1  0  0  0  0
  8  9  1  0  0  0  0
  9 10  1  0  0  0  0
  9 12  1  0  0  0  0
  9 21  1  0  0  0  0
 10 11  1  0  0  0  0
 10 22  1  0  0  0  0
 10 23  1  0  0  0  0
 11 24  1  0  0  0  0
 12 13  1  0  0  0  0
 12 14  1  0  0  0  0
 12 25  1  0  0  0  0
 13 26  1  0  0  0  0
 14 15  1  0  0  0  0
 14 27  1  0  0  0  0
 15 28  1  0  0  0  0
 16 17  2  0  0  0  0
 16 29  1  0  0  0  0
 17 18  1  0  0  0  0
M  END
> <s_m_source_file>
AV-unprocessed.smi

> <i_m_source_file_index>
35

> <i_lp_mmshare_version>
43012

> <i_f3d_flags>
0

> <s_epik_input>
Tz1jMVtuSF1jKD1PKW4oW2NIXWMxQnIpW0NAQEhdMk9bQ0BASF0oW0NIMl1bT0hdKVtDQEBIXShbT0hdKVtDQEhdMltPSF0=

> <s_epik_cmdline>
J2VwaWtfcHl0aG9uJywgJy1waCcsICc3LjAnLCAnLXRuJywgJzgnLCAnLW1hJywgJzIwMCcsICctbWV0YWxfYmluZGluZycsICctaW1hZScsICc8aW5maWxlLm1hZT4nLCAnLW9tYWUnLCAnPG91dGZpbGUubWFlPic=

> <r_lp_tautomer_probability>
0.999537

> <r_epik_Ionization_Penalty>
0.10812

> <r_epik_Ionization_Penalty_Charging>
0.108119

> <r_epik_Ionization_Penalty_Neutral>
4.93006e-07

> <r_epik_State_Penalty>
0.0979238

> <r_epik_Charging_Adjusted_Penalty>
0.206043

> <i_epik_Tot_Q>
0

> <i_epik_Tot_abs_Q>
0

> <r_epik_Metal_State_Penalty>
3.07911

> <b_epik_Metal_Only>
0

> <s_epik_Chemistry_Notes>
This compound contains an acetal/aminal-like group ( X-CH(R)-Y where X, Y are N, S, or O) that may be acid/base labile, releasing an aldehyde.

> <s_lp_Force_Field>
OPLS_2005

> <r_lp_Energy>
38.5572

> <b_lp_Chiralities_Consistent>
1

> <s_lp_Variant>
AV-unprocessed.smi:35-15

> <Gold.Version>
5.8.1

> <Gold.Id.Protein>
6NUR|6NUR_protein|mol2

> <Gold.PLP.Fitness>
40.0379

> <Gold.PLP.PLP>
-22.3725

> <Gold.PLP.part.hbond>
-6.0491

> <Gold.PLP.part.metal>
0.0000

> <Gold.PLP.part.buried>
3.7392

> <Gold.PLP.part.nonpolar>
-19.9744

> <Gold.PLP.part.repulsive>
0.4107

> <Gold.PLP.ligand.clash>
0.0000

> <Gold.PLP.ligand.torsion>
0.1771

> <Gold.PLP.Chemscore.Hbond>
5.0000

> <Gold.PLP.Chemscore.CHOScore>
1.0000

> <Gold.PLP.Chemscore.Metal>
0.0000

> <Gold.Chemscore.Hbonds>
donor molecule, donor type, donor heavy atom, donor atom, acceptor molecule, acceptor atom, score
      L1  H     3    19       P1 10957  1.00
      L1  H    11    24       P1  7957  1.00
      L1  H    13    26       P1 10171  1.00
      L1  H    15    28       P1 10171  1.00
      P1  H 11000 11005       L1     1  0.93
      L1  C    16    29       P1 10175  1.00

> <Gold.PLP.Chemscore.Internal.Correction>
0.0196

> <Gold.Rescore>
     Score         DG    S(hbond)    S(metal)    S(lipo)     H(rot)  DE(clash)    DE(int)     intcor
     15.37     -17.56       4.95        0.00      42.16       3.67       1.97       0.22       ----

> <Gold.Chemscore.Fitness>
15.3687

> <Gold.Chemscore.DG>
-17.5615

> <Gold.Chemscore.ZeroCoef>
-5.4800

> <Gold.Chemscore.Hbond>
4.9534

> <Gold.Chemscore.Metal>
0.0000

> <Gold.Chemscore.Lipo>
42.1581

> <Gold.Chemscore.Internal_Hbond>
0.0000

> <Gold.Chemscore.DEClash>
1.9687

> <Gold.Chemscore.DEInternal>
0.2241

> <Gold.Chemscore.Rot>
3.6701

> <Gold.Chemscore.Internal.Correction>
   9.000000E+99

> <Gold.Chemscore.Hbonds>
donor molecule, donor type, donor heavy atom, donor atom, acceptor molecule, acceptor atom, score
      L1  H     3    19       P1 10957  0.99
      L1  H    11    24       P1  7957  0.97
      L1  H    13    26       P1 10171  0.96
      L1  H    15    28       P1 10171  1.00
      P1  H 11000 11005       L1     1  0.82

> <Gold.Chemscore.Hbond.Weighted>
-16.5445

> <Gold.Chemscore.Metal.Weighted>
-0.0000

> <Gold.Chemscore.Lipo.Weighted>
-4.9325

> <Gold.Chemscore.Internal_Hbond.Weighted>
0.0000

> <Gold.Chemscore.DEClash.Weighted>
1.9687

> <Gold.Chemscore.DEInternal.Weighted>
0.2241

> <Gold.Chemscore.Rot.Weighted>
9.3955

> <Gold.Chemscore.Internal.Correction.Weighted>
   9.000000E+99

> <Gold.Protein.RotatedTorsions>
[ 6907 6896 6895 6894 ] final  -17.18 input  -60.11 | X-H torsion
[ 7974 7965 7964 7962 ] final  104.53 input  175.53 | X-H torsion
[ 8008 7997 7996 7995 ] final  160.58 input   59.86 | X-H torsion
[ 10167 10162 10161 10158 ] final  -75.36 input  -65.29 | X-H torsion
[ 10718 10713 10712 10709 ] final  -14.27 input   66.30 | X-H torsion
[ 10763 10752 10751 10750 ] final   97.74 input  -60.55 | X-H torsion
[ 11005 11000 10999 10996 ] final   31.07 input  -57.11 | X-H torsion

> <Gold.Protein.ActiveResidues>
 VAL166  LYS551  ARG553  GLY616  TRP617  ASP618  TYR619  PRO620  LYS621  CYS622 
 ASP623  PHE694  ASN695  SER759  ASP760  ASP761  ALA762  ILE779  LEU786  VAL792 
 PHE793  MET794  SER795  GLU796  ALA797  LYS798  CYS799  TRP800  GLU811  SER814 

> <Gold.Protein.RotatedAtoms>
  151.2973  135.0759  159.9225 H   0  0  0  0  0  0  0  0  0  0  0  0  # atno 6907 bound_to 6896
  152.5304  133.9870  159.7843 H   0  0  0  0  0  0  0  0  0  0  0  0  # atno 6908 bound_to 6896
  151.0150  133.5878  159.2708 H   0  0  0  0  0  0  0  0  0  0  0  0  # atno 6909 bound_to 6896
  145.3316  139.2485  143.3658 H   0  0  0  0  0  0  0  0  0  0  0  0  # atno 7974 bound_to 7965
  156.2162  140.1800  156.7583 H   0  0  0  0  0  0  0  0  0  0  0  0  # atno 8008 bound_to 7997
  154.5796  140.0668  156.9113 H   0  0  0  0  0  0  0  0  0  0  0  0  # atno 8009 bound_to 7997
  155.2527  140.3330  155.4283 H   0  0  0  0  0  0  0  0  0  0  0  0  # atno 8010 bound_to 7997
  140.4949  143.2372  151.7847 H   0  0  0  0  0  0  0  0  0  0  0  0  # atno 10167 bound_to 10162
  156.6183  130.4868  149.6174 H   0  0  0  0  0  0  0  0  0  0  0  0  # atno 10718 bound_to 10713
  153.2806  135.4173  155.1074 H   0  0  0  0  0  0  0  0  0  0  0  0  # atno 10763 bound_to 10752
  154.8488  135.3494  154.6118 H   0  0  0  0  0  0  0  0  0  0  0  0  # atno 10764 bound_to 10752
  153.6539  135.7051  153.5257 H   0  0  0  0  0  0  0  0  0  0  0  0  # atno 10765 bound_to 10752
  140.2877  134.2899  155.7784 H   0  0  0  0  0  0  0  0  0  0  0  0  # atno 11005 bound_to 11000
  146.3043  140.3894  142.8693 LP  0  0  0  0  0  0  0  0  0  0  0  0  # atno 17320 bound_to 7965
  144.8860  140.7462  143.5957 LP  0  0  0  0  0  0  0  0  0  0  0  0  # atno 17321 bound_to 7965
  139.4859  144.4600  151.9553 LP  0  0  0  0  0  0  0  0  0  0  0  0  # atno 17342 bound_to 10162
  140.3687  144.2882  150.5923 LP  0  0  0  0  0  0  0  0  0  0  0  0  # atno 17343 bound_to 10162
  156.2332  130.6807  151.1484 LP  0  0  0  0  0  0  0  0  0  0  0  0  # atno 17370 bound_to 10713
  157.7235  131.0666  150.6035 LP  0  0  0  0  0  0  0  0  0  0  0  0  # atno 17371 bound_to 10713
  141.2152  133.7565  156.9578 LP  0  0  0  0  0  0  0  0  0  0  0  0  # atno 17394 bound_to 11000
  140.1224  134.9408  157.2222 LP  0  0  0  0  0  0  0  0  0  0  0  0  # atno 17395 bound_to 11000

$$$$
