AV-unprocessed.smi:3336|AV-procd|sdf|12857|dock5
  -GOLD-   2272019253D 1   1.00000     0.00000
 Structure written by MMmdl.
 41 42  0  0  0  0  0  0  0  0  1 V2000
  145.9354  137.2236  153.7046 C   0  0  0  0  0  0  0  0  0  0  0  0
  146.2439  138.0861  152.4700 C   0  0  2  0  0  0  0  0  0  0  0  0
  146.1615  137.2821  151.1469 C   0  0  0  0  0  0  0  0  0  0  0  0
  145.4889  135.9984  151.2715 N   0  0  0  0  0  0  0  0  0  0  0  0
  146.0498  134.7444  151.3981 C   0  0  0  0  0  0  0  0  0  0  0  0
  145.0250  133.8470  151.4907 C   0  0  0  0  0  0  0  0  0  0  0  0
  143.8582  134.6578  151.4155 C   0  0  0  0  0  0  0  0  0  0  0  0
  144.1388  135.9445  151.2900 N   0  0  0  0  0  0  0  0  0  0  0  0
  147.5574  138.6985  152.6910 N   0  0  0  0  0  0  0  0  0  0  0  0
  147.6999  139.5699  153.8769 C   0  0  2  0  0  0  0  0  0  0  0  0
  146.8168  140.8147  153.6966 C   0  0  0  0  0  0  0  0  0  0  0  0
  149.1577  139.9943  154.1726 C   0  0  0  0  0  0  0  0  0  0  0  0
  149.5461  141.0761  153.7268 O   0  0  0  0  0  0  0  0  0  0  0  0
  149.9710  139.1938  154.9074 N   0  0  0  0  0  0  0  0  0  0  0  0
  149.5158  137.9277  155.4932 C   0  0  0  0  0  0  0  0  0  0  0  0
  150.2925  136.7726  154.8386 C   0  0  0  0  0  0  0  0  0  0  0  0
  151.6890  136.9643  155.0430 O   0  0  0  0  0  0  0  0  0  0  0  0
  152.1638  138.1954  154.5062 C   0  0  0  0  0  0  0  0  0  0  0  0
  151.4085  139.3741  155.1475 C   0  0  0  0  0  0  0  0  0  0  0  0
  144.9698  136.7276  153.6029 H   0  0  0  0  0  0  0  0  0  0  0  0
  145.8947  137.8327  154.6083 H   0  0  0  0  0  0  0  0  0  0  0  0
  146.6905  136.4529  153.8619 H   0  0  0  0  0  0  0  0  0  0  0  0
  145.4818  138.8638  152.4355 H   0  0  0  0  0  0  0  0  0  0  0  0
  145.6144  137.8693  150.4086 H   0  0  0  0  0  0  0  0  0  0  0  0
  147.1484  137.1259  150.7109 H   0  0  0  0  0  0  0  0  0  0  0  0
  147.1199  134.5977  151.4088 H   0  0  0  0  0  0  0  0  0  0  0  0
  145.0975  132.7747  151.5969 H   0  0  0  0  0  0  0  0  0  0  0  0
  142.8227  134.3522  151.4506 H   0  0  0  0  0  0  0  0  0  0  0  0
  148.2651  137.9778  152.6857 H   0  0  0  0  0  0  0  0  0  0  0  0
  147.3053  139.0072  154.7178 H   0  0  0  0  0  0  0  0  0  0  0  0
  146.8533  141.4643  154.5714 H   0  0  0  0  0  0  0  0  0  0  0  0
  145.7739  140.5331  153.5469 H   0  0  0  0  0  0  0  0  0  0  0  0
  147.1278  141.4040  152.8329 H   0  0  0  0  0  0  0  0  0  0  0  0
  149.7009  137.9419  156.5684 H   0  0  0  0  0  0  0  0  0  0  0  0
  148.4443  137.7608  155.3770 H   0  0  0  0  0  0  0  0  0  0  0  0
  149.9986  135.8209  155.2810 H   0  0  0  0  0  0  0  0  0  0  0  0
  150.0740  136.7113  153.7712 H   0  0  0  0  0  0  0  0  0  0  0  0
  153.2320  138.2785  154.7064 H   0  0  0  0  0  0  0  0  0  0  0  0
  152.0409  138.2002  153.4219 H   0  0  0  0  0  0  0  0  0  0  0  0
  151.8220  140.2977  154.7520 H   0  0  0  0  0  0  0  0  0  0  0  0
  151.5927  139.3990  156.2224 H   0  0  0  0  0  0  0  0  0  0  0  0
  1  2  1  0  0  0  0
  1 20  1  0  0  0  0
  1 21  1  0  0  0  0
  1 22  1  0  0  0  0
  2  3  1  0  0  0  0
  2  9  1  0  0  0  0
  2 23  1  0  0  0  0
  3  4  1  0  0  0  0
  3 24  1  0  0  0  0
  3 25  1  0  0  0  0
  4  8  1  0  0  0  0
  4  5  1  0  0  0  0
  5  6  2  0  0  0  0
  5 26  1  0  0  0  0
  6  7  1  0  0  0  0
  6 27  1  0  0  0  0
  7  8  2  0  0  0  0
  7 28  1  0  0  0  0
  9 10  1  0  0  0  0
  9 29  1  0  0  0  0
 10 11  1  0  0  0  0
 10 12  1  0  0  0  0
 10 30  1  0  0  0  0
 11 31  1  0  0  0  0
 11 32  1  0  0  0  0
 11 33  1  0  0  0  0
 12 13  2  0  0  0  0
 12 14  1  0  0  0  0
 14 19  1  0  0  0  0
 14 15  1  0  0  0  0
 15 16  1  0  0  0  0
 15 34  1  0  0  0  0
 15 35  1  0  0  0  0
 16 17  1  0  0  0  0
 16 36  1  0  0  0  0
 16 37  1  0  0  0  0
 17 18  1  0  0  0  0
 18 19  1  0  0  0  0
 18 38  1  0  0  0  0
 18 39  1  0  0  0  0
 19 40  1  0  0  0  0
 19 41  1  0  0  0  0
M  END
> <s_m_source_file>
AV-unprocessed.smi

> <i_m_source_file_index>
3336

> <i_lp_mmshare_version>
43012

> <i_f3d_flags>
0

> <s_epik_input>
bjFbY0hdW2NIXVtjSF1uMVtDSDJdW0NAQEhdKFtDSDNdKVtOSF1bQ0BIXShbQ0gzXSlDKD1PKU4yW0NIMl1bQ0gyXU9bQ0gyXVtDSDJdMg==

> <s_epik_cmdline>
J2VwaWtfcHl0aG9uJywgJy1waCcsICc3LjAnLCAnLXRuJywgJzgnLCAnLW1hJywgJzIwMCcsICctbWV0YWxfYmluZGluZycsICctaW1hZScsICc8aW5maWxlLm1hZT4nLCAnLW9tYWUnLCAnPG91dGZpbGUubWFlPic=

> <r_lp_tautomer_probability>
1

> <r_epik_Ionization_Penalty>
0.739958

> <r_epik_Ionization_Penalty_Charging>
0

> <r_epik_Ionization_Penalty_Neutral>
0.739958

> <r_epik_State_Penalty>
0.765967

> <r_epik_Charging_Adjusted_Penalty>
0.765967

> <i_epik_Tot_Q>
0

> <i_epik_Tot_abs_Q>
0

> <r_epik_Metal_State_Penalty>
0.765947

> <b_epik_Metal_Only>
0

> <s_lp_Force_Field>
OPLS_2005

> <r_lp_Energy>
28.3859

> <b_lp_Chiralities_Consistent>
1

> <s_lp_Variant>
AV-unprocessed.smi:3336-5

> <Gold.Version>
5.8.1

> <Gold.Id.Protein>
6NUR|6NUR_protein|mol2

> <Gold.PLP.Fitness>
44.4670

> <Gold.PLP.PLP>
-32.2579

> <Gold.PLP.part.hbond>
-5.0000

> <Gold.PLP.part.metal>
0.0000

> <Gold.PLP.part.buried>
1.2179

> <Gold.PLP.part.nonpolar>
-31.0080

> <Gold.PLP.part.repulsive>
3.4909

> <Gold.PLP.ligand.clash>
0.0000

> <Gold.PLP.ligand.torsion>
1.6896

> <Gold.PLP.Chemscore.Hbond>
3.1606

> <Gold.PLP.Chemscore.CHOScore>
1.9971

> <Gold.PLP.Chemscore.Metal>
0.0000

> <Gold.Chemscore.Hbonds>
donor molecule, donor type, donor heavy atom, donor atom, acceptor molecule, acceptor atom, score
      L1  H     9    29       P1  7948  0.96
      P1  H  7989  7998       L1    13  0.29
      P1  H  8011  8017       L1    13  0.96
      P1  H 10752 10764       L1    17  1.00
      L1  C     5    26       P1  7948  1.00
      L1  C     7    28       P1 10186  0.59

> <Gold.PLP.Chemscore.Internal.Correction>
0.1149

> <Gold.Rescore>
     Score         DG    S(hbond)    S(metal)    S(lipo)     H(rot)  DE(clash)    DE(int)     intcor
     14.42     -19.26       2.98        0.00      72.04       1.79       3.30       1.54       ----

> <Gold.Chemscore.Fitness>
14.4240

> <Gold.Chemscore.DG>
-19.2607

> <Gold.Chemscore.ZeroCoef>
-5.4800

> <Gold.Chemscore.Hbond>
2.9771

> <Gold.Chemscore.Metal>
0.0000

> <Gold.Chemscore.Lipo>
72.0373

> <Gold.Chemscore.Internal_Hbond>
0.0000

> <Gold.Chemscore.DEClash>
3.2954

> <Gold.Chemscore.DEInternal>
1.5413

> <Gold.Chemscore.Rot>
1.7935

> <Gold.Chemscore.Internal.Correction>
   9.000000E+99

> <Gold.Chemscore.Hbonds>
donor molecule, donor type, donor heavy atom, donor atom, acceptor molecule, acceptor atom, score
      L1  H     9    29       P1  7948  0.86
      P1  H  7989  7998       L1    13  0.17
      P1  H  8011  8017       L1    13  0.91
      P1  H 10752 10764       L1    17  0.68

> <Gold.Chemscore.Hbond.Weighted>
-9.9436

> <Gold.Chemscore.Metal.Weighted>
-0.0000

> <Gold.Chemscore.Lipo.Weighted>
-8.4284

> <Gold.Chemscore.Internal_Hbond.Weighted>
0.0000

> <Gold.Chemscore.DEClash.Weighted>
3.2954

> <Gold.Chemscore.DEInternal.Weighted>
1.5413

> <Gold.Chemscore.Rot.Weighted>
4.5912

> <Gold.Chemscore.Internal.Correction.Weighted>
   9.000000E+99

> <Gold.Protein.RotatedTorsions>
[ 6907 6896 6895 6894 ] final    6.89 input  -60.11 | X-H torsion
[ 7974 7965 7964 7962 ] final   19.91 input  175.53 | X-H torsion
[ 8008 7997 7996 7995 ] final -106.53 input   59.86 | X-H torsion
[ 10167 10162 10161 10158 ] final -160.77 input  -65.29 | X-H torsion
[ 10718 10713 10712 10709 ] final  -23.01 input   66.30 | X-H torsion
[ 10763 10752 10751 10750 ] final  -53.26 input  -60.55 | X-H torsion
[ 11005 11000 10999 10996 ] final  -30.61 input  -57.11 | X-H torsion

> <Gold.Protein.ActiveResidues>
 VAL166  LYS551  ARG553  GLY616  TRP617  ASP618  TYR619  PRO620  LYS621  CYS622 
 ASP623  PHE694  ASN695  SER759  ASP760  ASP761  ALA762  ILE779  LEU786  VAL792 
 PHE793  MET794  SER795  GLU796  ALA797  LYS798  CYS799  TRP800  GLU811  SER814 

> <Gold.Protein.RotatedAtoms>
  151.6810  135.0962  160.0215 H   0  0  0  0  0  0  0  0  0  0  0  0  # atno 6907 bound_to 6896
  152.3835  133.6575  159.6189 H   0  0  0  0  0  0  0  0  0  0  0  0  # atno 6908 bound_to 6896
  150.7766  133.8990  159.3377 H   0  0  0  0  0  0  0  0  0  0  0  0  # atno 6909 bound_to 6896
  146.2132  139.8246  142.8673 H   0  0  0  0  0  0  0  0  0  0  0  0  # atno 7974 bound_to 7965
  154.9158  140.0408  157.1971 H   0  0  0  0  0  0  0  0  0  0  0  0  # atno 8008 bound_to 7997
  154.8302  140.2898  155.5706 H   0  0  0  0  0  0  0  0  0  0  0  0  # atno 8009 bound_to 7997
  156.2986  140.2502  156.3226 H   0  0  0  0  0  0  0  0  0  0  0  0  # atno 8010 bound_to 7997
  139.6515  144.0076  152.2164 H   0  0  0  0  0  0  0  0  0  0  0  0  # atno 10167 bound_to 10162
  156.4968  130.4579  149.6724 H   0  0  0  0  0  0  0  0  0  0  0  0  # atno 10718 bound_to 10713
  154.1560  135.6482  153.4974 H   0  0  0  0  0  0  0  0  0  0  0  0  # atno 10763 bound_to 10752
  153.0124  135.5349  154.6759 H   0  0  0  0  0  0  0  0  0  0  0  0  # atno 10764 bound_to 10752
  154.6060  135.2949  155.0455 H   0  0  0  0  0  0  0  0  0  0  0  0  # atno 10765 bound_to 10752
  140.9397  133.7286  156.1058 H   0  0  0  0  0  0  0  0  0  0  0  0  # atno 11005 bound_to 11000
  145.3061  141.0207  143.3581 LP  0  0  0  0  0  0  0  0  0  0  0  0  # atno 17320 bound_to 7965
  144.8970  139.4699  143.6650 LP  0  0  0  0  0  0  0  0  0  0  0  0  # atno 17321 bound_to 7965
  139.9791  144.6441  150.7917 LP  0  0  0  0  0  0  0  0  0  0  0  0  # atno 17342 bound_to 10162
  140.7540  143.3018  151.3061 LP  0  0  0  0  0  0  0  0  0  0  0  0  # atno 17343 bound_to 10162
  156.3372  130.7363  151.2302 LP  0  0  0  0  0  0  0  0  0  0  0  0  # atno 17370 bound_to 10713
  157.7467  131.0413  150.4642 LP  0  0  0  0  0  0  0  0  0  0  0  0  # atno 17371 bound_to 10713
  140.7750  134.3789  157.5499 LP  0  0  0  0  0  0  0  0  0  0  0  0  # atno 17394 bound_to 11000
  139.8817  134.9046  156.2881 LP  0  0  0  0  0  0  0  0  0  0  0  0  # atno 17395 bound_to 11000

$$$$
