AV-unprocessed.smi:1844|AV-procd|sdf|7509|dock7
  -GOLD-   22720 9213D 1   1.00000     0.00000
 Structure written by MMmdl.
 45 46  0  0  0  0  0  0  0  0  1 V2000
  149.5938  132.8773  156.4307 C   0  0  0  0  0  0  0  0  0  0  0  0
  149.8596  134.2573  156.0538 N   0  0  0  0  0  0  0  0  0  0  0  0
  149.8194  135.2989  156.9010 C   0  0  0  0  0  0  0  0  0  0  0  0
  149.5452  135.1528  158.0933 O   0  0  0  0  0  0  0  0  0  0  0  0
  150.1247  136.5862  156.2718 C   0  0  0  0  0  0  0  0  0  0  0  0
  150.4195  136.7302  154.8540 C   0  0  0  0  0  0  0  0  0  0  0  0
  150.6664  137.9446  154.3251 C   0  0  0  0  0  0  0  0  0  0  0  0
  150.6490  139.1610  155.1423 C   0  0  0  0  0  0  0  0  0  0  0  0
  150.8452  140.2757  154.6585 O   0  0  0  0  0  0  0  0  0  0  0  0
  150.3876  138.9790  156.4725 N   0  0  0  0  0  0  0  0  0  0  0  0
  150.3053  140.1293  157.3925 C   0  0  0  0  0  0  0  0  0  0  0  0
  151.6362  140.8755  157.5924 C   0  0  0  0  0  0  0  0  0  0  0  0
  152.6622  140.4276  157.0823 O   0  0  0  0  0  0  0  0  0  0  0  0
  151.6145  142.0020  158.3233 N   0  0  0  0  0  0  0  0  0  0  0  0
  152.7485  142.8703  158.6258 C   0  0  1  0  0  0  0  0  0  0  0  0
  152.4628  144.3172  158.1687 C   0  0  0  0  0  0  0  0  0  0  0  0
  151.3557  144.9797  159.0073 C   0  0  0  0  0  0  0  0  0  0  0  0
  151.6920  144.9319  160.5053 C   0  0  0  0  0  0  0  0  0  0  0  0
  151.9646  143.4935  160.9742 C   0  0  0  0  0  0  0  0  0  0  0  0
  153.0765  142.8227  160.1391 C   0  0  1  0  0  0  0  0  0  0  0  0
  153.3717  141.3979  160.6404 C   0  0  0  0  0  0  0  0  0  0  0  0
  150.1259  137.7073  157.0190 C   0  0  0  0  0  0  0  0  0  0  0  0
  149.6995  132.2284  155.5613 H   0  0  0  0  0  0  0  0  0  0  0  0
  148.5792  132.7684  156.8164 H   0  0  0  0  0  0  0  0  0  0  0  0
  150.2954  132.5410  157.1949 H   0  0  0  0  0  0  0  0  0  0  0  0
  150.0889  134.4348  155.0868 H   0  0  0  0  0  0  0  0  0  0  0  0
  150.4490  135.8739  154.1963 H   0  0  0  0  0  0  0  0  0  0  0  0
  150.8828  138.0262  153.2700 H   0  0  0  0  0  0  0  0  0  0  0  0
  149.5678  140.8456  157.0273 H   0  0  0  0  0  0  0  0  0  0  0  0
  149.9323  139.8156  158.3689 H   0  0  0  0  0  0  0  0  0  0  0  0
  150.7240  142.2886  158.7035 H   0  0  0  0  0  0  0  0  0  0  0  0
  153.6178  142.5005  158.0789 H   0  0  0  0  0  0  0  0  0  0  0  0
  153.3766  144.9063  158.2555 H   0  0  0  0  0  0  0  0  0  0  0  0
  152.1921  144.3372  157.1124 H   0  0  0  0  0  0  0  0  0  0  0  0
  151.2203  146.0143  158.6907 H   0  0  0  0  0  0  0  0  0  0  0  0
  150.4039  144.4774  158.8282 H   0  0  0  0  0  0  0  0  0  0  0  0
  152.5681  145.5512  160.7017 H   0  0  0  0  0  0  0  0  0  0  0  0
  150.8737  145.3626  161.0832 H   0  0  0  0  0  0  0  0  0  0  0  0
  152.2466  143.5038  162.0276 H   0  0  0  0  0  0  0  0  0  0  0  0
  151.0451  142.9097  160.9106 H   0  0  0  0  0  0  0  0  0  0  0  0
  153.9883  143.4032  160.2875 H   0  0  0  0  0  0  0  0  0  0  0  0
  152.4914  140.7565  160.5825 H   0  0  0  0  0  0  0  0  0  0  0  0
  153.6991  141.4108  161.6801 H   0  0  0  0  0  0  0  0  0  0  0  0
  154.1631  140.9322  160.0527 H   0  0  0  0  0  0  0  0  0  0  0  0
  149.9096  137.7163  158.0785 H   0  0  0  0  0  0  0  0  0  0  0  0
  1  2  1  0  0  0  0
  1 23  1  0  0  0  0
  1 24  1  0  0  0  0
  1 25  1  0  0  0  0
  2  3  1  0  0  0  0
  2 26  1  0  0  0  0
  3  4  2  0  0  0  0
  3  5  1  0  0  0  0
  5 22  2  0  0  0  0
  5  6  1  0  0  0  0
  6  7  2  0  0  0  0
  6 27  1  0  0  0  0
  7  8  1  0  0  0  0
  7 28  1  0  0  0  0
  8  9  2  0  0  0  0
  8 10  1  0  0  0  0
 10 11  1  0  0  0  0
 10 22  1  0  0  0  0
 11 12  1  0  0  0  0
 11 29  1  0  0  0  0
 11 30  1  0  0  0  0
 12 13  2  0  0  0  0
 12 14  1  0  0  0  0
 14 15  1  0  0  0  0
 14 31  1  0  0  0  0
 15 20  1  0  0  0  0
 15 16  1  0  0  0  0
 15 32  1  0  0  0  0
 16 17  1  0  0  0  0
 16 33  1  0  0  0  0
 16 34  1  0  0  0  0
 17 18  1  0  0  0  0
 17 35  1  0  0  0  0
 17 36  1  0  0  0  0
 18 19  1  0  0  0  0
 18 37  1  0  0  0  0
 18 38  1  0  0  0  0
 19 20  1  0  0  0  0
 19 39  1  0  0  0  0
 19 40  1  0  0  0  0
 20 21  1  0  0  0  0
 20 41  1  0  0  0  0
 21 42  1  0  0  0  0
 21 43  1  0  0  0  0
 21 44  1  0  0  0  0
 22 45  1  0  0  0  0
M  END
> <s_m_source_file>
AV-unprocessed.smi

> <i_m_source_file_index>
1844

> <i_lp_mmshare_version>
43012

> <i_f3d_flags>
0

> <s_epik_input>
W0NIM11bTkhdQyg9TyljMVtjSF1bY0hdYyg9TyluKFtjSF0xKVtDSDJdQyg9TylbTkhdW0NAQEhdMltDSDJdW0NIMl1bQ0gyXVtDSDJdW0NASF0yW0NIM10=

> <s_epik_cmdline>
J2VwaWtfcHl0aG9uJywgJy1waCcsICc3LjAnLCAnLXRuJywgJzgnLCAnLW1hJywgJzIwMCcsICctbWV0YWxfYmluZGluZycsICctaW1hZScsICc8aW5maWxlLm1hZT4nLCAnLW9tYWUnLCAnPG91dGZpbGUubWFlPic=

> <r_lp_tautomer_probability>
1

> <r_epik_Ionization_Penalty>
3.66612e-07

> <r_epik_Ionization_Penalty_Charging>
5.18929e-08

> <r_epik_Ionization_Penalty_Neutral>
3.14719e-07

> <r_epik_State_Penalty>
-0

> <r_epik_Charging_Adjusted_Penalty>
5.18929e-08

> <i_epik_Tot_Q>
0

> <i_epik_Tot_abs_Q>
0

> <r_epik_Metal_State_Penalty>
-0

> <b_epik_Metal_Only>
0

> <s_lp_Force_Field>
OPLS_2005

> <r_lp_Energy>
21.2081

> <b_lp_Chiralities_Consistent>
1

> <s_lp_Variant>
AV-unprocessed.smi:1844-2

> <Gold.Version>
5.8.1

> <Gold.Id.Protein>
6NUR|6NUR_protein|mol2

> <Gold.PLP.Fitness>
49.5991

> <Gold.PLP.PLP>
-40.9788

> <Gold.PLP.part.hbond>
-3.0000

> <Gold.PLP.part.metal>
0.0000

> <Gold.PLP.part.buried>
-3.3131

> <Gold.PLP.part.nonpolar>
-34.4552

> <Gold.PLP.part.repulsive>
0.2237

> <Gold.PLP.ligand.clash>
0.0000

> <Gold.PLP.ligand.torsion>
0.0876

> <Gold.PLP.Chemscore.Hbond>
2.9280

> <Gold.PLP.Chemscore.CHOScore>
0.0000

> <Gold.PLP.Chemscore.Metal>
0.0000

> <Gold.Chemscore.Hbonds>
donor molecule, donor type, donor heavy atom, donor atom, acceptor molecule, acceptor atom, score
      P1  H  6896  6908       L1     4  1.00
      P1  H  7989  7998       L1     9  0.98
      P1  H  7997  8008       L1    13  0.91

> <Gold.PLP.Chemscore.Internal.Correction>
0.0115

> <Gold.Rescore>
     Score         DG    S(hbond)    S(metal)    S(lipo)     H(rot)  DE(clash)    DE(int)     intcor
     23.48     -23.91       2.86        0.00     108.44       1.49       0.32       0.12       ----

> <Gold.Chemscore.Fitness>
23.4767

> <Gold.Chemscore.DG>
-23.9127

> <Gold.Chemscore.ZeroCoef>
-5.4800

> <Gold.Chemscore.Hbond>
2.8640

> <Gold.Chemscore.Metal>
0.0000

> <Gold.Chemscore.Lipo>
108.4386

> <Gold.Chemscore.Internal_Hbond>
0.0000

> <Gold.Chemscore.DEClash>
0.3195

> <Gold.Chemscore.DEInternal>
0.1164

> <Gold.Chemscore.Rot>
1.4923

> <Gold.Chemscore.Internal.Correction>
   9.000000E+99

> <Gold.Chemscore.Hbonds>
donor molecule, donor type, donor heavy atom, donor atom, acceptor molecule, acceptor atom, score
      P1  H  6896  6908       L1     4  0.99
      P1  H  7989  7998       L1     9  0.92
      P1  H  7997  8008       L1    13  0.88

> <Gold.Chemscore.Hbond.Weighted>
-9.5657

> <Gold.Chemscore.Metal.Weighted>
-0.0000

> <Gold.Chemscore.Lipo.Weighted>
-12.6873

> <Gold.Chemscore.Internal_Hbond.Weighted>
0.0000

> <Gold.Chemscore.DEClash.Weighted>
0.3195

> <Gold.Chemscore.DEInternal.Weighted>
0.1164

> <Gold.Chemscore.Rot.Weighted>
3.8204

> <Gold.Chemscore.Internal.Correction.Weighted>
   9.000000E+99

> <Gold.Protein.RotatedTorsions>
[ 6907 6896 6895 6894 ] final  154.67 input  -60.11 | X-H torsion
[ 7974 7965 7964 7962 ] final  -49.34 input  175.53 | X-H torsion
[ 8008 7997 7996 7995 ] final  -55.76 input   59.86 | X-H torsion
[ 10167 10162 10161 10158 ] final -108.36 input  -65.29 | X-H torsion
[ 10718 10713 10712 10709 ] final -122.05 input   66.30 | X-H torsion
[ 10763 10752 10751 10750 ] final  106.13 input  -60.55 | X-H torsion
[ 11005 11000 10999 10996 ] final  -23.99 input  -57.11 | X-H torsion

> <Gold.Protein.ActiveResidues>
 VAL166  LYS551  ARG553  GLY616  TRP617  ASP618  TYR619  PRO620  LYS621  CYS622 
 ASP623  PHE694  ASN695  SER759  ASP760  ASP761  ALA762  ILE779  LEU786  VAL792 
 PHE793  MET794  SER795  GLU796  ALA797  LYS798  CYS799  TRP800  GLU811  SER814 

> <Gold.Protein.RotatedAtoms>
  152.0552  133.4037  159.4393 H   0  0  0  0  0  0  0  0  0  0  0  0  # atno 6907 bound_to 6896
  150.6868  134.3263  159.4817 H   0  0  0  0  0  0  0  0  0  0  0  0  # atno 6908 bound_to 6896
  152.1078  134.9296  160.0618 H   0  0  0  0  0  0  0  0  0  0  0  0  # atno 6909 bound_to 6896
  145.9416  140.7657  142.9549 H   0  0  0  0  0  0  0  0  0  0  0  0  # atno 7974 bound_to 7965
  154.4206  140.1145  156.5529 H   0  0  0  0  0  0  0  0  0  0  0  0  # atno 8008 bound_to 7997
  155.6391  140.3496  155.4690 H   0  0  0  0  0  0  0  0  0  0  0  0  # atno 8009 bound_to 7997
  155.9885  140.1174  157.0650 H   0  0  0  0  0  0  0  0  0  0  0  0  # atno 8010 bound_to 7997
  140.1669  143.4074  152.1383 H   0  0  0  0  0  0  0  0  0  0  0  0  # atno 10167 bound_to 10162
  156.1387  130.6450  150.9737 H   0  0  0  0  0  0  0  0  0  0  0  0  # atno 10718 bound_to 10713
  153.3888  135.3887  155.1908 H   0  0  0  0  0  0  0  0  0  0  0  0  # atno 10763 bound_to 10752
  154.8717  135.3743  154.4764 H   0  0  0  0  0  0  0  0  0  0  0  0  # atno 10764 bound_to 10752
  153.5248  135.7086  153.5774 H   0  0  0  0  0  0  0  0  0  0  0  0  # atno 10765 bound_to 10752
  140.8803  133.7658  156.0294 H   0  0  0  0  0  0  0  0  0  0  0  0  # atno 11005 bound_to 11000
  144.6780  140.2289  143.7357 LP  0  0  0  0  0  0  0  0  0  0  0  0  # atno 17320 bound_to 7965
  145.8292  139.2078  143.1892 LP  0  0  0  0  0  0  0  0  0  0  0  0  # atno 17321 bound_to 7965
  139.5355  144.7205  151.4907 LP  0  0  0  0  0  0  0  0  0  0  0  0  # atno 17342 bound_to 10162
  140.6607  143.8505  150.6884 LP  0  0  0  0  0  0  0  0  0  0  0  0  # atno 17343 bound_to 10162
  157.6556  131.0890  150.7955 LP  0  0  0  0  0  0  0  0  0  0  0  0  # atno 17370 bound_to 10713
  156.8032  130.4928  149.5366 LP  0  0  0  0  0  0  0  0  0  0  0  0  # atno 17371 bound_to 10713
  140.8469  134.3000  157.5291 LP  0  0  0  0  0  0  0  0  0  0  0  0  # atno 17394 bound_to 11000
  139.8719  134.9446  156.3887 LP  0  0  0  0  0  0  0  0  0  0  0  0  # atno 17395 bound_to 11000

$$$$
