AV-unprocessed.smi:2061|AV-procd|sdf|8377|dock3
  -GOLD-   2272011 53D 1   1.00000     0.00000
 Structure written by MMmdl.
 44 45  0  0  0  0  0  0  0  0  2 V2000
  145.5892  144.1717  161.7608 C   0  0  0  0  0  0  0  0  0  0  0  0
  146.0356  143.5149  160.4996 C   0  0  0  0  0  0  0  0  0  0  0  0
  145.3576  143.0049  159.4290 C   0  0  0  0  0  0  0  0  0  0  0  0
  146.3967  142.5320  158.5815 C   0  0  0  0  0  0  0  0  0  0  0  0
  146.2342  141.9200  157.3984 N   0  5  0  0  0  0  0  0  0  0  0  0
  147.2098  141.9716  156.4625 C   0  0  0  0  0  0  0  0  0  0  0  0
  147.0646  142.2521  155.2706 O   0  0  0  0  0  0  0  0  0  0  0  0
  148.4259  141.6676  156.9400 N   0  0  0  0  0  0  0  0  0  0  0  0
  149.6756  141.6211  156.1828 C   0  0  0  0  0  0  0  0  0  0  0  0
  150.8315  140.9344  156.9647 C   0  0  1  0  0  0  0  0  0  0  0  0
  151.7227  140.1538  155.9646 C   0  0  0  0  0  0  0  0  0  0  0  0
  151.6072  141.8734  157.8110 N   0  0  0  0  0  0  0  0  0  0  0  0
  152.4314  141.1826  158.8072 C   0  0  0  0  0  0  0  0  0  0  0  0
  153.2536  142.1473  159.6809 C   0  0  2  0  0  0  0  0  0  0  0  0
  154.0383  141.4083  160.7702 C   0  0  0  0  0  0  0  0  0  0  0  0
  152.3819  143.0736  160.3195 O   0  0  0  0  0  0  0  0  0  0  0  0
  151.5346  143.8009  159.4336 C   0  0  1  0  0  0  0  0  0  0  0  0
  152.3066  144.8824  158.6582 C   0  0  0  0  0  0  0  0  0  0  0  0
  150.7543  142.8345  158.5202 C   0  0  0  0  0  0  0  0  0  0  0  0
  147.5983  142.7249  159.0988 N   0  0  0  0  0  0  0  0  0  0  0  0
  147.3757  143.3593  160.3270 O   0  0  0  0  0  0  0  0  0  0  0  0
  145.1262  143.4458  162.4292 H   0  0  0  0  0  0  0  0  0  0  0  0
  144.8589  144.9533  161.5515 H   0  0  0  0  0  0  0  0  0  0  0  0
  146.4294  144.6275  162.2854 H   0  0  0  0  0  0  0  0  0  0  0  0
  144.2896  142.9761  159.2742 H   0  0  0  0  0  0  0  0  0  0  0  0
  148.4870  141.4453  157.9227 H   0  0  0  0  0  0  0  0  0  0  0  0
  149.5442  141.1433  155.2105 H   0  0  0  0  0  0  0  0  0  0  0  0
  149.9008  142.6659  155.9803 H   0  0  0  0  0  0  0  0  0  0  0  0
  150.3718  140.1944  157.6217 H   0  0  0  0  0  0  0  0  0  0  0  0
  151.1449  139.4878  155.3255 H   0  0  0  0  0  0  0  0  0  0  0  0
  152.4402  139.5042  156.4628 H   0  0  0  0  0  0  0  0  0  0  0  0
  152.2737  140.8339  155.3144 H   0  0  0  0  0  0  0  0  0  0  0  0
  151.7977  140.5610  159.4418 H   0  0  0  0  0  0  0  0  0  0  0  0
  153.1427  140.5173  158.3219 H   0  0  0  0  0  0  0  0  0  0  0  0
  153.9650  142.6879  159.0560 H   0  0  0  0  0  0  0  0  0  0  0  0
  154.7387  140.6954  160.3343 H   0  0  0  0  0  0  0  0  0  0  0  0
  153.3704  140.8586  161.4338 H   0  0  0  0  0  0  0  0  0  0  0  0
  154.6121  142.1073  161.3793 H   0  0  0  0  0  0  0  0  0  0  0  0
  150.8114  144.3200  160.0633 H   0  0  0  0  0  0  0  0  0  0  0  0
  151.6237  145.5055  158.0804 H   0  0  0  0  0  0  0  0  0  0  0  0
  153.0235  144.4534  157.9586 H   0  0  0  0  0  0  0  0  0  0  0  0
  152.8523  145.5351  159.3398 H   0  0  0  0  0  0  0  0  0  0  0  0
  150.1902  143.4468  157.8198 H   0  0  0  0  0  0  0  0  0  0  0  0
  150.0232  142.2923  159.1216 H   0  0  0  0  0  0  0  0  0  0  0  0
  1  2  1  0  0  0  0
  1 22  1  0  0  0  0
  1 23  1  0  0  0  0
  1 24  1  0  0  0  0
  2 21  1  0  0  0  0
  2  3  2  0  0  0  0
  3  4  1  0  0  0  0
  3 25  1  0  0  0  0
  4  5  1  0  0  0  0
  4 20  2  0  0  0  0
  5  6  1  0  0  0  0
  6  7  2  0  0  0  0
  6  8  1  0  0  0  0
  8  9  1  0  0  0  0
  8 26  1  0  0  0  0
  9 10  1  0  0  0  0
  9 27  1  0  0  0  0
  9 28  1  0  0  0  0
 10 11  1  0  0  0  0
 10 12  1  0  0  0  0
 10 29  1  0  0  0  0
 11 30  1  0  0  0  0
 11 31  1  0  0  0  0
 11 32  1  0  0  0  0
 12 19  1  0  0  0  0
 12 13  1  0  0  0  0
 13 14  1  0  0  0  0
 13 33  1  0  0  0  0
 13 34  1  0  0  0  0
 14 15  1  0  0  0  0
 14 16  1  0  0  0  0
 14 35  1  0  0  0  0
 15 36  1  0  0  0  0
 15 37  1  0  0  0  0
 15 38  1  0  0  0  0
 16 17  1  0  0  0  0
 17 18  1  0  0  0  0
 17 19  1  0  0  0  0
 17 39  1  0  0  0  0
 18 40  1  0  0  0  0
 18 41  1  0  0  0  0
 18 42  1  0  0  0  0
 19 43  1  0  0  0  0
 19 44  1  0  0  0  0
 20 21  1  0  0  0  0
M  CHG  1   5  -1
M  END
> <s_m_source_file>
AV-unprocessed.smi

> <i_m_source_file_index>
2061

> <i_lp_mmshare_version>
43012

> <i_f3d_flags>
0

> <s_epik_input>
W0NIM11jMVtjSF1jKG5vMSlbTkhdQyg9TylbTkhdW0NIMl1bQ0BIXShbQ0gzXSlOMltDSDJdW0NAQEhdKFtDSDNdKU9bQ0BASF0oW0NIM10pW0NIMl0y

> <s_epik_cmdline>
J2VwaWtfcHl0aG9uJywgJy1waCcsICc3LjAnLCAnLXRuJywgJzgnLCAnLW1hJywgJzIwMCcsICctbWV0YWxfYmluZGluZycsICctaW1hZScsICc8aW5maWxlLm1hZT4nLCAnLW9tYWUnLCAnPG91dGZpbGUubWFlPic=

> <r_epik_Ionization_Penalty>
6.88367

> <r_epik_Ionization_Penalty_Charging>
6.57198

> <r_epik_Ionization_Penalty_Neutral>
0.311681

> <r_epik_State_Penalty>
6.77619

> <r_epik_Charging_Adjusted_Penalty>
13.3482

> <i_epik_Tot_Q>
-1

> <i_epik_Tot_abs_Q>
1

> <r_epik_Metal_State_Penalty>
2.70524

> <b_epik_Metal_Only>
1

> <s_lp_Force_Field>
OPLS_2005

> <r_lp_Energy>
24.2039

> <b_lp_Chiralities_Consistent>
1

> <s_lp_Variant>
AV-unprocessed.smi:2061-18

> <Gold.Version>
5.8.1

> <Gold.Id.Protein>
6NUR|6NUR_protein|mol2

> <Gold.PLP.Fitness>
39.3124

> <Gold.PLP.PLP>
-38.7858

> <Gold.PLP.part.hbond>
-2.9055

> <Gold.PLP.part.metal>
0.0000

> <Gold.PLP.part.buried>
-6.4866

> <Gold.PLP.part.nonpolar>
-30.1671

> <Gold.PLP.part.repulsive>
0.6507

> <Gold.PLP.ligand.clash>
0.0210

> <Gold.PLP.ligand.torsion>
1.2698

> <Gold.PLP.Chemscore.Hbond>
1.0000

> <Gold.PLP.Chemscore.CHOScore>
0.0000

> <Gold.PLP.Chemscore.Metal>
0.0000

> <Gold.Chemscore.Hbonds>
donor molecule, donor type, donor heavy atom, donor atom, acceptor molecule, acceptor atom, score
      P1  H  6933  6944       L1    21  1.00

> <Gold.PLP.Chemscore.Internal.Correction>
0.0873

> <Gold.Rescore>
     Score         DG    S(hbond)    S(metal)    S(lipo)     H(rot)  DE(clash)    DE(int)     intcor
     10.04     -14.02       0.59        0.00      89.32       1.52       0.21       3.77       ----

> <Gold.Chemscore.Fitness>
10.0444

> <Gold.Chemscore.DG>
-14.0207

> <Gold.Chemscore.ZeroCoef>
-5.4800

> <Gold.Chemscore.Hbond>
0.5924

> <Gold.Chemscore.Metal>
0.0000

> <Gold.Chemscore.Lipo>
89.3242

> <Gold.Chemscore.Internal_Hbond>
0.0000

> <Gold.Chemscore.DEClash>
0.2101

> <Gold.Chemscore.DEInternal>
3.7663

> <Gold.Chemscore.Rot>
1.5190

> <Gold.Chemscore.Internal.Correction>
   9.000000E+99

> <Gold.Chemscore.Hbonds>
donor molecule, donor type, donor heavy atom, donor atom, acceptor molecule, acceptor atom, score
      P1  H  6933  6944       L1    21  0.25

> <Gold.Chemscore.Hbond.Weighted>
-1.9785

> <Gold.Chemscore.Metal.Weighted>
-0.0000

> <Gold.Chemscore.Lipo.Weighted>
-10.4509

> <Gold.Chemscore.Internal_Hbond.Weighted>
0.0000

> <Gold.Chemscore.DEClash.Weighted>
0.2101

> <Gold.Chemscore.DEInternal.Weighted>
3.7663

> <Gold.Chemscore.Rot.Weighted>
3.8886

> <Gold.Chemscore.Internal.Correction.Weighted>
   9.000000E+99

> <Gold.Protein.RotatedTorsions>
[ 6907 6896 6895 6894 ] final   -5.26 input  -60.11 | X-H torsion
[ 7974 7965 7964 7962 ] final   93.35 input  175.53 | X-H torsion
[ 8008 7997 7996 7995 ] final  155.11 input   59.86 | X-H torsion
[ 10167 10162 10161 10158 ] final  117.44 input  -65.29 | X-H torsion
[ 10718 10713 10712 10709 ] final -177.39 input   66.30 | X-H torsion
[ 10763 10752 10751 10750 ] final  119.63 input  -60.55 | X-H torsion
[ 11005 11000 10999 10996 ] final -137.57 input  -57.11 | X-H torsion

> <Gold.Protein.ActiveResidues>
 VAL166  LYS551  ARG553  GLY616  TRP617  ASP618  TYR619  PRO620  LYS621  CYS622 
 ASP623  PHE694  ASN695  SER759  ASP760  ASP761  ALA762  ILE779  LEU786  VAL792 
 PHE793  MET794  SER795  GLU796  ALA797  LYS798  CYS799  TRP800  GLU811  SER814 

> <Gold.Protein.RotatedAtoms>
  151.4844  135.1054  159.9786 H   0  0  0  0  0  0  0  0  0  0  0  0  # atno 6907 bound_to 6896
  152.4766  133.8150  159.7034 H   0  0  0  0  0  0  0  0  0  0  0  0  # atno 6908 bound_to 6896
  150.8809  133.7312  159.2959 H   0  0  0  0  0  0  0  0  0  0  0  0  # atno 6909 bound_to 6896
  145.4800  139.2279  143.2887 H   0  0  0  0  0  0  0  0  0  0  0  0  # atno 7974 bound_to 7965
  156.2496  140.1948  156.6751 H   0  0  0  0  0  0  0  0  0  0  0  0  # atno 8008 bound_to 7997
  154.6364  140.0589  156.9819 H   0  0  0  0  0  0  0  0  0  0  0  0  # atno 8009 bound_to 7997
  155.1631  140.3261  155.4410 H   0  0  0  0  0  0  0  0  0  0  0  0  # atno 8010 bound_to 7997
  139.6178  144.7095  151.2700 H   0  0  0  0  0  0  0  0  0  0  0  0  # atno 10167 bound_to 10162
  156.8288  130.9646  151.3107 H   0  0  0  0  0  0  0  0  0  0  0  0  # atno 10718 bound_to 10713
  153.5859  135.3475  155.2893 H   0  0  0  0  0  0  0  0  0  0  0  0  # atno 10763 bound_to 10752
  154.8660  135.4193  154.2569 H   0  0  0  0  0  0  0  0  0  0  0  0  # atno 10764 bound_to 10752
  153.3365  135.7047  153.6973 H   0  0  0  0  0  0  0  0  0  0  0  0  # atno 10765 bound_to 10752
  140.8699  134.2064  157.4657 H   0  0  0  0  0  0  0  0  0  0  0  0  # atno 11005 bound_to 11000
  146.2346  140.5586  142.8960 LP  0  0  0  0  0  0  0  0  0  0  0  0  # atno 17320 bound_to 7965
  144.7894  140.6002  143.6551 LP  0  0  0  0  0  0  0  0  0  0  0  0  # atno 17321 bound_to 7965
  140.7362  143.6713  150.8079 LP  0  0  0  0  0  0  0  0  0  0  0  0  # atno 17342 bound_to 10162
  140.0319  143.5435  152.2756 LP  0  0  0  0  0  0  0  0  0  0  0  0  # atno 17343 bound_to 10162
  157.6418  130.8812  149.9462 LP  0  0  0  0  0  0  0  0  0  0  0  0  # atno 17370 bound_to 10713
  156.0946  130.3660  150.0330 LP  0  0  0  0  0  0  0  0  0  0  0  0  # atno 17371 bound_to 10713
  139.8711  134.9769  156.4939 LP  0  0  0  0  0  0  0  0  0  0  0  0  # atno 17394 bound_to 11000
  140.8585  133.8077  155.9241 LP  0  0  0  0  0  0  0  0  0  0  0  0  # atno 17395 bound_to 11000

$$$$
