AV-unprocessed.smi:2026|AV-procd|sdf|8206|dock8
  -GOLD-   2272010463D 1   1.00000     0.00000
 Structure written by MMmdl.
 45 47  0  0  0  0  0  0  0  0  2 V2000
  152.1572  145.3965  159.4086 C   0  0  0  0  0  0  0  0  0  0  0  0
  151.9062  143.9843  158.9095 C   0  0  0  0  0  0  0  0  0  0  0  0
  151.3657  143.7970  157.6172 C   0  0  0  0  0  0  0  0  0  0  0  0
  151.1170  142.5001  157.1168 C   0  0  0  0  0  0  0  0  0  0  0  0
  150.6002  142.0904  155.8992 N   0  0  0  0  0  0  0  0  0  0  0  0
  150.6143  140.7673  156.0344 C   0  0  0  0  0  0  0  0  0  0  0  0
  151.0764  140.2710  157.1980 N   0  0  0  0  0  0  0  0  0  0  0  0
  151.1813  138.8709  157.5692 C   0  0  0  0  0  0  0  0  0  0  0  0
  152.6148  138.3240  157.4242 C   0  0  1  0  0  0  0  0  0  0  0  0
  153.2166  138.9267  156.2943 O   0  0  0  0  0  0  0  0  0  0  0  0
  153.4666  138.6412  158.6705 C   0  0  0  0  0  0  0  0  0  0  0  0
  154.6320  137.7573  158.7819 N   0  0  0  0  0  0  0  0  0  0  0  0
  155.9159  138.1628  158.7845 C   0  0  0  0  0  0  0  0  0  0  0  0
  156.2319  139.3488  158.6963 O   0  0  0  0  0  0  0  0  0  0  0  0
  156.7581  137.1082  158.8958 N   0  5  0  0  0  0  0  0  0  0  0  0
  155.9762  135.8900  158.9671 C   0  0  0  0  0  0  0  0  0  0  0  0
  156.3059  134.9776  157.7707 C   0  0  0  0  0  0  0  0  0  0  0  0
  156.2249  135.1767  160.3096 C   0  0  0  0  0  0  0  0  0  0  0  0
  154.5584  136.4258  158.8803 C   0  0  0  0  0  0  0  0  0  0  0  0
  153.5431  135.7281  158.8968 O   0  0  0  0  0  0  0  0  0  0  0  0
  151.4248  141.3866  157.9520 C   0  0  0  0  0  0  0  0  0  0  0  0
  151.9639  141.5602  159.2392 C   0  0  0  0  0  0  0  0  0  0  0  0
  152.2068  142.8625  159.7233 C   0  0  0  0  0  0  0  0  0  0  0  0
  152.7915  143.0383  161.1135 C   0  0  0  0  0  0  0  0  0  0  0  0
  151.9069  146.1383  158.6497 H   0  0  0  0  0  0  0  0  0  0  0  0
  153.2069  145.5290  159.6716 H   0  0  0  0  0  0  0  0  0  0  0  0
  151.5501  145.6014  160.2905 H   0  0  0  0  0  0  0  0  0  0  0  0
  151.1373  144.6511  156.9968 H   0  0  0  0  0  0  0  0  0  0  0  0
  150.2689  140.1192  155.2420 H   0  0  0  0  0  0  0  0  0  0  0  0
  150.8278  138.7514  158.5942 H   0  0  0  0  0  0  0  0  0  0  0  0
  150.4976  138.3024  156.9375 H   0  0  0  0  0  0  0  0  0  0  0  0
  152.5661  137.2465  157.2615 H   0  0  0  0  0  0  0  0  0  0  0  0
  152.8598  138.5297  155.5149 H   0  0  0  0  0  0  0  0  0  0  0  0
  153.7598  139.6924  158.6842 H   0  0  0  0  0  0  0  0  0  0  0  0
  152.8601  138.5056  159.5676 H   0  0  0  0  0  0  0  0  0  0  0  0
  155.7145  134.0615  157.7977 H   0  0  0  0  0  0  0  0  0  0  0  0
  157.3572  134.6878  157.7748 H   0  0  0  0  0  0  0  0  0  0  0  0
  156.1055  135.4706  156.8180 H   0  0  0  0  0  0  0  0  0  0  0  0
  155.6418  134.2579  160.3823 H   0  0  0  0  0  0  0  0  0  0  0  0
  155.9543  135.8059  161.1592 H   0  0  0  0  0  0  0  0  0  0  0  0
  157.2753  134.9065  160.4237 H   0  0  0  0  0  0  0  0  0  0  0  0
  152.1909  140.6972  159.8476 H   0  0  0  0  0  0  0  0  0  0  0  0
  152.9223  142.0786  161.6141 H   0  0  0  0  0  0  0  0  0  0  0  0
  152.1350  143.6505  161.7320 H   0  0  0  0  0  0  0  0  0  0  0  0
  153.7668  143.5223  161.0577 H   0  0  0  0  0  0  0  0  0  0  0  0
  1  2  1  0  0  0  0
  1 25  1  0  0  0  0
  1 26  1  0  0  0  0
  1 27  1  0  0  0  0
  2 23  1  0  0  0  0
  2  3  2  0  0  0  0
  3  4  1  0  0  0  0
  3 28  1  0  0  0  0
  4 21  2  0  0  0  0
  4  5  1  0  0  0  0
  5  6  2  0  0  0  0
  6  7  1  0  0  0  0
  6 29  1  0  0  0  0
  7  8  1  0  0  0  0
  7 21  1  0  0  0  0
  8  9  1  0  0  0  0
  8 30  1  0  0  0  0
  8 31  1  0  0  0  0
  9 10  1  0  0  0  0
  9 11  1  0  0  0  0
  9 32  1  0  0  0  0
 10 33  1  0  0  0  0
 11 12  1  0  0  0  0
 11 34  1  0  0  0  0
 11 35  1  0  0  0  0
 12 19  1  0  0  0  0
 12 13  1  0  0  0  0
 13 14  2  0  0  0  0
 13 15  1  0  0  0  0
 15 16  1  0  0  0  0
 16 17  1  0  0  0  0
 16 18  1  0  0  0  0
 16 19  1  0  0  0  0
 17 36  1  0  0  0  0
 17 37  1  0  0  0  0
 17 38  1  0  0  0  0
 18 39  1  0  0  0  0
 18 40  1  0  0  0  0
 18 41  1  0  0  0  0
 19 20  2  0  0  0  0
 21 22  1  0  0  0  0
 22 23  2  0  0  0  0
 22 42  1  0  0  0  0
 23 24  1  0  0  0  0
 24 43  1  0  0  0  0
 24 44  1  0  0  0  0
 24 45  1  0  0  0  0
M  CHG  1  15  -1
M  END
> <s_m_source_file>
AV-unprocessed.smi

> <i_m_source_file_index>
2026

> <i_lp_mmshare_version>
43012

> <i_f3d_flags>
0

> <s_epik_input>
W0NIM11jKFtjSF0xKWMoW0NIM10pW2NIXWMoYzEyKW4oW2NIXW4yKVtDSDJdW0NASF0oW09IXSlbQ0gyXU4oQzM9TylDKD1PKVtOSF1DMyhbQ0gzXSlbQ0gzXQ==

> <s_epik_cmdline>
J2VwaWtfcHl0aG9uJywgJy1waCcsICc3LjAnLCAnLXRuJywgJzgnLCAnLW1hJywgJzIwMCcsICctbWV0YWxfYmluZGluZycsICctaW1hZScsICc8aW5maWxlLm1hZT4nLCAnLW9tYWUnLCAnPG91dGZpbGUubWFlPic=

> <r_lp_tautomer_probability>
1

> <r_epik_Ionization_Penalty>
5.78785

> <r_epik_Ionization_Penalty_Charging>
5.68049

> <r_epik_Ionization_Penalty_Neutral>
0.107354

> <r_epik_State_Penalty>
5.7743

> <r_epik_Charging_Adjusted_Penalty>
11.4548

> <i_epik_Tot_Q>
-1

> <i_epik_Tot_abs_Q>
1

> <r_epik_Metal_State_Penalty>
1.83778

> <b_epik_Metal_Only>
1

> <s_lp_Force_Field>
OPLS_2005

> <r_lp_Energy>
18.252

> <b_lp_Chiralities_Consistent>
1

> <s_lp_Variant>
AV-unprocessed.smi:2026-6

> <Gold.Version>
5.8.1

> <Gold.Id.Protein>
6NUR|6NUR_protein|mol2

> <Gold.PLP.Fitness>
45.1041

> <Gold.PLP.PLP>
-38.1007

> <Gold.PLP.part.hbond>
-3.0000

> <Gold.PLP.part.metal>
0.0000

> <Gold.PLP.part.buried>
-5.6706

> <Gold.PLP.part.nonpolar>
-29.7512

> <Gold.PLP.part.repulsive>
0.2090

> <Gold.PLP.ligand.clash>
0.0000

> <Gold.PLP.ligand.torsion>
0.7235

> <Gold.PLP.Chemscore.Hbond>
2.8160

> <Gold.PLP.Chemscore.CHOScore>
0.0000

> <Gold.PLP.Chemscore.Metal>
0.0000

> <Gold.Chemscore.Hbonds>
donor molecule, donor type, donor heavy atom, donor atom, acceptor molecule, acceptor atom, score
      P1  H  6896  6908       L1    20  0.78
      P1  H  7997  8008       L1    14  1.00
      P1  H  7997  8009       L1    10  1.00

> <Gold.PLP.Chemscore.Internal.Correction>
0.0025

> <Gold.Rescore>
     Score         DG    S(hbond)    S(metal)    S(lipo)     H(rot)  DE(clash)    DE(int)     intcor
     20.08     -20.93       2.85        0.00     102.67       2.38       0.05       0.81       ----

> <Gold.Chemscore.Fitness>
20.0774

> <Gold.Chemscore.DG>
-20.9317

> <Gold.Chemscore.ZeroCoef>
-5.4800

> <Gold.Chemscore.Hbond>
2.8526

> <Gold.Chemscore.Metal>
0.0000

> <Gold.Chemscore.Lipo>
102.6693

> <Gold.Chemscore.Internal_Hbond>
0.0000

> <Gold.Chemscore.DEClash>
0.0484

> <Gold.Chemscore.DEInternal>
0.8060

> <Gold.Chemscore.Rot>
2.3783

> <Gold.Chemscore.Internal.Correction>
   9.000000E+99

> <Gold.Chemscore.Hbonds>
donor molecule, donor type, donor heavy atom, donor atom, acceptor molecule, acceptor atom, score
      P1  H  6896  6908       L1    20  0.78
      P1  H  7997  8008       L1    14  0.88
      P1  H  7997  8009       L1    10  0.97

> <Gold.Chemscore.Hbond.Weighted>
-9.5278

> <Gold.Chemscore.Metal.Weighted>
-0.0000

> <Gold.Chemscore.Lipo.Weighted>
-12.0123

> <Gold.Chemscore.Internal_Hbond.Weighted>
0.0000

> <Gold.Chemscore.DEClash.Weighted>
0.0484

> <Gold.Chemscore.DEInternal.Weighted>
0.8060

> <Gold.Chemscore.Rot.Weighted>
6.0884

> <Gold.Chemscore.Internal.Correction.Weighted>
   9.000000E+99

> <Gold.Protein.RotatedTorsions>
[ 6907 6896 6895 6894 ] final  -51.98 input  -60.11 | X-H torsion
[ 7974 7965 7964 7962 ] final -101.78 input  175.53 | X-H torsion
[ 8008 7997 7996 7995 ] final -158.93 input   59.86 | X-H torsion
[ 10167 10162 10161 10158 ] final  -73.69 input  -65.29 | X-H torsion
[ 10718 10713 10712 10709 ] final -160.81 input   66.30 | X-H torsion
[ 10763 10752 10751 10750 ] final -162.41 input  -60.55 | X-H torsion
[ 11005 11000 10999 10996 ] final   70.41 input  -57.11 | X-H torsion

> <Gold.Protein.ActiveResidues>
 VAL166  LYS551  ARG553  GLY616  TRP617  ASP618  TYR619  PRO620  LYS621  CYS622 
 ASP623  PHE694  ASN695  SER759  ASP760  ASP761  ALA762  ILE779  LEU786  VAL792 
 PHE793  MET794  SER795  GLU796  ALA797  LYS798  CYS799  TRP800  GLU811  SER814 

> <Gold.Protein.RotatedAtoms>
  150.8560  134.7899  159.7045 H   0  0  0  0  0  0  0  0  0  0  0  0  # atno 6907 bound_to 6896
  152.4611  134.5178  159.9783 H   0  0  0  0  0  0  0  0  0  0  0  0  # atno 6908 bound_to 6896
  151.5290  133.3414  159.2950 H   0  0  0  0  0  0  0  0  0  0  0  0  # atno 6909 bound_to 6896
  145.2772  140.9316  143.2953 H   0  0  0  0  0  0  0  0  0  0  0  0  # atno 7974 bound_to 7965
  155.7550  140.0831  157.2183 H   0  0  0  0  0  0  0  0  0  0  0  0  # atno 8008 bound_to 7997
  154.4008  140.1553  156.2823 H   0  0  0  0  0  0  0  0  0  0  0  0  # atno 8009 bound_to 7997
  155.8894  140.3416  155.5948 H   0  0  0  0  0  0  0  0  0  0  0  0  # atno 8010 bound_to 7997
  140.5089  143.2348  151.7627 H   0  0  0  0  0  0  0  0  0  0  0  0  # atno 10167 bound_to 10162
  156.5874  130.8755  151.2881 H   0  0  0  0  0  0  0  0  0  0  0  0  # atno 10718 bound_to 10713
  154.7217  135.3027  154.9037 H   0  0  0  0  0  0  0  0  0  0  0  0  # atno 10763 bound_to 10752
  153.9906  135.6719  153.4758 H   0  0  0  0  0  0  0  0  0  0  0  0  # atno 10764 bound_to 10752
  153.0840  135.4994  154.8476 H   0  0  0  0  0  0  0  0  0  0  0  0  # atno 10765 bound_to 10752
  139.9599  134.7079  156.0669 H   0  0  0  0  0  0  0  0  0  0  0  0  # atno 11005 bound_to 11000
  144.9284  139.4327  143.6507 LP  0  0  0  0  0  0  0  0  0  0  0  0  # atno 17320 bound_to 7965
  146.3228  139.8183  142.8932 LP  0  0  0  0  0  0  0  0  0  0  0  0  # atno 17321 bound_to 7965
  139.4891  144.4418  151.9755 LP  0  0  0  0  0  0  0  0  0  0  0  0  # atno 17342 bound_to 10162
  140.3510  144.3089  150.5949 LP  0  0  0  0  0  0  0  0  0  0  0  0  # atno 17343 bound_to 10162
  157.7312  130.9696  150.1868 LP  0  0  0  0  0  0  0  0  0  0  0  0  # atno 17370 bound_to 10713
  156.2579  130.3707  149.8162 LP  0  0  0  0  0  0  0  0  0  0  0  0  # atno 17371 bound_to 10713
  141.1275  133.6595  156.3375 LP  0  0  0  0  0  0  0  0  0  0  0  0  # atno 17394 bound_to 11000
  140.5524  134.6015  157.5411 LP  0  0  0  0  0  0  0  0  0  0  0  0  # atno 17395 bound_to 11000

$$$$
