AV-unprocessed.smi:2119|AV-procd|sdf|8633|dock2
  -GOLD-   2272011383D 1   1.00000     0.00000
 Structure written by MMmdl.
 47 49  0  0  0  0  0  0  0  0  1 V2000
  144.9318  136.3503  153.7833 O   0  0  0  0  0  0  0  0  0  0  0  0
  145.9732  136.2384  153.1374 C   0  0  0  0  0  0  0  0  0  0  0  0
  147.0312  137.0461  153.2910 N   0  0  0  0  0  0  0  0  0  0  0  0
  147.0945  138.1929  154.1900 C   0  0  0  0  0  0  0  0  0  0  0  0
  148.4033  139.0121  154.0107 C   0  0  1  0  0  0  0  0  0  0  0  0
  148.1837  140.5357  154.2497 C   0  0  1  0  0  0  0  0  0  0  0  0
  147.0937  141.1497  153.3845 C   0  0  0  0  0  0  0  0  0  0  0  0
  146.7980  142.4520  154.1152 C   0  0  0  0  0  0  0  0  0  0  0  0
  146.9239  142.1322  155.4934 O   0  0  0  0  0  0  0  0  0  0  0  0
  147.6798  140.9340  155.6453 C   0  0  0  0  0  0  0  0  0  0  0  0
  149.5325  138.4955  154.8050 N   0  0  0  0  0  0  0  0  0  0  0  0
  150.8356  139.0137  154.3970 C   0  0  0  0  0  0  0  0  0  0  0  0
  151.9478  138.5566  155.3561 C   0  0  0  0  0  0  0  0  0  0  0  0
  151.9579  137.1341  155.4315 O   0  0  0  0  0  0  0  0  0  0  0  0
  150.7153  136.5958  155.8737 C   0  0  0  0  0  0  0  0  0  0  0  0
  149.5897  137.0391  154.9233 C   0  0  0  0  0  0  0  0  0  0  0  0
  146.2139  135.3013  152.2047 N   0  0  0  0  0  0  0  0  0  0  0  0
  145.3359  134.3033  151.7019 C   0  0  0  0  0  0  0  0  0  0  0  0
  144.0183  134.2711  152.2033 C   0  0  0  0  0  0  0  0  0  0  0  0
  143.1313  133.2806  151.7407 C   0  0  0  0  0  0  0  0  0  0  0  0
  143.6021  132.3497  150.7949 C   0  0  0  0  0  0  0  0  0  0  0  0
  144.8630  132.3568  150.3141 N   0  0  0  0  0  0  0  0  0  0  0  0
  145.7085  133.3106  150.7612 C   0  0  0  0  0  0  0  0  0  0  0  0
  147.8487  136.8688  152.7262 H   0  0  0  0  0  0  0  0  0  0  0  0
  146.2315  138.8447  154.0450 H   0  0  0  0  0  0  0  0  0  0  0  0
  147.0111  137.7935  155.1994 H   0  0  0  0  0  0  0  0  0  0  0  0
  148.6950  138.9126  152.9641 H   0  0  0  0  0  0  0  0  0  0  0  0
  149.1123  141.0763  154.0605 H   0  0  0  0  0  0  0  0  0  0  0  0
  147.4050  141.3138  152.3522 H   0  0  0  0  0  0  0  0  0  0  0  0
  146.2071  140.5139  153.3771 H   0  0  0  0  0  0  0  0  0  0  0  0
  147.5406  143.2091  153.8598 H   0  0  0  0  0  0  0  0  0  0  0  0
  145.8101  142.8505  153.8839 H   0  0  0  0  0  0  0  0  0  0  0  0
  147.0195  140.1699  156.0572 H   0  0  0  0  0  0  0  0  0  0  0  0
  148.4975  141.0897  156.3493 H   0  0  0  0  0  0  0  0  0  0  0  0
  151.0843  138.6747  153.3920 H   0  0  0  0  0  0  0  0  0  0  0  0
  150.8106  140.1035  154.3660 H   0  0  0  0  0  0  0  0  0  0  0  0
  152.9190  138.9023  155.0020 H   0  0  0  0  0  0  0  0  0  0  0  0
  151.7993  138.9794  156.3510 H   0  0  0  0  0  0  0  0  0  0  0  0
  150.7848  135.5084  155.8980 H   0  0  0  0  0  0  0  0  0  0  0  0
  150.5104  136.9265  156.8930 H   0  0  0  0  0  0  0  0  0  0  0  0
  148.6423  136.6470  155.2912 H   0  0  0  0  0  0  0  0  0  0  0  0
  149.7576  136.5895  153.9441 H   0  0  0  0  0  0  0  0  0  0  0  0
  147.1492  135.2830  151.8254 H   0  0  0  0  0  0  0  0  0  0  0  0
  143.6872  134.9965  152.9321 H   0  0  0  0  0  0  0  0  0  0  0  0
  142.1150  133.2343  152.1032 H   0  0  0  0  0  0  0  0  0  0  0  0
  142.9500  131.5754  150.4185 H   0  0  0  0  0  0  0  0  0  0  0  0
  146.7079  133.2464  150.3608 H   0  0  0  0  0  0  0  0  0  0  0  0
  1  2  2  0  0  0  0
  2  3  1  0  0  0  0
  2 17  1  0  0  0  0
  3  4  1  0  0  0  0
  3 24  1  0  0  0  0
  4  5  1  0  0  0  0
  4 25  1  0  0  0  0
  4 26  1  0  0  0  0
  5  6  1  0  0  0  0
  5 11  1  0  0  0  0
  5 27  1  0  0  0  0
  6 10  1  0  0  0  0
  6  7  1  0  0  0  0
  6 28  1  0  0  0  0
  7  8  1  0  0  0  0
  7 29  1  0  0  0  0
  7 30  1  0  0  0  0
  8  9  1  0  0  0  0
  8 31  1  0  0  0  0
  8 32  1  0  0  0  0
  9 10  1  0  0  0  0
 10 33  1  0  0  0  0
 10 34  1  0  0  0  0
 11 16  1  0  0  0  0
 11 12  1  0  0  0  0
 12 13  1  0  0  0  0
 12 35  1  0  0  0  0
 12 36  1  0  0  0  0
 13 14  1  0  0  0  0
 13 37  1  0  0  0  0
 13 38  1  0  0  0  0
 14 15  1  0  0  0  0
 15 16  1  0  0  0  0
 15 39  1  0  0  0  0
 15 40  1  0  0  0  0
 16 41  1  0  0  0  0
 16 42  1  0  0  0  0
 17 18  1  0  0  0  0
 17 43  1  0  0  0  0
 18 23  1  0  0  0  0
 18 19  2  0  0  0  0
 19 20  1  0  0  0  0
 19 44  1  0  0  0  0
 20 21  2  0  0  0  0
 20 45  1  0  0  0  0
 21 22  1  0  0  0  0
 21 46  1  0  0  0  0
 22 23  2  0  0  0  0
 23 47  1  0  0  0  0
M  END
> <s_m_source_file>
AV-unprocessed.smi

> <i_m_source_file_index>
2119

> <i_lp_mmshare_version>
43012

> <i_f3d_flags>
0

> <s_epik_input>
W2NIXTFuW2NIXVtjSF1bY0hdYzFbTkhdQyg9TylbTkhdW0NIMl1bQ0BIXShbQ0BASF0yW0NIMl1bQ0gyXU9bQ0gyXTIpTjNbQ0gyXVtDSDJdT1tDSDJdW0NIMl0z

> <s_epik_cmdline>
J2VwaWtfcHl0aG9uJywgJy1waCcsICc3LjAnLCAnLXRuJywgJzgnLCAnLW1hJywgJzIwMCcsICctbWV0YWxfYmluZGluZycsICctaW1hZScsICc8aW5maWxlLm1hZT4nLCAnLW9tYWUnLCAnPG91dGZpbGUubWFlPic=

> <r_epik_Ionization_Penalty>
0.129787

> <r_epik_Ionization_Penalty_Charging>
0

> <r_epik_Ionization_Penalty_Neutral>
0.129787

> <r_epik_State_Penalty>
0.121311

> <r_epik_Charging_Adjusted_Penalty>
0.121311

> <i_epik_Tot_Q>
0

> <i_epik_Tot_abs_Q>
0

> <r_epik_Metal_State_Penalty>
0.117931

> <b_epik_Metal_Only>
0

> <s_lp_Force_Field>
OPLS_2005

> <r_lp_Energy>
52.557

> <b_lp_Chiralities_Consistent>
1

> <s_lp_Variant>
AV-unprocessed.smi:2119-4

> <Gold.Version>
5.8.1

> <Gold.Id.Protein>
6NUR|6NUR_protein|mol2

> <Gold.PLP.Fitness>
45.7671

> <Gold.PLP.PLP>
-35.2950

> <Gold.PLP.part.hbond>
-3.0000

> <Gold.PLP.part.metal>
0.0000

> <Gold.PLP.part.buried>
-5.4483

> <Gold.PLP.part.nonpolar>
-27.6126

> <Gold.PLP.part.repulsive>
0.5925

> <Gold.PLP.ligand.clash>
0.0000

> <Gold.PLP.ligand.torsion>
0.6750

> <Gold.PLP.Chemscore.Hbond>
2.9040

> <Gold.PLP.Chemscore.CHOScore>
0.8882

> <Gold.PLP.Chemscore.Metal>
0.0000

> <Gold.Chemscore.Hbonds>
donor molecule, donor type, donor heavy atom, donor atom, acceptor molecule, acceptor atom, score
      L1  H     3    24       P1  7948  1.00
      L1  H    17    43       P1  7948  0.91
      P1  H 10752 10765       L1    14  0.98
      L1  C    21    46       P1 10952  0.83

> <Gold.PLP.Chemscore.Internal.Correction>
0.4454

> <Gold.Rescore>
     Score         DG    S(hbond)    S(metal)    S(lipo)     H(rot)  DE(clash)    DE(int)     intcor
     18.01     -20.69       2.77        0.00      87.11       1.65       0.13       2.55       ----

> <Gold.Chemscore.Fitness>
18.0052

> <Gold.Chemscore.DG>
-20.6899

> <Gold.Chemscore.ZeroCoef>
-5.4800

> <Gold.Chemscore.Hbond>
2.7677

> <Gold.Chemscore.Metal>
0.0000

> <Gold.Chemscore.Lipo>
87.1110

> <Gold.Chemscore.Internal_Hbond>
0.0000

> <Gold.Chemscore.DEClash>
0.1320

> <Gold.Chemscore.DEInternal>
2.5527

> <Gold.Chemscore.Rot>
1.6508

> <Gold.Chemscore.Internal.Correction>
   9.000000E+99

> <Gold.Chemscore.Hbonds>
donor molecule, donor type, donor heavy atom, donor atom, acceptor molecule, acceptor atom, score
      L1  H     3    24       P1  7948  0.93
      L1  H    17    43       P1  7948  0.84
      P1  H 10752 10765       L1    14  0.45

> <Gold.Chemscore.Hbond.Weighted>
-9.2441

> <Gold.Chemscore.Metal.Weighted>
-0.0000

> <Gold.Chemscore.Lipo.Weighted>
-10.1920

> <Gold.Chemscore.Internal_Hbond.Weighted>
0.0000

> <Gold.Chemscore.DEClash.Weighted>
0.1320

> <Gold.Chemscore.DEInternal.Weighted>
2.5527

> <Gold.Chemscore.Rot.Weighted>
4.2262

> <Gold.Chemscore.Internal.Correction.Weighted>
   9.000000E+99

> <Gold.Protein.RotatedTorsions>
[ 6907 6896 6895 6894 ] final  116.29 input  -60.11 | X-H torsion
[ 7974 7965 7964 7962 ] final -150.99 input  175.53 | X-H torsion
[ 8008 7997 7996 7995 ] final  -47.91 input   59.86 | X-H torsion
[ 10167 10162 10161 10158 ] final  114.93 input  -65.29 | X-H torsion
[ 10718 10713 10712 10709 ] final  -21.24 input   66.30 | X-H torsion
[ 10763 10752 10751 10750 ] final -168.43 input  -60.55 | X-H torsion
[ 11005 11000 10999 10996 ] final  -52.83 input  -57.11 | X-H torsion

> <Gold.Protein.ActiveResidues>
 VAL166  LYS551  ARG553  GLY616  TRP617  ASP618  TYR619  PRO620  LYS621  CYS622 
 ASP623  PHE694  ASN695  SER759  ASP760  ASP761  ALA762  ILE779  LEU786  VAL792 
 PHE793  MET794  SER795  GLU796  ALA797  LYS798  CYS799  TRP800  GLU811  SER814 

> <Gold.Protein.RotatedAtoms>
  152.4687  133.7981  159.6938 H   0  0  0  0  0  0  0  0  0  0  0  0  # atno 6907 bound_to 6896
  150.8665  133.7557  159.2981 H   0  0  0  0  0  0  0  0  0  0  0  0  # atno 6908 bound_to 6896
  151.5106  135.1068  159.9905 H   0  0  0  0  0  0  0  0  0  0  0  0  # atno 6909 bound_to 6896
  144.7876  140.4858  143.5795 H   0  0  0  0  0  0  0  0  0  0  0  0  # atno 7974 bound_to 7965
  154.4022  140.1334  156.4253 H   0  0  0  0  0  0  0  0  0  0  0  0  # atno 8008 bound_to 7997
  155.7603  140.3486  155.5174 H   0  0  0  0  0  0  0  0  0  0  0  0  # atno 8009 bound_to 7997
  155.8865  140.0996  157.1439 H   0  0  0  0  0  0  0  0  0  0  0  0  # atno 8010 bound_to 7997
  139.6353  144.7119  151.2348 H   0  0  0  0  0  0  0  0  0  0  0  0  # atno 10167 bound_to 10162
  156.5208  130.4632  149.6597 H   0  0  0  0  0  0  0  0  0  0  0  0  # atno 10718 bound_to 10713
  154.6630  135.2927  154.9842 H   0  0  0  0  0  0  0  0  0  0  0  0  # atno 10763 bound_to 10752
  154.0895  135.6593  153.4854 H   0  0  0  0  0  0  0  0  0  0  0  0  # atno 10764 bound_to 10752
  153.0441  135.5216  154.7589 H   0  0  0  0  0  0  0  0  0  0  0  0  # atno 10765 bound_to 10752
  141.0944  133.6627  156.4081 H   0  0  0  0  0  0  0  0  0  0  0  0  # atno 11005 bound_to 11000
  145.5881  139.1493  143.3198 LP  0  0  0  0  0  0  0  0  0  0  0  0  # atno 17320 bound_to 7965
  146.2114  140.6008  142.9058 LP  0  0  0  0  0  0  0  0  0  0  0  0  # atno 17321 bound_to 7965
  140.7462  143.6407  150.8337 LP  0  0  0  0  0  0  0  0  0  0  0  0  # atno 17342 bound_to 10162
  140.0037  143.5716  152.2865 LP  0  0  0  0  0  0  0  0  0  0  0  0  # atno 17343 bound_to 10162
  156.3151  130.7250  151.2150 LP  0  0  0  0  0  0  0  0  0  0  0  0  # atno 17370 bound_to 10713
  157.7437  131.0471  150.4926 LP  0  0  0  0  0  0  0  0  0  0  0  0  # atno 17371 bound_to 10713
  140.5174  134.6337  157.5306 LP  0  0  0  0  0  0  0  0  0  0  0  0  # atno 17394 bound_to 11000
  139.9778  134.7187  155.9917 LP  0  0  0  0  0  0  0  0  0  0  0  0  # atno 17395 bound_to 11000

$$$$
