AV-unprocessed.smi:3345|AV-procd|sdf|12906|dock5
  -GOLD-   2272019323D 1   1.00000     0.00000
 Structure written by MMmdl.
 41 42  0  0  0  0  0  0  0  0  2 V2000
  147.9927  136.0346  156.4702 C   0  0  0  0  0  0  0  0  0  0  0  0
  147.9700  136.0040  154.9362 C   0  0  1  0  0  0  0  0  0  0  0  0
  146.5289  135.8857  154.3895 C   0  0  0  0  0  0  0  0  0  0  0  0
  146.4768  135.4582  152.9673 N   0  3  0  0  0  0  0  0  0  0  0  0
  146.6328  133.9960  152.7793 C   0  0  0  0  0  0  0  0  0  0  0  0
  146.6580  133.6582  151.2799 C   0  0  0  0  0  0  0  0  0  0  0  0
  145.4591  134.1227  150.6712 O   0  0  0  0  0  0  0  0  0  0  0  0
  145.3175  135.5341  150.7775 C   0  0  0  0  0  0  0  0  0  0  0  0
  145.2695  135.9444  152.2594 C   0  0  0  0  0  0  0  0  0  0  0  0
  148.6196  137.2069  154.4157 N   0  0  0  0  0  0  0  0  0  0  0  0
  148.3587  138.4692  154.7936 C   0  0  0  0  0  0  0  0  0  0  0  0
  147.4574  138.7679  155.5772 O   0  0  0  0  0  0  0  0  0  0  0  0
  149.2978  139.5477  154.2360 C   0  0  1  0  0  0  0  0  0  0  0  0
  148.7917  140.9778  154.5121 C   0  0  0  0  0  0  0  0  0  0  0  0
  150.6454  139.3277  154.7479 N   0  0  0  0  0  0  0  0  0  0  0  0
  151.4064  140.1055  155.5211 C   0  0  0  0  0  0  0  0  0  0  0  0
  152.6193  139.6202  155.7456 N   0  0  0  0  0  0  0  0  0  0  0  0
  152.5356  138.4573  155.0342 C   0  0  0  0  0  0  0  0  0  0  0  0
  151.3855  138.2466  154.3951 N   0  0  0  0  0  0  0  0  0  0  0  0
  147.5332  135.1374  156.8862 H   0  0  0  0  0  0  0  0  0  0  0  0
  147.4515  136.8971  156.8609 H   0  0  0  0  0  0  0  0  0  0  0  0
  149.0149  136.0847  156.8469 H   0  0  0  0  0  0  0  0  0  0  0  0
  148.5320  135.1203  154.6314 H   0  0  0  0  0  0  0  0  0  0  0  0
  145.9353  135.2074  155.0043 H   0  0  0  0  0  0  0  0  0  0  0  0
  146.0559  136.8654  154.4743 H   0  0  0  0  0  0  0  0  0  0  0  0
  147.5531  133.6462  153.2451 H   0  0  0  0  0  0  0  0  0  0  0  0
  145.8099  133.4716  153.2674 H   0  0  0  0  0  0  0  0  0  0  0  0
  147.5271  134.1056  150.7942 H   0  0  0  0  0  0  0  0  0  0  0  0
  146.7320  132.5800  151.1381 H   0  0  0  0  0  0  0  0  0  0  0  0
  146.1402  136.0310  150.2634 H   0  0  0  0  0  0  0  0  0  0  0  0
  144.3996  135.8368  150.2736 H   0  0  0  0  0  0  0  0  0  0  0  0
  144.3761  135.5353  152.7340 H   0  0  0  0  0  0  0  0  0  0  0  0
  145.2066  137.0306  152.3345 H   0  0  0  0  0  0  0  0  0  0  0  0
  149.3673  137.0628  153.7522 H   0  0  0  0  0  0  0  0  0  0  0  0
  149.3402  139.4226  153.1526 H   0  0  0  0  0  0  0  0  0  0  0  0
  147.8027  141.1338  154.0801 H   0  0  0  0  0  0  0  0  0  0  0  0
  149.4601  141.7174  154.0708 H   0  0  0  0  0  0  0  0  0  0  0  0
  148.7220  141.1925  155.5794 H   0  0  0  0  0  0  0  0  0  0  0  0
  151.0695  141.0510  155.9205 H   0  0  0  0  0  0  0  0  0  0  0  0
  153.3546  137.7563  154.9665 H   0  0  0  0  0  0  0  0  0  0  0  0
  147.2647  135.8958  152.5111 H   0  0  0  0  0  0  0  0  0  0  0  0
  1  2  1  0  0  0  0
  1 20  1  0  0  0  0
  1 21  1  0  0  0  0
  1 22  1  0  0  0  0
  2  3  1  0  0  0  0
  2 10  1  0  0  0  0
  2 23  1  0  0  0  0
  3  4  1  0  0  0  0
  3 24  1  0  0  0  0
  3 25  1  0  0  0  0
  4  9  1  0  0  0  0
  4  5  1  0  0  0  0
  4 41  1  0  0  0  0
  5  6  1  0  0  0  0
  5 26  1  0  0  0  0
  5 27  1  0  0  0  0
  6  7  1  0  0  0  0
  6 28  1  0  0  0  0
  6 29  1  0  0  0  0
  7  8  1  0  0  0  0
  8  9  1  0  0  0  0
  8 30  1  0  0  0  0
  8 31  1  0  0  0  0
  9 32  1  0  0  0  0
  9 33  1  0  0  0  0
 10 11  1  0  0  0  0
 10 34  1  0  0  0  0
 11 12  2  0  0  0  0
 11 13  1  0  0  0  0
 13 14  1  0  0  0  0
 13 15  1  0  0  0  0
 13 35  1  0  0  0  0
 14 36  1  0  0  0  0
 14 37  1  0  0  0  0
 14 38  1  0  0  0  0
 15 19  1  0  0  0  0
 15 16  1  0  0  0  0
 16 17  2  0  0  0  0
 16 39  1  0  0  0  0
 17 18  1  0  0  0  0
 18 19  2  0  0  0  0
 18 40  1  0  0  0  0
M  CHG  1   4   1
M  END
> <s_m_source_file>
AV-unprocessed.smi

> <i_m_source_file_index>
3345

> <i_lp_mmshare_version>
43012

> <i_f3d_flags>
0

> <s_epik_input>
W0NIMl0xW0NIMl1PW0NIMl1bQ0gyXU4xW0NIMl1bQ0BASF0oW0NIM10pW05IXUMoPU8pW0NASF0oW0NIM10pbjJbY0hdbltjSF1uMg==

> <s_epik_cmdline>
J2VwaWtfcHl0aG9uJywgJy1waCcsICc3LjAnLCAnLXRuJywgJzgnLCAnLW1hJywgJzIwMCcsICctbWV0YWxfYmluZGluZycsICctaW1hZScsICc8aW5maWxlLm1hZT4nLCAnLW9tYWUnLCAnPG91dGZpbGUubWFlPic=

> <r_lp_tautomer_probability>
1

> <r_epik_Ionization_Penalty>
0.71326

> <r_epik_Ionization_Penalty_Charging>
0.713252

> <r_epik_Ionization_Penalty_Neutral>
8.27671e-06

> <r_epik_State_Penalty>
0.737017

> <r_epik_Charging_Adjusted_Penalty>
1.45027

> <i_epik_Tot_Q>
1

> <i_epik_Tot_abs_Q>
1

> <r_epik_Metal_State_Penalty>
0.73702

> <b_epik_Metal_Only>
0

> <s_lp_Force_Field>
OPLS_2005

> <r_lp_Energy>
25.9196

> <b_lp_Chiralities_Consistent>
1

> <s_lp_Variant>
AV-unprocessed.smi:3345-8

> <Gold.Version>
5.8.1

> <Gold.Id.Protein>
6NUR|6NUR_protein|mol2

> <Gold.PLP.Fitness>
37.0698

> <Gold.PLP.PLP>
-28.2053

> <Gold.PLP.part.hbond>
-3.0000

> <Gold.PLP.part.metal>
0.0000

> <Gold.PLP.part.buried>
-2.0231

> <Gold.PLP.part.nonpolar>
-23.1814

> <Gold.PLP.part.repulsive>
0.3603

> <Gold.PLP.ligand.clash>
0.0000

> <Gold.PLP.ligand.torsion>
0.7943

> <Gold.PLP.Chemscore.Hbond>
3.4320

> <Gold.PLP.Chemscore.CHOScore>
0.0000

> <Gold.PLP.Chemscore.Metal>
0.0000

> <Gold.Chemscore.Hbonds>
donor molecule, donor type, donor heavy atom, donor atom, acceptor molecule, acceptor atom, score
      L1  H     4    41       P1  7948  2.00
      L1  H    10    34       P1  7948  0.38
      P1  H  7997  8010       L1    17  1.00

> <Gold.PLP.Chemscore.Internal.Correction>
0.1572

> <Gold.Rescore>
     Score         DG    S(hbond)    S(metal)    S(lipo)     H(rot)  DE(clash)    DE(int)     intcor
      8.21     -11.28       2.40        0.00      38.17       2.61       0.00       3.07       ----

> <Gold.Chemscore.Fitness>
8.2131

> <Gold.Chemscore.DG>
-11.2850

> <Gold.Chemscore.ZeroCoef>
-5.4800

> <Gold.Chemscore.Hbond>
2.4044

> <Gold.Chemscore.Metal>
0.0000

> <Gold.Chemscore.Lipo>
38.1661

> <Gold.Chemscore.Internal_Hbond>
0.0000

> <Gold.Chemscore.DEClash>
0.0004

> <Gold.Chemscore.DEInternal>
3.0715

> <Gold.Chemscore.Rot>
2.6138

> <Gold.Chemscore.Internal.Correction>
   9.000000E+99

> <Gold.Chemscore.Hbonds>
donor molecule, donor type, donor heavy atom, donor atom, acceptor molecule, acceptor atom, score
      L1  H     4    41       P1  7948  1.00
      L1  H    10    34       P1  7948  0.34
      P1  H  7997  8010       L1    17  0.93

> <Gold.Chemscore.Hbond.Weighted>
-8.0308

> <Gold.Chemscore.Metal.Weighted>
-0.0000

> <Gold.Chemscore.Lipo.Weighted>
-4.4654

> <Gold.Chemscore.Internal_Hbond.Weighted>
0.0000

> <Gold.Chemscore.DEClash.Weighted>
0.0004

> <Gold.Chemscore.DEInternal.Weighted>
3.0715

> <Gold.Chemscore.Rot.Weighted>
6.6912

> <Gold.Chemscore.Internal.Correction.Weighted>
   9.000000E+99

> <Gold.Protein.RotatedTorsions>
[ 6907 6896 6895 6894 ] final -126.82 input  -60.11 | X-H torsion
[ 7974 7965 7964 7962 ] final   63.41 input  175.53 | X-H torsion
[ 8008 7997 7996 7995 ] final   77.96 input   59.86 | X-H torsion
[ 10167 10162 10161 10158 ] final  -89.81 input  -65.29 | X-H torsion
[ 10718 10713 10712 10709 ] final  -95.90 input   66.30 | X-H torsion
[ 10763 10752 10751 10750 ] final -176.18 input  -60.55 | X-H torsion
[ 11005 11000 10999 10996 ] final  -62.46 input  -57.11 | X-H torsion

> <Gold.Protein.ActiveResidues>
 VAL166  LYS551  ARG553  GLY616  TRP617  ASP618  TYR619  PRO620  LYS621  CYS622 
 ASP623  PHE694  ASN695  SER759  ASP760  ASP761  ALA762  ILE779  LEU786  VAL792 
 PHE793  MET794  SER795  GLU796  ALA797  LYS798  CYS799  TRP800  GLU811  SER814 

> <Gold.Protein.RotatedAtoms>
  150.9008  133.7120  159.2879 H   0  0  0  0  0  0  0  0  0  0  0  0  # atno 6907 bound_to 6896
  151.4640  135.1039  159.9742 H   0  0  0  0  0  0  0  0  0  0  0  0  # atno 6908 bound_to 6896
  152.4876  133.8365  159.7185 H   0  0  0  0  0  0  0  0  0  0  0  0  # atno 6909 bound_to 6896
  145.8622  139.3322  143.0812 H   0  0  0  0  0  0  0  0  0  0  0  0  # atno 7974 bound_to 7965
  155.8490  140.3459  155.5681 H   0  0  0  0  0  0  0  0  0  0  0  0  # atno 8008 bound_to 7997
  155.8059  140.0892  157.1951 H   0  0  0  0  0  0  0  0  0  0  0  0  # atno 8009 bound_to 7997
  154.4007  140.1457  156.3316 H   0  0  0  0  0  0  0  0  0  0  0  0  # atno 8010 bound_to 7997
  140.3612  143.2841  151.9612 H   0  0  0  0  0  0  0  0  0  0  0  0  # atno 10167 bound_to 10162
  156.0052  130.5128  150.6145 H   0  0  0  0  0  0  0  0  0  0  0  0  # atno 10718 bound_to 10713
  154.5755  135.2831  155.0785 H   0  0  0  0  0  0  0  0  0  0  0  0  # atno 10763 bound_to 10752
  154.2141  135.6403  153.5128 H   0  0  0  0  0  0  0  0  0  0  0  0  # atno 10764 bound_to 10752
  153.0071  135.5498  154.6392 H   0  0  0  0  0  0  0  0  0  0  0  0  # atno 10765 bound_to 10752
  141.1360  133.6640  156.5531 H   0  0  0  0  0  0  0  0  0  0  0  0  # atno 11005 bound_to 11000
  145.9235  140.9099  143.0393 LP  0  0  0  0  0  0  0  0  0  0  0  0  # atno 17320 bound_to 7965
  144.6726  140.1321  143.7443 LP  0  0  0  0  0  0  0  0  0  0  0  0  # atno 17321 bound_to 7965
  139.4814  144.5991  151.7637 LP  0  0  0  0  0  0  0  0  0  0  0  0  # atno 17342 bound_to 10162
  140.5125  144.1003  150.5999 LP  0  0  0  0  0  0  0  0  0  0  0  0  # atno 17343 bound_to 10162
  157.3972  131.0804  151.1341 LP  0  0  0  0  0  0  0  0  0  0  0  0  # atno 17370 bound_to 10713
  157.2014  130.6396  149.5740 LP  0  0  0  0  0  0  0  0  0  0  0  0  # atno 17371 bound_to 10713
  140.4047  134.7325  157.4801 LP  0  0  0  0  0  0  0  0  0  0  0  0  # atno 17394 bound_to 11000
  140.0470  134.6185  155.8908 LP  0  0  0  0  0  0  0  0  0  0  0  0  # atno 17395 bound_to 11000

$$$$
