AV-unprocessed.smi:2735|AV-procd|sdf|10542|dock2
  -GOLD-   2272014593D 1   1.00000     0.00000
 Structure written by MMmdl.
 42 42  0  0  0  0  0  0  0  0  2 V2000
  150.4152  140.7264  156.9681 C   0  0  0  0  0  0  0  0  0  0  0  0
  151.1904  141.7214  157.7804 C   0  0  0  0  0  0  0  0  0  0  0  0
  151.0473  143.1357  157.8099 C   0  0  0  0  0  0  0  0  0  0  0  0
  151.9994  143.5535  158.6964 C   0  0  0  0  0  0  0  0  0  0  0  0
  152.3566  144.9377  159.1302 C   0  0  0  0  0  0  0  0  0  0  0  0
  152.6446  142.4197  159.1653 N   0  0  0  0  0  0  0  0  0  0  0  0
  153.7843  142.3208  160.0798 C   0  0  1  0  0  0  0  0  0  0  0  0
  153.4280  142.8015  161.5021 C   0  0  0  0  0  0  0  0  0  0  0  0
  154.3635  140.8953  160.0521 C   0  0  0  0  0  0  0  0  0  0  0  0
  155.4496  140.6600  159.5211 O   0  0  0  0  0  0  0  0  0  0  0  0
  153.6178  139.9527  160.6490 N   0  0  0  0  0  0  0  0  0  0  0  0
  153.9797  138.5499  160.8293 C   0  0  1  0  0  0  0  0  0  0  0  0
  154.0752  138.2566  162.3467 C   0  0  0  0  0  0  0  0  0  0  0  0
  154.2302  136.7629  162.7223 C   0  0  0  0  0  0  0  0  0  0  0  0
  154.2630  136.5338  164.2422 C   0  0  0  0  0  0  0  0  0  0  0  0
  155.4812  136.1663  162.0603 C   0  0  0  0  0  0  0  0  0  0  0  0
  152.8866  137.6528  160.2269 C   0  0  0  0  0  0  0  0  0  0  0  0
  151.8739  138.2253  159.7684 O   0  0  0  0  0  0  0  0  0  0  0  0
  153.0794  136.4155  160.2261 O   0  5  0  0  0  0  0  0  0  0  0  0
  152.1470  141.2999  158.5893 N   0  0  0  0  0  0  0  0  0  0  0  0
  154.9322  138.3320  160.3435 H   0  0  0  0  0  0  0  0  0  0  0  0
  150.0017  141.1898  156.0724 H   0  0  0  0  0  0  0  0  0  0  0  0
  149.5858  140.3144  157.5427 H   0  0  0  0  0  0  0  0  0  0  0  0
  151.0456  139.8963  156.6475 H   0  0  0  0  0  0  0  0  0  0  0  0
  150.3571  143.7527  157.2538 H   0  0  0  0  0  0  0  0  0  0  0  0
  151.7301  145.6760  158.6295 H   0  0  0  0  0  0  0  0  0  0  0  0
  153.3953  145.1662  158.8909 H   0  0  0  0  0  0  0  0  0  0  0  0
  152.2193  145.0565  160.2050 H   0  0  0  0  0  0  0  0  0  0  0  0
  154.5676  142.9826  159.7097 H   0  0  0  0  0  0  0  0  0  0  0  0
  154.3074  142.8061  162.1470 H   0  0  0  0  0  0  0  0  0  0  0  0
  152.6763  142.1663  161.9728 H   0  0  0  0  0  0  0  0  0  0  0  0
  153.0352  143.8184  161.4807 H   0  0  0  0  0  0  0  0  0  0  0  0
  152.7311  140.2353  161.0386 H   0  0  0  0  0  0  0  0  0  0  0  0
  154.9221  138.8019  162.7679 H   0  0  0  0  0  0  0  0  0  0  0  0
  153.1894  138.6561  162.8433 H   0  0  0  0  0  0  0  0  0  0  0  0
  153.3761  136.2128  162.3259 H   0  0  0  0  0  0  0  0  0  0  0  0
  155.0690  137.0986  164.7113 H   0  0  0  0  0  0  0  0  0  0  0  0
  154.4150  135.4795  164.4755 H   0  0  0  0  0  0  0  0  0  0  0  0
  153.3256  136.8314  164.7120 H   0  0  0  0  0  0  0  0  0  0  0  0
  156.3889  136.6572  162.4128 H   0  0  0  0  0  0  0  0  0  0  0  0
  155.4427  136.2761  160.9762 H   0  0  0  0  0  0  0  0  0  0  0  0
  155.5722  135.1018  162.2780 H   0  0  0  0  0  0  0  0  0  0  0  0
  1  2  1  0  0  0  0
  1 22  1  0  0  0  0
  1 23  1  0  0  0  0
  1 24  1  0  0  0  0
  2 20  2  0  0  0  0
  2  3  1  0  0  0  0
  3  4  2  0  0  0  0
  3 25  1  0  0  0  0
  4  5  1  0  0  0  0
  4  6  1  0  0  0  0
  5 26  1  0  0  0  0
  5 27  1  0  0  0  0
  5 28  1  0  0  0  0
  6  7  1  0  0  0  0
  6 20  1  0  0  0  0
  7  8  1  0  0  0  0
  7  9  1  0  0  0  0
  7 29  1  0  0  0  0
  8 30  1  0  0  0  0
  8 31  1  0  0  0  0
  8 32  1  0  0  0  0
  9 10  2  0  0  0  0
  9 11  1  0  0  0  0
 11 12  1  0  0  0  0
 11 33  1  0  0  0  0
 12 21  1  0  0  0  0
 12 13  1  0  0  0  0
 12 17  1  0  0  0  0
 13 14  1  0  0  0  0
 13 34  1  0  0  0  0
 13 35  1  0  0  0  0
 14 15  1  0  0  0  0
 14 16  1  0  0  0  0
 14 36  1  0  0  0  0
 15 37  1  0  0  0  0
 15 38  1  0  0  0  0
 15 39  1  0  0  0  0
 16 40  1  0  0  0  0
 16 41  1  0  0  0  0
 16 42  1  0  0  0  0
 17 18  2  0  0  0  0
 17 19  1  0  0  0  0
M  CHG  1  19  -1
M  END
> <s_m_source_file>
AV-unprocessed.smi

> <i_m_source_file_index>
2735

> <i_lp_mmshare_version>
43012

> <i_f3d_flags>
0

> <s_epik_input>
W0NIM11jMVtjSF1jKFtDSDNdKW4objEpW0NASF0oW0NIM10pQyg9TylbTkhdW0NASF0oQyg9TylbT0hdKVtDSDJdW0NIXShbQ0gzXSlbQ0gzXQ==

> <s_epik_cmdline>
J2VwaWtfcHl0aG9uJywgJy1waCcsICc3LjAnLCAnLXRuJywgJzgnLCAnLW1hJywgJzIwMCcsICctbWV0YWxfYmluZGluZycsICctaW1hZScsICc8aW5maWxlLm1hZT4nLCAnLW9tYWUnLCAnPG91dGZpbGUubWFlPic=

> <r_lp_tautomer_probability>
1

> <r_epik_Ionization_Penalty>
0.0012303

> <r_epik_Ionization_Penalty_Charging>
0.000186407

> <r_epik_Ionization_Penalty_Neutral>
0.0010439

> <r_epik_State_Penalty>
-0

> <r_epik_Charging_Adjusted_Penalty>
0.000186407

> <i_epik_Tot_Q>
-1

> <i_epik_Tot_abs_Q>
1

> <r_epik_Metal_State_Penalty>
-0

> <b_epik_Metal_Only>
0

> <s_lp_Force_Field>
OPLS_2005

> <r_lp_Energy>
6.48876

> <b_lp_Chiralities_Consistent>
1

> <s_lp_Variant>
AV-unprocessed.smi:2735-2

> <Gold.Version>
5.8.1

> <Gold.Id.Protein>
6NUR|6NUR_protein|mol2

> <Gold.PLP.Fitness>
49.8381

> <Gold.PLP.PLP>
-44.3669

> <Gold.PLP.part.hbond>
-1.1781

> <Gold.PLP.part.metal>
0.0000

> <Gold.PLP.part.buried>
-5.8231

> <Gold.PLP.part.nonpolar>
-37.1027

> <Gold.PLP.part.repulsive>
0.0496

> <Gold.PLP.ligand.clash>
0.0000

> <Gold.PLP.ligand.torsion>
0.4058

> <Gold.PLP.Chemscore.Hbond>
2.0000

> <Gold.PLP.Chemscore.CHOScore>
0.0000

> <Gold.PLP.Chemscore.Metal>
0.0000

> <Gold.Chemscore.Hbonds>
donor molecule, donor type, donor heavy atom, donor atom, acceptor molecule, acceptor atom, score
      P1  H  6896  6909       L1    19  2.00
      P1  H  7997  8009       L1    10  0.05

> <Gold.PLP.Chemscore.Internal.Correction>
0.2829

> <Gold.Rescore>
     Score         DG    S(hbond)    S(metal)    S(lipo)     H(rot)  DE(clash)    DE(int)     intcor
     12.89     -15.90       1.00        0.00     109.52       2.24       0.15       2.86       ----

> <Gold.Chemscore.Fitness>
12.8893

> <Gold.Chemscore.DG>
-15.9004

> <Gold.Chemscore.ZeroCoef>
-5.4800

> <Gold.Chemscore.Hbond>
0.9992

> <Gold.Chemscore.Metal>
0.0000

> <Gold.Chemscore.Lipo>
109.5241

> <Gold.Chemscore.Internal_Hbond>
0.0000

> <Gold.Chemscore.DEClash>
0.1512

> <Gold.Chemscore.DEInternal>
2.8599

> <Gold.Chemscore.Rot>
2.2388

> <Gold.Chemscore.Internal.Correction>
   9.000000E+99

> <Gold.Chemscore.Hbonds>
donor molecule, donor type, donor heavy atom, donor atom, acceptor molecule, acceptor atom, score
      P1  H  6896  6909       L1    19  1.00
      P1  H  7997  8009       L1    10  0.06

> <Gold.Chemscore.Hbond.Weighted>
-3.3374

> <Gold.Chemscore.Metal.Weighted>
-0.0000

> <Gold.Chemscore.Lipo.Weighted>
-12.8143

> <Gold.Chemscore.Internal_Hbond.Weighted>
0.0000

> <Gold.Chemscore.DEClash.Weighted>
0.1512

> <Gold.Chemscore.DEInternal.Weighted>
2.8599

> <Gold.Chemscore.Rot.Weighted>
5.7314

> <Gold.Chemscore.Internal.Correction.Weighted>
   9.000000E+99

> <Gold.Protein.RotatedTorsions>
[ 6907 6896 6895 6894 ] final  150.62 input  -60.11 | X-H torsion
[ 7974 7965 7964 7962 ] final -143.72 input  175.53 | X-H torsion
[ 8008 7997 7996 7995 ] final   74.71 input   59.86 | X-H torsion
[ 10167 10162 10161 10158 ] final  -86.17 input  -65.29 | X-H torsion
[ 10718 10713 10712 10709 ] final  -30.88 input   66.30 | X-H torsion
[ 10763 10752 10751 10750 ] final  124.73 input  -60.55 | X-H torsion
[ 11005 11000 10999 10996 ] final   61.91 input  -57.11 | X-H torsion

> <Gold.Protein.ActiveResidues>
 VAL166  LYS551  ARG553  GLY616  TRP617  ASP618  TYR619  PRO620  LYS621  CYS622 
 ASP623  PHE694  ASN695  SER759  ASP760  ASP761  ALA762  ILE779  LEU786  VAL792 
 PHE793  MET794  SER795  GLU796  ALA797  LYS798  CYS799  TRP800  GLU811  SER814 

> <Gold.Protein.RotatedAtoms>
  152.1119  133.4305  159.4634 H   0  0  0  0  0  0  0  0  0  0  0  0  # atno 6907 bound_to 6896
  150.6867  134.2638  159.4569 H   0  0  0  0  0  0  0  0  0  0  0  0  # atno 6908 bound_to 6896
  152.0508  134.9654  160.0625 H   0  0  0  0  0  0  0  0  0  0  0  0  # atno 6909 bound_to 6896
  144.8349  140.5800  143.5490 H   0  0  0  0  0  0  0  0  0  0  0  0  # atno 7974 bound_to 7965
  155.8023  140.3476  155.5410 H   0  0  0  0  0  0  0  0  0  0  0  0  # atno 8008 bound_to 7997
  155.8525  140.0958  157.1686 H   0  0  0  0  0  0  0  0  0  0  0  0  # atno 8009 bound_to 7997
  154.4008  140.1374  156.3849 H   0  0  0  0  0  0  0  0  0  0  0  0  # atno 8010 bound_to 7997
  140.3967  143.2680  151.9195 H   0  0  0  0  0  0  0  0  0  0  0  0  # atno 10167 bound_to 10162
  156.3943  130.4378  149.7371 H   0  0  0  0  0  0  0  0  0  0  0  0  # atno 10718 bound_to 10713
  153.6660  135.3338  155.3140 H   0  0  0  0  0  0  0  0  0  0  0  0  # atno 10763 bound_to 10752
  154.8503  135.4375  154.1755 H   0  0  0  0  0  0  0  0  0  0  0  0  # atno 10764 bound_to 10752
  153.2734  135.7002  153.7534 H   0  0  0  0  0  0  0  0  0  0  0  0  # atno 10765 bound_to 10752
  140.0128  134.6270  155.9754 H   0  0  0  0  0  0  0  0  0  0  0  0  # atno 11005 bound_to 11000
  145.4816  139.1495  143.3759 LP  0  0  0  0  0  0  0  0  0  0  0  0  # atno 17320 bound_to 7965
  146.2649  140.4952  142.8838 LP  0  0  0  0  0  0  0  0  0  0  0  0  # atno 17321 bound_to 7965
  139.4786  144.5674  151.8143 LP  0  0  0  0  0  0  0  0  0  0  0  0  # atno 17342 bound_to 10162
  140.4783  144.1487  150.5928 LP  0  0  0  0  0  0  0  0  0  0  0  0  # atno 17343 bound_to 10162
  156.4412  130.7862  151.2883 LP  0  0  0  0  0  0  0  0  0  0  0  0  # atno 17370 bound_to 10713
  157.7501  131.0124  150.3384 LP  0  0  0  0  0  0  0  0  0  0  0  0  # atno 17371 bound_to 10713
  141.1723  133.6538  156.4696 LP  0  0  0  0  0  0  0  0  0  0  0  0  # atno 17394 bound_to 11000
  140.4524  134.6917  157.5046 LP  0  0  0  0  0  0  0  0  0  0  0  0  # atno 17395 bound_to 11000

$$$$
