AV-unprocessed.smi:2696|AV-procd|sdf|10413|dock5
  -GOLD-   2272014453D 1   1.00000     0.00000
 Structure written by MMmdl.
 43 44  0  0  0  0  0  0  0  0  1 V2000
  147.5802  141.6800  154.1785 C   0  0  0  0  0  0  0  0  0  0  0  0
  148.1861  140.3987  153.5860 C   0  0  0  0  0  0  0  0  0  0  0  0
  147.1212  139.3098  153.3782 C   0  0  0  0  0  0  0  0  0  0  0  0
  149.3507  139.8911  154.4259 C   0  0  0  0  0  0  0  0  0  0  0  0
  149.9494  138.6989  154.1913 C   0  0  0  0  0  0  0  0  0  0  0  0
  151.0809  138.2552  155.0050 C   0  0  0  0  0  0  0  0  0  0  0  0
  151.6289  137.1664  154.8353 O   0  0  0  0  0  0  0  0  0  0  0  0
  151.4891  139.1437  155.9577 N   0  0  0  0  0  0  0  0  0  0  0  0
  152.6675  138.8626  156.8052 C   0  0  0  0  0  0  0  0  0  0  0  0
  152.3751  138.8177  158.3373 C   0  0  1  0  0  0  0  0  0  0  0  0
  150.8921  138.4664  158.5821 C   0  0  0  0  0  0  0  0  0  0  0  0
  153.0476  137.6821  158.8525 O   0  0  0  0  0  0  0  0  0  0  0  0
  152.7668  140.1147  159.0633 C   0  0  0  0  0  0  0  0  0  0  0  0
  153.7268  140.1093  160.1031 C   0  0  0  0  0  0  0  0  0  0  0  0
  154.1070  141.3093  160.7321 C   0  0  0  0  0  0  0  0  0  0  0  0
  153.5366  142.5295  160.3275 C   0  0  0  0  0  0  0  0  0  0  0  0
  152.5843  142.5581  159.2887 C   0  0  0  0  0  0  0  0  0  0  0  0
  151.9846  143.8880  158.8561 C   0  0  0  0  0  0  0  0  0  0  0  0
  150.9879  143.7242  157.9853 F   0  0  0  0  0  0  0  0  0  0  0  0
  151.5145  144.5277  159.9261 F   0  0  0  0  0  0  0  0  0  0  0  0
  152.9220  144.6421  158.2819 F   0  0  0  0  0  0  0  0  0  0  0  0
  152.2015  141.3494  158.6670 C   0  0  0  0  0  0  0  0  0  0  0  0
  150.8047  140.3558  156.1867 C   0  0  0  0  0  0  0  0  0  0  0  0
  149.7950  140.7185  155.4622 N   0  0  0  0  0  0  0  0  0  0  0  0
  148.3383  142.4559  154.2889 H   0  0  0  0  0  0  0  0  0  0  0  0
  147.1407  141.5005  155.1602 H   0  0  0  0  0  0  0  0  0  0  0  0
  146.7960  142.0764  153.5329 H   0  0  0  0  0  0  0  0  0  0  0  0
  148.5794  140.6537  152.6004 H   0  0  0  0  0  0  0  0  0  0  0  0
  147.5598  138.4123  152.9407 H   0  0  0  0  0  0  0  0  0  0  0  0
  146.3368  139.6544  152.7040 H   0  0  0  0  0  0  0  0  0  0  0  0
  146.6464  139.0253  154.3175 H   0  0  0  0  0  0  0  0  0  0  0  0
  149.6004  138.0655  153.3890 H   0  0  0  0  0  0  0  0  0  0  0  0
  153.0827  137.8959  156.5132 H   0  0  0  0  0  0  0  0  0  0  0  0
  153.4759  139.5626  156.5835 H   0  0  0  0  0  0  0  0  0  0  0  0
  150.2162  139.2161  158.1715 H   0  0  0  0  0  0  0  0  0  0  0  0
  150.6757  138.3800  159.6480 H   0  0  0  0  0  0  0  0  0  0  0  0
  150.6258  137.5171  158.1150 H   0  0  0  0  0  0  0  0  0  0  0  0
  153.7234  137.9741  159.4449 H   0  0  0  0  0  0  0  0  0  0  0  0
  154.1939  139.1898  160.4228 H   0  0  0  0  0  0  0  0  0  0  0  0
  154.8423  141.2936  161.5229 H   0  0  0  0  0  0  0  0  0  0  0  0
  153.8356  143.4469  160.8129 H   0  0  0  0  0  0  0  0  0  0  0  0
  151.4832  141.3723  157.8619 H   0  0  0  0  0  0  0  0  0  0  0  0
  151.1909  140.9687  157.0028 H   0  0  0  0  0  0  0  0  0  0  0  0
  1  2  1  0  0  0  0
  1 25  1  0  0  0  0
  1 26  1  0  0  0  0
  1 27  1  0  0  0  0
  2  3  1  0  0  0  0
  2  4  1  0  0  0  0
  2 28  1  0  0  0  0
  3 29  1  0  0  0  0
  3 30  1  0  0  0  0
  3 31  1  0  0  0  0
  4 24  1  0  0  0  0
  4  5  2  0  0  0  0
  5  6  1  0  0  0  0
  5 32  1  0  0  0  0
  6  7  2  0  0  0  0
  6  8  1  0  0  0  0
  8  9  1  0  0  0  0
  8 23  1  0  0  0  0
  9 10  1  0  0  0  0
  9 33  1  0  0  0  0
  9 34  1  0  0  0  0
 10 11  1  0  0  0  0
 10 12  1  0  0  0  0
 10 13  1  0  0  0  0
 11 35  1  0  0  0  0
 11 36  1  0  0  0  0
 11 37  1  0  0  0  0
 12 38  1  0  0  0  0
 13 22  1  0  0  0  0
 13 14  2  0  0  0  0
 14 15  1  0  0  0  0
 14 39  1  0  0  0  0
 15 16  2  0  0  0  0
 15 40  1  0  0  0  0
 16 17  1  0  0  0  0
 16 41  1  0  0  0  0
 17 18  1  0  0  0  0
 17 22  2  0  0  0  0
 18 19  1  0  0  0  0
 18 20  1  0  0  0  0
 18 21  1  0  0  0  0
 22 42  1  0  0  0  0
 23 24  2  0  0  0  0
 23 43  1  0  0  0  0
M  END
> <s_m_source_file>
AV-unprocessed.smi

> <i_m_source_file_index>
2696

> <i_lp_mmshare_version>
43012

> <i_f3d_flags>
0

> <s_epik_input>
W0NIM11bQ0hdKFtDSDNdKWMxW2NIXWMoPU8pbihbY0hdbjEpW0NIMl1bQ0BAXShbQ0gzXSkoW09IXSljMltjSF1bY0hdW2NIXWMoQyhGKShGKUYpW2NIXTI=

> <s_epik_cmdline>
J2VwaWtfcHl0aG9uJywgJy1waCcsICc3LjAnLCAnLXRuJywgJzgnLCAnLW1hJywgJzIwMCcsICctbWV0YWxfYmluZGluZycsICctaW1hZScsICc8aW5maWxlLm1hZT4nLCAnLW9tYWUnLCAnPG91dGZpbGUubWFlPic=

> <r_lp_tautomer_probability>
1

> <r_epik_Ionization_Penalty>
2.71388e-05

> <r_epik_Ionization_Penalty_Charging>
4.19927e-06

> <r_epik_Ionization_Penalty_Neutral>
2.29395e-05

> <r_epik_State_Penalty>
-0

> <r_epik_Charging_Adjusted_Penalty>
4.19927e-06

> <i_epik_Tot_Q>
0

> <i_epik_Tot_abs_Q>
0

> <r_epik_Metal_State_Penalty>
-0

> <b_epik_Metal_Only>
0

> <s_lp_Force_Field>
OPLS_2005

> <r_lp_Energy>
19.4026

> <b_lp_Chiralities_Consistent>
1

> <s_lp_Variant>
AV-unprocessed.smi:2696-1

> <Gold.Version>
5.8.1

> <Gold.Id.Protein>
6NUR|6NUR_protein|mol2

> <Gold.PLP.Fitness>
54.5433

> <Gold.PLP.PLP>
-53.8555

> <Gold.PLP.part.hbond>
-1.0000

> <Gold.PLP.part.metal>
0.0000

> <Gold.PLP.part.buried>
-1.2199

> <Gold.PLP.part.nonpolar>
-51.9228

> <Gold.PLP.part.repulsive>
0.2080

> <Gold.PLP.ligand.clash>
0.0000

> <Gold.PLP.ligand.torsion>
1.2647

> <Gold.PLP.Chemscore.Hbond>
0.9511

> <Gold.PLP.Chemscore.CHOScore>
0.0000

> <Gold.PLP.Chemscore.Metal>
0.0000

> <Gold.Chemscore.Hbonds>
donor molecule, donor type, donor heavy atom, donor atom, acceptor molecule, acceptor atom, score
      P1  H 10752 10763       L1     7  0.89

> <Gold.PLP.Chemscore.Internal.Correction>
0.3639

> <Gold.Rescore>
     Score         DG    S(hbond)    S(metal)    S(lipo)     H(rot)  DE(clash)    DE(int)     intcor
     14.61     -15.99       0.89        0.00     113.28       2.23       0.04       1.33       ----

> <Gold.Chemscore.Fitness>
14.6147

> <Gold.Chemscore.DG>
-15.9904

> <Gold.Chemscore.ZeroCoef>
-5.4800

> <Gold.Chemscore.Hbond>
0.8889

> <Gold.Chemscore.Metal>
0.0000

> <Gold.Chemscore.Lipo>
113.2763

> <Gold.Chemscore.Internal_Hbond>
0.0000

> <Gold.Chemscore.DEClash>
0.0427

> <Gold.Chemscore.DEInternal>
1.3329

> <Gold.Chemscore.Rot>
2.2312

> <Gold.Chemscore.Internal.Correction>
   9.000000E+99

> <Gold.Chemscore.Hbonds>
donor molecule, donor type, donor heavy atom, donor atom, acceptor molecule, acceptor atom, score
      P1  H 10752 10763       L1     7  0.81

> <Gold.Chemscore.Hbond.Weighted>
-2.9689

> <Gold.Chemscore.Metal.Weighted>
-0.0000

> <Gold.Chemscore.Lipo.Weighted>
-13.2533

> <Gold.Chemscore.Internal_Hbond.Weighted>
0.0000

> <Gold.Chemscore.DEClash.Weighted>
0.0427

> <Gold.Chemscore.DEInternal.Weighted>
1.3329

> <Gold.Chemscore.Rot.Weighted>
5.7118

> <Gold.Chemscore.Internal.Correction.Weighted>
   9.000000E+99

> <Gold.Protein.RotatedTorsions>
[ 6907 6896 6895 6894 ] final   19.11 input  -60.11 | X-H torsion
[ 7974 7965 7964 7962 ] final  -62.33 input  175.53 | X-H torsion
[ 8008 7997 7996 7995 ] final -176.53 input   59.86 | X-H torsion
[ 10167 10162 10161 10158 ] final  132.15 input  -65.29 | X-H torsion
[ 10718 10713 10712 10709 ] final   78.99 input   66.30 | X-H torsion
[ 10763 10752 10751 10750 ] final   39.88 input  -60.55 | X-H torsion
[ 11005 11000 10999 10996 ] final  -97.88 input  -57.11 | X-H torsion

> <Gold.Protein.ActiveResidues>
 VAL166  LYS551  ARG553  GLY616  TRP617  ASP618  TYR619  PRO620  LYS621  CYS622 
 ASP623  PHE694  ASN695  SER759  ASP760  ASP761  ALA762  ILE779  LEU786  VAL792 
 PHE793  MET794  SER795  GLU796  ALA797  LYS798  CYS799  TRP800  GLU811  SER814 

> <Gold.Protein.RotatedAtoms>
  151.8757  135.0473  160.0483 H   0  0  0  0  0  0  0  0  0  0  0  0  # atno 6907 bound_to 6896
  152.2553  133.5245  159.5358 H   0  0  0  0  0  0  0  0  0  0  0  0  # atno 6908 bound_to 6896
  150.7097  134.0821  159.3944 H   0  0  0  0  0  0  0  0  0  0  0  0  # atno 6909 bound_to 6896
  145.7926  140.8701  143.0273 H   0  0  0  0  0  0  0  0  0  0  0  0  # atno 7974 bound_to 7965
  155.9960  140.1210  157.0593 H   0  0  0  0  0  0  0  0  0  0  0  0  # atno 8008 bound_to 7997
  154.4227  140.1116  156.5699 H   0  0  0  0  0  0  0  0  0  0  0  0  # atno 8009 bound_to 7997
  155.6278  140.3472  155.4675 H   0  0  0  0  0  0  0  0  0  0  0  0  # atno 8010 bound_to 7997
  139.5352  144.6675  151.4811 H   0  0  0  0  0  0  0  0  0  0  0  0  # atno 10167 bound_to 10162
  157.6763  130.9894  150.1868 H   0  0  0  0  0  0  0  0  0  0  0  0  # atno 10718 bound_to 10713
  152.9953  135.6208  154.2536 H   0  0  0  0  0  0  0  0  0  0  0  0  # atno 10763 bound_to 10752
  154.2274  135.2793  155.2904 H   0  0  0  0  0  0  0  0  0  0  0  0  # atno 10764 bound_to 10752
  154.5478  135.5742  153.6953 H   0  0  0  0  0  0  0  0  0  0  0  0  # atno 10765 bound_to 10752
  141.1364  133.8203  157.0765 H   0  0  0  0  0  0  0  0  0  0  0  0  # atno 11005 bound_to 11000
  144.6779  140.0145  143.7484 LP  0  0  0  0  0  0  0  0  0  0  0  0  # atno 17320 bound_to 7965
  145.9961  139.3053  143.0956 LP  0  0  0  0  0  0  0  0  0  0  0  0  # atno 17321 bound_to 7965
  140.6554  143.8610  150.6830 LP  0  0  0  0  0  0  0  0  0  0  0  0  # atno 17342 bound_to 10162
  140.1987  143.3976  152.1808 LP  0  0  0  0  0  0  0  0  0  0  0  0  # atno 17343 bound_to 10162
  156.2588  130.3708  149.8153 LP  0  0  0  0  0  0  0  0  0  0  0  0  # atno 17370 bound_to 10713
  156.5904  130.8504  151.3406 LP  0  0  0  0  0  0  0  0  0  0  0  0  # atno 17371 bound_to 10713
  140.0478  134.9821  157.1081 LP  0  0  0  0  0  0  0  0  0  0  0  0  # atno 17394 bound_to 11000
  140.4036  134.2056  155.7163 LP  0  0  0  0  0  0  0  0  0  0  0  0  # atno 17395 bound_to 11000

$$$$
