AV-unprocessed.smi:1487|AV-procd|sdf|6011|dock8
  -GOLD-   22720 6113D 1   1.00000     0.00000
 Structure written by MMmdl.
 48 50  0  0  0  0  0  0  0  0  2 V2000
  153.0958  142.9562  160.9291 C   0  0  0  0  0  0  0  0  0  0  0  0
  152.4225  142.5730  159.6231 C   0  0  0  0  0  0  0  0  0  0  0  0
  152.8428  141.4034  158.9511 C   0  0  0  0  0  0  0  0  0  0  0  0
  152.2416  141.0113  157.7352 C   0  0  0  0  0  0  0  0  0  0  0  0
  152.4924  139.9213  156.9194 N   0  0  0  0  0  0  0  0  0  0  0  0
  151.6097  140.1081  155.9432 C   0  0  0  0  0  0  0  0  0  0  0  0
  150.8187  141.1950  156.0263 N   0  0  0  0  0  0  0  0  0  0  0  0
  149.7923  141.5999  155.0820 C   0  0  0  0  0  0  0  0  0  0  0  0
  148.7083  140.5214  154.8954 C   0  0  2  0  0  0  0  0  0  0  0  0
  148.1989  140.1469  156.1611 O   0  0  0  0  0  0  0  0  0  0  0  0
  149.2659  139.2643  154.1996 C   0  0  0  0  0  0  0  0  0  0  0  0
  148.1910  138.3987  153.6511 N   0  3  1  0  0  0  0  0  0  0  0  0
  147.5112  137.5782  154.6878 C   0  0  0  0  0  0  0  0  0  0  0  0
  146.5391  136.5772  154.0451 C   0  0  0  0  0  0  0  0  0  0  0  0
  145.5050  137.3002  153.1701 C   0  0  0  0  0  0  0  0  0  0  0  0
  146.1925  138.2219  152.1485 C   0  0  2  0  0  0  0  0  0  0  0  0
  146.8338  137.4577  151.1466 O   0  0  0  0  0  0  0  0  0  0  0  0
  147.2176  139.1564  152.8209 C   0  0  0  0  0  0  0  0  0  0  0  0
  151.2003  141.8282  157.2047 C   0  0  0  0  0  0  0  0  0  0  0  0
  150.7751  142.9956  157.8631 C   0  0  0  0  0  0  0  0  0  0  0  0
  151.3859  143.3723  159.0777 C   0  0  0  0  0  0  0  0  0  0  0  0
  150.9176  144.6328  159.7830 C   0  0  0  0  0  0  0  0  0  0  0  0
  153.8373  142.2145  161.2276 H   0  0  0  0  0  0  0  0  0  0  0  0
  152.3611  143.0342  161.7308 H   0  0  0  0  0  0  0  0  0  0  0  0
  153.6036  143.9157  160.8287 H   0  0  0  0  0  0  0  0  0  0  0  0
  153.6331  140.7951  159.3659 H   0  0  0  0  0  0  0  0  0  0  0  0
  151.5356  139.4163  155.1167 H   0  0  0  0  0  0  0  0  0  0  0  0
  149.3442  142.5256  155.4456 H   0  0  0  0  0  0  0  0  0  0  0  0
  150.2655  141.8383  154.1283 H   0  0  0  0  0  0  0  0  0  0  0  0
  147.8921  140.9483  154.3132 H   0  0  0  0  0  0  0  0  0  0  0  0
  147.2933  140.4141  156.2130 H   0  0  0  0  0  0  0  0  0  0  0  0
  149.9492  139.5401  153.3948 H   0  0  0  0  0  0  0  0  0  0  0  0
  149.8625  138.7070  154.9237 H   0  0  0  0  0  0  0  0  0  0  0  0
  148.2429  137.0293  155.2795 H   0  0  0  0  0  0  0  0  0  0  0  0
  146.9752  138.2314  155.3785 H   0  0  0  0  0  0  0  0  0  0  0  0
  147.0978  135.8591  153.4433 H   0  0  0  0  0  0  0  0  0  0  0  0
  146.0317  136.0010  154.8193 H   0  0  0  0  0  0  0  0  0  0  0  0
  144.8609  136.5787  152.6659 H   0  0  0  0  0  0  0  0  0  0  0  0
  144.8541  137.8983  153.8092 H   0  0  0  0  0  0  0  0  0  0  0  0
  145.4356  138.8265  151.6478 H   0  0  0  0  0  0  0  0  0  0  0  0
  147.5514  136.9847  151.5405 H   0  0  0  0  0  0  0  0  0  0  0  0
  146.6994  139.8787  153.4537 H   0  0  0  0  0  0  0  0  0  0  0  0
  147.7437  139.7303  152.0562 H   0  0  0  0  0  0  0  0  0  0  0  0
  149.9854  143.5968  157.4373 H   0  0  0  0  0  0  0  0  0  0  0  0
  150.1412  145.1429  159.2121 H   0  0  0  0  0  0  0  0  0  0  0  0
  151.7467  145.3282  159.9155 H   0  0  0  0  0  0  0  0  0  0  0  0
  150.5078  144.3910  160.7638 H   0  0  0  0  0  0  0  0  0  0  0  0
  148.6467  137.7565  153.0175 H   0  0  0  0  0  0  0  0  0  0  0  0
  1  2  1  0  0  0  0
  1 23  1  0  0  0  0
  1 24  1  0  0  0  0
  1 25  1  0  0  0  0
  2 21  1  0  0  0  0
  2  3  2  0  0  0  0
  3  4  1  0  0  0  0
  3 26  1  0  0  0  0
  4 19  2  0  0  0  0
  4  5  1  0  0  0  0
  5  6  2  0  0  0  0
  6  7  1  0  0  0  0
  6 27  1  0  0  0  0
  7  8  1  0  0  0  0
  7 19  1  0  0  0  0
  8  9  1  0  0  0  0
  8 28  1  0  0  0  0
  8 29  1  0  0  0  0
  9 10  1  0  0  0  0
  9 11  1  0  0  0  0
  9 30  1  0  0  0  0
 10 31  1  0  0  0  0
 11 12  1  0  0  0  0
 11 32  1  0  0  0  0
 11 33  1  0  0  0  0
 12 18  1  0  0  0  0
 12 13  1  0  0  0  0
 12 48  1  0  0  0  0
 13 14  1  0  0  0  0
 13 34  1  0  0  0  0
 13 35  1  0  0  0  0
 14 15  1  0  0  0  0
 14 36  1  0  0  0  0
 14 37  1  0  0  0  0
 15 16  1  0  0  0  0
 15 38  1  0  0  0  0
 15 39  1  0  0  0  0
 16 17  1  0  0  0  0
 16 18  1  0  0  0  0
 16 40  1  0  0  0  0
 17 41  1  0  0  0  0
 18 42  1  0  0  0  0
 18 43  1  0  0  0  0
 19 20  1  0  0  0  0
 20 21  2  0  0  0  0
 20 44  1  0  0  0  0
 21 22  1  0  0  0  0
 22 45  1  0  0  0  0
 22 46  1  0  0  0  0
 22 47  1  0  0  0  0
M  CHG  1  12   1
M  END
> <s_m_source_file>
AV-unprocessed.smi

> <i_m_source_file_index>
1487

> <i_lp_mmshare_version>
43012

> <i_f3d_flags>
0

> <s_epik_input>
W0NIM11jKFtjSF0xKWMoW0NIM10pW2NIXWMoYzEyKW4oW2NIXW4yKVtDSDJdW0NASF0oW09IXSlbQ0gyXU4zW0NIMl1bQ0gyXVtDSDJdW0NAQEhdKFtPSF0pW0NIMl0z

> <s_epik_cmdline>
J2VwaWtfcHl0aG9uJywgJy1waCcsICc3LjAnLCAnLXRuJywgJzgnLCAnLW1hJywgJzIwMCcsICctbWV0YWxfYmluZGluZycsICctaW1hZScsICc8aW5maWxlLm1hZT4nLCAnLW9tYWUnLCAnPG91dGZpbGUubWFlPic=

> <r_epik_Ionization_Penalty>
0.0940186

> <r_epik_Ionization_Penalty_Charging>
0.00679686

> <r_epik_Ionization_Penalty_Neutral>
0.0872218

> <r_epik_State_Penalty>
0.0799311

> <r_epik_Charging_Adjusted_Penalty>
0.086728

> <i_epik_Tot_Q>
1

> <i_epik_Tot_abs_Q>
1

> <r_epik_Metal_State_Penalty>
7.95545e-05

> <b_epik_Metal_Only>
0

> <s_lp_Force_Field>
OPLS_2005

> <r_lp_Energy>
22.5409

> <b_lp_Chiralities_Consistent>
1

> <s_lp_Variant>
AV-unprocessed.smi:1487-5

> <Gold.Version>
5.8.1

> <Gold.Id.Protein>
6NUR|6NUR_protein|mol2

> <Gold.PLP.Fitness>
55.1723

> <Gold.PLP.PLP>
-43.3573

> <Gold.PLP.part.hbond>
-4.1569

> <Gold.PLP.part.metal>
0.0000

> <Gold.PLP.part.buried>
-2.4569

> <Gold.PLP.part.nonpolar>
-37.2381

> <Gold.PLP.part.repulsive>
0.0192

> <Gold.PLP.ligand.clash>
0.0000

> <Gold.PLP.ligand.torsion>
0.2633

> <Gold.PLP.Chemscore.Hbond>
4.1000

> <Gold.PLP.Chemscore.CHOScore>
0.0000

> <Gold.PLP.Chemscore.Metal>
0.0000

> <Gold.Chemscore.Hbonds>
donor molecule, donor type, donor heavy atom, donor atom, acceptor molecule, acceptor atom, score
      L1  H    12    48       P1  7948  2.00
      L1  H    17    41       P1  7948  1.00
      P1  H  7954  7966       L1    17  0.05
      P1  H  7997  8009       L1     5  1.00

> <Gold.PLP.Chemscore.Internal.Correction>
0.0417

> <Gold.Rescore>
     Score         DG    S(hbond)    S(metal)    S(lipo)     H(rot)  DE(clash)    DE(int)     intcor
     18.94     -19.54       2.11        0.00     118.51       2.67       0.21       0.39       ----

> <Gold.Chemscore.Fitness>
18.9360

> <Gold.Chemscore.DG>
-19.5409

> <Gold.Chemscore.ZeroCoef>
-5.4800

> <Gold.Chemscore.Hbond>
2.1058

> <Gold.Chemscore.Metal>
0.0000

> <Gold.Chemscore.Lipo>
118.5124

> <Gold.Chemscore.Internal_Hbond>
0.0000

> <Gold.Chemscore.DEClash>
0.2105

> <Gold.Chemscore.DEInternal>
0.3944

> <Gold.Chemscore.Rot>
2.6712

> <Gold.Chemscore.Internal.Correction>
   9.000000E+99

> <Gold.Chemscore.Hbonds>
donor molecule, donor type, donor heavy atom, donor atom, acceptor molecule, acceptor atom, score
      L1  H    12    48       P1  7948  0.99
      L1  H    17    41       P1  7948  0.98
      P1  H  7997  8009       L1     5  0.34

> <Gold.Chemscore.Hbond.Weighted>
-7.0333

> <Gold.Chemscore.Metal.Weighted>
-0.0000

> <Gold.Chemscore.Lipo.Weighted>
-13.8659

> <Gold.Chemscore.Internal_Hbond.Weighted>
0.0000

> <Gold.Chemscore.DEClash.Weighted>
0.2105

> <Gold.Chemscore.DEInternal.Weighted>
0.3944

> <Gold.Chemscore.Rot.Weighted>
6.8383

> <Gold.Chemscore.Internal.Correction.Weighted>
   9.000000E+99

> <Gold.Protein.RotatedTorsions>
[ 6907 6896 6895 6894 ] final  172.78 input  -60.11 | X-H torsion
[ 7974 7965 7964 7962 ] final -162.63 input  175.53 | X-H torsion
[ 8008 7997 7996 7995 ] final -175.32 input   59.86 | X-H torsion
[ 10167 10162 10161 10158 ] final   68.28 input  -65.29 | X-H torsion
[ 10718 10713 10712 10709 ] final   77.98 input   66.30 | X-H torsion
[ 10763 10752 10751 10750 ] final  -78.76 input  -60.55 | X-H torsion
[ 11005 11000 10999 10996 ] final   35.57 input  -57.11 | X-H torsion

> <Gold.Protein.ActiveResidues>
 VAL166  LYS551  ARG553  GLY616  TRP617  ASP618  TYR619  PRO620  LYS621  CYS622 
 ASP623  PHE694  ASN695  SER759  ASP760  ASP761  ALA762  ILE779  LEU786  VAL792 
 PHE793  MET794  SER795  GLU796  ALA797  LYS798  CYS799  TRP800  GLU811  SER814 

> <Gold.Protein.RotatedAtoms>
  151.7788  133.3348  159.3465 H   0  0  0  0  0  0  0  0  0  0  0  0  # atno 6907 bound_to 6896
  150.7434  134.5950  159.6016 H   0  0  0  0  0  0  0  0  0  0  0  0  # atno 6908 bound_to 6896
  152.3290  134.7285  160.0346 H   0  0  0  0  0  0  0  0  0  0  0  0  # atno 6909 bound_to 6896
  144.7351  140.3224  143.6168 H   0  0  0  0  0  0  0  0  0  0  0  0  # atno 7974 bound_to 7965
  155.9811  140.1182  157.0725 H   0  0  0  0  0  0  0  0  0  0  0  0  # atno 8008 bound_to 7997
  154.4183  140.1144  156.5505 H   0  0  0  0  0  0  0  0  0  0  0  0  # atno 8009 bound_to 7997
  155.6469  140.3473  155.4736 H   0  0  0  0  0  0  0  0  0  0  0  0  # atno 8010 bound_to 7997
  140.0804  144.5076  150.7166 H   0  0  0  0  0  0  0  0  0  0  0  0  # atno 10167 bound_to 10162
  157.6729  130.9847  150.1720 H   0  0  0  0  0  0  0  0  0  0  0  0  # atno 10718 bound_to 10713
  154.5299  135.5719  153.6750 H   0  0  0  0  0  0  0  0  0  0  0  0  # atno 10763 bound_to 10752
  152.9937  135.6202  154.2642 H   0  0  0  0  0  0  0  0  0  0  0  0  # atno 10764 bound_to 10752
  154.2568  135.2857  155.2774 H   0  0  0  0  0  0  0  0  0  0  0  0  # atno 10765 bound_to 10752
  140.2413  134.3411  155.7924 H   0  0  0  0  0  0  0  0  0  0  0  0  # atno 11005 bound_to 11000
  145.7555  139.1807  143.2297 LP  0  0  0  0  0  0  0  0  0  0  0  0  # atno 17320 bound_to 7965
  146.1028  140.7524  142.9541 LP  0  0  0  0  0  0  0  0  0  0  0  0  # atno 17321 bound_to 7965
  140.7081  143.2483  151.4666 LP  0  0  0  0  0  0  0  0  0  0  0  0  # atno 17342 bound_to 10162
  139.5783  144.1768  152.1934 LP  0  0  0  0  0  0  0  0  0  0  0  0  # atno 17343 bound_to 10162
  156.2472  130.3697  149.8272 LP  0  0  0  0  0  0  0  0  0  0  0  0  # atno 17370 bound_to 10713
  156.6055  130.8564  151.3442 LP  0  0  0  0  0  0  0  0  0  0  0  0  # atno 17371 bound_to 10713
  141.2210  133.7300  156.8890 LP  0  0  0  0  0  0  0  0  0  0  0  0  # atno 17394 bound_to 11000
  140.1650  134.9139  157.2763 LP  0  0  0  0  0  0  0  0  0  0  0  0  # atno 17395 bound_to 11000

$$$$
