AV-unprocessed.smi:2397|AV-procd|sdf|9495|dock3
  -GOLD-   2272013123D 1   1.00000     0.00000
 Structure written by MMmdl.
 37 38  0  0  0  0  0  0  0  0  2 V2000
  151.4761  137.9750  154.1556 C   0  0  0  0  0  0  0  0  0  0  0  0
  152.4439  138.7449  155.0672 C   0  0  0  0  0  0  0  0  0  0  0  0
  153.3424  137.8229  155.9055 C   0  0  0  0  0  0  0  0  0  0  0  0
  151.7169  139.7673  155.9282 C   0  0  0  0  0  0  0  0  0  0  0  0
  150.4423  140.0753  155.6414 N   0  3  0  0  0  0  0  0  0  0  0  0
  149.7815  140.9772  156.4068 C   0  0  0  0  0  0  0  0  0  0  0  0
  150.4216  141.5877  157.5013 C   0  0  0  0  0  0  0  0  0  0  0  0
  151.7566  141.2175  157.7538 C   0  0  0  0  0  0  0  0  0  0  0  0
  152.4603  141.7946  158.8333 N   0  0  0  0  0  0  0  0  0  0  0  0
  152.8606  140.7658  159.7928 C   0  0  0  0  0  0  0  0  0  0  0  0
  153.7576  141.3541  160.8901 C   0  0  0  0  0  0  0  0  0  0  0  0
  153.0723  142.4266  161.5186 O   0  0  0  0  0  0  0  0  0  0  0  0
  152.8189  143.4865  160.6057 C   0  0  0  0  0  0  0  0  0  0  0  0
  151.9019  143.0126  159.4526 C   0  0  1  0  0  0  0  0  0  0  0  0
  151.6817  144.2151  158.5110 C   0  0  0  0  0  0  0  0  0  0  0  0
  150.4333  144.6554  158.3215 N   0  0  0  0  0  0  0  0  0  0  0  0
  152.6449  144.7540  157.9712 O   0  0  0  0  0  0  0  0  0  0  0  0
  152.3775  140.3211  156.9537 N   0  0  0  0  0  0  0  0  0  0  0  0
  150.9076  138.6571  153.5227 H   0  0  0  0  0  0  0  0  0  0  0  0
  150.7635  137.3871  154.7356 H   0  0  0  0  0  0  0  0  0  0  0  0
  152.0146  137.2893  153.5010 H   0  0  0  0  0  0  0  0  0  0  0  0
  153.1097  139.3023  154.4062 H   0  0  0  0  0  0  0  0  0  0  0  0
  154.0634  138.3993  156.4859 H   0  0  0  0  0  0  0  0  0  0  0  0
  153.9037  137.1376  155.2696 H   0  0  0  0  0  0  0  0  0  0  0  0
  152.7573  137.2218  156.6024 H   0  0  0  0  0  0  0  0  0  0  0  0
  148.7597  141.1784  156.1202 H   0  0  0  0  0  0  0  0  0  0  0  0
  149.9043  142.3044  158.1228 H   0  0  0  0  0  0  0  0  0  0  0  0
  151.9684  140.3269  160.2433 H   0  0  0  0  0  0  0  0  0  0  0  0
  153.3965  139.9561  159.2962 H   0  0  0  0  0  0  0  0  0  0  0  0
  153.9858  140.5935  161.6368 H   0  0  0  0  0  0  0  0  0  0  0  0
  154.7100  141.6960  160.4811 H   0  0  0  0  0  0  0  0  0  0  0  0
  152.3481  144.3018  161.1566 H   0  0  0  0  0  0  0  0  0  0  0  0
  153.7667  143.8727  160.2249 H   0  0  0  0  0  0  0  0  0  0  0  0
  150.9352  142.7534  159.8892 H   0  0  0  0  0  0  0  0  0  0  0  0
  150.2650  145.4537  157.7268 H   0  0  0  0  0  0  0  0  0  0  0  0
  149.6649  144.1990  158.7921 H   0  0  0  0  0  0  0  0  0  0  0  0
  149.9656  139.6364  154.8533 H   0  0  0  0  0  0  0  0  0  0  0  0
  1  2  1  0  0  0  0
  1 19  1  0  0  0  0
  1 20  1  0  0  0  0
  1 21  1  0  0  0  0
  2  3  1  0  0  0  0
  2  4  1  0  0  0  0
  2 22  1  0  0  0  0
  3 23  1  0  0  0  0
  3 24  1  0  0  0  0
  3 25  1  0  0  0  0
  4 18  1  0  0  0  0
  4  5  2  0  0  0  0
  5  6  1  0  0  0  0
  5 37  1  0  0  0  0
  6  7  2  0  0  0  0
  6 26  1  0  0  0  0
  7  8  1  0  0  0  0
  7 27  1  0  0  0  0
  8  9  1  0  0  0  0
  8 18  2  0  0  0  0
  9 14  1  0  0  0  0
  9 10  1  0  0  0  0
 10 11  1  0  0  0  0
 10 28  1  0  0  0  0
 10 29  1  0  0  0  0
 11 12  1  0  0  0  0
 11 30  1  0  0  0  0
 11 31  1  0  0  0  0
 12 13  1  0  0  0  0
 13 14  1  0  0  0  0
 13 32  1  0  0  0  0
 13 33  1  0  0  0  0
 14 15  1  0  0  0  0
 14 34  1  0  0  0  0
 15 16  1  0  0  0  0
 15 17  2  0  0  0  0
 16 35  1  0  0  0  0
 16 36  1  0  0  0  0
M  CHG  1   5   1
M  END
> <s_m_source_file>
AV-unprocessed.smi

> <i_m_source_file_index>
2397

> <i_lp_mmshare_version>
43012

> <i_f3d_flags>
0

> <s_epik_input>
W0NIM11bQ0hdKFtDSDNdKWMxbltjSF1bY0hdYyhuMSlOMltDSDJdW0NIMl1PW0NIMl1bQ0BIXTJDKD1PKVtOSDJd

> <s_epik_cmdline>
J2VwaWtfcHl0aG9uJywgJy1waCcsICc3LjAnLCAnLXRuJywgJzgnLCAnLW1hJywgJzIwMCcsICctbWV0YWxfYmluZGluZycsICctaW1hZScsICc8aW5maWxlLm1hZT4nLCAnLW9tYWUnLCAnPG91dGZpbGUubWFlPic=

> <r_lp_tautomer_probability>
0.999336

> <r_epik_Ionization_Penalty>
1.74009

> <r_epik_Ionization_Penalty_Charging>
1.74009

> <r_epik_Ionization_Penalty_Neutral>
2.46902e-07

> <r_epik_State_Penalty>
1.8491

> <r_epik_Charging_Adjusted_Penalty>
3.5892

> <i_epik_Tot_Q>
1

> <i_epik_Tot_abs_Q>
1

> <r_epik_Metal_State_Penalty>
1.87997

> <b_epik_Metal_Only>
0

> <s_lp_Force_Field>
OPLS_2005

> <r_lp_Energy>
12.3684

> <b_lp_Chiralities_Consistent>
1

> <s_lp_Variant>
AV-unprocessed.smi:2397-3

> <Gold.Version>
5.8.1

> <Gold.Id.Protein>
6NUR|6NUR_protein|mol2

> <Gold.PLP.Fitness>
37.2540

> <Gold.PLP.PLP>
-35.2976

> <Gold.PLP.part.hbond>
-2.9509

> <Gold.PLP.part.metal>
0.0000

> <Gold.PLP.part.buried>
-3.6270

> <Gold.PLP.part.nonpolar>
-29.0869

> <Gold.PLP.part.repulsive>
0.2951

> <Gold.PLP.ligand.clash>
0.0000

> <Gold.PLP.ligand.torsion>
0.6642

> <Gold.PLP.Chemscore.Hbond>
1.0034

> <Gold.PLP.Chemscore.CHOScore>
0.0000

> <Gold.PLP.Chemscore.Metal>
0.0000

> <Gold.Chemscore.Hbonds>
donor molecule, donor type, donor heavy atom, donor atom, acceptor molecule, acceptor atom, score
      P1  H  7997  8009       L1    18  0.99

> <Gold.PLP.Chemscore.Internal.Correction>
0.2745

> <Gold.Rescore>
     Score         DG    S(hbond)    S(metal)    S(lipo)     H(rot)  DE(clash)    DE(int)     intcor
     11.50     -12.53       0.84        0.00      75.07       1.77       0.36       0.67       ----

> <Gold.Chemscore.Fitness>
11.5026

> <Gold.Chemscore.DG>
-12.5342

> <Gold.Chemscore.ZeroCoef>
-5.4800

> <Gold.Chemscore.Hbond>
0.8402

> <Gold.Chemscore.Metal>
0.0000

> <Gold.Chemscore.Lipo>
75.0726

> <Gold.Chemscore.Internal_Hbond>
0.0000

> <Gold.Chemscore.DEClash>
0.3587

> <Gold.Chemscore.DEInternal>
0.6729

> <Gold.Chemscore.Rot>
1.7717

> <Gold.Chemscore.Internal.Correction>
   9.000000E+99

> <Gold.Chemscore.Hbonds>
donor molecule, donor type, donor heavy atom, donor atom, acceptor molecule, acceptor atom, score
      P1  H  7997  8009       L1    18  0.45

> <Gold.Chemscore.Hbond.Weighted>
-2.8063

> <Gold.Chemscore.Metal.Weighted>
-0.0000

> <Gold.Chemscore.Lipo.Weighted>
-8.7835

> <Gold.Chemscore.Internal_Hbond.Weighted>
0.0000

> <Gold.Chemscore.DEClash.Weighted>
0.3587

> <Gold.Chemscore.DEInternal.Weighted>
0.6729

> <Gold.Chemscore.Rot.Weighted>
4.5357

> <Gold.Chemscore.Internal.Correction.Weighted>
   9.000000E+99

> <Gold.Protein.RotatedTorsions>
[ 6907 6896 6895 6894 ] final  -38.25 input  -60.11 | X-H torsion
[ 7974 7965 7964 7962 ] final  -75.80 input  175.53 | X-H torsion
[ 8008 7997 7996 7995 ] final -171.13 input   59.86 | X-H torsion
[ 10167 10162 10161 10158 ] final  176.41 input  -65.29 | X-H torsion
[ 10718 10713 10712 10709 ] final  104.58 input   66.30 | X-H torsion
[ 10763 10752 10751 10750 ] final -120.29 input  -60.55 | X-H torsion
[ 11005 11000 10999 10996 ] final  163.27 input  -57.11 | X-H torsion

> <Gold.Protein.ActiveResidues>
 VAL166  LYS551  ARG553  GLY616  TRP617  ASP618  TYR619  PRO620  LYS621  CYS622 
 ASP623  PHE694  ASN695  SER759  ASP760  ASP761  ALA762  ILE779  LEU786  VAL792 
 PHE793  MET794  SER795  GLU796  ALA797  LYS798  CYS799  TRP800  GLU811  SER814 

> <Gold.Protein.RotatedAtoms>
  151.0048  134.9350  159.7973 H   0  0  0  0  0  0  0  0  0  0  0  0  # atno 6907 bound_to 6896
  152.5287  134.3107  159.9122 H   0  0  0  0  0  0  0  0  0  0  0  0  # atno 6908 bound_to 6896
  151.3112  133.4038  159.2681 H   0  0  0  0  0  0  0  0  0  0  0  0  # atno 6909 bound_to 6896
  145.6212  140.9362  143.1137 H   0  0  0  0  0  0  0  0  0  0  0  0  # atno 7974 bound_to 7965
  155.9275  140.1085  157.1158 H   0  0  0  0  0  0  0  0  0  0  0  0  # atno 8008 bound_to 7997
  154.4065  140.1244  156.4825 H   0  0  0  0  0  0  0  0  0  0  0  0  # atno 8009 bound_to 7997
  155.7120  140.3471  155.4980 H   0  0  0  0  0  0  0  0  0  0  0  0  # atno 8010 bound_to 7997
  139.5213  144.2918  152.0456 H   0  0  0  0  0  0  0  0  0  0  0  0  # atno 10167 bound_to 10162
  157.6735  131.0807  150.5728 H   0  0  0  0  0  0  0  0  0  0  0  0  # atno 10718 bound_to 10713
  154.8640  135.4208  154.2436 H   0  0  0  0  0  0  0  0  0  0  0  0  # atno 10763 bound_to 10752
  153.3396  135.6993  153.6884 H   0  0  0  0  0  0  0  0  0  0  0  0  # atno 10764 bound_to 10752
  153.5867  135.3562  155.2868 H   0  0  0  0  0  0  0  0  0  0  0  0  # atno 10765 bound_to 10752
  140.2341  134.8101  157.3346 H   0  0  0  0  0  0  0  0  0  0  0  0  # atno 11005 bound_to 11000
  144.7230  139.7967  143.7375 LP  0  0  0  0  0  0  0  0  0  0  0  0  # atno 17320 bound_to 7965
  146.1429  139.4491  143.0097 LP  0  0  0  0  0  0  0  0  0  0  0  0  # atno 17321 bound_to 7965
  140.2369  144.4310  150.6276 LP  0  0  0  0  0  0  0  0  0  0  0  0  # atno 17342 bound_to 10162
  140.6317  143.2188  151.6481 LP  0  0  0  0  0  0  0  0  0  0  0  0  # atno 17343 bound_to 10162
  156.6029  130.4359  149.5890 LP  0  0  0  0  0  0  0  0  0  0  0  0  # atno 17370 bound_to 10713
  156.2492  130.6897  151.1628 LP  0  0  0  0  0  0  0  0  0  0  0  0  # atno 17371 bound_to 10713
  140.1720  134.4596  155.7825 LP  0  0  0  0  0  0  0  0  0  0  0  0  # atno 17394 bound_to 11000
  141.2215  133.6946  156.7724 LP  0  0  0  0  0  0  0  0  0  0  0  0  # atno 17395 bound_to 11000

$$$$
