AV-unprocessed.smi:1487|AV-procd|sdf|6021|dock6
  -GOLD-   22720 6123D 1   1.00000     0.00000
 Structure written by MMmdl.
 49 51  0  0  0  0  0  0  0  0  3 V2000
  152.5985  142.2949  161.1615 C   0  0  0  0  0  0  0  0  0  0  0  0
  152.2801  141.7736  159.7704 C   0  0  0  0  0  0  0  0  0  0  0  0
  151.3869  142.5119  158.9621 C   0  0  0  0  0  0  0  0  0  0  0  0
  151.1142  142.0094  157.6954 C   0  0  0  0  0  0  0  0  0  0  0  0
  150.2902  142.4957  156.6786 N   0  3  0  0  0  0  0  0  0  0  0  0
  150.3410  141.6534  155.6102 C   0  0  0  0  0  0  0  0  0  0  0  0
  151.1902  140.6378  155.9268 N   0  0  0  0  0  0  0  0  0  0  0  0
  151.5799  139.4643  155.1319 C   0  0  0  0  0  0  0  0  0  0  0  0
  150.3846  138.5747  154.7340 C   0  0  2  0  0  0  0  0  0  0  0  0
  150.8888  137.5564  153.8934 O   0  0  0  0  0  0  0  0  0  0  0  0
  149.2660  139.3402  153.9909 C   0  0  0  0  0  0  0  0  0  0  0  0
  148.3575  138.4528  153.2191 N   0  3  2  0  0  0  0  0  0  0  0  0
  147.5283  139.2147  152.2485 C   0  0  0  0  0  0  0  0  0  0  0  0
  146.7023  138.2713  151.3583 C   0  0  0  0  0  0  0  0  0  0  0  0
  145.8249  137.3437  152.2079 C   0  0  0  0  0  0  0  0  0  0  0  0
  146.6962  136.5887  153.2224 C   0  0  2  0  0  0  0  0  0  0  0  0
  145.8689  135.8104  154.0605 O   0  0  0  0  0  0  0  0  0  0  0  0
  147.5210  137.5696  154.0763 C   0  0  0  0  0  0  0  0  0  0  0  0
  151.6937  140.8156  157.2222 C   0  0  0  0  0  0  0  0  0  0  0  0
  152.5765  140.0761  158.0072 C   0  0  0  0  0  0  0  0  0  0  0  0
  152.8674  140.5713  159.2986 C   0  0  0  0  0  0  0  0  0  0  0  0
  153.8268  139.7858  160.1764 C   0  0  0  0  0  0  0  0  0  0  0  0
  152.0807  143.2329  161.3641 H   0  0  0  0  0  0  0  0  0  0  0  0
  153.6682  142.4759  161.2685 H   0  0  0  0  0  0  0  0  0  0  0  0
  152.2910  141.5743  161.9198 H   0  0  0  0  0  0  0  0  0  0  0  0
  150.9347  143.4273  159.3156 H   0  0  0  0  0  0  0  0  0  0  0  0
  149.8005  141.7682  154.6813 H   0  0  0  0  0  0  0  0  0  0  0  0
  152.1392  139.7897  154.2546 H   0  0  0  0  0  0  0  0  0  0  0  0
  152.2818  138.8911  155.7395 H   0  0  0  0  0  0  0  0  0  0  0  0
  149.9960  138.1054  155.6371 H   0  0  0  0  0  0  0  0  0  0  0  0
  150.3860  137.5376  153.0936 H   0  0  0  0  0  0  0  0  0  0  0  0
  148.6670  139.9280  154.6873 H   0  0  0  0  0  0  0  0  0  0  0  0
  149.7364  140.0556  153.3147 H   0  0  0  0  0  0  0  0  0  0  0  0
  146.8694  139.8971  152.7879 H   0  0  0  0  0  0  0  0  0  0  0  0
  148.1700  139.8284  151.6148 H   0  0  0  0  0  0  0  0  0  0  0  0
  146.0794  138.8514  150.6767 H   0  0  0  0  0  0  0  0  0  0  0  0
  147.3710  137.6757  150.7355 H   0  0  0  0  0  0  0  0  0  0  0  0
  145.0676  137.9323  152.7280 H   0  0  0  0  0  0  0  0  0  0  0  0
  145.2906  136.6415  151.5667 H   0  0  0  0  0  0  0  0  0  0  0  0
  147.3684  135.9132  152.6913 H   0  0  0  0  0  0  0  0  0  0  0  0
  145.7580  136.2602  154.8844 H   0  0  0  0  0  0  0  0  0  0  0  0
  148.1480  136.9998  154.7606 H   0  0  0  0  0  0  0  0  0  0  0  0
  146.8605  138.1842  154.6908 H   0  0  0  0  0  0  0  0  0  0  0  0
  153.0263  139.1603  157.6539 H   0  0  0  0  0  0  0  0  0  0  0  0
  154.1799  138.8836  159.6763 H   0  0  0  0  0  0  0  0  0  0  0  0
  153.3376  139.4827  161.1024 H   0  0  0  0  0  0  0  0  0  0  0  0
  154.6986  140.3907  160.4270 H   0  0  0  0  0  0  0  0  0  0  0  0
  148.9500  137.8516  152.6646 H   0  0  0  0  0  0  0  0  0  0  0  0
  149.7279  143.3367  156.7123 H   0  0  0  0  0  0  0  0  0  0  0  0
  1  2  1  0  0  0  0
  1 23  1  0  0  0  0
  1 24  1  0  0  0  0
  1 25  1  0  0  0  0
  2 21  1  0  0  0  0
  2  3  2  0  0  0  0
  3  4  1  0  0  0  0
  3 26  1  0  0  0  0
  4 19  2  0  0  0  0
  4  5  1  0  0  0  0
  5  6  2  0  0  0  0
  5 49  1  0  0  0  0
  6  7  1  0  0  0  0
  6 27  1  0  0  0  0
  7  8  1  0  0  0  0
  7 19  1  0  0  0  0
  8  9  1  0  0  0  0
  8 28  1  0  0  0  0
  8 29  1  0  0  0  0
  9 10  1  0  0  0  0
  9 11  1  0  0  0  0
  9 30  1  0  0  0  0
 10 31  1  0  0  0  0
 11 12  1  0  0  0  0
 11 32  1  0  0  0  0
 11 33  1  0  0  0  0
 12 18  1  0  0  0  0
 12 13  1  0  0  0  0
 12 48  1  0  0  0  0
 13 14  1  0  0  0  0
 13 34  1  0  0  0  0
 13 35  1  0  0  0  0
 14 15  1  0  0  0  0
 14 36  1  0  0  0  0
 14 37  1  0  0  0  0
 15 16  1  0  0  0  0
 15 38  1  0  0  0  0
 15 39  1  0  0  0  0
 16 17  1  0  0  0  0
 16 18  1  0  0  0  0
 16 40  1  0  0  0  0
 17 41  1  0  0  0  0
 18 42  1  0  0  0  0
 18 43  1  0  0  0  0
 19 20  1  0  0  0  0
 20 21  2  0  0  0  0
 20 44  1  0  0  0  0
 21 22  1  0  0  0  0
 22 45  1  0  0  0  0
 22 46  1  0  0  0  0
 22 47  1  0  0  0  0
M  CHG  1   5   1
M  CHG  1  12   1
M  END
> <s_m_source_file>
AV-unprocessed.smi

> <i_m_source_file_index>
1487

> <i_lp_mmshare_version>
43012

> <i_f3d_flags>
0

> <s_epik_input>
W0NIM11jKFtjSF0xKWMoW0NIM10pW2NIXWMoYzEyKW4oW2NIXW4yKVtDSDJdW0NASF0oW09IXSlbQ0gyXU4zW0NIMl1bQ0gyXVtDSDJdW0NAQEhdKFtPSF0pW0NIMl0z

> <s_epik_cmdline>
J2VwaWtfcHl0aG9uJywgJy1waCcsICc3LjAnLCAnLXRuJywgJzgnLCAnLW1hJywgJzIwMCcsICctbWV0YWxfYmluZGluZycsICctaW1hZScsICc8aW5maWxlLm1hZT4nLCAnLW9tYWUnLCAnPG91dGZpbGUubWFlPic=

> <r_epik_Ionization_Penalty>
1.1857

> <r_epik_Ionization_Penalty_Charging>
1.1857

> <r_epik_Ionization_Penalty_Neutral>
1.75578e-06

> <r_epik_State_Penalty>
1.26953

> <r_epik_Charging_Adjusted_Penalty>
2.45524

> <i_epik_Tot_Q>
2

> <i_epik_Tot_abs_Q>
2

> <r_epik_Metal_State_Penalty>
5.28243

> <b_epik_Metal_Only>
0

> <s_lp_Force_Field>
OPLS_2005

> <r_lp_Energy>
34.3912

> <b_lp_Chiralities_Consistent>
1

> <s_lp_Variant>
AV-unprocessed.smi:1487-15

> <Gold.Version>
5.8.1

> <Gold.Id.Protein>
6NUR|6NUR_protein|mol2

> <Gold.PLP.Fitness>
57.0484

> <Gold.PLP.PLP>
-42.4886

> <Gold.PLP.part.hbond>
-4.1169

> <Gold.PLP.part.metal>
0.0000

> <Gold.PLP.part.buried>
0.2713

> <Gold.PLP.part.nonpolar>
-38.3302

> <Gold.PLP.part.repulsive>
0.0988

> <Gold.PLP.ligand.clash>
0.0000

> <Gold.PLP.ligand.torsion>
0.2522

> <Gold.PLP.Chemscore.Hbond>
5.0000

> <Gold.PLP.Chemscore.CHOScore>
0.0000

> <Gold.PLP.Chemscore.Metal>
0.0000

> <Gold.Chemscore.Hbonds>
donor molecule, donor type, donor heavy atom, donor atom, acceptor molecule, acceptor atom, score
      L1  H     5    49       P1  8028  1.82
      L1  H    10    31       P1  7948  0.24
      L1  H    12    48       P1  7948  1.70

> <Gold.PLP.Chemscore.Internal.Correction>
0.0641

> <Gold.Rescore>
     Score         DG    S(hbond)    S(metal)    S(lipo)     H(rot)  DE(clash)    DE(int)     intcor
     19.46     -20.60       2.88        0.00     107.02       2.74       0.62       0.53       ----

> <Gold.Chemscore.Fitness>
19.4552

> <Gold.Chemscore.DG>
-20.6041

> <Gold.Chemscore.ZeroCoef>
-5.4800

> <Gold.Chemscore.Hbond>
2.8780

> <Gold.Chemscore.Metal>
0.0000

> <Gold.Chemscore.Lipo>
107.0243

> <Gold.Chemscore.Internal_Hbond>
0.0000

> <Gold.Chemscore.DEClash>
0.6187

> <Gold.Chemscore.DEInternal>
0.5301

> <Gold.Chemscore.Rot>
2.7384

> <Gold.Chemscore.Internal.Correction>
   9.000000E+99

> <Gold.Chemscore.Hbonds>
donor molecule, donor type, donor heavy atom, donor atom, acceptor molecule, acceptor atom, score
      L1  H     5    49       P1  8028  0.89
      L1  H    10    31       P1  7948  0.02
      L1  H    12    48       P1  7948  0.85

> <Gold.Chemscore.Hbond.Weighted>
-9.6126

> <Gold.Chemscore.Metal.Weighted>
-0.0000

> <Gold.Chemscore.Lipo.Weighted>
-12.5218

> <Gold.Chemscore.Internal_Hbond.Weighted>
0.0000

> <Gold.Chemscore.DEClash.Weighted>
0.6187

> <Gold.Chemscore.DEInternal.Weighted>
0.5301

> <Gold.Chemscore.Rot.Weighted>
7.0103

> <Gold.Chemscore.Internal.Correction.Weighted>
   9.000000E+99

> <Gold.Protein.RotatedTorsions>
[ 6907 6896 6895 6894 ] final -108.32 input  -60.11 | X-H torsion
[ 7974 7965 7964 7962 ] final   94.82 input  175.53 | X-H torsion
[ 8008 7997 7996 7995 ] final  153.17 input   59.86 | X-H torsion
[ 10167 10162 10161 10158 ] final  -31.64 input  -65.29 | X-H torsion
[ 10718 10713 10712 10709 ] final   64.18 input   66.30 | X-H torsion
[ 10763 10752 10751 10750 ] final -178.56 input  -60.55 | X-H torsion
[ 11005 11000 10999 10996 ] final  -16.14 input  -57.11 | X-H torsion

> <Gold.Protein.ActiveResidues>
 VAL166  LYS551  ARG553  GLY616  TRP617  ASP618  TYR619  PRO620  LYS621  CYS622 
 ASP623  PHE694  ASN695  SER759  ASP760  ASP761  ALA762  ILE779  LEU786  VAL792 
 PHE793  MET794  SER795  GLU796  ALA797  LYS798  CYS799  TRP800  GLU811  SER814 

> <Gold.Protein.RotatedAtoms>
  150.7495  133.9695  159.3540 H   0  0  0  0  0  0  0  0  0  0  0  0  # atno 6907 bound_to 6896
  151.7627  135.0804  160.0357 H   0  0  0  0  0  0  0  0  0  0  0  0  # atno 6908 bound_to 6896
  152.3392  133.6010  159.5900 H   0  0  0  0  0  0  0  0  0  0  0  0  # atno 6909 bound_to 6896
  145.4605  139.2287  143.2990 H   0  0  0  0  0  0  0  0  0  0  0  0  # atno 7974 bound_to 7965
  156.2594  140.2001  156.6448 H   0  0  0  0  0  0  0  0  0  0  0  0  # atno 8008 bound_to 7997
  154.6582  140.0564  157.0057 H   0  0  0  0  0  0  0  0  0  0  0  0  # atno 8009 bound_to 7997
  155.1316  140.3234  155.4475 H   0  0  0  0  0  0  0  0  0  0  0  0  # atno 8010 bound_to 7997
  140.7233  143.3755  151.1698 H   0  0  0  0  0  0  0  0  0  0  0  0  # atno 10167 bound_to 10162
  157.6022  130.9146  149.9812 H   0  0  0  0  0  0  0  0  0  0  0  0  # atno 10718 bound_to 10713
  154.5462  135.2809  155.1051 H   0  0  0  0  0  0  0  0  0  0  0  0  # atno 10763 bound_to 10752
  154.2514  135.6338  153.5245 H   0  0  0  0  0  0  0  0  0  0  0  0  # atno 10764 bound_to 10752
  152.9991  135.5583  154.6015 H   0  0  0  0  0  0  0  0  0  0  0  0  # atno 10765 bound_to 10752
  140.8038  133.8194  155.9495 H   0  0  0  0  0  0  0  0  0  0  0  0  # atno 11005 bound_to 11000
  146.2454  140.5373  142.8916 LP  0  0  0  0  0  0  0  0  0  0  0  0  # atno 17320 bound_to 7965
  144.8006  140.6205  143.6481 LP  0  0  0  0  0  0  0  0  0  0  0  0  # atno 17321 bound_to 7965
  139.7334  143.9036  152.3027 LP  0  0  0  0  0  0  0  0  0  0  0  0  # atno 17342 bound_to 10162
  139.8833  144.7005  150.8853 LP  0  0  0  0  0  0  0  0  0  0  0  0  # atno 17343 bound_to 10162
  156.1098  130.3650  150.0069 LP  0  0  0  0  0  0  0  0  0  0  0  0  # atno 17370 bound_to 10713
  156.8169  130.9345  151.3642 LP  0  0  0  0  0  0  0  0  0  0  0  0  # atno 17371 bound_to 10713
  140.9268  134.2072  157.4890 LP  0  0  0  0  0  0  0  0  0  0  0  0  # atno 17394 bound_to 11000
  139.8719  134.9816  156.5122 LP  0  0  0  0  0  0  0  0  0  0  0  0  # atno 17395 bound_to 11000

$$$$
