AV-unprocessed.smi:671|AV-procd|sdf|3281|dock2
  -GOLD-   22720 0243D 1   1.00000     0.00000
 Structure written by MMmdl.
 50 51  0  0  0  0  0  0  0  0  2 V2000
  147.9022  141.6828  153.8220 C   0  0  0  0  0  0  0  0  0  0  0  0
  149.0222  141.4178  154.7717 C   0  0  0  0  0  0  0  0  0  0  0  0
  149.5560  142.3457  155.6100 N   0  3  0  0  0  0  0  0  0  0  0  0
  150.5430  141.8011  156.3351 N   0  0  0  0  0  0  0  0  0  0  0  0
  151.2498  142.6432  157.3006 C   0  0  0  0  0  0  0  0  0  0  0  0
  150.7044  140.4881  156.0029 C   0  0  0  0  0  0  0  0  0  0  0  0
  151.7190  139.5811  156.6204 C   0  0  0  0  0  0  0  0  0  0  0  0
  149.7413  140.2419  155.0143 C   0  0  0  0  0  0  0  0  0  0  0  0
  149.4985  138.9353  154.3118 C   0  0  0  0  0  0  0  0  0  0  0  0
  148.2517  138.1923  154.8416 C   0  0  2  0  0  0  0  0  0  0  0  0
  148.4375  137.6807  156.2787 C   0  0  0  0  0  0  0  0  0  0  0  0
  147.9207  137.0579  153.9756 N   0  0  0  0  0  0  0  0  0  0  0  0
  146.8271  136.2742  154.0152 C   0  0  0  0  0  0  0  0  0  0  0  0
  145.9446  136.4359  154.8555 O   0  0  0  0  0  0  0  0  0  0  0  0
  146.8010  135.3044  153.0854 N   0  0  0  0  0  0  0  0  0  0  0  0
  145.7333  134.3268  152.8976 C   0  0  2  0  0  0  0  0  0  0  0  0
  146.2267  132.9120  153.2568 C   0  0  0  0  0  0  0  0  0  0  0  0
  146.2587  132.1244  151.9461 C   0  0  0  0  0  0  0  0  0  0  0  0
  145.1799  132.7787  151.0897 C   0  0  0  0  0  0  0  0  0  0  0  0
  145.2975  134.2697  151.4176 C   0  0  1  0  0  0  0  0  0  0  0  0
  144.0224  135.0692  151.1174 C   0  0  0  0  0  0  0  0  0  0  0  0
  147.0326  141.0810  154.0866 H   0  0  0  0  0  0  0  0  0  0  0  0
  148.2048  141.4291  152.8063 H   0  0  0  0  0  0  0  0  0  0  0  0
  147.6161  142.7348  153.8444 H   0  0  0  0  0  0  0  0  0  0  0  0
  151.7927  142.0172  158.0088 H   0  0  0  0  0  0  0  0  0  0  0  0
  150.5312  143.2577  157.8442 H   0  0  0  0  0  0  0  0  0  0  0  0
  151.9530  143.2837  156.7674 H   0  0  0  0  0  0  0  0  0  0  0  0
  151.6636  138.5793  156.1965 H   0  0  0  0  0  0  0  0  0  0  0  0
  151.5496  139.5058  157.6946 H   0  0  0  0  0  0  0  0  0  0  0  0
  152.7226  139.9718  156.4522 H   0  0  0  0  0  0  0  0  0  0  0  0
  149.3858  139.1299  153.2450 H   0  0  0  0  0  0  0  0  0  0  0  0
  150.3716  138.2870  154.3841 H   0  0  0  0  0  0  0  0  0  0  0  0
  147.4024  138.8773  154.8508 H   0  0  0  0  0  0  0  0  0  0  0  0
  148.6126  138.5011  156.9744 H   0  0  0  0  0  0  0  0  0  0  0  0
  149.2829  136.9954  156.3514 H   0  0  0  0  0  0  0  0  0  0  0  0
  147.5493  137.1497  156.6231 H   0  0  0  0  0  0  0  0  0  0  0  0
  148.6367  136.7891  153.3156 H   0  0  0  0  0  0  0  0  0  0  0  0
  147.5790  135.2486  152.4454 H   0  0  0  0  0  0  0  0  0  0  0  0
  144.8785  134.5582  153.5359 H   0  0  0  0  0  0  0  0  0  0  0  0
  147.1949  132.9046  153.7594 H   0  0  0  0  0  0  0  0  0  0  0  0
  145.5132  132.4471  153.9386 H   0  0  0  0  0  0  0  0  0  0  0  0
  147.2302  132.2442  151.4652 H   0  0  0  0  0  0  0  0  0  0  0  0
  146.0889  131.0574  152.0937 H   0  0  0  0  0  0  0  0  0  0  0  0
  145.3071  132.5721  150.0266 H   0  0  0  0  0  0  0  0  0  0  0  0
  144.2002  132.4020  151.3879 H   0  0  0  0  0  0  0  0  0  0  0  0
  146.1021  134.6683  150.7965 H   0  0  0  0  0  0  0  0  0  0  0  0
  143.1741  134.6950  151.6913 H   0  0  0  0  0  0  0  0  0  0  0  0
  143.7635  135.0089  150.0601 H   0  0  0  0  0  0  0  0  0  0  0  0
  144.1556  136.1218  151.3679 H   0  0  0  0  0  0  0  0  0  0  0  0
  149.2981  143.3179  155.7236 H   0  0  0  0  0  0  0  0  0  0  0  0
  1  2  1  0  0  0  0
  1 22  1  0  0  0  0
  1 23  1  0  0  0  0
  1 24  1  0  0  0  0
  2  8  1  0  0  0  0
  2  3  2  0  0  0  0
  3  4  1  0  0  0  0
  3 50  1  0  0  0  0
  4  5  1  0  0  0  0
  4  6  1  0  0  0  0
  5 25  1  0  0  0  0
  5 26  1  0  0  0  0
  5 27  1  0  0  0  0
  6  7  1  0  0  0  0
  6  8  2  0  0  0  0
  7 28  1  0  0  0  0
  7 29  1  0  0  0  0
  7 30  1  0  0  0  0
  8  9  1  0  0  0  0
  9 10  1  0  0  0  0
  9 31  1  0  0  0  0
  9 32  1  0  0  0  0
 10 11  1  0  0  0  0
 10 12  1  0  0  0  0
 10 33  1  0  0  0  0
 11 34  1  0  0  0  0
 11 35  1  0  0  0  0
 11 36  1  0  0  0  0
 12 13  1  0  0  0  0
 12 37  1  0  0  0  0
 13 14  2  0  0  0  0
 13 15  1  0  0  0  0
 15 16  1  0  0  0  0
 15 38  1  0  0  0  0
 16 20  1  0  0  0  0
 16 17  1  0  0  0  0
 16 39  1  0  0  0  0
 17 18  1  0  0  0  0
 17 40  1  0  0  0  0
 17 41  1  0  0  0  0
 18 19  1  0  0  0  0
 18 42  1  0  0  0  0
 18 43  1  0  0  0  0
 19 20  1  0  0  0  0
 19 44  1  0  0  0  0
 19 45  1  0  0  0  0
 20 21  1  0  0  0  0
 20 46  1  0  0  0  0
 21 47  1  0  0  0  0
 21 48  1  0  0  0  0
 21 49  1  0  0  0  0
M  CHG  1   3   1
M  END
> <s_m_source_file>
AV-unprocessed.smi

> <i_m_source_file_index>
671

> <i_lp_mmshare_version>
43012

> <i_f3d_flags>
0

> <s_epik_input>
W0NIM11jMW5uKFtDSDNdKWMoW0NIM10pYzFbQ0gyXVtDQEhdKFtDSDNdKVtOSF1DKD1PKVtOSF1bQ0BASF0yW0NIMl1bQ0gyXVtDSDJdW0NASF0yW0NIM10=

> <s_epik_cmdline>
J2VwaWtfcHl0aG9uJywgJy1waCcsICc3LjAnLCAnLXRuJywgJzgnLCAnLW1hJywgJzIwMCcsICctbWV0YWxfYmluZGluZycsICctaW1hZScsICc8aW5maWxlLm1hZT4nLCAnLW9tYWUnLCAnPG91dGZpbGUubWFlPic=

> <r_lp_tautomer_probability>
1

> <r_epik_Ionization_Penalty>
2.28705

> <r_epik_Ionization_Penalty_Charging>
2.28698

> <r_epik_Ionization_Penalty_Neutral>
6.23157e-05

> <r_epik_State_Penalty>
2.43671

> <r_epik_Charging_Adjusted_Penalty>
4.72369

> <i_epik_Tot_Q>
1

> <i_epik_Tot_abs_Q>
1

> <r_epik_Metal_State_Penalty>
2.44911

> <b_epik_Metal_Only>
0

> <s_lp_Force_Field>
OPLS_2005

> <r_lp_Energy>
34.9772

> <b_lp_Chiralities_Consistent>
1

> <s_lp_Variant>
AV-unprocessed.smi:671-9

> <Gold.Version>
5.8.1

> <Gold.Id.Protein>
6NUR|6NUR_protein|mol2

> <Gold.PLP.Fitness>
44.7481

> <Gold.PLP.PLP>
-34.0469

> <Gold.PLP.part.hbond>
-2.6894

> <Gold.PLP.part.metal>
0.0000

> <Gold.PLP.part.buried>
-4.6762

> <Gold.PLP.part.nonpolar>
-27.9892

> <Gold.PLP.part.repulsive>
0.2030

> <Gold.PLP.ligand.clash>
0.0000

> <Gold.PLP.ligand.torsion>
0.3865

> <Gold.PLP.Chemscore.Hbond>
3.8065

> <Gold.PLP.Chemscore.CHOScore>
0.0000

> <Gold.PLP.Chemscore.Metal>
0.0000

> <Gold.Chemscore.Hbonds>
donor molecule, donor type, donor heavy atom, donor atom, acceptor molecule, acceptor atom, score
      L1  H     3    50       P1  8028  1.66
      L1  H    12    37       P1  7948  0.94
      L1  H    15    38       P1  7948  0.85

> <Gold.PLP.Chemscore.Internal.Correction>
0.0547

> <Gold.Rescore>
     Score         DG    S(hbond)    S(metal)    S(lipo)     H(rot)  DE(clash)    DE(int)     intcor
     19.83     -20.34       2.78        0.00      80.71       1.51       0.03       0.48       ----

> <Gold.Chemscore.Fitness>
19.8311

> <Gold.Chemscore.DG>
-20.3402

> <Gold.Chemscore.ZeroCoef>
-5.4800

> <Gold.Chemscore.Hbond>
2.7760

> <Gold.Chemscore.Metal>
0.0000

> <Gold.Chemscore.Lipo>
80.7106

> <Gold.Chemscore.Internal_Hbond>
0.0000

> <Gold.Chemscore.DEClash>
0.0323

> <Gold.Chemscore.DEInternal>
0.4768

> <Gold.Chemscore.Rot>
1.5057

> <Gold.Chemscore.Internal.Correction>
   9.000000E+99

> <Gold.Chemscore.Hbonds>
donor molecule, donor type, donor heavy atom, donor atom, acceptor molecule, acceptor atom, score
      L1  H     3    50       P1  8028  0.82
      L1  H    12    37       P1  7948  0.89
      L1  H    15    38       P1  7948  0.83

> <Gold.Chemscore.Hbond.Weighted>
-9.2717

> <Gold.Chemscore.Metal.Weighted>
-0.0000

> <Gold.Chemscore.Lipo.Weighted>
-9.4431

> <Gold.Chemscore.Internal_Hbond.Weighted>
0.0000

> <Gold.Chemscore.DEClash.Weighted>
0.0323

> <Gold.Chemscore.DEInternal.Weighted>
0.4768

> <Gold.Chemscore.Rot.Weighted>
3.8547

> <Gold.Chemscore.Internal.Correction.Weighted>
   9.000000E+99

> <Gold.Protein.RotatedTorsions>
[ 6907 6896 6895 6894 ] final  -16.18 input  -60.11 | X-H torsion
[ 7974 7965 7964 7962 ] final  151.15 input  175.53 | X-H torsion
[ 8008 7997 7996 7995 ] final  -98.73 input   59.86 | X-H torsion
[ 10167 10162 10161 10158 ] final -120.91 input  -65.29 | X-H torsion
[ 10718 10713 10712 10709 ] final   69.60 input   66.30 | X-H torsion
[ 10763 10752 10751 10750 ] final -170.00 input  -60.55 | X-H torsion
[ 11005 11000 10999 10996 ] final   62.13 input  -57.11 | X-H torsion

> <Gold.Protein.ActiveResidues>
 VAL166  LYS551  ARG553  GLY616  TRP617  ASP618  TYR619  PRO620  LYS621  CYS622 
 ASP623  PHE694  ASN695  SER759  ASP760  ASP761  ALA762  ILE779  LEU786  VAL792 
 PHE793  MET794  SER795  GLU796  ALA797  LYS798  CYS799  TRP800  GLU811  SER814 

> <Gold.Protein.RotatedAtoms>
  151.3126  135.0798  159.9277 H   0  0  0  0  0  0  0  0  0  0  0  0  # atno 6907 bound_to 6896
  152.5274  133.9720  159.7777 H   0  0  0  0  0  0  0  0  0  0  0  0  # atno 6908 bound_to 6896
  151.0027  133.5989  159.2723 H   0  0  0  0  0  0  0  0  0  0  0  0  # atno 6909 bound_to 6896
  144.8313  139.6500  143.6057 H   0  0  0  0  0  0  0  0  0  0  0  0  # atno 7974 bound_to 7965
  154.8051  140.0453  157.1302 H   0  0  0  0  0  0  0  0  0  0  0  0  # atno 8008 bound_to 7997
  154.9433  140.3055  155.5090 H   0  0  0  0  0  0  0  0  0  0  0  0  # atno 8009 bound_to 7997
  156.2966  140.2301  156.4504 H   0  0  0  0  0  0  0  0  0  0  0  0  # atno 8010 bound_to 7997
  140.0307  143.5251  152.2177 H   0  0  0  0  0  0  0  0  0  0  0  0  # atno 10167 bound_to 10162
  157.6354  130.9434  150.0535 H   0  0  0  0  0  0  0  0  0  0  0  0  # atno 10718 bound_to 10713
  154.6462  135.2905  155.0043 H   0  0  0  0  0  0  0  0  0  0  0  0  # atno 10763 bound_to 10752
  154.1152  135.6556  153.4896 H   0  0  0  0  0  0  0  0  0  0  0  0  # atno 10764 bound_to 10752
  153.0352  135.5274  154.7350 H   0  0  0  0  0  0  0  0  0  0  0  0  # atno 10765 bound_to 10752
  140.0113  134.6292  155.9776 H   0  0  0  0  0  0  0  0  0  0  0  0  # atno 11005 bound_to 11000
  146.2616  139.6423  142.9358 LP  0  0  0  0  0  0  0  0  0  0  0  0  # atno 17320 bound_to 7965
  145.4889  141.0438  143.2604 LP  0  0  0  0  0  0  0  0  0  0  0  0  # atno 17321 bound_to 7965
  139.6078  144.7601  151.3022 LP  0  0  0  0  0  0  0  0  0  0  0  0  # atno 17342 bound_to 10162
  140.7303  143.6884  150.7943 LP  0  0  0  0  0  0  0  0  0  0  0  0  # atno 17343 bound_to 10162
  156.1590  130.3643  149.9327 LP  0  0  0  0  0  0  0  0  0  0  0  0  # atno 17370 bound_to 10713
  156.7330  130.9050  151.3627 LP  0  0  0  0  0  0  0  0  0  0  0  0  # atno 17371 bound_to 10713
  141.1713  133.6537  156.4661 LP  0  0  0  0  0  0  0  0  0  0  0  0  # atno 17394 bound_to 11000
  140.4549  134.6894  157.5058 LP  0  0  0  0  0  0  0  0  0  0  0  0  # atno 17395 bound_to 11000

$$$$
