AV-unprocessed.smi:3287|AV-procd|sdf|12602|dock7
  -GOLD-   2272018533D 1   1.00000     0.00000
 Structure written by MMmdl.
 43 44  0  0  0  0  0  0  0  0  2 V2000
  151.1254  142.1887  156.8503 C   0  0  0  0  0  0  0  0  0  0  0  0
  150.5027  141.3735  155.7049 C   0  0  2  0  0  0  0  0  0  0  0  0
  148.9650  141.4769  155.6968 C   0  0  0  0  0  0  0  0  0  0  0  0
  148.3593  140.7311  154.4977 C   0  0  0  0  0  0  0  0  0  0  0  0
  148.7988  139.2569  154.4612 C   0  0  1  0  0  0  0  0  0  0  0  0
  148.2215  138.5945  153.2708 N   0  3  0  0  0  0  0  0  0  0  0  0
  146.7519  138.4270  153.2902 C   0  0  0  0  0  0  0  0  0  0  0  0
  146.1982  138.1588  151.8800 C   0  0  1  0  0  0  0  0  0  0  0  0
  147.2711  138.1753  150.9585 O   0  0  0  0  0  0  0  0  0  0  0  0
  145.4345  136.8447  151.8306 C   0  0  0  0  0  0  0  0  0  0  0  0
  144.3298  136.6091  152.6776 C   0  0  0  0  0  0  0  0  0  0  0  0
  143.6575  135.3743  152.5809 C   0  0  0  0  0  0  0  0  0  0  0  0
  144.0153  134.4016  151.7158 N   0  0  0  0  0  0  0  0  0  0  0  0
  145.0714  134.6324  150.9074 C   0  0  0  0  0  0  0  0  0  0  0  0
  145.8110  135.8321  150.9236 C   0  0  0  0  0  0  0  0  0  0  0  0
  150.3412  139.1597  154.4733 C   0  0  0  0  0  0  0  0  0  0  0  0
  150.9739  139.8969  155.6730 C   0  0  2  0  0  0  0  0  0  0  0  0
  150.7485  139.1320  156.9932 C   0  0  0  0  0  0  0  0  0  0  0  0
  150.7642  141.8601  157.8248 H   0  0  0  0  0  0  0  0  0  0  0  0
  150.8793  143.2466  156.7531 H   0  0  0  0  0  0  0  0  0  0  0  0
  152.2125  142.1044  156.8479 H   0  0  0  0  0  0  0  0  0  0  0  0
  150.8549  141.8342  154.7803 H   0  0  0  0  0  0  0  0  0  0  0  0
  148.5543  141.0781  156.6249 H   0  0  0  0  0  0  0  0  0  0  0  0
  148.6645  142.5247  155.6582 H   0  0  0  0  0  0  0  0  0  0  0  0
  147.2714  140.7956  154.5407 H   0  0  0  0  0  0  0  0  0  0  0  0
  148.6604  141.2299  153.5751 H   0  0  0  0  0  0  0  0  0  0  0  0
  148.3952  138.7634  155.3462 H   0  0  0  0  0  0  0  0  0  0  0  0
  148.4482  139.1592  152.4650 H   0  0  0  0  0  0  0  0  0  0  0  0
  146.4731  137.6146  153.9617 H   0  0  0  0  0  0  0  0  0  0  0  0
  146.3048  139.3386  153.6891 H   0  0  0  0  0  0  0  0  0  0  0  0
  145.5171  138.9643  151.6014 H   0  0  0  0  0  0  0  0  0  0  0  0
  147.8341  137.4378  151.1415 H   0  0  0  0  0  0  0  0  0  0  0  0
  144.0000  137.3544  153.3866 H   0  0  0  0  0  0  0  0  0  0  0  0
  142.8088  135.1634  153.2147 H   0  0  0  0  0  0  0  0  0  0  0  0
  145.3348  133.8374  150.2253 H   0  0  0  0  0  0  0  0  0  0  0  0
  146.6471  135.9654  150.2528 H   0  0  0  0  0  0  0  0  0  0  0  0
  150.6649  138.1190  154.4815 H   0  0  0  0  0  0  0  0  0  0  0  0
  150.7331  139.5872  153.5491 H   0  0  0  0  0  0  0  0  0  0  0  0
  152.0521  139.9034  155.5059 H   0  0  0  0  0  0  0  0  0  0  0  0
  149.7004  139.1205  157.2905 H   0  0  0  0  0  0  0  0  0  0  0  0
  151.3188  139.5713  157.8115 H   0  0  0  0  0  0  0  0  0  0  0  0
  151.0748  138.0957  156.9028 H   0  0  0  0  0  0  0  0  0  0  0  0
  148.6540  137.6885  153.1566 H   0  0  0  0  0  0  0  0  0  0  0  0
  1  2  1  0  0  0  0
  1 19  1  0  0  0  0
  1 20  1  0  0  0  0
  1 21  1  0  0  0  0
  2 17  1  0  0  0  0
  2  3  1  0  0  0  0
  2 22  1  0  0  0  0
  3  4  1  0  0  0  0
  3 23  1  0  0  0  0
  3 24  1  0  0  0  0
  4  5  1  0  0  0  0
  4 25  1  0  0  0  0
  4 26  1  0  0  0  0
  5  6  1  0  0  0  0
  5 16  1  0  0  0  0
  5 27  1  0  0  0  0
  6  7  1  0  0  0  0
  6 28  1  0  0  0  0
  6 43  1  0  0  0  0
  7  8  1  0  0  0  0
  7 29  1  0  0  0  0
  7 30  1  0  0  0  0
  8  9  1  0  0  0  0
  8 10  1  0  0  0  0
  8 31  1  0  0  0  0
  9 32  1  0  0  0  0
 10 15  1  0  0  0  0
 10 11  2  0  0  0  0
 11 12  1  0  0  0  0
 11 33  1  0  0  0  0
 12 13  2  0  0  0  0
 12 34  1  0  0  0  0
 13 14  1  0  0  0  0
 14 15  2  0  0  0  0
 14 35  1  0  0  0  0
 15 36  1  0  0  0  0
 16 17  1  0  0  0  0
 16 37  1  0  0  0  0
 16 38  1  0  0  0  0
 17 18  1  0  0  0  0
 17 39  1  0  0  0  0
 18 40  1  0  0  0  0
 18 41  1  0  0  0  0
 18 42  1  0  0  0  0
M  CHG  1   6   1
M  END
> <s_m_source_file>
AV-unprocessed.smi

> <i_m_source_file_index>
3287

> <i_lp_mmshare_version>
43012

> <i_f3d_flags>
0

> <s_epik_input>
W0NIM11bQ0BASF0xW0NIMl1bQ0gyXVtDQEhdKFtDSDJdW0NASF0xW0NIM10pW05IXVtDSDJdW0NASF0oW09IXSljMltjSF1bY0hdbltjSF1bY0hdMg==

> <s_epik_cmdline>
J2VwaWtfcHl0aG9uJywgJy1waCcsICc3LjAnLCAnLXRuJywgJzgnLCAnLW1hJywgJzIwMCcsICctbWV0YWxfYmluZGluZycsICctaW1hZScsICc8aW5maWxlLm1hZT4nLCAnLW9tYWUnLCAnPG91dGZpbGUubWFlPic=

> <r_lp_tautomer_probability>
1

> <r_epik_Ionization_Penalty>
0.00537262

> <r_epik_Ionization_Penalty_Charging>
0.00321624

> <r_epik_Ionization_Penalty_Neutral>
0.00215638

> <r_epik_State_Penalty>
-0

> <r_epik_Charging_Adjusted_Penalty>
0.00321624

> <i_epik_Tot_Q>
1

> <i_epik_Tot_abs_Q>
1

> <r_epik_Metal_State_Penalty>
-0

> <b_epik_Metal_Only>
0

> <s_lp_Force_Field>
OPLS_2005

> <r_lp_Energy>
17.6896

> <b_lp_Chiralities_Consistent>
1

> <s_lp_Variant>
AV-unprocessed.smi:3287-13

> <Gold.Version>
5.8.1

> <Gold.Id.Protein>
6NUR|6NUR_protein|mol2

> <Gold.PLP.Fitness>
47.8669

> <Gold.PLP.PLP>
-35.5320

> <Gold.PLP.part.hbond>
-4.8030

> <Gold.PLP.part.metal>
0.0000

> <Gold.PLP.part.buried>
-0.2918

> <Gold.PLP.part.nonpolar>
-30.1589

> <Gold.PLP.part.repulsive>
0.1954

> <Gold.PLP.ligand.clash>
0.0000

> <Gold.PLP.ligand.torsion>
0.8770

> <Gold.PLP.Chemscore.Hbond>
3.9760

> <Gold.PLP.Chemscore.CHOScore>
0.7159

> <Gold.PLP.Chemscore.Metal>
0.0000

> <Gold.Chemscore.Hbonds>
donor molecule, donor type, donor heavy atom, donor atom, acceptor molecule, acceptor atom, score
      L1  H     6    28       P1  7957  1.00
      L1  H     6    43       P1  7948  1.73
      L1  H     9    32       P1  7948  1.00
      L1  C    14    35       P1  7921  0.08

> <Gold.PLP.Chemscore.Internal.Correction>
0.0133

> <Gold.Rescore>
     Score         DG    S(hbond)    S(metal)    S(lipo)     H(rot)  DE(clash)    DE(int)     intcor
     19.95     -20.85       2.95        0.00      88.70       1.90       0.15       0.76       ----

> <Gold.Chemscore.Fitness>
19.9467

> <Gold.Chemscore.DG>
-20.8524

> <Gold.Chemscore.ZeroCoef>
-5.4800

> <Gold.Chemscore.Hbond>
2.9544

> <Gold.Chemscore.Metal>
0.0000

> <Gold.Chemscore.Lipo>
88.6974

> <Gold.Chemscore.Internal_Hbond>
0.0000

> <Gold.Chemscore.DEClash>
0.1458

> <Gold.Chemscore.DEInternal>
0.7600

> <Gold.Chemscore.Rot>
1.9035

> <Gold.Chemscore.Internal.Correction>
   9.000000E+99

> <Gold.Chemscore.Hbonds>
donor molecule, donor type, donor heavy atom, donor atom, acceptor molecule, acceptor atom, score
      L1  H     6    28       P1  7957  0.98
      L1  H     6    43       P1  7948  0.84
      L1  H     9    32       P1  7948  0.99

> <Gold.Chemscore.Hbond.Weighted>
-9.8677

> <Gold.Chemscore.Metal.Weighted>
-0.0000

> <Gold.Chemscore.Lipo.Weighted>
-10.3776

> <Gold.Chemscore.Internal_Hbond.Weighted>
0.0000

> <Gold.Chemscore.DEClash.Weighted>
0.1458

> <Gold.Chemscore.DEInternal.Weighted>
0.7600

> <Gold.Chemscore.Rot.Weighted>
4.8729

> <Gold.Chemscore.Internal.Correction.Weighted>
   9.000000E+99

> <Gold.Protein.RotatedTorsions>
[ 6907 6896 6895 6894 ] final   24.72 input  -60.11 | X-H torsion
[ 7974 7965 7964 7962 ] final -115.25 input  175.53 | X-H torsion
[ 8008 7997 7996 7995 ] final  -67.63 input   59.86 | X-H torsion
[ 10167 10162 10161 10158 ] final -161.17 input  -65.29 | X-H torsion
[ 10718 10713 10712 10709 ] final  -15.97 input   66.30 | X-H torsion
[ 10763 10752 10751 10750 ] final  -12.59 input  -60.55 | X-H torsion
[ 11005 11000 10999 10996 ] final  -82.23 input  -57.11 | X-H torsion

> <Gold.Protein.ActiveResidues>
 VAL166  LYS551  ARG553  GLY616  TRP617  ASP618  TYR619  PRO620  LYS621  CYS622 
 ASP623  PHE694  ASN695  SER759  ASP760  ASP761  ALA762  ILE779  LEU786  VAL792 
 PHE793  MET794  SER795  GLU796  ALA797  LYS798  CYS799  TRP800  GLU811  SER814 

> <Gold.Protein.RotatedAtoms>
  151.9618  135.0120  160.0547 H   0  0  0  0  0  0  0  0  0  0  0  0  # atno 6907 bound_to 6896
  152.1862  133.4736  159.4992 H   0  0  0  0  0  0  0  0  0  0  0  0  # atno 6908 bound_to 6896
  150.6926  134.1688  159.4247 H   0  0  0  0  0  0  0  0  0  0  0  0  # atno 6909 bound_to 6896
  145.1106  140.8609  143.3872 H   0  0  0  0  0  0  0  0  0  0  0  0  # atno 7974 bound_to 7965
  154.4813  140.0889  156.7383 H   0  0  0  0  0  0  0  0  0  0  0  0  # atno 8008 bound_to 7997
  155.4464  140.3455  155.4277 H   0  0  0  0  0  0  0  0  0  0  0  0  # atno 8009 bound_to 7997
  156.1195  140.1470  156.9213 H   0  0  0  0  0  0  0  0  0  0  0  0  # atno 8010 bound_to 7997
  139.6485  144.0128  152.2144 H   0  0  0  0  0  0  0  0  0  0  0  0  # atno 10167 bound_to 10162
  156.5943  130.4807  149.6266 H   0  0  0  0  0  0  0  0  0  0  0  0  # atno 10718 bound_to 10713
  153.5008  135.7017  153.5833 H   0  0  0  0  0  0  0  0  0  0  0  0  # atno 10763 bound_to 10752
  153.3965  135.3882  155.1959 H   0  0  0  0  0  0  0  0  0  0  0  0  # atno 10764 bound_to 10752
  154.8711  135.3871  154.4478 H   0  0  0  0  0  0  0  0  0  0  0  0  # atno 10765 bound_to 10752
  141.1664  133.7234  156.8540 H   0  0  0  0  0  0  0  0  0  0  0  0  # atno 11005 bound_to 11000
  145.0851  139.2931  143.5763 LP  0  0  0  0  0  0  0  0  0  0  0  0  # atno 17320 bound_to 7965
  146.3526  140.0370  142.8646 LP  0  0  0  0  0  0  0  0  0  0  0  0  # atno 17321 bound_to 7965
  139.9836  144.6411  150.7878 LP  0  0  0  0  0  0  0  0  0  0  0  0  # atno 17342 bound_to 10162
  140.7526  143.2993  151.3121 LP  0  0  0  0  0  0  0  0  0  0  0  0  # atno 17343 bound_to 10162
  156.2523  130.6914  151.1656 LP  0  0  0  0  0  0  0  0  0  0  0  0  # atno 17370 bound_to 10713
  157.7296  131.0623  150.5767 LP  0  0  0  0  0  0  0  0  0  0  0  0  # atno 17371 bound_to 10713
  140.1895  134.8975  157.3044 LP  0  0  0  0  0  0  0  0  0  0  0  0  # atno 17394 bound_to 11000
  140.2305  134.3914  155.7524 LP  0  0  0  0  0  0  0  0  0  0  0  0  # atno 17395 bound_to 11000

$$$$
