AV-unprocessed.smi:911|AV-procd|sdf|4136|dock4
  -GOLD-   22720 2 43D 1   1.00000     0.00000
 Structure written by MMmdl.
 47 49  0  0  0  0  0  0  0  0  3 V2000
  152.9054  144.6918  157.7523 C   0  0  0  0  0  0  0  0  0  0  0  0
  151.8270  144.1613  158.7382 C   0  0  0  0  0  0  0  0  0  0  0  0
  151.3982  145.3943  159.5824 C   0  0  0  0  0  0  0  0  0  0  0  0
  150.6542  143.4241  158.0609 C   0  0  2  0  0  0  0  0  0  0  0  0
  149.8197  142.8959  159.2492 C   0  0  0  0  0  0  0  0  0  0  0  0
  150.9016  142.5571  160.2935 C   0  0  0  0  0  0  0  0  0  0  0  0
  152.2203  142.8921  159.5424 C   0  0  2  0  0  0  0  0  0  0  0  0
  153.4269  143.0484  160.4837 C   0  0  0  0  0  0  0  0  0  0  0  0
  152.4303  141.8256  158.4199 C   0  0  1  0  0  0  0  0  0  0  0  0
  152.2907  140.4390  158.8661 N   0  0  0  0  0  0  0  0  0  0  0  0
  152.4149  139.3548  158.0861 C   0  0  0  0  0  0  0  0  0  0  0  0
  152.6708  139.4132  156.8826 O   0  0  0  0  0  0  0  0  0  0  0  0
  152.2467  138.0000  158.7879 C   0  0  0  0  0  0  0  0  0  0  0  0
  151.0798  137.2413  158.3072 N   0  0  0  0  0  0  0  0  0  0  0  0
  149.9283  137.2541  159.1194 C   0  0  0  0  0  0  0  0  0  0  0  0
  148.8081  136.5847  158.7837 C   0  0  0  0  0  0  0  0  0  0  0  0
  147.6378  136.6023  159.6332 N   0  3  0  0  0  0  0  0  0  0  0  0
  147.6909  137.2145  160.6950 O   0  0  0  0  0  0  0  0  0  0  0  0
  146.6288  136.0057  159.2694 O   0  5  0  0  0  0  0  0  0  0  0  0
  148.8159  135.8380  157.5406 C   0  0  0  0  0  0  0  0  0  0  0  0
  149.9150  135.8192  156.7615 C   0  0  0  0  0  0  0  0  0  0  0  0
  151.1350  136.5438  157.1315 C   0  0  0  0  0  0  0  0  0  0  0  0
  152.1450  136.5244  156.4276 O   0  0  0  0  0  0  0  0  0  0  0  0
  151.3256  142.1977  157.4048 C   0  0  0  0  0  0  0  0  0  0  0  0
  152.5006  145.4969  157.1384 H   0  0  0  0  0  0  0  0  0  0  0  0
  153.3064  143.9542  157.0612 H   0  0  0  0  0  0  0  0  0  0  0  0
  153.7570  145.1021  158.2961 H   0  0  0  0  0  0  0  0  0  0  0  0
  150.6304  145.2014  160.3281 H   0  0  0  0  0  0  0  0  0  0  0  0
  151.0066  146.1814  158.9374 H   0  0  0  0  0  0  0  0  0  0  0  0
  152.2513  145.8146  160.1158 H   0  0  0  0  0  0  0  0  0  0  0  0
  150.0749  144.0255  157.3595 H   0  0  0  0  0  0  0  0  0  0  0  0
  149.1304  143.6526  159.6248 H   0  0  0  0  0  0  0  0  0  0  0  0
  149.2225  142.0241  158.9796 H   0  0  0  0  0  0  0  0  0  0  0  0
  150.7844  143.1714  161.1865 H   0  0  0  0  0  0  0  0  0  0  0  0
  150.8369  141.5243  160.6350 H   0  0  0  0  0  0  0  0  0  0  0  0
  153.6125  142.1298  161.0403 H   0  0  0  0  0  0  0  0  0  0  0  0
  153.2637  143.8429  161.2117 H   0  0  0  0  0  0  0  0  0  0  0  0
  154.3344  143.2866  159.9290 H   0  0  0  0  0  0  0  0  0  0  0  0
  153.4067  141.9490  157.9494 H   0  0  0  0  0  0  0  0  0  0  0  0
  152.0856  140.2967  159.8444 H   0  0  0  0  0  0  0  0  0  0  0  0
  153.1621  137.4259  158.6393 H   0  0  0  0  0  0  0  0  0  0  0  0
  152.1805  138.1540  159.8668 H   0  0  0  0  0  0  0  0  0  0  0  0
  150.0266  137.8320  160.0272 H   0  0  0  0  0  0  0  0  0  0  0  0
  147.9410  135.2883  157.2255 H   0  0  0  0  0  0  0  0  0  0  0  0
  149.8993  135.2560  155.8400 H   0  0  0  0  0  0  0  0  0  0  0  0
  150.6138  141.3895  157.2297 H   0  0  0  0  0  0  0  0  0  0  0  0
  151.7535  142.4492  156.4343 H   0  0  0  0  0  0  0  0  0  0  0  0
  1  2  1  0  0  0  0
  1 25  1  0  0  0  0
  1 26  1  0  0  0  0
  1 27  1  0  0  0  0
  2  7  1  0  0  0  0
  2  3  1  0  0  0  0
  2  4  1  0  0  0  0
  3 28  1  0  0  0  0
  3 29  1  0  0  0  0
  3 30  1  0  0  0  0
  4 24  1  0  0  0  0
  4  5  1  0  0  0  0
  4 31  1  0  0  0  0
  5  6  1  0  0  0  0
  5 32  1  0  0  0  0
  5 33  1  0  0  0  0
  6  7  1  0  0  0  0
  6 34  1  0  0  0  0
  6 35  1  0  0  0  0
  7  8  1  0  0  0  0
  7  9  1  0  0  0  0
  8 36  1  0  0  0  0
  8 37  1  0  0  0  0
  8 38  1  0  0  0  0
  9 10  1  0  0  0  0
  9 24  1  0  0  0  0
  9 39  1  0  0  0  0
 10 11  1  0  0  0  0
 10 40  1  0  0  0  0
 11 12  2  0  0  0  0
 11 13  1  0  0  0  0
 13 14  1  0  0  0  0
 13 41  1  0  0  0  0
 13 42  1  0  0  0  0
 14 22  1  0  0  0  0
 14 15  1  0  0  0  0
 15 16  2  0  0  0  0
 15 43  1  0  0  0  0
 16 17  1  0  0  0  0
 16 20  1  0  0  0  0
 17 18  2  0  0  0  0
 17 19  1  0  0  0  0
 20 21  2  0  0  0  0
 20 44  1  0  0  0  0
 21 22  1  0  0  0  0
 21 45  1  0  0  0  0
 22 23  2  0  0  0  0
 24 46  1  0  0  0  0
 24 47  1  0  0  0  0
M  CHG  1  17   1
M  CHG  1  19  -1
M  END
> <s_m_source_file>
AV-unprocessed.smi

> <i_m_source_file_index>
911

> <i_lp_mmshare_version>
43012

> <i_f3d_flags>
0

> <s_epik_input>
W0NIM11bQ0BdMTJDKFtDSDNdKShbQ0gzXSlbQ0BIXShbQ0gyXVtDSDJdMSlbQ0gyXVtDQEBIXTJbTkhdQyg9TylbQ0gyXW4zW2NIXWMoW04rXSg9TylbTy1dKVtjSF1bY0hdYzM9Tw==

> <s_epik_cmdline>
J2VwaWtfcHl0aG9uJywgJy1waCcsICc3LjAnLCAnLXRuJywgJzgnLCAnLW1hJywgJzIwMCcsICctbWV0YWxfYmluZGluZycsICctaW1hZScsICc8aW5maWxlLm1hZT4nLCAnLW9tYWUnLCAnPG91dGZpbGUubWFlPic=

> <r_lp_tautomer_probability>
1

> <r_epik_Ionization_Penalty>
2.04092e-08

> <r_epik_Ionization_Penalty_Charging>
8.54191e-11

> <r_epik_Ionization_Penalty_Neutral>
2.03238e-08

> <r_epik_State_Penalty>
-0

> <r_epik_Charging_Adjusted_Penalty>
8.54191e-11

> <i_epik_Tot_Q>
0

> <i_epik_Tot_abs_Q>
2

> <r_epik_Metal_State_Penalty>
-0

> <b_epik_Metal_Only>
0

> <s_lp_Force_Field>
OPLS_2005

> <r_lp_Energy>
67.3082

> <b_lp_Chiralities_Consistent>
1

> <s_lp_Variant>
AV-unprocessed.smi:911-1

> <Gold.Version>
5.8.1

> <Gold.Id.Protein>
6NUR|6NUR_protein|mol2

> <Gold.PLP.Fitness>
40.5767

> <Gold.PLP.PLP>
-30.0224

> <Gold.PLP.part.hbond>
-4.0000

> <Gold.PLP.part.metal>
0.0000

> <Gold.PLP.part.buried>
1.8406

> <Gold.PLP.part.nonpolar>
-27.6378

> <Gold.PLP.part.repulsive>
0.1242

> <Gold.PLP.ligand.clash>
0.0000

> <Gold.PLP.ligand.torsion>
0.2915

> <Gold.PLP.Chemscore.Hbond>
3.7049

> <Gold.PLP.Chemscore.CHOScore>
0.0000

> <Gold.PLP.Chemscore.Metal>
0.0000

> <Gold.Chemscore.Hbonds>
donor molecule, donor type, donor heavy atom, donor atom, acceptor molecule, acceptor atom, score
      P1  H  6931  6943       L1    18  0.70
      P1  H  6934  6947       L1    18  0.93
      P1  H  7997  8008       L1    12  1.00
      P1  H 10752 10764       L1    23  1.00

> <Gold.PLP.Chemscore.Internal.Correction>
0.0229

> <Gold.Rescore>
     Score         DG    S(hbond)    S(metal)    S(lipo)     H(rot)  DE(clash)    DE(int)     intcor
     23.31     -26.44       3.27        0.00     119.09       1.53       2.64       0.49       ----

> <Gold.Chemscore.Fitness>
23.3095

> <Gold.Chemscore.DG>
-26.4385

> <Gold.Chemscore.ZeroCoef>
-5.4800

> <Gold.Chemscore.Hbond>
3.2744

> <Gold.Chemscore.Metal>
0.0000

> <Gold.Chemscore.Lipo>
119.0859

> <Gold.Chemscore.Internal_Hbond>
0.0000

> <Gold.Chemscore.DEClash>
2.6437

> <Gold.Chemscore.DEInternal>
0.4853

> <Gold.Chemscore.Rot>
1.5277

> <Gold.Chemscore.Internal.Correction>
   9.000000E+99

> <Gold.Chemscore.Hbonds>
donor molecule, donor type, donor heavy atom, donor atom, acceptor molecule, acceptor atom, score
      P1  H  6931  6943       L1    18  0.68
      P1  H  6934  6947       L1    18  0.89
      P1  H  7997  8008       L1    12  0.39
      P1  H 10752 10764       L1    23  0.97

> <Gold.Chemscore.Hbond.Weighted>
-10.9365

> <Gold.Chemscore.Metal.Weighted>
-0.0000

> <Gold.Chemscore.Lipo.Weighted>
-13.9330

> <Gold.Chemscore.Internal_Hbond.Weighted>
0.0000

> <Gold.Chemscore.DEClash.Weighted>
2.6437

> <Gold.Chemscore.DEInternal.Weighted>
0.4853

> <Gold.Chemscore.Rot.Weighted>
3.9110

> <Gold.Chemscore.Internal.Correction.Weighted>
   9.000000E+99

> <Gold.Protein.RotatedTorsions>
[ 6907 6896 6895 6894 ] final -139.35 input  -60.11 | X-H torsion
[ 7974 7965 7964 7962 ] final   63.72 input  175.53 | X-H torsion
[ 8008 7997 7996 7995 ] final  -74.69 input   59.86 | X-H torsion
[ 10167 10162 10161 10158 ] final -114.61 input  -65.29 | X-H torsion
[ 10718 10713 10712 10709 ] final  164.51 input   66.30 | X-H torsion
[ 10763 10752 10751 10750 ] final  -29.81 input  -60.55 | X-H torsion
[ 11005 11000 10999 10996 ] final  101.49 input  -57.11 | X-H torsion

> <Gold.Protein.ActiveResidues>
 VAL166  LYS551  ARG553  GLY616  TRP617  ASP618  TYR619  PRO620  LYS621  CYS622 
 ASP623  PHE694  ASN695  SER759  ASP760  ASP761  ALA762  ILE779  LEU786  VAL792 
 PHE793  MET794  SER795  GLU796  ALA797  LYS798  CYS799  TRP800  GLU811  SER814 

> <Gold.Protein.RotatedAtoms>
  151.0467  133.5659  159.2645 H   0  0  0  0  0  0  0  0  0  0  0  0  # atno 6907 bound_to 6896
  151.2686  135.0676  159.9135 H   0  0  0  0  0  0  0  0  0  0  0  0  # atno 6908 bound_to 6896
  152.5374  134.0201  159.8031 H   0  0  0  0  0  0  0  0  0  0  0  0  # atno 6909 bound_to 6896
  145.8585  139.3300  143.0833 H   0  0  0  0  0  0  0  0  0  0  0  0  # atno 7974 bound_to 7965
  154.5353  140.0757  156.8416 H   0  0  0  0  0  0  0  0  0  0  0  0  # atno 8008 bound_to 7997
  155.3292  140.3401  155.4221 H   0  0  0  0  0  0  0  0  0  0  0  0  # atno 8009 bound_to 7997
  156.1821  140.1656  156.8240 H   0  0  0  0  0  0  0  0  0  0  0  0  # atno 8010 bound_to 7997
  140.0991  143.4629  152.1823 H   0  0  0  0  0  0  0  0  0  0  0  0  # atno 10167 bound_to 10162
  157.0933  131.0423  151.2528 H   0  0  0  0  0  0  0  0  0  0  0  0  # atno 10718 bound_to 10713
  153.7707  135.6912  153.4907 H   0  0  0  0  0  0  0  0  0  0  0  0  # atno 10763 bound_to 10752
  153.1877  135.4483  155.0108 H   0  0  0  0  0  0  0  0  0  0  0  0  # atno 10764 bound_to 10752
  154.8119  135.3381  154.7216 H   0  0  0  0  0  0  0  0  0  0  0  0  # atno 10765 bound_to 10752
  139.8773  134.9185  156.4915 H   0  0  0  0  0  0  0  0  0  0  0  0  # atno 11005 bound_to 11000
  145.9275  140.9072  143.0373 LP  0  0  0  0  0  0  0  0  0  0  0  0  # atno 17320 bound_to 7965
  144.6727  140.1373  143.7439 LP  0  0  0  0  0  0  0  0  0  0  0  0  # atno 17321 bound_to 7965
  139.5681  144.7447  151.3966 LP  0  0  0  0  0  0  0  0  0  0  0  0  # atno 17342 bound_to 10162
  140.6987  143.7685  150.7368 LP  0  0  0  0  0  0  0  0  0  0  0  0  # atno 17343 bound_to 10162
  157.4703  130.7705  149.7317 LP  0  0  0  0  0  0  0  0  0  0  0  0  # atno 17370 bound_to 10713
  155.9892  130.3953  150.3082 LP  0  0  0  0  0  0  0  0  0  0  0  0  # atno 17371 bound_to 10713
  140.8655  133.8028  155.9309 LP  0  0  0  0  0  0  0  0  0  0  0  0  # atno 17394 bound_to 11000
  140.9006  134.2383  157.5044 LP  0  0  0  0  0  0  0  0  0  0  0  0  # atno 17395 bound_to 11000

$$$$
