AV-unprocessed.smi:573|AV-procd|sdf|2968|dock6
  -GOLD-   2262023473D 1   1.00000     0.00000
 Structure written by MMmdl.
 45 47  0  0  0  0  0  0  0  0  2 V2000
  146.8103  142.2676  153.6844 C   0  0  0  0  0  0  0  0  0  0  0  0
  147.6157  141.0047  154.0157 C   0  0  1  0  0  0  0  0  0  0  0  0
  147.6122  140.1920  152.8598 O   0  0  0  0  0  0  0  0  0  0  0  0
  149.0671  141.3435  154.4054 C   0  0  0  0  0  0  0  0  0  0  0  0
  149.4622  140.7349  155.6682 N   0  0  0  0  0  0  0  0  0  0  0  0
  150.2303  141.4774  156.5731 C   0  0  0  0  0  0  0  0  0  0  0  0
  150.3636  142.8305  156.5910 N   0  3  0  0  0  0  0  0  0  0  0  0
  151.2295  143.1737  157.6325 C   0  0  0  0  0  0  0  0  0  0  0  0
  151.6886  144.4168  158.0568 C   0  0  0  0  0  0  0  0  0  0  0  0
  152.5770  144.4241  159.1519 C   0  0  0  0  0  0  0  0  0  0  0  0
  152.9789  143.2277  159.7804 C   0  0  0  0  0  0  0  0  0  0  0  0
  152.5086  141.9716  159.3439 C   0  0  0  0  0  0  0  0  0  0  0  0
  151.6257  141.9698  158.2639 C   0  0  0  0  0  0  0  0  0  0  0  0
  150.9699  140.9394  157.5761 N   0  0  0  0  0  0  0  0  0  0  0  0
  151.1683  139.5386  157.9744 C   0  0  0  0  0  0  0  0  0  0  0  0
  151.7002  138.6800  156.8154 C   0  0  2  0  0  0  0  0  0  0  0  0
  152.4460  139.5250  155.7656 C   0  0  0  0  0  0  0  0  0  0  0  0
  152.9126  138.6446  154.6009 C   0  0  0  0  0  0  0  0  0  0  0  0
  151.7252  137.8514  154.0442 C   0  0  0  0  0  0  0  0  0  0  0  0
  151.0081  137.0962  155.1749 C   0  0  0  0  0  0  0  0  0  0  0  0
  150.6063  138.0098  156.1910 O   0  0  0  0  0  0  0  0  0  0  0  0
  146.7514  142.9311  154.5475 H   0  0  0  0  0  0  0  0  0  0  0  0
  145.7894  142.0188  153.3921 H   0  0  0  0  0  0  0  0  0  0  0  0
  147.2652  142.8270  152.8660 H   0  0  0  0  0  0  0  0  0  0  0  0
  147.1177  140.4723  154.8275 H   0  0  0  0  0  0  0  0  0  0  0  0
  148.3159  140.4722  152.2947 H   0  0  0  0  0  0  0  0  0  0  0  0
  149.7630  141.0926  153.6037 H   0  0  0  0  0  0  0  0  0  0  0  0
  149.1525  142.4209  154.5488 H   0  0  0  0  0  0  0  0  0  0  0  0
  149.4853  139.7266  155.7247 H   0  0  0  0  0  0  0  0  0  0  0  0
  151.3857  145.3350  157.5748 H   0  0  0  0  0  0  0  0  0  0  0  0
  152.9602  145.3666  159.5154 H   0  0  0  0  0  0  0  0  0  0  0  0
  153.6639  143.2735  160.6147 H   0  0  0  0  0  0  0  0  0  0  0  0
  152.8303  141.0626  159.8298 H   0  0  0  0  0  0  0  0  0  0  0  0
  151.8365  139.4997  158.8346 H   0  0  0  0  0  0  0  0  0  0  0  0
  150.2066  139.1549  158.3164 H   0  0  0  0  0  0  0  0  0  0  0  0
  152.3808  137.9316  157.2260 H   0  0  0  0  0  0  0  0  0  0  0  0
  151.7872  140.3087  155.3887 H   0  0  0  0  0  0  0  0  0  0  0  0
  153.3013  140.0263  156.2194 H   0  0  0  0  0  0  0  0  0  0  0  0
  153.3632  139.2555  153.8182 H   0  0  0  0  0  0  0  0  0  0  0  0
  153.6849  137.9563  154.9467 H   0  0  0  0  0  0  0  0  0  0  0  0
  151.0242  138.5325  153.5599 H   0  0  0  0  0  0  0  0  0  0  0  0
  152.0639  137.1533  153.2782 H   0  0  0  0  0  0  0  0  0  0  0  0
  150.1236  136.5914  154.7863 H   0  0  0  0  0  0  0  0  0  0  0  0
  151.6529  136.3248  155.5992 H   0  0  0  0  0  0  0  0  0  0  0  0
  149.9084  143.4610  155.9436 H   0  0  0  0  0  0  0  0  0  0  0  0
  1  2  1  0  0  0  0
  1 22  1  0  0  0  0
  1 23  1  0  0  0  0
  1 24  1  0  0  0  0
  2  3  1  0  0  0  0
  2  4  1  0  0  0  0
  2 25  1  0  0  0  0
  3 26  1  0  0  0  0
  4  5  1  0  0  0  0
  4 27  1  0  0  0  0
  4 28  1  0  0  0  0
  5  6  1  0  0  0  0
  5 29  1  0  0  0  0
  6 14  1  0  0  0  0
  6  7  2  0  0  0  0
  7  8  1  0  0  0  0
  7 45  1  0  0  0  0
  8 13  2  0  0  0  0
  8  9  1  0  0  0  0
  9 10  2  0  0  0  0
  9 30  1  0  0  0  0
 10 11  1  0  0  0  0
 10 31  1  0  0  0  0
 11 12  2  0  0  0  0
 11 32  1  0  0  0  0
 12 13  1  0  0  0  0
 12 33  1  0  0  0  0
 13 14  1  0  0  0  0
 14 15  1  0  0  0  0
 15 16  1  0  0  0  0
 15 34  1  0  0  0  0
 15 35  1  0  0  0  0
 16 21  1  0  0  0  0
 16 17  1  0  0  0  0
 16 36  1  0  0  0  0
 17 18  1  0  0  0  0
 17 37  1  0  0  0  0
 17 38  1  0  0  0  0
 18 19  1  0  0  0  0
 18 39  1  0  0  0  0
 18 40  1  0  0  0  0
 19 20  1  0  0  0  0
 19 41  1  0  0  0  0
 19 42  1  0  0  0  0
 20 21  1  0  0  0  0
 20 43  1  0  0  0  0
 20 44  1  0  0  0  0
M  CHG  1   7   1
M  END
> <s_m_source_file>
AV-unprocessed.smi

> <i_m_source_file_index>
573

> <i_lp_mmshare_version>
43012

> <i_f3d_flags>
0

> <s_epik_input>
W0NIM11bQ0BIXShbT0hdKVtDSDJdW05IXWMobjEpbihjKGMxMilbY0hdW2NIXVtjSF1bY0hdMilbQ0gyXVtDQEBIXTNbQ0gyXVtDSDJdW0NIMl1bQ0gyXU8z

> <s_epik_cmdline>
J2VwaWtfcHl0aG9uJywgJy1waCcsICc3LjAnLCAnLXRuJywgJzgnLCAnLW1hJywgJzIwMCcsICctbWV0YWxfYmluZGluZycsICctaW1hZScsICc8aW5maWxlLm1hZT4nLCAnLW9tYWUnLCAnPG91dGZpbGUubWFlPic=

> <r_epik_Ionization_Penalty>
0.0692245

> <r_epik_Ionization_Penalty_Charging>
0.0692223

> <r_epik_Ionization_Penalty_Neutral>
2.1869e-06

> <r_epik_State_Penalty>
0.0606215

> <r_epik_Charging_Adjusted_Penalty>
0.129844

> <i_epik_Tot_Q>
1

> <i_epik_Tot_abs_Q>
1

> <r_epik_Metal_State_Penalty>
2.77811

> <b_epik_Metal_Only>
0

> <s_lp_Force_Field>
OPLS_2005

> <r_lp_Energy>
22.2685

> <b_lp_Chiralities_Consistent>
1

> <s_lp_Variant>
AV-unprocessed.smi:573-2

> <Gold.Version>
5.8.1

> <Gold.Id.Protein>
6NUR|6NUR_protein|mol2

> <Gold.PLP.Fitness>
54.6903

> <Gold.PLP.PLP>
-49.0786

> <Gold.PLP.part.hbond>
-1.9991

> <Gold.PLP.part.metal>
0.0000

> <Gold.PLP.part.buried>
-6.2942

> <Gold.PLP.part.nonpolar>
-41.6947

> <Gold.PLP.part.repulsive>
0.1312

> <Gold.PLP.ligand.clash>
0.6965

> <Gold.PLP.ligand.torsion>
1.3582

> <Gold.PLP.Chemscore.Hbond>
3.0000

> <Gold.PLP.Chemscore.CHOScore>
0.0000

> <Gold.PLP.Chemscore.Metal>
0.0000

> <Gold.Chemscore.Hbonds>
donor molecule, donor type, donor heavy atom, donor atom, acceptor molecule, acceptor atom, score
      L1  H     3    26       P1  7957  0.98
      L1  H     7    45       P1  8028  2.00

> <Gold.PLP.Chemscore.Internal.Correction>
0.0246

> <Gold.Rescore>
     Score         DG    S(hbond)    S(metal)    S(lipo)     H(rot)  DE(clash)    DE(int)     intcor
     19.48     -21.68       1.94        0.00     128.39       2.07       0.01       2.19       ----

> <Gold.Chemscore.Fitness>
19.4819

> <Gold.Chemscore.DG>
-21.6814

> <Gold.Chemscore.ZeroCoef>
-5.4800

> <Gold.Chemscore.Hbond>
1.9397

> <Gold.Chemscore.Metal>
0.0000

> <Gold.Chemscore.Lipo>
128.3926

> <Gold.Chemscore.Internal_Hbond>
0.0000

> <Gold.Chemscore.DEClash>
0.0077

> <Gold.Chemscore.DEInternal>
2.1917

> <Gold.Chemscore.Rot>
2.0699

> <Gold.Chemscore.Internal.Correction>
   9.000000E+99

> <Gold.Chemscore.Hbonds>
donor molecule, donor type, donor heavy atom, donor atom, acceptor molecule, acceptor atom, score
      L1  H     3    26       P1  7957  0.93
      L1  H     7    45       P1  8028  0.94

> <Gold.Chemscore.Hbond.Weighted>
-6.4785

> <Gold.Chemscore.Metal.Weighted>
-0.0000

> <Gold.Chemscore.Lipo.Weighted>
-15.0219

> <Gold.Chemscore.Internal_Hbond.Weighted>
0.0000

> <Gold.Chemscore.DEClash.Weighted>
0.0077

> <Gold.Chemscore.DEInternal.Weighted>
2.1917

> <Gold.Chemscore.Rot.Weighted>
5.2991

> <Gold.Chemscore.Internal.Correction.Weighted>
   9.000000E+99

> <Gold.Protein.RotatedTorsions>
[ 6907 6896 6895 6894 ] final   27.87 input  -60.11 | X-H torsion
[ 7974 7965 7964 7962 ] final  167.13 input  175.53 | X-H torsion
[ 8008 7997 7996 7995 ] final  -55.71 input   59.86 | X-H torsion
[ 10167 10162 10161 10158 ] final -168.11 input  -65.29 | X-H torsion
[ 10718 10713 10712 10709 ] final  137.38 input   66.30 | X-H torsion
[ 10763 10752 10751 10750 ] final  156.47 input  -60.55 | X-H torsion
[ 11005 11000 10999 10996 ] final  112.15 input  -57.11 | X-H torsion

> <Gold.Protein.ActiveResidues>
 VAL166  LYS551  ARG553  GLY616  TRP617  ASP618  TYR619  PRO620  LYS621  CYS622 
 ASP623  PHE694  ASN695  SER759  ASP760  ASP761  ALA762  ILE779  LEU786  VAL792 
 PHE793  MET794  SER795  GLU796  ALA797  LYS798  CYS799  TRP800  GLU811  SER814 

> <Gold.Protein.RotatedAtoms>
  152.0086  134.9888  160.0567 H   0  0  0  0  0  0  0  0  0  0  0  0  # atno 6907 bound_to 6896
  152.1450  133.4482  159.4794 H   0  0  0  0  0  0  0  0  0  0  0  0  # atno 6908 bound_to 6896
  150.6869  134.2177  159.4427 H   0  0  0  0  0  0  0  0  0  0  0  0  # atno 6909 bound_to 6896
  144.7436  139.8716  143.6389 H   0  0  0  0  0  0  0  0  0  0  0  0  # atno 7974 bound_to 7965
  154.4204  140.1146  156.5521 H   0  0  0  0  0  0  0  0  0  0  0  0  # atno 8008 bound_to 7997
  155.6399  140.3496  155.4692 H   0  0  0  0  0  0  0  0  0  0  0  0  # atno 8009 bound_to 7997
  155.9879  140.1173  157.0656 H   0  0  0  0  0  0  0  0  0  0  0  0  # atno 8010 bound_to 7997
  139.6006  144.1018  152.1738 H   0  0  0  0  0  0  0  0  0  0  0  0  # atno 10167 bound_to 10162
  157.4366  131.1054  151.0190 H   0  0  0  0  0  0  0  0  0  0  0  0  # atno 10718 bound_to 10713
  154.1848  135.2797  155.3041 H   0  0  0  0  0  0  0  0  0  0  0  0  # atno 10763 bound_to 10752
  154.5975  135.5540  153.7343 H   0  0  0  0  0  0  0  0  0  0  0  0  # atno 10764 bound_to 10752
  153.0128  135.6383  154.1987 H   0  0  0  0  0  0  0  0  0  0  0  0  # atno 10765 bound_to 10752
  139.8920  134.9523  156.6541 H   0  0  0  0  0  0  0  0  0  0  0  0  # atno 11005 bound_to 11000
  146.1276  139.4305  143.0189 LP  0  0  0  0  0  0  0  0  0  0  0  0  # atno 17320 bound_to 7965
  145.7211  141.0074  143.1402 LP  0  0  0  0  0  0  0  0  0  0  0  0  # atno 17321 bound_to 7965
  140.0614  144.5854  150.7260 LP  0  0  0  0  0  0  0  0  0  0  0  0  # atno 17342 bound_to 10162
  140.7247  143.2623  151.4162 LP  0  0  0  0  0  0  0  0  0  0  0  0  # atno 17343 bound_to 10162
  157.1068  130.6004  149.5472 LP  0  0  0  0  0  0  0  0  0  0  0  0  # atno 17370 bound_to 10713
  155.9933  130.4993  150.7374 LP  0  0  0  0  0  0  0  0  0  0  0  0  # atno 17371 bound_to 10713
  140.7497  133.8907  155.8338 LP  0  0  0  0  0  0  0  0  0  0  0  0  # atno 17394 bound_to 11000
  141.0010  134.1150  157.4317 LP  0  0  0  0  0  0  0  0  0  0  0  0  # atno 17395 bound_to 11000

$$$$
