AV-unprocessed.smi:1153|AV-procd|sdf|4899|dock1
  -GOLD-   22720 3473D 1   1.00000     0.00000
 Structure written by MMmdl.
 26 27  0  0  0  0  0  0  0  0  1 V2000
  153.5712  138.7694  157.6030 O   0  0  0  0  0  0  0  0  0  0  0  0
  152.4001  138.9888  157.9159 C   0  0  0  0  0  0  0  0  0  0  0  0
  152.0464  139.5211  159.3097 C   0  0  0  0  0  0  0  0  0  0  0  0
  152.4961  140.8888  159.5125 N   0  0  0  0  0  0  0  0  0  0  0  0
  153.3590  141.3755  160.4713 C   0  0  0  0  0  0  0  0  0  0  0  0
  153.4772  142.7200  160.2663 C   0  0  0  0  0  0  0  0  0  0  0  0
  152.6357  142.9751  159.1445 C   0  0  0  0  0  0  0  0  0  0  0  0
  152.3639  144.2886  158.4595 C   0  0  0  0  0  0  0  0  0  0  0  0
  152.9945  145.2737  159.0988 F   0  0  0  0  0  0  0  0  0  0  0  0
  152.7953  144.2512  157.1988 F   0  0  0  0  0  0  0  0  0  0  0  0
  151.0547  144.5393  158.4574 F   0  0  0  0  0  0  0  0  0  0  0  0
  152.0487  141.8714  158.7013 N   0  0  0  0  0  0  0  0  0  0  0  0
  151.3658  138.7912  157.0852 N   0  0  0  0  0  0  0  0  0  0  0  0
  151.4576  138.3044  155.7468 C   0  0  0  0  0  0  0  0  0  0  0  0
  152.6082  138.7984  154.8968 C   0  0  0  0  0  0  0  0  0  0  0  0
  151.2133  139.2887  154.6234 C   0  0  0  0  0  0  0  0  0  0  0  0
  150.9658  139.4673  159.4502 H   0  0  0  0  0  0  0  0  0  0  0  0
  152.5024  138.8948  160.0776 H   0  0  0  0  0  0  0  0  0  0  0  0
  153.8141  140.7309  161.2089 H   0  0  0  0  0  0  0  0  0  0  0  0
  154.0757  143.4181  160.8324 H   0  0  0  0  0  0  0  0  0  0  0  0
  150.4398  139.0035  157.4272 H   0  0  0  0  0  0  0  0  0  0  0  0
  151.1334  137.2810  155.5631 H   0  0  0  0  0  0  0  0  0  0  0  0
  153.3085  139.5008  155.3452 H   0  0  0  0  0  0  0  0  0  0  0  0
  153.0429  138.0981  154.1862 H   0  0  0  0  0  0  0  0  0  0  0  0
  150.7162  138.9161  153.7300 H   0  0  0  0  0  0  0  0  0  0  0  0
  150.9824  140.3187  154.8890 H   0  0  0  0  0  0  0  0  0  0  0  0
  1  2  2  0  0  0  0
  2  3  1  0  0  0  0
  2 13  1  0  0  0  0
  3  4  1  0  0  0  0
  3 17  1  0  0  0  0
  3 18  1  0  0  0  0
  4 12  1  0  0  0  0
  4  5  1  0  0  0  0
  5  6  2  0  0  0  0
  5 19  1  0  0  0  0
  6  7  1  0  0  0  0
  6 20  1  0  0  0  0
  7  8  1  0  0  0  0
  7 12  2  0  0  0  0
  8  9  1  0  0  0  0
  8 10  1  0  0  0  0
  8 11  1  0  0  0  0
 13 14  1  0  0  0  0
 13 21  1  0  0  0  0
 14 16  1  0  0  0  0
 14 15  1  0  0  0  0
 14 22  1  0  0  0  0
 15 16  1  0  0  0  0
 15 23  1  0  0  0  0
 15 24  1  0  0  0  0
 16 25  1  0  0  0  0
 16 26  1  0  0  0  0
M  END
> <s_m_source_file>
AV-unprocessed.smi

> <i_m_source_file_index>
1153

> <i_lp_mmshare_version>
43012

> <i_f3d_flags>
0

> <s_epik_input>
W0NIMl0xW0NIMl1bQ0hdMVtOSF1DKD1PKVtDSDJdbjJbY0hdW2NIXWMobjIpQyhGKShGKUY=

> <s_epik_cmdline>
J2VwaWtfcHl0aG9uJywgJy1waCcsICc3LjAnLCAnLXRuJywgJzgnLCAnLW1hJywgJzIwMCcsICctbWV0YWxfYmluZGluZycsICctaW1hZScsICc8aW5maWxlLm1hZT4nLCAnLW9tYWUnLCAnPG91dGZpbGUubWFlPic=

> <r_lp_tautomer_probability>
1

> <r_epik_Ionization_Penalty>
7.21317e-08

> <r_epik_Ionization_Penalty_Charging>
0

> <r_epik_Ionization_Penalty_Neutral>
7.21317e-08

> <r_epik_State_Penalty>
-0

> <r_epik_Charging_Adjusted_Penalty>
0

> <i_epik_Tot_Q>
0

> <i_epik_Tot_abs_Q>
0

> <r_epik_Metal_State_Penalty>
-0

> <b_epik_Metal_Only>
0

> <s_lp_Force_Field>
OPLS_2005

> <r_lp_Energy>
18.4383

> <b_lp_Chiralities_Consistent>
1

> <s_lp_Variant>
AV-unprocessed.smi:1153-1

> <Gold.Version>
5.8.1

> <Gold.Id.Protein>
6NUR|6NUR_protein|mol2

> <Gold.PLP.Fitness>
41.7448

> <Gold.PLP.PLP>
-39.3380

> <Gold.PLP.part.hbond>
-0.8849

> <Gold.PLP.part.metal>
0.0000

> <Gold.PLP.part.buried>
-3.8405

> <Gold.PLP.part.nonpolar>
-34.5588

> <Gold.PLP.part.repulsive>
0.0277

> <Gold.PLP.ligand.clash>
0.0000

> <Gold.PLP.ligand.torsion>
0.3204

> <Gold.PLP.Chemscore.Hbond>
1.0000

> <Gold.PLP.Chemscore.CHOScore>
0.0000

> <Gold.PLP.Chemscore.Metal>
0.0000

> <Gold.Chemscore.Hbonds>
donor molecule, donor type, donor heavy atom, donor atom, acceptor molecule, acceptor atom, score
      P1  H  7997  8010       L1     1  1.00

> <Gold.PLP.Chemscore.Internal.Correction>
0.0476

> <Gold.Rescore>
     Score         DG    S(hbond)    S(metal)    S(lipo)     H(rot)  DE(clash)    DE(int)     intcor
     12.78     -12.95       0.99        0.00      71.34       1.64       0.04       0.13       ----

> <Gold.Chemscore.Fitness>
12.7756

> <Gold.Chemscore.DG>
-12.9490

> <Gold.Chemscore.ZeroCoef>
-5.4800

> <Gold.Chemscore.Hbond>
0.9922

> <Gold.Chemscore.Metal>
0.0000

> <Gold.Chemscore.Lipo>
71.3376

> <Gold.Chemscore.Internal_Hbond>
0.0000

> <Gold.Chemscore.DEClash>
0.0443

> <Gold.Chemscore.DEInternal>
0.1291

> <Gold.Chemscore.Rot>
1.6372

> <Gold.Chemscore.Internal.Correction>
   9.000000E+99

> <Gold.Chemscore.Hbonds>
donor molecule, donor type, donor heavy atom, donor atom, acceptor molecule, acceptor atom, score
      P1  H  7997  8010       L1     1  0.98

> <Gold.Chemscore.Hbond.Weighted>
-3.3138

> <Gold.Chemscore.Metal.Weighted>
-0.0000

> <Gold.Chemscore.Lipo.Weighted>
-8.3465

> <Gold.Chemscore.Internal_Hbond.Weighted>
0.0000

> <Gold.Chemscore.DEClash.Weighted>
0.0443

> <Gold.Chemscore.DEInternal.Weighted>
0.1291

> <Gold.Chemscore.Rot.Weighted>
4.1913

> <Gold.Chemscore.Internal.Correction.Weighted>
   9.000000E+99

> <Gold.Protein.RotatedTorsions>
[ 6907 6896 6895 6894 ] final  113.86 input  -60.11 | X-H torsion
[ 7974 7965 7964 7962 ] final  -57.63 input  175.53 | X-H torsion
[ 8008 7997 7996 7995 ] final   36.00 input   59.86 | X-H torsion
[ 10167 10162 10161 10158 ] final   96.00 input  -65.29 | X-H torsion
[ 10718 10713 10712 10709 ] final  -14.70 input   66.30 | X-H torsion
[ 10763 10752 10751 10750 ] final -137.80 input  -60.55 | X-H torsion
[ 11005 11000 10999 10996 ] final  139.63 input  -57.11 | X-H torsion

> <Gold.Protein.ActiveResidues>
 VAL166  LYS551  ARG553  GLY616  TRP617  ASP618  TYR619  PRO620  LYS621  CYS622 
 ASP623  PHE694  ASN695  SER759  ASP760  ASP761  ALA762  ILE779  LEU786  VAL792 
 PHE793  MET794  SER795  GLU796  ALA797  LYS798  CYS799  TRP800  GLU811  SER814 

> <Gold.Protein.RotatedAtoms>
  152.4836  133.8317  159.7106 H   0  0  0  0  0  0  0  0  0  0  0  0  # atno 6907 bound_to 6896
  150.8905  133.7240  159.2912 H   0  0  0  0  0  0  0  0  0  0  0  0  # atno 6908 bound_to 6896
  151.4714  135.1050  159.9805 H   0  0  0  0  0  0  0  0  0  0  0  0  # atno 6909 bound_to 6896
  145.8488  140.8367  142.9996 H   0  0  0  0  0  0  0  0  0  0  0  0  # atno 7974 bound_to 7965
  155.1803  140.3299  155.4376 H   0  0  0  0  0  0  0  0  0  0  0  0  # atno 8008 bound_to 7997
  156.2479  140.1928  156.6852 H   0  0  0  0  0  0  0  0  0  0  0  0  # atno 8009 bound_to 7997
  154.6276  140.0587  156.9678 H   0  0  0  0  0  0  0  0  0  0  0  0  # atno 8010 bound_to 7997
  139.7935  144.6842  150.9859 H   0  0  0  0  0  0  0  0  0  0  0  0  # atno 10167 bound_to 10162
  156.6122  130.4852  149.6197 H   0  0  0  0  0  0  0  0  0  0  0  0  # atno 10718 bound_to 10713
  154.8653  135.3631  154.5282 H   0  0  0  0  0  0  0  0  0  0  0  0  # atno 10763 bound_to 10752
  153.5909  135.7015  153.5428 H   0  0  0  0  0  0  0  0  0  0  0  0  # atno 10764 bound_to 10752
  153.3374  135.4107  155.1506 H   0  0  0  0  0  0  0  0  0  0  0  0  # atno 10765 bound_to 10752
  140.0269  134.9370  157.0585 H   0  0  0  0  0  0  0  0  0  0  0  0  # atno 11005 bound_to 11000
  144.6730  140.0922  143.7464 LP  0  0  0  0  0  0  0  0  0  0  0  0  # atno 17320 bound_to 7965
  145.9382  139.2651  143.1285 LP  0  0  0  0  0  0  0  0  0  0  0  0  # atno 17321 bound_to 7965
  140.7820  143.4355  151.0629 LP  0  0  0  0  0  0  0  0  0  0  0  0  # atno 17342 bound_to 10162
  139.8031  143.8056  152.3165 LP  0  0  0  0  0  0  0  0  0  0  0  0  # atno 17343 bound_to 10162
  156.2381  130.6834  151.1529 LP  0  0  0  0  0  0  0  0  0  0  0  0  # atno 17370 bound_to 10713
  157.7251  131.0655  150.5967 LP  0  0  0  0  0  0  0  0  0  0  0  0  # atno 17371 bound_to 10713
  140.4292  134.1799  155.7167 LP  0  0  0  0  0  0  0  0  0  0  0  0  # atno 17394 bound_to 11000
  141.1808  133.8418  157.1265 LP  0  0  0  0  0  0  0  0  0  0  0  0  # atno 17395 bound_to 11000

$$$$
