AV-unprocessed.smi:3063|AV-procd|sdf|11686|dock5
  -GOLD-   2272017 93D 1   1.00000     0.00000
 Structure written by MMmdl.
 44 45  0  0  0  0  0  0  0  0  1 V2000
  151.2210  140.9531  158.3989 C   0  0  0  0  0  0  0  0  0  0  0  0
  152.0433  140.0658  157.4616 C   0  0  0  0  0  0  0  0  0  0  0  0
  152.9380  139.3769  157.9522 O   0  0  0  0  0  0  0  0  0  0  0  0
  151.7537  140.0512  156.1375 N   0  0  0  0  0  0  0  0  0  0  0  0
  152.4219  139.1217  155.2147 C   0  0  0  0  0  0  0  0  0  0  0  0
  151.6819  137.7688  155.1495 C   0  0  0  0  0  0  0  0  0  0  0  0
  150.2157  137.8903  154.6810 C   0  0  0  0  0  0  0  0  0  0  0  0
  149.4163  138.7227  155.6012 N   0  0  0  0  0  0  0  0  0  0  0  0
  148.7852  138.2698  156.7160 C   0  0  0  0  0  0  0  0  0  0  0  0
  148.0685  138.9793  157.4233 O   0  0  0  0  0  0  0  0  0  0  0  0
  149.0149  136.9767  157.0038 N   0  0  0  0  0  0  0  0  0  0  0  0
  148.4631  136.2412  158.1397 C   0  0  1  0  0  0  0  0  0  0  0  0
  148.7795  134.7462  157.9727 C   0  0  0  0  0  0  0  0  0  0  0  0
  148.9529  136.8225  159.4881 C   0  0  0  0  0  0  0  0  0  0  0  0
  148.2280  136.3168  160.6416 N   0  0  0  0  0  0  0  0  0  0  0  0
  147.9500  135.0085  160.9785 C   0  0  0  0  0  0  0  0  0  0  0  0
  147.2447  135.0304  162.1477 C   0  0  0  0  0  0  0  0  0  0  0  0
  147.1338  136.4166  162.4492 C   0  0  0  0  0  0  0  0  0  0  0  0
  147.7207  137.1818  161.5446 N   0  0  0  0  0  0  0  0  0  0  0  0
  149.3886  140.1482  155.2272 C   0  0  0  0  0  0  0  0  0  0  0  0
  150.7238  140.8909  155.4998 C   0  0  0  0  0  0  0  0  0  0  0  0
  150.1528  140.7895  158.2563 H   0  0  0  0  0  0  0  0  0  0  0  0
  151.4443  142.0062  158.2264 H   0  0  0  0  0  0  0  0  0  0  0  0
  151.4531  140.7273  159.4401 H   0  0  0  0  0  0  0  0  0  0  0  0
  152.4761  139.5519  154.2139 H   0  0  0  0  0  0  0  0  0  0  0  0
  153.4605  138.9611  155.5083 H   0  0  0  0  0  0  0  0  0  0  0  0
  152.2172  137.1087  154.4665 H   0  0  0  0  0  0  0  0  0  0  0  0
  151.7204  137.2807  156.1233 H   0  0  0  0  0  0  0  0  0  0  0  0
  150.1987  138.3189  153.6781 H   0  0  0  0  0  0  0  0  0  0  0  0
  149.7762  136.8991  154.5615 H   0  0  0  0  0  0  0  0  0  0  0  0
  149.6275  136.4630  156.3874 H   0  0  0  0  0  0  0  0  0  0  0  0
  147.3771  136.3463  158.1098 H   0  0  0  0  0  0  0  0  0  0  0  0
  148.3826  134.1669  158.8066 H   0  0  0  0  0  0  0  0  0  0  0  0
  149.8532  134.5630  157.9197 H   0  0  0  0  0  0  0  0  0  0  0  0
  148.3341  134.3527  157.0584 H   0  0  0  0  0  0  0  0  0  0  0  0
  150.0176  136.6317  159.6318 H   0  0  0  0  0  0  0  0  0  0  0  0
  148.8429  137.9074  159.4750 H   0  0  0  0  0  0  0  0  0  0  0  0
  148.2772  134.1805  160.3670 H   0  0  0  0  0  0  0  0  0  0  0  0
  146.8648  134.1855  162.7022 H   0  0  0  0  0  0  0  0  0  0  0  0
  146.6475  136.8878  163.2907 H   0  0  0  0  0  0  0  0  0  0  0  0
  149.1386  140.2329  154.1690 H   0  0  0  0  0  0  0  0  0  0  0  0
  148.5807  140.6809  155.7308 H   0  0  0  0  0  0  0  0  0  0  0  0
  150.5275  141.7988  156.0693 H   0  0  0  0  0  0  0  0  0  0  0  0
  151.1151  141.2650  154.5530 H   0  0  0  0  0  0  0  0  0  0  0  0
  1  2  1  0  0  0  0
  1 22  1  0  0  0  0
  1 23  1  0  0  0  0
  1 24  1  0  0  0  0
  2  3  2  0  0  0  0
  2  4  1  0  0  0  0
  4 21  1  0  0  0  0
  4  5  1  0  0  0  0
  5  6  1  0  0  0  0
  5 25  1  0  0  0  0
  5 26  1  0  0  0  0
  6  7  1  0  0  0  0
  6 27  1  0  0  0  0
  6 28  1  0  0  0  0
  7  8  1  0  0  0  0
  7 29  1  0  0  0  0
  7 30  1  0  0  0  0
  8  9  1  0  0  0  0
  8 20  1  0  0  0  0
  9 10  2  0  0  0  0
  9 11  1  0  0  0  0
 11 12  1  0  0  0  0
 11 31  1  0  0  0  0
 12 13  1  0  0  0  0
 12 14  1  0  0  0  0
 12 32  1  0  0  0  0
 13 33  1  0  0  0  0
 13 34  1  0  0  0  0
 13 35  1  0  0  0  0
 14 15  1  0  0  0  0
 14 36  1  0  0  0  0
 14 37  1  0  0  0  0
 15 19  1  0  0  0  0
 15 16  1  0  0  0  0
 16 17  2  0  0  0  0
 16 38  1  0  0  0  0
 17 18  1  0  0  0  0
 17 39  1  0  0  0  0
 18 19  2  0  0  0  0
 18 40  1  0  0  0  0
 20 21  1  0  0  0  0
 20 41  1  0  0  0  0
 20 42  1  0  0  0  0
 21 43  1  0  0  0  0
 21 44  1  0  0  0  0
M  END
> <s_m_source_file>
AV-unprocessed.smi

> <i_m_source_file_index>
3063

> <i_lp_mmshare_version>
43012

> <i_f3d_flags>
0

> <s_epik_input>
W0NIM11DKD1PKU4xW0NIMl1bQ0gyXVtDSDJdTihbQ0gyXVtDSDJdMSlDKD1PKVtOSF1bQ0BIXShbQ0gzXSlbQ0gyXW4yW2NIXVtjSF1bY0hdbjI=

> <s_epik_cmdline>
J2VwaWtfcHl0aG9uJywgJy1waCcsICc3LjAnLCAnLXRuJywgJzgnLCAnLW1hJywgJzIwMCcsICctbWV0YWxfYmluZGluZycsICctaW1hZScsICc8aW5maWxlLm1hZT4nLCAnLW9tYWUnLCAnPG91dGZpbGUubWFlPic=

> <r_lp_tautomer_probability>
1

> <r_epik_Ionization_Penalty>
6.19559e-05

> <r_epik_Ionization_Penalty_Charging>
0

> <r_epik_Ionization_Penalty_Neutral>
6.19559e-05

> <r_epik_State_Penalty>
-0

> <r_epik_Charging_Adjusted_Penalty>
0

> <i_epik_Tot_Q>
0

> <i_epik_Tot_abs_Q>
0

> <r_epik_Metal_State_Penalty>
-0

> <b_epik_Metal_Only>
0

> <s_lp_Force_Field>
OPLS_2005

> <r_lp_Energy>
38.4864

> <b_lp_Chiralities_Consistent>
1

> <s_lp_Variant>
AV-unprocessed.smi:3063-2

> <Gold.Version>
5.8.1

> <Gold.Id.Protein>
6NUR|6NUR_protein|mol2

> <Gold.PLP.Fitness>
43.3257

> <Gold.PLP.PLP>
-35.5018

> <Gold.PLP.part.hbond>
-3.0000

> <Gold.PLP.part.metal>
0.0000

> <Gold.PLP.part.buried>
-3.1119

> <Gold.PLP.part.nonpolar>
-29.1615

> <Gold.PLP.part.repulsive>
0.0094

> <Gold.PLP.ligand.clash>
0.0000

> <Gold.PLP.ligand.torsion>
0.2142

> <Gold.PLP.Chemscore.Hbond>
2.7360

> <Gold.PLP.Chemscore.CHOScore>
0.0000

> <Gold.PLP.Chemscore.Metal>
0.0000

> <Gold.Chemscore.Hbonds>
donor molecule, donor type, donor heavy atom, donor atom, acceptor molecule, acceptor atom, score
      P1  H  6931  6943       L1    19  1.00
      P1  H  6934  6947       L1    19  0.75
      P1  H  7997  8008       L1     3  0.99

> <Gold.PLP.Chemscore.Internal.Correction>
0.0443

> <Gold.Rescore>
     Score         DG    S(hbond)    S(metal)    S(lipo)     H(rot)  DE(clash)    DE(int)     intcor
     17.07     -18.26       2.31        0.00      74.68       1.44       0.91       0.28       ----

> <Gold.Chemscore.Fitness>
17.0682

> <Gold.Chemscore.DG>
-18.2592

> <Gold.Chemscore.ZeroCoef>
-5.4800

> <Gold.Chemscore.Hbond>
2.3115

> <Gold.Chemscore.Metal>
0.0000

> <Gold.Chemscore.Lipo>
74.6759

> <Gold.Chemscore.Internal_Hbond>
0.0000

> <Gold.Chemscore.DEClash>
0.9141

> <Gold.Chemscore.DEInternal>
0.2769

> <Gold.Chemscore.Rot>
1.4368

> <Gold.Chemscore.Internal.Correction>
   9.000000E+99

> <Gold.Chemscore.Hbonds>
donor molecule, donor type, donor heavy atom, donor atom, acceptor molecule, acceptor atom, score
      P1  H  6931  6943       L1    19  0.47
      P1  H  6934  6947       L1    19  0.70
      P1  H  7997  8008       L1     3  0.51

> <Gold.Chemscore.Hbond.Weighted>
-7.7204

> <Gold.Chemscore.Metal.Weighted>
-0.0000

> <Gold.Chemscore.Lipo.Weighted>
-8.7371

> <Gold.Chemscore.Internal_Hbond.Weighted>
0.0000

> <Gold.Chemscore.DEClash.Weighted>
0.9141

> <Gold.Chemscore.DEInternal.Weighted>
0.2769

> <Gold.Chemscore.Rot.Weighted>
3.6782

> <Gold.Chemscore.Internal.Correction.Weighted>
   9.000000E+99

> <Gold.Protein.RotatedTorsions>
[ 6907 6896 6895 6894 ] final   48.59 input  -60.11 | X-H torsion
[ 7974 7965 7964 7962 ] final -168.06 input  175.53 | X-H torsion
[ 8008 7997 7996 7995 ] final  -92.32 input   59.86 | X-H torsion
[ 10167 10162 10161 10158 ] final -156.33 input  -65.29 | X-H torsion
[ 10718 10713 10712 10709 ] final   63.68 input   66.30 | X-H torsion
[ 10763 10752 10751 10750 ] final -116.71 input  -60.55 | X-H torsion
[ 11005 11000 10999 10996 ] final  120.35 input  -57.11 | X-H torsion

> <Gold.Protein.ActiveResidues>
 VAL166  LYS551  ARG553  GLY616  TRP617  ASP618  TYR619  PRO620  LYS621  CYS622 
 ASP623  PHE694  ASN695  SER759  ASP760  ASP761  ALA762  ILE779  LEU786  VAL792 
 PHE793  MET794  SER795  GLU796  ALA797  LYS798  CYS799  TRP800  GLU811  SER814 

> <Gold.Protein.RotatedAtoms>
  152.2812  134.7827  160.0396 H   0  0  0  0  0  0  0  0  0  0  0  0  # atno 6907 bound_to 6896
  151.8405  133.3418  159.3650 H   0  0  0  0  0  0  0  0  0  0  0  0  # atno 6908 bound_to 6896
  150.7190  134.5324  159.5751 H   0  0  0  0  0  0  0  0  0  0  0  0  # atno 6909 bound_to 6896
  144.7210  140.2426  143.6289 H   0  0  0  0  0  0  0  0  0  0  0  0  # atno 7974 bound_to 7965
  154.7217  140.0510  157.0645 H   0  0  0  0  0  0  0  0  0  0  0  0  # atno 8008 bound_to 7997
  155.0419  140.3169  155.4702 H   0  0  0  0  0  0  0  0  0  0  0  0  # atno 8009 bound_to 7997
  156.2818  140.2131  156.5543 H   0  0  0  0  0  0  0  0  0  0  0  0  # atno 8010 bound_to 7997
  139.6859  143.9502  152.2361 H   0  0  0  0  0  0  0  0  0  0  0  0  # atno 10167 bound_to 10162
  157.5988  130.9118  149.9747 H   0  0  0  0  0  0  0  0  0  0  0  0  # atno 10718 bound_to 10713
  154.8529  135.4336  154.1864 H   0  0  0  0  0  0  0  0  0  0  0  0  # atno 10763 bound_to 10752
  153.2943  135.6964  153.7269 H   0  0  0  0  0  0  0  0  0  0  0  0  # atno 10764 bound_to 10752
  153.6424  135.3465  155.3050 H   0  0  0  0  0  0  0  0  0  0  0  0  # atno 10765 bound_to 10752
  139.9182  134.9634  156.7794 H   0  0  0  0  0  0  0  0  0  0  0  0  # atno 11005 bound_to 11000
  145.8305  139.2083  143.1886 LP  0  0  0  0  0  0  0  0  0  0  0  0  # atno 17320 bound_to 7965
  146.0435  140.8141  142.9817 LP  0  0  0  0  0  0  0  0  0  0  0  0  # atno 17321 bound_to 7965
  139.9305  144.6744  150.8368 LP  0  0  0  0  0  0  0  0  0  0  0  0  # atno 17342 bound_to 10162
  140.7667  143.3312  151.2406 LP  0  0  0  0  0  0  0  0  0  0  0  0  # atno 17343 bound_to 10162
  156.1056  130.3653  150.0139 LP  0  0  0  0  0  0  0  0  0  0  0  0  # atno 17370 bound_to 10713
  156.8247  130.9371  151.3640 LP  0  0  0  0  0  0  0  0  0  0  0  0  # atno 17371 bound_to 10713
  140.6556  133.9691  155.7778 LP  0  0  0  0  0  0  0  0  0  0  0  0  # atno 17394 bound_to 11000
  141.0678  134.0251  157.3569 LP  0  0  0  0  0  0  0  0  0  0  0  0  # atno 17395 bound_to 11000

$$$$
