AV-unprocessed.smi:3085|AV-procd|sdf|11760|dock1
  -GOLD-   2272017143D 1   1.00000     0.00000
 Structure written by MMmdl.
 27 28  0  0  0  0  0  0  0  0  3 V2000
  152.6353  142.9182  160.9276 C   0  0  0  0  0  0  0  0  0  0  0  0
  153.4178  141.6232  160.6870 C   0  0  0  0  0  0  0  0  0  0  0  0
  153.0796  140.9932  159.3536 C   0  0  0  0  0  0  0  0  0  0  0  0
  152.1897  141.4511  158.4786 N   0  0  0  0  0  0  0  0  0  0  0  0
  152.1915  140.5748  157.4643 C   0  0  0  0  0  0  0  0  0  0  0  0
  151.2976  140.6764  156.2462 C   0  0  2  0  0  0  0  0  0  0  0  0
  150.5259  142.0105  156.2360 C   0  0  0  0  0  0  0  0  0  0  0  0
  149.6522  142.0868  155.0493 N   0  3  0  0  0  0  0  0  0  0  0  0
  148.7514  140.9214  154.9624 C   0  0  0  0  0  0  0  0  0  0  0  0
  149.5684  139.6194  155.0139 C   0  0  0  0  0  0  0  0  0  0  0  0
  150.3625  139.6003  156.1947 O   0  0  0  0  0  0  0  0  0  0  0  0
  153.0449  139.5681  157.7067 N   0  0  0  0  0  0  0  0  0  0  0  0
  153.5854  139.8423  158.8762 N   0  5  0  0  0  0  0  0  0  0  0  0
  152.8914  143.3545  161.8931 H   0  0  0  0  0  0  0  0  0  0  0  0
  151.5608  142.7330  160.9182 H   0  0  0  0  0  0  0  0  0  0  0  0
  152.8546  143.6580  160.1573 H   0  0  0  0  0  0  0  0  0  0  0  0
  154.4891  141.8226  160.7219 H   0  0  0  0  0  0  0  0  0  0  0  0
  153.2054  140.9057  161.4803 H   0  0  0  0  0  0  0  0  0  0  0  0
  151.9429  140.6193  155.3674 H   0  0  0  0  0  0  0  0  0  0  0  0
  149.9172  142.1046  157.1365 H   0  0  0  0  0  0  0  0  0  0  0  0
  151.2168  142.8541  156.2256 H   0  0  0  0  0  0  0  0  0  0  0  0
  149.1053  142.9349  155.0898 H   0  0  0  0  0  0  0  0  0  0  0  0
  148.0418  140.9546  155.7902 H   0  0  0  0  0  0  0  0  0  0  0  0
  148.1738  140.9776  154.0395 H   0  0  0  0  0  0  0  0  0  0  0  0
  148.9011  138.7574  155.0229 H   0  0  0  0  0  0  0  0  0  0  0  0
  150.2040  139.5214  154.1323 H   0  0  0  0  0  0  0  0  0  0  0  0
  150.2344  142.1081  154.2243 H   0  0  0  0  0  0  0  0  0  0  0  0
  1  2  1  0  0  0  0
  1 14  1  0  0  0  0
  1 15  1  0  0  0  0
  1 16  1  0  0  0  0
  2  3  1  0  0  0  0
  2 17  1  0  0  0  0
  2 18  1  0  0  0  0
  3 13  1  0  0  0  0
  3  4  2  0  0  0  0
  4  5  1  0  0  0  0
  5  6  1  0  0  0  0
  5 12  2  0  0  0  0
  6 11  1  0  0  0  0
  6  7  1  0  0  0  0
  6 19  1  0  0  0  0
  7  8  1  0  0  0  0
  7 20  1  0  0  0  0
  7 21  1  0  0  0  0
  8  9  1  0  0  0  0
  8 22  1  0  0  0  0
  8 27  1  0  0  0  0
  9 10  1  0  0  0  0
  9 23  1  0  0  0  0
  9 24  1  0  0  0  0
 10 11  1  0  0  0  0
 10 25  1  0  0  0  0
 10 26  1  0  0  0  0
 12 13  1  0  0  0  0
M  CHG  1   8   1
M  CHG  1  13  -1
M  END
> <s_m_source_file>
AV-unprocessed.smi

> <i_m_source_file_index>
3085

> <i_lp_mmshare_version>
43012

> <i_f3d_flags>
0

> <s_epik_input>
W0NIM11bQ0gyXWMxbmMobltuSF0xKVtDQEBIXTJbQ0gyXVtOSF1bQ0gyXVtDSDJdTzI=

> <s_epik_cmdline>
J2VwaWtfcHl0aG9uJywgJy1waCcsICc3LjAnLCAnLXRuJywgJzgnLCAnLW1hJywgJzIwMCcsICctbWV0YWxfYmluZGluZycsICctaW1hZScsICc8aW5maWxlLm1hZT4nLCAnLW9tYWUnLCAnPG91dGZpbGUubWFlPic=

> <r_lp_tautomer_probability>
0.948284

> <r_epik_Ionization_Penalty>
5.24708

> <r_epik_Ionization_Penalty_Charging>
5.24708

> <r_epik_Ionization_Penalty_Neutral>
2.10756e-13

> <r_epik_State_Penalty>
3.12001

> <r_epik_Charging_Adjusted_Penalty>
8.36709

> <i_epik_Tot_Q>
0

> <i_epik_Tot_abs_Q>
2

> <r_epik_Metal_State_Penalty>
0.69864

> <b_epik_Metal_Only>
1

> <s_lp_Force_Field>
OPLS_2005

> <r_lp_Energy>
4.6385

> <b_lp_Chiralities_Consistent>
1

> <s_lp_Variant>
AV-unprocessed.smi:3085-11

> <Gold.Version>
5.8.1

> <Gold.Id.Protein>
6NUR|6NUR_protein|mol2

> <Gold.PLP.Fitness>
33.0518

> <Gold.PLP.PLP>
-24.1818

> <Gold.PLP.part.hbond>
-3.0000

> <Gold.PLP.part.metal>
0.0000

> <Gold.PLP.part.buried>
-1.3297

> <Gold.PLP.part.nonpolar>
-18.3389

> <Gold.PLP.part.repulsive>
0.2318

> <Gold.PLP.ligand.clash>
0.0000

> <Gold.PLP.ligand.torsion>
0.0624

> <Gold.PLP.Chemscore.Hbond>
2.9920

> <Gold.PLP.Chemscore.CHOScore>
0.0000

> <Gold.PLP.Chemscore.Metal>
0.0000

> <Gold.Chemscore.Hbonds>
donor molecule, donor type, donor heavy atom, donor atom, acceptor molecule, acceptor atom, score
      L1  H     8    22       P1  8028  2.00
      P1  H  7997  8010       L1    12  0.86

> <Gold.PLP.Chemscore.Internal.Correction>
0.0187

> <Gold.Rescore>
     Score         DG    S(hbond)    S(metal)    S(lipo)     H(rot)  DE(clash)    DE(int)     intcor
     11.08     -11.09       1.00        0.00      47.62       1.28       0.01       0.01       ----

> <Gold.Chemscore.Fitness>
11.0763

> <Gold.Chemscore.DG>
-11.0926

> <Gold.Chemscore.ZeroCoef>
-5.4800

> <Gold.Chemscore.Hbond>
0.9961

> <Gold.Chemscore.Metal>
0.0000

> <Gold.Chemscore.Lipo>
47.6156

> <Gold.Chemscore.Internal_Hbond>
0.0000

> <Gold.Chemscore.DEClash>
0.0050

> <Gold.Chemscore.DEInternal>
0.0113

> <Gold.Chemscore.Rot>
1.2833

> <Gold.Chemscore.Internal.Correction>
   9.000000E+99

> <Gold.Chemscore.Hbonds>
donor molecule, donor type, donor heavy atom, donor atom, acceptor molecule, acceptor atom, score
      L1  H     8    22       P1  8028  0.95
      P1  H  7997  8010       L1    12  0.05

> <Gold.Chemscore.Hbond.Weighted>
-3.3269

> <Gold.Chemscore.Metal.Weighted>
-0.0000

> <Gold.Chemscore.Lipo.Weighted>
-5.5710

> <Gold.Chemscore.Internal_Hbond.Weighted>
0.0000

> <Gold.Chemscore.DEClash.Weighted>
0.0050

> <Gold.Chemscore.DEInternal.Weighted>
0.0113

> <Gold.Chemscore.Rot.Weighted>
3.2853

> <Gold.Chemscore.Internal.Correction.Weighted>
   9.000000E+99

> <Gold.Protein.RotatedTorsions>
[ 6907 6896 6895 6894 ] final  102.27 input  -60.11 | X-H torsion
[ 7974 7965 7964 7962 ] final  159.64 input  175.53 | X-H torsion
[ 8008 7997 7996 7995 ] final   65.93 input   59.86 | X-H torsion
[ 10167 10162 10161 10158 ] final   64.01 input  -65.29 | X-H torsion
[ 10718 10713 10712 10709 ] final  -97.08 input   66.30 | X-H torsion
[ 10763 10752 10751 10750 ] final  137.33 input  -60.55 | X-H torsion
[ 11005 11000 10999 10996 ] final -102.08 input  -57.11 | X-H torsion

> <Gold.Protein.ActiveResidues>
 VAL166  LYS551  ARG553  GLY616  TRP617  ASP618  TYR619  PRO620  LYS621  CYS622 
 ASP623  PHE694  ASN695  SER759  ASP760  ASP761  ALA762  ILE779  LEU786  VAL792 
 PHE793  MET794  SER795  GLU796  ALA797  LYS798  CYS799  TRP800  GLU811  SER814 

> <Gold.Protein.RotatedAtoms>
  152.5328  134.0001  159.7890 H   0  0  0  0  0  0  0  0  0  0  0  0  # atno 6907 bound_to 6896
  151.0222  133.5859  159.2677 H   0  0  0  0  0  0  0  0  0  0  0  0  # atno 6908 bound_to 6896
  151.2894  135.0744  159.9252 H   0  0  0  0  0  0  0  0  0  0  0  0  # atno 6909 bound_to 6896
  144.7779  139.7645  143.6271 H   0  0  0  0  0  0  0  0  0  0  0  0  # atno 7974 bound_to 7965
  155.6694  140.3497  155.4812 H   0  0  0  0  0  0  0  0  0  0  0  0  # atno 8008 bound_to 7997
  155.9701  140.1154  157.0842 H   0  0  0  0  0  0  0  0  0  0  0  0  # atno 8009 bound_to 7997
  154.4164  140.1158  156.5281 H   0  0  0  0  0  0  0  0  0  0  0  0  # atno 8010 bound_to 7997
  140.1268  144.4680  150.6888 H   0  0  0  0  0  0  0  0  0  0  0  0  # atno 10167 bound_to 10162
  156.0076  130.5179  150.6322 H   0  0  0  0  0  0  0  0  0  0  0  0  # atno 10718 bound_to 10713
  153.8713  135.3055  155.3442 H   0  0  0  0  0  0  0  0  0  0  0  0  # atno 10763 bound_to 10752
  154.7804  135.4838  153.9836 H   0  0  0  0  0  0  0  0  0  0  0  0  # atno 10764 bound_to 10752
  153.1405  135.6823  153.9131 H   0  0  0  0  0  0  0  0  0  0  0  0  # atno 10765 bound_to 10752
  141.1204  133.8529  157.1313 H   0  0  0  0  0  0  0  0  0  0  0  0  # atno 11005 bound_to 11000
  146.1970  139.5243  142.9768 LP  0  0  0  0  0  0  0  0  0  0  0  0  # atno 17320 bound_to 7965
  145.6133  141.0336  143.1955 LP  0  0  0  0  0  0  0  0  0  0  0  0  # atno 17321 bound_to 7965
  140.6840  143.2341  151.5309 LP  0  0  0  0  0  0  0  0  0  0  0  0  # atno 17342 bound_to 10162
  139.5540  144.2323  152.1580 LP  0  0  0  0  0  0  0  0  0  0  0  0  # atno 17343 bound_to 10162
  157.4118  131.0824  151.1214 LP  0  0  0  0  0  0  0  0  0  0  0  0  # atno 17370 bound_to 10713
  157.1843  130.6323  149.5682 LP  0  0  0  0  0  0  0  0  0  0  0  0  # atno 17371 bound_to 10713
  140.0157  134.9968  157.0489 LP  0  0  0  0  0  0  0  0  0  0  0  0  # atno 17394 bound_to 11000
  140.4523  134.1569  155.7183 LP  0  0  0  0  0  0  0  0  0  0  0  0  # atno 17395 bound_to 11000

$$$$
