AV-unprocessed.smi:1174|AV-procd|sdf|4947|dock6
  -GOLD-   22720 3533D 1   1.00000     0.00000
 Structure written by MMmdl.
 41 42  0  0  0  0  0  0  0  0  1 V2000
  151.9450  144.4982  157.1003 C   0  0  0  0  0  0  0  0  0  0  0  0
  151.4079  143.1886  157.6979 C   0  0  1  0  0  0  0  0  0  0  0  0
  151.0085  143.3638  159.1759 C   0  0  0  0  0  0  0  0  0  0  0  0
  152.0013  142.8204  160.0864 N   0  0  0  0  0  0  0  0  0  0  0  0
  153.1826  142.1771  159.7811 C   0  0  0  0  0  0  0  0  0  0  0  0
  153.7866  141.8553  160.9624 C   0  0  0  0  0  0  0  0  0  0  0  0
  152.8857  142.3481  161.9476 C   0  0  0  0  0  0  0  0  0  0  0  0
  151.8174  142.9238  161.4201 N   0  0  0  0  0  0  0  0  0  0  0  0
  150.2591  142.7224  156.9246 N   0  0  0  0  0  0  0  0  0  0  0  0
  149.7770  141.4705  156.9196 C   0  0  0  0  0  0  0  0  0  0  0  0
  150.2853  140.5464  157.5549 O   0  0  0  0  0  0  0  0  0  0  0  0
  148.5263  141.2289  156.0656 C   0  0  2  0  0  0  0  0  0  0  0  0
  148.8071  141.4974  154.5682 C   0  0  0  0  0  0  0  0  0  0  0  0
  147.5257  141.3904  153.7194 C   0  0  0  0  0  0  0  0  0  0  0  0
  146.3925  142.2416  154.3210 C   0  0  0  0  0  0  0  0  0  0  0  0
  146.1736  141.8205  155.7153 N   0  0  0  0  0  0  0  0  0  0  0  0
  145.1446  141.0623  156.1703 C   0  0  0  0  0  0  0  0  0  0  0  0
  144.2400  140.7164  155.2493 N   0  0  0  0  0  0  0  0  0  0  0  0
  145.0067  140.7312  157.3468 O   0  0  0  0  0  0  0  0  0  0  0  0
  147.3493  142.1061  156.5472 C   0  0  0  0  0  0  0  0  0  0  0  0
  152.8119  144.8558  157.6567 H   0  0  0  0  0  0  0  0  0  0  0  0
  151.1892  145.2838  157.1208 H   0  0  0  0  0  0  0  0  0  0  0  0
  152.2560  144.3615  156.0641 H   0  0  0  0  0  0  0  0  0  0  0  0
  152.2029  142.4420  157.6485 H   0  0  0  0  0  0  0  0  0  0  0  0
  150.8765  144.4216  159.4082 H   0  0  0  0  0  0  0  0  0  0  0  0
  150.0510  142.8800  159.3742 H   0  0  0  0  0  0  0  0  0  0  0  0
  153.4928  142.0071  158.7605 H   0  0  0  0  0  0  0  0  0  0  0  0
  154.7284  141.3455  161.1017 H   0  0  0  0  0  0  0  0  0  0  0  0
  152.9756  142.3042  163.0229 H   0  0  0  0  0  0  0  0  0  0  0  0
  149.7789  143.4123  156.3653 H   0  0  0  0  0  0  0  0  0  0  0  0
  148.2346  140.1820  156.1726 H   0  0  0  0  0  0  0  0  0  0  0  0
  149.2256  142.4972  154.4416 H   0  0  0  0  0  0  0  0  0  0  0  0
  149.5578  140.8005  154.1930 H   0  0  0  0  0  0  0  0  0  0  0  0
  147.7295  141.7057  152.6957 H   0  0  0  0  0  0  0  0  0  0  0  0
  147.2087  140.3479  153.6656 H   0  0  0  0  0  0  0  0  0  0  0  0
  146.6726  143.2959  154.3056 H   0  0  0  0  0  0  0  0  0  0  0  0
  145.5045  142.1707  153.6933 H   0  0  0  0  0  0  0  0  0  0  0  0
  143.4456  140.1510  155.5101 H   0  0  0  0  0  0  0  0  0  0  0  0
  144.3576  141.0223  154.2943 H   0  0  0  0  0  0  0  0  0  0  0  0
  147.1566  141.9374  157.6083 H   0  0  0  0  0  0  0  0  0  0  0  0
  147.5987  143.1650  156.4608 H   0  0  0  0  0  0  0  0  0  0  0  0
  1  2  1  0  0  0  0
  1 21  1  0  0  0  0
  1 22  1  0  0  0  0
  1 23  1  0  0  0  0
  2  3  1  0  0  0  0
  2  9  1  0  0  0  0
  2 24  1  0  0  0  0
  3  4  1  0  0  0  0
  3 25  1  0  0  0  0
  3 26  1  0  0  0  0
  4  8  1  0  0  0  0
  4  5  1  0  0  0  0
  5  6  2  0  0  0  0
  5 27  1  0  0  0  0
  6  7  1  0  0  0  0
  6 28  1  0  0  0  0
  7  8  2  0  0  0  0
  7 29  1  0  0  0  0
  9 10  1  0  0  0  0
  9 30  1  0  0  0  0
 10 11  2  0  0  0  0
 10 12  1  0  0  0  0
 12 20  1  0  0  0  0
 12 13  1  0  0  0  0
 12 31  1  0  0  0  0
 13 14  1  0  0  0  0
 13 32  1  0  0  0  0
 13 33  1  0  0  0  0
 14 15  1  0  0  0  0
 14 34  1  0  0  0  0
 14 35  1  0  0  0  0
 15 16  1  0  0  0  0
 15 36  1  0  0  0  0
 15 37  1  0  0  0  0
 16 17  1  0  0  0  0
 16 20  1  0  0  0  0
 17 18  1  0  0  0  0
 17 19  2  0  0  0  0
 18 38  1  0  0  0  0
 18 39  1  0  0  0  0
 20 40  1  0  0  0  0
 20 41  1  0  0  0  0
M  END
> <s_m_source_file>
AV-unprocessed.smi

> <i_m_source_file_index>
1174

> <i_lp_mmshare_version>
43012

> <i_f3d_flags>
0

> <s_epik_input>
bjFbY0hdW2NIXVtjSF1uMVtDSDJdW0NAQEhdKFtDSDNdKVtOSF1DKD1PKVtDQEBIXTJbQ0gyXVtDSDJdW0NIMl1OKFtDSDJdMilDKD1PKVtOSDJd

> <s_epik_cmdline>
J2VwaWtfcHl0aG9uJywgJy1waCcsICc3LjAnLCAnLXRuJywgJzgnLCAnLW1hJywgJzIwMCcsICctbWV0YWxfYmluZGluZycsICctaW1hZScsICc8aW5maWxlLm1hZT4nLCAnLW9tYWUnLCAnPG91dGZpbGUubWFlPic=

> <r_lp_tautomer_probability>
1

> <r_epik_Ionization_Penalty>
0.000372452

> <r_epik_Ionization_Penalty_Charging>
0

> <r_epik_Ionization_Penalty_Neutral>
0.000372452

> <r_epik_State_Penalty>
-0

> <r_epik_Charging_Adjusted_Penalty>
0

> <i_epik_Tot_Q>
0

> <i_epik_Tot_abs_Q>
0

> <r_epik_Metal_State_Penalty>
-0

> <b_epik_Metal_Only>
0

> <s_lp_Force_Field>
OPLS_2005

> <r_lp_Energy>
26.6636

> <b_lp_Chiralities_Consistent>
1

> <s_lp_Variant>
AV-unprocessed.smi:1174-2

> <Gold.Version>
5.8.1

> <Gold.Id.Protein>
6NUR|6NUR_protein|mol2

> <Gold.PLP.Fitness>
45.2511

> <Gold.PLP.PLP>
-40.9976

> <Gold.PLP.part.hbond>
-3.0000

> <Gold.PLP.part.metal>
0.0000

> <Gold.PLP.part.buried>
-5.8844

> <Gold.PLP.part.nonpolar>
-33.1197

> <Gold.PLP.part.repulsive>
0.1674

> <Gold.PLP.ligand.clash>
0.0000

> <Gold.PLP.ligand.torsion>
0.8939

> <Gold.PLP.Chemscore.Hbond>
1.9957

> <Gold.PLP.Chemscore.CHOScore>
0.0000

> <Gold.PLP.Chemscore.Metal>
0.0000

> <Gold.Chemscore.Hbonds>
donor molecule, donor type, donor heavy atom, donor atom, acceptor molecule, acceptor atom, score
      L1  H     9    30       P1  8028  1.00
      L1  H    18    39       P1 10175  0.74
      P1  H  6933  6945       L1     8  0.23

> <Gold.PLP.Chemscore.Internal.Correction>
0.0542

> <Gold.Rescore>
     Score         DG    S(hbond)    S(metal)    S(lipo)     H(rot)  DE(clash)    DE(int)     intcor
     18.32     -19.42       2.37        0.00      91.34       1.82       0.11       0.99       ----

> <Gold.Chemscore.Fitness>
18.3160

> <Gold.Chemscore.DG>
-19.4155

> <Gold.Chemscore.ZeroCoef>
-5.4800

> <Gold.Chemscore.Hbond>
2.3682

> <Gold.Chemscore.Metal>
0.0000

> <Gold.Chemscore.Lipo>
91.3360

> <Gold.Chemscore.Internal_Hbond>
0.0000

> <Gold.Chemscore.DEClash>
0.1103

> <Gold.Chemscore.DEInternal>
0.9893

> <Gold.Chemscore.Rot>
1.8206

> <Gold.Chemscore.Internal.Correction>
   9.000000E+99

> <Gold.Chemscore.Hbonds>
donor molecule, donor type, donor heavy atom, donor atom, acceptor molecule, acceptor atom, score
      L1  H     9    30       P1  8028  1.00
      L1  H    18    39       P1 10175  0.63
      P1  H  6933  6945       L1     8  0.12

> <Gold.Chemscore.Hbond.Weighted>
-7.9099

> <Gold.Chemscore.Metal.Weighted>
-0.0000

> <Gold.Chemscore.Lipo.Weighted>
-10.6863

> <Gold.Chemscore.Internal_Hbond.Weighted>
0.0000

> <Gold.Chemscore.DEClash.Weighted>
0.1103

> <Gold.Chemscore.DEInternal.Weighted>
0.9893

> <Gold.Chemscore.Rot.Weighted>
4.6607

> <Gold.Chemscore.Internal.Correction.Weighted>
   9.000000E+99

> <Gold.Protein.RotatedTorsions>
[ 6907 6896 6895 6894 ] final   59.40 input  -60.11 | X-H torsion
[ 7974 7965 7964 7962 ] final   50.06 input  175.53 | X-H torsion
[ 8008 7997 7996 7995 ] final -154.63 input   59.86 | X-H torsion
[ 10167 10162 10161 10158 ] final -178.93 input  -65.29 | X-H torsion
[ 10718 10713 10712 10709 ] final  108.04 input   66.30 | X-H torsion
[ 10763 10752 10751 10750 ] final  173.41 input  -60.55 | X-H torsion
[ 11005 11000 10999 10996 ] final -168.38 input  -57.11 | X-H torsion

> <Gold.Protein.ActiveResidues>
 VAL166  LYS551  ARG553  GLY616  TRP617  ASP618  TYR619  PRO620  LYS621  CYS622 
 ASP623  PHE694  ASN695  SER759  ASP760  ASP761  ALA762  ILE779  LEU786  VAL792 
 PHE793  MET794  SER795  GLU796  ALA797  LYS798  CYS799  TRP800  GLU811  SER814 

> <Gold.Protein.RotatedAtoms>
  152.3911  134.6440  160.0106 H   0  0  0  0  0  0  0  0  0  0  0  0  # atno 6907 bound_to 6896
  151.6674  133.3309  159.3196 H   0  0  0  0  0  0  0  0  0  0  0  0  # atno 6908 bound_to 6896
  150.7827  134.6829  159.6498 H   0  0  0  0  0  0  0  0  0  0  0  0  # atno 6909 bound_to 6896
  146.0049  139.4479  142.9992 H   0  0  0  0  0  0  0  0  0  0  0  0  # atno 7974 bound_to 7965
  155.6893  140.0753  157.2454 H   0  0  0  0  0  0  0  0  0  0  0  0  # atno 8008 bound_to 7997
  154.4091  140.1667  156.2121 H   0  0  0  0  0  0  0  0  0  0  0  0  # atno 8009 bound_to 7997
  155.9466  140.3380  155.6375 H   0  0  0  0  0  0  0  0  0  0  0  0  # atno 8010 bound_to 7997
  139.5409  144.2365  152.0893 H   0  0  0  0  0  0  0  0  0  0  0  0  # atno 10167 bound_to 10162
  157.6603  131.0885  150.6245 H   0  0  0  0  0  0  0  0  0  0  0  0  # atno 10718 bound_to 10713
  154.4397  135.2762  155.1856 H   0  0  0  0  0  0  0  0  0  0  0  0  # atno 10763 bound_to 10752
  154.3728  135.6105  153.5752 H   0  0  0  0  0  0  0  0  0  0  0  0  # atno 10764 bound_to 10752
  152.9840  135.5861  154.4722 H   0  0  0  0  0  0  0  0  0  0  0  0  # atno 10765 bound_to 10752
  140.5426  134.5507  157.5103 H   0  0  0  0  0  0  0  0  0  0  0  0  # atno 11005 bound_to 11000
  145.7431  141.0000  143.1290 LP  0  0  0  0  0  0  0  0  0  0  0  0  # atno 17320 bound_to 7965
  144.6932  139.9123  143.7464 LP  0  0  0  0  0  0  0  0  0  0  0  0  # atno 17321 bound_to 7965
  140.1844  144.4813  150.6511 LP  0  0  0  0  0  0  0  0  0  0  0  0  # atno 17342 bound_to 10162
  140.6639  143.2261  151.5791 LP  0  0  0  0  0  0  0  0  0  0  0  0  # atno 17343 bound_to 10162
  156.6549  130.4495  149.5707 LP  0  0  0  0  0  0  0  0  0  0  0  0  # atno 17370 bound_to 10713
  156.2110  130.6679  151.1269 LP  0  0  0  0  0  0  0  0  0  0  0  0  # atno 17371 bound_to 10713
  139.9496  134.7641  156.0480 LP  0  0  0  0  0  0  0  0  0  0  0  0  # atno 17394 bound_to 11000
  141.1218  133.6610  156.3234 LP  0  0  0  0  0  0  0  0  0  0  0  0  # atno 17395 bound_to 11000

$$$$
