AV-unprocessed.smi:54|AV-procd|sdf|537|dock6
  -GOLD-   2262016423D 1   1.00000     0.00000
 Structure written by MMmdl.
 44 46  0  0  0  0  0  0  0  0  1 V2000
  152.5442  144.3712  159.7966 C   0  0  0  0  0  0  0  0  0  0  0  0
  152.0738  143.0183  160.3549 C   0  0  0  0  0  0  0  0  0  0  0  0
  152.7090  142.7280  161.7244 C   0  0  0  0  0  0  0  0  0  0  0  0
  152.3860  141.8942  159.3615 C   0  0  0  0  0  0  0  0  0  0  0  0
  153.5137  141.4124  159.2511 O   0  0  0  0  0  0  0  0  0  0  0  0
  151.2645  141.4260  158.5717 N   0  0  0  0  0  0  0  0  0  0  0  0
  151.3073  140.4760  157.6122 C   0  0  0  0  0  0  0  0  0  0  0  0
  150.2955  140.2559  156.7854 N   0  0  0  0  0  0  0  0  0  0  0  0
  150.5013  139.2401  155.8917 C   0  0  0  0  0  0  0  0  0  0  0  0
  151.6332  138.4561  155.7914 C   0  0  0  0  0  0  0  0  0  0  0  0
  151.4867  137.5267  154.7682 N   0  0  0  0  0  0  0  0  0  0  0  0
  150.2940  137.7608  154.2980 C   0  0  0  0  0  0  0  0  0  0  0  0
  149.6234  138.7812  154.9270 N   0  0  0  0  0  0  0  0  0  0  0  0
  148.2391  139.2713  154.6371 C   0  0  2  0  0  0  0  0  0  0  0  0
  147.7008  138.5574  153.5725 O   0  0  0  0  0  0  0  0  0  0  0  0
  146.7317  139.3652  152.9101 C   0  0  2  0  0  0  0  0  0  0  0  0
  146.8587  139.1676  151.3882 C   0  0  0  0  0  0  0  0  0  0  0  0
  146.8865  137.8005  151.0306 O   0  0  0  0  0  0  0  0  0  0  0  0
  146.9170  140.8122  153.4146 C   0  0  1  0  0  0  0  0  0  0  0  0
  145.8217  141.1673  154.2380 O   0  0  0  0  0  0  0  0  0  0  0  0
  148.1936  140.7537  154.2442 C   0  0  2  0  0  0  0  0  0  0  0  0
  149.3135  141.1665  153.4829 O   0  0  0  0  0  0  0  0  0  0  0  0
  152.7309  138.6765  156.6884 C   0  0  0  0  0  0  0  0  0  0  0  0
  153.8013  138.0752  156.7440 O   0  0  0  0  0  0  0  0  0  0  0  0
  152.4780  139.7200  157.5873 N   0  0  0  0  0  0  0  0  0  0  0  0
  147.6659  139.0593  155.5409 H   0  0  0  0  0  0  0  0  0  0  0  0
  145.7545  138.9850  153.2135 H   0  0  0  0  0  0  0  0  0  0  0  0
  146.9772  141.5455  152.6091 H   0  0  0  0  0  0  0  0  0  0  0  0
  148.1483  141.3733  155.1409 H   0  0  0  0  0  0  0  0  0  0  0  0
  152.1022  144.5729  158.8199 H   0  0  0  0  0  0  0  0  0  0  0  0
  153.6288  144.4029  159.6842 H   0  0  0  0  0  0  0  0  0  0  0  0
  152.2573  145.1878  160.4597 H   0  0  0  0  0  0  0  0  0  0  0  0
  150.9919  143.0650  160.4878 H   0  0  0  0  0  0  0  0  0  0  0  0
  152.3832  141.7642  162.1174 H   0  0  0  0  0  0  0  0  0  0  0  0
  152.4275  143.4889  162.4528 H   0  0  0  0  0  0  0  0  0  0  0  0
  153.7984  142.7138  161.6674 H   0  0  0  0  0  0  0  0  0  0  0  0
  150.3603  141.8118  158.7999 H   0  0  0  0  0  0  0  0  0  0  0  0
  149.8679  137.1896  153.4861 H   0  0  0  0  0  0  0  0  0  0  0  0
  146.0426  139.6684  150.8674 H   0  0  0  0  0  0  0  0  0  0  0  0
  147.7854  139.6205  151.0358 H   0  0  0  0  0  0  0  0  0  0  0  0
  147.3292  137.3219  151.7144 H   0  0  0  0  0  0  0  0  0  0  0  0
  145.0212  140.9387  153.7911 H   0  0  0  0  0  0  0  0  0  0  0  0
  149.5693  140.4496  152.9213 H   0  0  0  0  0  0  0  0  0  0  0  0
  153.2075  139.9312  158.2520 H   0  0  0  0  0  0  0  0  0  0  0  0
  1  2  1  0  0  0  0
  1 30  1  0  0  0  0
  1 31  1  0  0  0  0
  1 32  1  0  0  0  0
  2  3  1  0  0  0  0
  2  4  1  0  0  0  0
  2 33  1  0  0  0  0
  3 34  1  0  0  0  0
  3 35  1  0  0  0  0
  3 36  1  0  0  0  0
  4  5  2  0  0  0  0
  4  6  1  0  0  0  0
  6 37  1  0  0  0  0
  6  7  1  0  0  0  0
  7 25  1  0  0  0  0
  7  8  2  0  0  0  0
  8  9  1  0  0  0  0
  9 13  1  0  0  0  0
  9 10  2  0  0  0  0
 10 11  1  0  0  0  0
 10 23  1  0  0  0  0
 11 12  2  0  0  0  0
 12 13  1  0  0  0  0
 12 38  1  0  0  0  0
 13 14  1  0  0  0  0
 14 26  1  0  0  0  0
 14 21  1  0  0  0  0
 14 15  1  0  0  0  0
 15 16  1  0  0  0  0
 16 27  1  0  0  0  0
 16 17  1  0  0  0  0
 16 19  1  0  0  0  0
 17 18  1  0  0  0  0
 17 39  1  0  0  0  0
 17 40  1  0  0  0  0
 18 41  1  0  0  0  0
 19 28  1  0  0  0  0
 19 20  1  0  0  0  0
 19 21  1  0  0  0  0
 20 42  1  0  0  0  0
 21 29  1  0  0  0  0
 21 22  1  0  0  0  0
 22 43  1  0  0  0  0
 23 24  2  0  0  0  0
 23 25  1  0  0  0  0
 25 44  1  0  0  0  0
M  END
> <s_m_source_file>
AV-unprocessed.smi

> <i_m_source_file_index>
54

> <i_lp_mmshare_version>
43012

> <i_f3d_flags>
0

> <s_epik_input>
W0NIM11bQ0hdKFtDSDNdKUMoPU8pW05IXWMobjEpW25IXWMoPU8pYyhjMTIpbltjSF1uMltDQEBIXTNPW0NASF0oW0NIMl1bT0hdKVtDQEBIXShbT0hdKVtDQEhdM1tPSF0=

> <s_epik_cmdline>
J2VwaWtfcHl0aG9uJywgJy1waCcsICc3LjAnLCAnLXRuJywgJzgnLCAnLW1hJywgJzIwMCcsICctbWV0YWxfYmluZGluZycsICctaW1hZScsICc8aW5maWxlLm1hZT4nLCAnLW9tYWUnLCAnPG91dGZpbGUubWFlPic=

> <r_lp_tautomer_probability>
0.85571

> <r_epik_Ionization_Penalty>
0.0316551

> <r_epik_Ionization_Penalty_Charging>
0.0316043

> <r_epik_Ionization_Penalty_Neutral>
5.07097e-05

> <r_epik_State_Penalty>
3.15494e-07

> <r_epik_Charging_Adjusted_Penalty>
0.0316047

> <i_epik_Tot_Q>
0

> <i_epik_Tot_abs_Q>
0

> <r_epik_Metal_State_Penalty>
0.421206

> <b_epik_Metal_Only>
0

> <s_epik_Chemistry_Notes>
This compound contains an acetal/aminal-like group ( X-CH(R)-Y where X, Y are N, S, or O) that may be acid/base labile, releasing an aldehyde.

> <s_lp_Force_Field>
OPLS_2005

> <r_lp_Energy>
42.9464

> <b_lp_Chiralities_Consistent>
1

> <s_lp_Variant>
AV-unprocessed.smi:54-9

> <Gold.Version>
5.8.1

> <Gold.Id.Protein>
6NUR|6NUR_protein|mol2

> <Gold.PLP.Fitness>
57.1083

> <Gold.PLP.PLP>
-41.6533

> <Gold.PLP.part.hbond>
-7.1772

> <Gold.PLP.part.metal>
0.0000

> <Gold.PLP.part.buried>
-1.9712

> <Gold.PLP.part.nonpolar>
-33.9844

> <Gold.PLP.part.repulsive>
1.4031

> <Gold.PLP.ligand.clash>
0.0000

> <Gold.PLP.ligand.torsion>
0.5271

> <Gold.PLP.Chemscore.Hbond>
4.4918

> <Gold.PLP.Chemscore.CHOScore>
1.0000

> <Gold.PLP.Chemscore.Metal>
0.0000

> <Gold.Chemscore.Hbonds>
donor molecule, donor type, donor heavy atom, donor atom, acceptor molecule, acceptor atom, score
      L1  H    18    41       P1  7948  0.69
      L1  H    20    42       P1 10175  1.00
      L1  H    22    43       P1  7957  0.77
      P1  H  7954  7966       L1    18  0.86
      P1  H  7997  8009       L1    24  0.11
      P1  H  8011  8017       L1    22  0.70
      P1  H 10752 10765       L1    11  0.08
      L1  C    12    38       P1  7948  1.00

> <Gold.PLP.Chemscore.Internal.Correction>
0.0341

> <Gold.Rescore>
     Score         DG    S(hbond)    S(metal)    S(lipo)     H(rot)  DE(clash)    DE(int)     intcor
     13.00     -13.98       3.06        0.00      73.92       4.05       0.74       0.24       ----

> <Gold.Chemscore.Fitness>
13.0016

> <Gold.Chemscore.DG>
-13.9830

> <Gold.Chemscore.ZeroCoef>
-5.4800

> <Gold.Chemscore.Hbond>
3.0602

> <Gold.Chemscore.Metal>
0.0000

> <Gold.Chemscore.Lipo>
73.9174

> <Gold.Chemscore.Internal_Hbond>
0.0000

> <Gold.Chemscore.DEClash>
0.7424

> <Gold.Chemscore.DEInternal>
0.2390

> <Gold.Chemscore.Rot>
4.0493

> <Gold.Chemscore.Internal.Correction>
   9.000000E+99

> <Gold.Chemscore.Hbonds>
donor molecule, donor type, donor heavy atom, donor atom, acceptor molecule, acceptor atom, score
      L1  H    18    41       P1  7948  0.70
      L1  H    20    42       P1 10175  0.85
      L1  H    22    43       P1  7957  0.78
      P1  H  7954  7966       L1    18  0.04
      P1  H  8011  8017       L1    22  0.07
      P1  H 10752 10765       L1    11  0.11

> <Gold.Chemscore.Hbond.Weighted>
-10.2209

> <Gold.Chemscore.Metal.Weighted>
-0.0000

> <Gold.Chemscore.Lipo.Weighted>
-8.6483

> <Gold.Chemscore.Internal_Hbond.Weighted>
0.0000

> <Gold.Chemscore.DEClash.Weighted>
0.7424

> <Gold.Chemscore.DEInternal.Weighted>
0.2390

> <Gold.Chemscore.Rot.Weighted>
10.3662

> <Gold.Chemscore.Internal.Correction.Weighted>
   9.000000E+99

> <Gold.Protein.RotatedTorsions>
[ 6907 6896 6895 6894 ] final   19.55 input  -60.11 | X-H torsion
[ 7974 7965 7964 7962 ] final   43.12 input  175.53 | X-H torsion
[ 8008 7997 7996 7995 ] final  140.64 input   59.86 | X-H torsion
[ 10167 10162 10161 10158 ] final  -36.66 input  -65.29 | X-H torsion
[ 10718 10713 10712 10709 ] final  -58.07 input   66.30 | X-H torsion
[ 10763 10752 10751 10750 ] final  170.68 input  -60.55 | X-H torsion
[ 11005 11000 10999 10996 ] final    3.90 input  -57.11 | X-H torsion

> <Gold.Protein.ActiveResidues>
 VAL166  LYS551  ARG553  GLY616  TRP617  ASP618  TYR619  PRO620  LYS621  CYS622 
 ASP623  PHE694  ASN695  SER759  ASP760  ASP761  ALA762  ILE779  LEU786  VAL792 
 PHE793  MET794  SER795  GLU796  ALA797  LYS798  CYS799  TRP800  GLU811  SER814 

> <Gold.Protein.RotatedAtoms>
  151.8826  135.0447  160.0489 H   0  0  0  0  0  0  0  0  0  0  0  0  # atno 6907 bound_to 6896
  152.2500  133.5202  159.5328 H   0  0  0  0  0  0  0  0  0  0  0  0  # atno 6908 bound_to 6896
  150.7081  134.0889  159.3967 H   0  0  0  0  0  0  0  0  0  0  0  0  # atno 6909 bound_to 6896
  146.0682  139.5222  142.9614 H   0  0  0  0  0  0  0  0  0  0  0  0  # atno 7974 bound_to 7965
  156.2976  140.2336  156.4435 H   0  0  0  0  0  0  0  0  0  0  0  0  # atno 8008 bound_to 7997
  154.8165  140.0440  157.1400 H   0  0  0  0  0  0  0  0  0  0  0  0  # atno 8009 bound_to 7997
  154.9364  140.3023  155.5146 H   0  0  0  0  0  0  0  0  0  0  0  0  # atno 8010 bound_to 7997
  140.7137  143.3394  151.2391 H   0  0  0  0  0  0  0  0  0  0  0  0  # atno 10167 bound_to 10162
  156.1163  130.4170  150.0526 H   0  0  0  0  0  0  0  0  0  0  0  0  # atno 10718 bound_to 10713
  154.4011  135.2755  155.2096 H   0  0  0  0  0  0  0  0  0  0  0  0  # atno 10763 bound_to 10752
  154.4121  135.6020  153.5962 H   0  0  0  0  0  0  0  0  0  0  0  0  # atno 10764 bound_to 10752
  152.9831  135.5952  154.4279 H   0  0  0  0  0  0  0  0  0  0  0  0  # atno 10765 bound_to 10752
  140.5880  133.9951  155.8076 H   0  0  0  0  0  0  0  0  0  0  0  0  # atno 11005 bound_to 11000
  145.6439  141.0278  143.1797 LP  0  0  0  0  0  0  0  0  0  0  0  0  # atno 17320 bound_to 7965
  144.7215  139.8014  143.7380 LP  0  0  0  0  0  0  0  0  0  0  0  0  # atno 17321 bound_to 7965
  139.6897  143.9712  152.2853 LP  0  0  0  0  0  0  0  0  0  0  0  0  # atno 17342 bound_to 10162
  139.9370  144.6706  150.8305 LP  0  0  0  0  0  0  0  0  0  0  0  0  # atno 17343 bound_to 10162
  156.8477  130.9448  151.3628 LP  0  0  0  0  0  0  0  0  0  0  0  0  # atno 17370 bound_to 10713
  157.6346  130.8756  149.9336 LP  0  0  0  0  0  0  0  0  0  0  0  0  # atno 17371 bound_to 10713
  141.0954  133.9852  157.3169 LP  0  0  0  0  0  0  0  0  0  0  0  0  # atno 17394 bound_to 11000
  139.9287  135.0201  156.8325 LP  0  0  0  0  0  0  0  0  0  0  0  0  # atno 17395 bound_to 11000

$$$$
