AV-unprocessed.smi:1230|AV-procd|sdf|5159|dock1
  -GOLD-   22720 4233D 1   1.00000     0.00000
 Structure written by MMmdl.
 39 40  0  0  0  0  0  0  0  0  1 V2000
  153.0941  140.8962  159.0357 C   0  0  0  0  0  0  0  0  0  0  0  0
  152.2523  142.0151  159.6708 C   0  0  1  0  0  0  0  0  0  0  0  0
  153.1114  142.8626  160.6306 C   0  0  0  0  0  0  0  0  0  0  0  0
  152.2986  143.9953  161.2754 C   0  0  0  0  0  0  0  0  0  0  0  0
  151.6487  144.8840  160.2062 C   0  0  0  0  0  0  0  0  0  0  0  0
  150.7803  144.0518  159.2512 C   0  0  0  0  0  0  0  0  0  0  0  0
  151.5869  142.9085  158.5992 C   0  0  2  0  0  0  0  0  0  0  0  0
  150.7139  142.0904  157.8294 O   0  0  0  0  0  0  0  0  0  0  0  0
  150.9417  142.1433  156.4297 C   0  0  0  0  0  0  0  0  0  0  0  0
  150.9959  140.7056  155.8915 C   0  0  0  0  0  0  0  0  0  0  0  0
  149.8678  140.3776  155.0563 N   0  0  0  0  0  0  0  0  0  0  0  0
  148.7662  141.2109  154.9341 C   0  0  0  0  0  0  0  0  0  0  0  0
  147.6946  140.9014  154.1664 C   0  0  0  0  0  0  0  0  0  0  0  0
  146.5681  141.7677  154.0524 C   0  0  0  0  0  0  0  0  0  0  0  0
  145.6555  142.4761  153.9851 N   0  0  0  0  0  0  0  0  0  0  0  0
  147.6492  139.6464  153.4178 C   0  0  0  0  0  0  0  0  0  0  0  0
  146.7270  139.2762  152.6937 O   0  0  0  0  0  0  0  0  0  0  0  0
  148.7787  138.8375  153.5802 N   0  0  0  0  0  0  0  0  0  0  0  0
  149.8898  139.1405  154.3700 C   0  0  0  0  0  0  0  0  0  0  0  0
  150.8249  138.3431  154.4448 O   0  0  0  0  0  0  0  0  0  0  0  0
  148.7905  137.9567  153.0864 H   0  0  0  0  0  0  0  0  0  0  0  0
  153.8947  141.3044  158.4180 H   0  0  0  0  0  0  0  0  0  0  0  0
  152.4847  140.2493  158.4043 H   0  0  0  0  0  0  0  0  0  0  0  0
  153.5515  140.2673  159.8000 H   0  0  0  0  0  0  0  0  0  0  0  0
  151.4622  141.5439  160.2575 H   0  0  0  0  0  0  0  0  0  0  0  0
  153.5331  142.2290  161.4115 H   0  0  0  0  0  0  0  0  0  0  0  0
  153.9578  143.2881  160.0893 H   0  0  0  0  0  0  0  0  0  0  0  0
  151.5270  143.5720  161.9198 H   0  0  0  0  0  0  0  0  0  0  0  0
  152.9430  144.5966  161.9172 H   0  0  0  0  0  0  0  0  0  0  0  0
  151.0433  145.6560  160.6821 H   0  0  0  0  0  0  0  0  0  0  0  0
  152.4230  145.4027  159.6395 H   0  0  0  0  0  0  0  0  0  0  0  0
  149.9355  143.6349  159.8010 H   0  0  0  0  0  0  0  0  0  0  0  0
  150.3578  144.7071  158.4902 H   0  0  0  0  0  0  0  0  0  0  0  0
  152.3708  143.3277  157.9651 H   0  0  0  0  0  0  0  0  0  0  0  0
  150.1519  142.7065  155.9331 H   0  0  0  0  0  0  0  0  0  0  0  0
  151.8858  142.6515  156.2272 H   0  0  0  0  0  0  0  0  0  0  0  0
  151.8844  140.5585  155.2758 H   0  0  0  0  0  0  0  0  0  0  0  0
  151.0488  139.9606  156.6885 H   0  0  0  0  0  0  0  0  0  0  0  0
  148.7554  142.1471  155.4745 H   0  0  0  0  0  0  0  0  0  0  0  0
  1  2  1  0  0  0  0
  1 22  1  0  0  0  0
  1 23  1  0  0  0  0
  1 24  1  0  0  0  0
  2  7  1  0  0  0  0
  2  3  1  0  0  0  0
  2 25  1  0  0  0  0
  3  4  1  0  0  0  0
  3 26  1  0  0  0  0
  3 27  1  0  0  0  0
  4  5  1  0  0  0  0
  4 28  1  0  0  0  0
  4 29  1  0  0  0  0
  5  6  1  0  0  0  0
  5 30  1  0  0  0  0
  5 31  1  0  0  0  0
  6  7  1  0  0  0  0
  6 32  1  0  0  0  0
  6 33  1  0  0  0  0
  7  8  1  0  0  0  0
  7 34  1  0  0  0  0
  8  9  1  0  0  0  0
  9 10  1  0  0  0  0
  9 35  1  0  0  0  0
  9 36  1  0  0  0  0
 10 11  1  0  0  0  0
 10 37  1  0  0  0  0
 10 38  1  0  0  0  0
 11 19  1  0  0  0  0
 11 12  1  0  0  0  0
 12 13  2  0  0  0  0
 12 39  1  0  0  0  0
 13 14  1  0  0  0  0
 13 16  1  0  0  0  0
 14 15  3  0  0  0  0
 16 17  2  0  0  0  0
 16 18  1  0  0  0  0
 18 21  1  0  0  0  0
 18 19  1  0  0  0  0
 19 20  2  0  0  0  0
M  END
> <s_m_source_file>
AV-unprocessed.smi

> <i_m_source_file_index>
1230

> <i_lp_mmshare_version>
43012

> <i_f3d_flags>
0

> <s_epik_input>
W0NIM11bQ0BASF0xW0NIMl1bQ0gyXVtDSDJdW0NIMl1bQ0BIXTFPW0NIMl1bQ0gyXW4yW2NIXWMoQyNOKWMoPU8pW25IXWMyPU8=

> <s_epik_cmdline>
J2VwaWtfcHl0aG9uJywgJy1waCcsICc3LjAnLCAnLXRuJywgJzgnLCAnLW1hJywgJzIwMCcsICctbWV0YWxfYmluZGluZycsICctaW1hZScsICc8aW5maWxlLm1hZT4nLCAnLW9tYWUnLCAnPG91dGZpbGUubWFlPic=

> <r_epik_Ionization_Penalty>
0.421541

> <r_epik_Ionization_Penalty_Charging>
0.421541

> <r_epik_Ionization_Penalty_Neutral>
2.29267e-11

> <r_epik_State_Penalty>
0.422277

> <r_epik_Charging_Adjusted_Penalty>
0.843818

> <i_epik_Tot_Q>
0

> <i_epik_Tot_abs_Q>
0

> <r_epik_Metal_State_Penalty>
4.11629

> <b_epik_Metal_Only>
0

> <s_lp_Force_Field>
OPLS_2005

> <r_lp_Energy>
13.3669

> <b_lp_Chiralities_Consistent>
1

> <s_lp_Variant>
AV-unprocessed.smi:1230-8

> <Gold.Version>
5.8.1

> <Gold.Id.Protein>
6NUR|6NUR_protein|mol2

> <Gold.PLP.Fitness>
47.6602

> <Gold.PLP.PLP>
-45.4235

> <Gold.PLP.part.hbond>
-1.6119

> <Gold.PLP.part.metal>
0.0000

> <Gold.PLP.part.buried>
-5.7246

> <Gold.PLP.part.nonpolar>
-39.0353

> <Gold.PLP.part.repulsive>
0.9853

> <Gold.PLP.ligand.clash>
0.0000

> <Gold.PLP.ligand.torsion>
1.4943

> <Gold.PLP.Chemscore.Hbond>
0.7150

> <Gold.PLP.Chemscore.CHOScore>
1.0000

> <Gold.PLP.Chemscore.Metal>
0.0000

> <Gold.Chemscore.Hbonds>
donor molecule, donor type, donor heavy atom, donor atom, acceptor molecule, acceptor atom, score
      L1  H    18    21       P1  7948  0.83
      L1  C    12    39       P1  8028  0.89

> <Gold.PLP.Chemscore.Internal.Correction>
0.0804

> <Gold.Rescore>
     Score         DG    S(hbond)    S(metal)    S(lipo)     H(rot)  DE(clash)    DE(int)     intcor
     13.71     -15.41       0.93        0.00     100.68       1.94       0.16       1.54       ----

> <Gold.Chemscore.Fitness>
13.7129

> <Gold.Chemscore.DG>
-15.4146

> <Gold.Chemscore.ZeroCoef>
-5.4800

> <Gold.Chemscore.Hbond>
0.9333

> <Gold.Chemscore.Metal>
0.0000

> <Gold.Chemscore.Lipo>
100.6827

> <Gold.Chemscore.Internal_Hbond>
0.0000

> <Gold.Chemscore.DEClash>
0.1625

> <Gold.Chemscore.DEInternal>
1.5392

> <Gold.Chemscore.Rot>
1.9385

> <Gold.Chemscore.Internal.Correction>
   9.000000E+99

> <Gold.Chemscore.Hbonds>
donor molecule, donor type, donor heavy atom, donor atom, acceptor molecule, acceptor atom, score
      L1  H    18    21       P1  7948  0.80

> <Gold.Chemscore.Hbond.Weighted>
-3.1173

> <Gold.Chemscore.Metal.Weighted>
-0.0000

> <Gold.Chemscore.Lipo.Weighted>
-11.7799

> <Gold.Chemscore.Internal_Hbond.Weighted>
0.0000

> <Gold.Chemscore.DEClash.Weighted>
0.1625

> <Gold.Chemscore.DEInternal.Weighted>
1.5392

> <Gold.Chemscore.Rot.Weighted>
4.9625

> <Gold.Chemscore.Internal.Correction.Weighted>
   9.000000E+99

> <Gold.Protein.RotatedTorsions>
[ 6907 6896 6895 6894 ] final  -90.05 input  -60.11 | X-H torsion
[ 7974 7965 7964 7962 ] final   58.95 input  175.53 | X-H torsion
[ 8008 7997 7996 7995 ] final   99.70 input   59.86 | X-H torsion
[ 10167 10162 10161 10158 ] final   32.87 input  -65.29 | X-H torsion
[ 10718 10713 10712 10709 ] final  -81.86 input   66.30 | X-H torsion
[ 10763 10752 10751 10750 ] final -169.40 input  -60.55 | X-H torsion
[ 11005 11000 10999 10996 ] final  -80.98 input  -57.11 | X-H torsion

> <Gold.Protein.ActiveResidues>
 VAL166  LYS551  ARG553  GLY616  TRP617  ASP618  TYR619  PRO620  LYS621  CYS622 
 ASP623  PHE694  ASN695  SER759  ASP760  ASP761  ALA762  ILE779  LEU786  VAL792 
 PHE793  MET794  SER795  GLU796  ALA797  LYS798  CYS799  TRP800  GLU811  SER814 

> <Gold.Protein.RotatedAtoms>
  150.6878  134.2493  159.4503 H   0  0  0  0  0  0  0  0  0  0  0  0  # atno 6907 bound_to 6896
  152.0431  134.9696  160.0583 H   0  0  0  0  0  0  0  0  0  0  0  0  # atno 6908 bound_to 6896
  152.1190  133.4308  159.4703 H   0  0  0  0  0  0  0  0  0  0  0  0  # atno 6909 bound_to 6896
  145.9126  139.3665  143.0526 H   0  0  0  0  0  0  0  0  0  0  0  0  # atno 7974 bound_to 7965
  156.1131  140.3225  155.8100 H   0  0  0  0  0  0  0  0  0  0  0  0  # atno 8008 bound_to 7997
  155.4638  140.0541  157.3005 H   0  0  0  0  0  0  0  0  0  0  0  0  # atno 8009 bound_to 7997
  154.4773  140.2038  155.9861 H   0  0  0  0  0  0  0  0  0  0  0  0  # atno 8010 bound_to 7997
  140.4459  144.1119  150.6182 H   0  0  0  0  0  0  0  0  0  0  0  0  # atno 10167 bound_to 10162
  156.0043  130.4616  150.4017 H   0  0  0  0  0  0  0  0  0  0  0  0  # atno 10718 bound_to 10713
  154.6527  135.2913  154.9966 H   0  0  0  0  0  0  0  0  0  0  0  0  # atno 10763 bound_to 10752
  154.1053  135.6570  153.4879 H   0  0  0  0  0  0  0  0  0  0  0  0  # atno 10764 bound_to 10752
  153.0385  135.5252  154.7443 H   0  0  0  0  0  0  0  0  0  0  0  0  # atno 10765 bound_to 10752
  141.1667  133.7175  156.8354 H   0  0  0  0  0  0  0  0  0  0  0  0  # atno 11005 bound_to 11000
  145.8653  140.9452  143.0679 LP  0  0  0  0  0  0  0  0  0  0  0  0  # atno 17320 bound_to 7965
  144.6744  140.0583  143.7477 LP  0  0  0  0  0  0  0  0  0  0  0  0  # atno 17321 bound_to 7965
  140.4264  143.2588  151.9651 LP  0  0  0  0  0  0  0  0  0  0  0  0  # atno 17342 bound_to 10162
  139.4793  144.5784  151.7973 LP  0  0  0  0  0  0  0  0  0  0  0  0  # atno 17343 bound_to 10162
  157.2085  131.0455  151.2612 LP  0  0  0  0  0  0  0  0  0  0  0  0  # atno 17370 bound_to 10713
  157.3910  130.7282  149.6698 LP  0  0  0  0  0  0  0  0  0  0  0  0  # atno 17371 bound_to 10713
  140.2021  134.8889  157.3181 LP  0  0  0  0  0  0  0  0  0  0  0  0  # atno 17394 bound_to 11000
  140.2176  134.4063  155.7581 LP  0  0  0  0  0  0  0  0  0  0  0  0  # atno 17395 bound_to 11000

$$$$
