AV-unprocessed.smi:76|AV-procd|sdf|769|dock10
  -GOLD-   2262017113D 1   1.00000     0.00000
 Structure written by MMmdl.
 55 58  0  0  0  0  0  0  0  0  1 V2000
  153.0087  143.1937  162.4514 C   0  0  0  0  0  0  0  0  0  0  0  0
  153.4298  141.8190  161.8904 C   0  0  2  0  0  0  0  0  0  0  0  0
  154.5573  141.2252  162.7614 C   0  0  0  0  0  0  0  0  0  0  0  0
  155.0436  139.8609  162.2333 C   0  0  2  0  0  0  0  0  0  0  0  0
  156.1744  139.2688  163.0988 C   0  0  0  0  0  0  0  0  0  0  0  0
  157.2838  140.0016  162.9983 F   0  0  0  0  0  0  0  0  0  0  0  0
  155.7975  139.2303  164.3767 F   0  0  0  0  0  0  0  0  0  0  0  0
  156.4433  138.0236  162.7064 F   0  0  0  0  0  0  0  0  0  0  0  0
  155.4574  140.0137  160.7580 C   0  0  0  0  0  0  0  0  0  0  0  0
  154.3106  140.6055  159.9271 C   0  0  0  0  0  0  0  0  0  0  0  0
  153.8569  141.8786  160.4853 N   0  0  0  0  0  0  0  0  0  0  0  0
  153.0010  142.5100  159.6502 C   0  0  0  0  0  0  0  0  0  0  0  0
  153.1865  143.8226  159.3490 N   0  0  0  0  0  0  0  0  0  0  0  0
  152.3455  144.4377  158.5118 C   0  0  0  0  0  0  0  0  0  0  0  0
  151.2814  143.9371  157.8792 N   0  0  0  0  0  0  0  0  0  0  0  0
  151.0962  142.6199  158.1831 C   0  0  0  0  0  0  0  0  0  0  0  0
  151.9049  141.8365  159.0518 C   0  0  0  0  0  0  0  0  0  0  0  0
  151.4229  140.5359  159.1122 N   0  0  0  0  0  0  0  0  0  0  0  0
  150.3857  140.5484  158.3197 C   0  0  0  0  0  0  0  0  0  0  0  0
  150.1067  141.7627  157.7317 N   0  0  0  0  0  0  0  0  0  0  0  0
  149.0224  142.0562  156.8051 C   0  0  0  0  0  0  0  0  0  0  0  0
  148.9436  141.1200  155.5579 C   0  0  0  0  0  0  0  0  0  0  0  0
  150.3511  140.5112  155.3049 C   0  0  0  0  0  0  0  0  0  0  0  0
  150.5024  139.9623  154.0104 O   0  0  0  0  0  0  0  0  0  0  0  0
  147.9157  139.9939  155.8401 C   0  0  0  0  0  0  0  0  0  0  0  0
  146.4615  140.5033  155.8454 C   0  0  0  0  0  0  0  0  0  0  0  0
  146.1682  141.1653  154.6209 O   0  0  0  0  0  0  0  0  0  0  0  0
  146.9877  142.3050  154.3912 C   0  0  0  0  0  0  0  0  0  0  0  0
  148.4630  141.8772  154.2926 C   0  0  0  0  0  0  0  0  0  0  0  0
  152.7489  143.1195  163.5076 H   0  0  0  0  0  0  0  0  0  0  0  0
  152.1341  143.5949  161.9388 H   0  0  0  0  0  0  0  0  0  0  0  0
  153.8143  143.9230  162.3590 H   0  0  0  0  0  0  0  0  0  0  0  0
  152.5693  141.1505  161.9485 H   0  0  0  0  0  0  0  0  0  0  0  0
  155.3957  141.9224  162.7948 H   0  0  0  0  0  0  0  0  0  0  0  0
  154.2068  141.1189  163.7884 H   0  0  0  0  0  0  0  0  0  0  0  0
  154.2012  139.1686  162.2742 H   0  0  0  0  0  0  0  0  0  0  0  0
  156.3332  140.6591  160.6804 H   0  0  0  0  0  0  0  0  0  0  0  0
  155.7464  139.0478  160.3434 H   0  0  0  0  0  0  0  0  0  0  0  0
  154.6415  140.7494  158.8973 H   0  0  0  0  0  0  0  0  0  0  0  0
  153.4781  139.9006  159.8985 H   0  0  0  0  0  0  0  0  0  0  0  0
  152.5560  145.4797  158.3202 H   0  0  0  0  0  0  0  0  0  0  0  0
  149.7883  139.6655  158.1446 H   0  0  0  0  0  0  0  0  0  0  0  0
  148.0866  142.0030  157.3630 H   0  0  0  0  0  0  0  0  0  0  0  0
  149.1225  143.1008  156.5151 H   0  0  0  0  0  0  0  0  0  0  0  0
  151.1275  141.2667  155.4252 H   0  0  0  0  0  0  0  0  0  0  0  0
  150.5596  139.7243  156.0305 H   0  0  0  0  0  0  0  0  0  0  0  0
  149.6500  139.9052  153.6068 H   0  0  0  0  0  0  0  0  0  0  0  0
  147.9843  139.2201  155.0752 H   0  0  0  0  0  0  0  0  0  0  0  0
  148.1414  139.4999  156.7859 H   0  0  0  0  0  0  0  0  0  0  0  0
  145.7779  139.6610  155.9539 H   0  0  0  0  0  0  0  0  0  0  0  0
  146.2668  141.1664  156.6883 H   0  0  0  0  0  0  0  0  0  0  0  0
  146.6756  142.7718  153.4569 H   0  0  0  0  0  0  0  0  0  0  0  0
  146.8336  143.0464  155.1753 H   0  0  0  0  0  0  0  0  0  0  0  0
  149.0946  142.7398  154.0839 H   0  0  0  0  0  0  0  0  0  0  0  0
  148.5565  141.2325  153.4182 H   0  0  0  0  0  0  0  0  0  0  0  0
  1  2  1  0  0  0  0
  1 30  1  0  0  0  0
  1 31  1  0  0  0  0
  1 32  1  0  0  0  0
  2 11  1  0  0  0  0
  2  3  1  0  0  0  0
  2 33  1  0  0  0  0
  3  4  1  0  0  0  0
  3 34  1  0  0  0  0
  3 35  1  0  0  0  0
  4  5  1  0  0  0  0
  4  9  1  0  0  0  0
  4 36  1  0  0  0  0
  5  6  1  0  0  0  0
  5  7  1  0  0  0  0
  5  8  1  0  0  0  0
  9 10  1  0  0  0  0
  9 37  1  0  0  0  0
  9 38  1  0  0  0  0
 10 11  1  0  0  0  0
 10 39  1  0  0  0  0
 10 40  1  0  0  0  0
 11 12  1  0  0  0  0
 12 17  1  0  0  0  0
 12 13  2  0  0  0  0
 13 14  1  0  0  0  0
 14 15  2  0  0  0  0
 14 41  1  0  0  0  0
 15 16  1  0  0  0  0
 16 20  1  0  0  0  0
 16 17  2  0  0  0  0
 17 18  1  0  0  0  0
 18 19  2  0  0  0  0
 19 20  1  0  0  0  0
 19 42  1  0  0  0  0
 20 21  1  0  0  0  0
 21 22  1  0  0  0  0
 21 43  1  0  0  0  0
 21 44  1  0  0  0  0
 22 29  1  0  0  0  0
 22 23  1  0  0  0  0
 22 25  1  0  0  0  0
 23 24  1  0  0  0  0
 23 45  1  0  0  0  0
 23 46  1  0  0  0  0
 24 47  1  0  0  0  0
 25 26  1  0  0  0  0
 25 48  1  0  0  0  0
 25 49  1  0  0  0  0
 26 27  1  0  0  0  0
 26 50  1  0  0  0  0
 26 51  1  0  0  0  0
 27 28  1  0  0  0  0
 28 29  1  0  0  0  0
 28 52  1  0  0  0  0
 28 53  1  0  0  0  0
 29 54  1  0  0  0  0
 29 55  1  0  0  0  0
M  END
> <s_m_source_file>
AV-unprocessed.smi

> <i_m_source_file_index>
76

> <i_lp_mmshare_version>
43012

> <i_f3d_flags>
0

> <s_epik_input>
W0NIM11bQ0BASF0xW0NIMl1bQ0BASF0oQyhGKShGKUYpW0NIMl1bQ0gyXU4xYyhuW2NIXW4yKWMoYzIzKW5bY0hdbjNbQ0gyXUM0KFtDSDJdW09IXSlbQ0gyXVtDSDJdT1tDSDJdW0NIMl00

> <s_epik_cmdline>
J2VwaWtfcHl0aG9uJywgJy1waCcsICc3LjAnLCAnLXRuJywgJzgnLCAnLW1hJywgJzIwMCcsICctbWV0YWxfYmluZGluZycsICctaW1hZScsICc8aW5maWxlLm1hZT4nLCAnLW9tYWUnLCAnPG91dGZpbGUubWFlPic=

> <r_lp_tautomer_probability>
1

> <r_epik_Ionization_Penalty>
0.00244097

> <r_epik_Ionization_Penalty_Charging>
0

> <r_epik_Ionization_Penalty_Neutral>
0.00244097

> <r_epik_State_Penalty>
0.00151846

> <r_epik_Charging_Adjusted_Penalty>
0.00151846

> <i_epik_Tot_Q>
0

> <i_epik_Tot_abs_Q>
0

> <r_epik_Metal_State_Penalty>
-0

> <b_epik_Metal_Only>
0

> <s_lp_Force_Field>
OPLS_2005

> <r_lp_Energy>
38.0325

> <b_lp_Chiralities_Consistent>
1

> <s_lp_Variant>
AV-unprocessed.smi:76-3

> <Gold.Version>
5.8.1

> <Gold.Id.Protein>
6NUR|6NUR_protein|mol2

> <Gold.PLP.Fitness>
47.8331

> <Gold.PLP.PLP>
-47.6715

> <Gold.PLP.part.hbond>
-2.0000

> <Gold.PLP.part.metal>
0.0000

> <Gold.PLP.part.buried>
-2.3957

> <Gold.PLP.part.nonpolar>
-43.3531

> <Gold.PLP.part.repulsive>
0.2748

> <Gold.PLP.ligand.clash>
0.0000

> <Gold.PLP.ligand.torsion>
1.5199

> <Gold.PLP.Chemscore.Hbond>
1.0000

> <Gold.PLP.Chemscore.CHOScore>
0.0000

> <Gold.PLP.Chemscore.Metal>
0.0000

> <Gold.Chemscore.Hbonds>
donor molecule, donor type, donor heavy atom, donor atom, acceptor molecule, acceptor atom, score
      P1  H  7989  7998       L1    24  0.99

> <Gold.PLP.Chemscore.Internal.Correction>
0.2015

> <Gold.Rescore>
     Score         DG    S(hbond)    S(metal)    S(lipo)     H(rot)  DE(clash)    DE(int)     intcor
      8.60     -12.54       0.53        0.00      99.20       2.47       1.72       2.22       ----

> <Gold.Chemscore.Fitness>
8.6015

> <Gold.Chemscore.DG>
-12.5436

> <Gold.Chemscore.ZeroCoef>
-5.4800

> <Gold.Chemscore.Hbond>
0.5305

> <Gold.Chemscore.Metal>
0.0000

> <Gold.Chemscore.Lipo>
99.1960

> <Gold.Chemscore.Internal_Hbond>
0.0000

> <Gold.Chemscore.DEClash>
1.7231

> <Gold.Chemscore.DEInternal>
2.2190

> <Gold.Chemscore.Rot>
2.4665

> <Gold.Chemscore.Internal.Correction>
   9.000000E+99

> <Gold.Chemscore.Hbonds>
donor molecule, donor type, donor heavy atom, donor atom, acceptor molecule, acceptor atom, score
      L1  H    24    47       P1  7957  0.01
      P1  H  7989  7998       L1    24  0.23

> <Gold.Chemscore.Hbond.Weighted>
-1.7718

> <Gold.Chemscore.Metal.Weighted>
-0.0000

> <Gold.Chemscore.Lipo.Weighted>
-11.6059

> <Gold.Chemscore.Internal_Hbond.Weighted>
0.0000

> <Gold.Chemscore.DEClash.Weighted>
1.7231

> <Gold.Chemscore.DEInternal.Weighted>
2.2190

> <Gold.Chemscore.Rot.Weighted>
6.3142

> <Gold.Chemscore.Internal.Correction.Weighted>
   9.000000E+99

> <Gold.Protein.RotatedTorsions>
[ 6907 6896 6895 6894 ] final  -98.45 input  -60.11 | X-H torsion
[ 7974 7965 7964 7962 ] final   23.24 input  175.53 | X-H torsion
[ 8008 7997 7996 7995 ] final   91.05 input   59.86 | X-H torsion
[ 10167 10162 10161 10158 ] final -149.47 input  -65.29 | X-H torsion
[ 10718 10713 10712 10709 ] final -153.10 input   66.30 | X-H torsion
[ 10763 10752 10751 10750 ] final  -74.42 input  -60.55 | X-H torsion
[ 11005 11000 10999 10996 ] final -168.34 input  -57.11 | X-H torsion

> <Gold.Protein.ActiveResidues>
 VAL166  LYS551  ARG553  GLY616  TRP617  ASP618  TYR619  PRO620  LYS621  CYS622 
 ASP623  PHE694  ASN695  SER759  ASP760  ASP761  ALA762  ILE779  LEU786  VAL792 
 PHE793  MET794  SER795  GLU796  ALA797  LYS798  CYS799  TRP800  GLU811  SER814 

> <Gold.Protein.RotatedAtoms>
  150.7047  134.1193  159.4028 H   0  0  0  0  0  0  0  0  0  0  0  0  # atno 6907 bound_to 6896
  151.9179  135.0308  160.0529 H   0  0  0  0  0  0  0  0  0  0  0  0  # atno 6908 bound_to 6896
  152.2280  133.5001  159.5236 H   0  0  0  0  0  0  0  0  0  0  0  0  # atno 6909 bound_to 6896
  146.1993  139.7772  142.8773 H   0  0  0  0  0  0  0  0  0  0  0  0  # atno 7974 bound_to 7965
  156.0192  140.3342  155.7021 H   0  0  0  0  0  0  0  0  0  0  0  0  # atno 8008 bound_to 7997
  155.6047  140.0659  157.2741 H   0  0  0  0  0  0  0  0  0  0  0  0  # atno 8009 bound_to 7997
  154.4309  140.1804  156.1198 H   0  0  0  0  0  0  0  0  0  0  0  0  # atno 8010 bound_to 7997
  139.7439  143.8620  152.2569 H   0  0  0  0  0  0  0  0  0  0  0  0  # atno 10167 bound_to 10162
  156.4813  130.8304  151.2531 H   0  0  0  0  0  0  0  0  0  0  0  0  # atno 10718 bound_to 10713
  154.4729  135.5865  153.6334 H   0  0  0  0  0  0  0  0  0  0  0  0  # atno 10763 bound_to 10752
  152.9837  135.6071  154.3344 H   0  0  0  0  0  0  0  0  0  0  0  0  # atno 10764 bound_to 10752
  154.3228  135.2843  155.2490 H   0  0  0  0  0  0  0  0  0  0  0  0  # atno 10765 bound_to 10752
  140.5431  134.5502  157.5104 H   0  0  0  0  0  0  0  0  0  0  0  0  # atno 11005 bound_to 11000
  145.3538  141.0313  143.3323 LP  0  0  0  0  0  0  0  0  0  0  0  0  # atno 17320 bound_to 7965
  144.8648  139.5124  143.6795 LP  0  0  0  0  0  0  0  0  0  0  0  0  # atno 17321 bound_to 7965
  139.8578  144.7132  150.9136 LP  0  0  0  0  0  0  0  0  0  0  0  0  # atno 17342 bound_to 10162
  140.7789  143.3843  151.1421 LP  0  0  0  0  0  0  0  0  0  0  0  0  # atno 17343 bound_to 10162
  157.7483  131.0044  150.3074 LP  0  0  0  0  0  0  0  0  0  0  0  0  # atno 17370 bound_to 10713
  156.3519  130.3832  149.7322 LP  0  0  0  0  0  0  0  0  0  0  0  0  # atno 17371 bound_to 10713
  139.9493  134.7645  156.0485 LP  0  0  0  0  0  0  0  0  0  0  0  0  # atno 17394 bound_to 11000
  141.1215  133.6611  156.3228 LP  0  0  0  0  0  0  0  0  0  0  0  0  # atno 17395 bound_to 11000

$$$$
