AV-unprocessed.smi:2980|AV-procd|sdf|11372|dock5
  -GOLD-   2272016293D 1   1.00000     0.00000
 Structure written by MMmdl.
 38 39  0  0  0  0  0  0  0  0  1 V2000
  153.4543  136.3728  157.6989 C   0  0  0  0  0  0  0  0  0  0  0  0
  153.6281  136.8383  159.1462 C   0  0  0  0  0  0  0  0  0  0  0  0
  152.3491  137.0783  159.7083 O   0  0  0  0  0  0  0  0  0  0  0  0
  151.7196  138.2252  159.1638 C   0  0  0  0  0  0  0  0  0  0  0  0
  152.6633  139.4235  159.3111 C   0  0  0  0  0  0  0  0  0  0  0  0
  152.1655  140.5960  158.6070 N   0  0  0  0  0  0  0  0  0  0  0  0
  151.6507  140.6895  157.3519 C   0  0  0  0  0  0  0  0  0  0  0  0
  151.4980  139.5116  156.4288 C   0  0  0  0  0  0  0  0  0  0  0  0
  151.0523  139.8933  155.0053 C   0  0  0  0  0  0  0  0  0  0  0  0
  149.7559  140.7154  154.9585 C   0  0  0  0  0  0  0  0  0  0  0  0
  149.4758  141.0907  153.6277 O   0  0  0  0  0  0  0  0  0  0  0  0
  151.3180  141.9201  156.9581 N   0  0  0  0  0  0  0  0  0  0  0  0
  151.6010  142.6878  158.0695 C   0  0  0  0  0  0  0  0  0  0  0  0
  151.4474  144.0751  158.2912 C   0  0  0  0  0  0  0  0  0  0  0  0
  151.8087  144.6443  159.5299 C   0  0  0  0  0  0  0  0  0  0  0  0
  152.3292  143.8362  160.5614 C   0  0  0  0  0  0  0  0  0  0  0  0
  152.4931  142.4523  160.3596 C   0  0  0  0  0  0  0  0  0  0  0  0
  152.1296  141.8887  159.1214 C   0  0  0  0  0  0  0  0  0  0  0  0
  154.4205  136.1764  157.2341 H   0  0  0  0  0  0  0  0  0  0  0  0
  152.9441  137.1303  157.1032 H   0  0  0  0  0  0  0  0  0  0  0  0
  152.8666  135.4559  157.6504 H   0  0  0  0  0  0  0  0  0  0  0  0
  154.1545  136.0757  159.7221 H   0  0  0  0  0  0  0  0  0  0  0  0
  154.2291  137.7485  159.1739 H   0  0  0  0  0  0  0  0  0  0  0  0
  151.4839  138.0559  158.1139 H   0  0  0  0  0  0  0  0  0  0  0  0
  150.7819  138.4195  159.6870 H   0  0  0  0  0  0  0  0  0  0  0  0
  152.7703  139.6762  160.3663 H   0  0  0  0  0  0  0  0  0  0  0  0
  153.6671  139.1812  158.9639 H   0  0  0  0  0  0  0  0  0  0  0  0
  152.4582  138.9970  156.3810 H   0  0  0  0  0  0  0  0  0  0  0  0
  150.7910  138.7895  156.8320 H   0  0  0  0  0  0  0  0  0  0  0  0
  151.8531  140.4450  154.5107 H   0  0  0  0  0  0  0  0  0  0  0  0
  150.9139  138.9799  154.4254 H   0  0  0  0  0  0  0  0  0  0  0  0
  148.9180  140.1321  155.3393 H   0  0  0  0  0  0  0  0  0  0  0  0
  149.8384  141.6157  155.5679 H   0  0  0  0  0  0  0  0  0  0  0  0
  149.5188  140.3202  153.0824 H   0  0  0  0  0  0  0  0  0  0  0  0
  151.0493  144.7016  157.5067 H   0  0  0  0  0  0  0  0  0  0  0  0
  151.6856  145.7054  159.6895 H   0  0  0  0  0  0  0  0  0  0  0  0
  152.6032  144.2798  161.5074 H   0  0  0  0  0  0  0  0  0  0  0  0
  152.8920  141.8321  161.1484 H   0  0  0  0  0  0  0  0  0  0  0  0
  1  2  1  0  0  0  0
  1 19  1  0  0  0  0
  1 20  1  0  0  0  0
  1 21  1  0  0  0  0
  2  3  1  0  0  0  0
  2 22  1  0  0  0  0
  2 23  1  0  0  0  0
  3  4  1  0  0  0  0
  4  5  1  0  0  0  0
  4 24  1  0  0  0  0
  4 25  1  0  0  0  0
  5  6  1  0  0  0  0
  5 26  1  0  0  0  0
  5 27  1  0  0  0  0
  6 18  1  0  0  0  0
  6  7  1  0  0  0  0
  7  8  1  0  0  0  0
  7 12  2  0  0  0  0
  8  9  1  0  0  0  0
  8 28  1  0  0  0  0
  8 29  1  0  0  0  0
  9 10  1  0  0  0  0
  9 30  1  0  0  0  0
  9 31  1  0  0  0  0
 10 11  1  0  0  0  0
 10 32  1  0  0  0  0
 10 33  1  0  0  0  0
 11 34  1  0  0  0  0
 12 13  1  0  0  0  0
 13 18  2  0  0  0  0
 13 14  1  0  0  0  0
 14 15  2  0  0  0  0
 14 35  1  0  0  0  0
 15 16  1  0  0  0  0
 15 36  1  0  0  0  0
 16 17  2  0  0  0  0
 16 37  1  0  0  0  0
 17 18  1  0  0  0  0
 17 38  1  0  0  0  0
M  END
> <s_m_source_file>
AV-unprocessed.smi

> <i_m_source_file_index>
2980

> <i_lp_mmshare_version>
43012

> <i_f3d_flags>
0

> <s_epik_input>
W0NIM11bQ0gyXU9bQ0gyXVtDSDJdbihjKG4xKVtDSDJdW0NIMl1bQ0gyXVtPSF0pYyhjMTIpW2NIXVtjSF1bY0hdW2NIXTI=

> <s_epik_cmdline>
J2VwaWtfcHl0aG9uJywgJy1waCcsICc3LjAnLCAnLXRuJywgJzgnLCAnLW1hJywgJzIwMCcsICctbWV0YWxfYmluZGluZycsICctaW1hZScsICc8aW5maWxlLm1hZT4nLCAnLW9tYWUnLCAnPG91dGZpbGUubWFlPic=

> <r_epik_Ionization_Penalty>
0.173195

> <r_epik_Ionization_Penalty_Charging>
0

> <r_epik_Ionization_Penalty_Neutral>
0.173195

> <r_epik_State_Penalty>
0.162604

> <r_epik_Charging_Adjusted_Penalty>
0.162604

> <i_epik_Tot_Q>
0

> <i_epik_Tot_abs_Q>
0

> <r_epik_Metal_State_Penalty>
0.000187077

> <b_epik_Metal_Only>
0

> <s_lp_Force_Field>
OPLS_2005

> <r_lp_Energy>
8.24734

> <b_lp_Chiralities_Consistent>
1

> <s_lp_Variant>
AV-unprocessed.smi:2980-1

> <Gold.Version>
5.8.1

> <Gold.Id.Protein>
6NUR|6NUR_protein|mol2

> <Gold.PLP.Fitness>
47.1857

> <Gold.PLP.PLP>
-39.7606

> <Gold.PLP.part.hbond>
-4.0000

> <Gold.PLP.part.metal>
0.0000

> <Gold.PLP.part.buried>
-1.4179

> <Gold.PLP.part.nonpolar>
-33.8310

> <Gold.PLP.part.repulsive>
0.0558

> <Gold.PLP.ligand.clash>
0.0000

> <Gold.PLP.ligand.torsion>
0.2732

> <Gold.PLP.Chemscore.Hbond>
2.6400

> <Gold.PLP.Chemscore.CHOScore>
0.0000

> <Gold.PLP.Chemscore.Metal>
0.0000

> <Gold.Chemscore.Hbonds>
donor molecule, donor type, donor heavy atom, donor atom, acceptor molecule, acceptor atom, score
      L1  H    11    34       P1  7957  0.67
      P1  H  6896  6909       L1     3  0.98
      P1  H  8011  8017       L1    11  0.99

> <Gold.PLP.Chemscore.Internal.Correction>
0.0515

> <Gold.Rescore>
     Score         DG    S(hbond)    S(metal)    S(lipo)     H(rot)  DE(clash)    DE(int)     intcor
     15.02     -17.33       1.84        0.00     103.02       2.48       0.74       1.58       ----

> <Gold.Chemscore.Fitness>
15.0203

> <Gold.Chemscore.DG>
-17.3315

> <Gold.Chemscore.ZeroCoef>
-5.4800

> <Gold.Chemscore.Hbond>
1.8415

> <Gold.Chemscore.Metal>
0.0000

> <Gold.Chemscore.Lipo>
103.0247

> <Gold.Chemscore.Internal_Hbond>
0.0000

> <Gold.Chemscore.DEClash>
0.7359

> <Gold.Chemscore.DEInternal>
1.5754

> <Gold.Chemscore.Rot>
2.4817

> <Gold.Chemscore.Internal.Correction>
   9.000000E+99

> <Gold.Chemscore.Hbonds>
donor molecule, donor type, donor heavy atom, donor atom, acceptor molecule, acceptor atom, score
      L1  H    11    34       P1  7957  0.65
      P1  H  6896  6909       L1     3  0.23
      P1  H  8011  8017       L1    11  0.24

> <Gold.Chemscore.Hbond.Weighted>
-6.1507

> <Gold.Chemscore.Metal.Weighted>
-0.0000

> <Gold.Chemscore.Lipo.Weighted>
-12.0539

> <Gold.Chemscore.Internal_Hbond.Weighted>
0.0000

> <Gold.Chemscore.DEClash.Weighted>
0.7359

> <Gold.Chemscore.DEInternal.Weighted>
1.5754

> <Gold.Chemscore.Rot.Weighted>
6.3531

> <Gold.Chemscore.Internal.Correction.Weighted>
   9.000000E+99

> <Gold.Protein.RotatedTorsions>
[ 6907 6896 6895 6894 ] final  128.03 input  -60.11 | X-H torsion
[ 7974 7965 7964 7962 ] final -129.57 input  175.53 | X-H torsion
[ 8008 7997 7996 7995 ] final  -68.33 input   59.86 | X-H torsion
[ 10167 10162 10161 10158 ] final  131.48 input  -65.29 | X-H torsion
[ 10718 10713 10712 10709 ] final   59.69 input   66.30 | X-H torsion
[ 10763 10752 10751 10750 ] final  -63.19 input  -60.55 | X-H torsion
[ 11005 11000 10999 10996 ] final -162.81 input  -57.11 | X-H torsion

> <Gold.Protein.ActiveResidues>
 VAL166  LYS551  ARG553  GLY616  TRP617  ASP618  TYR619  PRO620  LYS621  CYS622 
 ASP623  PHE694  ASN695  SER759  ASP760  ASP761  ALA762  ILE779  LEU786  VAL792 
 PHE793  MET794  SER795  GLU796  ALA797  LYS798  CYS799  TRP800  GLU811  SER814 

> <Gold.Protein.RotatedAtoms>
  152.3757  133.6478  159.6121 H   0  0  0  0  0  0  0  0  0  0  0  0  # atno 6907 bound_to 6896
  150.7702  133.9197  159.3403 H   0  0  0  0  0  0  0  0  0  0  0  0  # atno 6908 bound_to 6896
  151.7011  135.0931  160.0302 H   0  0  0  0  0  0  0  0  0  0  0  0  # atno 6909 bound_to 6896
  144.9559  140.7395  143.4759 H   0  0  0  0  0  0  0  0  0  0  0  0  # atno 7974 bound_to 7965
  154.4860  140.0875  156.7488 H   0  0  0  0  0  0  0  0  0  0  0  0  # atno 8008 bound_to 7997
  155.4348  140.3451  155.4265 H   0  0  0  0  0  0  0  0  0  0  0  0  # atno 8009 bound_to 7997
  156.1262  140.1488  156.9120 H   0  0  0  0  0  0  0  0  0  0  0  0  # atno 8010 bound_to 7997
  139.5382  144.6704  151.4714 H   0  0  0  0  0  0  0  0  0  0  0  0  # atno 10167 bound_to 10162
  157.5695  130.8897  149.9243 H   0  0  0  0  0  0  0  0  0  0  0  0  # atno 10718 bound_to 10713
  154.3114  135.6215  153.5467 H   0  0  0  0  0  0  0  0  0  0  0  0  # atno 10763 bound_to 10752
  152.9829  135.5702  154.5173 H   0  0  0  0  0  0  0  0  0  0  0  0  # atno 10764 bound_to 10752
  154.4824  135.2863  155.1537 H   0  0  0  0  0  0  0  0  0  0  0  0  # atno 10765 bound_to 10752
  140.6052  134.4906  157.5209 H   0  0  0  0  0  0  0  0  0  0  0  0  # atno 11005 bound_to 11000
  145.2773  139.1931  143.4809 LP  0  0  0  0  0  0  0  0  0  0  0  0  # atno 17320 bound_to 7965
  146.3337  140.2730  142.8606 LP  0  0  0  0  0  0  0  0  0  0  0  0  # atno 17321 bound_to 7965
  140.6599  143.8521  150.6876 LP  0  0  0  0  0  0  0  0  0  0  0  0  # atno 17342 bound_to 10162
  140.1912  143.4035  152.1862 LP  0  0  0  0  0  0  0  0  0  0  0  0  # atno 17343 bound_to 10162
  156.0741  130.3681  150.0714 LP  0  0  0  0  0  0  0  0  0  0  0  0  # atno 17370 bound_to 10713
  156.8868  130.9575  151.3593 LP  0  0  0  0  0  0  0  0  0  0  0  0  # atno 17371 bound_to 10713
  139.9215  134.8139  156.1196 LP  0  0  0  0  0  0  0  0  0  0  0  0  # atno 17394 bound_to 11000
  141.0846  133.6740  156.2408 LP  0  0  0  0  0  0  0  0  0  0  0  0  # atno 17395 bound_to 11000

$$$$
