AV-unprocessed.smi:291|AV-procd|sdf|2248|dock5
  -GOLD-   2262022133D 1   1.00000     0.00000
 Structure written by MMmdl.
 35 36  0  0  0  0  0  0  0  0  1 V2000
  144.4622  135.9410  151.4340 C   0  0  0  0  0  0  0  0  0  0  0  0
  144.5743  134.5667  150.7591 C   0  0  2  0  0  0  0  0  0  0  0  0
  143.6414  133.5362  151.4236 C   0  0  0  0  0  0  0  0  0  0  0  0
  143.7544  132.1541  150.7552 C   0  0  0  0  0  0  0  0  0  0  0  0
  145.2046  131.6362  150.7270 C   0  0  2  0  0  0  0  0  0  0  0  0
  145.6399  131.2938  152.0788 N   0  0  0  0  0  0  0  0  0  0  0  0
  146.3059  130.1838  152.4344 C   0  0  0  0  0  0  0  0  0  0  0  0
  146.6402  129.3073  151.6379 O   0  0  0  0  0  0  0  0  0  0  0  0
  146.6619  130.0456  153.9165 C   0  0  0  0  0  0  0  0  0  0  0  0
  147.6593  131.0216  154.3202 N   0  0  0  0  0  0  0  0  0  0  0  0
  148.3041  131.9509  153.6067 C   0  0  0  0  0  0  0  0  0  0  0  0
  149.1695  132.6686  154.3124 N   0  0  0  0  0  0  0  0  0  0  0  0
  148.9863  132.0827  155.5313 C   0  0  0  0  0  0  0  0  0  0  0  0
  149.7310  132.5154  156.7015 C   0  0  0  0  0  0  0  0  0  0  0  0
  150.3241  132.8597  157.6336 N   0  0  0  0  0  0  0  0  0  0  0  0
  148.0977  131.0937  155.6012 N   0  0  0  0  0  0  0  0  0  0  0  0
  146.1468  132.6764  150.0876 C   0  0  0  0  0  0  0  0  0  0  0  0
  146.0285  134.0569  150.7582 C   0  0  0  0  0  0  0  0  0  0  0  0
  144.7706  135.8962  152.4789 H   0  0  0  0  0  0  0  0  0  0  0  0
  143.4367  136.3104  151.4049 H   0  0  0  0  0  0  0  0  0  0  0  0
  145.0912  136.6769  150.9323 H   0  0  0  0  0  0  0  0  0  0  0  0
  144.2588  134.6840  149.7213 H   0  0  0  0  0  0  0  0  0  0  0  0
  143.8791  133.4523  152.4852 H   0  0  0  0  0  0  0  0  0  0  0  0
  142.6083  133.8810  151.3692 H   0  0  0  0  0  0  0  0  0  0  0  0
  143.1082  131.4386  151.2656 H   0  0  0  0  0  0  0  0  0  0  0  0
  143.3807  132.2228  149.7328 H   0  0  0  0  0  0  0  0  0  0  0  0
  145.2220  130.7305  150.1180 H   0  0  0  0  0  0  0  0  0  0  0  0
  145.4137  131.9572  152.8060 H   0  0  0  0  0  0  0  0  0  0  0  0
  145.7712  130.1844  154.5307 H   0  0  0  0  0  0  0  0  0  0  0  0
  147.0354  129.0392  154.1122 H   0  0  0  0  0  0  0  0  0  0  0  0
  148.1401  132.1010  152.5496 H   0  0  0  0  0  0  0  0  0  0  0  0
  147.1799  132.3291  150.1275 H   0  0  0  0  0  0  0  0  0  0  0  0
  145.9033  132.7741  149.0290 H   0  0  0  0  0  0  0  0  0  0  0  0
  146.6719  134.7685  150.2397 H   0  0  0  0  0  0  0  0  0  0  0  0
  146.4001  133.9995  151.7822 H   0  0  0  0  0  0  0  0  0  0  0  0
  1  2  1  0  0  0  0
  1 19  1  0  0  0  0
  1 20  1  0  0  0  0
  1 21  1  0  0  0  0
  2 18  1  0  0  0  0
  2  3  1  0  0  0  0
  2 22  1  0  0  0  0
  3  4  1  0  0  0  0
  3 23  1  0  0  0  0
  3 24  1  0  0  0  0
  4  5  1  0  0  0  0
  4 25  1  0  0  0  0
  4 26  1  0  0  0  0
  5  6  1  0  0  0  0
  5 17  1  0  0  0  0
  5 27  1  0  0  0  0
  6  7  1  0  0  0  0
  6 28  1  0  0  0  0
  7  8  2  0  0  0  0
  7  9  1  0  0  0  0
  9 10  1  0  0  0  0
  9 29  1  0  0  0  0
  9 30  1  0  0  0  0
 10 16  1  0  0  0  0
 10 11  1  0  0  0  0
 11 12  2  0  0  0  0
 11 31  1  0  0  0  0
 12 13  1  0  0  0  0
 13 14  1  0  0  0  0
 13 16  2  0  0  0  0
 14 15  3  0  0  0  0
 17 18  1  0  0  0  0
 17 32  1  0  0  0  0
 17 33  1  0  0  0  0
 18 34  1  0  0  0  0
 18 35  1  0  0  0  0
M  END
> <s_m_source_file>
AV-unprocessed.smi

> <i_m_source_file_index>
291

> <i_lp_mmshare_version>
43012

> <i_f3d_flags>
0

> <s_epik_input>
W0NIM11bQ0BASF0xW0NIMl1bQ0gyXVtDQEhdKFtDSDJdW0NIMl0xKVtOSF1DKD1PKVtDSDJdbjJbY0hdbmMobjIpQyNO

> <s_epik_cmdline>
J2VwaWtfcHl0aG9uJywgJy1waCcsICc3LjAnLCAnLXRuJywgJzgnLCAnLW1hJywgJzIwMCcsICctbWV0YWxfYmluZGluZycsICctaW1hZScsICc8aW5maWxlLm1hZT4nLCAnLW9tYWUnLCAnPG91dGZpbGUubWFlPic=

> <r_lp_tautomer_probability>
1

> <r_epik_Ionization_Penalty>
5.31112e-08

> <r_epik_Ionization_Penalty_Charging>
0

> <r_epik_Ionization_Penalty_Neutral>
5.31112e-08

> <r_epik_State_Penalty>
-0

> <r_epik_Charging_Adjusted_Penalty>
0

> <i_epik_Tot_Q>
0

> <i_epik_Tot_abs_Q>
0

> <r_epik_Metal_State_Penalty>
-0

> <b_epik_Metal_Only>
0

> <s_lp_Force_Field>
OPLS_2005

> <r_lp_Energy>
11.449

> <b_lp_Chiralities_Consistent>
1

> <s_lp_Variant>
AV-unprocessed.smi:291-2

> <Gold.Version>
5.8.1

> <Gold.Id.Protein>
6NUR|6NUR_protein|mol2

> <Gold.PLP.Fitness>
36.6460

> <Gold.PLP.PLP>
-31.2331

> <Gold.PLP.part.hbond>
-1.0000

> <Gold.PLP.part.metal>
0.0000

> <Gold.PLP.part.buried>
-5.5937

> <Gold.PLP.part.nonpolar>
-25.3779

> <Gold.PLP.part.repulsive>
0.6543

> <Gold.PLP.ligand.clash>
0.0000

> <Gold.PLP.ligand.torsion>
0.2966

> <Gold.PLP.Chemscore.Hbond>
1.0000

> <Gold.PLP.Chemscore.CHOScore>
1.0000

> <Gold.PLP.Chemscore.Metal>
0.0000

> <Gold.Chemscore.Hbonds>
donor molecule, donor type, donor heavy atom, donor atom, acceptor molecule, acceptor atom, score
      P1  H  6896  6909       L1    15  1.00
      L1  C    11    31       P1 10747  0.54

> <Gold.PLP.Chemscore.Internal.Correction>
0.0062

> <Gold.Rescore>
     Score         DG    S(hbond)    S(metal)    S(lipo)     H(rot)  DE(clash)    DE(int)     intcor
      9.61      -9.81       0.90        0.00      54.02       1.95       0.02       0.18       ----

> <Gold.Chemscore.Fitness>
9.6097

> <Gold.Chemscore.DG>
-9.8111

> <Gold.Chemscore.ZeroCoef>
-5.4800

> <Gold.Chemscore.Hbond>
0.8968

> <Gold.Chemscore.Metal>
0.0000

> <Gold.Chemscore.Lipo>
54.0244

> <Gold.Chemscore.Internal_Hbond>
0.0000

> <Gold.Chemscore.DEClash>
0.0202

> <Gold.Chemscore.DEInternal>
0.1811

> <Gold.Chemscore.Rot>
1.9474

> <Gold.Chemscore.Internal.Correction>
   9.000000E+99

> <Gold.Chemscore.Hbonds>
donor molecule, donor type, donor heavy atom, donor atom, acceptor molecule, acceptor atom, score
      P1  H  6896  6909       L1    15  0.97

> <Gold.Chemscore.Hbond.Weighted>
-2.9954

> <Gold.Chemscore.Metal.Weighted>
-0.0000

> <Gold.Chemscore.Lipo.Weighted>
-6.3209

> <Gold.Chemscore.Internal_Hbond.Weighted>
0.0000

> <Gold.Chemscore.DEClash.Weighted>
0.0202

> <Gold.Chemscore.DEInternal.Weighted>
0.1811

> <Gold.Chemscore.Rot.Weighted>
4.9852

> <Gold.Chemscore.Internal.Correction.Weighted>
   9.000000E+99

> <Gold.Protein.RotatedTorsions>
[ 6907 6896 6895 6894 ] final  -35.94 input  -60.11 | X-H torsion
[ 7974 7965 7964 7962 ] final  -31.20 input  175.53 | X-H torsion
[ 8008 7997 7996 7995 ] final  -84.68 input   59.86 | X-H torsion
[ 10167 10162 10161 10158 ] final  -59.67 input  -65.29 | X-H torsion
[ 10718 10713 10712 10709 ] final    4.95 input   66.30 | X-H torsion
[ 10763 10752 10751 10750 ] final   13.77 input  -60.55 | X-H torsion
[ 11005 11000 10999 10996 ] final -126.54 input  -57.11 | X-H torsion

> <Gold.Protein.ActiveResidues>
 VAL166  LYS551  ARG553  GLY616  TRP617  ASP618  TYR619  PRO620  LYS621  CYS622 
 ASP623  PHE694  ASN695  SER759  ASP760  ASP761  ALA762  ILE779  LEU786  VAL792 
 PHE793  MET794  SER795  GLU796  ALA797  LYS798  CYS799  TRP800  GLU811  SER814 

> <Gold.Protein.RotatedAtoms>
  151.0335  134.9556  159.8123 H   0  0  0  0  0  0  0  0  0  0  0  0  # atno 6907 bound_to 6896
  152.5350  134.2750  159.8996 H   0  0  0  0  0  0  0  0  0  0  0  0  # atno 6908 bound_to 6896
  151.2760  133.4190  159.2658 H   0  0  0  0  0  0  0  0  0  0  0  0  # atno 6909 bound_to 6896
  146.1085  140.5637  142.8788 H   0  0  0  0  0  0  0  0  0  0  0  0  # atno 7974 bound_to 7965
  154.6325  140.0601  156.9749 H   0  0  0  0  0  0  0  0  0  0  0  0  # atno 8008 bound_to 7997
  155.1644  140.3285  155.4386 H   0  0  0  0  0  0  0  0  0  0  0  0  # atno 8009 bound_to 7997
  156.2490  140.1925  156.6749 H   0  0  0  0  0  0  0  0  0  0  0  0  # atno 8010 bound_to 7997
  140.6120  143.2390  151.5686 H   0  0  0  0  0  0  0  0  0  0  0  0  # atno 10167 bound_to 10162
  156.9002  130.5719  149.5648 H   0  0  0  0  0  0  0  0  0  0  0  0  # atno 10718 bound_to 10713
  153.1688  135.6809  153.8637 H   0  0  0  0  0  0  0  0  0  0  0  0  # atno 10763 bound_to 10752
  153.8008  135.3156  155.3391 H   0  0  0  0  0  0  0  0  0  0  0  0  # atno 10764 bound_to 10752
  154.7984  135.4793  154.0307 H   0  0  0  0  0  0  0  0  0  0  0  0  # atno 10765 bound_to 10752
  140.9673  134.0854  157.3906 H   0  0  0  0  0  0  0  0  0  0  0  0  # atno 11005 bound_to 11000
  144.7491  140.5146  143.6814 LP  0  0  0  0  0  0  0  0  0  0  0  0  # atno 17320 bound_to 7965
  145.5711  139.1483  143.3288 LP  0  0  0  0  0  0  0  0  0  0  0  0  # atno 17321 bound_to 7965
  139.5369  144.2756  152.1270 LP  0  0  0  0  0  0  0  0  0  0  0  0  # atno 17342 bound_to 10162
  140.1958  144.4707  150.6456 LP  0  0  0  0  0  0  0  0  0  0  0  0  # atno 17343 bound_to 10162
  156.0586  130.5643  150.9144 LP  0  0  0  0  0  0  0  0  0  0  0  0  # atno 17370 bound_to 10713
  157.6031  131.0940  150.8926 LP  0  0  0  0  0  0  0  0  0  0  0  0  # atno 17371 bound_to 10713
  139.8899  135.0108  156.6706 LP  0  0  0  0  0  0  0  0  0  0  0  0  # atno 17394 bound_to 11000
  140.7380  133.9002  155.8258 LP  0  0  0  0  0  0  0  0  0  0  0  0  # atno 17395 bound_to 11000

$$$$
