AV-unprocessed.smi:2104|AV-procd|sdf|8583|dock2
  -GOLD-   2272011313D 1   1.00000     0.00000
 Structure written by MMmdl.
 43 44  0  0  0  0  0  0  0  0  1 V2000
  146.7927  138.5735  152.2488 C   0  0  0  0  0  0  0  0  0  0  0  0
  147.5435  139.4927  153.1502 C   0  0  0  0  0  0  0  0  0  0  0  0
  148.5579  139.2959  154.0445 C   0  0  0  0  0  0  0  0  0  0  0  0
  148.7925  140.6007  154.5543 C   0  0  0  0  0  0  0  0  0  0  0  0
  149.7925  140.8304  155.5334 N   0  0  0  0  0  0  0  0  0  0  0  0
  150.0499  140.0967  156.6293 C   0  0  0  0  0  0  0  0  0  0  0  0
  149.4184  139.0990  156.9787 O   0  0  0  0  0  0  0  0  0  0  0  0
  151.0970  140.5885  157.3077 N   0  0  0  0  0  0  0  0  0  0  0  0
  151.6648  140.0048  158.5186 C   0  0  0  0  0  0  0  0  0  0  0  0
  153.1518  140.3569  158.6683 C   0  0  0  0  0  0  0  0  0  0  0  0
  153.3058  141.2683  159.7452 O   0  0  0  0  0  0  0  0  0  0  0  0
  152.3979  142.3606  159.7344 C   0  0  2  0  0  0  0  0  0  0  0  0
  152.4808  143.0695  158.3658 C   0  0  0  0  0  0  0  0  0  0  0  0
  151.6350  144.3510  158.3405 C   0  0  0  0  0  0  0  0  0  0  0  0
  152.0465  145.3028  159.4722 C   0  0  0  0  0  0  0  0  0  0  0  0
  151.9528  144.6059  160.8379 C   0  0  0  0  0  0  0  0  0  0  0  0
  152.7976  143.3166  160.8812 C   0  0  1  0  0  0  0  0  0  0  0  0
  152.6794  142.6366  162.2551 C   0  0  0  0  0  0  0  0  0  0  0  0
  147.9928  141.5113  154.0203 N   0  0  0  0  0  0  0  0  0  0  0  0
  147.1885  140.8057  153.1175 O   0  0  0  0  0  0  0  0  0  0  0  0
  147.1665  137.5530  152.3332 H   0  0  0  0  0  0  0  0  0  0  0  0
  146.8926  138.8853  151.2091 H   0  0  0  0  0  0  0  0  0  0  0  0
  145.7320  138.5671  152.5003 H   0  0  0  0  0  0  0  0  0  0  0  0
  149.0503  138.3671  154.2915 H   0  0  0  0  0  0  0  0  0  0  0  0
  150.3854  141.6313  155.3743 H   0  0  0  0  0  0  0  0  0  0  0  0
  151.5508  141.4152  156.9482 H   0  0  0  0  0  0  0  0  0  0  0  0
  151.1112  140.4091  159.3662 H   0  0  0  0  0  0  0  0  0  0  0  0
  151.5179  138.9237  158.5415 H   0  0  0  0  0  0  0  0  0  0  0  0
  153.7376  139.4500  158.8213 H   0  0  0  0  0  0  0  0  0  0  0  0
  153.5142  140.8261  157.7527 H   0  0  0  0  0  0  0  0  0  0  0  0
  151.3786  142.0105  159.9105 H   0  0  0  0  0  0  0  0  0  0  0  0
  153.5204  143.3176  158.1473 H   0  0  0  0  0  0  0  0  0  0  0  0
  152.1514  142.4049  157.5678 H   0  0  0  0  0  0  0  0  0  0  0  0
  151.7433  144.8495  157.3769 H   0  0  0  0  0  0  0  0  0  0  0  0
  150.5793  144.0958  158.4414 H   0  0  0  0  0  0  0  0  0  0  0  0
  153.0672  145.6499  159.3067 H   0  0  0  0  0  0  0  0  0  0  0  0
  151.4122  146.1896  159.4625 H   0  0  0  0  0  0  0  0  0  0  0  0
  152.2808  145.2925  161.6191 H   0  0  0  0  0  0  0  0  0  0  0  0
  150.9094  144.3705  161.0526 H   0  0  0  0  0  0  0  0  0  0  0  0
  153.8426  143.5972  160.7391 H   0  0  0  0  0  0  0  0  0  0  0  0
  151.6558  142.3175  162.4525 H   0  0  0  0  0  0  0  0  0  0  0  0
  152.9771  143.3144  163.0554 H   0  0  0  0  0  0  0  0  0  0  0  0
  153.3201  141.7566  162.3190 H   0  0  0  0  0  0  0  0  0  0  0  0
  1  2  1  0  0  0  0
  1 21  1  0  0  0  0
  1 22  1  0  0  0  0
  1 23  1  0  0  0  0
  2 20  1  0  0  0  0
  2  3  2  0  0  0  0
  3  4  1  0  0  0  0
  3 24  1  0  0  0  0
  4  5  1  0  0  0  0
  4 19  2  0  0  0  0
  5  6  1  0  0  0  0
  5 25  1  0  0  0  0
  6  7  2  0  0  0  0
  6  8  1  0  0  0  0
  8  9  1  0  0  0  0
  8 26  1  0  0  0  0
  9 10  1  0  0  0  0
  9 27  1  0  0  0  0
  9 28  1  0  0  0  0
 10 11  1  0  0  0  0
 10 29  1  0  0  0  0
 10 30  1  0  0  0  0
 11 12  1  0  0  0  0
 12 17  1  0  0  0  0
 12 13  1  0  0  0  0
 12 31  1  0  0  0  0
 13 14  1  0  0  0  0
 13 32  1  0  0  0  0
 13 33  1  0  0  0  0
 14 15  1  0  0  0  0
 14 34  1  0  0  0  0
 14 35  1  0  0  0  0
 15 16  1  0  0  0  0
 15 36  1  0  0  0  0
 15 37  1  0  0  0  0
 16 17  1  0  0  0  0
 16 38  1  0  0  0  0
 16 39  1  0  0  0  0
 17 18  1  0  0  0  0
 17 40  1  0  0  0  0
 18 41  1  0  0  0  0
 18 42  1  0  0  0  0
 18 43  1  0  0  0  0
 19 20  1  0  0  0  0
M  END
> <s_m_source_file>
AV-unprocessed.smi

> <i_m_source_file_index>
2104

> <i_lp_mmshare_version>
43012

> <i_f3d_flags>
0

> <s_epik_input>
W0NIM11jMVtjSF1jKG5vMSlbTkhdQyg9TylbTkhdW0NIMl1bQ0gyXU9bQ0BASF0yW0NIMl1bQ0gyXVtDSDJdW0NIMl1bQ0BIXTJbQ0gzXQ==

> <s_epik_cmdline>
J2VwaWtfcHl0aG9uJywgJy1waCcsICc3LjAnLCAnLXRuJywgJzgnLCAnLW1hJywgJzIwMCcsICctbWV0YWxfYmluZGluZycsICctaW1hZScsICc8aW5maWxlLm1hZT4nLCAnLW9tYWUnLCAnPG91dGZpbGUubWFlPic=

> <r_lp_tautomer_probability>
1

> <r_epik_Ionization_Penalty>
2.94418e-05

> <r_epik_Ionization_Penalty_Charging>
0

> <r_epik_Ionization_Penalty_Neutral>
2.94418e-05

> <r_epik_State_Penalty>
-0

> <r_epik_Charging_Adjusted_Penalty>
0

> <i_epik_Tot_Q>
0

> <i_epik_Tot_abs_Q>
0

> <r_epik_Metal_State_Penalty>
0.0104148

> <b_epik_Metal_Only>
0

> <s_lp_Force_Field>
OPLS_2005

> <r_lp_Energy>
8.87971

> <b_lp_Chiralities_Consistent>
1

> <s_lp_Variant>
AV-unprocessed.smi:2104-1

> <Gold.Version>
5.8.1

> <Gold.Id.Protein>
6NUR|6NUR_protein|mol2

> <Gold.PLP.Fitness>
38.9537

> <Gold.PLP.PLP>
-40.8038

> <Gold.PLP.part.hbond>
0.0000

> <Gold.PLP.part.metal>
0.0000

> <Gold.PLP.part.buried>
-4.1426

> <Gold.PLP.part.nonpolar>
-36.7612

> <Gold.PLP.part.repulsive>
0.4984

> <Gold.PLP.ligand.clash>
0.0000

> <Gold.PLP.ligand.torsion>
0.9473

> <Gold.PLP.Chemscore.Hbond>
0.0000

> <Gold.PLP.Chemscore.CHOScore>
0.0000

> <Gold.PLP.Chemscore.Metal>
0.0000

> <Gold.PLP.Chemscore.Internal.Correction>
0.0445

> <Gold.Rescore>
     Score         DG    S(hbond)    S(metal)    S(lipo)     H(rot)  DE(clash)    DE(int)     intcor
     13.78     -14.83       0.00        0.00     118.22       1.75       0.03       1.01       ----

> <Gold.Chemscore.Fitness>
13.7846

> <Gold.Chemscore.DG>
-14.8255

> <Gold.Chemscore.ZeroCoef>
-5.4800

> <Gold.Chemscore.Hbond>
0.0000

> <Gold.Chemscore.Metal>
0.0000

> <Gold.Chemscore.Lipo>
118.2194

> <Gold.Chemscore.Internal_Hbond>
0.0000

> <Gold.Chemscore.DEClash>
0.0284

> <Gold.Chemscore.DEInternal>
1.0126

> <Gold.Chemscore.Rot>
1.7524

> <Gold.Chemscore.Internal.Correction>
   9.000000E+99

> <Gold.Chemscore.Hbond.Weighted>
-0.0000

> <Gold.Chemscore.Metal.Weighted>
-0.0000

> <Gold.Chemscore.Lipo.Weighted>
-13.8317

> <Gold.Chemscore.Internal_Hbond.Weighted>
0.0000

> <Gold.Chemscore.DEClash.Weighted>
0.0284

> <Gold.Chemscore.DEInternal.Weighted>
1.0126

> <Gold.Chemscore.Rot.Weighted>
4.4861

> <Gold.Chemscore.Internal.Correction.Weighted>
   9.000000E+99

> <Gold.Protein.RotatedTorsions>
[ 6907 6896 6895 6894 ] final   86.43 input  -60.11 | X-H torsion
[ 7974 7965 7964 7962 ] final  -87.10 input  175.53 | X-H torsion
[ 8008 7997 7996 7995 ] final  102.43 input   59.86 | X-H torsion
[ 10167 10162 10161 10158 ] final   69.20 input  -65.29 | X-H torsion
[ 10718 10713 10712 10709 ] final -120.68 input   66.30 | X-H torsion
[ 10763 10752 10751 10750 ] final   -1.91 input  -60.55 | X-H torsion
[ 11005 11000 10999 10996 ] final  136.78 input  -57.11 | X-H torsion

> <Gold.Protein.ActiveResidues>
 VAL166  LYS551  ARG553  GLY616  TRP617  ASP618  TYR619  PRO620  LYS621  CYS622 
 ASP623  PHE694  ASN695  SER759  ASP760  ASP761  ALA762  ILE779  LEU786  VAL792 
 PHE793  MET794  SER795  GLU796  ALA797  LYS798  CYS799  TRP800  GLU811  SER814 

> <Gold.Protein.RotatedAtoms>
  152.5394  134.2433  159.8870 H   0  0  0  0  0  0  0  0  0  0  0  0  # atno 6907 bound_to 6896
  151.2399  133.4398  159.2614 H   0  0  0  0  0  0  0  0  0  0  0  0  # atno 6908 bound_to 6896
  151.0636  134.9766  159.8329 H   0  0  0  0  0  0  0  0  0  0  0  0  # atno 6909 bound_to 6896
  145.4711  140.9559  143.1917 H   0  0  0  0  0  0  0  0  0  0  0  0  # atno 7974 bound_to 7965
  156.1392  140.3181  155.8469 H   0  0  0  0  0  0  0  0  0  0  0  0  # atno 8008 bound_to 7997
  155.4186  140.0511  157.3044 H   0  0  0  0  0  0  0  0  0  0  0  0  # atno 8009 bound_to 7997
  154.4962  140.2111  155.9455 H   0  0  0  0  0  0  0  0  0  0  0  0  # atno 8010 bound_to 7997
  140.0703  144.5158  150.7231 H   0  0  0  0  0  0  0  0  0  0  0  0  # atno 10167 bound_to 10162
  156.1277  130.6372  150.9570 H   0  0  0  0  0  0  0  0  0  0  0  0  # atno 10718 bound_to 10713
  153.3511  135.6985  153.6788 H   0  0  0  0  0  0  0  0  0  0  0  0  # atno 10763 bound_to 10752
  153.5514  135.3553  155.2761 H   0  0  0  0  0  0  0  0  0  0  0  0  # atno 10764 bound_to 10752
  154.8653  135.4227  154.2747 H   0  0  0  0  0  0  0  0  0  0  0  0  # atno 10765 bound_to 10752
  140.0069  134.9455  157.0195 H   0  0  0  0  0  0  0  0  0  0  0  0  # atno 11005 bound_to 11000
  144.7945  139.6262  143.7099 LP  0  0  0  0  0  0  0  0  0  0  0  0  # atno 17320 bound_to 7965
  146.2396  139.5975  142.9500 LP  0  0  0  0  0  0  0  0  0  0  0  0  # atno 17321 bound_to 7965
  140.7128  143.2519  151.4527 LP  0  0  0  0  0  0  0  0  0  0  0  0  # atno 17342 bound_to 10162
  139.5840  144.1646  152.2005 LP  0  0  0  0  0  0  0  0  0  0  0  0  # atno 17343 bound_to 10162
  157.6458  131.0904  150.8157 LP  0  0  0  0  0  0  0  0  0  0  0  0  # atno 17370 bound_to 10713
  156.8245  130.4995  149.5339 LP  0  0  0  0  0  0  0  0  0  0  0  0  # atno 17371 bound_to 10713
  140.4624  134.1470  155.7193 LP  0  0  0  0  0  0  0  0  0  0  0  0  # atno 17394 bound_to 11000
  141.1683  133.8658  157.1647 LP  0  0  0  0  0  0  0  0  0  0  0  0  # atno 17395 bound_to 11000

$$$$
