AV-unprocessed.smi:689|AV-procd|sdf|3359|dock9
  -GOLD-   22720 0333D 1   1.00000     0.00000
 Structure written by MMmdl.
 34 35  0  0  0  0  0  0  0  0  1 V2000
  149.6258  138.8656  154.3616 C   0  0  0  0  0  0  0  0  0  0  0  0
  150.8978  138.6615  155.1333 C   0  0  0  0  0  0  0  0  0  0  0  0
  151.9049  139.5025  154.9690 N   0  0  0  0  0  0  0  0  0  0  0  0
  152.9201  139.0552  155.8197 O   0  0  0  0  0  0  0  0  0  0  0  0
  152.4790  137.9501  156.4718 C   0  0  0  0  0  0  0  0  0  0  0  0
  153.4275  137.3307  157.4417 C   0  0  0  0  0  0  0  0  0  0  0  0
  151.2037  137.6432  156.0812 C   0  0  0  0  0  0  0  0  0  0  0  0
  150.3169  136.5163  156.5443 C   0  0  0  0  0  0  0  0  0  0  0  0
  149.9956  136.7134  158.0239 C   0  0  0  0  0  0  0  0  0  0  0  0
  150.8797  136.7095  158.8791 O   0  0  0  0  0  0  0  0  0  0  0  0
  148.6370  136.8416  158.3260 N   0  0  0  0  0  0  0  0  0  0  0  0
  147.9373  136.6592  159.8959 S   0  0  0  0  0  0  0  0  0  0  0  0
  149.0074  136.7954  160.8966 O   0  0  0  0  0  0  0  0  0  0  0  0
  146.7705  137.5536  159.9366 O   0  0  0  0  0  0  0  0  0  0  0  0
  147.3121  134.9174  159.8655 C   0  0  0  0  0  0  0  0  0  0  0  0
  146.7153  134.4712  161.1876 C   0  0  0  0  0  0  0  0  0  0  0  0
  147.2734  134.9761  162.4989 C   0  0  0  0  0  0  0  0  0  0  0  0
  147.4669  133.5337  162.1061 C   0  0  0  0  0  0  0  0  0  0  0  0
  148.8192  139.1872  155.0209 H   0  0  0  0  0  0  0  0  0  0  0  0
  149.3103  137.9412  153.8782 H   0  0  0  0  0  0  0  0  0  0  0  0
  149.7411  139.6207  153.5830 H   0  0  0  0  0  0  0  0  0  0  0  0
  152.9696  136.4873  157.9579 H   0  0  0  0  0  0  0  0  0  0  0  0
  153.7377  138.0564  158.1936 H   0  0  0  0  0  0  0  0  0  0  0  0
  154.3198  136.9692  156.9309 H   0  0  0  0  0  0  0  0  0  0  0  0
  149.3811  136.4862  155.9855 H   0  0  0  0  0  0  0  0  0  0  0  0
  150.7916  135.5460  156.3921 H   0  0  0  0  0  0  0  0  0  0  0  0
  147.9363  136.8410  157.5856 H   0  0  0  0  0  0  0  0  0  0  0  0
  146.5427  134.8668  159.0946 H   0  0  0  0  0  0  0  0  0  0  0  0
  148.1200  134.2497  159.5672 H   0  0  0  0  0  0  0  0  0  0  0  0
  145.6365  134.3346  161.1557 H   0  0  0  0  0  0  0  0  0  0  0  0
  148.1461  135.6252  162.4664 H   0  0  0  0  0  0  0  0  0  0  0  0
  146.5646  135.1887  163.2966 H   0  0  0  0  0  0  0  0  0  0  0  0
  146.8857  132.7823  162.6368 H   0  0  0  0  0  0  0  0  0  0  0  0
  148.4681  133.2257  161.8105 H   0  0  0  0  0  0  0  0  0  0  0  0
  1  2  1  0  0  0  0
  1 19  1  0  0  0  0
  1 20  1  0  0  0  0
  1 21  1  0  0  0  0
  2  7  1  0  0  0  0
  2  3  2  0  0  0  0
  3  4  1  0  0  0  0
  4  5  1  0  0  0  0
  5  6  1  0  0  0  0
  5  7  2  0  0  0  0
  6 22  1  0  0  0  0
  6 23  1  0  0  0  0
  6 24  1  0  0  0  0
  7  8  1  0  0  0  0
  8  9  1  0  0  0  0
  8 25  1  0  0  0  0
  8 26  1  0  0  0  0
  9 10  2  0  0  0  0
  9 11  1  0  0  0  0
 11 12  1  0  0  0  0
 11 27  1  0  0  0  0
 12 13  2  0  0  0  0
 12 14  2  0  0  0  0
 12 15  1  0  0  0  0
 15 16  1  0  0  0  0
 15 28  1  0  0  0  0
 15 29  1  0  0  0  0
 16 18  1  0  0  0  0
 16 17  1  0  0  0  0
 16 30  1  0  0  0  0
 17 18  1  0  0  0  0
 17 31  1  0  0  0  0
 17 32  1  0  0  0  0
 18 33  1  0  0  0  0
 18 34  1  0  0  0  0
M  END
> <s_m_source_file>
AV-unprocessed.smi

> <i_m_source_file_index>
689

> <i_lp_mmshare_version>
43012

> <i_f3d_flags>
0

> <s_epik_input>
W0NIM11jMW5vYyhbQ0gzXSljMVtDSDJdQyg9TylbTkhdUyg9TykoPU8pW0NIMl1bQ0hdMltDSDJdW0NIMl0y

> <s_epik_cmdline>
J2VwaWtfcHl0aG9uJywgJy1waCcsICc3LjAnLCAnLXRuJywgJzgnLCAnLW1hJywgJzIwMCcsICctbWV0YWxfYmluZGluZycsICctaW1hZScsICc8aW5maWxlLm1hZT4nLCAnLW9tYWUnLCAnPG91dGZpbGUubWFlPic=

> <r_epik_Ionization_Penalty>
2.32728

> <r_epik_Ionization_Penalty_Charging>
0

> <r_epik_Ionization_Penalty_Neutral>
2.32728

> <r_epik_State_Penalty>
2.47991

> <r_epik_Charging_Adjusted_Penalty>
2.47991

> <i_epik_Tot_Q>
0

> <i_epik_Tot_abs_Q>
0

> <r_epik_Metal_State_Penalty>
2.4915

> <b_epik_Metal_Only>
0

> <s_lp_Force_Field>
OPLS_2005

> <r_lp_Energy>
-0.069028

> <b_lp_Chiralities_Consistent>
1

> <s_lp_Variant>
AV-unprocessed.smi:689-2

> <Gold.Version>
5.8.1

> <Gold.Id.Protein>
6NUR|6NUR_protein|mol2

> <Gold.PLP.Fitness>
41.9538

> <Gold.PLP.PLP>
-27.8648

> <Gold.PLP.part.hbond>
-5.0000

> <Gold.PLP.part.metal>
0.0000

> <Gold.PLP.part.buried>
-6.0604

> <Gold.PLP.part.nonpolar>
-18.2672

> <Gold.PLP.part.repulsive>
0.1425

> <Gold.PLP.ligand.clash>
0.0000

> <Gold.PLP.ligand.torsion>
1.0729

> <Gold.PLP.Chemscore.Hbond>
4.8640

> <Gold.PLP.Chemscore.CHOScore>
0.0000

> <Gold.PLP.Chemscore.Metal>
0.0000

> <Gold.Chemscore.Hbonds>
donor molecule, donor type, donor heavy atom, donor atom, acceptor molecule, acceptor atom, score
      P1  H  6896  6907       L1    10  1.00
      P1  H  6931  6943       L1    13  0.91
      P1  H  6934  6947       L1    14  1.00
      P1  H  7989  7998       L1     3  0.98
      P1  H  7997  8009       L1     4  0.98

> <Gold.PLP.Chemscore.Internal.Correction>
1.6429

> <Gold.Rescore>
     Score         DG    S(hbond)    S(metal)    S(lipo)     H(rot)  DE(clash)    DE(int)     intcor
     20.30     -22.96       4.47        0.00      57.84       1.65       0.05       2.61       ----

> <Gold.Chemscore.Fitness>
20.2994

> <Gold.Chemscore.DG>
-22.9560

> <Gold.Chemscore.ZeroCoef>
-5.4800

> <Gold.Chemscore.Hbond>
4.4723

> <Gold.Chemscore.Metal>
0.0000

> <Gold.Chemscore.Lipo>
57.8409

> <Gold.Chemscore.Internal_Hbond>
0.0000

> <Gold.Chemscore.DEClash>
0.0515

> <Gold.Chemscore.DEInternal>
2.6051

> <Gold.Chemscore.Rot>
1.6519

> <Gold.Chemscore.Internal.Correction>
   9.000000E+99

> <Gold.Chemscore.Hbonds>
donor molecule, donor type, donor heavy atom, donor atom, acceptor molecule, acceptor atom, score
      P1  H  6896  6907       L1    10  0.93
      P1  H  6931  6943       L1    13  0.87
      P1  H  6934  6947       L1    14  0.73
      P1  H  7989  7998       L1     3  0.82
      P1  H  7997  8009       L1     4  0.84

> <Gold.Chemscore.Hbond.Weighted>
-14.9376

> <Gold.Chemscore.Metal.Weighted>
-0.0000

> <Gold.Chemscore.Lipo.Weighted>
-6.7674

> <Gold.Chemscore.Internal_Hbond.Weighted>
0.0000

> <Gold.Chemscore.DEClash.Weighted>
0.0515

> <Gold.Chemscore.DEInternal.Weighted>
2.6051

> <Gold.Chemscore.Rot.Weighted>
4.2290

> <Gold.Chemscore.Internal.Correction.Weighted>
   9.000000E+99

> <Gold.Protein.RotatedTorsions>
[ 6907 6896 6895 6894 ] final  -23.01 input  -60.11 | X-H torsion
[ 7974 7965 7964 7962 ] final   50.99 input  175.53 | X-H torsion
[ 8008 7997 7996 7995 ] final -134.83 input   59.86 | X-H torsion
[ 10167 10162 10161 10158 ] final  -89.02 input  -65.29 | X-H torsion
[ 10718 10713 10712 10709 ] final -177.20 input   66.30 | X-H torsion
[ 10763 10752 10751 10750 ] final -125.12 input  -60.55 | X-H torsion
[ 11005 11000 10999 10996 ] final -156.01 input  -57.11 | X-H torsion

> <Gold.Protein.ActiveResidues>
 VAL166  LYS551  ARG553  GLY616  TRP617  ASP618  TYR619  PRO620  LYS621  CYS622 
 ASP623  PHE694  ASN695  SER759  ASP760  ASP761  ALA762  ILE779  LEU786  VAL792 
 PHE793  MET794  SER795  GLU796  ALA797  LYS798  CYS799  TRP800  GLU811  SER814 

> <Gold.Protein.RotatedAtoms>
  151.2103  135.0478  159.8907 H   0  0  0  0  0  0  0  0  0  0  0  0  # atno 6907 bound_to 6896
  152.5425  134.0753  159.8222 H   0  0  0  0  0  0  0  0  0  0  0  0  # atno 6908 bound_to 6896
  151.0905  133.5272  159.2647 H   0  0  0  0  0  0  0  0  0  0  0  0  # atno 6909 bound_to 6896
  145.9958  139.4386  143.0045 H   0  0  0  0  0  0  0  0  0  0  0  0  # atno 7974 bound_to 7965
  155.3686  140.0487  157.3046 H   0  0  0  0  0  0  0  0  0  0  0  0  # atno 8008 bound_to 7997
  154.5141  140.2202  155.9062 H   0  0  0  0  0  0  0  0  0  0  0  0  # atno 8009 bound_to 7997
  156.1617  140.3115  155.8824 H   0  0  0  0  0  0  0  0  0  0  0  0  # atno 8010 bound_to 7997
  140.3690  143.2804  151.9523 H   0  0  0  0  0  0  0  0  0  0  0  0  # atno 10167 bound_to 10162
  156.8260  130.9636  151.3109 H   0  0  0  0  0  0  0  0  0  0  0  0  # atno 10718 bound_to 10713
  154.8732  135.4040  154.3216 H   0  0  0  0  0  0  0  0  0  0  0  0  # atno 10763 bound_to 10752
  153.4044  135.7019  153.6409 H   0  0  0  0  0  0  0  0  0  0  0  0  # atno 10764 bound_to 10752
  153.5138  135.3702  155.2570 H   0  0  0  0  0  0  0  0  0  0  0  0  # atno 10765 bound_to 10752
  140.6803  134.4152  157.5227 H   0  0  0  0  0  0  0  0  0  0  0  0  # atno 11005 bound_to 11000
  145.7562  140.9953  143.1224 LP  0  0  0  0  0  0  0  0  0  0  0  0  # atno 17320 bound_to 7965
  144.6903  139.9274  143.7470 LP  0  0  0  0  0  0  0  0  0  0  0  0  # atno 17321 bound_to 7965
  139.4806  144.5924  151.7748 LP  0  0  0  0  0  0  0  0  0  0  0  0  # atno 17342 bound_to 10162
  140.5052  144.1108  150.5981 LP  0  0  0  0  0  0  0  0  0  0  0  0  # atno 17343 bound_to 10162
  157.6432  130.8822  149.9488 LP  0  0  0  0  0  0  0  0  0  0  0  0  # atno 17370 bound_to 10713
  156.0961  130.3659  150.0303 LP  0  0  0  0  0  0  0  0  0  0  0  0  # atno 17371 bound_to 10713
  139.8954  134.8684  156.2134 LP  0  0  0  0  0  0  0  0  0  0  0  0  # atno 17394 bound_to 11000
  141.0323  133.6982  156.1451 LP  0  0  0  0  0  0  0  0  0  0  0  0  # atno 17395 bound_to 11000

$$$$
