AV-unprocessed.smi:3240|AV-procd|sdf|12384|dock3
  -GOLD-   2272018243D 1   1.00000     0.00000
 Structure written by MMmdl.
 43 44  0  0  0  0  0  0  0  0  1 V2000
  153.9694  142.8055  163.4754 C   0  0  0  0  0  0  0  0  0  0  0  0
  153.5069  142.5136  162.0771 C   0  0  0  0  0  0  0  0  0  0  0  0
  153.9300  141.4585  161.2197 C   0  0  0  0  0  0  0  0  0  0  0  0
  153.3275  141.4794  160.0422 N   0  0  0  0  0  0  0  0  0  0  0  0
  152.5056  142.5488  160.1025 N   0  0  0  0  0  0  0  0  0  0  0  0
  151.6711  142.8887  158.9630 C   0  0  0  0  0  0  0  0  0  0  0  0
  150.5994  143.9482  159.2951 C   0  0  1  0  0  0  0  0  0  0  0  0
  151.1237  145.3909  159.1358 C   0  0  0  0  0  0  0  0  0  0  0  0
  149.4138  143.7044  158.4676 N   0  0  0  0  0  0  0  0  0  0  0  0
  149.0904  142.2958  158.2208 C   0  0  0  0  0  0  0  0  0  0  0  0
  149.4552  141.8466  156.7877 C   0  0  0  0  0  0  0  0  0  0  0  0
  150.3503  142.8141  156.2695 O   0  0  0  0  0  0  0  0  0  0  0  0
  150.1133  140.4434  156.7487 C   0  0  0  0  0  0  0  0  0  0  0  0
  150.3499  139.9303  155.3164 C   0  0  0  0  0  0  0  0  0  0  0  0
  149.0554  139.9458  154.4921 C   0  0  0  0  0  0  0  0  0  0  0  0
  148.4339  141.3486  154.4760 C   0  0  0  0  0  0  0  0  0  0  0  0
  148.1848  141.8655  155.9043 C   0  0  0  0  0  0  0  0  0  0  0  0
  152.5902  143.1880  161.3211 C   0  0  0  0  0  0  0  0  0  0  0  0
  154.2102  141.8923  164.0197 H   0  0  0  0  0  0  0  0  0  0  0  0
  153.2086  143.3312  164.0526 H   0  0  0  0  0  0  0  0  0  0  0  0
  154.8643  143.4281  163.4794 H   0  0  0  0  0  0  0  0  0  0  0  0
  154.6534  140.6813  161.4183 H   0  0  0  0  0  0  0  0  0  0  0  0
  152.3087  143.2372  158.1482 H   0  0  0  0  0  0  0  0  0  0  0  0
  151.1959  141.9712  158.6132 H   0  0  0  0  0  0  0  0  0  0  0  0
  150.3241  143.8113  160.3416 H   0  0  0  0  0  0  0  0  0  0  0  0
  152.0118  145.5632  159.7437 H   0  0  0  0  0  0  0  0  0  0  0  0
  150.3903  146.1308  159.4536 H   0  0  0  0  0  0  0  0  0  0  0  0
  151.3876  145.6027  158.0992 H   0  0  0  0  0  0  0  0  0  0  0  0
  149.5144  144.1876  157.5806 H   0  0  0  0  0  0  0  0  0  0  0  0
  149.6332  141.6750  158.9348 H   0  0  0  0  0  0  0  0  0  0  0  0
  148.0309  142.1081  158.3941 H   0  0  0  0  0  0  0  0  0  0  0  0
  149.8533  143.5845  156.0391 H   0  0  0  0  0  0  0  0  0  0  0  0
  151.0630  140.4467  157.2847 H   0  0  0  0  0  0  0  0  0  0  0  0
  149.4722  139.7335  157.2731 H   0  0  0  0  0  0  0  0  0  0  0  0
  151.1038  140.5458  154.8241 H   0  0  0  0  0  0  0  0  0  0  0  0
  150.7546  138.9186  155.3485 H   0  0  0  0  0  0  0  0  0  0  0  0
  149.2593  139.6175  153.4725 H   0  0  0  0  0  0  0  0  0  0  0  0
  148.3440  139.2335  154.9117 H   0  0  0  0  0  0  0  0  0  0  0  0
  149.0927  142.0352  153.9430 H   0  0  0  0  0  0  0  0  0  0  0  0
  147.4958  141.3313  153.9210 H   0  0  0  0  0  0  0  0  0  0  0  0
  147.4167  141.2441  156.3668 H   0  0  0  0  0  0  0  0  0  0  0  0
  147.7689  142.8730  155.8611 H   0  0  0  0  0  0  0  0  0  0  0  0
  151.9987  144.0632  161.5455 H   0  0  0  0  0  0  0  0  0  0  0  0
  1  2  1  0  0  0  0
  1 19  1  0  0  0  0
  1 20  1  0  0  0  0
  1 21  1  0  0  0  0
  2 18  2  0  0  0  0
  2  3  1  0  0  0  0
  3  4  2  0  0  0  0
  3 22  1  0  0  0  0
  4  5  1  0  0  0  0
  5  6  1  0  0  0  0
  5 18  1  0  0  0  0
  6  7  1  0  0  0  0
  6 23  1  0  0  0  0
  6 24  1  0  0  0  0
  7  8  1  0  0  0  0
  7  9  1  0  0  0  0
  7 25  1  0  0  0  0
  8 26  1  0  0  0  0
  8 27  1  0  0  0  0
  8 28  1  0  0  0  0
  9 10  1  0  0  0  0
  9 29  1  0  0  0  0
 10 11  1  0  0  0  0
 10 30  1  0  0  0  0
 10 31  1  0  0  0  0
 11 17  1  0  0  0  0
 11 12  1  0  0  0  0
 11 13  1  0  0  0  0
 12 32  1  0  0  0  0
 13 14  1  0  0  0  0
 13 33  1  0  0  0  0
 13 34  1  0  0  0  0
 14 15  1  0  0  0  0
 14 35  1  0  0  0  0
 14 36  1  0  0  0  0
 15 16  1  0  0  0  0
 15 37  1  0  0  0  0
 15 38  1  0  0  0  0
 16 17  1  0  0  0  0
 16 39  1  0  0  0  0
 16 40  1  0  0  0  0
 17 41  1  0  0  0  0
 17 42  1  0  0  0  0
 18 43  1  0  0  0  0
M  END
> <s_m_source_file>
AV-unprocessed.smi

> <i_m_source_file_index>
3240

> <i_lp_mmshare_version>
43012

> <i_f3d_flags>
0

> <s_epik_input>
W0NIM11jMVtjSF1ubihbY0hdMSlbQ0gyXVtDQEhdKFtDSDNdKVtOSF1bQ0gyXUMyKFtPSF0pW0NIMl1bQ0gyXVtDSDJdW0NIMl1bQ0gyXTI=

> <s_epik_cmdline>
J2VwaWtfcHl0aG9uJywgJy1waCcsICc3LjAnLCAnLXRuJywgJzgnLCAnLW1hJywgJzIwMCcsICctbWV0YWxfYmluZGluZycsICctaW1hZScsICc8aW5maWxlLm1hZT4nLCAnLW9tYWUnLCAnPG91dGZpbGUubWFlPic=

> <r_lp_tautomer_probability>
1

> <r_epik_Ionization_Penalty>
2.35969

> <r_epik_Ionization_Penalty_Charging>
0

> <r_epik_Ionization_Penalty_Neutral>
2.35969

> <r_epik_State_Penalty>
2.51455

> <r_epik_Charging_Adjusted_Penalty>
2.51455

> <i_epik_Tot_Q>
0

> <i_epik_Tot_abs_Q>
0

> <r_epik_Metal_State_Penalty>
2.51446

> <b_epik_Metal_Only>
0

> <s_lp_Force_Field>
OPLS_2005

> <r_lp_Energy>
22.6589

> <b_lp_Chiralities_Consistent>
1

> <s_lp_Variant>
AV-unprocessed.smi:3240-4

> <Gold.Version>
5.8.1

> <Gold.Id.Protein>
6NUR|6NUR_protein|mol2

> <Gold.PLP.Fitness>
48.4333

> <Gold.PLP.PLP>
-46.2591

> <Gold.PLP.part.hbond>
-2.7170

> <Gold.PLP.part.metal>
0.0000

> <Gold.PLP.part.buried>
-3.6604

> <Gold.PLP.part.nonpolar>
-38.1660

> <Gold.PLP.part.repulsive>
0.0000

> <Gold.PLP.ligand.clash>
0.0000

> <Gold.PLP.ligand.torsion>
1.8810

> <Gold.PLP.Chemscore.Hbond>
1.9511

> <Gold.PLP.Chemscore.CHOScore>
0.0000

> <Gold.PLP.Chemscore.Metal>
0.0000

> <Gold.Chemscore.Hbonds>
donor molecule, donor type, donor heavy atom, donor atom, acceptor molecule, acceptor atom, score
      L1  H     9    29       P1  8028  0.74
      L1  H    12    32       P1  8028  1.00

> <Gold.PLP.Chemscore.Internal.Correction>
0.0829

> <Gold.Rescore>
     Score         DG    S(hbond)    S(metal)    S(lipo)     H(rot)  DE(clash)    DE(int)     intcor
     17.67     -19.16       1.73        0.00     112.20       2.04       0.03       1.46       ----

> <Gold.Chemscore.Fitness>
17.6709

> <Gold.Chemscore.DG>
-19.1646

> <Gold.Chemscore.ZeroCoef>
-5.4800

> <Gold.Chemscore.Hbond>
1.7342

> <Gold.Chemscore.Metal>
0.0000

> <Gold.Chemscore.Lipo>
112.1954

> <Gold.Chemscore.Internal_Hbond>
0.0000

> <Gold.Chemscore.DEClash>
0.0300

> <Gold.Chemscore.DEInternal>
1.4637

> <Gold.Chemscore.Rot>
2.0447

> <Gold.Chemscore.Internal.Correction>
   9.000000E+99

> <Gold.Chemscore.Hbonds>
donor molecule, donor type, donor heavy atom, donor atom, acceptor molecule, acceptor atom, score
      L1  H     9    29       P1  8028  0.10
      L1  H    12    32       P1  8028  0.93

> <Gold.Chemscore.Hbond.Weighted>
-5.7922

> <Gold.Chemscore.Metal.Weighted>
-0.0000

> <Gold.Chemscore.Lipo.Weighted>
-13.1269

> <Gold.Chemscore.Internal_Hbond.Weighted>
0.0000

> <Gold.Chemscore.DEClash.Weighted>
0.0300

> <Gold.Chemscore.DEInternal.Weighted>
1.4637

> <Gold.Chemscore.Rot.Weighted>
5.2344

> <Gold.Chemscore.Internal.Correction.Weighted>
   9.000000E+99

> <Gold.Protein.RotatedTorsions>
[ 6907 6896 6895 6894 ] final  -56.00 input  -60.11 | X-H torsion
[ 7974 7965 7964 7962 ] final -147.78 input  175.53 | X-H torsion
[ 8008 7997 7996 7995 ] final  -81.58 input   59.86 | X-H torsion
[ 10167 10162 10161 10158 ] final  -11.23 input  -65.29 | X-H torsion
[ 10718 10713 10712 10709 ] final -142.62 input   66.30 | X-H torsion
[ 10763 10752 10751 10750 ] final   68.01 input  -60.55 | X-H torsion
[ 11005 11000 10999 10996 ] final -134.44 input  -57.11 | X-H torsion

> <Gold.Protein.ActiveResidues>
 VAL166  LYS551  ARG553  GLY616  TRP617  ASP618  TYR619  PRO620  LYS621  CYS622 
 ASP623  PHE694  ASN695  SER759  ASP760  ASP761  ALA762  ILE779  LEU786  VAL792 
 PHE793  MET794  SER795  GLU796  ALA797  LYS798  CYS799  TRP800  GLU811  SER814 

> <Gold.Protein.RotatedAtoms>
  150.8204  134.7409  159.6767 H   0  0  0  0  0  0  0  0  0  0  0  0  # atno 6907 bound_to 6896
  152.4320  134.5755  159.9943 H   0  0  0  0  0  0  0  0  0  0  0  0  # atno 6908 bound_to 6896
  151.5941  133.3326  159.3070 H   0  0  0  0  0  0  0  0  0  0  0  0  # atno 6909 bound_to 6896
  144.8071  140.5282  143.5667 H   0  0  0  0  0  0  0  0  0  0  0  0  # atno 7974 bound_to 7965
  154.5998  140.0646  156.9352 H   0  0  0  0  0  0  0  0  0  0  0  0  # atno 8008 bound_to 7997
  155.2152  140.3326  155.4305 H   0  0  0  0  0  0  0  0  0  0  0  0  # atno 8009 bound_to 7997
  156.2310  140.1841  156.7225 H   0  0  0  0  0  0  0  0  0  0  0  0  # atno 8010 bound_to 7997
  140.7133  143.5662  150.9141 H   0  0  0  0  0  0  0  0  0  0  0  0  # atno 10167 bound_to 10162
  156.3481  130.7673  151.1821 H   0  0  0  0  0  0  0  0  0  0  0  0  # atno 10718 bound_to 10713
  153.0214  135.5263  154.7067 H   0  0  0  0  0  0  0  0  0  0  0  0  # atno 10763 bound_to 10752
  154.6161  135.2883  155.0380 H   0  0  0  0  0  0  0  0  0  0  0  0  # atno 10764 bound_to 10752
  154.1384  135.6582  153.4989 H   0  0  0  0  0  0  0  0  0  0  0  0  # atno 10765 bound_to 10752
  140.8989  134.1716  157.4475 H   0  0  0  0  0  0  0  0  0  0  0  0  # atno 11005 bound_to 11000
  145.5411  139.1475  143.3446 LP  0  0  0  0  0  0  0  0  0  0  0  0  # atno 17320 bound_to 7965
  146.2364  140.5551  142.8953 LP  0  0  0  0  0  0  0  0  0  0  0  0  # atno 17321 bound_to 7965
  139.9388  143.6406  152.3059 LP  0  0  0  0  0  0  0  0  0  0  0  0  # atno 17342 bound_to 10162
  139.6883  144.7649  151.1484 LP  0  0  0  0  0  0  0  0  0  0  0  0  # atno 17343 bound_to 10162
  157.7457  131.0435  150.4748 LP  0  0  0  0  0  0  0  0  0  0  0  0  # atno 17370 bound_to 10713
  156.4939  130.4101  149.6391 LP  0  0  0  0  0  0  0  0  0  0  0  0  # atno 17371 bound_to 10713
  139.8739  134.9890  156.5436 LP  0  0  0  0  0  0  0  0  0  0  0  0  # atno 17394 bound_to 11000
  140.8254  133.8320  155.8934 LP  0  0  0  0  0  0  0  0  0  0  0  0  # atno 17395 bound_to 11000

$$$$
