AV-unprocessed.smi:2439|AV-procd|sdf|9604|dock9
  -GOLD-   2272013233D 1   1.00000     0.00000
 Structure written by MMmdl.
 41 43  0  0  0  0  0  0  0  0  2 V2000
  150.8474  139.8330  154.5278 N   0  0  0  0  0  0  0  0  0  0  0  0
  149.8510  140.4009  154.6799 C   0  0  0  0  0  0  0  0  0  0  0  0
  148.5964  141.1183  154.8715 C   0  0  0  0  0  0  0  0  0  0  0  0
  147.8013  141.4186  153.7455 C   0  0  0  0  0  0  0  0  0  0  0  0
  146.5884  142.1077  153.9269 C   0  0  0  0  0  0  0  0  0  0  0  0
  146.2175  142.4717  155.2339 C   0  0  0  0  0  0  0  0  0  0  0  0
  146.9681  142.1909  156.3199 N   0  0  0  0  0  0  0  0  0  0  0  0
  148.1379  141.5262  156.1530 C   0  0  0  0  0  0  0  0  0  0  0  0
  148.8960  141.2471  157.3040 N   0  0  0  0  0  0  0  0  0  0  0  0
  149.3104  142.3105  158.2080 C   0  0  0  0  0  0  0  0  0  0  0  0
  150.6890  142.8794  157.8191 C   0  0  1  0  0  0  0  0  0  0  0  0
  151.1977  143.9496  158.8032 C   0  0  0  0  0  0  0  0  0  0  0  0
  151.5961  143.3468  160.0971 N   0  3  2  0  0  0  0  0  0  0  0  0
  152.0505  144.3686  161.0746 C   0  0  0  0  0  0  0  0  0  0  0  0
  152.3749  143.7315  162.4348 C   0  0  0  0  0  0  0  0  0  0  0  0
  153.4192  142.6192  162.2793 C   0  0  0  0  0  0  0  0  0  0  0  0
  152.9378  141.5896  161.2488 C   0  0  0  0  0  0  0  0  0  0  0  0
  152.5925  142.2586  159.9027 C   0  0  1  0  0  0  0  0  0  0  0  0
  152.0559  141.2249  158.8942 C   0  0  0  0  0  0  0  0  0  0  0  0
  151.6814  141.8623  157.6773 O   0  0  0  0  0  0  0  0  0  0  0  0
  148.1116  141.1258  152.7525 H   0  0  0  0  0  0  0  0  0  0  0  0
  145.9579  142.3508  153.0843 H   0  0  0  0  0  0  0  0  0  0  0  0
  145.2936  143.0012  155.4133 H   0  0  0  0  0  0  0  0  0  0  0  0
  149.0538  140.2872  157.5769 H   0  0  0  0  0  0  0  0  0  0  0  0
  148.5655  143.1057  158.1619 H   0  0  0  0  0  0  0  0  0  0  0  0
  149.3125  141.9474  159.2355 H   0  0  0  0  0  0  0  0  0  0  0  0
  150.5848  143.3532  156.8421 H   0  0  0  0  0  0  0  0  0  0  0  0
  152.0575  144.4635  158.3700 H   0  0  0  0  0  0  0  0  0  0  0  0
  150.4282  144.7054  158.9659 H   0  0  0  0  0  0  0  0  0  0  0  0
  152.9301  144.8828  160.6840 H   0  0  0  0  0  0  0  0  0  0  0  0
  151.2729  145.1228  161.2020 H   0  0  0  0  0  0  0  0  0  0  0  0
  152.7408  144.4920  163.1252 H   0  0  0  0  0  0  0  0  0  0  0  0
  151.4649  143.3233  162.8767 H   0  0  0  0  0  0  0  0  0  0  0  0
  154.3702  143.0467  161.9587 H   0  0  0  0  0  0  0  0  0  0  0  0
  153.6007  142.1354  163.2395 H   0  0  0  0  0  0  0  0  0  0  0  0
  153.7061  140.8294  161.1030 H   0  0  0  0  0  0  0  0  0  0  0  0
  152.0612  141.0706  161.6399 H   0  0  0  0  0  0  0  0  0  0  0  0
  153.5003  142.7026  159.4899 H   0  0  0  0  0  0  0  0  0  0  0  0
  152.8287  140.4895  158.6695 H   0  0  0  0  0  0  0  0  0  0  0  0
  151.2160  140.6666  159.3084 H   0  0  0  0  0  0  0  0  0  0  0  0
  150.7688  142.9181  160.4871 H   0  0  0  0  0  0  0  0  0  0  0  0
  1  2  3  0  0  0  0
  2  3  1  0  0  0  0
  3  8  1  0  0  0  0
  3  4  2  0  0  0  0
  4  5  1  0  0  0  0
  4 21  1  0  0  0  0
  5  6  2  0  0  0  0
  5 22  1  0  0  0  0
  6  7  1  0  0  0  0
  6 23  1  0  0  0  0
  7  8  2  0  0  0  0
  8  9  1  0  0  0  0
  9 10  1  0  0  0  0
  9 24  1  0  0  0  0
 10 11  1  0  0  0  0
 10 25  1  0  0  0  0
 10 26  1  0  0  0  0
 11 20  1  0  0  0  0
 11 12  1  0  0  0  0
 11 27  1  0  0  0  0
 12 13  1  0  0  0  0
 12 28  1  0  0  0  0
 12 29  1  0  0  0  0
 13 18  1  0  0  0  0
 13 14  1  0  0  0  0
 13 41  1  0  0  0  0
 14 15  1  0  0  0  0
 14 30  1  0  0  0  0
 14 31  1  0  0  0  0
 15 16  1  0  0  0  0
 15 32  1  0  0  0  0
 15 33  1  0  0  0  0
 16 17  1  0  0  0  0
 16 34  1  0  0  0  0
 16 35  1  0  0  0  0
 17 18  1  0  0  0  0
 17 36  1  0  0  0  0
 17 37  1  0  0  0  0
 18 19  1  0  0  0  0
 18 38  1  0  0  0  0
 19 20  1  0  0  0  0
 19 39  1  0  0  0  0
 19 40  1  0  0  0  0
M  CHG  1  13   1
M  END
> <s_m_source_file>
AV-unprocessed.smi

> <i_m_source_file_index>
2439

> <i_lp_mmshare_version>
43012

> <i_f3d_flags>
0

> <s_epik_input>
TiNDYzFbY0hdW2NIXVtjSF1uYzFbTkhdW0NIMl1bQ0BIXShbQ0gyXTIpT1tDSDJdW0NAQEhdKE4yMylbQ0gyXVtDSDJdW0NIMl1bQ0gyXTM=

> <s_epik_cmdline>
J2VwaWtfcHl0aG9uJywgJy1waCcsICc3LjAnLCAnLXRuJywgJzgnLCAnLW1hJywgJzIwMCcsICctbWV0YWxfYmluZGluZycsICctaW1hZScsICc8aW5maWxlLm1hZT4nLCAnLW9tYWUnLCAnPG91dGZpbGUubWFlPic=

> <r_epik_Ionization_Penalty>
0.0803594

> <r_epik_Ionization_Penalty_Charging>
0.0803403

> <r_epik_Ionization_Penalty_Neutral>
1.90988e-05

> <r_epik_State_Penalty>
0.0711481

> <r_epik_Charging_Adjusted_Penalty>
0.151488

> <i_epik_Tot_Q>
1

> <i_epik_Tot_abs_Q>
1

> <r_epik_Metal_State_Penalty>
0.0711482

> <b_epik_Metal_Only>
0

> <s_lp_Force_Field>
OPLS_2005

> <r_lp_Energy>
31.556

> <b_lp_Chiralities_Consistent>
1

> <s_lp_Variant>
AV-unprocessed.smi:2439-2

> <Gold.Version>
5.8.1

> <Gold.Id.Protein>
6NUR|6NUR_protein|mol2

> <Gold.PLP.Fitness>
43.3373

> <Gold.PLP.PLP>
-41.7633

> <Gold.PLP.part.hbond>
-1.0000

> <Gold.PLP.part.metal>
0.0000

> <Gold.PLP.part.buried>
-3.9490

> <Gold.PLP.part.nonpolar>
-36.9645

> <Gold.PLP.part.repulsive>
0.4592

> <Gold.PLP.ligand.clash>
0.0000

> <Gold.PLP.ligand.torsion>
0.7164

> <Gold.PLP.Chemscore.Hbond>
1.0000

> <Gold.PLP.Chemscore.CHOScore>
0.0000

> <Gold.PLP.Chemscore.Metal>
0.0000

> <Gold.Chemscore.Hbonds>
donor molecule, donor type, donor heavy atom, donor atom, acceptor molecule, acceptor atom, score
      P1  H  7989  7998       L1     1  1.00

> <Gold.PLP.Chemscore.Internal.Correction>
0.0068

> <Gold.Rescore>
     Score         DG    S(hbond)    S(metal)    S(lipo)     H(rot)  DE(clash)    DE(int)     intcor
     17.64     -18.43       0.98        0.00     110.42       1.27       0.04       0.76       ----

> <Gold.Chemscore.Fitness>
17.6362

> <Gold.Chemscore.DG>
-18.4342

> <Gold.Chemscore.ZeroCoef>
-5.4800

> <Gold.Chemscore.Hbond>
0.9807

> <Gold.Chemscore.Metal>
0.0000

> <Gold.Chemscore.Lipo>
110.4223

> <Gold.Chemscore.Internal_Hbond>
0.0000

> <Gold.Chemscore.DEClash>
0.0352

> <Gold.Chemscore.DEInternal>
0.7628

> <Gold.Chemscore.Rot>
1.2659

> <Gold.Chemscore.Internal.Correction>
   9.000000E+99

> <Gold.Chemscore.Hbonds>
donor molecule, donor type, donor heavy atom, donor atom, acceptor molecule, acceptor atom, score
      P1  H  7989  7998       L1     1  0.30

> <Gold.Chemscore.Hbond.Weighted>
-3.2756

> <Gold.Chemscore.Metal.Weighted>
-0.0000

> <Gold.Chemscore.Lipo.Weighted>
-12.9194

> <Gold.Chemscore.Internal_Hbond.Weighted>
0.0000

> <Gold.Chemscore.DEClash.Weighted>
0.0352

> <Gold.Chemscore.DEInternal.Weighted>
0.7628

> <Gold.Chemscore.Rot.Weighted>
3.2408

> <Gold.Chemscore.Internal.Correction.Weighted>
   9.000000E+99

> <Gold.Protein.RotatedTorsions>
[ 6907 6896 6895 6894 ] final  114.71 input  -60.11 | X-H torsion
[ 7974 7965 7964 7962 ] final  179.93 input  175.53 | X-H torsion
[ 8008 7997 7996 7995 ] final -132.26 input   59.86 | X-H torsion
[ 10167 10162 10161 10158 ] final   41.89 input  -65.29 | X-H torsion
[ 10718 10713 10712 10709 ] final  172.28 input   66.30 | X-H torsion
[ 10763 10752 10751 10750 ] final  178.21 input  -60.55 | X-H torsion
[ 11005 11000 10999 10996 ] final  -55.62 input  -57.11 | X-H torsion

> <Gold.Protein.ActiveResidues>
 VAL166  LYS551  ARG553  GLY616  TRP617  ASP618  TYR619  PRO620  LYS621  CYS622 
 ASP623  PHE694  ASN695  SER759  ASP760  ASP761  ALA762  ILE779  LEU786  VAL792 
 PHE793  MET794  SER795  GLU796  ALA797  LYS798  CYS799  TRP800  GLU811  SER814 

> <Gold.Protein.RotatedAtoms>
  152.4786  133.8199  159.7047 H   0  0  0  0  0  0  0  0  0  0  0  0  # atno 6907 bound_to 6896
  150.8820  133.7350  159.2936 H   0  0  0  0  0  0  0  0  0  0  0  0  # atno 6908 bound_to 6896
  151.4851  135.1058  159.9840 H   0  0  0  0  0  0  0  0  0  0  0  0  # atno 6909 bound_to 6896
  144.7141  140.0622  143.6432 H   0  0  0  0  0  0  0  0  0  0  0  0  # atno 7974 bound_to 7965
  155.3260  140.0464  157.3041 H   0  0  0  0  0  0  0  0  0  0  0  0  # atno 8008 bound_to 7997
  154.5354  140.2270  155.8697 H   0  0  0  0  0  0  0  0  0  0  0  0  # atno 8009 bound_to 7997
  156.1830  140.3069  155.9190 H   0  0  0  0  0  0  0  0  0  0  0  0  # atno 8010 bound_to 7997
  140.3599  144.2242  150.6139 H   0  0  0  0  0  0  0  0  0  0  0  0  # atno 10167 bound_to 10162
  156.9812  131.0119  151.2881 H   0  0  0  0  0  0  0  0  0  0  0  0  # atno 10718 bound_to 10713
  154.5047  135.2785  155.1392 H   0  0  0  0  0  0  0  0  0  0  0  0  # atno 10763 bound_to 10752
  154.3011  135.6248  153.5429 H   0  0  0  0  0  0  0  0  0  0  0  0  # atno 10764 bound_to 10752
  152.9908  135.5697  154.5498 H   0  0  0  0  0  0  0  0  0  0  0  0  # atno 10765 bound_to 10752
  141.1082  133.6612  156.4497 H   0  0  0  0  0  0  0  0  0  0  0  0  # atno 11005 bound_to 11000
  145.9854  139.2973  143.1017 LP  0  0  0  0  0  0  0  0  0  0  0  0  # atno 17320 bound_to 7965
  145.8963  140.9271  143.0526 LP  0  0  0  0  0  0  0  0  0  0  0  0  # atno 17321 bound_to 7965
  140.5137  143.2283  151.8495 LP  0  0  0  0  0  0  0  0  0  0  0  0  # atno 17342 bound_to 10162
  139.4815  144.4919  151.9174 LP  0  0  0  0  0  0  0  0  0  0  0  0  # atno 17343 bound_to 10162
  157.5525  130.8191  149.8162 LP  0  0  0  0  0  0  0  0  0  0  0  0  # atno 17370 bound_to 10713
  156.0244  130.3784  150.1867 LP  0  0  0  0  0  0  0  0  0  0  0  0  # atno 17371 bound_to 10713
  140.4845  134.6633  157.5185 LP  0  0  0  0  0  0  0  0  0  0  0  0  # atno 17394 bound_to 11000
  139.9963  134.6907  155.9605 LP  0  0  0  0  0  0  0  0  0  0  0  0  # atno 17395 bound_to 11000

$$$$
