AV-unprocessed.smi:654|AV-procd|sdf|3213|dock5
  -GOLD-   22720 0153D 1   1.00000     0.00000
 Structure written by MMmdl.
 48 50  0  0  0  0  0  0  0  0  2 V2000
  146.8271  137.1420  154.7619 O   0  0  0  0  0  0  0  0  0  0  0  0
  146.3632  138.2305  154.4204 C   0  0  0  0  0  0  0  0  0  0  0  0
  145.3978  138.3318  153.4911 N   0  0  0  0  0  0  0  0  0  0  0  0
  144.7750  137.2125  152.7904 C   0  0  0  0  0  0  0  0  0  0  0  0
  145.7010  136.5680  151.7393 C   0  0  0  0  0  0  0  0  0  0  0  0
  145.1680  135.2606  151.1788 C   0  0  0  0  0  0  0  0  0  0  0  0
  145.9842  134.1088  151.1403 C   0  0  0  0  0  0  0  0  0  0  0  0
  145.4653  132.9110  150.6057 C   0  0  0  0  0  0  0  0  0  0  0  0
  144.1407  132.8921  150.1226 C   0  0  0  0  0  0  0  0  0  0  0  0
  143.3892  134.0135  150.1769 N   0  3  0  0  0  0  0  0  0  0  0  0
  143.8489  135.1793  150.6812 C   0  0  0  0  0  0  0  0  0  0  0  0
  146.7818  139.4139  154.9382 N   0  0  0  0  0  0  0  0  0  0  0  0
  146.4504  140.7520  154.4241 C   0  0  0  0  0  0  0  0  0  0  0  0
  147.6652  141.3112  153.6730 C   0  0  0  0  0  0  0  0  0  0  0  0
  149.0808  141.5158  154.7968 S   0  0  0  0  0  0  0  0  0  0  0  0
  149.1513  139.8721  155.6071 C   0  0  0  0  0  0  0  0  0  0  0  0
  149.7401  138.8102  154.6389 C   0  0  0  0  0  0  0  0  0  0  0  0
  151.2279  139.0359  154.3141 C   0  0  0  0  0  0  0  0  0  0  0  0
  152.0745  139.1074  155.5913 C   0  0  0  0  0  0  0  0  0  0  0  0
  151.5415  140.1895  156.5388 C   0  0  0  0  0  0  0  0  0  0  0  0
  150.0538  139.9628  156.8634 C   0  0  0  0  0  0  0  0  0  0  0  0
  147.7194  139.4848  156.0688 C   0  0  0  0  0  0  0  0  0  0  0  0
  145.0727  139.2569  153.2506 H   0  0  0  0  0  0  0  0  0  0  0  0
  144.5099  136.4698  153.5430 H   0  0  0  0  0  0  0  0  0  0  0  0
  143.8383  137.5303  152.3297 H   0  0  0  0  0  0  0  0  0  0  0  0
  145.8633  137.2656  150.9168 H   0  0  0  0  0  0  0  0  0  0  0  0
  146.6843  136.3893  152.1762 H   0  0  0  0  0  0  0  0  0  0  0  0
  146.9977  134.1426  151.5129 H   0  0  0  0  0  0  0  0  0  0  0  0
  146.0748  132.0198  150.5668 H   0  0  0  0  0  0  0  0  0  0  0  0
  143.6635  132.0209  149.6979 H   0  0  0  0  0  0  0  0  0  0  0  0
  143.1545  136.0072  150.6660 H   0  0  0  0  0  0  0  0  0  0  0  0
  145.5750  140.7633  153.7746 H   0  0  0  0  0  0  0  0  0  0  0  0
  146.1898  141.4128  155.2522 H   0  0  0  0  0  0  0  0  0  0  0  0
  147.9457  140.6526  152.8505 H   0  0  0  0  0  0  0  0  0  0  0  0
  147.4272  142.2808  153.2359 H   0  0  0  0  0  0  0  0  0  0  0  0
  149.6298  137.8206  155.0847 H   0  0  0  0  0  0  0  0  0  0  0  0
  149.1781  138.7796  153.7060 H   0  0  0  0  0  0  0  0  0  0  0  0
  151.5916  138.2294  153.6768 H   0  0  0  0  0  0  0  0  0  0  0  0
  151.3498  139.9551  153.7405 H   0  0  0  0  0  0  0  0  0  0  0  0
  152.0610  138.1398  156.0949 H   0  0  0  0  0  0  0  0  0  0  0  0
  153.1153  139.3116  155.3387 H   0  0  0  0  0  0  0  0  0  0  0  0
  152.1230  140.1899  157.4611 H   0  0  0  0  0  0  0  0  0  0  0  0
  151.6832  141.1732  156.0904 H   0  0  0  0  0  0  0  0  0  0  0  0
  149.7010  140.7583  157.5207 H   0  0  0  0  0  0  0  0  0  0  0  0
  149.9663  139.0397  157.4384 H   0  0  0  0  0  0  0  0  0  0  0  0
  147.3523  140.2156  156.7911 H   0  0  0  0  0  0  0  0  0  0  0  0
  147.7506  138.5443  156.6214 H   0  0  0  0  0  0  0  0  0  0  0  0
  142.4330  133.9787  149.8223 H   0  0  0  0  0  0  0  0  0  0  0  0
  1  2  2  0  0  0  0
  2  3  1  0  0  0  0
  2 12  1  0  0  0  0
  3  4  1  0  0  0  0
  3 23  1  0  0  0  0
  4  5  1  0  0  0  0
  4 24  1  0  0  0  0
  4 25  1  0  0  0  0
  5  6  1  0  0  0  0
  5 26  1  0  0  0  0
  5 27  1  0  0  0  0
  6 11  1  0  0  0  0
  6  7  2  0  0  0  0
  7  8  1  0  0  0  0
  7 28  1  0  0  0  0
  8  9  2  0  0  0  0
  8 29  1  0  0  0  0
  9 10  1  0  0  0  0
  9 30  1  0  0  0  0
 10 11  2  0  0  0  0
 10 48  1  0  0  0  0
 11 31  1  0  0  0  0
 12 22  1  0  0  0  0
 12 13  1  0  0  0  0
 13 14  1  0  0  0  0
 13 32  1  0  0  0  0
 13 33  1  0  0  0  0
 14 15  1  0  0  0  0
 14 34  1  0  0  0  0
 14 35  1  0  0  0  0
 15 16  1  0  0  0  0
 16 21  1  0  0  0  0
 16 17  1  0  0  0  0
 16 22  1  0  0  0  0
 17 18  1  0  0  0  0
 17 36  1  0  0  0  0
 17 37  1  0  0  0  0
 18 19  1  0  0  0  0
 18 38  1  0  0  0  0
 18 39  1  0  0  0  0
 19 20  1  0  0  0  0
 19 40  1  0  0  0  0
 19 41  1  0  0  0  0
 20 21  1  0  0  0  0
 20 42  1  0  0  0  0
 20 43  1  0  0  0  0
 21 44  1  0  0  0  0
 21 45  1  0  0  0  0
 22 46  1  0  0  0  0
 22 47  1  0  0  0  0
M  CHG  1  10   1
M  END
> <s_m_source_file>
AV-unprocessed.smi

> <i_m_source_file_index>
654

> <i_lp_mmshare_version>
43012

> <i_f3d_flags>
0

> <s_epik_input>
W2NIXTFuW2NIXVtjSF1bY0hdYzFbQ0gyXVtDSDJdW05IXUMoPU8pTihbQ0gyXTIpW0NIMl1bQ0gyXVNDMjNbQ0gyXVtDSDJdW0NIMl1bQ0gyXVtDSDJdMw==

> <s_epik_cmdline>
J2VwaWtfcHl0aG9uJywgJy1waCcsICc3LjAnLCAnLXRuJywgJzgnLCAnLW1hJywgJzIwMCcsICctbWV0YWxfYmluZGluZycsICctaW1hZScsICc8aW5maWxlLm1hZT4nLCAnLW9tYWUnLCAnPG91dGZpbGUubWFlPic=

> <r_epik_Ionization_Penalty>
2.2093

> <r_epik_Ionization_Penalty_Charging>
2.20925

> <r_epik_Ionization_Penalty_Neutral>
4.66963e-05

> <r_epik_State_Penalty>
2.35335

> <r_epik_Charging_Adjusted_Penalty>
4.5626

> <i_epik_Tot_Q>
1

> <i_epik_Tot_abs_Q>
1

> <r_epik_Metal_State_Penalty>
2.36748

> <b_epik_Metal_Only>
0

> <s_lp_Force_Field>
OPLS_2005

> <r_lp_Energy>
39.5462

> <b_lp_Chiralities_Consistent>
1

> <s_lp_Variant>
AV-unprocessed.smi:654-2

> <Gold.Version>
5.8.1

> <Gold.Id.Protein>
6NUR|6NUR_protein|mol2

> <Gold.PLP.Fitness>
45.2230

> <Gold.PLP.PLP>
-36.7892

> <Gold.PLP.part.hbond>
-2.0000

> <Gold.PLP.part.metal>
0.0000

> <Gold.PLP.part.buried>
-3.1977

> <Gold.PLP.part.nonpolar>
-32.4518

> <Gold.PLP.part.repulsive>
0.1092

> <Gold.PLP.ligand.clash>
0.0000

> <Gold.PLP.ligand.torsion>
0.2260

> <Gold.PLP.Chemscore.Hbond>
2.9600

> <Gold.PLP.Chemscore.CHOScore>
0.0000

> <Gold.PLP.Chemscore.Metal>
0.0000

> <Gold.Chemscore.Hbonds>
donor molecule, donor type, donor heavy atom, donor atom, acceptor molecule, acceptor atom, score
      L1  H     3    23       P1 10175  1.00
      L1  H    10    48       P1 10186  1.92

> <Gold.PLP.Chemscore.Internal.Correction>
0.0058

> <Gold.Rescore>
     Score         DG    S(hbond)    S(metal)    S(lipo)     H(rot)  DE(clash)    DE(int)     intcor
     19.11     -20.51       1.91        0.00     102.40       1.30       1.00       0.40       ----

> <Gold.Chemscore.Fitness>
19.1107

> <Gold.Chemscore.DG>
-20.5088

> <Gold.Chemscore.ZeroCoef>
-5.4800

> <Gold.Chemscore.Hbond>
1.9054

> <Gold.Chemscore.Metal>
0.0000

> <Gold.Chemscore.Lipo>
102.3980

> <Gold.Chemscore.Internal_Hbond>
0.0000

> <Gold.Chemscore.DEClash>
1.0002

> <Gold.Chemscore.DEInternal>
0.3979

> <Gold.Chemscore.Rot>
1.2953

> <Gold.Chemscore.Internal.Correction>
   9.000000E+99

> <Gold.Chemscore.Hbonds>
donor molecule, donor type, donor heavy atom, donor atom, acceptor molecule, acceptor atom, score
      L1  H     3    23       P1 10175  0.91
      L1  H    10    48       P1 10186  0.91

> <Gold.Chemscore.Hbond.Weighted>
-6.3641

> <Gold.Chemscore.Metal.Weighted>
-0.0000

> <Gold.Chemscore.Lipo.Weighted>
-11.9806

> <Gold.Chemscore.Internal_Hbond.Weighted>
0.0000

> <Gold.Chemscore.DEClash.Weighted>
1.0002

> <Gold.Chemscore.DEInternal.Weighted>
0.3979

> <Gold.Chemscore.Rot.Weighted>
3.3159

> <Gold.Chemscore.Internal.Correction.Weighted>
   9.000000E+99

> <Gold.Protein.RotatedTorsions>
[ 6907 6896 6895 6894 ] final  -45.77 input  -60.11 | X-H torsion
[ 7974 7965 7964 7962 ] final   75.63 input  175.53 | X-H torsion
[ 8008 7997 7996 7995 ] final    6.22 input   59.86 | X-H torsion
[ 10167 10162 10161 10158 ] final  -18.67 input  -65.29 | X-H torsion
[ 10718 10713 10712 10709 ] final   70.64 input   66.30 | X-H torsion
[ 10763 10752 10751 10750 ] final  -93.30 input  -60.55 | X-H torsion
[ 11005 11000 10999 10996 ] final  -63.21 input  -57.11 | X-H torsion

> <Gold.Protein.ActiveResidues>
 VAL166  LYS551  ARG553  GLY616  TRP617  ASP618  TYR619  PRO620  LYS621  CYS622 
 ASP623  PHE694  ASN695  SER759  ASP760  ASP761  ALA762  ILE779  LEU786  VAL792 
 PHE793  MET794  SER795  GLU796  ALA797  LYS798  CYS799  TRP800  GLU811  SER814 

> <Gold.Protein.RotatedAtoms>
  150.9183  134.8601  159.7471 H   0  0  0  0  0  0  0  0  0  0  0  0  # atno 6907 bound_to 6896
  152.4980  134.4256  159.9505 H   0  0  0  0  0  0  0  0  0  0  0  0  # atno 6908 bound_to 6896
  151.4292  133.3636  159.2801 H   0  0  0  0  0  0  0  0  0  0  0  0  # atno 6909 bound_to 6896
  145.7132  139.2622  143.1639 H   0  0  0  0  0  0  0  0  0  0  0  0  # atno 7974 bound_to 7965
  154.7382  140.2744  155.6396 H   0  0  0  0  0  0  0  0  0  0  0  0  # atno 8008 bound_to 7997
  156.2867  140.2702  156.2028 H   0  0  0  0  0  0  0  0  0  0  0  0  # atno 8009 bound_to 7997
  155.0292  140.0371  157.2457 H   0  0  0  0  0  0  0  0  0  0  0  0  # atno 8010 bound_to 7997
  140.7261  143.4894  151.0012 H   0  0  0  0  0  0  0  0  0  0  0  0  # atno 10167 bound_to 10162
  157.6410  130.9487  150.0678 H   0  0  0  0  0  0  0  0  0  0  0  0  # atno 10718 bound_to 10713
  154.6945  135.5199  153.8439 H   0  0  0  0  0  0  0  0  0  0  0  0  # atno 10763 bound_to 10752
  153.0657  135.6584  154.0369 H   0  0  0  0  0  0  0  0  0  0  0  0  # atno 10764 bound_to 10752
  154.0238  135.2991  155.3357 H   0  0  0  0  0  0  0  0  0  0  0  0  # atno 10765 bound_to 10752
  141.1385  133.6649  156.5645 H   0  0  0  0  0  0  0  0  0  0  0  0  # atno 11005 bound_to 11000
  146.0693  140.7886  142.9696 LP  0  0  0  0  0  0  0  0  0  0  0  0  # atno 17320 bound_to 7965
  144.6936  140.3318  143.7214 LP  0  0  0  0  0  0  0  0  0  0  0  0  # atno 17321 bound_to 7965
  139.8597  143.7330  152.3174 LP  0  0  0  0  0  0  0  0  0  0  0  0  # atno 17342 bound_to 10162
  139.7541  144.7526  151.0462 LP  0  0  0  0  0  0  0  0  0  0  0  0  # atno 17343 bound_to 10162
  156.1692  130.3646  149.9190 LP  0  0  0  0  0  0  0  0  0  0  0  0  # atno 17370 bound_to 10713
  156.7169  130.8992  151.3614 LP  0  0  0  0  0  0  0  0  0  0  0  0  # atno 17371 bound_to 10713
  140.3962  134.7397  157.4752 LP  0  0  0  0  0  0  0  0  0  0  0  0  # atno 17394 bound_to 11000
  140.0530  134.6104  155.8839 LP  0  0  0  0  0  0  0  0  0  0  0  0  # atno 17395 bound_to 11000

$$$$
