AV-unprocessed.smi:580|AV-procd|sdf|2989|dock4
  -GOLD-   2262023493D 1   1.00000     0.00000
 Structure written by MMmdl.
 36 37  0  0  0  0  0  0  0  0  1 V2000
  150.3291  134.5328  155.5665 C   0  0  0  0  0  0  0  0  0  0  0  0
  151.1970  135.3335  156.4757 C   0  0  0  0  0  0  0  0  0  0  0  0
  151.0402  136.5488  157.0809 C   0  0  0  0  0  0  0  0  0  0  0  0
  152.2511  136.7031  157.8069 C   0  0  0  0  0  0  0  0  0  0  0  0
  152.4886  137.8621  158.5893 N   0  0  0  0  0  0  0  0  0  0  0  0
  151.8646  139.0494  158.5026 C   0  0  0  0  0  0  0  0  0  0  0  0
  150.9667  139.3219  157.7051 O   0  0  0  0  0  0  0  0  0  0  0  0
  152.3487  139.9215  159.3994 N   0  0  0  0  0  0  0  0  0  0  0  0
  151.9021  141.3027  159.5550 C   0  0  2  0  0  0  0  0  0  0  0  0
  151.6838  141.9600  158.1778 C   0  0  0  0  0  0  0  0  0  0  0  0
  151.2831  143.4375  158.3165 C   0  0  0  0  0  0  0  0  0  0  0  0
  152.3147  144.2326  159.1396 C   0  0  1  0  0  0  0  0  0  0  0  0
  151.9034  145.7049  159.2825 C   0  0  0  0  0  0  0  0  0  0  0  0
  152.5286  143.5708  160.5146 C   0  0  0  0  0  0  0  0  0  0  0  0
  152.9360  142.0949  160.3754 C   0  0  0  0  0  0  0  0  0  0  0  0
  153.0734  135.6760  157.6568 N   0  0  0  0  0  0  0  0  0  0  0  0
  152.4023  134.7932  156.8026 O   0  0  0  0  0  0  0  0  0  0  0  0
  149.3172  134.9368  155.5379 H   0  0  0  0  0  0  0  0  0  0  0  0
  150.2693  133.4967  155.9005 H   0  0  0  0  0  0  0  0  0  0  0  0
  150.7252  134.5390  154.5509 H   0  0  0  0  0  0  0  0  0  0  0  0
  150.1940  137.2162  157.0141 H   0  0  0  0  0  0  0  0  0  0  0  0
  153.2157  137.7805  159.2847 H   0  0  0  0  0  0  0  0  0  0  0  0
  153.0861  139.6114  160.0152 H   0  0  0  0  0  0  0  0  0  0  0  0
  150.9581  141.3122  160.1039 H   0  0  0  0  0  0  0  0  0  0  0  0
  152.5964  141.8874  157.5844 H   0  0  0  0  0  0  0  0  0  0  0  0
  150.9123  141.4249  157.6229 H   0  0  0  0  0  0  0  0  0  0  0  0
  151.1764  143.8795  157.3253 H   0  0  0  0  0  0  0  0  0  0  0  0
  150.3027  143.5030  158.7902 H   0  0  0  0  0  0  0  0  0  0  0  0
  153.2644  144.2075  158.6032 H   0  0  0  0  0  0  0  0  0  0  0  0
  150.9544  145.8020  159.8107 H   0  0  0  0  0  0  0  0  0  0  0  0
  151.7908  146.1773  158.3062 H   0  0  0  0  0  0  0  0  0  0  0  0
  152.6531  146.2699  159.8374 H   0  0  0  0  0  0  0  0  0  0  0  0
  153.2952  144.1095  161.0729 H   0  0  0  0  0  0  0  0  0  0  0  0
  151.6131  143.6395  161.1036 H   0  0  0  0  0  0  0  0  0  0  0  0
  153.0466  141.6509  161.3655 H   0  0  0  0  0  0  0  0  0  0  0  0
  153.9153  142.0341  159.8980 H   0  0  0  0  0  0  0  0  0  0  0  0
  1  2  1  0  0  0  0
  1 18  1  0  0  0  0
  1 19  1  0  0  0  0
  1 20  1  0  0  0  0
  2 17  1  0  0  0  0
  2  3  2  0  0  0  0
  3  4  1  0  0  0  0
  3 21  1  0  0  0  0
  4  5  1  0  0  0  0
  4 16  2  0  0  0  0
  5  6  1  0  0  0  0
  5 22  1  0  0  0  0
  6  7  2  0  0  0  0
  6  8  1  0  0  0  0
  8  9  1  0  0  0  0
  8 23  1  0  0  0  0
  9 15  1  0  0  0  0
  9 10  1  0  0  0  0
  9 24  1  0  0  0  0
 10 11  1  0  0  0  0
 10 25  1  0  0  0  0
 10 26  1  0  0  0  0
 11 12  1  0  0  0  0
 11 27  1  0  0  0  0
 11 28  1  0  0  0  0
 12 13  1  0  0  0  0
 12 14  1  0  0  0  0
 12 29  1  0  0  0  0
 13 30  1  0  0  0  0
 13 31  1  0  0  0  0
 13 32  1  0  0  0  0
 14 15  1  0  0  0  0
 14 33  1  0  0  0  0
 14 34  1  0  0  0  0
 15 35  1  0  0  0  0
 15 36  1  0  0  0  0
 16 17  1  0  0  0  0
M  END
> <s_m_source_file>
AV-unprocessed.smi

> <i_m_source_file_index>
580

> <i_lp_mmshare_version>
43012

> <i_f3d_flags>
0

> <s_epik_input>
W0NIM11jMVtjSF1jKG5vMSlbTkhdQyg9TylbTkhdW0NAQEhdMltDSDJdW0NIMl1bQ0BASF0oW0NIM10pW0NIMl1bQ0gyXTI=

> <s_epik_cmdline>
J2VwaWtfcHl0aG9uJywgJy1waCcsICc3LjAnLCAnLXRuJywgJzgnLCAnLW1hJywgJzIwMCcsICctbWV0YWxfYmluZGluZycsICctaW1hZScsICc8aW5maWxlLm1hZT4nLCAnLW9tYWUnLCAnPG91dGZpbGUubWFlPic=

> <r_lp_tautomer_probability>
1

> <r_epik_Ionization_Penalty>
2.357e-05

> <r_epik_Ionization_Penalty_Charging>
0

> <r_epik_Ionization_Penalty_Neutral>
2.357e-05

> <r_epik_State_Penalty>
-0

> <r_epik_Charging_Adjusted_Penalty>
0

> <i_epik_Tot_Q>
0

> <i_epik_Tot_abs_Q>
0

> <r_epik_Metal_State_Penalty>
-0

> <b_epik_Metal_Only>
0

> <s_lp_Force_Field>
OPLS_2005

> <r_lp_Energy>
6.68451

> <b_lp_Chiralities_Consistent>
1

> <s_lp_Variant>
AV-unprocessed.smi:580-1

> <Gold.Version>
5.8.1

> <Gold.Id.Protein>
6NUR|6NUR_protein|mol2

> <Gold.PLP.Fitness>
31.7026

> <Gold.PLP.PLP>
-30.4417

> <Gold.PLP.part.hbond>
-1.8610

> <Gold.PLP.part.metal>
0.0000

> <Gold.PLP.part.buried>
-2.4685

> <Gold.PLP.part.nonpolar>
-26.1839

> <Gold.PLP.part.repulsive>
0.2255

> <Gold.PLP.ligand.clash>
0.0000

> <Gold.PLP.ligand.torsion>
0.3084

> <Gold.PLP.Chemscore.Hbond>
0.6250

> <Gold.PLP.Chemscore.CHOScore>
0.0000

> <Gold.PLP.Chemscore.Metal>
0.0000

> <Gold.Chemscore.Hbonds>
donor molecule, donor type, donor heavy atom, donor atom, acceptor molecule, acceptor atom, score
      P1  H 10752 10764       L1    17  0.59

> <Gold.PLP.Chemscore.Internal.Correction>
0.0029

> <Gold.Rescore>
     Score         DG    S(hbond)    S(metal)    S(lipo)     H(rot)  DE(clash)    DE(int)     intcor
     10.43     -13.54       0.00        0.00      90.69       1.00       0.07       3.04       ----

> <Gold.Chemscore.Fitness>
10.4305

> <Gold.Chemscore.DG>
-13.5388

> <Gold.Chemscore.ZeroCoef>
-5.4800

> <Gold.Chemscore.Hbond>
0.0024

> <Gold.Chemscore.Metal>
0.0000

> <Gold.Chemscore.Lipo>
90.6917

> <Gold.Chemscore.Internal_Hbond>
0.0000

> <Gold.Chemscore.DEClash>
0.0689

> <Gold.Chemscore.DEInternal>
3.0395

> <Gold.Chemscore.Rot>
1.0000

> <Gold.Chemscore.Internal.Correction>
   9.000000E+99

> <Gold.Chemscore.Hbonds>
donor molecule, donor type, donor heavy atom, donor atom, acceptor molecule, acceptor atom, score
      P1  H 10752 10764       L1    17  0.01

> <Gold.Chemscore.Hbond.Weighted>
-0.0079

> <Gold.Chemscore.Metal.Weighted>
-0.0000

> <Gold.Chemscore.Lipo.Weighted>
-10.6109

> <Gold.Chemscore.Internal_Hbond.Weighted>
0.0000

> <Gold.Chemscore.DEClash.Weighted>
0.0689

> <Gold.Chemscore.DEInternal.Weighted>
3.0395

> <Gold.Chemscore.Rot.Weighted>
2.5600

> <Gold.Chemscore.Internal.Correction.Weighted>
   9.000000E+99

> <Gold.Protein.RotatedTorsions>
[ 6907 6896 6895 6894 ] final  -17.91 input  -60.11 | X-H torsion
[ 7974 7965 7964 7962 ] final -162.26 input  175.53 | X-H torsion
[ 8008 7997 7996 7995 ] final  176.24 input   59.86 | X-H torsion
[ 10167 10162 10161 10158 ] final   19.06 input  -65.29 | X-H torsion
[ 10718 10713 10712 10709 ] final -149.70 input   66.30 | X-H torsion
[ 10763 10752 10751 10750 ] final  -12.70 input  -60.55 | X-H torsion
[ 11005 11000 10999 10996 ] final   75.53 input  -57.11 | X-H torsion

> <Gold.Protein.ActiveResidues>
 VAL166  LYS551  ARG553  GLY616  TRP617  ASP618  TYR619  PRO620  LYS621  CYS622 
 ASP623  PHE694  ASN695  SER759  ASP760  ASP761  ALA762  ILE779  LEU786  VAL792 
 PHE793  MET794  SER795  GLU796  ALA797  LYS798  CYS799  TRP800  GLU811  SER814 

> <Gold.Protein.RotatedAtoms>
  151.2862  135.0728  159.9187 H   0  0  0  0  0  0  0  0  0  0  0  0  # atno 6907 bound_to 6896
  152.5325  133.9979  159.7891 H   0  0  0  0  0  0  0  0  0  0  0  0  # atno 6908 bound_to 6896
  151.0242  133.5798  159.2698 H   0  0  0  0  0  0  0  0  0  0  0  0  # atno 6909 bound_to 6896
  144.7363  140.3278  143.6159 H   0  0  0  0  0  0  0  0  0  0  0  0  # atno 7974 bound_to 7965
  156.0785  140.1388  156.9741 H   0  0  0  0  0  0  0  0  0  0  0  0  # atno 8008 bound_to 7997
  154.4572  140.0957  156.6840 H   0  0  0  0  0  0  0  0  0  0  0  0  # atno 8009 bound_to 7997
  155.5113  140.3454  155.4391 H   0  0  0  0  0  0  0  0  0  0  0  0  # atno 8010 bound_to 7997
  140.5607  143.9342  150.6640 H   0  0  0  0  0  0  0  0  0  0  0  0  # atno 10167 bound_to 10162
  156.4365  130.8101  151.2330 H   0  0  0  0  0  0  0  0  0  0  0  0  # atno 10718 bound_to 10713
  153.5024  135.7017  153.5825 H   0  0  0  0  0  0  0  0  0  0  0  0  # atno 10763 bound_to 10752
  153.3951  135.3886  155.1949 H   0  0  0  0  0  0  0  0  0  0  0  0  # atno 10764 bound_to 10752
  154.8709  135.3867  154.4495 H   0  0  0  0  0  0  0  0  0  0  0  0  # atno 10765 bound_to 10752
  139.9340  134.7525  156.1282 H   0  0  0  0  0  0  0  0  0  0  0  0  # atno 11005 bound_to 11000
  145.7502  139.1791  143.2325 LP  0  0  0  0  0  0  0  0  0  0  0  0  # atno 17320 bound_to 7965
  146.1066  140.7479  142.9523 LP  0  0  0  0  0  0  0  0  0  0  0  0  # atno 17321 bound_to 7965
  140.2792  143.3401  152.1166 LP  0  0  0  0  0  0  0  0  0  0  0  0  # atno 17342 bound_to 10162
  139.5069  144.6821  151.5980 LP  0  0  0  0  0  0  0  0  0  0  0  0  # atno 17343 bound_to 10162
  157.7507  131.0182  150.3615 LP  0  0  0  0  0  0  0  0  0  0  0  0  # atno 17370 bound_to 10713
  156.3963  130.3907  149.6992 LP  0  0  0  0  0  0  0  0  0  0  0  0  # atno 17371 bound_to 10713
  141.0944  133.6701  156.2611 LP  0  0  0  0  0  0  0  0  0  0  0  0  # atno 17394 bound_to 11000
  140.6126  134.5443  157.5536 LP  0  0  0  0  0  0  0  0  0  0  0  0  # atno 17395 bound_to 11000

$$$$
