AV-unprocessed.smi:1758|AV-procd|sdf|7084|dock1
  -GOLD-   22720 8303D 1   1.00000     0.00000
 Structure written by MMmdl.
 44 46  0  0  0  0  0  0  0  0  2 V2000
  145.6041  142.7235  154.6498 C   0  0  0  0  0  0  0  0  0  0  0  0
  147.0310  142.5711  154.1099 C   0  0  0  0  0  0  0  0  0  0  0  0
  147.4068  141.1780  153.9701 N   0  0  0  0  0  0  0  0  0  0  0  0
  146.7779  140.1940  153.2335 C   0  0  0  0  0  0  0  0  0  0  0  0
  147.5176  139.0611  153.4241 C   0  0  0  0  0  0  0  0  0  0  0  0
  147.3231  137.7604  152.8955 N   0  0  0  0  0  0  0  0  0  0  0  0
  146.1552  137.1279  152.6985 C   0  0  0  0  0  0  0  0  0  0  0  0
  145.0455  137.5877  152.9677 O   0  0  0  0  0  0  0  0  0  0  0  0
  146.3442  135.9096  152.1727 N   0  0  0  0  0  0  0  0  0  0  0  0
  145.2832  134.9580  151.8568 C   0  0  1  0  0  0  0  0  0  0  0  0
  144.5793  135.2649  150.5232 C   0  0  0  0  0  0  0  0  0  0  0  0
  144.2869  133.8901  149.8895 C   0  0  0  0  0  0  0  0  0  0  0  0
  144.7342  132.8966  150.8845 N   0  3  1  0  0  0  0  0  0  0  0  0
  145.1022  131.5558  150.3797 C   0  0  0  0  0  0  0  0  0  0  0  0
  145.4576  130.6438  151.5711 C   0  0  0  0  0  0  0  0  0  0  0  0
  146.5321  131.2789  152.4772 C   0  0  0  0  0  0  0  0  0  0  0  0
  146.1349  132.7082  152.8945 C   0  0  0  0  0  0  0  0  0  0  0  0
  145.8191  133.5407  151.6403 C   0  0  2  0  0  0  0  0  0  0  0  0
  148.5799  139.4326  154.2885 C   0  0  0  0  0  0  0  0  0  0  0  0
  148.5053  140.7136  154.6156 N   0  0  0  0  0  0  0  0  0  0  0  0
  145.3391  143.7756  154.7524 H   0  0  0  0  0  0  0  0  0  0  0  0
  145.5028  142.2570  155.6300 H   0  0  0  0  0  0  0  0  0  0  0  0
  144.8766  142.2617  153.9816 H   0  0  0  0  0  0  0  0  0  0  0  0
  147.1252  143.0592  153.1391 H   0  0  0  0  0  0  0  0  0  0  0  0
  147.7401  143.0587  154.7795 H   0  0  0  0  0  0  0  0  0  0  0  0
  145.8870  140.3913  152.6556 H   0  0  0  0  0  0  0  0  0  0  0  0
  148.1627  137.2608  152.6408 H   0  0  0  0  0  0  0  0  0  0  0  0
  147.2919  135.6175  151.9833 H   0  0  0  0  0  0  0  0  0  0  0  0
  144.5287  134.9457  152.6466 H   0  0  0  0  0  0  0  0  0  0  0  0
  143.6674  135.8414  150.6838 H   0  0  0  0  0  0  0  0  0  0  0  0
  145.2205  135.8466  149.8590 H   0  0  0  0  0  0  0  0  0  0  0  0
  143.2301  133.7544  149.6581 H   0  0  0  0  0  0  0  0  0  0  0  0
  144.8539  133.7774  148.9643 H   0  0  0  0  0  0  0  0  0  0  0  0
  144.2682  131.1341  149.8175 H   0  0  0  0  0  0  0  0  0  0  0  0
  145.9471  131.6355  149.6938 H   0  0  0  0  0  0  0  0  0  0  0  0
  144.5592  130.4539  152.1601 H   0  0  0  0  0  0  0  0  0  0  0  0
  145.7990  129.6731  151.2101 H   0  0  0  0  0  0  0  0  0  0  0  0
  146.6932  130.6604  153.3605 H   0  0  0  0  0  0  0  0  0  0  0  0
  147.4832  131.3091  151.9438 H   0  0  0  0  0  0  0  0  0  0  0  0
  145.2669  132.6766  153.5544 H   0  0  0  0  0  0  0  0  0  0  0  0
  146.9449  133.1664  153.4624 H   0  0  0  0  0  0  0  0  0  0  0  0
  146.7056  133.5877  151.0034 H   0  0  0  0  0  0  0  0  0  0  0  0
  149.3853  138.8297  154.6812 H   0  0  0  0  0  0  0  0  0  0  0  0
  143.9690  132.7750  151.5326 H   0  0  0  0  0  0  0  0  0  0  0  0
  1  2  1  0  0  0  0
  1 21  1  0  0  0  0
  1 22  1  0  0  0  0
  1 23  1  0  0  0  0
  2  3  1  0  0  0  0
  2 24  1  0  0  0  0
  2 25  1  0  0  0  0
  3 20  1  0  0  0  0
  3  4  1  0  0  0  0
  4  5  2  0  0  0  0
  4 26  1  0  0  0  0
  5  6  1  0  0  0  0
  5 19  1  0  0  0  0
  6  7  1  0  0  0  0
  6 27  1  0  0  0  0
  7  8  2  0  0  0  0
  7  9  1  0  0  0  0
  9 10  1  0  0  0  0
  9 28  1  0  0  0  0
 10 18  1  0  0  0  0
 10 11  1  0  0  0  0
 10 29  1  0  0  0  0
 11 12  1  0  0  0  0
 11 30  1  0  0  0  0
 11 31  1  0  0  0  0
 12 13  1  0  0  0  0
 12 32  1  0  0  0  0
 12 33  1  0  0  0  0
 13 18  1  0  0  0  0
 13 14  1  0  0  0  0
 13 44  1  0  0  0  0
 14 15  1  0  0  0  0
 14 34  1  0  0  0  0
 14 35  1  0  0  0  0
 15 16  1  0  0  0  0
 15 36  1  0  0  0  0
 15 37  1  0  0  0  0
 16 17  1  0  0  0  0
 16 38  1  0  0  0  0
 16 39  1  0  0  0  0
 17 18  1  0  0  0  0
 17 40  1  0  0  0  0
 17 41  1  0  0  0  0
 18 42  1  0  0  0  0
 19 20  2  0  0  0  0
 19 43  1  0  0  0  0
M  CHG  1  13   1
M  END
> <s_m_source_file>
AV-unprocessed.smi

> <i_m_source_file_index>
1758

> <i_lp_mmshare_version>
43012

> <i_f3d_flags>
0

> <s_epik_input>
W0NIM11bQ0gyXW4xW2NIXWMoW2NIXW4xKVtOSF1DKD1PKVtOSF1bQ0BIXShbQ0gyXVtDSDJdMilbQ0BASF0oTjIzKVtDSDJdW0NIMl1bQ0gyXVtDSDJdMw==

> <s_epik_cmdline>
J2VwaWtfcHl0aG9uJywgJy1waCcsICc3LjAnLCAnLXRuJywgJzgnLCAnLW1hJywgJzIwMCcsICctbWV0YWxfYmluZGluZycsICctaW1hZScsICc8aW5maWxlLm1hZT4nLCAnLW9tYWUnLCAnPG91dGZpbGUubWFlPic=

> <r_lp_tautomer_probability>
1

> <r_epik_Ionization_Penalty>
0.00111541

> <r_epik_Ionization_Penalty_Charging>
0.000974069

> <r_epik_Ionization_Penalty_Neutral>
0.000141346

> <r_epik_State_Penalty>
0.000633842

> <r_epik_Charging_Adjusted_Penalty>
0.00160791

> <i_epik_Tot_Q>
1

> <i_epik_Tot_abs_Q>
1

> <r_epik_Metal_State_Penalty>
-0

> <b_epik_Metal_Only>
0

> <s_lp_Force_Field>
OPLS_2005

> <r_lp_Energy>
38.7451

> <b_lp_Chiralities_Consistent>
1

> <s_lp_Variant>
AV-unprocessed.smi:1758-6

> <Gold.Version>
5.8.1

> <Gold.Id.Protein>
6NUR|6NUR_protein|mol2

> <Gold.PLP.Fitness>
41.3510

> <Gold.PLP.PLP>
-33.8363

> <Gold.PLP.part.hbond>
-1.7938

> <Gold.PLP.part.metal>
0.0000

> <Gold.PLP.part.buried>
-2.7906

> <Gold.PLP.part.nonpolar>
-29.9936

> <Gold.PLP.part.repulsive>
0.4620

> <Gold.PLP.ligand.clash>
0.0000

> <Gold.PLP.ligand.torsion>
0.5307

> <Gold.PLP.Chemscore.Hbond>
1.8553

> <Gold.PLP.Chemscore.CHOScore>
1.0000

> <Gold.PLP.Chemscore.Metal>
0.0000

> <Gold.Chemscore.Hbonds>
donor molecule, donor type, donor heavy atom, donor atom, acceptor molecule, acceptor atom, score
      L1  H     6    27       P1  7948  0.94
      L1  H     9    28       P1  7948  0.86
      L1  C     4    26       P1 10175  1.00

> <Gold.PLP.Chemscore.Internal.Correction>
0.0105

> <Gold.Rescore>
     Score         DG    S(hbond)    S(metal)    S(lipo)     H(rot)  DE(clash)    DE(int)     intcor
     17.63     -18.86       1.86        0.00      87.17       1.19       0.66       0.57       ----

> <Gold.Chemscore.Fitness>
17.6287

> <Gold.Chemscore.DG>
-18.8574

> <Gold.Chemscore.ZeroCoef>
-5.4800

> <Gold.Chemscore.Hbond>
1.8627

> <Gold.Chemscore.Metal>
0.0000

> <Gold.Chemscore.Lipo>
87.1656

> <Gold.Chemscore.Internal_Hbond>
0.0000

> <Gold.Chemscore.DEClash>
0.6559

> <Gold.Chemscore.DEInternal>
0.5728

> <Gold.Chemscore.Rot>
1.1884

> <Gold.Chemscore.Internal.Correction>
   9.000000E+99

> <Gold.Chemscore.Hbonds>
donor molecule, donor type, donor heavy atom, donor atom, acceptor molecule, acceptor atom, score
      L1  H     6    27       P1  7948  0.88
      L1  H     9    28       P1  7948  0.87

> <Gold.Chemscore.Hbond.Weighted>
-6.2214

> <Gold.Chemscore.Metal.Weighted>
-0.0000

> <Gold.Chemscore.Lipo.Weighted>
-10.1984

> <Gold.Chemscore.Internal_Hbond.Weighted>
0.0000

> <Gold.Chemscore.DEClash.Weighted>
0.6559

> <Gold.Chemscore.DEInternal.Weighted>
0.5728

> <Gold.Chemscore.Rot.Weighted>
3.0423

> <Gold.Chemscore.Internal.Correction.Weighted>
   9.000000E+99

> <Gold.Protein.RotatedTorsions>
[ 6907 6896 6895 6894 ] final -119.24 input  -60.11 | X-H torsion
[ 7974 7965 7964 7962 ] final  -46.78 input  175.53 | X-H torsion
[ 8008 7997 7996 7995 ] final   85.71 input   59.86 | X-H torsion
[ 10167 10162 10161 10158 ] final   86.34 input  -65.29 | X-H torsion
[ 10718 10713 10712 10709 ] final  163.40 input   66.30 | X-H torsion
[ 10763 10752 10751 10750 ] final   39.56 input  -60.55 | X-H torsion
[ 11005 11000 10999 10996 ] final   92.83 input  -57.11 | X-H torsion

> <Gold.Protein.ActiveResidues>
 VAL166  LYS551  ARG553  GLY616  TRP617  ASP618  TYR619  PRO620  LYS621  CYS622 
 ASP623  PHE694  ASN695  SER759  ASP760  ASP761  ALA762  ILE779  LEU786  VAL792 
 PHE793  MET794  SER795  GLU796  ALA797  LYS798  CYS799  TRP800  GLU811  SER814 

> <Gold.Protein.RotatedAtoms>
  150.8288  133.8126  159.3107 H   0  0  0  0  0  0  0  0  0  0  0  0  # atno 6907 bound_to 6896
  151.5862  135.1054  160.0038 H   0  0  0  0  0  0  0  0  0  0  0  0  # atno 6908 bound_to 6896
  152.4370  133.7337  159.6658 H   0  0  0  0  0  0  0  0  0  0  0  0  # atno 6909 bound_to 6896
  145.9684  140.7408  142.9422 H   0  0  0  0  0  0  0  0  0  0  0  0  # atno 7974 bound_to 7965
  155.9535  140.3399  155.6428 H   0  0  0  0  0  0  0  0  0  0  0  0  # atno 8008 bound_to 7997
  155.6889  140.0746  157.2474 H   0  0  0  0  0  0  0  0  0  0  0  0  # atno 8009 bound_to 7997
  154.4127  140.1661  156.2052 H   0  0  0  0  0  0  0  0  0  0  0  0  # atno 8010 bound_to 7997
  139.8885  144.6399  150.8764 H   0  0  0  0  0  0  0  0  0  0  0  0  # atno 10167 bound_to 10162
  157.1090  131.0463  151.2465 H   0  0  0  0  0  0  0  0  0  0  0  0  # atno 10718 bound_to 10713
  152.9963  135.6217  154.2485 H   0  0  0  0  0  0  0  0  0  0  0  0  # atno 10763 bound_to 10752
  154.2224  135.2795  155.2921 H   0  0  0  0  0  0  0  0  0  0  0  0  # atno 10764 bound_to 10752
  154.5518  135.5731  153.6987 H   0  0  0  0  0  0  0  0  0  0  0  0  # atno 10765 bound_to 10752
  139.8818  134.8755  156.3629 H   0  0  0  0  0  0  0  0  0  0  0  0  # atno 11005 bound_to 11000
  144.6831  140.2708  143.7306 LP  0  0  0  0  0  0  0  0  0  0  0  0  # atno 17320 bound_to 7965
  145.7941  139.1938  143.2086 LP  0  0  0  0  0  0  0  0  0  0  0  0  # atno 17321 bound_to 7965
  140.7731  143.3529  151.1979 LP  0  0  0  0  0  0  0  0  0  0  0  0  # atno 17342 bound_to 10162
  139.7131  143.9344  152.2955 LP  0  0  0  0  0  0  0  0  0  0  0  0  # atno 17343 bound_to 10162
  157.4575  130.7634  149.7206 LP  0  0  0  0  0  0  0  0  0  0  0  0  # atno 17370 bound_to 10713
  155.9855  130.3982  150.3259 LP  0  0  0  0  0  0  0  0  0  0  0  0  # atno 17371 bound_to 10713
  140.9517  133.7447  156.0280 LP  0  0  0  0  0  0  0  0  0  0  0  0  # atno 17394 bound_to 11000
  140.8098  134.3413  157.5415 LP  0  0  0  0  0  0  0  0  0  0  0  0  # atno 17395 bound_to 11000

$$$$
