AV-unprocessed.smi:510|AV-procd|sdf|2762|dock5
  -GOLD-   2262023223D 1   1.00000     0.00000
 Structure written by MMmdl.
 30 31  0  0  0  0  0  0  0  0  1 V2000
  152.1969  145.3000  159.0768 C   0  0  0  0  0  0  0  0  0  0  0  0
  151.0632  144.5118  158.7630 O   0  0  0  0  0  0  0  0  0  0  0  0
  151.3064  143.6054  157.6995 C   0  0  0  0  0  0  0  0  0  0  0  0
  150.3813  142.3864  157.8261 C   0  0  0  0  0  0  0  0  0  0  0  0
  150.6264  141.3998  156.7789 N   0  0  0  0  0  0  0  0  0  0  0  0
  150.1518  141.4074  155.5085 C   0  0  0  0  0  0  0  0  0  0  0  0
  149.3324  142.4352  155.0650 N   0  0  0  0  0  0  0  0  0  0  0  0
  150.5296  140.3725  154.7553 N   0  0  0  0  0  0  0  0  0  0  0  0
  151.3151  139.6340  155.6300 C   0  0  0  0  0  0  0  0  0  0  0  0
  151.3856  140.2314  156.8471 C   0  0  0  0  0  0  0  0  0  0  0  0
  152.1470  139.6573  157.9634 C   0  0  0  0  0  0  0  0  0  0  0  0
  152.2199  140.1771  159.0745 O   0  0  0  0  0  0  0  0  0  0  0  0
  152.7614  138.4928  157.6419 N   0  0  0  0  0  0  0  0  0  0  0  0
  152.7340  137.8403  156.4392 C   0  0  0  0  0  0  0  0  0  0  0  0
  153.3507  136.7838  156.3058 O   0  0  0  0  0  0  0  0  0  0  0  0
  152.0060  138.4079  155.4226 N   0  0  0  0  0  0  0  0  0  0  0  0
  151.9069  137.7877  154.0998 C   0  0  0  0  0  0  0  0  0  0  0  0
  153.3007  138.0554  158.3747 H   0  0  0  0  0  0  0  0  0  0  0  0
  151.9561  145.9778  159.8957 H   0  0  0  0  0  0  0  0  0  0  0  0
  152.5075  145.9018  158.2218 H   0  0  0  0  0  0  0  0  0  0  0  0
  153.0354  144.6771  159.3907 H   0  0  0  0  0  0  0  0  0  0  0  0
  151.1366  144.1023  156.7430 H   0  0  0  0  0  0  0  0  0  0  0  0
  152.3475  143.2802  157.7167 H   0  0  0  0  0  0  0  0  0  0  0  0
  150.5197  141.9139  158.7987 H   0  0  0  0  0  0  0  0  0  0  0  0
  149.3373  142.6944  157.7984 H   0  0  0  0  0  0  0  0  0  0  0  0
  149.0711  143.1978  155.6734 H   0  0  0  0  0  0  0  0  0  0  0  0
  148.9693  142.4539  154.1232 H   0  0  0  0  0  0  0  0  0  0  0  0
  152.4631  136.8549  154.0031 H   0  0  0  0  0  0  0  0  0  0  0  0
  152.2832  138.4721  153.3388 H   0  0  0  0  0  0  0  0  0  0  0  0
  150.8637  137.5703  153.8683 H   0  0  0  0  0  0  0  0  0  0  0  0
  1  2  1  0  0  0  0
  1 19  1  0  0  0  0
  1 20  1  0  0  0  0
  1 21  1  0  0  0  0
  2  3  1  0  0  0  0
  3  4  1  0  0  0  0
  3 22  1  0  0  0  0
  3 23  1  0  0  0  0
  4  5  1  0  0  0  0
  4 24  1  0  0  0  0
  4 25  1  0  0  0  0
  5 10  1  0  0  0  0
  5  6  1  0  0  0  0
  6  7  1  0  0  0  0
  6  8  2  0  0  0  0
  7 26  1  0  0  0  0
  7 27  1  0  0  0  0
  8  9  1  0  0  0  0
  9 16  1  0  0  0  0
  9 10  2  0  0  0  0
 10 11  1  0  0  0  0
 11 12  2  0  0  0  0
 11 13  1  0  0  0  0
 13 18  1  0  0  0  0
 13 14  1  0  0  0  0
 14 15  2  0  0  0  0
 14 16  1  0  0  0  0
 16 17  1  0  0  0  0
 17 28  1  0  0  0  0
 17 29  1  0  0  0  0
 17 30  1  0  0  0  0
M  END
> <s_m_source_file>
AV-unprocessed.smi

> <i_m_source_file_index>
510

> <i_lp_mmshare_version>
43012

> <i_f3d_flags>
0

> <s_epik_input>
W0NIM11PW0NIMl1bQ0gyXW4oYyhuMSlbTkgyXSljKGMxMiljKD1PKVtuSF1jKD1PKW4yW0NIM10=

> <s_epik_cmdline>
J2VwaWtfcHl0aG9uJywgJy1waCcsICc3LjAnLCAnLXRuJywgJzgnLCAnLW1hJywgJzIwMCcsICctbWV0YWxfYmluZGluZycsICctaW1hZScsICc8aW5maWxlLm1hZT4nLCAnLW9tYWUnLCAnPG91dGZpbGUubWFlPic=

> <r_lp_tautomer_probability>
1

> <r_epik_Ionization_Penalty>
0.000102378

> <r_epik_Ionization_Penalty_Charging>
3.81714e-05

> <r_epik_Ionization_Penalty_Neutral>
6.42066e-05

> <r_epik_State_Penalty>
-0

> <r_epik_Charging_Adjusted_Penalty>
3.81714e-05

> <i_epik_Tot_Q>
0

> <i_epik_Tot_abs_Q>
0

> <r_epik_Metal_State_Penalty>
0.0348186

> <b_epik_Metal_Only>
0

> <s_lp_Force_Field>
OPLS_2005

> <r_lp_Energy>
22.8727

> <b_lp_Chiralities_Consistent>
1

> <s_lp_Variant>
AV-unprocessed.smi:510-1

> <Gold.Version>
5.8.1

> <Gold.Id.Protein>
6NUR|6NUR_protein|mol2

> <Gold.PLP.Fitness>
37.5636

> <Gold.PLP.PLP>
-30.7896

> <Gold.PLP.part.hbond>
-2.5468

> <Gold.PLP.part.metal>
0.0000

> <Gold.PLP.part.buried>
-4.9821

> <Gold.PLP.part.nonpolar>
-24.2525

> <Gold.PLP.part.repulsive>
0.5386

> <Gold.PLP.ligand.clash>
0.0000

> <Gold.PLP.ligand.torsion>
0.4655

> <Gold.PLP.Chemscore.Hbond>
2.5680

> <Gold.PLP.Chemscore.CHOScore>
0.0000

> <Gold.PLP.Chemscore.Metal>
0.0000

> <Gold.Chemscore.Hbonds>
donor molecule, donor type, donor heavy atom, donor atom, acceptor molecule, acceptor atom, score
      L1  H     7    26       P1  8028  0.82
      P1  H  7989  7998       L1     8  1.00
      P1  H 10752 10765       L1    15  0.75

> <Gold.PLP.Chemscore.Internal.Correction>
0.0010

> <Gold.Rescore>
     Score         DG    S(hbond)    S(metal)    S(lipo)     H(rot)  DE(clash)    DE(int)     intcor
     13.23     -13.69       2.22        0.00      45.73       1.78       0.01       0.45       ----

> <Gold.Chemscore.Fitness>
13.2308

> <Gold.Chemscore.DG>
-13.6944

> <Gold.Chemscore.ZeroCoef>
-5.4800

> <Gold.Chemscore.Hbond>
2.2241

> <Gold.Chemscore.Metal>
0.0000

> <Gold.Chemscore.Lipo>
45.7293

> <Gold.Chemscore.Internal_Hbond>
0.0000

> <Gold.Chemscore.DEClash>
0.0149

> <Gold.Chemscore.DEInternal>
0.4487

> <Gold.Chemscore.Rot>
1.7830

> <Gold.Chemscore.Internal.Correction>
   9.000000E+99

> <Gold.Chemscore.Hbonds>
donor molecule, donor type, donor heavy atom, donor atom, acceptor molecule, acceptor atom, score
      L1  H     7    26       P1  8028  0.74
      P1  H  7989  7998       L1     8  0.38
      P1  H 10752 10765       L1    15  0.74

> <Gold.Chemscore.Hbond.Weighted>
-7.4286

> <Gold.Chemscore.Metal.Weighted>
-0.0000

> <Gold.Chemscore.Lipo.Weighted>
-5.3503

> <Gold.Chemscore.Internal_Hbond.Weighted>
0.0000

> <Gold.Chemscore.DEClash.Weighted>
0.0149

> <Gold.Chemscore.DEInternal.Weighted>
0.4487

> <Gold.Chemscore.Rot.Weighted>
4.5646

> <Gold.Chemscore.Internal.Correction.Weighted>
   9.000000E+99

> <Gold.Protein.RotatedTorsions>
[ 6907 6896 6895 6894 ] final -113.07 input  -60.11 | X-H torsion
[ 7974 7965 7964 7962 ] final -138.72 input  175.53 | X-H torsion
[ 8008 7997 7996 7995 ] final  -58.72 input   59.86 | X-H torsion
[ 10167 10162 10161 10158 ] final   97.90 input  -65.29 | X-H torsion
[ 10718 10713 10712 10709 ] final  -13.03 input   66.30 | X-H torsion
[ 10763 10752 10751 10750 ] final -124.25 input  -60.55 | X-H torsion
[ 11005 11000 10999 10996 ] final -160.12 input  -57.11 | X-H torsion

> <Gold.Protein.ActiveResidues>
 VAL166  LYS551  ARG553  GLY616  TRP617  ASP618  TYR619  PRO620  LYS621  CYS622 
 ASP623  PHE694  ASN695  SER759  ASP760  ASP761  ALA762  ILE779  LEU786  VAL792 
 PHE793  MET794  SER795  GLU796  ALA797  LYS798  CYS799  TRP800  GLU811  SER814 

> <Gold.Protein.RotatedAtoms>
  150.7803  133.8998  159.3337 H   0  0  0  0  0  0  0  0  0  0  0  0  # atno 6907 bound_to 6896
  151.6863  135.0952  160.0235 H   0  0  0  0  0  0  0  0  0  0  0  0  # atno 6908 bound_to 6896
  152.3852  133.6562  159.6228 H   0  0  0  0  0  0  0  0  0  0  0  0  # atno 6909 bound_to 6896
  144.8735  140.6402  143.5251 H   0  0  0  0  0  0  0  0  0  0  0  0  # atno 7974 bound_to 7965
  154.4321  140.1077  156.6002 H   0  0  0  0  0  0  0  0  0  0  0  0  # atno 8008 bound_to 7997
  155.5919  140.3492  155.4550 H   0  0  0  0  0  0  0  0  0  0  0  0  # atno 8009 bound_to 7997
  156.0240  140.1246  157.0317 H   0  0  0  0  0  0  0  0  0  0  0  0  # atno 8010 bound_to 7997
  139.7758  144.6906  151.0091 H   0  0  0  0  0  0  0  0  0  0  0  0  # atno 10167 bound_to 10162
  156.6361  130.4915  149.6111 H   0  0  0  0  0  0  0  0  0  0  0  0  # atno 10718 bound_to 10713
  154.8720  135.4070  154.3076 H   0  0  0  0  0  0  0  0  0  0  0  0  # atno 10763 bound_to 10752
  153.3925  135.7015  153.6490 H   0  0  0  0  0  0  0  0  0  0  0  0  # atno 10764 bound_to 10752
  153.5267  135.3676  155.2628 H   0  0  0  0  0  0  0  0  0  0  0  0  # atno 10765 bound_to 10752
  140.6350  134.4611  157.5231 H   0  0  0  0  0  0  0  0  0  0  0  0  # atno 11005 bound_to 11000
  145.4086  139.1584  143.4138 LP  0  0  0  0  0  0  0  0  0  0  0  0  # atno 17320 bound_to 7965
  146.2947  140.4188  142.8726 LP  0  0  0  0  0  0  0  0  0  0  0  0  # atno 17321 bound_to 7965
  140.7816  143.4537  151.0376 LP  0  0  0  0  0  0  0  0  0  0  0  0  # atno 17342 bound_to 10162
  139.8220  143.7808  152.3177 LP  0  0  0  0  0  0  0  0  0  0  0  0  # atno 17343 bound_to 10162
  156.2196  130.6729  151.1354 LP  0  0  0  0  0  0  0  0  0  0  0  0  # atno 17370 bound_to 10713
  157.7185  131.0695  150.6231 LP  0  0  0  0  0  0  0  0  0  0  0  0  # atno 17371 bound_to 10713
  139.9101  134.8362  156.1558 LP  0  0  0  0  0  0  0  0  0  0  0  0  # atno 17394 bound_to 11000
  141.0648  133.6824  156.2023 LP  0  0  0  0  0  0  0  0  0  0  0  0  # atno 17395 bound_to 11000

$$$$
