AV-unprocessed.smi:1417|AV-procd|sdf|5770|dock7
  -GOLD-   22720 5413D 1   1.00000     0.00000
 Structure written by MMmdl.
 39 40  0  0  0  0  0  0  0  0  3 V2000
  148.8805  140.8840  154.6301 C   0  0  0  0  0  0  0  0  0  0  0  0
  149.7967  139.7096  154.5749 C   0  0  0  0  0  0  0  0  0  0  0  0
  149.5814  138.3722  154.3993 C   0  0  0  0  0  0  0  0  0  0  0  0
  150.8907  137.8219  154.4586 C   0  0  0  0  0  0  0  0  0  0  0  0
  151.2079  136.5247  154.3262 N   0  5  0  0  0  0  0  0  0  0  0  0
  150.5439  135.5857  155.0380 C   0  0  0  0  0  0  0  0  0  0  0  0
  150.7914  135.2292  156.1922 O   0  0  0  0  0  0  0  0  0  0  0  0
  149.5305  135.0218  154.3656 N   0  0  0  0  0  0  0  0  0  0  0  0
  148.6375  133.9753  154.8616 C   0  0  2  0  0  0  0  0  0  0  0  0
  148.6973  132.7108  153.9818 C   0  0  0  0  0  0  0  0  0  0  0  0
  148.0667  132.9451  152.5979 C   0  0  0  0  0  0  0  0  0  0  0  0
  146.6661  133.4293  152.7242 N   0  3  2  0  0  0  0  0  0  0  0  0
  145.9662  133.5367  151.4181 C   0  0  0  0  0  0  0  0  0  0  0  0
  145.4010  132.1987  150.9295 C   0  0  0  0  0  0  0  0  0  0  0  0
  146.2865  131.2515  150.6112 N   0  0  0  0  0  0  0  0  0  0  0  0
  144.1884  132.0248  150.8222 O   0  0  0  0  0  0  0  0  0  0  0  0
  146.5906  134.6848  153.5141 C   0  0  0  0  0  0  0  0  0  0  0  0
  147.1910  134.4955  154.9196 C   0  0  0  0  0  0  0  0  0  0  0  0
  151.8204  138.7456  154.6370 N   0  0  0  0  0  0  0  0  0  0  0  0
  151.1264  139.9586  154.7183 O   0  0  0  0  0  0  0  0  0  0  0  0
  148.5176  141.1362  153.6339 H   0  0  0  0  0  0  0  0  0  0  0  0
  149.3872  141.7592  155.0373 H   0  0  0  0  0  0  0  0  0  0  0  0
  148.0178  140.6707  155.2612 H   0  0  0  0  0  0  0  0  0  0  0  0
  148.6381  137.8666  154.2549 H   0  0  0  0  0  0  0  0  0  0  0  0
  149.3650  135.3563  153.4279 H   0  0  0  0  0  0  0  0  0  0  0  0
  148.9472  133.7179  155.8760 H   0  0  0  0  0  0  0  0  0  0  0  0
  149.7265  132.3678  153.8700 H   0  0  0  0  0  0  0  0  0  0  0  0
  148.1645  131.9015  154.4828 H   0  0  0  0  0  0  0  0  0  0  0  0
  148.6561  133.6684  152.0319 H   0  0  0  0  0  0  0  0  0  0  0  0
  148.0912  132.0124  152.0338 H   0  0  0  0  0  0  0  0  0  0  0  0
  145.1176  134.2159  151.5102 H   0  0  0  0  0  0  0  0  0  0  0  0
  146.6328  133.9693  150.6700 H   0  0  0  0  0  0  0  0  0  0  0  0
  145.9699  130.3491  150.2867 H   0  0  0  0  0  0  0  0  0  0  0  0
  147.2752  131.4396  150.6994 H   0  0  0  0  0  0  0  0  0  0  0  0
  147.1090  135.4835  152.9813 H   0  0  0  0  0  0  0  0  0  0  0  0
  145.5498  134.9952  153.6132 H   0  0  0  0  0  0  0  0  0  0  0  0
  146.5774  133.7860  155.4767 H   0  0  0  0  0  0  0  0  0  0  0  0
  147.1488  135.4332  155.4751 H   0  0  0  0  0  0  0  0  0  0  0  0
  146.1619  132.7322  153.2538 H   0  0  0  0  0  0  0  0  0  0  0  0
  1  2  1  0  0  0  0
  1 21  1  0  0  0  0
  1 22  1  0  0  0  0
  1 23  1  0  0  0  0
  2 20  1  0  0  0  0
  2  3  2  0  0  0  0
  3  4  1  0  0  0  0
  3 24  1  0  0  0  0
  4  5  1  0  0  0  0
  4 19  2  0  0  0  0
  5  6  1  0  0  0  0
  6  7  2  0  0  0  0
  6  8  1  0  0  0  0
  8  9  1  0  0  0  0
  8 25  1  0  0  0  0
  9 18  1  0  0  0  0
  9 10  1  0  0  0  0
  9 26  1  0  0  0  0
 10 11  1  0  0  0  0
 10 27  1  0  0  0  0
 10 28  1  0  0  0  0
 11 12  1  0  0  0  0
 11 29  1  0  0  0  0
 11 30  1  0  0  0  0
 12 13  1  0  0  0  0
 12 17  1  0  0  0  0
 12 39  1  0  0  0  0
 13 14  1  0  0  0  0
 13 31  1  0  0  0  0
 13 32  1  0  0  0  0
 14 15  1  0  0  0  0
 14 16  2  0  0  0  0
 15 33  1  0  0  0  0
 15 34  1  0  0  0  0
 17 18  1  0  0  0  0
 17 35  1  0  0  0  0
 17 36  1  0  0  0  0
 18 37  1  0  0  0  0
 18 38  1  0  0  0  0
 19 20  1  0  0  0  0
M  CHG  1   5  -1
M  CHG  1  12   1
M  END
> <s_m_source_file>
AV-unprocessed.smi

> <i_m_source_file_index>
1417

> <i_lp_mmshare_version>
43012

> <i_f3d_flags>
0

> <s_epik_input>
W0NIM11jMVtjSF1jKG5vMSlbTkhdQyg9TylbTkhdW0NIXTJbQ0gyXVtDSDJdTihbQ0gyXVtDSDJdMilbQ0gyXUMoPU8pW05IMl0=

> <s_epik_cmdline>
J2VwaWtfcHl0aG9uJywgJy1waCcsICc3LjAnLCAnLXRuJywgJzgnLCAnLW1hJywgJzIwMCcsICctbWV0YWxfYmluZGluZycsICctaW1hZScsICc8aW5maWxlLm1hZT4nLCAnLW9tYWUnLCAnPG91dGZpbGUubWFlPic=

> <r_epik_Ionization_Penalty>
7.07562

> <r_epik_Ionization_Penalty_Charging>
7.07548

> <r_epik_Ionization_Penalty_Neutral>
0.00013758

> <r_epik_State_Penalty>
7.16607

> <r_epik_Charging_Adjusted_Penalty>
14.2416

> <i_epik_Tot_Q>
0

> <i_epik_Tot_abs_Q>
2

> <r_epik_Metal_State_Penalty>
3.11438

> <b_epik_Metal_Only>
1

> <s_lp_Force_Field>
OPLS_2005

> <r_lp_Energy>
2.10932

> <b_lp_Chiralities_Consistent>
1

> <s_lp_Variant>
AV-unprocessed.smi:1417-6

> <Gold.Version>
5.8.1

> <Gold.Id.Protein>
6NUR|6NUR_protein|mol2

> <Gold.PLP.Fitness>
43.3771

> <Gold.PLP.PLP>
-31.6332

> <Gold.PLP.part.hbond>
-4.0000

> <Gold.PLP.part.metal>
0.0000

> <Gold.PLP.part.buried>
-7.4646

> <Gold.PLP.part.nonpolar>
-23.0162

> <Gold.PLP.part.repulsive>
1.6328

> <Gold.PLP.ligand.clash>
0.0000

> <Gold.PLP.ligand.torsion>
1.4945

> <Gold.PLP.Chemscore.Hbond>
4.8960

> <Gold.PLP.Chemscore.CHOScore>
0.0000

> <Gold.PLP.Chemscore.Metal>
0.0000

> <Gold.Chemscore.Hbonds>
donor molecule, donor type, donor heavy atom, donor atom, acceptor molecule, acceptor atom, score
      L1  H     8    25       P1  7948  0.85
      L1  H    15    34       P1 10747  0.90
      P1  H  7989  7998       L1    20  1.00
      P1  H 10752 10765       L1     5  1.60

> <Gold.PLP.Chemscore.Internal.Correction>
0.0449

> <Gold.Rescore>
     Score         DG    S(hbond)    S(metal)    S(lipo)     H(rot)  DE(clash)    DE(int)     intcor
     14.58     -15.86       3.10        0.00      44.51       2.02       0.02       1.26       ----

> <Gold.Chemscore.Fitness>
14.5829

> <Gold.Chemscore.DG>
-15.8614

> <Gold.Chemscore.ZeroCoef>
-5.4800

> <Gold.Chemscore.Hbond>
3.0990

> <Gold.Chemscore.Metal>
0.0000

> <Gold.Chemscore.Lipo>
44.5107

> <Gold.Chemscore.Internal_Hbond>
0.0000

> <Gold.Chemscore.DEClash>
0.0162

> <Gold.Chemscore.DEInternal>
1.2623

> <Gold.Chemscore.Rot>
2.0222

> <Gold.Chemscore.Internal.Correction>
   9.000000E+99

> <Gold.Chemscore.Hbonds>
donor molecule, donor type, donor heavy atom, donor atom, acceptor molecule, acceptor atom, score
      L1  H     8    25       P1  7948  0.15
      L1  H    15    34       P1 10747  0.88
      P1  H  7989  7998       L1    20  0.44
      P1  H 10752 10765       L1     5  0.12

> <Gold.Chemscore.Hbond.Weighted>
-10.3506

> <Gold.Chemscore.Metal.Weighted>
-0.0000

> <Gold.Chemscore.Lipo.Weighted>
-5.2078

> <Gold.Chemscore.Internal_Hbond.Weighted>
0.0000

> <Gold.Chemscore.DEClash.Weighted>
0.0162

> <Gold.Chemscore.DEInternal.Weighted>
1.2623

> <Gold.Chemscore.Rot.Weighted>
5.1769

> <Gold.Chemscore.Internal.Correction.Weighted>
   9.000000E+99

> <Gold.Protein.RotatedTorsions>
[ 6907 6896 6895 6894 ] final -147.54 input  -60.11 | X-H torsion
[ 7974 7965 7964 7962 ] final  150.21 input  175.53 | X-H torsion
[ 8008 7997 7996 7995 ] final  -98.77 input   59.86 | X-H torsion
[ 10167 10162 10161 10158 ] final   37.69 input  -65.29 | X-H torsion
[ 10718 10713 10712 10709 ] final  -71.62 input   66.30 | X-H torsion
[ 10763 10752 10751 10750 ] final  168.82 input  -60.55 | X-H torsion
[ 11005 11000 10999 10996 ] final  151.37 input  -57.11 | X-H torsion

> <Gold.Protein.ActiveResidues>
 VAL166  LYS551  ARG553  GLY616  TRP617  ASP618  TYR619  PRO620  LYS621  CYS622 
 ASP623  PHE694  ASN695  SER759  ASP760  ASP761  ALA762  ILE779  LEU786  VAL792 
 PHE793  MET794  SER795  GLU796  ALA797  LYS798  CYS799  TRP800  GLU811  SER814 

> <Gold.Protein.RotatedAtoms>
  151.1571  133.4869  159.2594 H   0  0  0  0  0  0  0  0  0  0  0  0  # atno 6907 bound_to 6896
  151.1493  135.0219  159.8671 H   0  0  0  0  0  0  0  0  0  0  0  0  # atno 6908 bound_to 6896
  152.5463  134.1456  159.8550 H   0  0  0  0  0  0  0  0  0  0  0  0  # atno 6909 bound_to 6896
  144.8380  139.6380  143.6029 H   0  0  0  0  0  0  0  0  0  0  0  0  # atno 7974 bound_to 7965
  154.8057  140.0453  157.1306 H   0  0  0  0  0  0  0  0  0  0  0  0  # atno 8008 bound_to 7997
  154.9427  140.3054  155.5093 H   0  0  0  0  0  0  0  0  0  0  0  0  # atno 8009 bound_to 7997
  156.2966  140.2302  156.4497 H   0  0  0  0  0  0  0  0  0  0  0  0  # atno 8010 bound_to 7997
  140.4008  144.1725  150.6134 H   0  0  0  0  0  0  0  0  0  0  0  0  # atno 10167 bound_to 10162
  156.0355  130.4355  150.2471 H   0  0  0  0  0  0  0  0  0  0  0  0  # atno 10718 bound_to 10713
  154.3741  135.2753  155.2249 H   0  0  0  0  0  0  0  0  0  0  0  0  # atno 10763 bound_to 10752
  154.4384  135.5960  153.6117 H   0  0  0  0  0  0  0  0  0  0  0  0  # atno 10764 bound_to 10752
  152.9837  135.6012  154.3976 H   0  0  0  0  0  0  0  0  0  0  0  0  # atno 10765 bound_to 10752
  140.1213  134.8862  157.2076 H   0  0  0  0  0  0  0  0  0  0  0  0  # atno 11005 bound_to 11000
  146.2677  139.6559  142.9318 LP  0  0  0  0  0  0  0  0  0  0  0  0  # atno 17320 bound_to 7965
  145.4753  141.0437  143.2676 LP  0  0  0  0  0  0  0  0  0  0  0  0  # atno 17321 bound_to 7965
  140.4741  143.2402  151.9047 LP  0  0  0  0  0  0  0  0  0  0  0  0  # atno 17342 bound_to 10162
  139.4785  144.5339  151.8627 LP  0  0  0  0  0  0  0  0  0  0  0  0  # atno 17343 bound_to 10162
  157.0571  131.0079  151.3235 LP  0  0  0  0  0  0  0  0  0  0  0  0  # atno 17370 bound_to 10713
  157.5098  130.7931  149.7693 LP  0  0  0  0  0  0  0  0  0  0  0  0  # atno 17371 bound_to 10713
  140.2961  134.3185  155.7302 LP  0  0  0  0  0  0  0  0  0  0  0  0  # atno 17394 bound_to 11000
  141.2152  133.7564  156.9573 LP  0  0  0  0  0  0  0  0  0  0  0  0  # atno 17395 bound_to 11000

$$$$
