AV-unprocessed.smi:3089|AV-procd|sdf|11771|dock7
  -GOLD-   2272017153D 1   1.00000     0.00000
 Structure written by MMmdl.
 25 25  0  0  0  0  0  0  0  0  2 V2000
  148.9583  133.6525  153.8359 C   0  0  0  0  0  0  0  0  0  0  0  0
  147.8824  133.1006  153.0404 N   0  0  0  0  0  0  0  0  0  0  0  0
  147.0818  133.7350  152.1160 C   0  0  0  0  0  0  0  0  0  0  0  0
  146.2055  132.8088  151.6192 C   0  0  0  0  0  0  0  0  0  0  0  0
  145.1250  132.9968  150.5747 C   0  0  2  0  0  0  0  0  0  0  0  0
  145.4849  132.2152  149.2995 C   0  0  0  0  0  0  0  0  0  0  0  0
  145.0040  134.3502  150.1775 O   0  0  0  0  0  0  0  0  0  0  0  0
  143.7467  132.5504  151.1110 C   0  0  0  0  0  0  0  0  0  0  0  0
  142.7312  132.4709  150.0443 N   0  3  0  0  0  0  0  0  0  0  0  0
  146.5594  131.6205  152.3247 C   0  0  0  0  0  0  0  0  0  0  0  0
  147.5634  131.7973  153.1673 N   0  0  0  0  0  0  0  0  0  0  0  0
  149.0851  134.7118  153.6114 H   0  0  0  0  0  0  0  0  0  0  0  0
  149.8889  133.1294  153.6132 H   0  0  0  0  0  0  0  0  0  0  0  0
  148.7290  133.5405  154.8959 H   0  0  0  0  0  0  0  0  0  0  0  0
  147.2003  134.7842  151.8882 H   0  0  0  0  0  0  0  0  0  0  0  0
  145.5663  131.1458  149.4974 H   0  0  0  0  0  0  0  0  0  0  0  0
  146.4396  132.5456  148.8878 H   0  0  0  0  0  0  0  0  0  0  0  0
  144.7297  132.3455  148.5233 H   0  0  0  0  0  0  0  0  0  0  0  0
  145.1749  134.4115  149.2498 H   0  0  0  0  0  0  0  0  0  0  0  0
  143.8179  131.5783  151.6006 H   0  0  0  0  0  0  0  0  0  0  0  0
  143.3886  133.2542  151.8635 H   0  0  0  0  0  0  0  0  0  0  0  0
  143.1832  132.4744  149.1413 H   0  0  0  0  0  0  0  0  0  0  0  0
  142.1101  133.2643  150.1163 H   0  0  0  0  0  0  0  0  0  0  0  0
  146.1205  130.6366  152.2461 H   0  0  0  0  0  0  0  0  0  0  0  0
  142.1984  131.6197  150.1533 H   0  0  0  0  0  0  0  0  0  0  0  0
  1  2  1  0  0  0  0
  1 12  1  0  0  0  0
  1 13  1  0  0  0  0
  1 14  1  0  0  0  0
  2 11  1  0  0  0  0
  2  3  1  0  0  0  0
  3  4  2  0  0  0  0
  3 15  1  0  0  0  0
  4  5  1  0  0  0  0
  4 10  1  0  0  0  0
  5  6  1  0  0  0  0
  5  7  1  0  0  0  0
  5  8  1  0  0  0  0
  6 16  1  0  0  0  0
  6 17  1  0  0  0  0
  6 18  1  0  0  0  0
  7 19  1  0  0  0  0
  8  9  1  0  0  0  0
  8 20  1  0  0  0  0
  8 21  1  0  0  0  0
  9 22  1  0  0  0  0
  9 23  1  0  0  0  0
  9 25  1  0  0  0  0
 10 11  2  0  0  0  0
 10 24  1  0  0  0  0
M  CHG  1   9   1
M  END
> <s_m_source_file>
AV-unprocessed.smi

> <i_m_source_file_index>
3089

> <i_lp_mmshare_version>
43012

> <i_f3d_flags>
0

> <s_epik_input>
W0NIM11uMVtjSF1jKFtjSF1uMSlbQ0BAXShbQ0gzXSkoW09IXSlbQ0gyXVtOSDJd

> <s_epik_cmdline>
J2VwaWtfcHl0aG9uJywgJy1waCcsICc3LjAnLCAnLXRuJywgJzgnLCAnLW1hJywgJzIwMCcsICctbWV0YWxfYmluZGluZycsICctaW1hZScsICc8aW5maWxlLm1hZT4nLCAnLW9tYWUnLCAnPG91dGZpbGUubWFlPic=

> <r_lp_tautomer_probability>
1

> <r_epik_Ionization_Penalty>
0.0140512

> <r_epik_Ionization_Penalty_Charging>
0.0140431

> <r_epik_Ionization_Penalty_Neutral>
8.10489e-06

> <r_epik_State_Penalty>
0.0109628

> <r_epik_Charging_Adjusted_Penalty>
0.0250059

> <i_epik_Tot_Q>
1

> <i_epik_Tot_abs_Q>
1

> <r_epik_Metal_State_Penalty>
0.0109638

> <b_epik_Metal_Only>
0

> <s_lp_Force_Field>
OPLS_2005

> <r_lp_Energy>
3.27267

> <b_lp_Chiralities_Consistent>
1

> <s_lp_Variant>
AV-unprocessed.smi:3089-2

> <Gold.Version>
5.8.1

> <Gold.Id.Protein>
6NUR|6NUR_protein|mol2

> <Gold.PLP.Fitness>
40.8977

> <Gold.PLP.PLP>
-26.2674

> <Gold.PLP.part.hbond>
-3.0000

> <Gold.PLP.part.metal>
0.0000

> <Gold.PLP.part.buried>
-3.6565

> <Gold.PLP.part.nonpolar>
-19.1786

> <Gold.PLP.part.repulsive>
0.1938

> <Gold.PLP.ligand.clash>
0.0000

> <Gold.PLP.ligand.torsion>
0.1931

> <Gold.PLP.Chemscore.Hbond>
4.0000

> <Gold.PLP.Chemscore.CHOScore>
1.0000

> <Gold.PLP.Chemscore.Metal>
0.0000

> <Gold.Chemscore.Hbonds>
donor molecule, donor type, donor heavy atom, donor atom, acceptor molecule, acceptor atom, score
      L1  H     7    19       P1  7921  1.00
      L1  H     9    23       P1 10186  2.00
      L1  H     9    25       P1 10952  1.00
      L1  C     3    15       P1  7948  1.00

> <Gold.PLP.Chemscore.Internal.Correction>
0.0165

> <Gold.Rescore>
     Score         DG    S(hbond)    S(metal)    S(lipo)     H(rot)  DE(clash)    DE(int)     intcor
     16.90     -17.17       2.95        0.00      57.15       1.89       0.06       0.21       ----

> <Gold.Chemscore.Fitness>
16.9008

> <Gold.Chemscore.DG>
-17.1726

> <Gold.Chemscore.ZeroCoef>
-5.4800

> <Gold.Chemscore.Hbond>
2.9462

> <Gold.Chemscore.Metal>
0.0000

> <Gold.Chemscore.Lipo>
57.1488

> <Gold.Chemscore.Internal_Hbond>
0.0000

> <Gold.Chemscore.DEClash>
0.0571

> <Gold.Chemscore.DEInternal>
0.2147

> <Gold.Chemscore.Rot>
1.8883

> <Gold.Chemscore.Internal.Correction>
   9.000000E+99

> <Gold.Chemscore.Hbonds>
donor molecule, donor type, donor heavy atom, donor atom, acceptor molecule, acceptor atom, score
      L1  H     7    19       P1  7921  0.98
      L1  H     9    23       P1 10186  0.98
      L1  H     9    25       P1 10952  0.74

> <Gold.Chemscore.Hbond.Weighted>
-9.8403

> <Gold.Chemscore.Metal.Weighted>
-0.0000

> <Gold.Chemscore.Lipo.Weighted>
-6.6864

> <Gold.Chemscore.Internal_Hbond.Weighted>
0.0000

> <Gold.Chemscore.DEClash.Weighted>
0.0571

> <Gold.Chemscore.DEInternal.Weighted>
0.2147

> <Gold.Chemscore.Rot.Weighted>
4.8341

> <Gold.Chemscore.Internal.Correction.Weighted>
   9.000000E+99

> <Gold.Protein.RotatedTorsions>
[ 6907 6896 6895 6894 ] final   53.72 input  -60.11 | X-H torsion
[ 7974 7965 7964 7962 ] final  155.14 input  175.53 | X-H torsion
[ 8008 7997 7996 7995 ] final  -36.61 input   59.86 | X-H torsion
[ 10167 10162 10161 10158 ] final  135.43 input  -65.29 | X-H torsion
[ 10718 10713 10712 10709 ] final   -1.85 input   66.30 | X-H torsion
[ 10763 10752 10751 10750 ] final   15.46 input  -60.55 | X-H torsion
[ 11005 11000 10999 10996 ] final    8.38 input  -57.11 | X-H torsion

> <Gold.Protein.ActiveResidues>
 VAL166  LYS551  ARG553  GLY616  TRP617  ASP618  TYR619  PRO620  LYS621  CYS622 
 ASP623  PHE694  ASN695  SER759  ASP760  ASP761  ALA762  ILE779  LEU786  VAL792 
 PHE793  MET794  SER795  GLU796  ALA797  LYS798  CYS799  TRP800  GLU811  SER814 

> <Gold.Protein.RotatedAtoms>
  152.3365  134.7190  160.0275 H   0  0  0  0  0  0  0  0  0  0  0  0  # atno 6907 bound_to 6896
  151.7590  133.3327  159.3420 H   0  0  0  0  0  0  0  0  0  0  0  0  # atno 6908 bound_to 6896
  150.7454  134.6056  159.6103 H   0  0  0  0  0  0  0  0  0  0  0  0  # atno 6909 bound_to 6896
  144.8044  139.7027  143.6168 H   0  0  0  0  0  0  0  0  0  0  0  0  # atno 7974 bound_to 7965
  154.4069  140.1626  156.2402 H   0  0  0  0  0  0  0  0  0  0  0  0  # atno 8008 bound_to 7997
  155.9208  140.3421  155.6148 H   0  0  0  0  0  0  0  0  0  0  0  0  # atno 8009 bound_to 7997
  155.7225  140.0770  157.2315 H   0  0  0  0  0  0  0  0  0  0  0  0  # atno 8010 bound_to 7997
  139.5218  144.6517  151.5282 H   0  0  0  0  0  0  0  0  0  0  0  0  # atno 10167 bound_to 10162
  156.7996  130.5388  149.5723 H   0  0  0  0  0  0  0  0  0  0  0  0  # atno 10718 bound_to 10713
  153.1523  135.6780  153.8864 H   0  0  0  0  0  0  0  0  0  0  0  0  # atno 10763 bound_to 10752
  153.8286  135.3120  155.3418 H   0  0  0  0  0  0  0  0  0  0  0  0  # atno 10764 bound_to 10752
  154.7871  135.4856  154.0057 H   0  0  0  0  0  0  0  0  0  0  0  0  # atno 10765 bound_to 10752
  140.5376  134.0405  155.7893 H   0  0  0  0  0  0  0  0  0  0  0  0  # atno 11005 bound_to 11000
  146.2332  139.5854  142.9541 LP  0  0  0  0  0  0  0  0  0  0  0  0  # atno 17320 bound_to 7965
  145.5474  141.0416  143.2297 LP  0  0  0  0  0  0  0  0  0  0  0  0  # atno 17321 bound_to 7965
  140.6325  143.9048  150.6618 LP  0  0  0  0  0  0  0  0  0  0  0  0  # atno 17342 bound_to 10162
  140.2357  143.3702  152.1529 LP  0  0  0  0  0  0  0  0  0  0  0  0  # atno 17343 bound_to 10162
  156.1109  130.6040  151.0046 LP  0  0  0  0  0  0  0  0  0  0  0  0  # atno 17370 bound_to 10713
  157.6560  131.0889  150.7945 LP  0  0  0  0  0  0  0  0  0  0  0  0  # atno 17371 bound_to 10713
  141.1245  133.9405  157.2662 LP  0  0  0  0  0  0  0  0  0  0  0  0  # atno 17394 bound_to 11000
  139.9521  135.0173  156.9023 LP  0  0  0  0  0  0  0  0  0  0  0  0  # atno 17395 bound_to 11000

$$$$
