AV-unprocessed.smi:1809|AV-procd|sdf|7324|dock7
  -GOLD-   22720 8583D 1   1.00000     0.00000
 Structure written by MMmdl.
 39 41  0  0  0  0  0  0  0  0  3 V2000
  149.5054  138.7043  154.1463 C   0  0  0  0  0  0  0  0  0  0  0  0
  150.7403  138.8998  154.9573 C   0  0  0  0  0  0  0  0  0  0  0  0
  151.8637  139.4128  154.4499 N   0  0  0  0  0  0  0  0  0  0  0  0
  152.8765  139.4899  155.3950 N   0  0  0  0  0  0  0  0  0  0  0  0
  152.5090  139.0270  156.5984 C   0  0  0  0  0  0  0  0  0  0  0  0
  153.3443  139.0136  157.6504 N   0  5  0  0  0  0  0  0  0  0  0  0
  152.9481  139.5317  158.8343 C   0  0  0  0  0  0  0  0  0  0  0  0
  151.7846  139.6765  159.2170 O   0  0  0  0  0  0  0  0  0  0  0  0
  153.9626  139.9131  159.6229 N   0  0  0  0  0  0  0  0  0  0  0  0
  153.8321  140.5210  160.9427 C   0  0  0  0  0  0  0  0  0  0  0  0
  153.6245  142.0425  160.8485 C   0  0  1  0  0  0  0  0  0  0  0  0
  153.1311  142.4710  159.4581 C   0  0  0  0  0  0  0  0  0  0  0  0
  152.9057  143.9372  159.3942 N   0  3  1  0  0  0  0  0  0  0  0  0
  152.1673  144.3384  158.1763 C   0  0  0  0  0  0  0  0  0  0  0  0
  150.6910  144.4955  158.5857 C   0  0  0  0  0  0  0  0  0  0  0  0
  150.6528  144.2570  160.0994 C   0  0  0  0  0  0  0  0  0  0  0  0
  152.1070  144.4512  160.5286 C   0  0  1  0  0  0  0  0  0  0  0  0
  152.5016  143.8314  161.8852 C   0  0  0  0  0  0  0  0  0  0  0  0
  152.6262  142.4203  161.7885 O   0  0  0  0  0  0  0  0  0  0  0  0
  150.8367  138.4703  156.6569 S   0  0  0  0  0  0  0  0  0  0  0  0
  149.6079  137.8175  153.5207 H   0  0  0  0  0  0  0  0  0  0  0  0
  149.3332  139.5695  153.5057 H   0  0  0  0  0  0  0  0  0  0  0  0
  148.6408  138.5757  154.7975 H   0  0  0  0  0  0  0  0  0  0  0  0
  154.8993  139.7746  159.2726 H   0  0  0  0  0  0  0  0  0  0  0  0
  153.0020  140.0552  161.4763 H   0  0  0  0  0  0  0  0  0  0  0  0
  154.7323  140.2983  161.5161 H   0  0  0  0  0  0  0  0  0  0  0  0
  154.5638  142.5515  161.0724 H   0  0  0  0  0  0  0  0  0  0  0  0
  153.8595  142.1915  158.6960 H   0  0  0  0  0  0  0  0  0  0  0  0
  152.2061  141.9421  159.2218 H   0  0  0  0  0  0  0  0  0  0  0  0
  152.5580  145.2998  157.8408 H   0  0  0  0  0  0  0  0  0  0  0  0
  152.3001  143.6325  157.3549 H   0  0  0  0  0  0  0  0  0  0  0  0
  150.3391  145.4990  158.3437 H   0  0  0  0  0  0  0  0  0  0  0  0
  150.0486  143.7870  158.0617 H   0  0  0  0  0  0  0  0  0  0  0  0
  149.9683  144.9314  160.6150 H   0  0  0  0  0  0  0  0  0  0  0  0
  150.3309  143.2351  160.3053 H   0  0  0  0  0  0  0  0  0  0  0  0
  152.2873  145.5263  160.5844 H   0  0  0  0  0  0  0  0  0  0  0  0
  153.4466  144.2523  162.2328 H   0  0  0  0  0  0  0  0  0  0  0  0
  151.7572  144.0746  162.6437 H   0  0  0  0  0  0  0  0  0  0  0  0
  153.8125  144.3823  159.4047 H   0  0  0  0  0  0  0  0  0  0  0  0
  1  2  1  0  0  0  0
  1 21  1  0  0  0  0
  1 22  1  0  0  0  0
  1 23  1  0  0  0  0
  2 20  1  0  0  0  0
  2  3  2  0  0  0  0
  3  4  1  0  0  0  0
  4  5  2  0  0  0  0
  5  6  1  0  0  0  0
  5 20  1  0  0  0  0
  6  7  1  0  0  0  0
  7  8  2  0  0  0  0
  7  9  1  0  0  0  0
  9 10  1  0  0  0  0
  9 24  1  0  0  0  0
 10 11  1  0  0  0  0
 10 25  1  0  0  0  0
 10 26  1  0  0  0  0
 11 19  1  0  0  0  0
 11 12  1  0  0  0  0
 11 27  1  0  0  0  0
 12 13  1  0  0  0  0
 12 28  1  0  0  0  0
 12 29  1  0  0  0  0
 13 17  1  0  0  0  0
 13 14  1  0  0  0  0
 13 39  1  0  0  0  0
 14 15  1  0  0  0  0
 14 30  1  0  0  0  0
 14 31  1  0  0  0  0
 15 16  1  0  0  0  0
 15 32  1  0  0  0  0
 15 33  1  0  0  0  0
 16 17  1  0  0  0  0
 16 34  1  0  0  0  0
 16 35  1  0  0  0  0
 17 18  1  0  0  0  0
 17 36  1  0  0  0  0
 18 19  1  0  0  0  0
 18 37  1  0  0  0  0
 18 38  1  0  0  0  0
M  CHG  1   6  -1
M  CHG  1  13   1
M  END
> <s_m_source_file>
AV-unprocessed.smi

> <i_m_source_file_index>
1809

> <i_lp_mmshare_version>
43012

> <i_f3d_flags>
0

> <s_epik_input>
W0NIM11jMW5uYyhzMSlbTkhdQyg9TylbTkhdW0NIMl1bQ0BIXShbQ0gyXTIpT1tDSDJdW0NAQEhdKE4yMylbQ0gyXVtDSDJdW0NIMl0z

> <s_epik_cmdline>
J2VwaWtfcHl0aG9uJywgJy1waCcsICc3LjAnLCAnLXRuJywgJzgnLCAnLW1hJywgJzIwMCcsICctbWV0YWxfYmluZGluZycsICctaW1hZScsICc8aW5maWxlLm1hZT4nLCAnLW9tYWUnLCAnPG91dGZpbGUubWFlPic=

> <r_lp_tautomer_probability>
1

> <r_epik_Ionization_Penalty>
3.2601

> <r_epik_Ionization_Penalty_Charging>
3.1406

> <r_epik_Ionization_Penalty_Neutral>
0.119497

> <r_epik_State_Penalty>
3.08894

> <r_epik_Charging_Adjusted_Penalty>
6.22954

> <i_epik_Tot_Q>
0

> <i_epik_Tot_abs_Q>
2

> <r_epik_Metal_State_Penalty>
0.510807

> <b_epik_Metal_Only>
1

> <s_lp_Force_Field>
OPLS_2005

> <r_lp_Energy>
28.9947

> <b_lp_Chiralities_Consistent>
1

> <s_lp_Variant>
AV-unprocessed.smi:1809-16

> <Gold.Version>
5.8.1

> <Gold.Id.Protein>
6NUR|6NUR_protein|mol2

> <Gold.PLP.Fitness>
45.6983

> <Gold.PLP.PLP>
-40.5946

> <Gold.PLP.part.hbond>
-3.0000

> <Gold.PLP.part.metal>
0.0000

> <Gold.PLP.part.buried>
-5.1187

> <Gold.PLP.part.nonpolar>
-32.2728

> <Gold.PLP.part.repulsive>
0.2501

> <Gold.PLP.ligand.clash>
1.9895

> <Gold.PLP.ligand.torsion>
1.3096

> <Gold.PLP.Chemscore.Hbond>
3.2300

> <Gold.PLP.Chemscore.CHOScore>
0.0000

> <Gold.PLP.Chemscore.Metal>
0.0000

> <Gold.Chemscore.Hbonds>
donor molecule, donor type, donor heavy atom, donor atom, acceptor molecule, acceptor atom, score
      P1  H  7989  7998       L1     3  0.96
      P1  H  7997  8009       L1     6  1.98
      P1  H  7997  8010       L1     4  0.29

> <Gold.PLP.Chemscore.Internal.Correction>
0.0225

> <Gold.Rescore>
     Score         DG    S(hbond)    S(metal)    S(lipo)     H(rot)  DE(clash)    DE(int)     intcor
     17.61     -20.01       1.59        0.00     107.90       1.32       0.04       2.36       ----

> <Gold.Chemscore.Fitness>
17.6080

> <Gold.Chemscore.DG>
-20.0090

> <Gold.Chemscore.ZeroCoef>
-5.4800

> <Gold.Chemscore.Hbond>
1.5854

> <Gold.Chemscore.Metal>
0.0000

> <Gold.Chemscore.Lipo>
107.9046

> <Gold.Chemscore.Internal_Hbond>
0.0000

> <Gold.Chemscore.DEClash>
0.0417

> <Gold.Chemscore.DEInternal>
2.3593

> <Gold.Chemscore.Rot>
1.3246

> <Gold.Chemscore.Internal.Correction>
   9.000000E+99

> <Gold.Chemscore.Hbonds>
donor molecule, donor type, donor heavy atom, donor atom, acceptor molecule, acceptor atom, score
      P1  H  7989  7998       L1     3  0.75
      P1  H  7997  8009       L1     6  0.26
      P1  H  7997  8010       L1     4  0.20

> <Gold.Chemscore.Hbond.Weighted>
-5.2952

> <Gold.Chemscore.Metal.Weighted>
-0.0000

> <Gold.Chemscore.Lipo.Weighted>
-12.6248

> <Gold.Chemscore.Internal_Hbond.Weighted>
0.0000

> <Gold.Chemscore.DEClash.Weighted>
0.0417

> <Gold.Chemscore.DEInternal.Weighted>
2.3593

> <Gold.Chemscore.Rot.Weighted>
3.3910

> <Gold.Chemscore.Internal.Correction.Weighted>
   9.000000E+99

> <Gold.Protein.RotatedTorsions>
[ 6907 6896 6895 6894 ] final  131.88 input  -60.11 | X-H torsion
[ 7974 7965 7964 7962 ] final -119.87 input  175.53 | X-H torsion
[ 8008 7997 7996 7995 ] final  140.55 input   59.86 | X-H torsion
[ 10167 10162 10161 10158 ] final   84.97 input  -65.29 | X-H torsion
[ 10718 10713 10712 10709 ] final -118.44 input   66.30 | X-H torsion
[ 10763 10752 10751 10750 ] final  159.78 input  -60.55 | X-H torsion
[ 11005 11000 10999 10996 ] final -174.80 input  -57.11 | X-H torsion

> <Gold.Protein.ActiveResidues>
 VAL166  LYS551  ARG553  GLY616  TRP617  ASP618  TYR619  PRO620  LYS621  CYS622 
 ASP623  PHE694  ASN695  SER759  ASP760  ASP761  ALA762  ILE779  LEU786  VAL792 
 PHE793  MET794  SER795  GLU796  ALA797  LYS798  CYS799  TRP800  GLU811  SER814 

> <Gold.Protein.RotatedAtoms>
  152.3381  133.6035  159.5856 H   0  0  0  0  0  0  0  0  0  0  0  0  # atno 6907 bound_to 6896
  150.7462  133.9765  159.3571 H   0  0  0  0  0  0  0  0  0  0  0  0  # atno 6908 bound_to 6896
  151.7632  135.0805  160.0400 H   0  0  0  0  0  0  0  0  0  0  0  0  # atno 6909 bound_to 6896
  145.0577  140.8267  143.4171 H   0  0  0  0  0  0  0  0  0  0  0  0  # atno 7974 bound_to 7965
  156.2977  140.2338  156.4419 H   0  0  0  0  0  0  0  0  0  0  0  0  # atno 8008 bound_to 7997
  154.8178  140.0439  157.1409 H   0  0  0  0  0  0  0  0  0  0  0  0  # atno 8009 bound_to 7997
  154.9349  140.3021  155.5152 H   0  0  0  0  0  0  0  0  0  0  0  0  # atno 8010 bound_to 7997
  139.9026  144.6320  150.8621 H   0  0  0  0  0  0  0  0  0  0  0  0  # atno 10167 bound_to 10162
  156.1107  130.6246  150.9292 H   0  0  0  0  0  0  0  0  0  0  0  0  # atno 10718 bound_to 10713
  154.2372  135.2776  155.2867 H   0  0  0  0  0  0  0  0  0  0  0  0  # atno 10763 bound_to 10752
  154.5575  135.5657  153.6980 H   0  0  0  0  0  0  0  0  0  0  0  0  # atno 10764 bound_to 10752
  153.0007  135.6289  154.2515 H   0  0  0  0  0  0  0  0  0  0  0  0  # atno 10765 bound_to 10752
  140.4704  134.6170  157.4880 H   0  0  0  0  0  0  0  0  0  0  0  0  # atno 11005 bound_to 11000
  145.1448  139.2550  143.5472 LP  0  0  0  0  0  0  0  0  0  0  0  0  # atno 17320 bound_to 7965
  146.3522  140.1134  142.8603 LP  0  0  0  0  0  0  0  0  0  0  0  0  # atno 17321 bound_to 7965
  140.7703  143.3425  151.2178 LP  0  0  0  0  0  0  0  0  0  0  0  0  # atno 17342 bound_to 10162
  139.7012  143.9530  152.2906 LP  0  0  0  0  0  0  0  0  0  0  0  0  # atno 17343 bound_to 10162
  157.6288  131.0923  150.8482 LP  0  0  0  0  0  0  0  0  0  0  0  0  # atno 17370 bound_to 10713
  156.8594  130.5108  149.5305 LP  0  0  0  0  0  0  0  0  0  0  0  0  # atno 17371 bound_to 10713
  139.9889  134.7018  155.9725 LP  0  0  0  0  0  0  0  0  0  0  0  0  # atno 17394 bound_to 11000
  141.1579  133.6541  156.4223 LP  0  0  0  0  0  0  0  0  0  0  0  0  # atno 17395 bound_to 11000

$$$$
