AV-unprocessed.smi:392|AV-procd|sdf|2481|dock10
  -GOLD-   2262022423D 1   1.00000     0.00000
 Structure written by MMmdl.
 32 34  0  0  0  0  0  0  0  0  1 V2000
  151.7074  140.2384  155.2946 O   0  0  0  0  0  0  0  0  0  0  0  0
  150.4734  140.5865  155.8895 C   0  0  1  0  0  0  0  0  0  0  0  0
  150.6112  141.9993  156.4913 C   0  0  0  0  0  0  0  0  0  0  0  0
  151.2839  141.9868  157.7783 N   0  0  0  0  0  0  0  0  0  0  0  0
  151.8110  140.9172  158.4045 C   0  0  0  0  0  0  0  0  0  0  0  0
  152.3778  141.1223  159.5900 N   0  0  0  0  0  0  0  0  0  0  0  0
  152.1960  142.4846  159.7544 C   0  0  0  0  0  0  0  0  0  0  0  0
  152.5666  143.3369  160.8192 C   0  0  0  0  0  0  0  0  0  0  0  0
  152.2665  144.7142  160.7696 C   0  0  0  0  0  0  0  0  0  0  0  0
  151.5950  145.2600  159.6563 C   0  0  0  0  0  0  0  0  0  0  0  0
  151.2191  144.4315  158.5819 C   0  0  0  0  0  0  0  0  0  0  0  0
  151.5175  143.0570  158.6363 C   0  0  0  0  0  0  0  0  0  0  0  0
  149.3109  140.4880  154.9078 C   0  0  0  0  0  0  0  0  0  0  0  0
  148.5706  141.6414  154.5633 C   0  0  0  0  0  0  0  0  0  0  0  0
  147.4757  141.5486  153.6830 C   0  0  0  0  0  0  0  0  0  0  0  0
  147.1124  140.3020  153.1402 C   0  0  0  0  0  0  0  0  0  0  0  0
  147.8452  139.1486  153.4782 C   0  0  0  0  0  0  0  0  0  0  0  0
  148.9402  139.2385  154.3594 C   0  0  0  0  0  0  0  0  0  0  0  0
  149.6237  138.1151  154.6854 F   0  0  0  0  0  0  0  0  0  0  0  0
  152.1692  139.6592  155.8813 H   0  0  0  0  0  0  0  0  0  0  0  0
  150.3195  139.8717  156.6987 H   0  0  0  0  0  0  0  0  0  0  0  0
  151.1891  142.6372  155.8208 H   0  0  0  0  0  0  0  0  0  0  0  0
  149.6348  142.4724  156.6048 H   0  0  0  0  0  0  0  0  0  0  0  0
  151.7731  139.9308  157.9658 H   0  0  0  0  0  0  0  0  0  0  0  0
  153.0804  142.9296  161.6774 H   0  0  0  0  0  0  0  0  0  0  0  0
  152.5529  145.3552  161.5903 H   0  0  0  0  0  0  0  0  0  0  0  0
  151.3676  146.3156  159.6276 H   0  0  0  0  0  0  0  0  0  0  0  0
  150.7020  144.8466  157.7299 H   0  0  0  0  0  0  0  0  0  0  0  0
  148.8331  142.6017  154.9826 H   0  0  0  0  0  0  0  0  0  0  0  0
  146.9119  142.4338  153.4276 H   0  0  0  0  0  0  0  0  0  0  0  0
  146.2706  140.2297  152.4674 H   0  0  0  0  0  0  0  0  0  0  0  0
  147.5637  138.1913  153.0650 H   0  0  0  0  0  0  0  0  0  0  0  0
  1  2  1  0  0  0  0
  1 20  1  0  0  0  0
  2  3  1  0  0  0  0
  2 13  1  0  0  0  0
  2 21  1  0  0  0  0
  3  4  1  0  0  0  0
  3 22  1  0  0  0  0
  3 23  1  0  0  0  0
  4 12  1  0  0  0  0
  4  5  1  0  0  0  0
  5  6  2  0  0  0  0
  5 24  1  0  0  0  0
  6  7  1  0  0  0  0
  7 12  2  0  0  0  0
  7  8  1  0  0  0  0
  8  9  2  0  0  0  0
  8 25  1  0  0  0  0
  9 10  1  0  0  0  0
  9 26  1  0  0  0  0
 10 11  2  0  0  0  0
 10 27  1  0  0  0  0
 11 12  1  0  0  0  0
 11 28  1  0  0  0  0
 13 18  1  0  0  0  0
 13 14  2  0  0  0  0
 14 15  1  0  0  0  0
 14 29  1  0  0  0  0
 15 16  2  0  0  0  0
 15 30  1  0  0  0  0
 16 17  1  0  0  0  0
 16 31  1  0  0  0  0
 17 18  2  0  0  0  0
 17 32  1  0  0  0  0
 18 19  1  0  0  0  0
M  END
> <s_m_source_file>
AV-unprocessed.smi

> <i_m_source_file_index>
392

> <i_lp_mmshare_version>
43012

> <i_f3d_flags>
0

> <s_epik_input>
RmMxW2NIXVtjSF1bY0hdW2NIXWMxW0NASF0oW09IXSlbQ0gyXW4oW2NIXW4yKWMoYzIzKVtjSF1bY0hdW2NIXVtjSF0z

> <s_epik_cmdline>
J2VwaWtfcHl0aG9uJywgJy1waCcsICc3LjAnLCAnLXRuJywgJzgnLCAnLW1hJywgJzIwMCcsICctbWV0YWxfYmluZGluZycsICctaW1hZScsICc8aW5maWxlLm1hZT4nLCAnLW9tYWUnLCAnPG91dGZpbGUubWFlPic=

> <r_epik_Ionization_Penalty>
0.0696512

> <r_epik_Ionization_Penalty_Charging>
0

> <r_epik_Ionization_Penalty_Neutral>
0.0696512

> <r_epik_State_Penalty>
0.0610247

> <r_epik_Charging_Adjusted_Penalty>
0.0610247

> <i_epik_Tot_Q>
0

> <i_epik_Tot_abs_Q>
0

> <r_epik_Metal_State_Penalty>
6.42746e-05

> <b_epik_Metal_Only>
0

> <s_lp_Force_Field>
OPLS_2005

> <r_lp_Energy>
12.4864

> <b_lp_Chiralities_Consistent>
1

> <s_lp_Variant>
AV-unprocessed.smi:392-2

> <Gold.Version>
5.8.1

> <Gold.Id.Protein>
6NUR|6NUR_protein|mol2

> <Gold.PLP.Fitness>
48.5749

> <Gold.PLP.PLP>
-46.4913

> <Gold.PLP.part.hbond>
-1.0000

> <Gold.PLP.part.metal>
0.0000

> <Gold.PLP.part.buried>
-5.5624

> <Gold.PLP.part.nonpolar>
-40.9378

> <Gold.PLP.part.repulsive>
0.0000

> <Gold.PLP.ligand.clash>
0.0000

> <Gold.PLP.ligand.torsion>
0.2855

> <Gold.PLP.Chemscore.Hbond>
0.8800

> <Gold.PLP.Chemscore.CHOScore>
0.0000

> <Gold.PLP.Chemscore.Metal>
0.0000

> <Gold.Chemscore.Hbonds>
donor molecule, donor type, donor heavy atom, donor atom, acceptor molecule, acceptor atom, score
      P1  H  7989  7998       L1     1  0.88

> <Gold.PLP.Chemscore.Internal.Correction>
0.0146

> <Gold.Rescore>
     Score         DG    S(hbond)    S(metal)    S(lipo)     H(rot)  DE(clash)    DE(int)     intcor
     16.92     -17.54       0.89        0.00     119.42       1.91       0.14       0.47       ----

> <Gold.Chemscore.Fitness>
16.9243

> <Gold.Chemscore.DG>
-17.5352

> <Gold.Chemscore.ZeroCoef>
-5.4800

> <Gold.Chemscore.Hbond>
0.8912

> <Gold.Chemscore.Metal>
0.0000

> <Gold.Chemscore.Lipo>
119.4229

> <Gold.Chemscore.Internal_Hbond>
0.0000

> <Gold.Chemscore.DEClash>
0.1436

> <Gold.Chemscore.DEInternal>
0.4673

> <Gold.Chemscore.Rot>
1.9116

> <Gold.Chemscore.Internal.Correction>
   9.000000E+99

> <Gold.Chemscore.Hbonds>
donor molecule, donor type, donor heavy atom, donor atom, acceptor molecule, acceptor atom, score
      P1  H  7989  7998       L1     1  0.52

> <Gold.Chemscore.Hbond.Weighted>
-2.9765

> <Gold.Chemscore.Metal.Weighted>
-0.0000

> <Gold.Chemscore.Lipo.Weighted>
-13.9725

> <Gold.Chemscore.Internal_Hbond.Weighted>
0.0000

> <Gold.Chemscore.DEClash.Weighted>
0.1436

> <Gold.Chemscore.DEInternal.Weighted>
0.4673

> <Gold.Chemscore.Rot.Weighted>
4.8937

> <Gold.Chemscore.Internal.Correction.Weighted>
   9.000000E+99

> <Gold.Protein.RotatedTorsions>
[ 6907 6896 6895 6894 ] final   99.57 input  -60.11 | X-H torsion
[ 7974 7965 7964 7962 ] final  121.19 input  175.53 | X-H torsion
[ 8008 7997 7996 7995 ] final  -16.07 input   59.86 | X-H torsion
[ 10167 10162 10161 10158 ] final   30.44 input  -65.29 | X-H torsion
[ 10718 10713 10712 10709 ] final  175.73 input   66.30 | X-H torsion
[ 10763 10752 10751 10750 ] final  134.27 input  -60.55 | X-H torsion
[ 11005 11000 10999 10996 ] final   78.97 input  -57.11 | X-H torsion

> <Gold.Protein.ActiveResidues>
 VAL166  LYS551  ARG553  GLY616  TRP617  ASP618  TYR619  PRO620  LYS621  CYS622 
 ASP623  PHE694  ASN695  SER759  ASP760  ASP761  ALA762  ILE779  LEU786  VAL792 
 PHE793  MET794  SER795  GLU796  ALA797  LYS798  CYS799  TRP800  GLU811  SER814 

> <Gold.Protein.RotatedAtoms>
  152.5389  134.0408  159.8066 H   0  0  0  0  0  0  0  0  0  0  0  0  # atno 6907 bound_to 6896
  151.0564  133.5573  159.2645 H   0  0  0  0  0  0  0  0  0  0  0  0  # atno 6908 bound_to 6896
  151.2488  135.0622  159.9107 H   0  0  0  0  0  0  0  0  0  0  0  0  # atno 6909 bound_to 6896
  145.1222  139.3381  143.4708 H   0  0  0  0  0  0  0  0  0  0  0  0  # atno 7974 bound_to 7965
  154.5081  140.2179  155.9210 H   0  0  0  0  0  0  0  0  0  0  0  0  # atno 8008 bound_to 7997
  156.1519  140.3159  155.8629 H   0  0  0  0  0  0  0  0  0  0  0  0  # atno 8009 bound_to 7997
  155.3922  140.0479  157.3031 H   0  0  0  0  0  0  0  0  0  0  0  0  # atno 8010 bound_to 7997
  140.4677  144.0810  150.6229 H   0  0  0  0  0  0  0  0  0  0  0  0  # atno 10167 bound_to 10162
  156.9306  130.9970  151.2988 H   0  0  0  0  0  0  0  0  0  0  0  0  # atno 10718 bound_to 10713
  153.8208  135.3116  155.3410 H   0  0  0  0  0  0  0  0  0  0  0  0  # atno 10763 bound_to 10752
  154.8013  135.4725  154.0286 H   0  0  0  0  0  0  0  0  0  0  0  0  # atno 10764 bound_to 10752
  153.1694  135.6875  153.8718 H   0  0  0  0  0  0  0  0  0  0  0  0  # atno 10765 bound_to 10752
  139.9191  134.7805  156.1718 H   0  0  0  0  0  0  0  0  0  0  0  0  # atno 11005 bound_to 11000
  146.3520  140.1186  142.8601 LP  0  0  0  0  0  0  0  0  0  0  0  0  # atno 17320 bound_to 7965
  145.0727  140.9167  143.4872 LP  0  0  0  0  0  0  0  0  0  0  0  0  # atno 17321 bound_to 7965
  140.4015  143.2701  151.9941 LP  0  0  0  0  0  0  0  0  0  0  0  0  # atno 17342 bound_to 10162
  139.4814  144.5993  151.7634 LP  0  0  0  0  0  0  0  0  0  0  0  0  # atno 17343 bound_to 10162
  157.5849  130.8402  149.8575 LP  0  0  0  0  0  0  0  0  0  0  0  0  # atno 17370 bound_to 10713
  156.0449  130.3730  150.1343 LP  0  0  0  0  0  0  0  0  0  0  0  0  # atno 17371 bound_to 10713
  141.0696  133.6803  156.2113 LP  0  0  0  0  0  0  0  0  0  0  0  0  # atno 17394 bound_to 11000
  140.6529  134.5048  157.5578 LP  0  0  0  0  0  0  0  0  0  0  0  0  # atno 17395 bound_to 11000

$$$$
