AV-unprocessed.smi:1867|AV-procd|sdf|7560|dock7
  -GOLD-   22720 9273D 1   1.00000     0.00000
 Structure written by MMmdl.
 52 55  0  0  0  0  0  0  0  0  2 V2000
  147.2709  136.0746  155.7326 O   0  0  0  0  0  0  0  0  0  0  0  0
  147.8205  136.1329  154.6351 C   0  0  0  0  0  0  0  0  0  0  0  0
  148.7133  137.0747  154.2726 N   0  0  0  0  0  0  0  0  0  0  0  0
  149.2677  138.1169  155.0627 C   0  0  0  0  0  0  0  0  0  0  0  0
  149.2174  138.1569  156.4751 C   0  0  0  0  0  0  0  0  0  0  0  0
  149.8269  139.2321  157.1493 C   0  0  0  0  0  0  0  0  0  0  0  0
  150.4799  140.2380  156.3979 C   0  0  0  0  0  0  0  0  0  0  0  0
  151.0967  141.3352  157.0316 N   0  0  0  0  0  0  0  0  0  0  0  0
  150.9886  142.6917  156.5196 C   0  0  0  0  0  0  0  0  0  0  0  0
  151.6862  143.5602  157.5662 C   0  0  0  0  0  0  0  0  0  0  0  0
  151.4339  142.8060  158.8717 C   0  0  0  0  0  0  0  0  0  0  0  0
  151.4219  141.3322  158.4522 C   0  0  0  0  0  0  0  0  0  0  0  0
  150.5326  140.1927  155.0452 N   0  0  0  0  0  0  0  0  0  0  0  0
  149.9492  139.1591  154.4037 C   0  0  0  0  0  0  0  0  0  0  0  0
  147.5265  135.2493  153.6650 N   0  0  0  0  0  0  0  0  0  0  0  0
  146.6051  134.1145  153.7300 C   0  0  2  0  0  0  0  0  0  0  0  0
  147.2629  132.7939  154.1767 C   0  0  0  0  0  0  0  0  0  0  0  0
  146.6075  131.6971  153.3136 C   0  0  0  0  0  0  0  0  0  0  0  0
  145.5704  132.3892  152.5249 N   0  3  2  0  0  0  0  0  0  0  0  0
  145.1545  131.7596  151.2527 C   0  0  0  0  0  0  0  0  0  0  0  0
  144.0133  132.5868  150.6265 C   0  0  0  0  0  0  0  0  0  0  0  0
  144.3964  134.0744  150.4819 C   0  0  0  0  0  0  0  0  0  0  0  0
  144.9122  134.6490  151.8157 C   0  0  0  0  0  0  0  0  0  0  0  0
  146.0532  133.7668  152.3478 C   0  0  1  0  0  0  0  0  0  0  0  0
  148.9998  137.0670  153.3050 H   0  0  0  0  0  0  0  0  0  0  0  0
  148.7401  137.3817  157.0541 H   0  0  0  0  0  0  0  0  0  0  0  0
  149.7858  139.2650  158.2275 H   0  0  0  0  0  0  0  0  0  0  0  0
  151.4569  142.7929  155.5401 H   0  0  0  0  0  0  0  0  0  0  0  0
  149.9359  142.9637  156.4324 H   0  0  0  0  0  0  0  0  0  0  0  0
  152.7576  143.5944  157.3633 H   0  0  0  0  0  0  0  0  0  0  0  0
  151.3126  144.5843  157.5846 H   0  0  0  0  0  0  0  0  0  0  0  0
  152.1773  143.0216  159.6395 H   0  0  0  0  0  0  0  0  0  0  0  0
  150.4547  143.0806  159.2665 H   0  0  0  0  0  0  0  0  0  0  0  0
  150.7042  140.7636  159.0448 H   0  0  0  0  0  0  0  0  0  0  0  0
  152.4074  140.8845  158.5845 H   0  0  0  0  0  0  0  0  0  0  0  0
  150.0264  139.1687  153.3263 H   0  0  0  0  0  0  0  0  0  0  0  0
  147.9566  135.4159  152.7666 H   0  0  0  0  0  0  0  0  0  0  0  0
  145.7669  134.3450  154.3909 H   0  0  0  0  0  0  0  0  0  0  0  0
  148.3400  132.8062  154.0022 H   0  0  0  0  0  0  0  0  0  0  0  0
  147.1067  132.6188  155.2419 H   0  0  0  0  0  0  0  0  0  0  0  0
  147.3496  131.2511  152.6493 H   0  0  0  0  0  0  0  0  0  0  0  0
  146.1686  130.9005  153.9149 H   0  0  0  0  0  0  0  0  0  0  0  0
  146.0038  131.7022  150.5703 H   0  0  0  0  0  0  0  0  0  0  0  0
  144.8204  130.7386  151.4407 H   0  0  0  0  0  0  0  0  0  0  0  0
  143.7417  132.1740  149.6546 H   0  0  0  0  0  0  0  0  0  0  0  0
  143.1243  132.5050  151.2534 H   0  0  0  0  0  0  0  0  0  0  0  0
  145.1700  134.1763  149.7198 H   0  0  0  0  0  0  0  0  0  0  0  0
  143.5395  134.6504  150.1307 H   0  0  0  0  0  0  0  0  0  0  0  0
  145.2593  135.6730  151.6744 H   0  0  0  0  0  0  0  0  0  0  0  0
  144.0981  134.6907  152.5407 H   0  0  0  0  0  0  0  0  0  0  0  0
  146.8730  133.7566  151.6252 H   0  0  0  0  0  0  0  0  0  0  0  0
  144.7518  132.4468  153.1136 H   0  0  0  0  0  0  0  0  0  0  0  0
  1  2  2  0  0  0  0
  2  3  1  0  0  0  0
  2 15  1  0  0  0  0
  3  4  1  0  0  0  0
  3 25  1  0  0  0  0
  4 14  1  0  0  0  0
  4  5  2  0  0  0  0
  5  6  1  0  0  0  0
  5 26  1  0  0  0  0
  6  7  2  0  0  0  0
  6 27  1  0  0  0  0
  7  8  1  0  0  0  0
  7 13  1  0  0  0  0
  8 12  1  0  0  0  0
  8  9  1  0  0  0  0
  9 10  1  0  0  0  0
  9 28  1  0  0  0  0
  9 29  1  0  0  0  0
 10 11  1  0  0  0  0
 10 30  1  0  0  0  0
 10 31  1  0  0  0  0
 11 12  1  0  0  0  0
 11 32  1  0  0  0  0
 11 33  1  0  0  0  0
 12 34  1  0  0  0  0
 12 35  1  0  0  0  0
 13 14  2  0  0  0  0
 14 36  1  0  0  0  0
 15 16  1  0  0  0  0
 15 37  1  0  0  0  0
 16 24  1  0  0  0  0
 16 17  1  0  0  0  0
 16 38  1  0  0  0  0
 17 18  1  0  0  0  0
 17 39  1  0  0  0  0
 17 40  1  0  0  0  0
 18 19  1  0  0  0  0
 18 41  1  0  0  0  0
 18 42  1  0  0  0  0
 19 24  1  0  0  0  0
 19 20  1  0  0  0  0
 19 52  1  0  0  0  0
 20 21  1  0  0  0  0
 20 43  1  0  0  0  0
 20 44  1  0  0  0  0
 21 22  1  0  0  0  0
 21 45  1  0  0  0  0
 21 46  1  0  0  0  0
 22 23  1  0  0  0  0
 22 47  1  0  0  0  0
 22 48  1  0  0  0  0
 23 24  1  0  0  0  0
 23 49  1  0  0  0  0
 23 50  1  0  0  0  0
 24 51  1  0  0  0  0
M  CHG  1  19   1
M  END
> <s_m_source_file>
AV-unprocessed.smi

> <i_m_source_file_index>
1867

> <i_lp_mmshare_version>
43012

> <i_f3d_flags>
0

> <s_epik_input>
W0NIMl0xW0NIMl1bQ0gyXVtDSDJdW0NASF0oTjEyKVtDQEBIXShbQ0gyXVtDSDJdMilbTkhdQyg9TylbTkhdYzNbY0hdW2NIXWMobltjSF0zKU40W0NIMl1bQ0gyXVtDSDJdW0NIMl00

> <s_epik_cmdline>
J2VwaWtfcHl0aG9uJywgJy1waCcsICc3LjAnLCAnLXRuJywgJzgnLCAnLW1hJywgJzIwMCcsICctbWV0YWxfYmluZGluZycsICctaW1hZScsICc8aW5maWxlLm1hZT4nLCAnLW9tYWUnLCAnPG91dGZpbGUubWFlPic=

> <r_lp_tautomer_probability>
1

> <r_epik_Ionization_Penalty>
0.0751123

> <r_epik_Ionization_Penalty_Charging>
0.000974069

> <r_epik_Ionization_Penalty_Neutral>
0.0741382

> <r_epik_State_Penalty>
0.0647261

> <r_epik_Charging_Adjusted_Penalty>
0.0657002

> <i_epik_Tot_Q>
1

> <i_epik_Tot_abs_Q>
1

> <r_epik_Metal_State_Penalty>
0.0580571

> <b_epik_Metal_Only>
0

> <s_lp_Force_Field>
OPLS_2005

> <r_lp_Energy>
71.0604

> <b_lp_Chiralities_Consistent>
1

> <s_lp_Variant>
AV-unprocessed.smi:1867-1

> <Gold.Version>
5.8.1

> <Gold.Id.Protein>
6NUR|6NUR_protein|mol2

> <Gold.PLP.Fitness>
42.9586

> <Gold.PLP.PLP>
-32.8931

> <Gold.PLP.part.hbond>
-2.8457

> <Gold.PLP.part.metal>
0.0000

> <Gold.PLP.part.buried>
-4.1371

> <Gold.PLP.part.nonpolar>
-26.1522

> <Gold.PLP.part.repulsive>
0.0961

> <Gold.PLP.ligand.clash>
0.0000

> <Gold.PLP.ligand.torsion>
0.8105

> <Gold.PLP.Chemscore.Hbond>
2.8440

> <Gold.PLP.Chemscore.CHOScore>
1.0000

> <Gold.PLP.Chemscore.Metal>
0.0000

> <Gold.Chemscore.Hbonds>
donor molecule, donor type, donor heavy atom, donor atom, acceptor molecule, acceptor atom, score
      L1  H     3    25       P1  7948  0.93
      L1  H    15    37       P1  7948  1.00
      P1  H  7989  7998       L1    13  0.90
      L1  C    14    36       P1  7957  1.00

> <Gold.PLP.Chemscore.Internal.Correction>
0.1545

> <Gold.Rescore>
     Score         DG    S(hbond)    S(metal)    S(lipo)     H(rot)  DE(clash)    DE(int)     intcor
     18.88     -20.97       2.20        0.00      91.49       1.00       0.11       1.99       ----

> <Gold.Chemscore.Fitness>
18.8797

> <Gold.Chemscore.DG>
-20.9724

> <Gold.Chemscore.ZeroCoef>
-5.4800

> <Gold.Chemscore.Hbond>
2.2001

> <Gold.Chemscore.Metal>
0.0000

> <Gold.Chemscore.Lipo>
91.4864

> <Gold.Chemscore.Internal_Hbond>
0.0000

> <Gold.Chemscore.DEClash>
0.1075

> <Gold.Chemscore.DEInternal>
1.9852

> <Gold.Chemscore.Rot>
1.0000

> <Gold.Chemscore.Internal.Correction>
   9.000000E+99

> <Gold.Chemscore.Hbonds>
donor molecule, donor type, donor heavy atom, donor atom, acceptor molecule, acceptor atom, score
      L1  H     3    25       P1  7948  0.91
      L1  H    15    37       P1  7948  0.91
      P1  H  7989  7998       L1    13  0.17

> <Gold.Chemscore.Hbond.Weighted>
-7.3485

> <Gold.Chemscore.Metal.Weighted>
-0.0000

> <Gold.Chemscore.Lipo.Weighted>
-10.7039

> <Gold.Chemscore.Internal_Hbond.Weighted>
0.0000

> <Gold.Chemscore.DEClash.Weighted>
0.1075

> <Gold.Chemscore.DEInternal.Weighted>
1.9852

> <Gold.Chemscore.Rot.Weighted>
2.5600

> <Gold.Chemscore.Internal.Correction.Weighted>
   9.000000E+99

> <Gold.Protein.RotatedTorsions>
[ 6907 6896 6895 6894 ] final  -38.20 input  -60.11 | X-H torsion
[ 7974 7965 7964 7962 ] final  -71.47 input  175.53 | X-H torsion
[ 8008 7997 7996 7995 ] final  171.48 input   59.86 | X-H torsion
[ 10167 10162 10161 10158 ] final  -12.10 input  -65.29 | X-H torsion
[ 10718 10713 10712 10709 ] final   84.74 input   66.30 | X-H torsion
[ 10763 10752 10751 10750 ] final  -42.67 input  -60.55 | X-H torsion
[ 11005 11000 10999 10996 ] final  -42.71 input  -57.11 | X-H torsion

> <Gold.Protein.ActiveResidues>
 VAL166  LYS551  ARG553  GLY616  TRP617  ASP618  TYR619  PRO620  LYS621  CYS622 
 ASP623  PHE694  ASN695  SER759  ASP760  ASP761  ALA762  ILE779  LEU786  VAL792 
 PHE793  MET794  SER795  GLU796  ALA797  LYS798  CYS799  TRP800  GLU811  SER814 

> <Gold.Protein.RotatedAtoms>
  151.0053  134.9354  159.7976 H   0  0  0  0  0  0  0  0  0  0  0  0  # atno 6907 bound_to 6896
  152.5288  134.3100  159.9120 H   0  0  0  0  0  0  0  0  0  0  0  0  # atno 6908 bound_to 6896
  151.3105  133.4041  159.2681 H   0  0  0  0  0  0  0  0  0  0  0  0  # atno 6909 bound_to 6896
  145.6776  140.9199  143.0849 H   0  0  0  0  0  0  0  0  0  0  0  0  # atno 7974 bound_to 7965
  156.1267  140.1511  156.9125 H   0  0  0  0  0  0  0  0  0  0  0  0  # atno 8008 bound_to 7997
  154.4877  140.0860  156.7565 H   0  0  0  0  0  0  0  0  0  0  0  0  # atno 8009 bound_to 7997
  155.4330  140.3428  155.4284 H   0  0  0  0  0  0  0  0  0  0  0  0  # atno 8010 bound_to 7997
  140.7154  143.5568  150.9240 H   0  0  0  0  0  0  0  0  0  0  0  0  # atno 10167 bound_to 10162
  157.6903  131.0145  150.2717 H   0  0  0  0  0  0  0  0  0  0  0  0  # atno 10718 bound_to 10713
  153.9829  135.6714  153.4751 H   0  0  0  0  0  0  0  0  0  0  0  0  # atno 10763 bound_to 10752
  153.0740  135.4959  154.8361 H   0  0  0  0  0  0  0  0  0  0  0  0  # atno 10764 bound_to 10752
  154.7154  135.3106  154.9094 H   0  0  0  0  0  0  0  0  0  0  0  0  # atno 10765 bound_to 10752
  141.0334  133.6810  156.2632 H   0  0  0  0  0  0  0  0  0  0  0  0  # atno 11005 bound_to 11000
  144.7036  139.8654  143.7437 LP  0  0  0  0  0  0  0  0  0  0  0  0  # atno 17320 bound_to 7965
  146.0992  139.3986  143.0357 LP  0  0  0  0  0  0  0  0  0  0  0  0  # atno 17321 bound_to 7965
  139.9293  143.6512  152.3080 LP  0  0  0  0  0  0  0  0  0  0  0  0  # atno 17342 bound_to 10162
  139.6957  144.7641  151.1360 LP  0  0  0  0  0  0  0  0  0  0  0  0  # atno 17343 bound_to 10162
  156.3279  130.3796  149.7517 LP  0  0  0  0  0  0  0  0  0  0  0  0  # atno 17370 bound_to 10713
  156.5066  130.8153  151.3153 LP  0  0  0  0  0  0  0  0  0  0  0  0  # atno 17371 bound_to 10713
  140.6365  134.5210  157.5565 LP  0  0  0  0  0  0  0  0  0  0  0  0  # atno 17394 bound_to 11000
  139.9224  134.8123  156.1171 LP  0  0  0  0  0  0  0  0  0  0  0  0  # atno 17395 bound_to 11000

$$$$
