AV-unprocessed.smi:3139|AV-procd|sdf|11957|dock3
  -GOLD-   2272017353D 1   1.00000     0.00000
 Structure written by MMmdl.
 33 33  0  0  0  0  0  0  0  0  2 V2000
  153.6659  141.0624  159.8660 C   0  0  0  0  0  0  0  0  0  0  0  0
  152.7218  141.8492  158.9324 C   0  0  1  0  0  0  0  0  0  0  0  0
  151.5695  140.9904  158.3923 C   0  0  0  0  0  0  0  0  0  0  0  0
  150.4846  141.4974  158.1036 O   0  0  0  0  0  0  0  0  0  0  0  0
  151.8445  139.6878  158.2265 N   0  0  0  0  0  0  0  0  0  0  0  0
  150.9985  138.7111  157.5430 C   0  0  0  0  0  0  0  0  0  0  0  0
  151.5533  138.2886  156.1512 C   0  0  0  0  0  0  0  0  0  0  0  0
  152.9107  137.5806  156.3396 C   0  0  0  0  0  0  0  0  0  0  0  0
  150.5705  137.3081  155.4647 C   0  0  0  0  0  0  0  0  0  0  0  0
  151.7794  139.5394  155.2604 C   0  0  0  0  0  0  0  0  0  0  0  0
  150.8073  140.2880  155.0131 O   0  0  0  0  0  0  0  0  0  0  0  0
  152.9422  139.7343  154.8406 O   0  5  0  0  0  0  0  0  0  0  0  0
  152.1782  143.0542  159.5526 N   0  0  0  0  0  0  0  0  0  0  0  0
  152.0999  144.3213  159.0088 C   0  0  0  0  0  0  0  0  0  0  0  0
  151.4574  145.1191  159.9109 C   0  0  0  0  0  0  0  0  0  0  0  0
  151.1588  144.2382  160.9865 C   0  0  0  0  0  0  0  0  0  0  0  0
  151.5819  143.0043  160.7670 N   0  0  0  0  0  0  0  0  0  0  0  0
  154.1036  140.2076  159.3493 H   0  0  0  0  0  0  0  0  0  0  0  0
  153.1508  140.6834  160.7498 H   0  0  0  0  0  0  0  0  0  0  0  0
  154.4876  141.6928  160.2071 H   0  0  0  0  0  0  0  0  0  0  0  0
  153.3167  142.1744  158.0772 H   0  0  0  0  0  0  0  0  0  0  0  0
  152.7618  139.3649  158.4989 H   0  0  0  0  0  0  0  0  0  0  0  0
  150.9285  137.8399  158.1960 H   0  0  0  0  0  0  0  0  0  0  0  0
  149.9768  139.0816  157.4451 H   0  0  0  0  0  0  0  0  0  0  0  0
  152.8012  136.6752  156.9371 H   0  0  0  0  0  0  0  0  0  0  0  0
  153.6344  138.2186  156.8489 H   0  0  0  0  0  0  0  0  0  0  0  0
  153.3459  137.2891  155.3826 H   0  0  0  0  0  0  0  0  0  0  0  0
  150.3719  136.4442  156.0995 H   0  0  0  0  0  0  0  0  0  0  0  0
  150.9712  136.9300  154.5232 H   0  0  0  0  0  0  0  0  0  0  0  0
  149.6089  137.7752  155.2472 H   0  0  0  0  0  0  0  0  0  0  0  0
  152.4957  144.5458  158.0291 H   0  0  0  0  0  0  0  0  0  0  0  0
  151.2246  146.1686  159.8102 H   0  0  0  0  0  0  0  0  0  0  0  0
  150.6446  144.4555  161.9109 H   0  0  0  0  0  0  0  0  0  0  0  0
  1  2  1  0  0  0  0
  1 18  1  0  0  0  0
  1 19  1  0  0  0  0
  1 20  1  0  0  0  0
  2  3  1  0  0  0  0
  2 13  1  0  0  0  0
  2 21  1  0  0  0  0
  3  4  2  0  0  0  0
  3  5  1  0  0  0  0
  5  6  1  0  0  0  0
  5 22  1  0  0  0  0
  6  7  1  0  0  0  0
  6 23  1  0  0  0  0
  6 24  1  0  0  0  0
  7  8  1  0  0  0  0
  7  9  1  0  0  0  0
  7 10  1  0  0  0  0
  8 25  1  0  0  0  0
  8 26  1  0  0  0  0
  8 27  1  0  0  0  0
  9 28  1  0  0  0  0
  9 29  1  0  0  0  0
  9 30  1  0  0  0  0
 10 11  2  0  0  0  0
 10 12  1  0  0  0  0
 13 17  1  0  0  0  0
 13 14  1  0  0  0  0
 14 15  2  0  0  0  0
 14 31  1  0  0  0  0
 15 16  1  0  0  0  0
 15 32  1  0  0  0  0
 16 17  2  0  0  0  0
 16 33  1  0  0  0  0
M  CHG  1  12  -1
M  END
> <s_m_source_file>
AV-unprocessed.smi

> <i_m_source_file_index>
3139

> <i_lp_mmshare_version>
43012

> <i_f3d_flags>
0

> <s_epik_input>
bjFbY0hdW2NIXVtjSF1uMVtDQEhdKFtDSDNdKUMoPU8pW05IXVtDSDJdQyhbQ0gzXSkoW0NIM10pQyg9TylbT0hd

> <s_epik_cmdline>
J2VwaWtfcHl0aG9uJywgJy1waCcsICc3LjAnLCAnLXRuJywgJzgnLCAnLW1hJywgJzIwMCcsICctbWV0YWxfYmluZGluZycsICctaW1hZScsICc8aW5maWxlLm1hZT4nLCAnLW9tYWUnLCAnPG91dGZpbGUubWFlPic=

> <r_lp_tautomer_probability>
1

> <r_epik_Ionization_Penalty>
0.00184643

> <r_epik_Ionization_Penalty_Charging>
0.00181045

> <r_epik_Ionization_Penalty_Neutral>
3.59763e-05

> <r_epik_State_Penalty>
0.00122842

> <r_epik_Charging_Adjusted_Penalty>
0.00303887

> <i_epik_Tot_Q>
-1

> <i_epik_Tot_abs_Q>
1

> <r_epik_Metal_State_Penalty>
-0

> <b_epik_Metal_Only>
0

> <s_lp_Force_Field>
OPLS_2005

> <r_lp_Energy>
4.69511

> <b_lp_Chiralities_Consistent>
1

> <s_lp_Variant>
AV-unprocessed.smi:3139-2

> <Gold.Version>
5.8.1

> <Gold.Id.Protein>
6NUR|6NUR_protein|mol2

> <Gold.PLP.Fitness>
43.0163

> <Gold.PLP.PLP>
-36.1048

> <Gold.PLP.part.hbond>
-2.0168

> <Gold.PLP.part.metal>
0.0000

> <Gold.PLP.part.buried>
-6.3630

> <Gold.PLP.part.nonpolar>
-28.1462

> <Gold.PLP.part.repulsive>
0.2813

> <Gold.PLP.ligand.clash>
0.0000

> <Gold.PLP.ligand.torsion>
1.1567

> <Gold.PLP.Chemscore.Hbond>
3.0000

> <Gold.PLP.Chemscore.CHOScore>
0.0000

> <Gold.PLP.Chemscore.Metal>
0.0000

> <Gold.Chemscore.Hbonds>
donor molecule, donor type, donor heavy atom, donor atom, acceptor molecule, acceptor atom, score
      P1  H  7989  7998       L1    11  0.50
      P1  H  7997  8010       L1    12  2.00

> <Gold.PLP.Chemscore.Internal.Correction>
0.2249

> <Gold.Rescore>
     Score         DG    S(hbond)    S(metal)    S(lipo)     H(rot)  DE(clash)    DE(int)     intcor
     13.81     -14.69       1.98        0.00      72.98       2.32       0.01       0.88       ----

> <Gold.Chemscore.Fitness>
13.8073

> <Gold.Chemscore.DG>
-14.6903

> <Gold.Chemscore.ZeroCoef>
-5.4800

> <Gold.Chemscore.Hbond>
1.9825

> <Gold.Chemscore.Metal>
0.0000

> <Gold.Chemscore.Lipo>
72.9799

> <Gold.Chemscore.Internal_Hbond>
0.0000

> <Gold.Chemscore.DEClash>
0.0073

> <Gold.Chemscore.DEInternal>
0.8757

> <Gold.Chemscore.Rot>
2.3241

> <Gold.Chemscore.Internal.Correction>
   9.000000E+99

> <Gold.Chemscore.Hbonds>
donor molecule, donor type, donor heavy atom, donor atom, acceptor molecule, acceptor atom, score
      P1  H  7989  7998       L1    11  0.02
      P1  H  7997  8010       L1    12  1.00

> <Gold.Chemscore.Hbond.Weighted>
-6.6214

> <Gold.Chemscore.Metal.Weighted>
-0.0000

> <Gold.Chemscore.Lipo.Weighted>
-8.5386

> <Gold.Chemscore.Internal_Hbond.Weighted>
0.0000

> <Gold.Chemscore.DEClash.Weighted>
0.0073

> <Gold.Chemscore.DEInternal.Weighted>
0.8757

> <Gold.Chemscore.Rot.Weighted>
5.9498

> <Gold.Chemscore.Internal.Correction.Weighted>
   9.000000E+99

> <Gold.Protein.RotatedTorsions>
[ 6907 6896 6895 6894 ] final  -38.52 input  -60.11 | X-H torsion
[ 7974 7965 7964 7962 ] final   54.84 input  175.53 | X-H torsion
[ 8008 7997 7996 7995 ] final  105.00 input   59.86 | X-H torsion
[ 10167 10162 10161 10158 ] final  -99.14 input  -65.29 | X-H torsion
[ 10718 10713 10712 10709 ] final -138.09 input   66.30 | X-H torsion
[ 10763 10752 10751 10750 ] final  -35.62 input  -60.55 | X-H torsion
[ 11005 11000 10999 10996 ] final  119.03 input  -57.11 | X-H torsion

> <Gold.Protein.ActiveResidues>
 VAL166  LYS551  ARG553  GLY616  TRP617  ASP618  TYR619  PRO620  LYS621  CYS622 
 ASP623  PHE694  ASN695  SER759  ASP760  ASP761  ALA762  ILE779  LEU786  VAL792 
 PHE793  MET794  SER795  GLU796  ALA797  LYS798  CYS799  TRP800  GLU811  SER814 

> <Gold.Protein.RotatedAtoms>
  151.0014  134.9325  159.7955 H   0  0  0  0  0  0  0  0  0  0  0  0  # atno 6907 bound_to 6896
  152.5279  134.3149  159.9137 H   0  0  0  0  0  0  0  0  0  0  0  0  # atno 6908 bound_to 6896
  151.3154  133.4021  159.2684 H   0  0  0  0  0  0  0  0  0  0  0  0  # atno 6909 bound_to 6896
  145.9566  139.4021  143.0273 H   0  0  0  0  0  0  0  0  0  0  0  0  # atno 7974 bound_to 7965
  156.1622  140.3138  155.8826 H   0  0  0  0  0  0  0  0  0  0  0  0  # atno 8008 bound_to 7997
  155.3760  140.0485  157.3061 H   0  0  0  0  0  0  0  0  0  0  0  0  # atno 8009 bound_to 7997
  154.5157  140.2180  155.9081 H   0  0  0  0  0  0  0  0  0  0  0  0  # atno 8010 bound_to 7997
  140.2656  143.3378  152.0584 H   0  0  0  0  0  0  0  0  0  0  0  0  # atno 10167 bound_to 10162
  156.2954  130.7398  151.1436 H   0  0  0  0  0  0  0  0  0  0  0  0  # atno 10718 bound_to 10713
  153.8662  135.6835  153.4778 H   0  0  0  0  0  0  0  0  0  0  0  0  # atno 10763 bound_to 10752
  153.1313  135.4696  154.9351 H   0  0  0  0  0  0  0  0  0  0  0  0  # atno 10764 bound_to 10752
  154.7735  135.3246  154.8090 H   0  0  0  0  0  0  0  0  0  0  0  0  # atno 10765 bound_to 10752
  139.9131  134.9625  156.7593 H   0  0  0  0  0  0  0  0  0  0  0  0  # atno 11005 bound_to 11000
  145.8097  140.9731  143.0955 LP  0  0  0  0  0  0  0  0  0  0  0  0  # atno 17320 bound_to 7965
  144.6806  139.9906  143.7484 LP  0  0  0  0  0  0  0  0  0  0  0  0  # atno 17321 bound_to 7965
  139.5004  144.6690  151.6287 LP  0  0  0  0  0  0  0  0  0  0  0  0  # atno 17342 bound_to 10162
  140.5931  143.9744  150.6337 LP  0  0  0  0  0  0  0  0  0  0  0  0  # atno 17343 bound_to 10162
  157.7354  131.0573  150.5473 LP  0  0  0  0  0  0  0  0  0  0  0  0  # atno 17370 bound_to 10713
  156.5594  130.4252  149.6070 LP  0  0  0  0  0  0  0  0  0  0  0  0  # atno 17371 bound_to 10713
  140.6710  133.9559  155.7857 LP  0  0  0  0  0  0  0  0  0  0  0  0  # atno 17394 bound_to 11000
  141.0577  134.0392  157.3700 LP  0  0  0  0  0  0  0  0  0  0  0  0  # atno 17395 bound_to 11000

$$$$
