AV-unprocessed.smi:110|AV-procd|sdf|1068|dock8
  -GOLD-   2262018153D 1   1.00000     0.00000
 Structure written by MMmdl.
 46 50  0  0  0  0  0  0  0  0  1 V2000
  149.5634  132.7348  159.1032 O   0  0  0  0  0  0  0  0  0  0  0  0
  149.4847  132.6057  157.6995 C   0  0  0  0  0  0  0  0  0  0  0  0
  149.9736  133.8970  157.0204 C   0  0  2  0  0  0  0  0  0  0  0  0
  149.2264  135.0286  157.4649 O   0  0  0  0  0  0  0  0  0  0  0  0
  149.1667  136.0031  156.4656 C   0  0  1  0  0  0  0  0  0  0  0  0
  149.8047  137.2692  156.9552 N   0  0  0  0  0  0  0  0  0  0  0  0
  150.3725  137.4830  158.1904 C   0  0  0  0  0  0  0  0  0  0  0  0
  150.8666  138.6752  158.3812 N   0  0  0  0  0  0  0  0  0  0  0  0
  150.6367  139.3377  157.1815 C   0  0  0  0  0  0  0  0  0  0  0  0
  150.9103  140.6494  156.6980 C   0  0  0  0  0  0  0  0  0  0  0  0
  151.5396  141.6147  157.4080 N   0  0  0  0  0  0  0  0  0  0  0  0
  151.1983  143.0247  157.1706 C   0  0  0  0  0  0  0  0  0  0  0  0
  151.6925  143.8331  158.3855 C   0  0  0  0  0  0  0  0  0  0  0  0
  152.3977  142.7717  159.1669 C   0  0  0  0  0  0  0  0  0  0  0  0
  153.1226  142.9320  160.3605 C   0  0  0  0  0  0  0  0  0  0  0  0
  153.7359  141.7924  160.9240 C   0  0  0  0  0  0  0  0  0  0  0  0
  153.6252  140.5333  160.2895 C   0  0  0  0  0  0  0  0  0  0  0  0
  152.8931  140.3965  159.0895 C   0  0  0  0  0  0  0  0  0  0  0  0
  152.2636  141.5347  158.5442 C   0  0  0  0  0  0  0  0  0  0  0  0
  150.4661  140.9677  155.4559 N   0  0  0  0  0  0  0  0  0  0  0  0
  149.8358  140.0530  154.7146 C   0  0  0  0  0  0  0  0  0  0  0  0
  149.5400  138.7900  155.0242 N   0  0  0  0  0  0  0  0  0  0  0  0
  149.9543  138.4679  156.2832 C   0  0  0  0  0  0  0  0  0  0  0  0
  149.8314  135.4289  155.1981 C   0  0  1  0  0  0  0  0  0  0  0  0
  151.1514  135.8940  154.9779 O   0  0  0  0  0  0  0  0  0  0  0  0
  149.8306  133.9370  155.4925 C   0  0  2  0  0  0  0  0  0  0  0  0
  148.6112  133.3485  155.0758 O   0  0  0  0  0  0  0  0  0  0  0  0
  151.0267  134.0574  157.2543 H   0  0  0  0  0  0  0  0  0  0  0  0
  148.1213  136.2696  156.3049 H   0  0  0  0  0  0  0  0  0  0  0  0
  149.2337  135.6837  154.3219 H   0  0  0  0  0  0  0  0  0  0  0  0
  150.6457  133.4112  154.9929 H   0  0  0  0  0  0  0  0  0  0  0  0
  148.8832  132.2071  159.4926 H   0  0  0  0  0  0  0  0  0  0  0  0
  150.1217  131.7677  157.4142 H   0  0  0  0  0  0  0  0  0  0  0  0
  148.4660  132.3581  157.3997 H   0  0  0  0  0  0  0  0  0  0  0  0
  150.4066  136.7205  158.9548 H   0  0  0  0  0  0  0  0  0  0  0  0
  151.6937  143.3641  156.2601 H   0  0  0  0  0  0  0  0  0  0  0  0
  150.1233  143.1463  157.0308 H   0  0  0  0  0  0  0  0  0  0  0  0
  152.3735  144.6355  158.1006 H   0  0  0  0  0  0  0  0  0  0  0  0
  150.8660  144.2459  158.9649 H   0  0  0  0  0  0  0  0  0  0  0  0
  153.2119  143.9001  160.8308 H   0  0  0  0  0  0  0  0  0  0  0  0
  154.3000  141.8842  161.8403 H   0  0  0  0  0  0  0  0  0  0  0  0
  154.1080  139.6698  160.7228 H   0  0  0  0  0  0  0  0  0  0  0  0
  152.8262  139.4350  158.6023 H   0  0  0  0  0  0  0  0  0  0  0  0
  149.5243  140.3788  153.7331 H   0  0  0  0  0  0  0  0  0  0  0  0
  151.2581  136.0667  154.0549 H   0  0  0  0  0  0  0  0  0  0  0  0
  148.5394  133.4388  154.1379 H   0  0  0  0  0  0  0  0  0  0  0  0
  1  2  1  0  0  0  0
  1 32  1  0  0  0  0
  2  3  1  0  0  0  0
  2 33  1  0  0  0  0
  2 34  1  0  0  0  0
  3 28  1  0  0  0  0
  3 26  1  0  0  0  0
  3  4  1  0  0  0  0
  4  5  1  0  0  0  0
  5 29  1  0  0  0  0
  5  6  1  0  0  0  0
  5 24  1  0  0  0  0
  6 23  1  0  0  0  0
  6  7  1  0  0  0  0
  7  8  2  0  0  0  0
  7 35  1  0  0  0  0
  8  9  1  0  0  0  0
  9 23  2  0  0  0  0
  9 10  1  0  0  0  0
 10 11  1  0  0  0  0
 10 20  2  0  0  0  0
 11 19  1  0  0  0  0
 11 12  1  0  0  0  0
 12 13  1  0  0  0  0
 12 36  1  0  0  0  0
 12 37  1  0  0  0  0
 13 14  1  0  0  0  0
 13 38  1  0  0  0  0
 13 39  1  0  0  0  0
 14 19  2  0  0  0  0
 14 15  1  0  0  0  0
 15 16  2  0  0  0  0
 15 40  1  0  0  0  0
 16 17  1  0  0  0  0
 16 41  1  0  0  0  0
 17 18  2  0  0  0  0
 17 42  1  0  0  0  0
 18 19  1  0  0  0  0
 18 43  1  0  0  0  0
 20 21  1  0  0  0  0
 21 22  2  0  0  0  0
 21 44  1  0  0  0  0
 22 23  1  0  0  0  0
 24 30  1  0  0  0  0
 24 25  1  0  0  0  0
 24 26  1  0  0  0  0
 25 45  1  0  0  0  0
 26 31  1  0  0  0  0
 26 27  1  0  0  0  0
 27 46  1  0  0  0  0
M  END
> <s_m_source_file>
AV-unprocessed.smi

> <i_m_source_file_index>
110

> <i_lp_mmshare_version>
43012

> <i_f3d_flags>
0

> <s_epik_input>
W09IXVtDSDJdW0NASF0xT1tDQEhdKFtDQEhdKFtPSF0pW0NAQEhdMVtPSF0pbihbY0hdbjIpYyhjMjMpbltjSF1uYzNOKFtDSDJdW0NIMl00KWMoYzQ1KVtjSF1bY0hdW2NIXVtjSF01

> <s_epik_cmdline>
J2VwaWtfcHl0aG9uJywgJy1waCcsICc3LjAnLCAnLXRuJywgJzgnLCAnLW1hJywgJzIwMCcsICctbWV0YWxfYmluZGluZycsICctaW1hZScsICc8aW5maWxlLm1hZT4nLCAnLW9tYWUnLCAnPG91dGZpbGUubWFlPic=

> <r_lp_tautomer_probability>
1

> <r_epik_Ionization_Penalty>
0.00068475

> <r_epik_Ionization_Penalty_Charging>
0

> <r_epik_Ionization_Penalty_Neutral>
0.00068475

> <r_epik_State_Penalty>
0.000417442

> <r_epik_Charging_Adjusted_Penalty>
0.000417442

> <i_epik_Tot_Q>
0

> <i_epik_Tot_abs_Q>
0

> <r_epik_Metal_State_Penalty>
-0

> <b_epik_Metal_Only>
0

> <s_epik_Chemistry_Notes>
This compound contains an acetal/aminal-like group ( X-CH(R)-Y where X, Y are N, S, or O) that may be acid/base labile, releasing an aldehyde.

> <s_lp_Force_Field>
OPLS_2005

> <r_lp_Energy>
62.6904

> <b_lp_Chiralities_Consistent>
1

> <s_lp_Variant>
AV-unprocessed.smi:110-6

> <Gold.Version>
5.8.1

> <Gold.Id.Protein>
6NUR|6NUR_protein|mol2

> <Gold.PLP.Fitness>
51.6020

> <Gold.PLP.PLP>
-40.2743

> <Gold.PLP.part.hbond>
-4.0000

> <Gold.PLP.part.metal>
0.0000

> <Gold.PLP.part.buried>
-1.6789

> <Gold.PLP.part.nonpolar>
-34.2080

> <Gold.PLP.part.repulsive>
0.2188

> <Gold.PLP.ligand.clash>
0.0000

> <Gold.PLP.ligand.torsion>
0.2348

> <Gold.PLP.Chemscore.Hbond>
2.9108

> <Gold.PLP.Chemscore.CHOScore>
1.0000

> <Gold.PLP.Chemscore.Metal>
0.0000

> <Gold.Chemscore.Hbonds>
donor molecule, donor type, donor heavy atom, donor atom, acceptor molecule, acceptor atom, score
      P1  H  6896  6907       L1     1  0.66
      L1  C    21    44       P1  7957  0.84

> <Gold.PLP.Chemscore.Internal.Correction>
0.0648

> <Gold.Rescore>
     Score         DG    S(hbond)    S(metal)    S(lipo)     H(rot)  DE(clash)    DE(int)     intcor
     13.16     -14.94       1.91        0.00     100.21       3.38       0.05       1.73       ----

> <Gold.Chemscore.Fitness>
13.1604

> <Gold.Chemscore.DG>
-14.9379

> <Gold.Chemscore.ZeroCoef>
-5.4800

> <Gold.Chemscore.Hbond>
1.9149

> <Gold.Chemscore.Metal>
0.0000

> <Gold.Chemscore.Lipo>
100.2067

> <Gold.Chemscore.Internal_Hbond>
0.0000

> <Gold.Chemscore.DEClash>
0.0506

> <Gold.Chemscore.DEInternal>
1.7269

> <Gold.Chemscore.Rot>
3.3837

> <Gold.Chemscore.Internal.Correction>
   9.000000E+99

> <Gold.Chemscore.Hbonds>
donor molecule, donor type, donor heavy atom, donor atom, acceptor molecule, acceptor atom, score
      P1  H  6896  6907       L1     1  0.17

> <Gold.Chemscore.Hbond.Weighted>
-6.3959

> <Gold.Chemscore.Metal.Weighted>
-0.0000

> <Gold.Chemscore.Lipo.Weighted>
-11.7242

> <Gold.Chemscore.Internal_Hbond.Weighted>
0.0000

> <Gold.Chemscore.DEClash.Weighted>
0.0506

> <Gold.Chemscore.DEInternal.Weighted>
1.7269

> <Gold.Chemscore.Rot.Weighted>
8.6622

> <Gold.Chemscore.Internal.Correction.Weighted>
   9.000000E+99

> <Gold.Protein.RotatedTorsions>
[ 6907 6896 6895 6894 ] final -146.38 input  -60.11 | X-H torsion
[ 7974 7965 7964 7962 ] final -138.86 input  175.53 | X-H torsion
[ 8008 7997 7996 7995 ] final  176.15 input   59.86 | X-H torsion
[ 10167 10162 10161 10158 ] final  -98.86 input  -65.29 | X-H torsion
[ 10718 10713 10712 10709 ] final -130.03 input   66.30 | X-H torsion
[ 10763 10752 10751 10750 ] final  -51.12 input  -60.55 | X-H torsion
[ 11005 11000 10999 10996 ] final -137.52 input  -57.11 | X-H torsion

> <Gold.Protein.ActiveResidues>
 VAL166  LYS551  ARG553  GLY616  TRP617  ASP618  TYR619  PRO620  LYS621  CYS622 
 ASP623  PHE694  ASN695  SER759  ASP760  ASP761  ALA762  ILE779  LEU786  VAL792 
 PHE793  MET794  SER795  GLU796  ALA797  LYS798  CYS799  TRP800  GLU811  SER814 

> <Gold.Protein.RotatedAtoms>
  151.1409  133.4972  159.2596 H   0  0  0  0  0  0  0  0  0  0  0  0  # atno 6907 bound_to 6896
  151.1656  135.0293  159.8739 H   0  0  0  0  0  0  0  0  0  0  0  0  # atno 6908 bound_to 6896
  152.5462  134.1278  159.8479 H   0  0  0  0  0  0  0  0  0  0  0  0  # atno 6909 bound_to 6896
  144.8724  140.6386  143.5258 H   0  0  0  0  0  0  0  0  0  0  0  0  # atno 7974 bound_to 7965
  156.0795  140.1391  156.9729 H   0  0  0  0  0  0  0  0  0  0  0  0  # atno 8008 bound_to 7997
  154.4577  140.0955  156.6854 H   0  0  0  0  0  0  0  0  0  0  0  0  # atno 8009 bound_to 7997
  155.5098  140.3453  155.4388 H   0  0  0  0  0  0  0  0  0  0  0  0  # atno 8010 bound_to 7997
  140.2685  143.3360  152.0558 H   0  0  0  0  0  0  0  0  0  0  0  0  # atno 10167 bound_to 10162
  156.2105  130.6915  151.0644 H   0  0  0  0  0  0  0  0  0  0  0  0  # atno 10718 bound_to 10713
  154.1215  135.6534  153.4904 H   0  0  0  0  0  0  0  0  0  0  0  0  # atno 10763 bound_to 10752
  153.0224  135.5271  154.7092 H   0  0  0  0  0  0  0  0  0  0  0  0  # atno 10764 bound_to 10752
  154.6301  135.2975  155.0197 H   0  0  0  0  0  0  0  0  0  0  0  0  # atno 10765 bound_to 10752
  140.8703  134.2059  157.4655 H   0  0  0  0  0  0  0  0  0  0  0  0  # atno 11005 bound_to 11000
  145.4106  139.1581  143.4128 LP  0  0  0  0  0  0  0  0  0  0  0  0  # atno 17320 bound_to 7965
  146.2939  140.4210  142.8729 LP  0  0  0  0  0  0  0  0  0  0  0  0  # atno 17321 bound_to 7965
  139.4996  144.6672  151.6328 LP  0  0  0  0  0  0  0  0  0  0  0  0  # atno 17342 bound_to 10162
  140.5909  143.9781  150.6324 LP  0  0  0  0  0  0  0  0  0  0  0  0  # atno 17343 bound_to 10162
  157.7036  131.0766  150.6742 LP  0  0  0  0  0  0  0  0  0  0  0  0  # atno 17370 bound_to 10713
  156.6801  130.4565  149.5630 LP  0  0  0  0  0  0  0  0  0  0  0  0  # atno 17371 bound_to 10713
  139.8712  134.9771  156.4947 LP  0  0  0  0  0  0  0  0  0  0  0  0  # atno 17394 bound_to 11000
  140.8580  133.8081  155.9236 LP  0  0  0  0  0  0  0  0  0  0  0  0  # atno 17395 bound_to 11000

$$$$
