AV-unprocessed.smi:1813|AV-procd|sdf|7346|dock9
  -GOLD-   22720 9 13D 1   1.00000     0.00000
 Structure written by MMmdl.
 39 40  0  0  0  0  0  0  0  0  3 V2000
  151.1231  140.3563  157.6070 C   0  0  0  0  0  0  0  0  0  0  0  0
  150.1990  140.9070  156.6272 N   0  0  0  0  0  0  0  0  0  0  0  0
  150.2648  140.6657  155.3107 C   0  0  0  0  0  0  0  0  0  0  0  0
  151.1191  139.9407  154.7997 O   0  0  0  0  0  0  0  0  0  0  0  0
  149.1898  141.3319  154.4458 C   0  0  0  0  0  0  0  0  0  0  0  0
  148.4615  140.3702  153.5790 N   0  3  2  0  0  0  0  0  0  0  0  0
  147.1325  140.8716  153.1381 C   0  0  0  0  0  0  0  0  0  0  0  0
  146.4832  139.9069  152.1330 C   0  0  0  0  0  0  0  0  0  0  0  0
  146.3568  138.4941  152.7239 C   0  0  1  0  0  0  0  0  0  0  0  0
  145.8180  137.5845  151.7176 N   0  0  0  0  0  0  0  0  0  0  0  0
  145.5107  136.2936  151.9084 C   0  0  0  0  0  0  0  0  0  0  0  0
  145.6792  135.7784  153.0160 O   0  0  0  0  0  0  0  0  0  0  0  0
  145.0320  135.6808  150.8025 N   0  5  0  0  0  0  0  0  0  0  0  0
  145.2101  134.3600  150.6370 C   0  0  0  0  0  0  0  0  0  0  0  0
  146.2402  133.6909  151.1670 N   0  0  0  0  0  0  0  0  0  0  0  0
  146.2262  132.3264  150.8723 C   0  0  0  0  0  0  0  0  0  0  0  0
  145.1554  131.9460  150.1079 C   0  0  0  0  0  0  0  0  0  0  0  0
  144.1259  133.2985  149.7334 S   0  0  0  0  0  0  0  0  0  0  0  0
  147.7353  138.0144  153.2143 C   0  0  0  0  0  0  0  0  0  0  0  0
  148.3579  139.0223  154.1932 C   0  0  0  0  0  0  0  0  0  0  0  0
  150.8533  140.6989  158.6061 H   0  0  0  0  0  0  0  0  0  0  0  0
  152.1451  140.6775  157.4015 H   0  0  0  0  0  0  0  0  0  0  0  0
  151.0922  139.2660  157.6013 H   0  0  0  0  0  0  0  0  0  0  0  0
  149.4635  141.5060  156.9739 H   0  0  0  0  0  0  0  0  0  0  0  0
  148.4900  141.8082  155.1336 H   0  0  0  0  0  0  0  0  0  0  0  0
  149.6233  142.1284  153.8385 H   0  0  0  0  0  0  0  0  0  0  0  0
  146.4840  140.9998  154.0062 H   0  0  0  0  0  0  0  0  0  0  0  0
  147.2344  141.8529  152.6741 H   0  0  0  0  0  0  0  0  0  0  0  0
  145.4995  140.2806  151.8456 H   0  0  0  0  0  0  0  0  0  0  0  0
  147.0815  139.8774  151.2209 H   0  0  0  0  0  0  0  0  0  0  0  0
  145.6693  138.5378  153.5709 H   0  0  0  0  0  0  0  0  0  0  0  0
  145.6618  137.9622  150.7944 H   0  0  0  0  0  0  0  0  0  0  0  0
  147.0191  131.6986  151.2504 H   0  0  0  0  0  0  0  0  0  0  0  0
  144.9092  130.9598  149.7451 H   0  0  0  0  0  0  0  0  0  0  0  0
  147.6472  137.0416  153.6992 H   0  0  0  0  0  0  0  0  0  0  0  0
  148.4036  137.8747  152.3632 H   0  0  0  0  0  0  0  0  0  0  0  0
  149.3487  138.6710  154.4833 H   0  0  0  0  0  0  0  0  0  0  0  0
  147.7612  139.0807  155.1049 H   0  0  0  0  0  0  0  0  0  0  0  0
  149.0245  140.2593  152.7473 H   0  0  0  0  0  0  0  0  0  0  0  0
  1  2  1  0  0  0  0
  1 21  1  0  0  0  0
  1 22  1  0  0  0  0
  1 23  1  0  0  0  0
  2  3  1  0  0  0  0
  2 24  1  0  0  0  0
  3  4  2  0  0  0  0
  3  5  1  0  0  0  0
  5  6  1  0  0  0  0
  5 25  1  0  0  0  0
  5 26  1  0  0  0  0
  6 20  1  0  0  0  0
  6  7  1  0  0  0  0
  6 39  1  0  0  0  0
  7  8  1  0  0  0  0
  7 27  1  0  0  0  0
  7 28  1  0  0  0  0
  8  9  1  0  0  0  0
  8 29  1  0  0  0  0
  8 30  1  0  0  0  0
  9 10  1  0  0  0  0
  9 19  1  0  0  0  0
  9 31  1  0  0  0  0
 10 11  1  0  0  0  0
 10 32  1  0  0  0  0
 11 12  2  0  0  0  0
 11 13  1  0  0  0  0
 13 14  1  0  0  0  0
 14 18  1  0  0  0  0
 14 15  2  0  0  0  0
 15 16  1  0  0  0  0
 16 17  2  0  0  0  0
 16 33  1  0  0  0  0
 17 18  1  0  0  0  0
 17 34  1  0  0  0  0
 19 20  1  0  0  0  0
 19 35  1  0  0  0  0
 19 36  1  0  0  0  0
 20 37  1  0  0  0  0
 20 38  1  0  0  0  0
M  CHG  1   6   1
M  CHG  1  13  -1
M  END
> <s_m_source_file>
AV-unprocessed.smi

> <i_m_source_file_index>
1813

> <i_lp_mmshare_version>
43012

> <i_f3d_flags>
0

> <s_epik_input>
W0NIM11bTkhdQyg9TylbQ0gyXU4xW0NIMl1bQ0gyXVtDSF0oW0NIMl1bQ0gyXTEpW05IXUMoPU8pW05IXWMybltjSF1bY0hdczI=

> <s_epik_cmdline>
J2VwaWtfcHl0aG9uJywgJy1waCcsICc3LjAnLCAnLXRuJywgJzgnLCAnLW1hJywgJzIwMCcsICctbWV0YWxfYmluZGluZycsICctaW1hZScsICc8aW5maWxlLm1hZT4nLCAnLW9tYWUnLCAnPG91dGZpbGUubWFlPic=

> <r_lp_tautomer_probability>
0.999

> <r_epik_Ionization_Penalty>
7.12128

> <r_epik_Ionization_Penalty_Charging>
6.25357

> <r_epik_Ionization_Penalty_Neutral>
0.867707

> <r_epik_State_Penalty>
6.33838

> <r_epik_Charging_Adjusted_Penalty>
12.592

> <i_epik_Tot_Q>
0

> <i_epik_Tot_abs_Q>
2

> <r_epik_Metal_State_Penalty>
2.34161

> <b_epik_Metal_Only>
1

> <s_lp_Force_Field>
OPLS_2005

> <r_lp_Energy>
3.88073

> <b_lp_Chiralities_Consistent>
1

> <s_lp_Variant>
AV-unprocessed.smi:1813-7

> <Gold.Version>
5.8.1

> <Gold.Id.Protein>
6NUR|6NUR_protein|mol2

> <Gold.PLP.Fitness>
39.7729

> <Gold.PLP.PLP>
-30.6673

> <Gold.PLP.part.hbond>
-3.0000

> <Gold.PLP.part.metal>
0.0000

> <Gold.PLP.part.buried>
3.4134

> <Gold.PLP.part.nonpolar>
-31.0722

> <Gold.PLP.part.repulsive>
0.8267

> <Gold.PLP.ligand.clash>
0.0000

> <Gold.PLP.ligand.torsion>
0.6780

> <Gold.PLP.Chemscore.Hbond>
2.4742

> <Gold.PLP.Chemscore.CHOScore>
1.0000

> <Gold.PLP.Chemscore.Metal>
0.0000

> <Gold.Chemscore.Hbonds>
donor molecule, donor type, donor heavy atom, donor atom, acceptor molecule, acceptor atom, score
      L1  H     6    39       P1  7957  1.00
      L1  H    10    32       P1 10171  0.48
      P1  H  7989  7998       L1     4  1.00
      L1  C    16    33       P1 10747  1.00

> <Gold.PLP.Chemscore.Internal.Correction>
0.0390

> <Gold.Rescore>
     Score         DG    S(hbond)    S(metal)    S(lipo)     H(rot)  DE(clash)    DE(int)     intcor
     13.17     -18.80       2.65        0.00      76.57       1.76       3.01       2.62       ----

> <Gold.Chemscore.Fitness>
13.1665

> <Gold.Chemscore.DG>
-18.7980

> <Gold.Chemscore.ZeroCoef>
-5.4800

> <Gold.Chemscore.Hbond>
2.6543

> <Gold.Chemscore.Metal>
0.0000

> <Gold.Chemscore.Lipo>
76.5719

> <Gold.Chemscore.Internal_Hbond>
0.0000

> <Gold.Chemscore.DEClash>
3.0114

> <Gold.Chemscore.DEInternal>
2.6202

> <Gold.Chemscore.Rot>
1.7603

> <Gold.Chemscore.Internal.Correction>
   9.000000E+99

> <Gold.Chemscore.Hbonds>
donor molecule, donor type, donor heavy atom, donor atom, acceptor molecule, acceptor atom, score
      L1  H     6    39       P1  7957  1.00
      L1  H    10    32       P1 10171  0.48
      P1  H  7989  7998       L1     4  0.35

> <Gold.Chemscore.Hbond.Weighted>
-8.8655

> <Gold.Chemscore.Metal.Weighted>
-0.0000

> <Gold.Chemscore.Lipo.Weighted>
-8.9589

> <Gold.Chemscore.Internal_Hbond.Weighted>
0.0000

> <Gold.Chemscore.DEClash.Weighted>
3.0114

> <Gold.Chemscore.DEInternal.Weighted>
2.6202

> <Gold.Chemscore.Rot.Weighted>
4.5064

> <Gold.Chemscore.Internal.Correction.Weighted>
   9.000000E+99

> <Gold.Protein.RotatedTorsions>
[ 6907 6896 6895 6894 ] final  -88.18 input  -60.11 | X-H torsion
[ 7974 7965 7964 7962 ] final   68.15 input  175.53 | X-H torsion
[ 8008 7997 7996 7995 ] final   68.63 input   59.86 | X-H torsion
[ 10167 10162 10161 10158 ] final -157.90 input  -65.29 | X-H torsion
[ 10718 10713 10712 10709 ] final  -80.97 input   66.30 | X-H torsion
[ 10763 10752 10751 10750 ] final  110.97 input  -60.55 | X-H torsion
[ 11005 11000 10999 10996 ] final -113.80 input  -57.11 | X-H torsion

> <Gold.Protein.ActiveResidues>
 VAL166  LYS551  ARG553  GLY616  TRP617  ASP618  TYR619  PRO620  LYS621  CYS622 
 ASP623  PHE694  ASN695  SER759  ASP760  ASP761  ALA762  ILE779  LEU786  VAL792 
 PHE793  MET794  SER795  GLU796  ALA797  LYS798  CYS799  TRP800  GLU811  SER814 

> <Gold.Protein.RotatedAtoms>
  150.6868  134.2781  159.4615 H   0  0  0  0  0  0  0  0  0  0  0  0  # atno 6907 bound_to 6896
  152.0697  134.9538  160.0584 H   0  0  0  0  0  0  0  0  0  0  0  0  # atno 6908 bound_to 6896
  152.0933  133.4177  159.4590 H   0  0  0  0  0  0  0  0  0  0  0  0  # atno 6909 bound_to 6896
  145.8061  139.3007  143.1126 H   0  0  0  0  0  0  0  0  0  0  0  0  # atno 7974 bound_to 7965
  155.7113  140.3494  155.4975 H   0  0  0  0  0  0  0  0  0  0  0  0  # atno 8008 bound_to 7997
  155.9353  140.1091  157.1121 H   0  0  0  0  0  0  0  0  0  0  0  0  # atno 8009 bound_to 7997
  154.4092  140.1223  156.4843 H   0  0  0  0  0  0  0  0  0  0  0  0  # atno 8010 bound_to 7997
  139.6734  143.9706  152.2296 H   0  0  0  0  0  0  0  0  0  0  0  0  # atno 10167 bound_to 10162
  156.0059  130.4590  150.3881 H   0  0  0  0  0  0  0  0  0  0  0  0  # atno 10718 bound_to 10713
  153.4567  135.3731  155.2315 H   0  0  0  0  0  0  0  0  0  0  0  0  # atno 10763 bound_to 10752
  154.8757  135.3898  154.3974 H   0  0  0  0  0  0  0  0  0  0  0  0  # atno 10764 bound_to 10752
  153.4541  135.7086  153.6154 H   0  0  0  0  0  0  0  0  0  0  0  0  # atno 10765 bound_to 10752
  141.0592  133.9563  157.2699 H   0  0  0  0  0  0  0  0  0  0  0  0  # atno 11005 bound_to 11000
  145.9827  140.8669  143.0106 LP  0  0  0  0  0  0  0  0  0  0  0  0  # atno 17320 bound_to 7965
  144.6763  140.2102  143.7378 LP  0  0  0  0  0  0  0  0  0  0  0  0  # atno 17321 bound_to 7965
  139.9476  144.6641  150.8204 LP  0  0  0  0  0  0  0  0  0  0  0  0  # atno 17342 bound_to 10162
  140.7626  143.3203  151.2637 LP  0  0  0  0  0  0  0  0  0  0  0  0  # atno 17343 bound_to 10162
  157.1957  131.0426  151.2677 LP  0  0  0  0  0  0  0  0  0  0  0  0  # atno 17370 bound_to 10713
  157.4021  130.7339  149.6775 LP  0  0  0  0  0  0  0  0  0  0  0  0  # atno 17371 bound_to 10713
  139.9417  135.0190  156.8728 LP  0  0  0  0  0  0  0  0  0  0  0  0  # atno 17394 bound_to 11000
  140.5903  134.0268  155.7497 LP  0  0  0  0  0  0  0  0  0  0  0  0  # atno 17395 bound_to 11000

$$$$
