AV-unprocessed.smi:2158|AV-procd|sdf|8789|dock2
  -GOLD-   2272011563D 1   1.00000     0.00000
 Structure written by MMmdl.
 30 30  0  0  0  0  0  0  0  0  2 V2000
  151.3723  145.0525  159.0476 C   0  0  0  0  0  0  0  0  0  0  0  0
  152.3623  144.1066  159.7432 C   0  0  0  0  0  0  0  0  0  0  0  0
  152.0622  142.6146  159.5058 C   0  0  2  0  0  0  0  0  0  0  0  0
  153.1627  141.7136  160.0872 C   0  0  0  0  0  0  0  0  0  0  0  0
  151.9077  142.3535  158.0768 N   0  0  0  0  0  0  0  0  0  0  0  0
  150.8006  141.8789  157.4855 C   0  0  0  0  0  0  0  0  0  0  0  0
  149.7819  141.5679  158.1042 O   0  0  0  0  0  0  0  0  0  0  0  0
  150.8704  141.7024  155.9634 C   0  0  0  0  0  0  0  0  0  0  0  0
  151.0733  140.2996  155.5687 N   0  0  0  0  0  0  0  0  0  0  0  0
  150.1961  139.7533  154.6152 C   0  0  0  0  0  0  0  0  0  0  0  0
  150.3121  138.4806  154.1907 C   0  0  0  0  0  0  0  0  0  0  0  0
  151.3823  137.6620  154.7469 C   0  0  0  0  0  0  0  0  0  0  0  0
  151.5002  136.4962  154.3740 O   0  0  0  0  0  0  0  0  0  0  0  0
  152.2103  138.2389  155.6665 N   0  5  0  0  0  0  0  0  0  0  0  0
  152.0824  139.5358  156.0866 C   0  0  0  0  0  0  0  0  0  0  0  0
  152.8430  140.0383  156.9152 O   0  0  0  0  0  0  0  0  0  0  0  0
  151.6002  146.0920  159.2835 H   0  0  0  0  0  0  0  0  0  0  0  0
  150.3492  144.8557  159.3687 H   0  0  0  0  0  0  0  0  0  0  0  0
  151.4081  144.9459  157.9630 H   0  0  0  0  0  0  0  0  0  0  0  0
  153.3750  144.3382  159.4110 H   0  0  0  0  0  0  0  0  0  0  0  0
  152.3416  144.3095  160.8146 H   0  0  0  0  0  0  0  0  0  0  0  0
  151.1265  142.3801  160.0170 H   0  0  0  0  0  0  0  0  0  0  0  0
  153.2789  141.8784  161.1586 H   0  0  0  0  0  0  0  0  0  0  0  0
  154.1258  141.9079  159.6142 H   0  0  0  0  0  0  0  0  0  0  0  0
  152.9267  140.6587  159.9426 H   0  0  0  0  0  0  0  0  0  0  0  0
  152.6958  142.5779  157.4867 H   0  0  0  0  0  0  0  0  0  0  0  0
  149.9658  142.0971  155.4963 H   0  0  0  0  0  0  0  0  0  0  0  0
  151.6818  142.3262  155.5870 H   0  0  0  0  0  0  0  0  0  0  0  0
  149.4364  140.4280  154.2490 H   0  0  0  0  0  0  0  0  0  0  0  0
  149.6325  138.0768  153.4549 H   0  0  0  0  0  0  0  0  0  0  0  0
  1  2  1  0  0  0  0
  1 17  1  0  0  0  0
  1 18  1  0  0  0  0
  1 19  1  0  0  0  0
  2  3  1  0  0  0  0
  2 20  1  0  0  0  0
  2 21  1  0  0  0  0
  3  4  1  0  0  0  0
  3  5  1  0  0  0  0
  3 22  1  0  0  0  0
  4 23  1  0  0  0  0
  4 24  1  0  0  0  0
  4 25  1  0  0  0  0
  5  6  1  0  0  0  0
  5 26  1  0  0  0  0
  6  7  2  0  0  0  0
  6  8  1  0  0  0  0
  8  9  1  0  0  0  0
  8 27  1  0  0  0  0
  8 28  1  0  0  0  0
  9 15  1  0  0  0  0
  9 10  1  0  0  0  0
 10 11  2  0  0  0  0
 10 29  1  0  0  0  0
 11 12  1  0  0  0  0
 11 30  1  0  0  0  0
 12 13  2  0  0  0  0
 12 14  1  0  0  0  0
 14 15  1  0  0  0  0
 15 16  2  0  0  0  0
M  CHG  1  14  -1
M  END
> <s_m_source_file>
AV-unprocessed.smi

> <i_m_source_file_index>
2158

> <i_lp_mmshare_version>
43012

> <i_f3d_flags>
0

> <s_epik_input>
W0NIM11bQ0gyXVtDQEhdKFtDSDNdKVtOSF1DKD1PKVtDSDJdbjFbY0hdW2NIXWMoPU8pW25IXWMxPU8=

> <s_epik_cmdline>
J2VwaWtfcHl0aG9uJywgJy1waCcsICc3LjAnLCAnLXRuJywgJzgnLCAnLW1hJywgJzIwMCcsICctbWV0YWxfYmluZGluZycsICctaW1hZScsICc8aW5maWxlLm1hZT4nLCAnLW9tYWUnLCAnPG91dGZpbGUubWFlPic=

> <r_lp_tautomer_probability>
0.999537

> <r_epik_Ionization_Penalty>
3.08395

> <r_epik_Ionization_Penalty_Charging>
2.76809e-08

> <r_epik_Ionization_Penalty_Neutral>
3.08395

> <r_epik_State_Penalty>
3.08299

> <r_epik_Charging_Adjusted_Penalty>
3.08299

> <i_epik_Tot_Q>
-1

> <i_epik_Tot_abs_Q>
1

> <r_epik_Metal_State_Penalty>
0.460296

> <b_epik_Metal_Only>
1

> <s_lp_Force_Field>
OPLS_2005

> <r_lp_Energy>
12.2606

> <b_lp_Chiralities_Consistent>
1

> <s_lp_Variant>
AV-unprocessed.smi:2158-3

> <Gold.Version>
5.8.1

> <Gold.Id.Protein>
6NUR|6NUR_protein|mol2

> <Gold.PLP.Fitness>
40.8539

> <Gold.PLP.PLP>
-35.4933

> <Gold.PLP.part.hbond>
-2.0000

> <Gold.PLP.part.metal>
0.0000

> <Gold.PLP.part.buried>
-2.3643

> <Gold.PLP.part.nonpolar>
-30.0443

> <Gold.PLP.part.repulsive>
0.2891

> <Gold.PLP.ligand.clash>
0.0000

> <Gold.PLP.ligand.torsion>
0.3320

> <Gold.PLP.Chemscore.Hbond>
2.0000

> <Gold.PLP.Chemscore.CHOScore>
0.0000

> <Gold.PLP.Chemscore.Metal>
0.0000

> <Gold.Chemscore.Hbonds>
donor molecule, donor type, donor heavy atom, donor atom, acceptor molecule, acceptor atom, score
      P1  H  7997  8009       L1    16  1.00
      P1  H 10752 10765       L1    13  1.00

> <Gold.PLP.Chemscore.Internal.Correction>
0.0246

> <Gold.Rescore>
     Score         DG    S(hbond)    S(metal)    S(lipo)     H(rot)  DE(clash)    DE(int)     intcor
     11.74     -14.84       1.91        0.00      68.04       1.94       0.01       3.09       ----

> <Gold.Chemscore.Fitness>
11.7443

> <Gold.Chemscore.DG>
-14.8446

> <Gold.Chemscore.ZeroCoef>
-5.4800

> <Gold.Chemscore.Hbond>
1.9112

> <Gold.Chemscore.Metal>
0.0000

> <Gold.Chemscore.Lipo>
68.0378

> <Gold.Chemscore.Internal_Hbond>
0.0000

> <Gold.Chemscore.DEClash>
0.0130

> <Gold.Chemscore.DEInternal>
3.0873

> <Gold.Chemscore.Rot>
1.9449

> <Gold.Chemscore.Internal.Correction>
   9.000000E+99

> <Gold.Chemscore.Hbonds>
donor molecule, donor type, donor heavy atom, donor atom, acceptor molecule, acceptor atom, score
      P1  H  7997  8009       L1    16  0.93
      P1  H 10752 10765       L1    13  1.00

> <Gold.Chemscore.Hbond.Weighted>
-6.3832

> <Gold.Chemscore.Metal.Weighted>
-0.0000

> <Gold.Chemscore.Lipo.Weighted>
-7.9604

> <Gold.Chemscore.Internal_Hbond.Weighted>
0.0000

> <Gold.Chemscore.DEClash.Weighted>
0.0130

> <Gold.Chemscore.DEInternal.Weighted>
3.0873

> <Gold.Chemscore.Rot.Weighted>
4.9791

> <Gold.Chemscore.Internal.Correction.Weighted>
   9.000000E+99

> <Gold.Protein.RotatedTorsions>
[ 6907 6896 6895 6894 ] final  -19.24 input  -60.11 | X-H torsion
[ 7974 7965 7964 7962 ] final  -30.73 input  175.53 | X-H torsion
[ 8008 7997 7996 7995 ] final  172.11 input   59.86 | X-H torsion
[ 10167 10162 10161 10158 ] final   41.33 input  -65.29 | X-H torsion
[ 10718 10713 10712 10709 ] final  172.90 input   66.30 | X-H torsion
[ 10763 10752 10751 10750 ] final  162.25 input  -60.55 | X-H torsion
[ 11005 11000 10999 10996 ] final   16.60 input  -57.11 | X-H torsion

> <Gold.Protein.ActiveResidues>
 VAL166  LYS551  ARG553  GLY616  TRP617  ASP618  TYR619  PRO620  LYS621  CYS622 
 ASP623  PHE694  ASN695  SER759  ASP760  ASP761  ALA762  ILE779  LEU786  VAL792 
 PHE793  MET794  SER795  GLU796  ALA797  LYS798  CYS799  TRP800  GLU811  SER814 

> <Gold.Protein.RotatedAtoms>
  151.2660  135.0669  159.9115 H   0  0  0  0  0  0  0  0  0  0  0  0  # atno 6907 bound_to 6896
  152.5358  134.0180  159.7979 H   0  0  0  0  0  0  0  0  0  0  0  0  # atno 6908 bound_to 6896
  151.0411  133.5655  159.2682 H   0  0  0  0  0  0  0  0  0  0  0  0  # atno 6909 bound_to 6896
  146.1121  140.5577  142.8773 H   0  0  0  0  0  0  0  0  0  0  0  0  # atno 7974 bound_to 7965
  156.1206  140.1494  156.9210 H   0  0  0  0  0  0  0  0  0  0  0  0  # atno 8008 bound_to 7997
  154.4833  140.0873  156.7469 H   0  0  0  0  0  0  0  0  0  0  0  0  # atno 8009 bound_to 7997
  155.4435  140.3432  155.4295 H   0  0  0  0  0  0  0  0  0  0  0  0  # atno 8010 bound_to 7997
  140.3653  144.2175  150.6136 H   0  0  0  0  0  0  0  0  0  0  0  0  # atno 10167 bound_to 10162
  156.9722  131.0093  151.2902 H   0  0  0  0  0  0  0  0  0  0  0  0  # atno 10718 bound_to 10713
  154.2755  135.2764  155.2720 H   0  0  0  0  0  0  0  0  0  0  0  0  # atno 10763 bound_to 10752
  154.5264  135.5742  153.6726 H   0  0  0  0  0  0  0  0  0  0  0  0  # atno 10764 bound_to 10752
  152.9938  135.6217  154.2912 H   0  0  0  0  0  0  0  0  0  0  0  0  # atno 10765 bound_to 10752
  140.4453  134.1280  155.7695 H   0  0  0  0  0  0  0  0  0  0  0  0  # atno 11005 bound_to 11000
  144.7521  140.5216  143.6795 LP  0  0  0  0  0  0  0  0  0  0  0  0  # atno 17320 bound_to 7965
  145.5642  139.1480  143.3324 LP  0  0  0  0  0  0  0  0  0  0  0  0  # atno 17321 bound_to 7965
  140.5086  143.2297  151.8569 LP  0  0  0  0  0  0  0  0  0  0  0  0  # atno 17342 bound_to 10162
  139.4809  144.4976  151.9103 LP  0  0  0  0  0  0  0  0  0  0  0  0  # atno 17343 bound_to 10162
  157.5585  130.8229  149.8235 LP  0  0  0  0  0  0  0  0  0  0  0  0  # atno 17370 bound_to 10713
  156.0278  130.3774  150.1773 LP  0  0  0  0  0  0  0  0  0  0  0  0  # atno 17371 bound_to 10713
  141.1688  133.8650  157.1634 LP  0  0  0  0  0  0  0  0  0  0  0  0  # atno 17394 bound_to 11000
  140.0043  135.0015  157.0258 LP  0  0  0  0  0  0  0  0  0  0  0  0  # atno 17395 bound_to 11000

$$$$
