AV-unprocessed.smi:2952|AV-procd|sdf|11292|dock6
  -GOLD-   2272016183D 1   1.00000     0.00000
 Structure written by MMmdl.
 39 41  0  0  0  0  0  0  0  0  2 V2000
  153.1602  139.6088  154.8035 O   0  0  0  0  0  0  0  0  0  0  0  0
  151.9917  138.9386  155.2278 C   0  0  0  0  0  0  0  0  0  0  0  0
  151.6785  139.2463  156.7010 C   0  0  0  0  0  0  0  0  0  0  0  0
  151.3511  140.6634  156.9308 N   0  0  0  0  0  0  0  0  0  0  0  0
  150.5287  141.4995  156.2328 C   0  0  0  0  0  0  0  0  0  0  0  0
  149.7220  141.1627  155.0179 C   0  0  0  0  0  0  0  0  0  0  0  0
  148.3290  141.5945  155.1006 N   0  0  0  0  0  0  0  0  0  0  0  0
  147.5954  140.9297  156.1751 C   0  0  0  0  0  0  0  0  0  0  0  0
  146.1295  141.3929  156.2361 C   0  0  0  0  0  0  0  0  0  0  0  0
  145.5051  141.1695  154.9758 O   0  0  0  0  0  0  0  0  0  0  0  0
  146.1664  141.8394  153.9071 C   0  0  0  0  0  0  0  0  0  0  0  0
  147.6320  141.3767  153.8383 C   0  0  0  0  0  0  0  0  0  0  0  0
  150.5707  142.7144  156.8486 N   0  3  0  0  0  0  0  0  0  0  0  0
  151.4220  142.6557  157.9523 C   0  0  0  0  0  0  0  0  0  0  0  0
  151.7786  143.6302  158.8790 C   0  0  0  0  0  0  0  0  0  0  0  0
  152.6727  143.2383  159.8967 C   0  0  0  0  0  0  0  0  0  0  0  0
  153.1769  141.9230  159.9671 C   0  0  0  0  0  0  0  0  0  0  0  0
  154.2647  141.5002  161.2373 Cl  0  0  0  0  0  0  0  0  0  0  0  0
  152.8082  140.9453  159.0195 C   0  0  0  0  0  0  0  0  0  0  0  0
  151.9253  141.3401  158.0143 C   0  0  0  0  0  0  0  0  0  0  0  0
  153.1084  139.7394  153.8686 H   0  0  0  0  0  0  0  0  0  0  0  0
  151.1592  139.2483  154.5959 H   0  0  0  0  0  0  0  0  0  0  0  0
  152.1240  137.8665  155.0801 H   0  0  0  0  0  0  0  0  0  0  0  0
  150.8658  138.6202  157.0688 H   0  0  0  0  0  0  0  0  0  0  0  0
  152.5431  139.0036  157.3185 H   0  0  0  0  0  0  0  0  0  0  0  0
  150.2018  141.6383  154.1619 H   0  0  0  0  0  0  0  0  0  0  0  0
  149.7726  140.0875  154.8401 H   0  0  0  0  0  0  0  0  0  0  0  0
  147.6260  139.8487  156.0303 H   0  0  0  0  0  0  0  0  0  0  0  0
  148.0689  141.1304  157.1363 H   0  0  0  0  0  0  0  0  0  0  0  0
  145.5889  140.8412  157.0051 H   0  0  0  0  0  0  0  0  0  0  0  0
  146.0689  142.4506  156.4974 H   0  0  0  0  0  0  0  0  0  0  0  0
  145.6531  141.6147  152.9721 H   0  0  0  0  0  0  0  0  0  0  0  0
  146.1087  142.9191  154.0538 H   0  0  0  0  0  0  0  0  0  0  0  0
  148.1412  141.9125  153.0365 H   0  0  0  0  0  0  0  0  0  0  0  0
  147.6639  140.3181  153.5753 H   0  0  0  0  0  0  0  0  0  0  0  0
  151.3929  144.6379  158.8303 H   0  0  0  0  0  0  0  0  0  0  0  0
  152.9757  143.9617  160.6399 H   0  0  0  0  0  0  0  0  0  0  0  0
  153.1948  139.9393  159.0867 H   0  0  0  0  0  0  0  0  0  0  0  0
  150.0510  143.5238  156.5343 H   0  0  0  0  0  0  0  0  0  0  0  0
  1  2  1  0  0  0  0
  1 21  1  0  0  0  0
  2  3  1  0  0  0  0
  2 22  1  0  0  0  0
  2 23  1  0  0  0  0
  3  4  1  0  0  0  0
  3 24  1  0  0  0  0
  3 25  1  0  0  0  0
  4 20  1  0  0  0  0
  4  5  1  0  0  0  0
  5  6  1  0  0  0  0
  5 13  2  0  0  0  0
  6  7  1  0  0  0  0
  6 26  1  0  0  0  0
  6 27  1  0  0  0  0
  7 12  1  0  0  0  0
  7  8  1  0  0  0  0
  8  9  1  0  0  0  0
  8 28  1  0  0  0  0
  8 29  1  0  0  0  0
  9 10  1  0  0  0  0
  9 30  1  0  0  0  0
  9 31  1  0  0  0  0
 10 11  1  0  0  0  0
 11 12  1  0  0  0  0
 11 32  1  0  0  0  0
 11 33  1  0  0  0  0
 12 34  1  0  0  0  0
 12 35  1  0  0  0  0
 13 14  1  0  0  0  0
 13 39  1  0  0  0  0
 14 20  2  0  0  0  0
 14 15  1  0  0  0  0
 15 16  2  0  0  0  0
 15 36  1  0  0  0  0
 16 17  1  0  0  0  0
 16 37  1  0  0  0  0
 17 18  1  0  0  0  0
 17 19  2  0  0  0  0
 19 20  1  0  0  0  0
 19 38  1  0  0  0  0
M  CHG  1  13   1
M  END
> <s_m_source_file>
AV-unprocessed.smi

> <i_m_source_file_index>
2952

> <i_lp_mmshare_version>
43012

> <i_f3d_flags>
0

> <s_epik_input>
W2NIXTFbY0hdYyhDbClbY0hdYyhjMTIpbihbQ0gyXVtDSDJdW09IXSljKG4yKVtDSDJdTjNbQ0gyXVtDSDJdT1tDSDJdW0NIMl0z

> <s_epik_cmdline>
J2VwaWtfcHl0aG9uJywgJy1waCcsICc3LjAnLCAnLXRuJywgJzgnLCAnLW1hJywgJzIwMCcsICctbWV0YWxfYmluZGluZycsICctaW1hZScsICc8aW5maWxlLm1hZT4nLCAnLW9tYWUnLCAnPG91dGZpbGUubWFlPic=

> <r_epik_Ionization_Penalty>
1.17151

> <r_epik_Ionization_Penalty_Charging>
1.1712

> <r_epik_Ionization_Penalty_Neutral>
0.000312352

> <r_epik_State_Penalty>
1.2343

> <r_epik_Charging_Adjusted_Penalty>
2.4055

> <i_epik_Tot_Q>
1

> <i_epik_Tot_abs_Q>
1

> <r_epik_Metal_State_Penalty>
5.24833

> <b_epik_Metal_Only>
0

> <s_lp_Force_Field>
OPLS_2005

> <r_lp_Energy>
24.7886

> <b_lp_Chiralities_Consistent>
1

> <s_lp_Variant>
AV-unprocessed.smi:2952-2

> <Gold.Version>
5.8.1

> <Gold.Id.Protein>
6NUR|6NUR_protein|mol2

> <Gold.PLP.Fitness>
52.7381

> <Gold.PLP.PLP>
-44.3553

> <Gold.PLP.part.hbond>
-3.0000

> <Gold.PLP.part.metal>
0.0000

> <Gold.PLP.part.buried>
-5.2008

> <Gold.PLP.part.nonpolar>
-36.7971

> <Gold.PLP.part.repulsive>
1.8801

> <Gold.PLP.ligand.clash>
0.0000

> <Gold.PLP.ligand.torsion>
0.3174

> <Gold.PLP.Chemscore.Hbond>
3.0000

> <Gold.PLP.Chemscore.CHOScore>
0.0000

> <Gold.PLP.Chemscore.Metal>
0.0000

> <Gold.Chemscore.Hbonds>
donor molecule, donor type, donor heavy atom, donor atom, acceptor molecule, acceptor atom, score
      L1  H    13    39       P1  8028  2.00
      P1  H  7997  8008       L1     1  1.00

> <Gold.PLP.Chemscore.Internal.Correction>
0.0177

> <Gold.Rescore>
     Score         DG    S(hbond)    S(metal)    S(lipo)     H(rot)  DE(clash)    DE(int)     intcor
     19.02     -19.37       1.96        0.00     110.40       2.18       0.03       0.32       ----

> <Gold.Chemscore.Fitness>
19.0221

> <Gold.Chemscore.DG>
-19.3711

> <Gold.Chemscore.ZeroCoef>
-5.4800

> <Gold.Chemscore.Hbond>
1.9644

> <Gold.Chemscore.Metal>
0.0000

> <Gold.Chemscore.Lipo>
110.3954

> <Gold.Chemscore.Internal_Hbond>
0.0000

> <Gold.Chemscore.DEClash>
0.0251

> <Gold.Chemscore.DEInternal>
0.3239

> <Gold.Chemscore.Rot>
2.1822

> <Gold.Chemscore.Internal.Correction>
   9.000000E+99

> <Gold.Chemscore.Hbonds>
donor molecule, donor type, donor heavy atom, donor atom, acceptor molecule, acceptor atom, score
      L1  H    13    39       P1  8028  1.00
      P1  H  7997  8008       L1     1  0.99

> <Gold.Chemscore.Hbond.Weighted>
-6.5612

> <Gold.Chemscore.Metal.Weighted>
-0.0000

> <Gold.Chemscore.Lipo.Weighted>
-12.9163

> <Gold.Chemscore.Internal_Hbond.Weighted>
0.0000

> <Gold.Chemscore.DEClash.Weighted>
0.0251

> <Gold.Chemscore.DEInternal.Weighted>
0.3239

> <Gold.Chemscore.Rot.Weighted>
5.5863

> <Gold.Chemscore.Internal.Correction.Weighted>
   9.000000E+99

> <Gold.Protein.RotatedTorsions>
[ 6907 6896 6895 6894 ] final -131.36 input  -60.11 | X-H torsion
[ 7974 7965 7964 7962 ] final  -55.30 input  175.53 | X-H torsion
[ 8008 7997 7996 7995 ] final  -10.01 input   59.86 | X-H torsion
[ 10167 10162 10161 10158 ] final  105.12 input  -65.29 | X-H torsion
[ 10718 10713 10712 10709 ] final -102.94 input   66.30 | X-H torsion
[ 10763 10752 10751 10750 ] final -179.21 input  -60.55 | X-H torsion
[ 11005 11000 10999 10996 ] final   90.33 input  -57.11 | X-H torsion

> <Gold.Protein.ActiveResidues>
 VAL166  LYS551  ARG553  GLY616  TRP617  ASP618  TYR619  PRO620  LYS621  CYS622 
 ASP623  PHE694  ASN695  SER759  ASP760  ASP761  ALA762  ILE779  LEU786  VAL792 
 PHE793  MET794  SER795  GLU796  ALA797  LYS798  CYS799  TRP800  GLU811  SER814 

> <Gold.Protein.RotatedAtoms>
  150.9501  133.6559  159.2773 H   0  0  0  0  0  0  0  0  0  0  0  0  # atno 6907 bound_to 6896
  151.3918  135.0956  159.9538 H   0  0  0  0  0  0  0  0  0  0  0  0  # atno 6908 bound_to 6896
  152.5106  133.9014  159.7497 H   0  0  0  0  0  0  0  0  0  0  0  0  # atno 6909 bound_to 6896
  145.8758  140.8182  142.9865 H   0  0  0  0  0  0  0  0  0  0  0  0  # atno 7974 bound_to 7965
  154.5594  140.2340  155.8359 H   0  0  0  0  0  0  0  0  0  0  0  0  # atno 8008 bound_to 7997
  156.2016  140.3051  155.9499 H   0  0  0  0  0  0  0  0  0  0  0  0  # atno 8009 bound_to 7997
  155.2918  140.0427  157.3014 H   0  0  0  0  0  0  0  0  0  0  0  0  # atno 8010 bound_to 7997
  139.7119  144.7076  151.1013 H   0  0  0  0  0  0  0  0  0  0  0  0  # atno 10167 bound_to 10162
  156.0247  130.5444  150.7181 H   0  0  0  0  0  0  0  0  0  0  0  0  # atno 10718 bound_to 10713
  154.5380  135.2804  155.1121 H   0  0  0  0  0  0  0  0  0  0  0  0  # atno 10763 bound_to 10752
  154.2615  135.6321  153.5280 H   0  0  0  0  0  0  0  0  0  0  0  0  # atno 10764 bound_to 10752
  152.9972  135.5606  154.5911 H   0  0  0  0  0  0  0  0  0  0  0  0  # atno 10765 bound_to 10752
  139.8858  134.8607  156.3269 H   0  0  0  0  0  0  0  0  0  0  0  0  # atno 11005 bound_to 11000
  144.6726  140.1308  143.7444 LP  0  0  0  0  0  0  0  0  0  0  0  0  # atno 17320 bound_to 7965
  145.9083  139.2471  143.1453 LP  0  0  0  0  0  0  0  0  0  0  0  0  # atno 17321 bound_to 7965
  140.7735  143.5281  150.9456 LP  0  0  0  0  0  0  0  0  0  0  0  0  # atno 17342 bound_to 10162
  139.8966  143.6887  152.3137 LP  0  0  0  0  0  0  0  0  0  0  0  0  # atno 17343 bound_to 10162
  157.4803  131.0902  151.0543 LP  0  0  0  0  0  0  0  0  0  0  0  0  # atno 17370 bound_to 10713
  157.0979  130.5969  149.5453 LP  0  0  0  0  0  0  0  0  0  0  0  0  # atno 17371 bound_to 10713
  140.9749  133.7304  156.0588 LP  0  0  0  0  0  0  0  0  0  0  0  0  # atno 17394 bound_to 11000
  140.7824  134.3711  157.5484 LP  0  0  0  0  0  0  0  0  0  0  0  0  # atno 17395 bound_to 11000

$$$$
