AV-unprocessed.smi:99|AV-procd|sdf|886|dock10
  -GOLD-   2262017363D 1   1.00000     0.00000
 Structure written by MMmdl.
 52 55  0  0  0  0  0  0  0  0  2 V2000
  149.4124  134.8777  157.8092 O   0  0  0  0  0  0  0  0  0  0  0  0
  148.6462  135.6683  158.3634 C   0  0  0  0  0  0  0  0  0  0  0  0
  148.2272  136.8188  157.8024 O   0  0  0  0  0  0  0  0  0  0  0  0
  148.1002  136.9153  156.3942 C   0  0  0  0  0  0  0  0  0  0  0  0
  147.2158  138.1287  156.0446 C   0  0  1  0  0  0  0  0  0  0  0  0
  147.9891  139.3251  156.0012 O   0  0  0  0  0  0  0  0  0  0  0  0
  148.5527  139.5216  154.7335 C   0  0  1  0  0  0  0  0  0  0  0  0
  150.0296  139.1528  154.7763 N   0  0  0  0  0  0  0  0  0  0  0  0
  150.4995  138.0048  154.1548 C   0  0  0  0  0  0  0  0  0  0  0  0
  151.7987  137.6487  154.2117 C   0  0  0  0  0  0  0  0  0  0  0  0
  152.7339  138.4746  154.9673 C   0  0  0  0  0  0  0  0  0  0  0  0
  153.9250  138.1707  154.9767 O   0  0  0  0  0  0  0  0  0  0  0  0
  152.2367  139.5503  155.6418 N   0  5  0  0  0  0  0  0  0  0  0  0
  150.9176  139.8988  155.6028 C   0  0  0  0  0  0  0  0  0  0  0  0
  150.4543  140.8287  156.2630 O   0  0  0  0  0  0  0  0  0  0  0  0
  147.7399  138.6315  153.7610 C   0  0  2  0  0  0  0  0  0  0  0  0
  147.1784  139.3814  152.7039 O   0  0  0  0  0  0  0  0  0  0  0  0
  146.6206  138.0831  154.6350 C   0  0  1  0  0  0  0  0  0  0  0  0
  146.2726  136.7664  154.2225 O   0  0  0  0  0  0  0  0  0  0  0  0
  145.6531  136.5536  153.0426 C   0  0  0  0  0  0  0  0  0  0  0  0
  145.0991  137.4411  152.3912 O   0  0  0  0  0  0  0  0  0  0  0  0
  145.7010  135.1258  152.6151 C   0  0  0  0  0  0  0  0  0  0  0  0
  145.0156  134.7293  151.4430 C   0  0  0  0  0  0  0  0  0  0  0  0
  145.0441  133.3878  151.0149 C   0  0  0  0  0  0  0  0  0  0  0  0
  145.7571  132.4262  151.7544 C   0  0  0  0  0  0  0  0  0  0  0  0
  146.4414  132.8077  152.9230 C   0  0  0  0  0  0  0  0  0  0  0  0
  146.4147  134.1488  153.3525 C   0  0  0  0  0  0  0  0  0  0  0  0
  148.0906  135.4556  159.7305 C   0  0  0  0  0  0  0  0  0  0  0  0
  147.7506  134.1467  160.1442 C   0  0  0  0  0  0  0  0  0  0  0  0
  147.2288  133.9143  161.4315 C   0  0  0  0  0  0  0  0  0  0  0  0
  147.0416  134.9880  162.3212 C   0  0  0  0  0  0  0  0  0  0  0  0
  147.3770  136.2947  161.9221 C   0  0  0  0  0  0  0  0  0  0  0  0
  147.8986  136.5292  160.6350 C   0  0  0  0  0  0  0  0  0  0  0  0
  149.0779  136.9955  155.9182 H   0  0  0  0  0  0  0  0  0  0  0  0
  147.6410  135.9957  156.0301 H   0  0  0  0  0  0  0  0  0  0  0  0
  146.4246  138.2243  156.7888 H   0  0  0  0  0  0  0  0  0  0  0  0
  148.5462  140.5839  154.4837 H   0  0  0  0  0  0  0  0  0  0  0  0
  149.8261  137.3598  153.6125 H   0  0  0  0  0  0  0  0  0  0  0  0
  152.1412  136.7516  153.7170 H   0  0  0  0  0  0  0  0  0  0  0  0
  148.3591  137.8185  153.3788 H   0  0  0  0  0  0  0  0  0  0  0  0
  147.8864  139.7921  152.2295 H   0  0  0  0  0  0  0  0  0  0  0  0
  145.7624  138.7561  154.5859 H   0  0  0  0  0  0  0  0  0  0  0  0
  144.4607  135.4497  150.8591 H   0  0  0  0  0  0  0  0  0  0  0  0
  144.5178  133.0966  150.1178 H   0  0  0  0  0  0  0  0  0  0  0  0
  145.7788  131.3977  151.4254 H   0  0  0  0  0  0  0  0  0  0  0  0
  146.9889  132.0708  153.4921 H   0  0  0  0  0  0  0  0  0  0  0  0
  146.9509  134.4069  154.2541 H   0  0  0  0  0  0  0  0  0  0  0  0
  147.8866  133.3064  159.4786 H   0  0  0  0  0  0  0  0  0  0  0  0
  146.9719  132.9107  161.7360 H   0  0  0  0  0  0  0  0  0  0  0  0
  146.6418  134.8095  163.3085 H   0  0  0  0  0  0  0  0  0  0  0  0
  147.2344  137.1198  162.6043 H   0  0  0  0  0  0  0  0  0  0  0  0
  148.1478  137.5441  160.3617 H   0  0  0  0  0  0  0  0  0  0  0  0
  1  2  2  0  0  0  0
  2  3  1  0  0  0  0
  2 28  1  0  0  0  0
  3  4  1  0  0  0  0
  4  5  1  0  0  0  0
  4 34  1  0  0  0  0
  4 35  1  0  0  0  0
  5 18  1  0  0  0  0
  5  6  1  0  0  0  0
  5 36  1  0  0  0  0
  6  7  1  0  0  0  0
  7  8  1  0  0  0  0
  7 16  1  0  0  0  0
  7 37  1  0  0  0  0
  8 14  1  0  0  0  0
  8  9  1  0  0  0  0
  9 10  2  0  0  0  0
  9 38  1  0  0  0  0
 10 11  1  0  0  0  0
 10 39  1  0  0  0  0
 11 12  2  0  0  0  0
 11 13  1  0  0  0  0
 13 14  1  0  0  0  0
 14 15  2  0  0  0  0
 16 17  1  0  0  0  0
 16 18  1  0  0  0  0
 16 40  1  0  0  0  0
 17 41  1  0  0  0  0
 18 19  1  0  0  0  0
 18 42  1  0  0  0  0
 19 20  1  0  0  0  0
 20 21  2  0  0  0  0
 20 22  1  0  0  0  0
 22 27  1  0  0  0  0
 22 23  2  0  0  0  0
 23 24  1  0  0  0  0
 23 43  1  0  0  0  0
 24 25  2  0  0  0  0
 24 44  1  0  0  0  0
 25 26  1  0  0  0  0
 25 45  1  0  0  0  0
 26 27  2  0  0  0  0
 26 46  1  0  0  0  0
 27 47  1  0  0  0  0
 28 33  1  0  0  0  0
 28 29  2  0  0  0  0
 29 30  1  0  0  0  0
 29 48  1  0  0  0  0
 30 31  2  0  0  0  0
 30 49  1  0  0  0  0
 31 32  1  0  0  0  0
 31 50  1  0  0  0  0
 32 33  2  0  0  0  0
 32 51  1  0  0  0  0
 33 52  1  0  0  0  0
M  CHG  1  13  -1
M  END
> <s_m_source_file>
AV-unprocessed.smi

> <i_m_source_file_index>
99

> <i_lp_mmshare_version>
43012

> <i_f3d_flags>
0

> <s_epik_input>
W2NIXTFbY0hdW2NIXVtjSF1bY0hdYzFDKD1PKU9bQ0gyXVtDQEBIXTJPW0NAQEhdKG4zW2NIXVtjSF1jKD1PKVtuSF1jMz1PKVtDQEBIXShbT0hdKVtDQEhdMk9DKD1PKWM0W2NIXVtjSF1bY0hdW2NIXVtjSF00

> <s_epik_cmdline>
J2VwaWtfcHl0aG9uJywgJy1waCcsICc3LjAnLCAnLXRuJywgJzgnLCAnLW1hJywgJzIwMCcsICctbWV0YWxfYmluZGluZycsICctaW1hZScsICc8aW5maWxlLm1hZT4nLCAnLW9tYWUnLCAnPG91dGZpbGUubWFlPic=

> <r_lp_tautomer_probability>
1

> <r_epik_Ionization_Penalty>
2.89159

> <r_epik_Ionization_Penalty_Charging>
2.1077e-08

> <r_epik_Ionization_Penalty_Neutral>
2.89159

> <r_epik_State_Penalty>
2.88671

> <r_epik_Charging_Adjusted_Penalty>
2.88671

> <i_epik_Tot_Q>
-1

> <i_epik_Tot_abs_Q>
1

> <r_epik_Metal_State_Penalty>
0.0727308

> <b_epik_Metal_Only>
1

> <s_epik_Chemistry_Notes>
This compound has an ester and may undergo hydrolysis at high or low pH. This compound contains an acetal/aminal-like group ( X-CH(R)-Y where X, Y are N, S, or O) that may be acid/base labile, releasing an aldehyde.

> <s_lp_Force_Field>
OPLS_2005

> <r_lp_Energy>
40.5539

> <b_lp_Chiralities_Consistent>
1

> <s_lp_Variant>
AV-unprocessed.smi:99-22

> <Gold.Version>
5.8.1

> <Gold.Id.Protein>
6NUR|6NUR_protein|mol2

> <Gold.PLP.Fitness>
57.8627

> <Gold.PLP.PLP>
-49.5312

> <Gold.PLP.part.hbond>
-3.7346

> <Gold.PLP.part.metal>
0.0000

> <Gold.PLP.part.buried>
-7.5307

> <Gold.PLP.part.nonpolar>
-39.7453

> <Gold.PLP.part.repulsive>
0.4292

> <Gold.PLP.ligand.clash>
0.0000

> <Gold.PLP.ligand.torsion>
1.5585

> <Gold.PLP.Chemscore.Hbond>
2.7113

> <Gold.PLP.Chemscore.CHOScore>
1.0047

> <Gold.PLP.Chemscore.Metal>
0.0000

> <Gold.Chemscore.Hbonds>
donor molecule, donor type, donor heavy atom, donor atom, acceptor molecule, acceptor atom, score
      L1  H    17    41       P1  7957  1.00
      P1  H  6896  6908       L1     1  0.83
      P1  H  7997  8010       L1    12  0.20
      L1  C     9    38       P1  7948  1.00

> <Gold.PLP.Chemscore.Internal.Correction>
0.3007

> <Gold.Rescore>
     Score         DG    S(hbond)    S(metal)    S(lipo)     H(rot)  DE(clash)    DE(int)     intcor
     13.40     -16.94       2.53        0.00      94.29       3.13       0.06       3.47       ----

> <Gold.Chemscore.Fitness>
13.4030

> <Gold.Chemscore.DG>
-16.9359

> <Gold.Chemscore.ZeroCoef>
-5.4800

> <Gold.Chemscore.Hbond>
2.5296

> <Gold.Chemscore.Metal>
0.0000

> <Gold.Chemscore.Lipo>
94.2867

> <Gold.Chemscore.Internal_Hbond>
0.0000

> <Gold.Chemscore.DEClash>
0.0633

> <Gold.Chemscore.DEInternal>
3.4697

> <Gold.Chemscore.Rot>
3.1346

> <Gold.Chemscore.Internal.Correction>
   9.000000E+99

> <Gold.Chemscore.Hbonds>
donor molecule, donor type, donor heavy atom, donor atom, acceptor molecule, acceptor atom, score
      L1  H    17    41       P1  7957  0.94
      P1  H  6896  6908       L1     1  0.24
      P1  H  7997  8010       L1    12  0.02

> <Gold.Chemscore.Hbond.Weighted>
-8.4489

> <Gold.Chemscore.Metal.Weighted>
-0.0000

> <Gold.Chemscore.Lipo.Weighted>
-11.0315

> <Gold.Chemscore.Internal_Hbond.Weighted>
0.0000

> <Gold.Chemscore.DEClash.Weighted>
0.0633

> <Gold.Chemscore.DEInternal.Weighted>
3.4697

> <Gold.Chemscore.Rot.Weighted>
8.0246

> <Gold.Chemscore.Internal.Correction.Weighted>
   9.000000E+99

> <Gold.Protein.RotatedTorsions>
[ 6907 6896 6895 6894 ] final  152.03 input  -60.11 | X-H torsion
[ 7974 7965 7964 7962 ] final  -47.16 input  175.53 | X-H torsion
[ 8008 7997 7996 7995 ] final  116.59 input   59.86 | X-H torsion
[ 10167 10162 10161 10158 ] final  123.90 input  -65.29 | X-H torsion
[ 10718 10713 10712 10709 ] final  117.93 input   66.30 | X-H torsion
[ 10763 10752 10751 10750 ] final -138.10 input  -60.55 | X-H torsion
[ 11005 11000 10999 10996 ] final -169.87 input  -57.11 | X-H torsion

> <Gold.Protein.ActiveResidues>
 VAL166  LYS551  ARG553  GLY616  TRP617  ASP618  TYR619  PRO620  LYS621  CYS622 
 ASP623  PHE694  ASN695  SER759  ASP760  ASP761  ALA762  ILE779  LEU786  VAL792 
 PHE793  MET794  SER795  GLU796  ALA797  LYS798  CYS799  TRP800  GLU811  SER814 

> <Gold.Protein.RotatedAtoms>
  152.0924  133.4207  159.4549 H   0  0  0  0  0  0  0  0  0  0  0  0  # atno 6907 bound_to 6896
  150.6862  134.2856  159.4654 H   0  0  0  0  0  0  0  0  0  0  0  0  # atno 6908 bound_to 6896
  152.0708  134.9534  160.0625 H   0  0  0  0  0  0  0  0  0  0  0  0  # atno 6909 bound_to 6896
  145.9645  140.7446  142.9441 H   0  0  0  0  0  0  0  0  0  0  0  0  # atno 7974 bound_to 7965
  156.2447  140.2914  156.0547 H   0  0  0  0  0  0  0  0  0  0  0  0  # atno 8008 bound_to 7997
  155.1843  140.0405  157.2905 H   0  0  0  0  0  0  0  0  0  0  0  0  # atno 8009 bound_to 7997
  154.6238  140.2482  155.7523 H   0  0  0  0  0  0  0  0  0  0  0  0  # atno 8010 bound_to 7997
  139.5773  144.6969  151.3621 H   0  0  0  0  0  0  0  0  0  0  0  0  # atno 10167 bound_to 10162
  157.6064  131.1042  150.7684 H   0  0  0  0  0  0  0  0  0  0  0  0  # atno 10718 bound_to 10713
  154.8645  135.3622  154.5331 H   0  0  0  0  0  0  0  0  0  0  0  0  # atno 10763 bound_to 10752
  153.5956  135.7014  153.5410 H   0  0  0  0  0  0  0  0  0  0  0  0  # atno 10764 bound_to 10752
  153.3336  135.4117  155.1476 H   0  0  0  0  0  0  0  0  0  0  0  0  # atno 10765 bound_to 10752
  140.5259  134.5664  157.5061 H   0  0  0  0  0  0  0  0  0  0  0  0  # atno 11005 bound_to 11000
  144.6822  140.2646  143.7314 LP  0  0  0  0  0  0  0  0  0  0  0  0  # atno 17320 bound_to 7965
  145.7993  139.1958  143.2057 LP  0  0  0  0  0  0  0  0  0  0  0  0  # atno 17321 bound_to 7965
  140.7054  143.7526  150.7473 LP  0  0  0  0  0  0  0  0  0  0  0  0  # atno 17342 bound_to 10162
  140.1049  143.4753  152.2404 LP  0  0  0  0  0  0  0  0  0  0  0  0  # atno 17343 bound_to 10162
  156.8071  130.4940  149.5361 LP  0  0  0  0  0  0  0  0  0  0  0  0  # atno 17370 bound_to 10713
  156.1152  130.6069  151.0109 LP  0  0  0  0  0  0  0  0  0  0  0  0  # atno 17371 bound_to 10713
  139.9580  134.7501  156.0298 LP  0  0  0  0  0  0  0  0  0  0  0  0  # atno 17394 bound_to 11000
  141.1308  133.6587  156.3461 LP  0  0  0  0  0  0  0  0  0  0  0  0  # atno 17395 bound_to 11000

$$$$
