AV-unprocessed.smi:3162|AV-procd|sdf|12067|dock2
  -GOLD-   2272017493D 1   1.00000     0.00000
 Structure written by MMmdl.
 36 36  0  0  0  0  0  0  0  0  1 V2000
  147.1832  141.3780  154.5068 C   0  0  0  0  0  0  0  0  0  0  0  0
  148.7008  141.2784  154.2851 C   0  0  0  0  0  0  0  0  0  0  0  0
  149.3558  140.0221  154.9013 C   0  0  2  0  0  0  0  0  0  0  0  0
  150.8225  140.1842  154.8875 N   0  0  0  0  0  0  0  0  0  0  0  0
  151.4165  140.7787  156.0834 C   0  0  2  0  0  0  0  0  0  0  0  0
  151.1639  139.8096  157.2507 C   0  0  0  0  0  0  0  0  0  0  0  0
  150.8063  142.1778  156.3305 C   0  0  0  0  0  0  0  0  0  0  0  0
  151.3088  142.8069  157.5385 N   0  0  0  0  0  0  0  0  0  0  0  0
  150.9848  144.0410  158.0610 C   0  0  0  0  0  0  0  0  0  0  0  0
  151.7117  144.2065  159.2059 C   0  0  0  0  0  0  0  0  0  0  0  0
  151.7213  145.3747  160.1493 C   0  0  0  0  0  0  0  0  0  0  0  0
  152.4656  143.0018  159.2955 C   0  0  0  0  0  0  0  0  0  0  0  0
  152.2262  142.1688  158.2957 N   0  0  0  0  0  0  0  0  0  0  0  0
  148.8879  138.7309  154.2048 C   0  0  0  0  0  0  0  0  0  0  0  0
  149.0249  138.6675  152.8779 N   0  0  0  0  0  0  0  0  0  0  0  0
  148.3903  137.8130  154.8545 O   0  0  0  0  0  0  0  0  0  0  0  0
  146.7971  142.3161  154.1075 H   0  0  0  0  0  0  0  0  0  0  0  0
  146.9374  141.3443  155.5684 H   0  0  0  0  0  0  0  0  0  0  0  0
  146.6481  140.5681  154.0110 H   0  0  0  0  0  0  0  0  0  0  0  0
  148.9143  141.3294  153.2161 H   0  0  0  0  0  0  0  0  0  0  0  0
  149.1625  142.1656  154.7208 H   0  0  0  0  0  0  0  0  0  0  0  0
  149.0431  139.9756  155.9463 H   0  0  0  0  0  0  0  0  0  0  0  0
  151.2991  139.3276  154.6436 H   0  0  0  0  0  0  0  0  0  0  0  0
  152.4977  140.8635  155.9639 H   0  0  0  0  0  0  0  0  0  0  0  0
  151.6448  140.1546  158.1662 H   0  0  0  0  0  0  0  0  0  0  0  0
  151.5638  138.8188  157.0324 H   0  0  0  0  0  0  0  0  0  0  0  0
  150.0983  139.7013  157.4560 H   0  0  0  0  0  0  0  0  0  0  0  0
  151.0087  142.8496  155.4965 H   0  0  0  0  0  0  0  0  0  0  0  0
  149.7205  142.1057  156.4099 H   0  0  0  0  0  0  0  0  0  0  0  0
  150.2683  144.6915  157.5811 H   0  0  0  0  0  0  0  0  0  0  0  0
  152.4570  145.2488  160.9441 H   0  0  0  0  0  0  0  0  0  0  0  0
  150.7517  145.5121  160.6282 H   0  0  0  0  0  0  0  0  0  0  0  0
  151.9615  146.3051  159.6343 H   0  0  0  0  0  0  0  0  0  0  0  0
  153.1778  142.7105  160.0535 H   0  0  0  0  0  0  0  0  0  0  0  0
  148.7370  137.8379  152.3796 H   0  0  0  0  0  0  0  0  0  0  0  0
  149.4224  139.4496  152.3779 H   0  0  0  0  0  0  0  0  0  0  0  0
  1  2  1  0  0  0  0
  1 17  1  0  0  0  0
  1 18  1  0  0  0  0
  1 19  1  0  0  0  0
  2  3  1  0  0  0  0
  2 20  1  0  0  0  0
  2 21  1  0  0  0  0
  3  4  1  0  0  0  0
  3 14  1  0  0  0  0
  3 22  1  0  0  0  0
  4  5  1  0  0  0  0
  4 23  1  0  0  0  0
  5  6  1  0  0  0  0
  5  7  1  0  0  0  0
  5 24  1  0  0  0  0
  6 25  1  0  0  0  0
  6 26  1  0  0  0  0
  6 27  1  0  0  0  0
  7  8  1  0  0  0  0
  7 28  1  0  0  0  0
  7 29  1  0  0  0  0
  8 13  1  0  0  0  0
  8  9  1  0  0  0  0
  9 10  2  0  0  0  0
  9 30  1  0  0  0  0
 10 11  1  0  0  0  0
 10 12  1  0  0  0  0
 11 31  1  0  0  0  0
 11 32  1  0  0  0  0
 11 33  1  0  0  0  0
 12 13  2  0  0  0  0
 12 34  1  0  0  0  0
 14 15  1  0  0  0  0
 14 16  2  0  0  0  0
 15 35  1  0  0  0  0
 15 36  1  0  0  0  0
M  END
> <s_m_source_file>
AV-unprocessed.smi

> <i_m_source_file_index>
3162

> <i_lp_mmshare_version>
43012

> <i_f3d_flags>
0

> <s_epik_input>
W0NIM11bQ0gyXVtDQEBIXShDKD1PKVtOSDJdKVtOSF1bQ0BIXShbQ0gzXSlbQ0gyXW4xW2NIXWMoW0NIM10pW2NIXW4x

> <s_epik_cmdline>
J2VwaWtfcHl0aG9uJywgJy1waCcsICc3LjAnLCAnLXRuJywgJzgnLCAnLW1hJywgJzIwMCcsICctbWV0YWxfYmluZGluZycsICctaW1hZScsICc8aW5maWxlLm1hZT4nLCAnLW9tYWUnLCAnPG91dGZpbGUubWFlPic=

> <r_lp_tautomer_probability>
1

> <r_epik_Ionization_Penalty>
1.04167

> <r_epik_Ionization_Penalty_Charging>
0

> <r_epik_Ionization_Penalty_Neutral>
1.04167

> <r_epik_State_Penalty>
1.09367

> <r_epik_Charging_Adjusted_Penalty>
1.09367

> <i_epik_Tot_Q>
0

> <i_epik_Tot_abs_Q>
0

> <r_epik_Metal_State_Penalty>
1.09362

> <b_epik_Metal_Only>
0

> <s_lp_Force_Field>
OPLS_2005

> <r_lp_Energy>
3.0379

> <b_lp_Chiralities_Consistent>
1

> <s_lp_Variant>
AV-unprocessed.smi:3162-5

> <Gold.Version>
5.8.1

> <Gold.Id.Protein>
6NUR|6NUR_protein|mol2

> <Gold.PLP.Fitness>
47.6633

> <Gold.PLP.PLP>
-37.4005

> <Gold.PLP.part.hbond>
-2.6184

> <Gold.PLP.part.metal>
0.0000

> <Gold.PLP.part.buried>
-3.5061

> <Gold.PLP.part.nonpolar>
-32.1583

> <Gold.PLP.part.repulsive>
0.1811

> <Gold.PLP.ligand.clash>
0.0000

> <Gold.PLP.ligand.torsion>
0.6254

> <Gold.PLP.Chemscore.Hbond>
2.7683

> <Gold.PLP.Chemscore.CHOScore>
1.0000

> <Gold.PLP.Chemscore.Metal>
0.0000

> <Gold.Chemscore.Hbonds>
donor molecule, donor type, donor heavy atom, donor atom, acceptor molecule, acceptor atom, score
      L1  H    15    35       P1  7948  1.00
      L1  H    15    36       P1  7957  0.51
      P1  H  7989  7998       L1     4  0.30
      L1  C     9    30       P1  8028  0.94
      L1  C     9    30       P1  8029  0.08

> <Gold.PLP.Chemscore.Internal.Correction>
0.2087

> <Gold.Rescore>
     Score         DG    S(hbond)    S(metal)    S(lipo)     H(rot)  DE(clash)    DE(int)     intcor
     13.66     -15.70       1.81        0.00      89.01       2.43       0.11       1.94       ----

> <Gold.Chemscore.Fitness>
13.6563

> <Gold.Chemscore.DG>
-15.7039

> <Gold.Chemscore.ZeroCoef>
-5.4800

> <Gold.Chemscore.Hbond>
1.8077

> <Gold.Chemscore.Metal>
0.0000

> <Gold.Chemscore.Lipo>
89.0101

> <Gold.Chemscore.Internal_Hbond>
0.0000

> <Gold.Chemscore.DEClash>
0.1101

> <Gold.Chemscore.DEInternal>
1.9375

> <Gold.Chemscore.Rot>
2.4328

> <Gold.Chemscore.Internal.Correction>
   9.000000E+99

> <Gold.Chemscore.Hbonds>
donor molecule, donor type, donor heavy atom, donor atom, acceptor molecule, acceptor atom, score
      L1  H    15    35       P1  7948  0.96
      L1  H    15    36       P1  7957  0.51

> <Gold.Chemscore.Hbond.Weighted>
-6.0377

> <Gold.Chemscore.Metal.Weighted>
-0.0000

> <Gold.Chemscore.Lipo.Weighted>
-10.4142

> <Gold.Chemscore.Internal_Hbond.Weighted>
0.0000

> <Gold.Chemscore.DEClash.Weighted>
0.1101

> <Gold.Chemscore.DEInternal.Weighted>
1.9375

> <Gold.Chemscore.Rot.Weighted>
6.2279

> <Gold.Chemscore.Internal.Correction.Weighted>
   9.000000E+99

> <Gold.Protein.RotatedTorsions>
[ 6907 6896 6895 6894 ] final  116.55 input  -60.11 | X-H torsion
[ 7974 7965 7964 7962 ] final  -99.82 input  175.53 | X-H torsion
[ 8008 7997 7996 7995 ] final   37.63 input   59.86 | X-H torsion
[ 10167 10162 10161 10158 ] final   51.84 input  -65.29 | X-H torsion
[ 10718 10713 10712 10709 ] final  144.58 input   66.30 | X-H torsion
[ 10763 10752 10751 10750 ] final -158.65 input  -60.55 | X-H torsion
[ 11005 11000 10999 10996 ] final  122.71 input  -57.11 | X-H torsion

> <Gold.Protein.ActiveResidues>
 VAL166  LYS551  ARG553  GLY616  TRP617  ASP618  TYR619  PRO620  LYS621  CYS622 
 ASP623  PHE694  ASN695  SER759  ASP760  ASP761  ALA762  ILE779  LEU786  VAL792 
 PHE793  MET794  SER795  GLU796  ALA797  LYS798  CYS799  TRP800  GLU811  SER814 

> <Gold.Protein.RotatedAtoms>
  152.4671  133.7946  159.6920 H   0  0  0  0  0  0  0  0  0  0  0  0  # atno 6907 bound_to 6896
  150.8640  133.7591  159.2989 H   0  0  0  0  0  0  0  0  0  0  0  0  # atno 6908 bound_to 6896
  151.5148  135.1069  159.9915 H   0  0  0  0  0  0  0  0  0  0  0  0  # atno 6909 bound_to 6896
  145.3025  140.9381  143.2815 H   0  0  0  0  0  0  0  0  0  0  0  0  # atno 7974 bound_to 7965
  155.2069  140.3320  155.4334 H   0  0  0  0  0  0  0  0  0  0  0  0  # atno 8008 bound_to 7997
  156.2385  140.1884  156.7102 H   0  0  0  0  0  0  0  0  0  0  0  0  # atno 8009 bound_to 7997
  154.6104  140.0610  156.9471 H   0  0  0  0  0  0  0  0  0  0  0  0  # atno 8010 bound_to 7997
  140.2577  144.3408  150.6328 H   0  0  0  0  0  0  0  0  0  0  0  0  # atno 10167 bound_to 10162
  157.3555  131.0957  151.0962 H   0  0  0  0  0  0  0  0  0  0  0  0  # atno 10718 bound_to 10713
  154.7540  135.3099  154.8505 H   0  0  0  0  0  0  0  0  0  0  0  0  # atno 10763 bound_to 10752
  153.9285  135.6788  153.4750 H   0  0  0  0  0  0  0  0  0  0  0  0  # atno 10764 bound_to 10752
  153.1136  135.4855  154.9007 H   0  0  0  0  0  0  0  0  0  0  0  0  # atno 10765 bound_to 10752
  139.9280  134.9641  156.8149 H   0  0  0  0  0  0  0  0  0  0  0  0  # atno 11005 bound_to 11000
  144.9082  139.4563  143.6600 LP  0  0  0  0  0  0  0  0  0  0  0  0  # atno 17320 bound_to 7965
  146.3147  139.7874  142.8993 LP  0  0  0  0  0  0  0  0  0  0  0  0  # atno 17321 bound_to 7965
  140.5991  143.2167  151.7108 LP  0  0  0  0  0  0  0  0  0  0  0  0  # atno 17342 bound_to 10162
  139.5026  144.3822  152.0365 LP  0  0  0  0  0  0  0  0  0  0  0  0  # atno 17343 bound_to 10162
  157.2121  130.6442  149.5778 LP  0  0  0  0  0  0  0  0  0  0  0  0  # atno 17370 bound_to 10713
  155.9728  130.4656  150.6261 LP  0  0  0  0  0  0  0  0  0  0  0  0  # atno 17371 bound_to 10713
  140.6281  133.9931  155.7649 LP  0  0  0  0  0  0  0  0  0  0  0  0  # atno 17394 bound_to 11000
  141.0850  134.0004  157.3327 LP  0  0  0  0  0  0  0  0  0  0  0  0  # atno 17395 bound_to 11000

$$$$
