AV-unprocessed.smi:1073|AV-procd|sdf|4689|dock2
  -GOLD-   22720 3203D 1   1.00000     0.00000
 Structure written by MMmdl.
 44 44  0  0  0  0  0  0  0  0  1 V2000
  150.6602  130.4465  157.9636 C   0  0  0  0  0  0  0  0  0  0  0  0
  149.3783  130.9449  158.4372 N   0  0  0  0  0  0  0  0  0  0  0  0
  149.0185  132.2365  158.4232 C   0  0  0  0  0  0  0  0  0  0  0  0
  149.7462  133.1313  157.9895 O   0  0  0  0  0  0  0  0  0  0  0  0
  147.6169  132.5612  158.9576 C   0  0  2  0  0  0  0  0  0  0  0  0
  146.7362  133.2503  157.8877 C   0  0  0  0  0  0  0  0  0  0  0  0
  146.6002  132.5087  156.5379 C   0  0  0  0  0  0  0  0  0  0  0  0
  145.8303  133.3303  155.4901 C   0  0  0  0  0  0  0  0  0  0  0  0
  145.9272  131.1425  156.7397 C   0  0  0  0  0  0  0  0  0  0  0  0
  147.7193  133.3909  160.1593 N   0  0  0  0  0  0  0  0  0  0  0  0
  147.3351  133.0459  161.3980 C   0  0  0  0  0  0  0  0  0  0  0  0
  146.8203  131.9605  161.6701 O   0  0  0  0  0  0  0  0  0  0  0  0
  147.5561  134.1091  162.4833 C   0  0  0  0  0  0  0  0  0  0  0  0
  146.5832  135.2128  162.4290 N   0  0  0  0  0  0  0  0  0  0  0  0
  145.2187  134.8659  162.4783 C   0  0  0  0  0  0  0  0  0  0  0  0
  144.2286  135.7774  162.4293 C   0  0  0  0  0  0  0  0  0  0  0  0
  142.7666  135.3751  162.5470 C   0  0  0  0  0  0  0  0  0  0  0  0
  142.3883  134.6273  161.5103 F   0  0  0  0  0  0  0  0  0  0  0  0
  142.5804  134.6669  163.6600 F   0  0  0  0  0  0  0  0  0  0  0  0
  141.9758  136.4476  162.6009 F   0  0  0  0  0  0  0  0  0  0  0  0
  144.6343  137.1672  162.3532 C   0  0  0  0  0  0  0  0  0  0  0  0
  145.9351  137.5169  162.3198 C   0  0  0  0  0  0  0  0  0  0  0  0
  147.0004  136.5122  162.3570 C   0  0  0  0  0  0  0  0  0  0  0  0
  148.1923  136.8193  162.3273 O   0  0  0  0  0  0  0  0  0  0  0  0
  150.7067  129.3643  158.0857 H   0  0  0  0  0  0  0  0  0  0  0  0
  151.4813  130.8891  158.5288 H   0  0  0  0  0  0  0  0  0  0  0  0
  150.8006  130.6769  156.9068 H   0  0  0  0  0  0  0  0  0  0  0  0
  148.7246  130.2676  158.8027 H   0  0  0  0  0  0  0  0  0  0  0  0
  147.1658  131.6035  159.2207 H   0  0  0  0  0  0  0  0  0  0  0  0
  145.7409  133.3991  158.3099 H   0  0  0  0  0  0  0  0  0  0  0  0
  147.1215  134.2527  157.6925 H   0  0  0  0  0  0  0  0  0  0  0  0
  147.5965  132.3098  156.1437 H   0  0  0  0  0  0  0  0  0  0  0  0
  144.8284  133.5803  155.8403 H   0  0  0  0  0  0  0  0  0  0  0  0
  145.7263  132.7744  154.5579 H   0  0  0  0  0  0  0  0  0  0  0  0
  146.3414  134.2615  155.2488 H   0  0  0  0  0  0  0  0  0  0  0  0
  144.9159  131.2526  157.1328 H   0  0  0  0  0  0  0  0  0  0  0  0
  146.4908  130.5241  157.4392 H   0  0  0  0  0  0  0  0  0  0  0  0
  145.8610  130.5935  155.7999 H   0  0  0  0  0  0  0  0  0  0  0  0
  148.1361  134.3025  160.0349 H   0  0  0  0  0  0  0  0  0  0  0  0
  147.5297  133.6310  163.4643 H   0  0  0  0  0  0  0  0  0  0  0  0
  148.5722  134.4927  162.3816 H   0  0  0  0  0  0  0  0  0  0  0  0
  145.0280  133.8064  162.5706 H   0  0  0  0  0  0  0  0  0  0  0  0
  143.8825  137.9420  162.3203 H   0  0  0  0  0  0  0  0  0  0  0  0
  146.2005  138.5624  162.2631 H   0  0  0  0  0  0  0  0  0  0  0  0
  1  2  1  0  0  0  0
  1 25  1  0  0  0  0
  1 26  1  0  0  0  0
  1 27  1  0  0  0  0
  2  3  1  0  0  0  0
  2 28  1  0  0  0  0
  3  4  2  0  0  0  0
  3  5  1  0  0  0  0
  5  6  1  0  0  0  0
  5 10  1  0  0  0  0
  5 29  1  0  0  0  0
  6  7  1  0  0  0  0
  6 30  1  0  0  0  0
  6 31  1  0  0  0  0
  7  8  1  0  0  0  0
  7  9  1  0  0  0  0
  7 32  1  0  0  0  0
  8 33  1  0  0  0  0
  8 34  1  0  0  0  0
  8 35  1  0  0  0  0
  9 36  1  0  0  0  0
  9 37  1  0  0  0  0
  9 38  1  0  0  0  0
 10 11  1  0  0  0  0
 10 39  1  0  0  0  0
 11 12  2  0  0  0  0
 11 13  1  0  0  0  0
 13 14  1  0  0  0  0
 13 40  1  0  0  0  0
 13 41  1  0  0  0  0
 14 23  1  0  0  0  0
 14 15  1  0  0  0  0
 15 16  2  0  0  0  0
 15 42  1  0  0  0  0
 16 17  1  0  0  0  0
 16 21  1  0  0  0  0
 17 18  1  0  0  0  0
 17 19  1  0  0  0  0
 17 20  1  0  0  0  0
 21 22  2  0  0  0  0
 21 43  1  0  0  0  0
 22 23  1  0  0  0  0
 22 44  1  0  0  0  0
 23 24  2  0  0  0  0
M  END
> <s_m_source_file>
AV-unprocessed.smi

> <i_m_source_file_index>
1073

> <i_lp_mmshare_version>
43012

> <i_f3d_flags>
0

> <s_epik_input>
W0NIM11bTkhdQyg9TylbQ0BIXShbQ0gyXVtDSF0oW0NIM10pW0NIM10pW05IXUMoPU8pW0NIMl1uMVtjSF1jKEMoRikoRilGKVtjSF1bY0hdYzE9Tw==

> <s_epik_cmdline>
J2VwaWtfcHl0aG9uJywgJy1waCcsICc3LjAnLCAnLXRuJywgJzgnLCAnLW1hJywgJzIwMCcsICctbWV0YWxfYmluZGluZycsICctaW1hZScsICc8aW5maWxlLm1hZT4nLCAnLW9tYWUnLCAnPG91dGZpbGUubWFlPic=

> <r_lp_tautomer_probability>
1

> <r_epik_Ionization_Penalty>
7.02352e-08

> <r_epik_Ionization_Penalty_Charging>
1.57869e-08

> <r_epik_Ionization_Penalty_Neutral>
5.44484e-08

> <r_epik_State_Penalty>
-0

> <r_epik_Charging_Adjusted_Penalty>
1.57869e-08

> <i_epik_Tot_Q>
0

> <i_epik_Tot_abs_Q>
0

> <r_epik_Metal_State_Penalty>
-0

> <b_epik_Metal_Only>
0

> <s_lp_Force_Field>
OPLS_2005

> <r_lp_Energy>
18.1755

> <b_lp_Chiralities_Consistent>
1

> <s_lp_Variant>
AV-unprocessed.smi:1073-1

> <Gold.Version>
5.8.1

> <Gold.Id.Protein>
6NUR|6NUR_protein|mol2

> <Gold.PLP.Fitness>
42.6458

> <Gold.PLP.PLP>
-37.0579

> <Gold.PLP.part.hbond>
-2.0000

> <Gold.PLP.part.metal>
0.0000

> <Gold.PLP.part.buried>
-6.8966

> <Gold.PLP.part.nonpolar>
-28.8776

> <Gold.PLP.part.repulsive>
0.1316

> <Gold.PLP.ligand.clash>
0.0000

> <Gold.PLP.ligand.torsion>
0.3353

> <Gold.PLP.Chemscore.Hbond>
2.0000

> <Gold.PLP.Chemscore.CHOScore>
0.0000

> <Gold.PLP.Chemscore.Metal>
0.0000

> <Gold.Chemscore.Hbonds>
donor molecule, donor type, donor heavy atom, donor atom, acceptor molecule, acceptor atom, score
      P1  H  6896  6907       L1     4  1.00
      P1  H  6931  6943       L1    24  1.00

> <Gold.PLP.Chemscore.Internal.Correction>
0.2585

> <Gold.Rescore>
     Score         DG    S(hbond)    S(metal)    S(lipo)     H(rot)  DE(clash)    DE(int)     intcor
     10.86     -11.19       1.97        0.00      47.45       2.51       0.00       0.32       ----

> <Gold.Chemscore.Fitness>
10.8632

> <Gold.Chemscore.DG>
-11.1890

> <Gold.Chemscore.ZeroCoef>
-5.4800

> <Gold.Chemscore.Hbond>
1.9747

> <Gold.Chemscore.Metal>
0.0000

> <Gold.Chemscore.Lipo>
47.4486

> <Gold.Chemscore.Internal_Hbond>
0.0000

> <Gold.Chemscore.DEClash>
0.0024

> <Gold.Chemscore.DEInternal>
0.3234

> <Gold.Chemscore.Rot>
2.5149

> <Gold.Chemscore.Internal.Correction>
   9.000000E+99

> <Gold.Chemscore.Hbonds>
donor molecule, donor type, donor heavy atom, donor atom, acceptor molecule, acceptor atom, score
      P1  H  6896  6907       L1     4  0.74
      P1  H  6931  6943       L1    24  1.00

> <Gold.Chemscore.Hbond.Weighted>
-6.5956

> <Gold.Chemscore.Metal.Weighted>
-0.0000

> <Gold.Chemscore.Lipo.Weighted>
-5.5515

> <Gold.Chemscore.Internal_Hbond.Weighted>
0.0000

> <Gold.Chemscore.DEClash.Weighted>
0.0024

> <Gold.Chemscore.DEInternal.Weighted>
0.3234

> <Gold.Chemscore.Rot.Weighted>
6.4381

> <Gold.Chemscore.Internal.Correction.Weighted>
   9.000000E+99

> <Gold.Protein.RotatedTorsions>
[ 6907 6896 6895 6894 ] final -139.32 input  -60.11 | X-H torsion
[ 7974 7965 7964 7962 ] final   76.09 input  175.53 | X-H torsion
[ 8008 7997 7996 7995 ] final  135.78 input   59.86 | X-H torsion
[ 10167 10162 10161 10158 ] final   56.74 input  -65.29 | X-H torsion
[ 10718 10713 10712 10709 ] final   57.86 input   66.30 | X-H torsion
[ 10763 10752 10751 10750 ] final  166.80 input  -60.55 | X-H torsion
[ 11005 11000 10999 10996 ] final  -85.73 input  -57.11 | X-H torsion

> <Gold.Protein.ActiveResidues>
 VAL166  LYS551  ARG553  GLY616  TRP617  ASP618  TYR619  PRO620  LYS621  CYS622 
 ASP623  PHE694  ASN695  SER759  ASP760  ASP761  ALA762  ILE779  LEU786  VAL792 
 PHE793  MET794  SER795  GLU796  ALA797  LYS798  CYS799  TRP800  GLU811  SER814 

> <Gold.Protein.RotatedAtoms>
  151.0463  133.5662  159.2646 H   0  0  0  0  0  0  0  0  0  0  0  0  # atno 6907 bound_to 6896
  151.2690  135.0677  159.9137 H   0  0  0  0  0  0  0  0  0  0  0  0  # atno 6908 bound_to 6896
  152.5374  134.0196  159.8029 H   0  0  0  0  0  0  0  0  0  0  0  0  # atno 6909 bound_to 6896
  145.7073  139.2602  143.1671 H   0  0  0  0  0  0  0  0  0  0  0  0  # atno 7974 bound_to 7965
  156.3003  140.2462  156.3638 H   0  0  0  0  0  0  0  0  0  0  0  0  # atno 8008 bound_to 7997
  154.8852  140.0411  157.1826 H   0  0  0  0  0  0  0  0  0  0  0  0  # atno 8009 bound_to 7997
  154.8654  140.2927  155.5517 H   0  0  0  0  0  0  0  0  0  0  0  0  # atno 8010 bound_to 7997
  140.2055  144.3944  150.6511 H   0  0  0  0  0  0  0  0  0  0  0  0  # atno 10167 bound_to 10162
  157.5549  130.8792  149.9020 H   0  0  0  0  0  0  0  0  0  0  0  0  # atno 10718 bound_to 10713
  154.3443  135.2753  155.2406 H   0  0  0  0  0  0  0  0  0  0  0  0  # atno 10763 bound_to 10752
  154.4662  135.5894  153.6293 H   0  0  0  0  0  0  0  0  0  0  0  0  # atno 10764 bound_to 10752
  152.9855  135.6077  154.3648 H   0  0  0  0  0  0  0  0  0  0  0  0  # atno 10765 bound_to 10752
  141.1638  133.7415  156.9057 H   0  0  0  0  0  0  0  0  0  0  0  0  # atno 11005 bound_to 11000
  146.0744  140.7833  142.9672 LP  0  0  0  0  0  0  0  0  0  0  0  0  # atno 17320 bound_to 7965
  144.6952  140.3392  143.7202 LP  0  0  0  0  0  0  0  0  0  0  0  0  # atno 17321 bound_to 7965
  140.6360  143.2195  151.6393 LP  0  0  0  0  0  0  0  0  0  0  0  0  # atno 17342 bound_to 10162
  139.5200  144.3236  152.0889 LP  0  0  0  0  0  0  0  0  0  0  0  0  # atno 17343 bound_to 10162
  156.0609  130.3700  150.0984 LP  0  0  0  0  0  0  0  0  0  0  0  0  # atno 17370 bound_to 10713
  156.9153  130.9665  151.3557 LP  0  0  0  0  0  0  0  0  0  0  0  0  # atno 17371 bound_to 10713
  140.1551  134.9203  157.2643 LP  0  0  0  0  0  0  0  0  0  0  0  0  # atno 17394 bound_to 11000
  140.2676  134.3497  155.7384 LP  0  0  0  0  0  0  0  0  0  0  0  0  # atno 17395 bound_to 11000

$$$$
