AV-unprocessed.smi:265|AV-procd|sdf|2016|dock7
  -GOLD-   2262021213D 1   1.00000     0.00000
 Structure written by MMmdl.
 52 56  0  0  0  0  0  0  0  0  1 V2000
  148.0551  133.2116  153.3266 C   0  0  0  0  0  0  0  0  0  0  0  0
  148.4137  133.3405  154.8151 C   0  0  1  0  0  0  0  0  0  0  0  0
  149.2443  132.2615  155.2419 O   0  0  0  0  0  0  0  0  0  0  0  0
  150.3323  132.7487  156.0189 C   0  0  0  0  0  0  0  0  0  0  0  0
  149.9229  134.1545  156.4454 C   0  0  0  0  0  0  0  0  0  0  0  0
  149.1258  134.6435  155.2438 C   0  0  1  0  0  0  0  0  0  0  0  0
  150.0347  135.0613  154.2385 O   0  0  0  0  0  0  0  0  0  0  0  0
  148.1972  135.8563  155.5098 C   0  0  0  0  0  0  0  0  0  0  0  0
  148.7811  136.9139  156.3197 N   0  0  0  0  0  0  0  0  0  0  0  0
  148.3135  137.3843  157.5272 C   0  0  0  0  0  0  0  0  0  0  0  0
  149.0099  138.3532  158.0564 N   0  0  0  0  0  0  0  0  0  0  0  0
  150.0227  138.5798  157.1339 C   0  0  0  0  0  0  0  0  0  0  0  0
  151.1104  139.4880  157.0671 C   0  0  0  0  0  0  0  0  0  0  0  0
  151.3493  140.3880  158.0435 N   0  0  0  0  0  0  0  0  0  0  0  0
  152.6191  140.1672  158.7356 C   0  0  0  0  0  0  0  0  0  0  0  0
  152.7379  141.0724  159.9768 C   0  0  0  0  0  0  0  0  0  0  0  0
  152.5059  142.5378  159.5812 C   0  0  2  0  0  0  0  0  0  0  0  0
  152.4894  143.3972  160.7109 O   0  0  0  0  0  0  0  0  0  0  0  0
  152.4293  144.7867  160.3700 C   0  0  0  0  0  0  0  0  0  0  0  0
  151.3661  145.0960  159.2936 C   0  0  0  0  0  0  0  0  0  0  0  0
  151.0375  146.2598  159.0751 O   0  0  0  0  0  0  0  0  0  0  0  0
  150.8569  144.0706  158.5913 N   0  0  0  0  0  0  0  0  0  0  0  0
  151.1318  142.6755  158.9062 C   0  0  1  0  0  0  0  0  0  0  0  0
  151.0684  141.7725  157.6645 C   0  0  0  0  0  0  0  0  0  0  0  0
  151.9251  139.4318  155.9810 N   0  0  0  0  0  0  0  0  0  0  0  0
  151.6843  138.5394  155.0152 C   0  0  0  0  0  0  0  0  0  0  0  0
  150.7064  137.6329  154.9400 N   0  0  0  0  0  0  0  0  0  0  0  0
  149.8920  137.6885  156.0334 C   0  0  0  0  0  0  0  0  0  0  0  0
  153.3024  142.8478  158.9008 H   0  0  0  0  0  0  0  0  0  0  0  0
  150.3583  142.3551  159.6068 H   0  0  0  0  0  0  0  0  0  0  0  0
  147.4239  134.0394  153.0029 H   0  0  0  0  0  0  0  0  0  0  0  0
  147.5091  132.2867  153.1405 H   0  0  0  0  0  0  0  0  0  0  0  0
  148.9446  133.1980  152.6963 H   0  0  0  0  0  0  0  0  0  0  0  0
  147.4983  133.2251  155.3931 H   0  0  0  0  0  0  0  0  0  0  0  0
  150.5404  132.0969  156.8675 H   0  0  0  0  0  0  0  0  0  0  0  0
  151.2241  132.7830  155.3918 H   0  0  0  0  0  0  0  0  0  0  0  0
  149.2896  134.0738  157.3284 H   0  0  0  0  0  0  0  0  0  0  0  0
  150.7708  134.7917  156.6991 H   0  0  0  0  0  0  0  0  0  0  0  0
  149.5872  135.6585  153.6590 H   0  0  0  0  0  0  0  0  0  0  0  0
  147.8846  136.2979  154.5622 H   0  0  0  0  0  0  0  0  0  0  0  0
  147.2825  135.5227  156.0020 H   0  0  0  0  0  0  0  0  0  0  0  0
  147.4353  136.9792  158.0090 H   0  0  0  0  0  0  0  0  0  0  0  0
  152.7023  139.1207  159.0323 H   0  0  0  0  0  0  0  0  0  0  0  0
  153.4430  140.3702  158.0497 H   0  0  0  0  0  0  0  0  0  0  0  0
  152.0028  140.7693  160.7236 H   0  0  0  0  0  0  0  0  0  0  0  0
  153.7191  140.9541  160.4367 H   0  0  0  0  0  0  0  0  0  0  0  0
  152.2198  145.3633  161.2712 H   0  0  0  0  0  0  0  0  0  0  0  0
  153.4040  145.1083  160.0011 H   0  0  0  0  0  0  0  0  0  0  0  0
  150.1856  144.2655  157.8626 H   0  0  0  0  0  0  0  0  0  0  0  0
  151.7923  142.1057  156.9191 H   0  0  0  0  0  0  0  0  0  0  0  0
  150.0801  141.8340  157.2065 H   0  0  0  0  0  0  0  0  0  0  0  0
  152.3729  138.5542  154.1829 H   0  0  0  0  0  0  0  0  0  0  0  0
  1  2  1  0  0  0  0
  1 31  1  0  0  0  0
  1 32  1  0  0  0  0
  1 33  1  0  0  0  0
  2  6  1  0  0  0  0
  2  3  1  0  0  0  0
  2 34  1  0  0  0  0
  3  4  1  0  0  0  0
  4  5  1  0  0  0  0
  4 35  1  0  0  0  0
  4 36  1  0  0  0  0
  5  6  1  0  0  0  0
  5 37  1  0  0  0  0
  5 38  1  0  0  0  0
  6  7  1  0  0  0  0
  6  8  1  0  0  0  0
  7 39  1  0  0  0  0
  8  9  1  0  0  0  0
  8 40  1  0  0  0  0
  8 41  1  0  0  0  0
  9 28  1  0  0  0  0
  9 10  1  0  0  0  0
 10 11  2  0  0  0  0
 10 42  1  0  0  0  0
 11 12  1  0  0  0  0
 12 28  2  0  0  0  0
 12 13  1  0  0  0  0
 13 14  1  0  0  0  0
 13 25  2  0  0  0  0
 14 24  1  0  0  0  0
 14 15  1  0  0  0  0
 15 16  1  0  0  0  0
 15 43  1  0  0  0  0
 15 44  1  0  0  0  0
 16 17  1  0  0  0  0
 16 45  1  0  0  0  0
 16 46  1  0  0  0  0
 17 29  1  0  0  0  0
 17 23  1  0  0  0  0
 17 18  1  0  0  0  0
 18 19  1  0  0  0  0
 19 20  1  0  0  0  0
 19 47  1  0  0  0  0
 19 48  1  0  0  0  0
 20 21  2  0  0  0  0
 20 22  1  0  0  0  0
 22 23  1  0  0  0  0
 22 49  1  0  0  0  0
 23 30  1  0  0  0  0
 23 24  1  0  0  0  0
 24 50  1  0  0  0  0
 24 51  1  0  0  0  0
 25 26  1  0  0  0  0
 26 27  2  0  0  0  0
 26 52  1  0  0  0  0
 27 28  1  0  0  0  0
M  END
> <s_m_source_file>
AV-unprocessed.smi

> <i_m_source_file_index>
265

> <i_lp_mmshare_version>
43012

> <i_f3d_flags>
0

> <s_epik_input>
W0NIMl0xW0NIMl1PW0NAQEhdKFtDSDNdKVtDQEBdMShbT0hdKVtDSDJdbihbY0hdbjIpYyhjMjMpbltjSF1uYzNOKFtDSDJdW0NIMl00KVtDSDJdW0NAQEhdKFtDQEhdNDUpW05IXUMoPU8pW0NIMl1PNQ==

> <s_epik_cmdline>
J2VwaWtfcHl0aG9uJywgJy1waCcsICc3LjAnLCAnLXRuJywgJzgnLCAnLW1hJywgJzIwMCcsICctbWV0YWxfYmluZGluZycsICctaW1hZScsICc8aW5maWxlLm1hZT4nLCAnLW9tYWUnLCAnPG91dGZpbGUubWFlPic=

> <r_lp_tautomer_probability>
1

> <r_epik_Ionization_Penalty>
0.00221504

> <r_epik_Ionization_Penalty_Charging>
0

> <r_epik_Ionization_Penalty_Neutral>
0.00221504

> <r_epik_State_Penalty>
-0

> <r_epik_Charging_Adjusted_Penalty>
0

> <i_epik_Tot_Q>
0

> <i_epik_Tot_abs_Q>
0

> <r_epik_Metal_State_Penalty>
-0

> <b_epik_Metal_Only>
0

> <s_lp_Force_Field>
OPLS_2005

> <r_lp_Energy>
49.8504

> <b_lp_Chiralities_Consistent>
1

> <s_lp_Variant>
AV-unprocessed.smi:265-2

> <Gold.Version>
5.8.1

> <Gold.Id.Protein>
6NUR|6NUR_protein|mol2

> <Gold.PLP.Fitness>
37.8556

> <Gold.PLP.PLP>
-36.1089

> <Gold.PLP.part.hbond>
-4.0000

> <Gold.PLP.part.metal>
0.0000

> <Gold.PLP.part.buried>
-2.4147

> <Gold.PLP.part.nonpolar>
-30.3567

> <Gold.PLP.part.repulsive>
0.5461

> <Gold.PLP.ligand.clash>
0.0000

> <Gold.PLP.ligand.torsion>
0.3581

> <Gold.PLP.Chemscore.Hbond>
0.7440

> <Gold.PLP.Chemscore.CHOScore>
0.0000

> <Gold.PLP.Chemscore.Metal>
0.0000

> <Gold.Chemscore.Hbonds>
donor molecule, donor type, donor heavy atom, donor atom, acceptor molecule, acceptor atom, score
      L1  H     7    39       P1  7948  0.95

> <Gold.PLP.Chemscore.Internal.Correction>
0.2310

> <Gold.Rescore>
     Score         DG    S(hbond)    S(metal)    S(lipo)     H(rot)  DE(clash)    DE(int)     intcor
      7.96      -9.92       0.63        0.00      69.05       2.25       0.19       1.76       ----

> <Gold.Chemscore.Fitness>
7.9629

> <Gold.Chemscore.DG>
-9.9161

> <Gold.Chemscore.ZeroCoef>
-5.4800

> <Gold.Chemscore.Hbond>
0.6303

> <Gold.Chemscore.Metal>
0.0000

> <Gold.Chemscore.Lipo>
69.0498

> <Gold.Chemscore.Internal_Hbond>
0.0000

> <Gold.Chemscore.DEClash>
0.1918

> <Gold.Chemscore.DEInternal>
1.7613

> <Gold.Chemscore.Rot>
2.2453

> <Gold.Chemscore.Internal.Correction>
   9.000000E+99

> <Gold.Chemscore.Hbonds>
donor molecule, donor type, donor heavy atom, donor atom, acceptor molecule, acceptor atom, score
      L1  H     7    39       P1  7948  0.20

> <Gold.Chemscore.Hbond.Weighted>
-2.1052

> <Gold.Chemscore.Metal.Weighted>
-0.0000

> <Gold.Chemscore.Lipo.Weighted>
-8.0788

> <Gold.Chemscore.Internal_Hbond.Weighted>
0.0000

> <Gold.Chemscore.DEClash.Weighted>
0.1918

> <Gold.Chemscore.DEInternal.Weighted>
1.7613

> <Gold.Chemscore.Rot.Weighted>
5.7479

> <Gold.Chemscore.Internal.Correction.Weighted>
   9.000000E+99

> <Gold.Protein.RotatedTorsions>
[ 6907 6896 6895 6894 ] final  -10.94 input  -60.11 | X-H torsion
[ 7974 7965 7964 7962 ] final -161.04 input  175.53 | X-H torsion
[ 8008 7997 7996 7995 ] final  139.95 input   59.86 | X-H torsion
[ 10167 10162 10161 10158 ] final -173.56 input  -65.29 | X-H torsion
[ 10718 10713 10712 10709 ] final    7.10 input   66.30 | X-H torsion
[ 10763 10752 10751 10750 ] final  175.58 input  -60.55 | X-H torsion
[ 11005 11000 10999 10996 ] final   45.96 input  -57.11 | X-H torsion

> <Gold.Protein.ActiveResidues>
 VAL166  LYS551  ARG553  GLY616  TRP617  ASP618  TYR619  PRO620  LYS621  CYS622 
 ASP623  PHE694  ASN695  SER759  ASP760  ASP761  ALA762  ILE779  LEU786  VAL792 
 PHE793  MET794  SER795  GLU796  ALA797  LYS798  CYS799  TRP800  GLU811  SER814 

> <Gold.Protein.RotatedAtoms>
  151.3940  135.0960  159.9534 H   0  0  0  0  0  0  0  0  0  0  0  0  # atno 6907 bound_to 6896
  152.5071  133.8952  159.7424 H   0  0  0  0  0  0  0  0  0  0  0  0  # atno 6908 bound_to 6896
  150.9412  133.6598  159.2819 H   0  0  0  0  0  0  0  0  0  0  0  0  # atno 6909 bound_to 6896
  144.7405  140.3454  143.6126 H   0  0  0  0  0  0  0  0  0  0  0  0  # atno 7974 bound_to 7965
  156.2984  140.2354  156.4321 H   0  0  0  0  0  0  0  0  0  0  0  0  # atno 8008 bound_to 7997
  154.8261  140.0435  157.1465 H   0  0  0  0  0  0  0  0  0  0  0  0  # atno 8009 bound_to 7997
  154.9260  140.3010  155.5195 H   0  0  0  0  0  0  0  0  0  0  0  0  # atno 8010 bound_to 7997
  139.5681  144.1706  152.1344 H   0  0  0  0  0  0  0  0  0  0  0  0  # atno 10167 bound_to 10162
  156.9319  130.5829  149.5650 H   0  0  0  0  0  0  0  0  0  0  0  0  # atno 10718 bound_to 10713
  154.4695  135.2770  155.1653 H   0  0  0  0  0  0  0  0  0  0  0  0  # atno 10763 bound_to 10752
  154.3408  135.6170  153.5599 H   0  0  0  0  0  0  0  0  0  0  0  0  # atno 10764 bound_to 10752
  152.9863  135.5788  154.5073 H   0  0  0  0  0  0  0  0  0  0  0  0  # atno 10765 bound_to 10752
  140.1412  134.4581  155.8448 H   0  0  0  0  0  0  0  0  0  0  0  0  # atno 11005 bound_to 11000
  145.7331  139.1742  143.2419 LP  0  0  0  0  0  0  0  0  0  0  0  0  # atno 17320 bound_to 7965
  146.1191  140.7331  142.9466 LP  0  0  0  0  0  0  0  0  0  0  0  0  # atno 17321 bound_to 7965
  140.1233  144.5354  150.6849 LP  0  0  0  0  0  0  0  0  0  0  0  0  # atno 17342 bound_to 10162
  140.6965  143.2407  151.4985 LP  0  0  0  0  0  0  0  0  0  0  0  0  # atno 17343 bound_to 10162
  156.0443  130.5522  150.8844 LP  0  0  0  0  0  0  0  0  0  0  0  0  # atno 17370 bound_to 10713
  157.5841  131.0946  150.9224 LP  0  0  0  0  0  0  0  0  0  0  0  0  # atno 17371 bound_to 10713
  141.2186  133.6834  156.7250 LP  0  0  0  0  0  0  0  0  0  0  0  0  # atno 17394 bound_to 11000
  140.2720  134.8385  157.3855 LP  0  0  0  0  0  0  0  0  0  0  0  0  # atno 17395 bound_to 11000

$$$$
