AV-unprocessed.smi:1085|AV-procd|sdf|4723|dock1
  -GOLD-   22720 3253D 1   1.00000     0.00000
 Structure written by MMmdl.
 33 34  0  0  0  0  0  0  0  0  1 V2000
  151.0802  139.3869  154.3880 O   0  0  0  0  0  0  0  0  0  0  0  0
  151.5697  139.4331  155.5158 C   0  0  0  0  0  0  0  0  0  0  0  0
  152.4145  138.2671  156.0286 C   0  0  0  0  0  0  0  0  0  0  0  0
  151.8019  137.6585  157.1943 N   0  0  0  0  0  0  0  0  0  0  0  0
  152.2553  137.4955  158.4393 C   0  0  0  0  0  0  0  0  0  0  0  0
  151.3722  136.8722  159.2037 N   0  0  0  0  0  0  0  0  0  0  0  0
  150.3115  136.6498  158.3414 N   0  0  0  0  0  0  0  0  0  0  0  0
  150.5608  137.1138  157.1477 N   0  0  0  0  0  0  0  0  0  0  0  0
  151.4176  140.4695  156.3553 N   0  0  0  0  0  0  0  0  0  0  0  0
  150.6977  141.7113  156.0757 C   0  0  1  0  0  0  0  0  0  0  0  0
  149.2163  141.5792  156.4767 C   0  0  0  0  0  0  0  0  0  0  0  0
  149.0323  141.5229  158.0022 C   0  0  0  0  0  0  0  0  0  0  0  0
  149.6898  142.7306  158.6882 C   0  0  0  0  0  0  0  0  0  0  0  0
  151.1882  142.8420  158.3349 C   0  0  2  0  0  0  0  0  0  0  0  0
  151.8608  144.0399  159.0366 C   0  0  0  0  0  0  0  0  0  0  0  0
  151.9286  143.8423  160.3536 F   0  0  0  0  0  0  0  0  0  0  0  0
  153.0946  144.2130  158.5625 F   0  0  0  0  0  0  0  0  0  0  0  0
  151.1663  145.1535  158.8023 F   0  0  0  0  0  0  0  0  0  0  0  0
  151.3704  142.8945  156.8003 C   0  0  0  0  0  0  0  0  0  0  0  0
  152.5240  137.5095  155.2514 H   0  0  0  0  0  0  0  0  0  0  0  0
  153.4169  138.6140  156.2848 H   0  0  0  0  0  0  0  0  0  0  0  0
  153.2255  137.8256  158.7801 H   0  0  0  0  0  0  0  0  0  0  0  0
  151.8545  140.4021  157.2631 H   0  0  0  0  0  0  0  0  0  0  0  0
  150.7322  141.9177  155.0048 H   0  0  0  0  0  0  0  0  0  0  0  0
  148.6636  142.4345  156.0850 H   0  0  0  0  0  0  0  0  0  0  0  0
  148.7758  140.6961  156.0123 H   0  0  0  0  0  0  0  0  0  0  0  0
  147.9697  141.4921  158.2450 H   0  0  0  0  0  0  0  0  0  0  0  0
  149.4623  140.6002  158.3936 H   0  0  0  0  0  0  0  0  0  0  0  0
  149.1708  143.6426  158.3909 H   0  0  0  0  0  0  0  0  0  0  0  0
  149.5637  142.6438  159.7676 H   0  0  0  0  0  0  0  0  0  0  0  0
  151.6811  141.9400  158.7008 H   0  0  0  0  0  0  0  0  0  0  0  0
  152.4310  142.9228  156.5472 H   0  0  0  0  0  0  0  0  0  0  0  0
  150.9468  143.8253  156.4212 H   0  0  0  0  0  0  0  0  0  0  0  0
  1  2  2  0  0  0  0
  2  3  1  0  0  0  0
  2  9  1  0  0  0  0
  3  4  1  0  0  0  0
  3 20  1  0  0  0  0
  3 21  1  0  0  0  0
  4  8  1  0  0  0  0
  4  5  1  0  0  0  0
  5  6  2  0  0  0  0
  5 22  1  0  0  0  0
  6  7  1  0  0  0  0
  7  8  2  0  0  0  0
  9 10  1  0  0  0  0
  9 23  1  0  0  0  0
 10 19  1  0  0  0  0
 10 11  1  0  0  0  0
 10 24  1  0  0  0  0
 11 12  1  0  0  0  0
 11 25  1  0  0  0  0
 11 26  1  0  0  0  0
 12 13  1  0  0  0  0
 12 27  1  0  0  0  0
 12 28  1  0  0  0  0
 13 14  1  0  0  0  0
 13 29  1  0  0  0  0
 13 30  1  0  0  0  0
 14 15  1  0  0  0  0
 14 19  1  0  0  0  0
 14 31  1  0  0  0  0
 15 16  1  0  0  0  0
 15 17  1  0  0  0  0
 15 18  1  0  0  0  0
 19 32  1  0  0  0  0
 19 33  1  0  0  0  0
M  END
> <s_m_source_file>
AV-unprocessed.smi

> <i_m_source_file_index>
1085

> <i_lp_mmshare_version>
43012

> <i_f3d_flags>
0

> <s_epik_input>
bjFubltjSF1uMVtDSDJdQyg9TylbTkhdW0NAQEhdMltDSDJdW0NIMl1bQ0gyXVtDQEBIXShDKEYpKEYpRilbQ0gyXTI=

> <s_epik_cmdline>
J2VwaWtfcHl0aG9uJywgJy1waCcsICc3LjAnLCAnLXRuJywgJzgnLCAnLW1hJywgJzIwMCcsICctbWV0YWxfYmluZGluZycsICctaW1hZScsICc8aW5maWxlLm1hZT4nLCAnLW9tYWUnLCAnPG91dGZpbGUubWFlPic=

> <r_lp_tautomer_probability>
1

> <r_epik_Ionization_Penalty>
8.41315e-07

> <r_epik_Ionization_Penalty_Charging>
0

> <r_epik_Ionization_Penalty_Neutral>
8.41315e-07

> <r_epik_State_Penalty>
-0

> <r_epik_Charging_Adjusted_Penalty>
0

> <i_epik_Tot_Q>
0

> <i_epik_Tot_abs_Q>
0

> <r_epik_Metal_State_Penalty>
-0

> <b_epik_Metal_Only>
0

> <s_lp_Force_Field>
OPLS_2005

> <r_lp_Energy>
12.3827

> <b_lp_Chiralities_Consistent>
1

> <s_lp_Variant>
AV-unprocessed.smi:1085-4

> <Gold.Version>
5.8.1

> <Gold.Id.Protein>
6NUR|6NUR_protein|mol2

> <Gold.PLP.Fitness>
38.4780

> <Gold.PLP.PLP>
-33.5419

> <Gold.PLP.part.hbond>
-2.4601

> <Gold.PLP.part.metal>
0.0000

> <Gold.PLP.part.buried>
-5.1190

> <Gold.PLP.part.nonpolar>
-26.1174

> <Gold.PLP.part.repulsive>
0.2660

> <Gold.PLP.ligand.clash>
0.0000

> <Gold.PLP.ligand.torsion>
0.5443

> <Gold.PLP.Chemscore.Hbond>
2.0000

> <Gold.PLP.Chemscore.CHOScore>
0.0000

> <Gold.PLP.Chemscore.Metal>
0.0000

> <Gold.Chemscore.Hbonds>
donor molecule, donor type, donor heavy atom, donor atom, acceptor molecule, acceptor atom, score
      P1  H  6896  6907       L1     6  1.00
      P1  H  7989  7998       L1     1  1.00

> <Gold.PLP.Chemscore.Internal.Correction>
0.0247

> <Gold.Rescore>
     Score         DG    S(hbond)    S(metal)    S(lipo)     H(rot)  DE(clash)    DE(int)     intcor
     11.42     -12.62       1.76        0.00      55.48       2.05       0.57       0.64       ----

> <Gold.Chemscore.Fitness>
11.4193

> <Gold.Chemscore.DG>
-12.6237

> <Gold.Chemscore.ZeroCoef>
-5.4800

> <Gold.Chemscore.Hbond>
1.7633

> <Gold.Chemscore.Metal>
0.0000

> <Gold.Chemscore.Lipo>
55.4780

> <Gold.Chemscore.Internal_Hbond>
0.0000

> <Gold.Chemscore.DEClash>
0.5674

> <Gold.Chemscore.DEInternal>
0.6370

> <Gold.Chemscore.Rot>
2.0456

> <Gold.Chemscore.Internal.Correction>
   9.000000E+99

> <Gold.Chemscore.Hbonds>
donor molecule, donor type, donor heavy atom, donor atom, acceptor molecule, acceptor atom, score
      P1  H  6896  6907       L1     6  0.25
      P1  H  7989  7998       L1     1  0.65

> <Gold.Chemscore.Hbond.Weighted>
-5.8895

> <Gold.Chemscore.Metal.Weighted>
-0.0000

> <Gold.Chemscore.Lipo.Weighted>
-6.4909

> <Gold.Chemscore.Internal_Hbond.Weighted>
0.0000

> <Gold.Chemscore.DEClash.Weighted>
0.5674

> <Gold.Chemscore.DEInternal.Weighted>
0.6370

> <Gold.Chemscore.Rot.Weighted>
5.2368

> <Gold.Chemscore.Internal.Correction.Weighted>
   9.000000E+99

> <Gold.Protein.RotatedTorsions>
[ 6907 6896 6895 6894 ] final   -1.77 input  -60.11 | X-H torsion
[ 7974 7965 7964 7962 ] final -144.47 input  175.53 | X-H torsion
[ 8008 7997 7996 7995 ] final  -75.79 input   59.86 | X-H torsion
[ 10167 10162 10161 10158 ] final  102.91 input  -65.29 | X-H torsion
[ 10718 10713 10712 10709 ] final  168.86 input   66.30 | X-H torsion
[ 10763 10752 10751 10750 ] final   43.37 input  -60.55 | X-H torsion
[ 11005 11000 10999 10996 ] final   87.02 input  -57.11 | X-H torsion

> <Gold.Protein.ActiveResidues>
 VAL166  LYS551  ARG553  GLY616  TRP617  ASP618  TYR619  PRO620  LYS621  CYS622 
 ASP623  PHE694  ASN695  SER759  ASP760  ASP761  ALA762  ILE779  LEU786  VAL792 
 PHE793  MET794  SER795  GLU796  ALA797  LYS798  CYS799  TRP800  GLU811  SER814 

> <Gold.Protein.RotatedAtoms>
  151.5407  135.1068  159.9925 H   0  0  0  0  0  0  0  0  0  0  0  0  # atno 6907 bound_to 6896
  152.4537  133.7675  159.6791 H   0  0  0  0  0  0  0  0  0  0  0  0  # atno 6908 bound_to 6896
  150.8473  133.7775  159.3063 H   0  0  0  0  0  0  0  0  0  0  0  0  # atno 6909 bound_to 6896
  144.8295  140.5706  143.5524 H   0  0  0  0  0  0  0  0  0  0  0  0  # atno 7974 bound_to 7965
  154.5448  140.0738  156.8570 H   0  0  0  0  0  0  0  0  0  0  0  0  # atno 8008 bound_to 7997
  155.3109  140.3390  155.4226 H   0  0  0  0  0  0  0  0  0  0  0  0  # atno 8009 bound_to 7997
  156.1908  140.1685  156.8082 H   0  0  0  0  0  0  0  0  0  0  0  0  # atno 8010 bound_to 7997
  139.7309  144.7036  151.0724 H   0  0  0  0  0  0  0  0  0  0  0  0  # atno 10167 bound_to 10162
  157.0311  131.0259  151.2744 H   0  0  0  0  0  0  0  0  0  0  0  0  # atno 10718 bound_to 10713
  152.9862  135.6103  154.3100 H   0  0  0  0  0  0  0  0  0  0  0  0  # atno 10763 bound_to 10752
  154.2816  135.2777  155.2696 H   0  0  0  0  0  0  0  0  0  0  0  0  # atno 10764 bound_to 10752
  154.5032  135.5861  153.6604 H   0  0  0  0  0  0  0  0  0  0  0  0  # atno 10765 bound_to 10752
  139.8930  134.8394  156.2802 H   0  0  0  0  0  0  0  0  0  0  0  0  # atno 11005 bound_to 11000
  145.4926  139.1488  143.3701 LP  0  0  0  0  0  0  0  0  0  0  0  0  # atno 17320 bound_to 7965
  146.2599  140.5064  142.8858 LP  0  0  0  0  0  0  0  0  0  0  0  0  # atno 17321 bound_to 7965
  140.7771  143.5045  150.9729 LP  0  0  0  0  0  0  0  0  0  0  0  0  # atno 17342 bound_to 10162
  139.8733  143.7164  152.3164 LP  0  0  0  0  0  0  0  0  0  0  0  0  # atno 17343 bound_to 10162
  157.5177  130.7978  149.7774 LP  0  0  0  0  0  0  0  0  0  0  0  0  # atno 17370 bound_to 10713
  156.0069  130.3851  150.2399 LP  0  0  0  0  0  0  0  0  0  0  0  0  # atno 17371 bound_to 10713
  141.0044  133.7132  156.1011 LP  0  0  0  0  0  0  0  0  0  0  0  0  # atno 17394 bound_to 11000
  140.7454  134.4104  157.5549 LP  0  0  0  0  0  0  0  0  0  0  0  0  # atno 17395 bound_to 11000

$$$$
