AV-unprocessed.smi:155|AV-procd|sdf|1276|dock4
  -GOLD-   2262018543D 1   1.00000     0.00000
 Structure written by MMmdl.
 63 66  0  0  0  0  0  0  0  0  2 V2000
  145.5920  131.7742  152.3109 C   0  0  0  0  0  0  0  0  0  0  0  0
  144.8733  132.8287  153.0635 N   0  3  0  0  0  0  0  0  0  0  0  0
  143.7831  133.4207  152.2569 C   0  0  0  0  0  0  0  0  0  0  0  0
  145.7766  133.8610  153.6307 C   0  0  0  0  0  0  0  0  0  0  0  0
  147.1612  133.2865  153.9975 C   0  0  0  0  0  0  0  0  0  0  0  0
  147.7915  134.0263  155.0916 N   0  0  0  0  0  0  0  0  0  0  0  0
  149.0173  133.3773  155.5812 C   0  0  0  0  0  0  0  0  0  0  0  0
  150.3028  133.7470  154.8118 C   0  0  0  0  0  0  0  0  0  0  0  0
  151.0036  134.9902  155.3926 C   0  0  0  0  0  0  0  0  0  0  0  0
  150.2387  136.2236  155.2032 N   0  0  0  0  0  0  0  0  0  0  0  0
  150.9059  137.4045  155.2564 C   0  0  0  0  0  0  0  0  0  0  0  0
  152.0604  137.5577  154.5541 N   0  0  0  0  0  0  0  0  0  0  0  0
  152.7307  138.7129  154.6003 C   0  0  0  0  0  0  0  0  0  0  0  0
  152.4294  139.8268  155.2702 N   0  0  0  0  0  0  0  0  0  0  0  0
  151.2679  139.6826  155.9699 C   0  0  0  0  0  0  0  0  0  0  0  0
  150.4506  138.5180  156.0181 C   0  0  0  0  0  0  0  0  0  0  0  0
  149.3404  138.7526  156.8217 N   0  0  0  0  0  0  0  0  0  0  0  0
  149.4962  139.9821  157.2302 C   0  0  0  0  0  0  0  0  0  0  0  0
  150.6225  140.6175  156.7597 N   0  0  0  0  0  0  0  0  0  0  0  0
  151.0262  141.9829  157.0410 C   0  0  0  0  0  0  0  0  0  0  0  0
  151.3303  142.2232  158.5348 C   0  0  1  0  0  0  0  0  0  0  0  0
  151.6634  140.9673  159.0908 O   0  0  0  0  0  0  0  0  0  0  0  0
  152.4933  143.2147  158.8035 C   0  0  2  0  0  0  0  0  0  0  0  0
  152.6957  143.5674  160.2797 C   0  0  0  0  0  0  0  0  0  0  0  0
  151.6739  144.6613  160.5320 C   0  0  0  0  0  0  0  0  0  0  0  0
  151.4342  145.2622  159.1455 C   0  0  0  0  0  0  0  0  0  0  0  0
  152.2309  144.4975  158.2471 O   0  0  0  0  0  0  0  0  0  0  0  0
  148.8423  136.2484  155.6359 C   0  0  0  0  0  0  0  0  0  0  0  0
  147.9680  135.4222  154.6784 C   0  0  0  0  0  0  0  0  0  0  0  0
  146.0983  132.1923  151.4399 H   0  0  0  0  0  0  0  0  0  0  0  0
  144.8950  131.0113  151.9626 H   0  0  0  0  0  0  0  0  0  0  0  0
  146.3375  131.2744  152.9282 H   0  0  0  0  0  0  0  0  0  0  0  0
  144.1816  133.9580  151.3953 H   0  0  0  0  0  0  0  0  0  0  0  0
  143.1935  134.1176  152.8535 H   0  0  0  0  0  0  0  0  0  0  0  0
  143.1066  132.6461  151.8942 H   0  0  0  0  0  0  0  0  0  0  0  0
  145.8698  134.6824  152.9179 H   0  0  0  0  0  0  0  0  0  0  0  0
  145.3216  134.2817  154.5277 H   0  0  0  0  0  0  0  0  0  0  0  0
  147.0939  132.2236  154.2334 H   0  0  0  0  0  0  0  0  0  0  0  0
  147.8137  133.3641  153.1280 H   0  0  0  0  0  0  0  0  0  0  0  0
  149.1462  133.6372  156.6322 H   0  0  0  0  0  0  0  0  0  0  0  0
  148.8940  132.2959  155.5801 H   0  0  0  0  0  0  0  0  0  0  0  0
  150.9979  132.9121  154.9042 H   0  0  0  0  0  0  0  0  0  0  0  0
  150.1198  133.8568  153.7423 H   0  0  0  0  0  0  0  0  0  0  0  0
  151.2010  134.8481  156.4561 H   0  0  0  0  0  0  0  0  0  0  0  0
  151.9739  135.0937  154.9045 H   0  0  0  0  0  0  0  0  0  0  0  0
  153.6382  138.7497  154.0159 H   0  0  0  0  0  0  0  0  0  0  0  0
  148.7834  140.4674  157.8809 H   0  0  0  0  0  0  0  0  0  0  0  0
  151.9106  142.1961  156.4388 H   0  0  0  0  0  0  0  0  0  0  0  0
  150.2455  142.6619  156.6958 H   0  0  0  0  0  0  0  0  0  0  0  0
  150.4229  142.5656  159.0332 H   0  0  0  0  0  0  0  0  0  0  0  0
  150.8991  140.6200  159.5246 H   0  0  0  0  0  0  0  0  0  0  0  0
  153.4143  142.8180  158.3744 H   0  0  0  0  0  0  0  0  0  0  0  0
  152.5890  142.7205  160.9579 H   0  0  0  0  0  0  0  0  0  0  0  0
  153.6990  143.9730  160.4173 H   0  0  0  0  0  0  0  0  0  0  0  0
  150.7482  144.2360  160.9212 H   0  0  0  0  0  0  0  0  0  0  0  0
  152.0333  145.3983  161.2505 H   0  0  0  0  0  0  0  0  0  0  0  0
  150.3833  145.1845  158.8645 H   0  0  0  0  0  0  0  0  0  0  0  0
  151.7206  146.3129  159.0964 H   0  0  0  0  0  0  0  0  0  0  0  0
  148.7579  135.8927  156.6634 H   0  0  0  0  0  0  0  0  0  0  0  0
  148.4656  137.2707  155.6553 H   0  0  0  0  0  0  0  0  0  0  0  0
  148.3685  135.4838  153.6648 H   0  0  0  0  0  0  0  0  0  0  0  0
  146.9755  135.8725  154.6369 H   0  0  0  0  0  0  0  0  0  0  0  0
  144.4249  132.3773  153.8482 H   0  0  0  0  0  0  0  0  0  0  0  0
  1  2  1  0  0  0  0
  1 30  1  0  0  0  0
  1 31  1  0  0  0  0
  1 32  1  0  0  0  0
  2  3  1  0  0  0  0
  2  4  1  0  0  0  0
  2 63  1  0  0  0  0
  3 33  1  0  0  0  0
  3 34  1  0  0  0  0
  3 35  1  0  0  0  0
  4  5  1  0  0  0  0
  4 36  1  0  0  0  0
  4 37  1  0  0  0  0
  5  6  1  0  0  0  0
  5 38  1  0  0  0  0
  5 39  1  0  0  0  0
  6 29  1  0  0  0  0
  6  7  1  0  0  0  0
  7  8  1  0  0  0  0
  7 40  1  0  0  0  0
  7 41  1  0  0  0  0
  8  9  1  0  0  0  0
  8 42  1  0  0  0  0
  8 43  1  0  0  0  0
  9 10  1  0  0  0  0
  9 44  1  0  0  0  0
  9 45  1  0  0  0  0
 10 11  1  0  0  0  0
 10 28  1  0  0  0  0
 11 16  1  0  0  0  0
 11 12  2  0  0  0  0
 12 13  1  0  0  0  0
 13 14  2  0  0  0  0
 13 46  1  0  0  0  0
 14 15  1  0  0  0  0
 15 19  1  0  0  0  0
 15 16  2  0  0  0  0
 16 17  1  0  0  0  0
 17 18  2  0  0  0  0
 18 19  1  0  0  0  0
 18 47  1  0  0  0  0
 19 20  1  0  0  0  0
 20 21  1  0  0  0  0
 20 48  1  0  0  0  0
 20 49  1  0  0  0  0
 21 22  1  0  0  0  0
 21 23  1  0  0  0  0
 21 50  1  0  0  0  0
 22 51  1  0  0  0  0
 23 27  1  0  0  0  0
 23 24  1  0  0  0  0
 23 52  1  0  0  0  0
 24 25  1  0  0  0  0
 24 53  1  0  0  0  0
 24 54  1  0  0  0  0
 25 26  1  0  0  0  0
 25 55  1  0  0  0  0
 25 56  1  0  0  0  0
 26 27  1  0  0  0  0
 26 57  1  0  0  0  0
 26 58  1  0  0  0  0
 28 29  1  0  0  0  0
 28 59  1  0  0  0  0
 28 60  1  0  0  0  0
 29 61  1  0  0  0  0
 29 62  1  0  0  0  0
M  CHG  1   2   1
M  END
> <s_m_source_file>
AV-unprocessed.smi

> <i_m_source_file_index>
155

> <i_lp_mmshare_version>
43012

> <i_f3d_flags>
0

> <s_epik_input>
W0NIM11OKFtDSDNdKVtDSDJdW0NIMl1OMVtDSDJdW0NIMl1bQ0gyXU4oW0NIMl1bQ0gyXTEpYyhuW2NIXW4yKWMoYzIzKW5bY0hdbjNbQ0gyXVtDQEhdKFtPSF0pW0NAQEhdNFtDSDJdW0NIMl1bQ0gyXU80

> <s_epik_cmdline>
J2VwaWtfcHl0aG9uJywgJy1waCcsICc3LjAnLCAnLXRuJywgJzgnLCAnLW1hJywgJzIwMCcsICctbWV0YWxfYmluZGluZycsICctaW1hZScsICc8aW5maWxlLm1hZT4nLCAnLW9tYWUnLCAnPG91dGZpbGUubWFlPic=

> <r_lp_tautomer_probability>
1

> <r_epik_Ionization_Penalty>
0.0599493

> <r_epik_Ionization_Penalty_Charging>
0.00816363

> <r_epik_Ionization_Penalty_Neutral>
0.0517857

> <r_epik_State_Penalty>
0.460607

> <r_epik_Charging_Adjusted_Penalty>
0.468771

> <i_epik_Tot_Q>
1

> <i_epik_Tot_abs_Q>
1

> <r_epik_Metal_State_Penalty>
0.45965

> <b_epik_Metal_Only>
0

> <s_lp_Force_Field>
OPLS_2005

> <r_lp_Energy>
58.8836

> <b_lp_Chiralities_Consistent>
1

> <s_lp_Variant>
AV-unprocessed.smi:155-10

> <Gold.Version>
5.8.1

> <Gold.Id.Protein>
6NUR|6NUR_protein|mol2

> <Gold.PLP.Fitness>
56.2689

> <Gold.PLP.PLP>
-47.1222

> <Gold.PLP.part.hbond>
-3.6886

> <Gold.PLP.part.metal>
0.0000

> <Gold.PLP.part.buried>
-8.2443

> <Gold.PLP.part.nonpolar>
-36.7921

> <Gold.PLP.part.repulsive>
0.1960

> <Gold.PLP.ligand.clash>
0.0000

> <Gold.PLP.ligand.torsion>
1.4727

> <Gold.PLP.Chemscore.Hbond>
3.9023

> <Gold.PLP.Chemscore.CHOScore>
0.0000

> <Gold.PLP.Chemscore.Metal>
0.0000

> <Gold.Chemscore.Hbonds>
donor molecule, donor type, donor heavy atom, donor atom, acceptor molecule, acceptor atom, score
      L1  H     2    63       P1 10957  1.81
      P1  H  7989  7998       L1    14  0.29
      P1  H  7997  8009       L1    14  0.66
      P1  H 10752 10765       L1    12  0.68

> <Gold.PLP.Chemscore.Internal.Correction>
0.3853

> <Gold.Rescore>
     Score         DG    S(hbond)    S(metal)    S(lipo)     H(rot)  DE(clash)    DE(int)     intcor
     16.12     -18.71       2.48        0.00     101.50       2.71       0.01       2.58       ----

> <Gold.Chemscore.Fitness>
16.1211

> <Gold.Chemscore.DG>
-18.7077

> <Gold.Chemscore.ZeroCoef>
-5.4800

> <Gold.Chemscore.Hbond>
2.4805

> <Gold.Chemscore.Metal>
0.0000

> <Gold.Chemscore.Lipo>
101.4995

> <Gold.Chemscore.Internal_Hbond>
0.0000

> <Gold.Chemscore.DEClash>
0.0098

> <Gold.Chemscore.DEInternal>
2.5769

> <Gold.Chemscore.Rot>
2.7080

> <Gold.Chemscore.Internal.Correction>
   9.000000E+99

> <Gold.Chemscore.Hbonds>
donor molecule, donor type, donor heavy atom, donor atom, acceptor molecule, acceptor atom, score
      L1  H     2    63       P1 10957  0.24
      P1  H  7989  7998       L1    14  0.01
      P1  H  7997  8009       L1    14  0.13
      P1  H 10752 10765       L1    12  0.40

> <Gold.Chemscore.Hbond.Weighted>
-8.2848

> <Gold.Chemscore.Metal.Weighted>
-0.0000

> <Gold.Chemscore.Lipo.Weighted>
-11.8754

> <Gold.Chemscore.Internal_Hbond.Weighted>
0.0000

> <Gold.Chemscore.DEClash.Weighted>
0.0098

> <Gold.Chemscore.DEInternal.Weighted>
2.5769

> <Gold.Chemscore.Rot.Weighted>
6.9326

> <Gold.Chemscore.Internal.Correction.Weighted>
   9.000000E+99

> <Gold.Protein.RotatedTorsions>
[ 6907 6896 6895 6894 ] final   46.85 input  -60.11 | X-H torsion
[ 7974 7965 7964 7962 ] final  -93.14 input  175.53 | X-H torsion
[ 8008 7997 7996 7995 ] final -151.60 input   59.86 | X-H torsion
[ 10167 10162 10161 10158 ] final  143.10 input  -65.29 | X-H torsion
[ 10718 10713 10712 10709 ] final   31.95 input   66.30 | X-H torsion
[ 10763 10752 10751 10750 ] final  168.25 input  -60.55 | X-H torsion
[ 11005 11000 10999 10996 ] final   16.44 input  -57.11 | X-H torsion

> <Gold.Protein.ActiveResidues>
 VAL166  LYS551  ARG553  GLY616  TRP617  ASP618  TYR619  PRO620  LYS621  CYS622 
 ASP623  PHE694  ASN695  SER759  ASP760  ASP761  ALA762  ILE779  LEU786  VAL792 
 PHE793  MET794  SER795  GLU796  ALA797  LYS798  CYS799  TRP800  GLU811  SER814 

> <Gold.Protein.RotatedAtoms>
  152.2612  134.8032  160.0430 H   0  0  0  0  0  0  0  0  0  0  0  0  # atno 6907 bound_to 6896
  151.8678  133.3464  159.3733 H   0  0  0  0  0  0  0  0  0  0  0  0  # atno 6908 bound_to 6896
  150.7117  134.5070  159.5633 H   0  0  0  0  0  0  0  0  0  0  0  0  # atno 6909 bound_to 6896
  145.3905  140.9527  143.2343 H   0  0  0  0  0  0  0  0  0  0  0  0  # atno 7974 bound_to 7965
  155.6419  140.0702  157.2615 H   0  0  0  0  0  0  0  0  0  0  0  0  # atno 8008 bound_to 7997
  154.4182  140.1749  156.1632 H   0  0  0  0  0  0  0  0  0  0  0  0  # atno 8009 bound_to 7997
  155.9848  140.3350  155.6700 H   0  0  0  0  0  0  0  0  0  0  0  0  # atno 8010 bound_to 7997
  139.4978  144.6063  151.6372 H   0  0  0  0  0  0  0  0  0  0  0  0  # atno 10167 bound_to 10162
  157.2790  130.7245  149.6546 H   0  0  0  0  0  0  0  0  0  0  0  0  # atno 10718 bound_to 10713
  154.3657  135.2753  155.2295 H   0  0  0  0  0  0  0  0  0  0  0  0  # atno 10763 bound_to 10752
  154.4463  135.5942  153.6166 H   0  0  0  0  0  0  0  0  0  0  0  0  # atno 10764 bound_to 10752
  152.9841  135.6031  154.3883 H   0  0  0  0  0  0  0  0  0  0  0  0  # atno 10765 bound_to 10752
  140.4471  134.1262  155.7697 H   0  0  0  0  0  0  0  0  0  0  0  0  # atno 11005 bound_to 11000
  144.8444  139.5421  143.6885 LP  0  0  0  0  0  0  0  0  0  0  0  0  # atno 17320 bound_to 7965
  146.2800  139.6852  142.9236 LP  0  0  0  0  0  0  0  0  0  0  0  0  # atno 17321 bound_to 7965
  140.5725  144.0084  150.6224 LP  0  0  0  0  0  0  0  0  0  0  0  0  # atno 17342 bound_to 10162
  140.3206  143.3139  152.0787 LP  0  0  0  0  0  0  0  0  0  0  0  0  # atno 17343 bound_to 10162
  155.9664  130.4344  150.5048 LP  0  0  0  0  0  0  0  0  0  0  0  0  # atno 17370 bound_to 10713
  157.2987  131.0641  151.2083 LP  0  0  0  0  0  0  0  0  0  0  0  0  # atno 17371 bound_to 10713
  141.1680  133.8664  157.1656 LP  0  0  0  0  0  0  0  0  0  0  0  0  # atno 17394 bound_to 11000
  140.0031  135.0019  157.0233 LP  0  0  0  0  0  0  0  0  0  0  0  0  # atno 17395 bound_to 11000

$$$$
