AV-unprocessed.smi:1641|AV-procd|sdf|6569|dock3
  -GOLD-   22720 7253D 1   1.00000     0.00000
 Structure written by MMmdl.
 41 42  0  0  0  0  0  0  0  0  3 V2000
  146.5629  136.5862  163.0796 C   0  0  0  0  0  0  0  0  0  0  0  0
  147.2408  136.2955  161.7844 C   0  0  0  0  0  0  0  0  0  0  0  0
  147.5638  137.2464  160.9044 N   0  0  0  0  0  0  0  0  0  0  0  0
  148.1812  136.7262  159.7762 N   0  0  0  0  0  0  0  0  0  0  0  0
  148.3227  135.3938  159.8210 C   0  0  0  0  0  0  0  0  0  0  0  0
  148.8888  134.6966  158.8219 N   0  5  0  0  0  0  0  0  0  0  0  0
  148.6368  135.0293  157.5361 C   0  0  0  0  0  0  0  0  0  0  0  0
  147.5265  135.1574  157.0151 O   0  0  0  0  0  0  0  0  0  0  0  0
  149.7422  135.2247  156.8057 N   0  0  0  0  0  0  0  0  0  0  0  0
  149.7627  135.5711  155.3918 C   0  0  0  0  0  0  0  0  0  0  0  0
  148.9169  136.8283  155.1385 C   0  0  0  0  0  0  0  0  0  0  0  0
  149.5000  137.6918  154.0778 N   0  3  1  0  0  0  0  0  0  0  0  0
  148.8599  139.0265  153.9769 C   0  0  0  0  0  0  0  0  0  0  0  0
  149.3503  139.9698  155.0945 C   0  0  2  0  0  0  0  0  0  0  0  0
  148.7700  141.3817  154.9556 C   0  0  0  0  0  0  0  0  0  0  0  0
  150.7686  140.0684  155.0245 O   0  0  0  0  0  0  0  0  0  0  0  0
  151.4201  138.8194  155.2301 C   0  0  2  0  0  0  0  0  0  0  0  0
  152.9327  139.0645  155.2104 C   0  0  0  0  0  0  0  0  0  0  0  0
  150.9782  137.8288  154.1309 C   0  0  0  0  0  0  0  0  0  0  0  0
  147.6711  134.6670  161.2895 S   0  0  0  0  0  0  0  0  0  0  0  0
  146.6189  137.6502  163.3118 H   0  0  0  0  0  0  0  0  0  0  0  0
  147.0407  136.0283  163.8849 H   0  0  0  0  0  0  0  0  0  0  0  0
  145.5142  136.2940  163.0232 H   0  0  0  0  0  0  0  0  0  0  0  0
  150.6317  135.1131  157.2699 H   0  0  0  0  0  0  0  0  0  0  0  0
  150.7982  135.7261  155.0879 H   0  0  0  0  0  0  0  0  0  0  0  0
  149.3752  134.7343  154.8085 H   0  0  0  0  0  0  0  0  0  0  0  0
  147.9225  136.5043  154.8278 H   0  0  0  0  0  0  0  0  0  0  0  0
  148.7786  137.3899  156.0624 H   0  0  0  0  0  0  0  0  0  0  0  0
  149.1128  139.4517  153.0046 H   0  0  0  0  0  0  0  0  0  0  0  0
  147.7733  138.9321  153.9937 H   0  0  0  0  0  0  0  0  0  0  0  0
  149.0633  139.5755  156.0706 H   0  0  0  0  0  0  0  0  0  0  0  0
  147.6813  141.3667  155.0132 H   0  0  0  0  0  0  0  0  0  0  0  0
  149.0495  141.8328  154.0031 H   0  0  0  0  0  0  0  0  0  0  0  0
  149.1349  142.0320  155.7511 H   0  0  0  0  0  0  0  0  0  0  0  0
  151.1538  138.4358  156.2158 H   0  0  0  0  0  0  0  0  0  0  0  0
  153.4825  138.1379  155.3770 H   0  0  0  0  0  0  0  0  0  0  0  0
  153.2233  139.7671  155.9920 H   0  0  0  0  0  0  0  0  0  0  0  0
  153.2553  139.4786  154.2546 H   0  0  0  0  0  0  0  0  0  0  0  0
  151.4571  136.8603  154.2706 H   0  0  0  0  0  0  0  0  0  0  0  0
  151.3148  138.1942  153.1597 H   0  0  0  0  0  0  0  0  0  0  0  0
  149.2846  137.2183  153.2119 H   0  0  0  0  0  0  0  0  0  0  0  0
  1  2  1  0  0  0  0
  1 21  1  0  0  0  0
  1 22  1  0  0  0  0
  1 23  1  0  0  0  0
  2 20  1  0  0  0  0
  2  3  2  0  0  0  0
  3  4  1  0  0  0  0
  4  5  2  0  0  0  0
  5  6  1  0  0  0  0
  5 20  1  0  0  0  0
  6  7  1  0  0  0  0
  7  8  2  0  0  0  0
  7  9  1  0  0  0  0
  9 10  1  0  0  0  0
  9 24  1  0  0  0  0
 10 11  1  0  0  0  0
 10 25  1  0  0  0  0
 10 26  1  0  0  0  0
 11 12  1  0  0  0  0
 11 27  1  0  0  0  0
 11 28  1  0  0  0  0
 12 19  1  0  0  0  0
 12 13  1  0  0  0  0
 12 41  1  0  0  0  0
 13 14  1  0  0  0  0
 13 29  1  0  0  0  0
 13 30  1  0  0  0  0
 14 15  1  0  0  0  0
 14 16  1  0  0  0  0
 14 31  1  0  0  0  0
 15 32  1  0  0  0  0
 15 33  1  0  0  0  0
 15 34  1  0  0  0  0
 16 17  1  0  0  0  0
 17 18  1  0  0  0  0
 17 19  1  0  0  0  0
 17 35  1  0  0  0  0
 18 36  1  0  0  0  0
 18 37  1  0  0  0  0
 18 38  1  0  0  0  0
 19 39  1  0  0  0  0
 19 40  1  0  0  0  0
M  CHG  1   6  -1
M  CHG  1  12   1
M  END
> <s_m_source_file>
AV-unprocessed.smi

> <i_m_source_file_index>
1641

> <i_lp_mmshare_version>
43012

> <i_f3d_flags>
0

> <s_epik_input>
W0NIM11jMW5uYyhzMSlbTkhdQyg9TylbTkhdW0NIMl1bQ0gyXU4yW0NIMl1bQ0BASF0oW0NIM10pT1tDQEBIXShbQ0gzXSlbQ0gyXTI=

> <s_epik_cmdline>
J2VwaWtfcHl0aG9uJywgJy1waCcsICc3LjAnLCAnLXRuJywgJzgnLCAnLW1hJywgJzIwMCcsICctbWV0YWxfYmluZGluZycsICctaW1hZScsICc8aW5maWxlLm1hZT4nLCAnLW9tYWUnLCAnPG91dGZpbGUubWFlPic=

> <r_lp_tautomer_probability>
1

> <r_epik_Ionization_Penalty>
3.5343

> <r_epik_Ionization_Penalty_Charging>
3.42778

> <r_epik_Ionization_Penalty_Neutral>
0.106519

> <r_epik_State_Penalty>
3.62118

> <r_epik_Charging_Adjusted_Penalty>
7.04896

> <i_epik_Tot_Q>
0

> <i_epik_Tot_abs_Q>
2

> <r_epik_Metal_State_Penalty>
1.13984

> <b_epik_Metal_Only>
1

> <s_lp_Force_Field>
OPLS_2005

> <r_lp_Energy>
10.5073

> <b_lp_Chiralities_Consistent>
1

> <s_lp_Variant>
AV-unprocessed.smi:1641-14

> <Gold.Version>
5.8.1

> <Gold.Id.Protein>
6NUR|6NUR_protein|mol2

> <Gold.PLP.Fitness>
47.5803

> <Gold.PLP.PLP>
-29.4710

> <Gold.PLP.part.hbond>
-5.0000

> <Gold.PLP.part.metal>
0.0000

> <Gold.PLP.part.buried>
-2.0857

> <Gold.PLP.part.nonpolar>
-23.5171

> <Gold.PLP.part.repulsive>
0.1342

> <Gold.PLP.ligand.clash>
0.0000

> <Gold.PLP.ligand.torsion>
1.1600

> <Gold.PLP.Chemscore.Hbond>
6.7920

> <Gold.PLP.Chemscore.CHOScore>
0.0000

> <Gold.PLP.Chemscore.Metal>
0.0000

> <Gold.Chemscore.Hbonds>
donor molecule, donor type, donor heavy atom, donor atom, acceptor molecule, acceptor atom, score
      L1  H    12    41       P1  7948  2.00
      P1  H  6896  6907       L1     6  2.00
      P1  H  6931  6943       L1     3  0.80
      P1  H  6934  6947       L1     3  0.98
      P1  H  7989  7998       L1    16  1.00

> <Gold.PLP.Chemscore.Internal.Correction>
0.0532

> <Gold.Rescore>
     Score         DG    S(hbond)    S(metal)    S(lipo)     H(rot)  DE(clash)    DE(int)     intcor
     18.43     -21.64       3.42        0.00      75.56       1.61       0.79       2.42       ----

> <Gold.Chemscore.Fitness>
18.4261

> <Gold.Chemscore.DG>
-21.6357

> <Gold.Chemscore.ZeroCoef>
-5.4800

> <Gold.Chemscore.Hbond>
3.4217

> <Gold.Chemscore.Metal>
0.0000

> <Gold.Chemscore.Lipo>
75.5646

> <Gold.Chemscore.Internal_Hbond>
0.0000

> <Gold.Chemscore.DEClash>
0.7890

> <Gold.Chemscore.DEInternal>
2.4206

> <Gold.Chemscore.Rot>
1.6070

> <Gold.Chemscore.Internal.Correction>
   9.000000E+99

> <Gold.Chemscore.Hbonds>
donor molecule, donor type, donor heavy atom, donor atom, acceptor molecule, acceptor atom, score
      L1  H    12    41       P1  7948  0.98
      P1  H  6896  6907       L1     6  0.70
      P1  H  6931  6943       L1     3  0.13
      P1  H  6934  6947       L1     3  0.89
      P1  H  7989  7998       L1    16  0.54

> <Gold.Chemscore.Hbond.Weighted>
-11.4286

> <Gold.Chemscore.Metal.Weighted>
-0.0000

> <Gold.Chemscore.Lipo.Weighted>
-8.8411

> <Gold.Chemscore.Internal_Hbond.Weighted>
0.0000

> <Gold.Chemscore.DEClash.Weighted>
0.7890

> <Gold.Chemscore.DEInternal.Weighted>
2.4206

> <Gold.Chemscore.Rot.Weighted>
4.1139

> <Gold.Chemscore.Internal.Correction.Weighted>
   9.000000E+99

> <Gold.Protein.RotatedTorsions>
[ 6907 6896 6895 6894 ] final -102.22 input  -60.11 | X-H torsion
[ 7974 7965 7964 7962 ] final -168.16 input  175.53 | X-H torsion
[ 8008 7997 7996 7995 ] final  115.35 input   59.86 | X-H torsion
[ 10167 10162 10161 10158 ] final   19.48 input  -65.29 | X-H torsion
[ 10718 10713 10712 10709 ] final   43.35 input   66.30 | X-H torsion
[ 10763 10752 10751 10750 ] final  -98.81 input  -60.55 | X-H torsion
[ 11005 11000 10999 10996 ] final  -47.90 input  -57.11 | X-H torsion

> <Gold.Protein.ActiveResidues>
 VAL166  LYS551  ARG553  GLY616  TRP617  ASP618  TYR619  PRO620  LYS621  CYS622 
 ASP623  PHE694  ASN695  SER759  ASP760  ASP761  ALA762  ILE779  LEU786  VAL792 
 PHE793  MET794  SER795  GLU796  ALA797  LYS798  CYS799  TRP800  GLU811  SER814 

> <Gold.Protein.RotatedAtoms>
  150.7187  134.0614  159.3832 H   0  0  0  0  0  0  0  0  0  0  0  0  # atno 6907 bound_to 6896
  151.8594  135.0527  160.0477 H   0  0  0  0  0  0  0  0  0  0  0  0  # atno 6908 bound_to 6896
  152.2729  133.5363  159.5486 H   0  0  0  0  0  0  0  0  0  0  0  0  # atno 6909 bound_to 6896
  144.7208  140.2411  143.6291 H   0  0  0  0  0  0  0  0  0  0  0  0  # atno 7974 bound_to 7965
  156.2376  140.2940  156.0355 H   0  0  0  0  0  0  0  0  0  0  0  0  # atno 8008 bound_to 7997
  155.2046  140.0410  157.2940 H   0  0  0  0  0  0  0  0  0  0  0  0  # atno 8009 bound_to 7997
  154.6107  140.2451  155.7679 H   0  0  0  0  0  0  0  0  0  0  0  0  # atno 8010 bound_to 7997
  140.5576  143.9396  150.6620 H   0  0  0  0  0  0  0  0  0  0  0  0  # atno 10167 bound_to 10162
  157.4149  130.7935  149.7463 H   0  0  0  0  0  0  0  0  0  0  0  0  # atno 10718 bound_to 10713
  154.7445  135.4995  153.9181 H   0  0  0  0  0  0  0  0  0  0  0  0  # atno 10763 bound_to 10752
  153.1078  135.6701  153.9563 H   0  0  0  0  0  0  0  0  0  0  0  0  # atno 10764 bound_to 10752
  153.9331  135.3076  155.3424 H   0  0  0  0  0  0  0  0  0  0  0  0  # atno 10765 bound_to 10752
  141.0668  133.6691  156.3363 H   0  0  0  0  0  0  0  0  0  0  0  0  # atno 11005 bound_to 11000
  145.8318  139.2089  143.1878 LP  0  0  0  0  0  0  0  0  0  0  0  0  # atno 17320 bound_to 7965
  146.0424  140.8152  142.9822 LP  0  0  0  0  0  0  0  0  0  0  0  0  # atno 17321 bound_to 7965
  140.2838  143.3371  152.1126 LP  0  0  0  0  0  0  0  0  0  0  0  0  # atno 17342 bound_to 10162
  139.5055  144.6796  151.6042 LP  0  0  0  0  0  0  0  0  0  0  0  0  # atno 17343 bound_to 10162
  155.9862  130.3977  150.3224 LP  0  0  0  0  0  0  0  0  0  0  0  0  # atno 17370 bound_to 10713
  157.1366  131.0285  151.2946 LP  0  0  0  0  0  0  0  0  0  0  0  0  # atno 17371 bound_to 10713
  140.5756  134.5797  157.5468 LP  0  0  0  0  0  0  0  0  0  0  0  0  # atno 17394 bound_to 11000
  139.9484  134.7660  156.0506 LP  0  0  0  0  0  0  0  0  0  0  0  0  # atno 17395 bound_to 11000

$$$$
