AV-unprocessed.smi:1328|AV-procd|sdf|5482|dock2
  -GOLD-   22720 5 53D 1   1.00000     0.00000
 Structure written by MMmdl.
 38 39  0  0  0  0  0  0  0  0  1 V2000
  149.9929  131.3788  156.3023 C   0  0  0  0  0  0  0  0  0  0  0  0
  149.8828  132.8763  156.3384 C   0  0  0  0  0  0  0  0  0  0  0  0
  150.0185  133.5136  157.4893 N   0  0  0  0  0  0  0  0  0  0  0  0
  149.8698  134.8725  157.1947 O   0  0  0  0  0  0  0  0  0  0  0  0
  149.6458  135.0009  155.8621 C   0  0  0  0  0  0  0  0  0  0  0  0
  149.4665  136.3868  155.3412 C   0  0  0  0  0  0  0  0  0  0  0  0
  149.6390  133.7734  155.2590 C   0  0  0  0  0  0  0  0  0  0  0  0
  149.4311  133.4434  153.8039 C   0  0  0  0  0  0  0  0  0  0  0  0
  147.9387  133.2588  153.5298 C   0  0  0  0  0  0  0  0  0  0  0  0
  147.3432  132.2892  153.9989 O   0  0  0  0  0  0  0  0  0  0  0  0
  147.3499  134.2016  152.7770 N   0  0  0  0  0  0  0  0  0  0  0  0
  145.9316  134.2649  152.4309 C   0  0  1  0  0  0  0  0  0  0  0  0
  145.6558  135.6129  151.7492 C   0  0  0  0  0  0  0  0  0  0  0  0
  145.5372  133.0766  151.5295 C   0  0  1  0  0  0  0  0  0  0  0  0
  144.1385  133.1610  150.9155 C   0  0  0  0  0  0  0  0  0  0  0  0
  144.2394  132.2866  149.6761 C   0  0  0  0  0  0  0  0  0  0  0  0
  145.7462  132.1402  149.4458 C   0  0  0  0  0  0  0  0  0  0  0  0
  146.3564  133.0291  150.3718 O   0  0  0  0  0  0  0  0  0  0  0  0
  149.0125  130.9207  156.1727 H   0  0  0  0  0  0  0  0  0  0  0  0
  150.4259  130.9834  157.2217 H   0  0  0  0  0  0  0  0  0  0  0  0
  150.6244  131.0518  155.4765 H   0  0  0  0  0  0  0  0  0  0  0  0
  150.3469  136.7032  154.7817 H   0  0  0  0  0  0  0  0  0  0  0  0
  149.3092  137.0957  156.1544 H   0  0  0  0  0  0  0  0  0  0  0  0
  148.6050  136.4414  154.6757 H   0  0  0  0  0  0  0  0  0  0  0  0
  149.8350  134.2246  153.1581 H   0  0  0  0  0  0  0  0  0  0  0  0
  149.9502  132.5256  153.5261 H   0  0  0  0  0  0  0  0  0  0  0  0
  147.9292  134.9538  152.4335 H   0  0  0  0  0  0  0  0  0  0  0  0
  145.3290  134.2280  153.3402 H   0  0  0  0  0  0  0  0  0  0  0  0
  144.5983  135.7240  151.5088 H   0  0  0  0  0  0  0  0  0  0  0  0
  146.2196  135.7123  150.8210 H   0  0  0  0  0  0  0  0  0  0  0  0
  145.9323  136.4446  152.3979 H   0  0  0  0  0  0  0  0  0  0  0  0
  145.6443  132.1359  152.0735 H   0  0  0  0  0  0  0  0  0  0  0  0
  143.3550  132.8370  151.6010 H   0  0  0  0  0  0  0  0  0  0  0  0
  143.9213  134.1877  150.6171 H   0  0  0  0  0  0  0  0  0  0  0  0
  143.7822  131.3104  149.8407 H   0  0  0  0  0  0  0  0  0  0  0  0
  143.7404  132.7520  148.8257 H   0  0  0  0  0  0  0  0  0  0  0  0
  146.0686  131.1202  149.6597 H   0  0  0  0  0  0  0  0  0  0  0  0
  146.0389  132.3822  148.4239 H   0  0  0  0  0  0  0  0  0  0  0  0
  1  2  1  0  0  0  0
  1 19  1  0  0  0  0
  1 20  1  0  0  0  0
  1 21  1  0  0  0  0
  2  7  1  0  0  0  0
  2  3  2  0  0  0  0
  3  4  1  0  0  0  0
  4  5  1  0  0  0  0
  5  6  1  0  0  0  0
  5  7  2  0  0  0  0
  6 22  1  0  0  0  0
  6 23  1  0  0  0  0
  6 24  1  0  0  0  0
  7  8  1  0  0  0  0
  8  9  1  0  0  0  0
  8 25  1  0  0  0  0
  8 26  1  0  0  0  0
  9 10  2  0  0  0  0
  9 11  1  0  0  0  0
 11 12  1  0  0  0  0
 11 27  1  0  0  0  0
 12 13  1  0  0  0  0
 12 14  1  0  0  0  0
 12 28  1  0  0  0  0
 13 29  1  0  0  0  0
 13 30  1  0  0  0  0
 13 31  1  0  0  0  0
 14 18  1  0  0  0  0
 14 15  1  0  0  0  0
 14 32  1  0  0  0  0
 15 16  1  0  0  0  0
 15 33  1  0  0  0  0
 15 34  1  0  0  0  0
 16 17  1  0  0  0  0
 16 35  1  0  0  0  0
 16 36  1  0  0  0  0
 17 18  1  0  0  0  0
 17 37  1  0  0  0  0
 17 38  1  0  0  0  0
M  END
> <s_m_source_file>
AV-unprocessed.smi

> <i_m_source_file_index>
1328

> <i_lp_mmshare_version>
43012

> <i_f3d_flags>
0

> <s_epik_input>
W0NIM11jMW5vYyhbQ0gzXSljMVtDSDJdQyg9TylbTkhdW0NASF0oW0NIM10pW0NAQEhdMltDSDJdW0NIMl1bQ0gyXU8y

> <s_epik_cmdline>
J2VwaWtfcHl0aG9uJywgJy1waCcsICc3LjAnLCAnLXRuJywgJzgnLCAnLW1hJywgJzIwMCcsICctbWV0YWxfYmluZGluZycsICctaW1hZScsICc8aW5maWxlLm1hZT4nLCAnLW9tYWUnLCAnPG91dGZpbGUubWFlPic=

> <r_lp_tautomer_probability>
1

> <r_epik_Ionization_Penalty>
2.66156e-08

> <r_epik_Ionization_Penalty_Charging>
0

> <r_epik_Ionization_Penalty_Neutral>
2.66156e-08

> <r_epik_State_Penalty>
-0

> <r_epik_Charging_Adjusted_Penalty>
0

> <i_epik_Tot_Q>
0

> <i_epik_Tot_abs_Q>
0

> <r_epik_Metal_State_Penalty>
-0

> <b_epik_Metal_Only>
0

> <s_lp_Force_Field>
OPLS_2005

> <r_lp_Energy>
12.2386

> <b_lp_Chiralities_Consistent>
1

> <s_lp_Variant>
AV-unprocessed.smi:1328-4

> <Gold.Version>
5.8.1

> <Gold.Id.Protein>
6NUR|6NUR_protein|mol2

> <Gold.PLP.Fitness>
36.8077

> <Gold.PLP.PLP>
-32.0294

> <Gold.PLP.part.hbond>
-2.3930

> <Gold.PLP.part.metal>
0.0000

> <Gold.PLP.part.buried>
-6.1651

> <Gold.PLP.part.nonpolar>
-24.7483

> <Gold.PLP.part.repulsive>
0.2557

> <Gold.PLP.ligand.clash>
0.0000

> <Gold.PLP.ligand.torsion>
0.5702

> <Gold.PLP.Chemscore.Hbond>
1.9600

> <Gold.PLP.Chemscore.CHOScore>
0.0000

> <Gold.PLP.Chemscore.Metal>
0.0000

> <Gold.Chemscore.Hbonds>
donor molecule, donor type, donor heavy atom, donor atom, acceptor molecule, acceptor atom, score
      L1  H    11    27       P1  7948  1.00
      P1  H  6896  6907       L1     3  0.91

> <Gold.PLP.Chemscore.Internal.Correction>
0.0388

> <Gold.Rescore>
     Score         DG    S(hbond)    S(metal)    S(lipo)     H(rot)  DE(clash)    DE(int)     intcor
     14.42     -15.17       1.55        0.00      71.67       1.52       0.00       0.75       ----

> <Gold.Chemscore.Fitness>
14.4218

> <Gold.Chemscore.DG>
-15.1713

> <Gold.Chemscore.ZeroCoef>
-5.4800

> <Gold.Chemscore.Hbond>
1.5529

> <Gold.Chemscore.Metal>
0.0000

> <Gold.Chemscore.Lipo>
71.6699

> <Gold.Chemscore.Internal_Hbond>
0.0000

> <Gold.Chemscore.DEClash>
0.0000

> <Gold.Chemscore.DEInternal>
0.7495

> <Gold.Chemscore.Rot>
1.5159

> <Gold.Chemscore.Internal.Correction>
   9.000000E+99

> <Gold.Chemscore.Hbonds>
donor molecule, donor type, donor heavy atom, donor atom, acceptor molecule, acceptor atom, score
      L1  H    11    27       P1  7948  0.85
      P1  H  6896  6907       L1     3  0.34

> <Gold.Chemscore.Hbond.Weighted>
-5.1867

> <Gold.Chemscore.Metal.Weighted>
-0.0000

> <Gold.Chemscore.Lipo.Weighted>
-8.3854

> <Gold.Chemscore.Internal_Hbond.Weighted>
0.0000

> <Gold.Chemscore.DEClash.Weighted>
0.0000

> <Gold.Chemscore.DEInternal.Weighted>
0.7495

> <Gold.Chemscore.Rot.Weighted>
3.8807

> <Gold.Chemscore.Internal.Correction.Weighted>
   9.000000E+99

> <Gold.Protein.RotatedTorsions>
[ 6907 6896 6895 6894 ] final -143.39 input  -60.11 | X-H torsion
[ 7974 7965 7964 7962 ] final  166.24 input  175.53 | X-H torsion
[ 8008 7997 7996 7995 ] final  -44.68 input   59.86 | X-H torsion
[ 10167 10162 10161 10158 ] final  -21.42 input  -65.29 | X-H torsion
[ 10718 10713 10712 10709 ] final   91.69 input   66.30 | X-H torsion
[ 10763 10752 10751 10750 ] final  156.41 input  -60.55 | X-H torsion
[ 11005 11000 10999 10996 ] final   49.08 input  -57.11 | X-H torsion

> <Gold.Protein.ActiveResidues>
 VAL166  LYS551  ARG553  GLY616  TRP617  ASP618  TYR619  PRO620  LYS621  CYS622 
 ASP623  PHE694  ASN695  SER759  ASP760  ASP761  ALA762  ILE779  LEU786  VAL792 
 PHE793  MET794  SER795  GLU796  ALA797  LYS798  CYS799  TRP800  GLU811  SER814 

> <Gold.Protein.RotatedAtoms>
  151.0998  133.5252  159.2610 H   0  0  0  0  0  0  0  0  0  0  0  0  # atno 6907 bound_to 6896
  151.2087  135.0472  159.8912 H   0  0  0  0  0  0  0  0  0  0  0  0  # atno 6908 bound_to 6896
  152.5442  134.0816  159.8291 H   0  0  0  0  0  0  0  0  0  0  0  0  # atno 6909 bound_to 6896
  144.7470  139.8586  143.6379 H   0  0  0  0  0  0  0  0  0  0  0  0  # atno 7974 bound_to 7965
  154.3998  140.1416  156.3723 H   0  0  0  0  0  0  0  0  0  0  0  0  # atno 8008 bound_to 7997
  155.8081  140.3473  155.5421 H   0  0  0  0  0  0  0  0  0  0  0  0  # atno 8009 bound_to 7997
  155.8415  140.0927  157.1722 H   0  0  0  0  0  0  0  0  0  0  0  0  # atno 8010 bound_to 7997
  140.7282  143.4629  151.0354 H   0  0  0  0  0  0  0  0  0  0  0  0  # atno 10167 bound_to 10162
  157.6960  131.0416  150.3767 H   0  0  0  0  0  0  0  0  0  0  0  0  # atno 10718 bound_to 10713
  154.1839  135.2798  155.3043 H   0  0  0  0  0  0  0  0  0  0  0  0  # atno 10763 bound_to 10752
  154.5981  135.5538  153.7349 H   0  0  0  0  0  0  0  0  0  0  0  0  # atno 10764 bound_to 10752
  153.0130  135.6385  154.1978 H   0  0  0  0  0  0  0  0  0  0  0  0  # atno 10765 bound_to 10752
  140.1135  134.4924  155.8658 H   0  0  0  0  0  0  0  0  0  0  0  0  # atno 11005 bound_to 11000
  146.1365  139.4411  143.0136 LP  0  0  0  0  0  0  0  0  0  0  0  0  # atno 17320 bound_to 7965
  145.7084  141.0114  143.1466 LP  0  0  0  0  0  0  0  0  0  0  0  0  # atno 17321 bound_to 7965
  139.8315  143.7684  152.3180 LP  0  0  0  0  0  0  0  0  0  0  0  0  # atno 17342 bound_to 10162
  139.7802  144.7447  151.0099 LP  0  0  0  0  0  0  0  0  0  0  0  0  # atno 17343 bound_to 10162
  156.4186  130.3948  149.6841 LP  0  0  0  0  0  0  0  0  0  0  0  0  # atno 17370 bound_to 10713
  156.4100  130.7717  151.2730 LP  0  0  0  0  0  0  0  0  0  0  0  0  # atno 17371 bound_to 10713
  141.2136  133.6735  156.6750 LP  0  0  0  0  0  0  0  0  0  0  0  0  # atno 17394 bound_to 11000
  140.3060  134.8125  157.4137 LP  0  0  0  0  0  0  0  0  0  0  0  0  # atno 17395 bound_to 11000

$$$$
