AV-unprocessed.smi:1312|AV-procd|sdf|5449|dock1
  -GOLD-   22720 5 23D 1   1.00000     0.00000
 Structure written by MMmdl.
 50 51  0  0  0  0  0  0  0  0  2 V2000
  147.0989  139.1523  151.8089 C   0  0  0  0  0  0  0  0  0  0  0  0
  147.4390  140.6217  152.1051 C   0  0  0  0  0  0  0  0  0  0  0  0
  147.4081  141.0111  153.6104 C   0  0  1  0  0  0  0  0  0  0  0  0
  148.7707  141.6445  154.0184 C   0  0  0  0  0  0  0  0  0  0  0  0
  148.9570  141.8088  155.4559 N   0  0  0  0  0  0  0  0  0  0  0  0
  150.1417  141.7803  156.0882 C   0  0  0  0  0  0  0  0  0  0  0  0
  151.2092  141.5988  155.5040 O   0  0  0  0  0  0  0  0  0  0  0  0
  150.1262  141.9498  157.6105 C   0  0  0  0  0  0  0  0  0  0  0  0
  151.3794  141.3837  158.2351 C   0  0  0  0  0  0  0  0  0  0  0  0
  152.0233  140.1514  157.9166 C   0  0  0  0  0  0  0  0  0  0  0  0
  151.6206  139.1242  156.8969 C   0  0  0  0  0  0  0  0  0  0  0  0
  153.1070  139.9453  158.6456 N   0  0  0  0  0  0  0  0  0  0  0  0
  153.1957  141.0265  159.4452 N   0  0  0  0  0  0  0  0  0  0  0  0
  154.2922  141.1231  160.3893 C   0  0  0  0  0  0  0  0  0  0  0  0
  152.1636  141.9178  159.2236 C   0  0  0  0  0  0  0  0  0  0  0  0
  152.0443  143.2001  159.9836 C   0  0  0  0  0  0  0  0  0  0  0  0
  146.2665  141.9324  153.9282 N   0  3  0  0  0  0  0  0  0  0  0  0
  145.8503  142.0133  155.3470 C   0  0  0  0  0  0  0  0  0  0  0  0
  145.0179  143.2853  155.4468 C   0  0  0  0  0  0  0  0  0  0  0  0
  145.7481  144.2426  154.5146 C   0  0  0  0  0  0  0  0  0  0  0  0
  146.4158  143.3390  153.4692 C   0  0  0  0  0  0  0  0  0  0  0  0
  146.9735  138.9987  150.7368 H   0  0  0  0  0  0  0  0  0  0  0  0
  146.1685  138.8562  152.2939 H   0  0  0  0  0  0  0  0  0  0  0  0
  147.8843  138.4714  152.1343 H   0  0  0  0  0  0  0  0  0  0  0  0
  148.4118  140.8636  151.6754 H   0  0  0  0  0  0  0  0  0  0  0  0
  146.7076  141.2045  151.5471 H   0  0  0  0  0  0  0  0  0  0  0  0
  147.2558  140.0886  154.1727 H   0  0  0  0  0  0  0  0  0  0  0  0
  149.6090  141.0516  153.6554 H   0  0  0  0  0  0  0  0  0  0  0  0
  148.8755  142.6240  153.5511 H   0  0  0  0  0  0  0  0  0  0  0  0
  148.1302  141.9758  156.0114 H   0  0  0  0  0  0  0  0  0  0  0  0
  150.0050  143.0093  157.8355 H   0  0  0  0  0  0  0  0  0  0  0  0
  149.2386  141.4580  158.0106 H   0  0  0  0  0  0  0  0  0  0  0  0
  151.0554  139.5754  156.0815 H   0  0  0  0  0  0  0  0  0  0  0  0
  150.9953  138.3532  157.3469 H   0  0  0  0  0  0  0  0  0  0  0  0
  152.4908  138.6346  156.4586 H   0  0  0  0  0  0  0  0  0  0  0  0
  154.7639  142.1024  160.3088 H   0  0  0  0  0  0  0  0  0  0  0  0
  155.0414  140.3560  160.1893 H   0  0  0  0  0  0  0  0  0  0  0  0
  153.9131  140.9920  161.4030 H   0  0  0  0  0  0  0  0  0  0  0  0
  151.0781  143.6749  159.8166 H   0  0  0  0  0  0  0  0  0  0  0  0
  152.8191  143.9028  159.6765 H   0  0  0  0  0  0  0  0  0  0  0  0
  152.1476  143.0291  161.0554 H   0  0  0  0  0  0  0  0  0  0  0  0
  145.2827  141.1364  155.6601 H   0  0  0  0  0  0  0  0  0  0  0  0
  146.7306  142.1047  155.9857 H   0  0  0  0  0  0  0  0  0  0  0  0
  144.0092  143.0997  155.0751 H   0  0  0  0  0  0  0  0  0  0  0  0
  144.9385  143.6630  156.4667 H   0  0  0  0  0  0  0  0  0  0  0  0
  145.0778  144.9774  154.0672 H   0  0  0  0  0  0  0  0  0  0  0  0
  146.5123  144.7872  155.0711 H   0  0  0  0  0  0  0  0  0  0  0  0
  147.4648  143.6198  153.3690 H   0  0  0  0  0  0  0  0  0  0  0  0
  145.9420  143.4564  152.4940 H   0  0  0  0  0  0  0  0  0  0  0  0
  145.4601  141.5663  153.4427 H   0  0  0  0  0  0  0  0  0  0  0  0
  1  2  1  0  0  0  0
  1 22  1  0  0  0  0
  1 23  1  0  0  0  0
  1 24  1  0  0  0  0
  2  3  1  0  0  0  0
  2 25  1  0  0  0  0
  2 26  1  0  0  0  0
  3  4  1  0  0  0  0
  3 17  1  0  0  0  0
  3 27  1  0  0  0  0
  4  5  1  0  0  0  0
  4 28  1  0  0  0  0
  4 29  1  0  0  0  0
  5  6  1  0  0  0  0
  5 30  1  0  0  0  0
  6  7  2  0  0  0  0
  6  8  1  0  0  0  0
  8  9  1  0  0  0  0
  8 31  1  0  0  0  0
  8 32  1  0  0  0  0
  9 15  2  0  0  0  0
  9 10  1  0  0  0  0
 10 11  1  0  0  0  0
 10 12  2  0  0  0  0
 11 33  1  0  0  0  0
 11 34  1  0  0  0  0
 11 35  1  0  0  0  0
 12 13  1  0  0  0  0
 13 14  1  0  0  0  0
 13 15  1  0  0  0  0
 14 36  1  0  0  0  0
 14 37  1  0  0  0  0
 14 38  1  0  0  0  0
 15 16  1  0  0  0  0
 16 39  1  0  0  0  0
 16 40  1  0  0  0  0
 16 41  1  0  0  0  0
 17 21  1  0  0  0  0
 17 18  1  0  0  0  0
 17 50  1  0  0  0  0
 18 19  1  0  0  0  0
 18 42  1  0  0  0  0
 18 43  1  0  0  0  0
 19 20  1  0  0  0  0
 19 44  1  0  0  0  0
 19 45  1  0  0  0  0
 20 21  1  0  0  0  0
 20 46  1  0  0  0  0
 20 47  1  0  0  0  0
 21 48  1  0  0  0  0
 21 49  1  0  0  0  0
M  CHG  1  17   1
M  END
> <s_m_source_file>
AV-unprocessed.smi

> <i_m_source_file_index>
1312

> <i_lp_mmshare_version>
43012

> <i_f3d_flags>
0

> <s_epik_input>
W0NIMl0xW0NIMl1bQ0gyXVtDSDJdTjFbQ0BIXShbQ0gyXVtDSDNdKVtDSDJdW05IXUMoPU8pW0NIMl1jMmMoW0NIM10pbm4oW0NIM10pYzJbQ0gzXQ==

> <s_epik_cmdline>
J2VwaWtfcHl0aG9uJywgJy1waCcsICc3LjAnLCAnLXRuJywgJzgnLCAnLW1hJywgJzIwMCcsICctbWV0YWxfYmluZGluZycsICctaW1hZScsICc8aW5maWxlLm1hZT4nLCAnLW9tYWUnLCAnPG91dGZpbGUubWFlPic=

> <r_lp_tautomer_probability>
1

> <r_epik_Ionization_Penalty>
0.00585463

> <r_epik_Ionization_Penalty_Charging>
0.00366302

> <r_epik_Ionization_Penalty_Neutral>
0.00219161

> <r_epik_State_Penalty>
-0

> <r_epik_Charging_Adjusted_Penalty>
0.00366302

> <i_epik_Tot_Q>
1

> <i_epik_Tot_abs_Q>
1

> <r_epik_Metal_State_Penalty>
-0

> <b_epik_Metal_Only>
0

> <s_lp_Force_Field>
OPLS_2005

> <r_lp_Energy>
35.2401

> <b_lp_Chiralities_Consistent>
1

> <s_lp_Variant>
AV-unprocessed.smi:1312-2

> <Gold.Version>
5.8.1

> <Gold.Id.Protein>
6NUR|6NUR_protein|mol2

> <Gold.PLP.Fitness>
46.8694

> <Gold.PLP.PLP>
-40.1428

> <Gold.PLP.part.hbond>
-3.7518

> <Gold.PLP.part.metal>
0.0000

> <Gold.PLP.part.buried>
0.7773

> <Gold.PLP.part.nonpolar>
-36.4108

> <Gold.PLP.part.repulsive>
0.1850

> <Gold.PLP.ligand.clash>
0.0000

> <Gold.PLP.ligand.torsion>
1.7198

> <Gold.PLP.Chemscore.Hbond>
3.2962

> <Gold.PLP.Chemscore.CHOScore>
0.0000

> <Gold.PLP.Chemscore.Metal>
0.0000

> <Gold.Chemscore.Hbonds>
donor molecule, donor type, donor heavy atom, donor atom, acceptor molecule, acceptor atom, score
      L1  H    17    50       P1 10175  0.59
      P1  H  7989  7998       L1     7  0.25
      P1  H  7997  8009       L1    12  0.57

> <Gold.PLP.Chemscore.Internal.Correction>
0.2776

> <Gold.Rescore>
     Score         DG    S(hbond)    S(metal)    S(lipo)     H(rot)  DE(clash)    DE(int)     intcor
     14.01     -18.29       1.56        0.00     102.58       1.72       1.90       2.39       ----

> <Gold.Chemscore.Fitness>
14.0070

> <Gold.Chemscore.DG>
-18.2888

> <Gold.Chemscore.ZeroCoef>
-5.4800

> <Gold.Chemscore.Hbond>
1.5609

> <Gold.Chemscore.Metal>
0.0000

> <Gold.Chemscore.Lipo>
102.5812

> <Gold.Chemscore.Internal_Hbond>
0.0000

> <Gold.Chemscore.DEClash>
1.8963

> <Gold.Chemscore.DEInternal>
2.3855

> <Gold.Chemscore.Rot>
1.7213

> <Gold.Chemscore.Internal.Correction>
   9.000000E+99

> <Gold.Chemscore.Hbonds>
donor molecule, donor type, donor heavy atom, donor atom, acceptor molecule, acceptor atom, score
      L1  H    17    50       P1 10175  0.04
      P1  H  7989  7998       L1     7  0.25
      P1  H  7997  8009       L1    12  0.10

> <Gold.Chemscore.Hbond.Weighted>
-5.2134

> <Gold.Chemscore.Metal.Weighted>
-0.0000

> <Gold.Chemscore.Lipo.Weighted>
-12.0020

> <Gold.Chemscore.Internal_Hbond.Weighted>
0.0000

> <Gold.Chemscore.DEClash.Weighted>
1.8963

> <Gold.Chemscore.DEInternal.Weighted>
2.3855

> <Gold.Chemscore.Rot.Weighted>
4.4065

> <Gold.Chemscore.Internal.Correction.Weighted>
   9.000000E+99

> <Gold.Protein.RotatedTorsions>
[ 6907 6896 6895 6894 ] final   19.43 input  -60.11 | X-H torsion
[ 7974 7965 7964 7962 ] final   53.95 input  175.53 | X-H torsion
[ 8008 7997 7996 7995 ] final  152.59 input   59.86 | X-H torsion
[ 10167 10162 10161 10158 ] final -134.44 input  -65.29 | X-H torsion
[ 10718 10713 10712 10709 ] final  -17.31 input   66.30 | X-H torsion
[ 10763 10752 10751 10750 ] final   72.57 input  -60.55 | X-H torsion
[ 11005 11000 10999 10996 ] final -163.57 input  -57.11 | X-H torsion

> <Gold.Protein.ActiveResidues>
 VAL166  LYS551  ARG553  GLY616  TRP617  ASP618  TYR619  PRO620  LYS621  CYS622 
 ASP623  PHE694  ASN695  SER759  ASP760  ASP761  ALA762  ILE779  LEU786  VAL792 
 PHE793  MET794  SER795  GLU796  ALA797  LYS798  CYS799  TRP800  GLU811  SER814 

> <Gold.Protein.RotatedAtoms>
  151.8807  135.0454  160.0488 H   0  0  0  0  0  0  0  0  0  0  0  0  # atno 6907 bound_to 6896
  152.2515  133.5214  159.5336 H   0  0  0  0  0  0  0  0  0  0  0  0  # atno 6908 bound_to 6896
  150.7085  134.0870  159.3960 H   0  0  0  0  0  0  0  0  0  0  0  0  # atno 6909 bound_to 6896
  145.9658  139.4102  143.0220 H   0  0  0  0  0  0  0  0  0  0  0  0  # atno 7974 bound_to 7965
  156.2622  140.2016  156.6357 H   0  0  0  0  0  0  0  0  0  0  0  0  # atno 8008 bound_to 7997
  154.6648  140.0556  157.0126 H   0  0  0  0  0  0  0  0  0  0  0  0  # atno 8009 bound_to 7997
  155.1223  140.3226  155.4497 H   0  0  0  0  0  0  0  0  0  0  0  0  # atno 8010 bound_to 7997
  139.8881  143.6757  152.2617 H   0  0  0  0  0  0  0  0  0  0  0  0  # atno 10167 bound_to 10162
  156.5754  130.4760  149.6344 H   0  0  0  0  0  0  0  0  0  0  0  0  # atno 10718 bound_to 10713
  153.0467  135.5095  154.7764 H   0  0  0  0  0  0  0  0  0  0  0  0  # atno 10763 bound_to 10752
  154.6658  135.2945  154.9809 H   0  0  0  0  0  0  0  0  0  0  0  0  # atno 10764 bound_to 10752
  154.0645  135.6686  153.4868 H   0  0  0  0  0  0  0  0  0  0  0  0  # atno 10765 bound_to 10752
  140.5966  134.4990  157.5200 H   0  0  0  0  0  0  0  0  0  0  0  0  # atno 11005 bound_to 11000
  145.7975  140.9786  143.1016 LP  0  0  0  0  0  0  0  0  0  0  0  0  # atno 17320 bound_to 7965
  144.6825  139.9760  143.7483 LP  0  0  0  0  0  0  0  0  0  0  0  0  # atno 17321 bound_to 7965
  139.7135  144.7616  151.1073 LP  0  0  0  0  0  0  0  0  0  0  0  0  # atno 17342 bound_to 10162
  140.7732  143.5300  150.9435 LP  0  0  0  0  0  0  0  0  0  0  0  0  # atno 17343 bound_to 10162
  156.2678  130.6999  151.1788 LP  0  0  0  0  0  0  0  0  0  0  0  0  # atno 17370 bound_to 10713
  157.7339  131.0587  150.5554 LP  0  0  0  0  0  0  0  0  0  0  0  0  # atno 17371 bound_to 10713
  139.9250  134.8073  156.1094 LP  0  0  0  0  0  0  0  0  0  0  0  0  # atno 17394 bound_to 11000
  141.0900  133.6718  156.2519 LP  0  0  0  0  0  0  0  0  0  0  0  0  # atno 17395 bound_to 11000

$$$$
