AV-unprocessed.smi:1262|AV-procd|sdf|5309|dock2
  -GOLD-   22720 4433D 1   1.00000     0.00000
 Structure written by MMmdl.
 34 35  0  0  0  0  0  0  0  0  1 V2000
  146.8999  138.6316  152.5574 C   0  0  0  0  0  0  0  0  0  0  0  0
  147.2689  139.8807  153.3019 C   0  0  0  0  0  0  0  0  0  0  0  0
  148.3961  140.0985  154.1463 C   0  0  0  0  0  0  0  0  0  0  0  0
  148.2263  141.3957  154.5468 C   0  0  0  0  0  0  0  0  0  0  0  0
  149.0059  142.1464  155.3698 N   0  0  0  0  0  0  0  0  0  0  0  0
  149.9656  141.7407  156.2197 C   0  0  0  0  0  0  0  0  0  0  0  0
  150.3112  140.5731  156.4029 O   0  0  0  0  0  0  0  0  0  0  0  0
  150.5146  142.7819  156.8613 N   0  0  0  0  0  0  0  0  0  0  0  0
  151.5757  142.6876  157.8572 C   0  0  0  0  0  0  0  0  0  0  0  0
  151.8997  144.0527  158.4592 C   0  0  0  0  0  0  0  0  0  0  0  0
  152.4864  144.1456  159.8762 C   0  0  0  0  0  0  0  0  0  0  0  0
  151.6868  145.4364  160.0729 C   0  0  0  0  0  0  0  0  0  0  0  0
  150.7585  144.9525  158.9555 C   0  0  0  0  0  0  0  0  0  0  0  0
  147.0777  141.8921  153.9715 N   0  0  0  0  0  0  0  0  0  0  0  0
  146.4806  143.2076  154.0939 C   0  0  0  0  0  0  0  0  0  0  0  0
  146.4888  140.9511  153.2021 N   0  0  0  0  0  0  0  0  0  0  0  0
  147.5960  137.8220  152.7772 H   0  0  0  0  0  0  0  0  0  0  0  0
  146.9148  138.7985  151.4802 H   0  0  0  0  0  0  0  0  0  0  0  0
  145.9004  138.2918  152.8297 H   0  0  0  0  0  0  0  0  0  0  0  0
  149.1837  139.4055  154.4013 H   0  0  0  0  0  0  0  0  0  0  0  0
  148.8377  143.1408  155.3316 H   0  0  0  0  0  0  0  0  0  0  0  0
  150.1708  143.7074  156.6510 H   0  0  0  0  0  0  0  0  0  0  0  0
  151.2944  141.9786  158.6375 H   0  0  0  0  0  0  0  0  0  0  0  0
  152.4565  142.2689  157.3699 H   0  0  0  0  0  0  0  0  0  0  0  0
  152.5270  144.6371  157.7823 H   0  0  0  0  0  0  0  0  0  0  0  0
  152.1497  143.3382  160.5288 H   0  0  0  0  0  0  0  0  0  0  0  0
  153.5693  144.2672  159.9135 H   0  0  0  0  0  0  0  0  0  0  0  0
  151.2133  145.5374  161.0498 H   0  0  0  0  0  0  0  0  0  0  0  0
  152.2504  146.3297  159.7986 H   0  0  0  0  0  0  0  0  0  0  0  0
  150.4486  145.7255  158.2515 H   0  0  0  0  0  0  0  0  0  0  0  0
  149.9048  144.3873  159.3335 H   0  0  0  0  0  0  0  0  0  0  0  0
  147.2037  143.9671  153.7957 H   0  0  0  0  0  0  0  0  0  0  0  0
  146.1869  143.3803  155.1294 H   0  0  0  0  0  0  0  0  0  0  0  0
  145.5988  143.2909  153.4573 H   0  0  0  0  0  0  0  0  0  0  0  0
  1  2  1  0  0  0  0
  1 17  1  0  0  0  0
  1 18  1  0  0  0  0
  1 19  1  0  0  0  0
  2 16  2  0  0  0  0
  2  3  1  0  0  0  0
  3  4  2  0  0  0  0
  3 20  1  0  0  0  0
  4  5  1  0  0  0  0
  4 14  1  0  0  0  0
  5  6  1  0  0  0  0
  5 21  1  0  0  0  0
  6  7  2  0  0  0  0
  6  8  1  0  0  0  0
  8  9  1  0  0  0  0
  8 22  1  0  0  0  0
  9 10  1  0  0  0  0
  9 23  1  0  0  0  0
  9 24  1  0  0  0  0
 10 13  1  0  0  0  0
 10 11  1  0  0  0  0
 10 25  1  0  0  0  0
 11 12  1  0  0  0  0
 11 26  1  0  0  0  0
 11 27  1  0  0  0  0
 12 13  1  0  0  0  0
 12 28  1  0  0  0  0
 12 29  1  0  0  0  0
 13 30  1  0  0  0  0
 13 31  1  0  0  0  0
 14 15  1  0  0  0  0
 14 16  1  0  0  0  0
 15 32  1  0  0  0  0
 15 33  1  0  0  0  0
 15 34  1  0  0  0  0
M  END
> <s_m_source_file>
AV-unprocessed.smi

> <i_m_source_file_index>
1262

> <i_lp_mmshare_version>
43012

> <i_f3d_flags>
0

> <s_epik_input>
W0NIM11jMVtjSF1jKG4objEpW0NIM10pW05IXUMoPU8pW05IXVtDSDJdW0NIXTJbQ0gyXVtDSDJdW0NIMl0y

> <s_epik_cmdline>
J2VwaWtfcHl0aG9uJywgJy1waCcsICc3LjAnLCAnLXRuJywgJzgnLCAnLW1hJywgJzIwMCcsICctbWV0YWxfYmluZGluZycsICctaW1hZScsICc8aW5maWxlLm1hZT4nLCAnLW9tYWUnLCAnPG91dGZpbGUubWFlPic=

> <r_lp_tautomer_probability>
1

> <r_epik_Ionization_Penalty>
9.92667e-05

> <r_epik_Ionization_Penalty_Charging>
0

> <r_epik_Ionization_Penalty_Neutral>
9.92667e-05

> <r_epik_State_Penalty>
-0

> <r_epik_Charging_Adjusted_Penalty>
0

> <i_epik_Tot_Q>
0

> <i_epik_Tot_abs_Q>
0

> <r_epik_Metal_State_Penalty>
-0

> <b_epik_Metal_Only>
0

> <s_lp_Force_Field>
OPLS_2005

> <r_lp_Energy>
13.5599

> <b_lp_Chiralities_Consistent>
1

> <s_lp_Variant>
AV-unprocessed.smi:1262-1

> <Gold.Version>
5.8.1

> <Gold.Id.Protein>
6NUR|6NUR_protein|mol2

> <Gold.PLP.Fitness>
42.9250

> <Gold.PLP.PLP>
-37.5409

> <Gold.PLP.part.hbond>
-2.0000

> <Gold.PLP.part.metal>
0.0000

> <Gold.PLP.part.buried>
-2.6022

> <Gold.PLP.part.nonpolar>
-34.2768

> <Gold.PLP.part.repulsive>
1.7549

> <Gold.PLP.ligand.clash>
0.0000

> <Gold.PLP.ligand.torsion>
0.2525

> <Gold.PLP.Chemscore.Hbond>
1.9440

> <Gold.PLP.Chemscore.CHOScore>
0.0000

> <Gold.PLP.Chemscore.Metal>
0.0000

> <Gold.Chemscore.Hbonds>
donor molecule, donor type, donor heavy atom, donor atom, acceptor molecule, acceptor atom, score
      L1  H     5    21       P1  8028  1.00
      L1  H     8    22       P1  8028  0.93

> <Gold.PLP.Chemscore.Internal.Correction>
0.0572

> <Gold.Rescore>
     Score         DG    S(hbond)    S(metal)    S(lipo)     H(rot)  DE(clash)    DE(int)     intcor
     17.03     -18.63       1.92        0.00      84.02       1.21       0.40       1.21       ----

> <Gold.Chemscore.Fitness>
17.0299

> <Gold.Chemscore.DG>
-18.6344

> <Gold.Chemscore.ZeroCoef>
-5.4800

> <Gold.Chemscore.Hbond>
1.9228

> <Gold.Chemscore.Metal>
0.0000

> <Gold.Chemscore.Lipo>
84.0227

> <Gold.Chemscore.Internal_Hbond>
0.0000

> <Gold.Chemscore.DEClash>
0.3968

> <Gold.Chemscore.DEInternal>
1.2077

> <Gold.Chemscore.Rot>
1.2103

> <Gold.Chemscore.Internal.Correction>
   9.000000E+99

> <Gold.Chemscore.Hbonds>
donor molecule, donor type, donor heavy atom, donor atom, acceptor molecule, acceptor atom, score
      L1  H     5    21       P1  8028  0.98
      L1  H     8    22       P1  8028  0.89

> <Gold.Chemscore.Hbond.Weighted>
-6.4221

> <Gold.Chemscore.Metal.Weighted>
-0.0000

> <Gold.Chemscore.Lipo.Weighted>
-9.8307

> <Gold.Chemscore.Internal_Hbond.Weighted>
0.0000

> <Gold.Chemscore.DEClash.Weighted>
0.3968

> <Gold.Chemscore.DEInternal.Weighted>
1.2077

> <Gold.Chemscore.Rot.Weighted>
3.0984

> <Gold.Chemscore.Internal.Correction.Weighted>
   9.000000E+99

> <Gold.Protein.RotatedTorsions>
[ 6907 6896 6895 6894 ] final  104.64 input  -60.11 | X-H torsion
[ 7974 7965 7964 7962 ] final  100.23 input  175.53 | X-H torsion
[ 8008 7997 7996 7995 ] final   15.64 input   59.86 | X-H torsion
[ 10167 10162 10161 10158 ] final  -82.01 input  -65.29 | X-H torsion
[ 10718 10713 10712 10709 ] final -136.96 input   66.30 | X-H torsion
[ 10763 10752 10751 10750 ] final  -98.44 input  -60.55 | X-H torsion
[ 11005 11000 10999 10996 ] final  110.76 input  -57.11 | X-H torsion

> <Gold.Protein.ActiveResidues>
 VAL166  LYS551  ARG553  GLY616  TRP617  ASP618  TYR619  PRO620  LYS621  CYS622 
 ASP623  PHE694  ASN695  SER759  ASP760  ASP761  ALA762  ILE779  LEU786  VAL792 
 PHE793  MET794  SER795  GLU796  ALA797  LYS798  CYS799  TRP800  GLU811  SER814 

> <Gold.Protein.RotatedAtoms>
  152.5257  133.9647  159.7733 H   0  0  0  0  0  0  0  0  0  0  0  0  # atno 6907 bound_to 6896
  150.9930  133.6122  159.2712 H   0  0  0  0  0  0  0  0  0  0  0  0  # atno 6908 bound_to 6896
  151.3258  135.0836  159.9375 H   0  0  0  0  0  0  0  0  0  0  0  0  # atno 6909 bound_to 6896
  145.3883  139.2367  143.3365 H   0  0  0  0  0  0  0  0  0  0  0  0  # atno 7974 bound_to 7965
  154.8656  140.2951  155.5512 H   0  0  0  0  0  0  0  0  0  0  0  0  # atno 8008 bound_to 7997
  156.3020  140.2470  156.3569 H   0  0  0  0  0  0  0  0  0  0  0  0  # atno 8009 bound_to 7997
  154.8872  140.0396  157.1806 H   0  0  0  0  0  0  0  0  0  0  0  0  # atno 8010 bound_to 7997
  140.4360  143.2531  151.8693 H   0  0  0  0  0  0  0  0  0  0  0  0  # atno 10167 bound_to 10162
  156.2828  130.7330  151.1333 H   0  0  0  0  0  0  0  0  0  0  0  0  # atno 10718 bound_to 10713
  154.7415  135.5009  153.9130 H   0  0  0  0  0  0  0  0  0  0  0  0  # atno 10763 bound_to 10752
  153.1048  135.6694  153.9615 H   0  0  0  0  0  0  0  0  0  0  0  0  # atno 10764 bound_to 10752
  153.9391  135.3069  155.3422 H   0  0  0  0  0  0  0  0  0  0  0  0  # atno 10765 bound_to 10752
  139.8889  134.9492  156.6328 H   0  0  0  0  0  0  0  0  0  0  0  0  # atno 11005 bound_to 11000
  146.2809  140.4562  142.8776 LP  0  0  0  0  0  0  0  0  0  0  0  0  # atno 17320 bound_to 7965
  144.8458  140.6927  143.6200 LP  0  0  0  0  0  0  0  0  0  0  0  0  # atno 17321 bound_to 7965
  139.4787  144.5283  151.8704 LP  0  0  0  0  0  0  0  0  0  0  0  0  # atno 17342 bound_to 10162
  140.4373  144.2034  150.5890 LP  0  0  0  0  0  0  0  0  0  0  0  0  # atno 17343 bound_to 10162
  157.7319  131.0604  150.5652 LP  0  0  0  0  0  0  0  0  0  0  0  0  # atno 17370 bound_to 10713
  156.5760  130.4292  149.5998 LP  0  0  0  0  0  0  0  0  0  0  0  0  # atno 17371 bound_to 10713
  140.7653  133.8783  155.8450 LP  0  0  0  0  0  0  0  0  0  0  0  0  # atno 17394 bound_to 11000
  140.9887  134.1307  157.4428 LP  0  0  0  0  0  0  0  0  0  0  0  0  # atno 17395 bound_to 11000

$$$$
