AV-unprocessed.smi:3331|AV-procd|sdf|12818|dock1
  -GOLD-   2272019193D 1   1.00000     0.00000
 Structure written by MMmdl.
 47 48  0  0  0  0  0  0  0  0  2 V2000
  145.3172  134.1217  150.5243 C   0  0  0  0  0  0  0  0  0  0  0  0
  145.8816  135.0686  151.5926 C   0  0  2  0  0  0  0  0  0  0  0  0
  145.7524  134.4659  153.0102 C   0  0  0  0  0  0  0  0  0  0  0  0
  146.1889  135.4545  154.1153 C   0  0  2  0  0  0  0  0  0  0  0  0
  145.9333  134.8828  155.5164 C   0  0  0  0  0  0  0  0  0  0  0  0
  145.4799  136.8089  153.9135 C   0  0  0  0  0  0  0  0  0  0  0  0
  145.8065  137.3074  152.5716 N   0  0  0  0  0  0  0  0  0  0  0  0
  146.6733  138.3088  152.2771 C   0  0  0  0  0  0  0  0  0  0  0  0
  146.9122  138.6441  151.1153 O   0  0  0  0  0  0  0  0  0  0  0  0
  147.3953  139.0668  153.4119 C   0  0  2  0  0  0  0  0  0  0  0  0
  147.1313  140.5764  153.2909 C   0  0  0  0  0  0  0  0  0  0  0  0
  148.8561  138.8184  153.3958 N   0  3  0  0  0  0  0  0  0  0  0  0
  149.5151  138.8869  154.7179 C   0  0  0  0  0  0  0  0  0  0  0  0
  150.5890  139.9834  154.7417 C   0  0  0  0  0  0  0  0  0  0  0  0
  150.7380  140.5595  156.0640 N   0  0  0  0  0  0  0  0  0  0  0  0
  150.4910  141.8543  156.4694 C   0  0  0  0  0  0  0  0  0  0  0  0
  150.7729  141.9225  157.8037 C   0  0  0  0  0  0  0  0  0  0  0  0
  151.1875  140.6009  158.1299 C   0  0  0  0  0  0  0  0  0  0  0  0
  151.1644  139.7869  157.0864 N   0  0  0  0  0  0  0  0  0  0  0  0
  145.2076  136.4564  151.5360 C   0  0  0  0  0  0  0  0  0  0  0  0
  144.2511  133.9469  150.6720 H   0  0  0  0  0  0  0  0  0  0  0  0
  145.8203  133.1548  150.5517 H   0  0  0  0  0  0  0  0  0  0  0  0
  145.4517  134.5346  149.5242 H   0  0  0  0  0  0  0  0  0  0  0  0
  146.9437  135.2036  151.3818 H   0  0  0  0  0  0  0  0  0  0  0  0
  144.7138  134.1782  153.1807 H   0  0  0  0  0  0  0  0  0  0  0  0
  146.3384  133.5486  153.0787 H   0  0  0  0  0  0  0  0  0  0  0  0
  147.2636  135.6175  154.0187 H   0  0  0  0  0  0  0  0  0  0  0  0
  144.8713  134.6989  155.6820 H   0  0  0  0  0  0  0  0  0  0  0  0
  146.2775  135.5701  156.2897 H   0  0  0  0  0  0  0  0  0  0  0  0
  146.4607  133.9386  155.6563 H   0  0  0  0  0  0  0  0  0  0  0  0
  144.3996  136.6767  153.9926 H   0  0  0  0  0  0  0  0  0  0  0  0
  145.7311  137.5037  154.7123 H   0  0  0  0  0  0  0  0  0  0  0  0
  147.0428  138.7241  154.3840 H   0  0  0  0  0  0  0  0  0  0  0  0
  146.0644  140.8015  153.3057 H   0  0  0  0  0  0  0  0  0  0  0  0
  147.5404  140.9811  152.3641 H   0  0  0  0  0  0  0  0  0  0  0  0
  147.5880  141.1196  154.1187 H   0  0  0  0  0  0  0  0  0  0  0  0
  149.0206  137.9077  152.9905 H   0  0  0  0  0  0  0  0  0  0  0  0
  148.7613  139.0840  155.4815 H   0  0  0  0  0  0  0  0  0  0  0  0
  149.9687  137.9239  154.9556 H   0  0  0  0  0  0  0  0  0  0  0  0
  151.5522  139.5773  154.4296 H   0  0  0  0  0  0  0  0  0  0  0  0
  150.3388  140.7825  154.0424 H   0  0  0  0  0  0  0  0  0  0  0  0
  150.1403  142.6114  155.7835 H   0  0  0  0  0  0  0  0  0  0  0  0
  150.6940  142.7848  158.4492 H   0  0  0  0  0  0  0  0  0  0  0  0
  151.5022  140.2122  159.0872 H   0  0  0  0  0  0  0  0  0  0  0  0
  145.3034  136.8799  150.5351 H   0  0  0  0  0  0  0  0  0  0  0  0
  144.1349  136.3656  151.7132 H   0  0  0  0  0  0  0  0  0  0  0  0
  149.2848  139.5171  152.8060 H   0  0  0  0  0  0  0  0  0  0  0  0
  1  2  1  0  0  0  0
  1 21  1  0  0  0  0
  1 22  1  0  0  0  0
  1 23  1  0  0  0  0
  2 20  1  0  0  0  0
  2  3  1  0  0  0  0
  2 24  1  0  0  0  0
  3  4  1  0  0  0  0
  3 25  1  0  0  0  0
  3 26  1  0  0  0  0
  4  5  1  0  0  0  0
  4  6  1  0  0  0  0
  4 27  1  0  0  0  0
  5 28  1  0  0  0  0
  5 29  1  0  0  0  0
  5 30  1  0  0  0  0
  6  7  1  0  0  0  0
  6 31  1  0  0  0  0
  6 32  1  0  0  0  0
  7  8  1  0  0  0  0
  7 20  1  0  0  0  0
  8  9  2  0  0  0  0
  8 10  1  0  0  0  0
 10 11  1  0  0  0  0
 10 12  1  0  0  0  0
 10 33  1  0  0  0  0
 11 34  1  0  0  0  0
 11 35  1  0  0  0  0
 11 36  1  0  0  0  0
 12 13  1  0  0  0  0
 12 37  1  0  0  0  0
 12 47  1  0  0  0  0
 13 14  1  0  0  0  0
 13 38  1  0  0  0  0
 13 39  1  0  0  0  0
 14 15  1  0  0  0  0
 14 40  1  0  0  0  0
 14 41  1  0  0  0  0
 15 19  1  0  0  0  0
 15 16  1  0  0  0  0
 16 17  2  0  0  0  0
 16 42  1  0  0  0  0
 17 18  1  0  0  0  0
 17 43  1  0  0  0  0
 18 19  2  0  0  0  0
 18 44  1  0  0  0  0
 20 45  1  0  0  0  0
 20 46  1  0  0  0  0
M  CHG  1  12   1
M  END
> <s_m_source_file>
AV-unprocessed.smi

> <i_m_source_file_index>
3331

> <i_lp_mmshare_version>
43012

> <i_f3d_flags>
0

> <s_epik_input>
W0NIM11bQ0BASF0xW0NIMl1bQ0BASF0oW0NIM10pW0NIMl1OKFtDSDJdMSlDKD1PKVtDQEhdKFtDSDNdKVtOSF1bQ0gyXVtDSDJdbjJbY0hdW2NIXVtjSF1uMg==

> <s_epik_cmdline>
J2VwaWtfcHl0aG9uJywgJy1waCcsICc3LjAnLCAnLXRuJywgJzgnLCAnLW1hJywgJzIwMCcsICctbWV0YWxfYmluZGluZycsICctaW1hZScsICc8aW5maWxlLm1hZT4nLCAnLW9tYWUnLCAnPG91dGZpbGUubWFlPic=

> <r_lp_tautomer_probability>
1

> <r_epik_Ionization_Penalty>
0.189706

> <r_epik_Ionization_Penalty_Charging>
0.189703

> <r_epik_Ionization_Penalty_Neutral>
2.45875e-06

> <r_epik_State_Penalty>
0.179341

> <r_epik_Charging_Adjusted_Penalty>
0.369044

> <i_epik_Tot_Q>
1

> <i_epik_Tot_abs_Q>
1

> <r_epik_Metal_State_Penalty>
0.179578

> <b_epik_Metal_Only>
0

> <s_lp_Force_Field>
OPLS_2005

> <r_lp_Energy>
26.1648

> <b_lp_Chiralities_Consistent>
1

> <s_lp_Variant>
AV-unprocessed.smi:3331-2

> <Gold.Version>
5.8.1

> <Gold.Id.Protein>
6NUR|6NUR_protein|mol2

> <Gold.PLP.Fitness>
46.3603

> <Gold.PLP.PLP>
-33.2861

> <Gold.PLP.part.hbond>
-2.8426

> <Gold.PLP.part.metal>
0.0000

> <Gold.PLP.part.buried>
1.9310

> <Gold.PLP.part.nonpolar>
-31.7206

> <Gold.PLP.part.repulsive>
0.6456

> <Gold.PLP.ligand.clash>
0.0000

> <Gold.PLP.ligand.torsion>
0.9996

> <Gold.PLP.Chemscore.Hbond>
4.0000

> <Gold.PLP.Chemscore.CHOScore>
1.0000

> <Gold.PLP.Chemscore.Metal>
0.0000

> <Gold.Chemscore.Hbonds>
donor molecule, donor type, donor heavy atom, donor atom, acceptor molecule, acceptor atom, score
      L1  H    12    37       P1  7948  2.00
      L1  H    12    47       P1  7957  0.91
      P1  H  7954  7966       L1     9  1.00
      L1  C    16    42       P1  8028  1.00

> <Gold.PLP.Chemscore.Internal.Correction>
0.0734

> <Gold.Rescore>
     Score         DG    S(hbond)    S(metal)    S(lipo)     H(rot)  DE(clash)    DE(int)     intcor
     16.38     -18.19       2.90        0.00      63.53       1.73       0.63       1.18       ----

> <Gold.Chemscore.Fitness>
16.3835

> <Gold.Chemscore.DG>
-18.1865

> <Gold.Chemscore.ZeroCoef>
-5.4800

> <Gold.Chemscore.Hbond>
2.9015

> <Gold.Chemscore.Metal>
0.0000

> <Gold.Chemscore.Lipo>
63.5252

> <Gold.Chemscore.Internal_Hbond>
0.0000

> <Gold.Chemscore.DEClash>
0.6272

> <Gold.Chemscore.DEInternal>
1.1759

> <Gold.Chemscore.Rot>
1.7254

> <Gold.Chemscore.Internal.Correction>
   9.000000E+99

> <Gold.Chemscore.Hbonds>
donor molecule, donor type, donor heavy atom, donor atom, acceptor molecule, acceptor atom, score
      L1  H    12    37       P1  7948  0.97
      L1  H    12    47       P1  7957  0.90
      P1  H  7954  7966       L1     9  0.94

> <Gold.Chemscore.Hbond.Weighted>
-9.6911

> <Gold.Chemscore.Metal.Weighted>
-0.0000

> <Gold.Chemscore.Lipo.Weighted>
-7.4325

> <Gold.Chemscore.Internal_Hbond.Weighted>
0.0000

> <Gold.Chemscore.DEClash.Weighted>
0.6272

> <Gold.Chemscore.DEInternal.Weighted>
1.1759

> <Gold.Chemscore.Rot.Weighted>
4.4170

> <Gold.Chemscore.Internal.Correction.Weighted>
   9.000000E+99

> <Gold.Protein.RotatedTorsions>
[ 6907 6896 6895 6894 ] final  103.78 input  -60.11 | X-H torsion
[ 7974 7965 7964 7962 ] final   60.82 input  175.53 | X-H torsion
[ 8008 7997 7996 7995 ] final  -58.33 input   59.86 | X-H torsion
[ 10167 10162 10161 10158 ] final  115.85 input  -65.29 | X-H torsion
[ 10718 10713 10712 10709 ] final  106.54 input   66.30 | X-H torsion
[ 10763 10752 10751 10750 ] final -127.92 input  -60.55 | X-H torsion
[ 11005 11000 10999 10996 ] final  -97.83 input  -57.11 | X-H torsion

> <Gold.Protein.ActiveResidues>
 VAL166  LYS551  ARG553  GLY616  TRP617  ASP618  TYR619  PRO620  LYS621  CYS622 
 ASP623  PHE694  ASN695  SER759  ASP760  ASP761  ALA762  ILE779  LEU786  VAL792 
 PHE793  MET794  SER795  GLU796  ALA797  LYS798  CYS799  TRP800  GLU811  SER814 

> <Gold.Protein.RotatedAtoms>
  152.5285  133.9775  159.7790 H   0  0  0  0  0  0  0  0  0  0  0  0  # atno 6907 bound_to 6896
  151.0035  133.6025  159.2699 H   0  0  0  0  0  0  0  0  0  0  0  0  # atno 6908 bound_to 6896
  151.3126  135.0804  159.9331 H   0  0  0  0  0  0  0  0  0  0  0  0  # atno 6909 bound_to 6896
  145.8918  139.3516  143.0645 H   0  0  0  0  0  0  0  0  0  0  0  0  # atno 7974 bound_to 7965
  154.4304  140.1086  156.5939 H   0  0  0  0  0  0  0  0  0  0  0  0  # atno 8008 bound_to 7997
  155.5983  140.3493  155.4567 H   0  0  0  0  0  0  0  0  0  0  0  0  # atno 8009 bound_to 7997
  156.0193  140.1236  157.0363 H   0  0  0  0  0  0  0  0  0  0  0  0  # atno 8010 bound_to 7997
  139.6288  144.7112  151.2476 H   0  0  0  0  0  0  0  0  0  0  0  0  # atno 10167 bound_to 10162
  157.6664  131.0853  150.6022 H   0  0  0  0  0  0  0  0  0  0  0  0  # atno 10718 bound_to 10713
  154.8754  135.3946  154.3672 H   0  0  0  0  0  0  0  0  0  0  0  0  # atno 10763 bound_to 10752
  153.4436  135.7027  153.6158 H   0  0  0  0  0  0  0  0  0  0  0  0  # atno 10764 bound_to 10752
  153.4729  135.3786  155.2369 H   0  0  0  0  0  0  0  0  0  0  0  0  # atno 10765 bound_to 10752
  141.1366  133.8200  157.0759 H   0  0  0  0  0  0  0  0  0  0  0  0  # atno 11005 bound_to 11000
  145.8899  140.9310  143.0557 LP  0  0  0  0  0  0  0  0  0  0  0  0  # atno 17320 bound_to 7965
  144.6731  140.0892  143.7466 LP  0  0  0  0  0  0  0  0  0  0  0  0  # atno 17321 bound_to 7965
  140.7427  143.6518  150.8241 LP  0  0  0  0  0  0  0  0  0  0  0  0  # atno 17342 bound_to 10162
  140.0140  143.5612  152.2827 LP  0  0  0  0  0  0  0  0  0  0  0  0  # atno 17343 bound_to 10162
  156.6323  130.4435  149.5782 LP  0  0  0  0  0  0  0  0  0  0  0  0  # atno 17370 bound_to 10713
  156.2272  130.6773  151.1428 LP  0  0  0  0  0  0  0  0  0  0  0  0  # atno 17371 bound_to 10713
  140.0482  134.9819  157.1088 LP  0  0  0  0  0  0  0  0  0  0  0  0  # atno 17394 bound_to 11000
  140.4030  134.2062  155.7163 LP  0  0  0  0  0  0  0  0  0  0  0  0  # atno 17395 bound_to 11000

$$$$
