AV-unprocessed.smi:244|AV-procd|sdf|1873|dock10
  -GOLD-   2262020513D 1   1.00000     0.00000
 Structure written by MMmdl.
 56 60  0  0  0  0  0  0  0  0  1 V2000
  153.7135  137.6969  159.0928 C   0  0  0  0  0  0  0  0  0  0  0  0
  153.3924  139.1166  159.0743 N   0  0  0  0  0  0  0  0  0  0  0  0
  153.8446  139.7347  160.3201 C   0  0  0  0  0  0  0  0  0  0  0  0
  153.5992  141.2502  160.2658 C   0  0  0  0  0  0  0  0  0  0  0  0
  152.1021  141.5444  160.0586 C   0  0  1  0  0  0  0  0  0  0  0  0
  151.8141  142.9424  159.9773 O   0  0  0  0  0  0  0  0  0  0  0  0
  152.2500  143.5701  158.7742 C   0  0  0  0  0  0  0  0  0  0  0  0
  151.6332  142.8601  157.5616 C   0  0  0  0  0  0  0  0  0  0  0  0
  151.9657  141.4417  157.5890 N   0  0  0  0  0  0  0  0  0  0  0  0
  151.6174  140.8142  156.4450 C   0  0  0  0  0  0  0  0  0  0  0  0
  152.2901  139.6788  156.1362 N   0  0  0  0  0  0  0  0  0  0  0  0
  151.9815  139.0018  155.0262 C   0  0  0  0  0  0  0  0  0  0  0  0
  151.0574  139.2842  154.1052 N   0  0  0  0  0  0  0  0  0  0  0  0
  150.3851  140.4310  154.4117 C   0  0  0  0  0  0  0  0  0  0  0  0
  150.5977  141.2522  155.5541 C   0  0  0  0  0  0  0  0  0  0  0  0
  149.7242  142.3328  155.5312 N   0  0  0  0  0  0  0  0  0  0  0  0
  149.0390  142.1636  154.4331 C   0  0  0  0  0  0  0  0  0  0  0  0
  149.3743  141.0493  153.6974 N   0  0  0  0  0  0  0  0  0  0  0  0
  148.7783  140.6241  152.4404 C   0  0  0  0  0  0  0  0  0  0  0  0
  147.6632  139.5619  152.6042 C   0  0  0  0  0  0  0  0  0  0  0  0
  148.2524  138.4023  153.1681 O   0  0  0  0  0  0  0  0  0  0  0  0
  146.5234  140.0344  153.5339 C   0  0  0  0  0  0  0  0  0  0  0  0
  145.3251  139.0689  153.5224 C   0  0  0  0  0  0  0  0  0  0  0  0
  144.8671  138.8707  152.1904 O   0  0  0  0  0  0  0  0  0  0  0  0
  145.8472  138.2652  151.3563 C   0  0  0  0  0  0  0  0  0  0  0  0
  147.0730  139.1871  151.2301 C   0  0  0  0  0  0  0  0  0  0  0  0
  151.5511  140.7834  158.8318 C   0  0  1  0  0  0  0  0  0  0  0  0
  151.9470  139.2850  158.9064 C   0  0  0  0  0  0  0  0  0  0  0  0
  154.7897  137.5499  159.1903 H   0  0  0  0  0  0  0  0  0  0  0  0
  153.3980  137.2214  158.1632 H   0  0  0  0  0  0  0  0  0  0  0  0
  153.2214  137.1879  159.9226 H   0  0  0  0  0  0  0  0  0  0  0  0
  153.3272  139.2927  161.1732 H   0  0  0  0  0  0  0  0  0  0  0  0
  154.9100  139.5455  160.4565 H   0  0  0  0  0  0  0  0  0  0  0  0
  153.9447  141.7165  161.1886 H   0  0  0  0  0  0  0  0  0  0  0  0
  154.2001  141.6722  159.4603 H   0  0  0  0  0  0  0  0  0  0  0  0
  151.5766  141.1793  160.9419 H   0  0  0  0  0  0  0  0  0  0  0  0
  151.9362  144.6138  158.7931 H   0  0  0  0  0  0  0  0  0  0  0  0
  153.3377  143.5768  158.7102 H   0  0  0  0  0  0  0  0  0  0  0  0
  150.5499  142.9868  157.5728 H   0  0  0  0  0  0  0  0  0  0  0  0
  152.0009  143.3132  156.6397 H   0  0  0  0  0  0  0  0  0  0  0  0
  152.5576  138.1051  154.8513 H   0  0  0  0  0  0  0  0  0  0  0  0
  148.2681  142.8544  154.1232 H   0  0  0  0  0  0  0  0  0  0  0  0
  148.3816  141.5079  151.9393 H   0  0  0  0  0  0  0  0  0  0  0  0
  149.5736  140.2442  151.7973 H   0  0  0  0  0  0  0  0  0  0  0  0
  148.5439  137.8418  152.4653 H   0  0  0  0  0  0  0  0  0  0  0  0
  146.8811  140.1610  154.5565 H   0  0  0  0  0  0  0  0  0  0  0  0
  146.1779  141.0160  153.2065 H   0  0  0  0  0  0  0  0  0  0  0  0
  145.5869  138.1117  153.9756 H   0  0  0  0  0  0  0  0  0  0  0  0
  144.5089  139.4838  154.1142 H   0  0  0  0  0  0  0  0  0  0  0  0
  146.1267  137.2882  151.7538 H   0  0  0  0  0  0  0  0  0  0  0  0
  145.4104  138.0918  150.3727 H   0  0  0  0  0  0  0  0  0  0  0  0
  146.7669  140.0956  150.7096 H   0  0  0  0  0  0  0  0  0  0  0  0
  147.8317  138.7177  150.6024 H   0  0  0  0  0  0  0  0  0  0  0  0
  150.4628  140.8413  158.8733 H   0  0  0  0  0  0  0  0  0  0  0  0
  151.6083  138.7473  158.0202 H   0  0  0  0  0  0  0  0  0  0  0  0
  151.4367  138.8223  159.7526 H   0  0  0  0  0  0  0  0  0  0  0  0
  1  2  1  0  0  0  0
  1 29  1  0  0  0  0
  1 30  1  0  0  0  0
  1 31  1  0  0  0  0
  2 28  1  0  0  0  0
  2  3  1  0  0  0  0
  3  4  1  0  0  0  0
  3 32  1  0  0  0  0
  3 33  1  0  0  0  0
  4  5  1  0  0  0  0
  4 34  1  0  0  0  0
  4 35  1  0  0  0  0
  5 27  1  0  0  0  0
  5  6  1  0  0  0  0
  5 36  1  0  0  0  0
  6  7  1  0  0  0  0
  7  8  1  0  0  0  0
  7 37  1  0  0  0  0
  7 38  1  0  0  0  0
  8  9  1  0  0  0  0
  8 39  1  0  0  0  0
  8 40  1  0  0  0  0
  9 10  1  0  0  0  0
  9 27  1  0  0  0  0
 10 15  1  0  0  0  0
 10 11  2  0  0  0  0
 11 12  1  0  0  0  0
 12 13  2  0  0  0  0
 12 41  1  0  0  0  0
 13 14  1  0  0  0  0
 14 18  1  0  0  0  0
 14 15  2  0  0  0  0
 15 16  1  0  0  0  0
 16 17  2  0  0  0  0
 17 18  1  0  0  0  0
 17 42  1  0  0  0  0
 18 19  1  0  0  0  0
 19 20  1  0  0  0  0
 19 43  1  0  0  0  0
 19 44  1  0  0  0  0
 20 26  1  0  0  0  0
 20 21  1  0  0  0  0
 20 22  1  0  0  0  0
 21 45  1  0  0  0  0
 22 23  1  0  0  0  0
 22 46  1  0  0  0  0
 22 47  1  0  0  0  0
 23 24  1  0  0  0  0
 23 48  1  0  0  0  0
 23 49  1  0  0  0  0
 24 25  1  0  0  0  0
 25 26  1  0  0  0  0
 25 50  1  0  0  0  0
 25 51  1  0  0  0  0
 26 52  1  0  0  0  0
 26 53  1  0  0  0  0
 27 28  1  0  0  0  0
 27 54  1  0  0  0  0
 28 55  1  0  0  0  0
 28 56  1  0  0  0  0
M  END
> <s_m_source_file>
AV-unprocessed.smi

> <i_m_source_file_index>
244

> <i_lp_mmshare_version>
43012

> <i_f3d_flags>
0

> <s_epik_input>
W0NIMl0xW0NIMl1OKFtDSDNdKVtDSDJdW0NAQEhdKFtDQEhdMTIpTihbQ0gyXVtDSDJdTzIpYyhuW2NIXW4zKWMoYzM0KW5bY0hdbjRbQ0gyXUM1KFtPSF0pW0NIMl1bQ0gyXU9bQ0gyXVtDSDJdNQ==

> <s_epik_cmdline>
J2VwaWtfcHl0aG9uJywgJy1waCcsICc3LjAnLCAnLXRuJywgJzgnLCAnLW1hJywgJzIwMCcsICctbWV0YWxfYmluZGluZycsICctaW1hZScsICc8aW5maWxlLm1hZT4nLCAnLW9tYWUnLCAnPG91dGZpbGUubWFlPic=

> <r_lp_tautomer_probability>
1

> <r_epik_Ionization_Penalty>
2.27765

> <r_epik_Ionization_Penalty_Charging>
0

> <r_epik_Ionization_Penalty_Neutral>
2.27765

> <r_epik_State_Penalty>
2.4114

> <r_epik_Charging_Adjusted_Penalty>
2.4114

> <i_epik_Tot_Q>
0

> <i_epik_Tot_abs_Q>
0

> <r_epik_Metal_State_Penalty>
2.39769

> <b_epik_Metal_Only>
0

> <s_lp_Force_Field>
OPLS_2005

> <r_lp_Energy>
50.0311

> <b_lp_Chiralities_Consistent>
1

> <s_lp_Variant>
AV-unprocessed.smi:244-10

> <Gold.Version>
5.8.1

> <Gold.Id.Protein>
6NUR|6NUR_protein|mol2

> <Gold.PLP.Fitness>
48.8451

> <Gold.PLP.PLP>
-44.3168

> <Gold.PLP.part.hbond>
-4.0000

> <Gold.PLP.part.metal>
0.0000

> <Gold.PLP.part.buried>
2.4031

> <Gold.PLP.part.nonpolar>
-44.2036

> <Gold.PLP.part.repulsive>
2.2659

> <Gold.PLP.ligand.clash>
0.0000

> <Gold.PLP.ligand.torsion>
0.8211

> <Gold.PLP.Chemscore.Hbond>
2.0111

> <Gold.PLP.Chemscore.CHOScore>
0.0000

> <Gold.PLP.Chemscore.Metal>
0.0000

> <Gold.Chemscore.Hbonds>
donor molecule, donor type, donor heavy atom, donor atom, acceptor molecule, acceptor atom, score
      L1  H    21    45       P1  7948  1.00
      P1  H  7997  8010       L1    11  0.83
      L1  C    17    42       P1  8028  0.37

> <Gold.PLP.Chemscore.Internal.Correction>
0.1370

> <Gold.Rescore>
     Score         DG    S(hbond)    S(metal)    S(lipo)     H(rot)  DE(clash)    DE(int)     intcor
     13.36     -17.62       1.72        0.00      99.74       2.06       2.71       1.55       ----

> <Gold.Chemscore.Fitness>
13.3622

> <Gold.Chemscore.DG>
-17.6215

> <Gold.Chemscore.ZeroCoef>
-5.4800

> <Gold.Chemscore.Hbond>
1.7212

> <Gold.Chemscore.Metal>
0.0000

> <Gold.Chemscore.Lipo>
99.7372

> <Gold.Chemscore.Internal_Hbond>
0.0000

> <Gold.Chemscore.DEClash>
2.7081

> <Gold.Chemscore.DEInternal>
1.5512

> <Gold.Chemscore.Rot>
2.0611

> <Gold.Chemscore.Internal.Correction>
   9.000000E+99

> <Gold.Chemscore.Hbonds>
donor molecule, donor type, donor heavy atom, donor atom, acceptor molecule, acceptor atom, score
      L1  H    21    45       P1  7948  0.96
      P1  H  7997  8010       L1    11  0.39

> <Gold.Chemscore.Hbond.Weighted>
-5.7488

> <Gold.Chemscore.Metal.Weighted>
-0.0000

> <Gold.Chemscore.Lipo.Weighted>
-11.6692

> <Gold.Chemscore.Internal_Hbond.Weighted>
0.0000

> <Gold.Chemscore.DEClash.Weighted>
2.7081

> <Gold.Chemscore.DEInternal.Weighted>
1.5512

> <Gold.Chemscore.Rot.Weighted>
5.2765

> <Gold.Chemscore.Internal.Correction.Weighted>
   9.000000E+99

> <Gold.Protein.RotatedTorsions>
[ 6907 6896 6895 6894 ] final  122.48 input  -60.11 | X-H torsion
[ 7974 7965 7964 7962 ] final    9.61 input  175.53 | X-H torsion
[ 8008 7997 7996 7995 ] final   79.33 input   59.86 | X-H torsion
[ 10167 10162 10161 10158 ] final   -0.73 input  -65.29 | X-H torsion
[ 10718 10713 10712 10709 ] final  -50.76 input   66.30 | X-H torsion
[ 10763 10752 10751 10750 ] final  -24.32 input  -60.55 | X-H torsion
[ 11005 11000 10999 10996 ] final  102.96 input  -57.11 | X-H torsion

> <Gold.Protein.ActiveResidues>
 VAL166  LYS551  ARG553  GLY616  TRP617  ASP618  TYR619  PRO620  LYS621  CYS622 
 ASP623  PHE694  ASN695  SER759  ASP760  ASP761  ALA762  ILE779  LEU786  VAL792 
 PHE793  MET794  SER795  GLU796  ALA797  LYS798  CYS799  TRP800  GLU811  SER814 

> <Gold.Protein.RotatedAtoms>
  152.4240  133.7163  159.6507 H   0  0  0  0  0  0  0  0  0  0  0  0  # atno 6907 bound_to 6896
  150.8116  133.8401  159.3185 H   0  0  0  0  0  0  0  0  0  0  0  0  # atno 6908 bound_to 6896
  151.6109  135.1042  160.0132 H   0  0  0  0  0  0  0  0  0  0  0  0  # atno 6909 bound_to 6896
  146.2401  139.9758  142.8442 H   0  0  0  0  0  0  0  0  0  0  0  0  # atno 7974 bound_to 7965
  155.8682  140.3450  155.5803 H   0  0  0  0  0  0  0  0  0  0  0  0  # atno 8008 bound_to 7997
  155.7857  140.0864  157.2055 H   0  0  0  0  0  0  0  0  0  0  0  0  # atno 8009 bound_to 7997
  154.4015  140.1492  156.3091 H   0  0  0  0  0  0  0  0  0  0  0  0  # atno 8010 bound_to 7997
  140.6780  143.6860  150.8066 H   0  0  0  0  0  0  0  0  0  0  0  0  # atno 10167 bound_to 10162
  156.1771  130.4150  149.9561 H   0  0  0  0  0  0  0  0  0  0  0  0  # atno 10718 bound_to 10713
  153.6819  135.6966  153.5115 H   0  0  0  0  0  0  0  0  0  0  0  0  # atno 10763 bound_to 10752
  153.2479  135.4284  155.0766 H   0  0  0  0  0  0  0  0  0  0  0  0  # atno 10764 bound_to 10752
  154.8398  135.3524  154.6362 H   0  0  0  0  0  0  0  0  0  0  0  0  # atno 10765 bound_to 10752
  139.8780  134.9245  156.5138 H   0  0  0  0  0  0  0  0  0  0  0  0  # atno 11005 bound_to 11000
  145.1638  140.9686  143.4362 LP  0  0  0  0  0  0  0  0  0  0  0  0  # atno 17320 bound_to 7965
  145.0091  139.3526  143.6129 LP  0  0  0  0  0  0  0  0  0  0  0  0  # atno 17321 bound_to 7965
  140.0556  143.5206  152.2653 LP  0  0  0  0  0  0  0  0  0  0  0  0  # atno 17342 bound_to 10162
  139.6084  144.7602  151.3009 LP  0  0  0  0  0  0  0  0  0  0  0  0  # atno 17343 bound_to 10162
  156.7343  130.9055  151.3628 LP  0  0  0  0  0  0  0  0  0  0  0  0  # atno 17370 bound_to 10713
  157.6843  130.9170  150.0346 LP  0  0  0  0  0  0  0  0  0  0  0  0  # atno 17371 bound_to 10713
  140.8501  133.8139  155.9160 LP  0  0  0  0  0  0  0  0  0  0  0  0  # atno 17394 bound_to 11000
  140.9153  134.2210  157.4961 LP  0  0  0  0  0  0  0  0  0  0  0  0  # atno 17395 bound_to 11000

$$$$
