AV-unprocessed.smi:1|AV-procd|sdf|21|dock2
  -GOLD-   2262015123D 1   1.00000     0.00000
 Structure written by MMmdl.
 56 61  0  0  0  0  0  0  0  0  2 V2000
  151.5822  142.2363  157.7245 O   0  0  0  0  0  0  0  0  0  0  0  0
  152.3881  141.6407  158.4429 C   0  0  0  0  0  0  0  0  0  0  0  0
  153.1422  140.5570  158.1275 N   0  5  0  0  0  0  0  0  0  0  0  0
  152.6975  139.3274  158.4291 C   0  0  0  0  0  0  0  0  0  0  0  0
  152.8954  138.8107  159.6685 N   0  0  0  0  0  0  0  0  0  0  0  0
  152.4589  137.5815  159.9659 C   0  0  0  0  0  0  0  0  0  0  0  0
  151.8102  136.7099  159.1879 N   0  0  0  0  0  0  0  0  0  0  0  0
  151.5921  137.2213  157.9415 C   0  0  0  0  0  0  0  0  0  0  0  0
  151.9977  138.5135  157.4962 C   0  0  0  0  0  0  0  0  0  0  0  0
  151.6172  138.7222  156.1792 N   0  0  0  0  0  0  0  0  0  0  0  0
  151.0160  137.5714  155.8879 C   0  0  0  0  0  0  0  0  0  0  0  0
  150.9641  136.6328  156.8542 N   0  0  0  0  0  0  0  0  0  0  0  0
  150.3454  135.2757  156.7550 C   0  0  2  0  0  0  0  0  0  0  0  0
  150.3743  134.8515  155.4241 O   0  0  0  0  0  0  0  0  0  0  0  0
  149.0515  134.6934  154.9178 C   0  0  1  0  0  0  0  0  0  0  0  0
  148.9977  133.5926  153.8528 C   0  0  0  0  0  0  0  0  0  0  0  0
  147.7873  133.7188  153.1251 O   0  0  0  0  0  0  0  0  0  0  0  0
  147.2426  132.6433  152.5267 C   0  0  0  0  0  0  0  0  0  0  0  0
  147.5668  131.4821  152.7839 O   0  0  0  0  0  0  0  0  0  0  0  0
  146.2031  133.0055  151.5203 C   0  0  0  0  0  0  0  0  0  0  0  0
  145.5810  131.9821  150.7675 C   0  0  0  0  0  0  0  0  0  0  0  0
  144.5964  132.2935  149.8097 C   0  0  0  0  0  0  0  0  0  0  0  0
  144.2210  133.6323  149.5936 C   0  0  0  0  0  0  0  0  0  0  0  0
  144.8324  134.6597  150.3356 C   0  0  0  0  0  0  0  0  0  0  0  0
  145.8179  134.3503  151.2934 C   0  0  0  0  0  0  0  0  0  0  0  0
  148.2074  134.4178  156.1604 C   0  0  1  0  0  0  0  0  0  0  0  0
  148.3059  133.0616  156.5639 O   0  0  0  0  0  0  0  0  0  0  0  0
  148.4839  133.0188  158.2245 S   0  0  0  0  0  0  0  0  0  0  0  0
  147.1863  132.6655  158.8197 O   0  0  0  0  0  0  0  0  0  0  0  0
  149.7241  132.2920  158.5358 O   0  0  0  0  0  0  0  0  0  0  0  0
  148.7501  134.6482  158.4835 O   0  0  0  0  0  0  0  0  0  0  0  0
  148.8830  135.2855  157.2253 C   0  0  1  0  0  0  0  0  0  0  0  0
  152.6533  142.1685  159.8271 C   0  0  0  0  0  0  0  0  0  0  0  0
  152.0338  143.3664  160.2503 C   0  0  0  0  0  0  0  0  0  0  0  0
  152.2461  143.8617  161.5518 C   0  0  0  0  0  0  0  0  0  0  0  0
  153.0731  143.1586  162.4476 C   0  0  0  0  0  0  0  0  0  0  0  0
  153.6846  141.9577  162.0422 C   0  0  0  0  0  0  0  0  0  0  0  0
  153.4731  141.4620  160.7406 C   0  0  0  0  0  0  0  0  0  0  0  0
  152.6617  137.2462  160.9721 H   0  0  0  0  0  0  0  0  0  0  0  0
  150.5928  137.3986  154.9092 H   0  0  0  0  0  0  0  0  0  0  0  0
  150.9891  134.6289  157.3529 H   0  0  0  0  0  0  0  0  0  0  0  0
  148.7226  135.6366  154.4824 H   0  0  0  0  0  0  0  0  0  0  0  0
  149.8591  133.6575  153.1866 H   0  0  0  0  0  0  0  0  0  0  0  0
  149.0214  132.6127  154.3313 H   0  0  0  0  0  0  0  0  0  0  0  0
  145.8522  130.9468  150.9171 H   0  0  0  0  0  0  0  0  0  0  0  0
  144.1286  131.5034  149.2409 H   0  0  0  0  0  0  0  0  0  0  0  0
  143.4651  133.8710  148.8598 H   0  0  0  0  0  0  0  0  0  0  0  0
  144.5457  135.6880  150.1707 H   0  0  0  0  0  0  0  0  0  0  0  0
  146.2671  135.1633  151.8451 H   0  0  0  0  0  0  0  0  0  0  0  0
  147.1569  134.6734  156.0176 H   0  0  0  0  0  0  0  0  0  0  0  0
  148.4756  136.2969  157.2340 H   0  0  0  0  0  0  0  0  0  0  0  0
  151.3935  143.9161  159.5755 H   0  0  0  0  0  0  0  0  0  0  0  0
  151.7722  144.7811  161.8625 H   0  0  0  0  0  0  0  0  0  0  0  0
  153.2346  143.5375  163.4458 H   0  0  0  0  0  0  0  0  0  0  0  0
  154.3137  141.4131  162.7305 H   0  0  0  0  0  0  0  0  0  0  0  0
  153.9426  140.5323  160.4530 H   0  0  0  0  0  0  0  0  0  0  0  0
  1  2  2  0  0  0  0
  2  3  1  0  0  0  0
  2 33  1  0  0  0  0
  3  4  1  0  0  0  0
  4  9  1  0  0  0  0
  4  5  2  0  0  0  0
  5  6  1  0  0  0  0
  6  7  2  0  0  0  0
  6 39  1  0  0  0  0
  7  8  1  0  0  0  0
  8 12  1  0  0  0  0
  8  9  2  0  0  0  0
  9 10  1  0  0  0  0
 10 11  2  0  0  0  0
 11 12  1  0  0  0  0
 11 40  1  0  0  0  0
 12 13  1  0  0  0  0
 13 32  1  0  0  0  0
 13 14  1  0  0  0  0
 13 41  1  0  0  0  0
 14 15  1  0  0  0  0
 15 16  1  0  0  0  0
 15 26  1  0  0  0  0
 15 42  1  0  0  0  0
 16 17  1  0  0  0  0
 16 43  1  0  0  0  0
 16 44  1  0  0  0  0
 17 18  1  0  0  0  0
 18 19  2  0  0  0  0
 18 20  1  0  0  0  0
 20 25  1  0  0  0  0
 20 21  2  0  0  0  0
 21 22  1  0  0  0  0
 21 45  1  0  0  0  0
 22 23  2  0  0  0  0
 22 46  1  0  0  0  0
 23 24  1  0  0  0  0
 23 47  1  0  0  0  0
 24 25  2  0  0  0  0
 24 48  1  0  0  0  0
 25 49  1  0  0  0  0
 26 32  1  0  0  0  0
 26 27  1  0  0  0  0
 26 50  1  0  0  0  0
 27 28  1  0  0  0  0
 28 29  2  0  0  0  0
 28 30  2  0  0  0  0
 28 31  1  0  0  0  0
 31 32  1  0  0  0  0
 32 51  1  0  0  0  0
 33 38  1  0  0  0  0
 33 34  2  0  0  0  0
 34 35  1  0  0  0  0
 34 52  1  0  0  0  0
 35 36  2  0  0  0  0
 35 53  1  0  0  0  0
 36 37  1  0  0  0  0
 36 54  1  0  0  0  0
 37 38  2  0  0  0  0
 37 55  1  0  0  0  0
 38 56  1  0  0  0  0
M  CHG  1   3  -1
M  END
> <s_m_source_file>
AV-unprocessed.smi

> <i_m_source_file_index>
1

> <i_lp_mmshare_version>
43012

> <i_f3d_flags>
0

> <s_epik_input>
W2NIXTFbY0hdW2NIXVtjSF1bY0hdYzFDKD1PKVtOSF1jKG5bY0hdbjIpYyhjMjMpbltjSF1uM1tDQEBIXShbQ0BIXShbQ0BIXTQ1KU9TKE81KSg9Tyk9TylPW0NASF00W0NIMl1PQyg9TyljNltjSF1bY0hdW2NIXVtjSF1bY0hdNg==

> <s_epik_cmdline>
J2VwaWtfcHl0aG9uJywgJy1waCcsICc3LjAnLCAnLXRuJywgJzgnLCAnLW1hJywgJzIwMCcsICctbWV0YWxfYmluZGluZycsICctaW1hZScsICc8aW5maWxlLm1hZT4nLCAnLW9tYWUnLCAnPG91dGZpbGUubWFlPic=

> <r_lp_tautomer_probability>
1

> <r_epik_Ionization_Penalty>
4.39121

> <r_epik_Ionization_Penalty_Charging>
3.39398

> <r_epik_Ionization_Penalty_Neutral>
0.997232

> <r_epik_State_Penalty>
3.39839

> <r_epik_Charging_Adjusted_Penalty>
6.79237

> <i_epik_Tot_Q>
-1

> <i_epik_Tot_abs_Q>
1

> <r_epik_Metal_State_Penalty>
0.497663

> <b_epik_Metal_Only>
1

> <s_epik_Chemistry_Notes>
This compound has an ester and may undergo hydrolysis at high or low pH. This compound contains an acetal/aminal-like group ( X-CH(R)-Y where X, Y are N, S, or O) that may be acid/base labile, releasing an aldehyde.

> <s_lp_Force_Field>
OPLS_2005

> <r_lp_Energy>
42.9256

> <b_lp_Chiralities_Consistent>
1

> <s_lp_Variant>
AV-unprocessed.smi:1-21

> <Gold.Version>
5.8.1

> <Gold.Id.Protein>
6NUR|6NUR_protein|mol2

> <Gold.PLP.Fitness>
64.5140

> <Gold.PLP.PLP>
-59.2010

> <Gold.PLP.part.hbond>
-4.0000

> <Gold.PLP.part.metal>
0.0000

> <Gold.PLP.part.buried>
-6.8227

> <Gold.PLP.part.nonpolar>
-48.5046

> <Gold.PLP.part.repulsive>
1.2903

> <Gold.PLP.ligand.clash>
0.0000

> <Gold.PLP.ligand.torsion>
2.7310

> <Gold.PLP.Chemscore.Hbond>
3.5120

> <Gold.PLP.Chemscore.CHOScore>
0.0000

> <Gold.PLP.Chemscore.Metal>
0.0000

> <Gold.Chemscore.Hbonds>
donor molecule, donor type, donor heavy atom, donor atom, acceptor molecule, acceptor atom, score
      P1  H  6896  6907       L1    30  1.00
      P1  H  6896  6908       L1     7  0.94
      P1  H  7997  8008       L1     3  1.43

> <Gold.PLP.Chemscore.Internal.Correction>
0.2391

> <Gold.Rescore>
     Score         DG    S(hbond)    S(metal)    S(lipo)     H(rot)  DE(clash)    DE(int)     intcor
     19.05     -22.11       1.96        0.00     132.40       2.11       0.42       2.64       ----

> <Gold.Chemscore.Fitness>
19.0529

> <Gold.Chemscore.DG>
-22.1125

> <Gold.Chemscore.ZeroCoef>
-5.4800

> <Gold.Chemscore.Hbond>
1.9617

> <Gold.Chemscore.Metal>
0.0000

> <Gold.Chemscore.Lipo>
132.4043

> <Gold.Chemscore.Internal_Hbond>
0.0000

> <Gold.Chemscore.DEClash>
0.4232

> <Gold.Chemscore.DEInternal>
2.6363

> <Gold.Chemscore.Rot>
2.1136

> <Gold.Chemscore.Internal.Correction>
   9.000000E+99

> <Gold.Chemscore.Hbonds>
donor molecule, donor type, donor heavy atom, donor atom, acceptor molecule, acceptor atom, score
      P1  H  6896  6907       L1    30  0.49
      P1  H  6896  6908       L1     7  0.85
      P1  H  7997  8008       L1     3  0.16

> <Gold.Chemscore.Hbond.Weighted>
-6.5519

> <Gold.Chemscore.Metal.Weighted>
-0.0000

> <Gold.Chemscore.Lipo.Weighted>
-15.4913

> <Gold.Chemscore.Internal_Hbond.Weighted>
0.0000

> <Gold.Chemscore.DEClash.Weighted>
0.4232

> <Gold.Chemscore.DEInternal.Weighted>
2.6363

> <Gold.Chemscore.Rot.Weighted>
5.4107

> <Gold.Chemscore.Internal.Correction.Weighted>
   9.000000E+99

> <Gold.Protein.RotatedTorsions>
[ 6907 6896 6895 6894 ] final -130.79 input  -60.11 | X-H torsion
[ 7974 7965 7964 7962 ] final -120.13 input  175.53 | X-H torsion
[ 8008 7997 7996 7995 ] final  -79.79 input   59.86 | X-H torsion
[ 10167 10162 10161 10158 ] final -125.93 input  -65.29 | X-H torsion
[ 10718 10713 10712 10709 ] final  118.29 input   66.30 | X-H torsion
[ 10763 10752 10751 10750 ] final -120.46 input  -60.55 | X-H torsion
[ 11005 11000 10999 10996 ] final   -8.11 input  -57.11 | X-H torsion

> <Gold.Protein.ActiveResidues>
 VAL166  LYS551  ARG553  GLY616  TRP617  ASP618  TYR619  PRO620  LYS621  CYS622 
 ASP623  PHE694  ASN695  SER759  ASP760  ASP761  ALA762  ILE779  LEU786  VAL792 
 PHE793  MET794  SER795  GLU796  ALA797  LYS798  CYS799  TRP800  GLU811  SER814 

> <Gold.Protein.RotatedAtoms>
  150.9436  133.6628  159.2785 H   0  0  0  0  0  0  0  0  0  0  0  0  # atno 6907 bound_to 6896
  151.4008  135.0969  159.9565 H   0  0  0  0  0  0  0  0  0  0  0  0  # atno 6908 bound_to 6896
  152.5080  133.8931  159.7458 H   0  0  0  0  0  0  0  0  0  0  0  0  # atno 6909 bound_to 6896
  145.0548  140.8246  143.4187 H   0  0  0  0  0  0  0  0  0  0  0  0  # atno 7974 bound_to 7965
  154.5819  140.0673  156.9116 H   0  0  0  0  0  0  0  0  0  0  0  0  # atno 8008 bound_to 7997
  155.2447  140.3347  155.4270 H   0  0  0  0  0  0  0  0  0  0  0  0  # atno 8009 bound_to 7997
  156.2195  140.1793  156.7494 H   0  0  0  0  0  0  0  0  0  0  0  0  # atno 8010 bound_to 7997
  139.9768  143.5785  152.2393 H   0  0  0  0  0  0  0  0  0  0  0  0  # atno 10167 bound_to 10162
  157.6040  131.1046  150.7735 H   0  0  0  0  0  0  0  0  0  0  0  0  # atno 10718 bound_to 10713
  154.8644  135.4202  154.2463 H   0  0  0  0  0  0  0  0  0  0  0  0  # atno 10763 bound_to 10752
  153.3418  135.6994  153.6866 H   0  0  0  0  0  0  0  0  0  0  0  0  # atno 10764 bound_to 10752
  153.5841  135.3567  155.2859 H   0  0  0  0  0  0  0  0  0  0  0  0  # atno 10765 bound_to 10752
  140.7199  133.8837  155.8813 H   0  0  0  0  0  0  0  0  0  0  0  0  # atno 11005 bound_to 11000
  145.1482  139.2531  143.5455 LP  0  0  0  0  0  0  0  0  0  0  0  0  # atno 17320 bound_to 7965
  146.3520  140.1177  142.8601 LP  0  0  0  0  0  0  0  0  0  0  0  0  # atno 17321 bound_to 7965
  139.6439  144.7657  151.2282 LP  0  0  0  0  0  0  0  0  0  0  0  0  # atno 17342 bound_to 10162
  140.7503  143.6271  150.8458 LP  0  0  0  0  0  0  0  0  0  0  0  0  # atno 17343 bound_to 10162
  156.8127  130.4958  149.5353 LP  0  0  0  0  0  0  0  0  0  0  0  0  # atno 17370 bound_to 10713
  156.1121  130.6048  151.0064 LP  0  0  0  0  0  0  0  0  0  0  0  0  # atno 17371 bound_to 10713
  141.0012  134.1147  157.4315 LP  0  0  0  0  0  0  0  0  0  0  0  0  # atno 17394 bound_to 11000
  139.8850  135.0069  156.6410 LP  0  0  0  0  0  0  0  0  0  0  0  0  # atno 17395 bound_to 11000

$$$$
