AV-unprocessed.smi:160|AV-procd|sdf|1349|dock7
  -GOLD-   2262019 53D 1   1.00000     0.00000
 Structure written by MMmdl.
 29 30  0  0  0  0  0  0  0  0  1 V2000
  146.8560  143.8192  158.7570 N   0  0  0  0  0  0  0  0  0  0  0  0
  146.2565  142.6677  158.4361 C   0  0  0  0  0  0  0  0  0  0  0  0
  145.7298  141.9422  159.2784 O   0  0  0  0  0  0  0  0  0  0  0  0
  146.2636  142.2992  156.9784 C   0  0  0  0  0  0  0  0  0  0  0  0
  145.1079  142.2678  156.2516 N   0  0  0  0  0  0  0  0  0  0  0  0
  145.6090  141.8965  155.0806 C   0  0  0  0  0  0  0  0  0  0  0  0
  146.9362  141.7347  155.0755 N   0  0  0  0  0  0  0  0  0  0  0  0
  147.8317  141.2805  153.9581 C   0  0  2  0  0  0  0  0  0  0  0  0
  147.0371  140.7291  152.9578 O   0  0  0  0  0  0  0  0  0  0  0  0
  146.8324  139.3463  153.2182 C   0  0  1  0  0  0  0  0  0  0  0  0
  146.4940  138.6174  151.9087 C   0  0  0  0  0  0  0  0  0  0  0  0
  146.4251  137.2249  152.1302 O   0  0  0  0  0  0  0  0  0  0  0  0
  148.1673  138.8961  153.8390 C   0  0  2  0  0  0  0  0  0  0  0  0
  147.9236  137.9692  154.8784 O   0  0  0  0  0  0  0  0  0  0  0  0
  148.8000  140.1729  154.4039 C   0  0  1  0  0  0  0  0  0  0  0  0
  150.0882  140.3756  153.8584 O   0  0  0  0  0  0  0  0  0  0  0  0
  147.3870  141.9849  156.3317 N   0  0  0  0  0  0  0  0  0  0  0  0
  148.3223  142.1957  153.6236 H   0  0  0  0  0  0  0  0  0  0  0  0
  146.0203  139.2322  153.9384 H   0  0  0  0  0  0  0  0  0  0  0  0
  148.8119  138.4403  153.0857 H   0  0  0  0  0  0  0  0  0  0  0  0
  148.8993  140.1628  155.4905 H   0  0  0  0  0  0  0  0  0  0  0  0
  146.8861  144.1203  159.7198 H   0  0  0  0  0  0  0  0  0  0  0  0
  147.2776  144.3802  158.0309 H   0  0  0  0  0  0  0  0  0  0  0  0
  144.9948  141.7365  154.2066 H   0  0  0  0  0  0  0  0  0  0  0  0
  145.5593  138.9820  151.4812 H   0  0  0  0  0  0  0  0  0  0  0  0
  147.2777  138.7912  151.1705 H   0  0  0  0  0  0  0  0  0  0  0  0
  147.3048  136.8900  152.2135 H   0  0  0  0  0  0  0  0  0  0  0  0
  148.2176  138.3499  155.6920 H   0  0  0  0  0  0  0  0  0  0  0  0
  150.0437  140.2379  152.9246 H   0  0  0  0  0  0  0  0  0  0  0  0
  1  2  1  0  0  0  0
  1 22  1  0  0  0  0
  1 23  1  0  0  0  0
  2  3  2  0  0  0  0
  2  4  1  0  0  0  0
  4 17  2  0  0  0  0
  4  5  1  0  0  0  0
  5  6  2  0  0  0  0
  6  7  1  0  0  0  0
  6 24  1  0  0  0  0
  7  8  1  0  0  0  0
  7 17  1  0  0  0  0
  8 18  1  0  0  0  0
  8 15  1  0  0  0  0
  8  9  1  0  0  0  0
  9 10  1  0  0  0  0
 10 19  1  0  0  0  0
 10 11  1  0  0  0  0
 10 13  1  0  0  0  0
 11 12  1  0  0  0  0
 11 25  1  0  0  0  0
 11 26  1  0  0  0  0
 12 27  1  0  0  0  0
 13 20  1  0  0  0  0
 13 14  1  0  0  0  0
 13 15  1  0  0  0  0
 14 28  1  0  0  0  0
 15 21  1  0  0  0  0
 15 16  1  0  0  0  0
 16 29  1  0  0  0  0
M  END
> <s_m_source_file>
AV-unprocessed.smi

> <i_m_source_file_index>
160

> <i_lp_mmshare_version>
43012

> <i_f3d_flags>
0

> <s_epik_input>
W05IMl1DKD1PKWMxbltjSF1uKG4xKVtDQEBIXTJPW0NASF0oW0NIMl1bT0hdKVtDQEBIXShbT0hdKVtDQEhdMltPSF0=

> <s_epik_cmdline>
J2VwaWtfcHl0aG9uJywgJy1waCcsICc3LjAnLCAnLXRuJywgJzgnLCAnLW1hJywgJzIwMCcsICctbWV0YWxfYmluZGluZycsICctaW1hZScsICc8aW5maWxlLm1hZT4nLCAnLW9tYWUnLCAnPG91dGZpbGUubWFlPic=

> <r_lp_tautomer_probability>
1

> <r_epik_Ionization_Penalty>
1.06932e-05

> <r_epik_Ionization_Penalty_Charging>
0

> <r_epik_Ionization_Penalty_Neutral>
1.06932e-05

> <r_epik_State_Penalty>
-0

> <r_epik_Charging_Adjusted_Penalty>
0

> <i_epik_Tot_Q>
0

> <i_epik_Tot_abs_Q>
0

> <r_epik_Metal_State_Penalty>
0.0142097

> <b_epik_Metal_Only>
0

> <s_epik_Chemistry_Notes>
This compound contains an acetal/aminal-like group ( X-CH(R)-Y where X, Y are N, S, or O) that may be acid/base labile, releasing an aldehyde.

> <s_lp_Force_Field>
OPLS_2005

> <r_lp_Energy>
33.3091

> <b_lp_Chiralities_Consistent>
1

> <s_lp_Variant>
AV-unprocessed.smi:160-7

> <Gold.Version>
5.8.1

> <Gold.Id.Protein>
6NUR|6NUR_protein|mol2

> <Gold.PLP.Fitness>
37.5161

> <Gold.PLP.PLP>
-25.2855

> <Gold.PLP.part.hbond>
-4.5168

> <Gold.PLP.part.metal>
0.0000

> <Gold.PLP.part.buried>
-2.9142

> <Gold.PLP.part.nonpolar>
-18.0887

> <Gold.PLP.part.repulsive>
0.4914

> <Gold.PLP.ligand.clash>
0.0000

> <Gold.PLP.ligand.torsion>
1.6471

> <Gold.PLP.Chemscore.Hbond>
4.1640

> <Gold.PLP.Chemscore.CHOScore>
1.0000

> <Gold.PLP.Chemscore.Metal>
0.0000

> <Gold.Chemscore.Hbonds>
donor molecule, donor type, donor heavy atom, donor atom, acceptor molecule, acceptor atom, score
      L1  H     1    23       P1  8029  1.00
      L1  H    12    27       P1  7948  1.00
      L1  H    16    29       P1  7957  1.00
      P1  H  6934  6946       L1     3  0.71
      P1  H  7989  7998       L1    16  0.04
      L1  C     6    24       P1 10175  0.94

> <Gold.PLP.Chemscore.Internal.Correction>
0.0330

> <Gold.Rescore>
     Score         DG    S(hbond)    S(metal)    S(lipo)     H(rot)  DE(clash)    DE(int)     intcor
      9.39     -11.05       3.80        0.00      27.87       4.06       0.04       1.63       ----

> <Gold.Chemscore.Fitness>
9.3900

> <Gold.Chemscore.DG>
-11.0543

> <Gold.Chemscore.ZeroCoef>
-5.4800

> <Gold.Chemscore.Hbond>
3.8046

> <Gold.Chemscore.Metal>
0.0000

> <Gold.Chemscore.Lipo>
27.8672

> <Gold.Chemscore.Internal_Hbond>
0.0000

> <Gold.Chemscore.DEClash>
0.0354

> <Gold.Chemscore.DEInternal>
1.6289

> <Gold.Chemscore.Rot>
4.0600

> <Gold.Chemscore.Internal.Correction>
   9.000000E+99

> <Gold.Chemscore.Hbonds>
donor molecule, donor type, donor heavy atom, donor atom, acceptor molecule, acceptor atom, score
      L1  H     1    23       P1  8029  0.39
      L1  H    12    27       P1  7948  1.00
      L1  H    16    29       P1  7957  1.00
      P1  H  6934  6946       L1     3  0.69

> <Gold.Chemscore.Hbond.Weighted>
-12.7075

> <Gold.Chemscore.Metal.Weighted>
-0.0000

> <Gold.Chemscore.Lipo.Weighted>
-3.2605

> <Gold.Chemscore.Internal_Hbond.Weighted>
0.0000

> <Gold.Chemscore.DEClash.Weighted>
0.0354

> <Gold.Chemscore.DEInternal.Weighted>
1.6289

> <Gold.Chemscore.Rot.Weighted>
10.3936

> <Gold.Chemscore.Internal.Correction.Weighted>
   9.000000E+99

> <Gold.Protein.RotatedTorsions>
[ 6907 6896 6895 6894 ] final   60.55 input  -60.11 | X-H torsion
[ 7974 7965 7964 7962 ] final -119.68 input  175.53 | X-H torsion
[ 8008 7997 7996 7995 ] final -108.68 input   59.86 | X-H torsion
[ 10167 10162 10161 10158 ] final -160.54 input  -65.29 | X-H torsion
[ 10718 10713 10712 10709 ] final  -80.30 input   66.30 | X-H torsion
[ 10763 10752 10751 10750 ] final  108.13 input  -60.55 | X-H torsion
[ 11005 11000 10999 10996 ] final  171.30 input  -57.11 | X-H torsion

> <Gold.Protein.ActiveResidues>
 VAL166  LYS551  ARG553  GLY616  TRP617  ASP618  TYR619  PRO620  LYS621  CYS622 
 ASP623  PHE694  ASN695  SER759  ASP760  ASP761  ALA762  ILE779  LEU786  VAL792 
 PHE793  MET794  SER795  GLU796  ALA797  LYS798  CYS799  TRP800  GLU811  SER814 

> <Gold.Protein.RotatedAtoms>
  152.4012  134.6283  160.0068 H   0  0  0  0  0  0  0  0  0  0  0  0  # atno 6907 bound_to 6896
  151.6487  133.3316  159.3155 H   0  0  0  0  0  0  0  0  0  0  0  0  # atno 6908 bound_to 6896
  150.7912  134.6980  159.6579 H   0  0  0  0  0  0  0  0  0  0  0  0  # atno 6909 bound_to 6896
  145.0598  140.8282  143.4159 H   0  0  0  0  0  0  0  0  0  0  0  0  # atno 7974 bound_to 7965
  154.9480  140.0401  157.2130 H   0  0  0  0  0  0  0  0  0  0  0  0  # atno 8008 bound_to 7997
  154.8006  140.2851  155.5902 H   0  0  0  0  0  0  0  0  0  0  0  0  # atno 8009 bound_to 7997
  156.2961  140.2556  156.2873 H   0  0  0  0  0  0  0  0  0  0  0  0  # atno 8010 bound_to 7997
  139.6532  144.0046  152.2176 H   0  0  0  0  0  0  0  0  0  0  0  0  # atno 10167 bound_to 10162
  156.0073  130.4570  150.3779 H   0  0  0  0  0  0  0  0  0  0  0  0  # atno 10718 bound_to 10713
  153.4163  135.3822  155.2083 H   0  0  0  0  0  0  0  0  0  0  0  0  # atno 10763 bound_to 10752
  154.8741  135.3806  154.4439 H   0  0  0  0  0  0  0  0  0  0  0  0  # atno 10764 bound_to 10752
  153.4953  135.7088  153.5924 H   0  0  0  0  0  0  0  0  0  0  0  0  # atno 10765 bound_to 10752
  140.3175  134.7465  157.4039 H   0  0  0  0  0  0  0  0  0  0  0  0  # atno 11005 bound_to 11000
  145.1423  139.2565  143.5484 LP  0  0  0  0  0  0  0  0  0  0  0  0  # atno 17320 bound_to 7965
  146.3523  140.1103  142.8604 LP  0  0  0  0  0  0  0  0  0  0  0  0  # atno 17321 bound_to 7965
  139.9766  144.6457  150.7940 LP  0  0  0  0  0  0  0  0  0  0  0  0  # atno 17342 bound_to 10162
  140.7547  143.3032  151.3027 LP  0  0  0  0  0  0  0  0  0  0  0  0  # atno 17343 bound_to 10162
  157.1860  131.0404  151.2724 LP  0  0  0  0  0  0  0  0  0  0  0  0  # atno 17370 bound_to 10713
  157.4104  130.7382  149.6834 LP  0  0  0  0  0  0  0  0  0  0  0  0  # atno 17371 bound_to 10713
  140.0971  134.5523  155.8388 LP  0  0  0  0  0  0  0  0  0  0  0  0  # atno 17394 bound_to 11000
  141.2094  133.6683  156.6438 LP  0  0  0  0  0  0  0  0  0  0  0  0  # atno 17395 bound_to 11000

$$$$
