AV-unprocessed.smi:66|AV-procd|sdf|624|dock1
  -GOLD-   2262016513D 1   1.00000     0.00000
 Structure written by MMmdl.
 28 30  0  0  0  0  0  0  0  0  2 V2000
  151.9077  136.9075  156.0557 O   0  0  0  0  0  0  0  0  0  0  0  0
  151.4605  137.9533  156.5751 C   0  0  0  0  0  0  0  0  0  0  0  0
  150.7391  138.0017  157.5963 O   0  5  0  0  0  0  0  0  0  0  0  0
  151.8349  139.2774  155.8884 C   0  0  1  0  0  0  0  0  0  0  0  0
  151.2464  139.3703  154.4692 C   0  0  0  0  0  0  0  0  0  0  0  0
  149.9524  140.1599  154.6652 C   0  0  2  0  0  0  0  0  0  0  0  0
  149.5301  140.8119  153.4859 O   0  0  0  0  0  0  0  0  0  0  0  0
  150.3222  141.1435  155.7759 C   0  0  0  0  0  0  0  0  0  0  0  0
  151.2887  140.4313  156.6041 N   0  0  0  0  0  0  0  0  0  0  0  0
  151.9768  141.0987  157.6421 C   0  0  0  0  0  0  0  0  0  0  0  0
  152.8656  140.3904  158.3805 N   0  0  0  0  0  0  0  0  0  0  0  0
  153.5182  141.0145  159.3691 C   0  0  0  0  0  0  0  0  0  0  0  0
  153.4305  142.2926  159.7661 N   0  0  0  0  0  0  0  0  0  0  0  0
  152.5625  143.0141  159.0453 C   0  0  0  0  0  0  0  0  0  0  0  0
  152.2770  144.3603  159.2295 N   0  0  0  0  0  0  0  0  0  0  0  0
  151.3796  144.5840  158.2717 C   0  0  0  0  0  0  0  0  0  0  0  0
  151.0565  143.5336  157.5010 N   0  0  0  0  0  0  0  0  0  0  0  0
  151.8057  142.4642  157.9659 C   0  0  0  0  0  0  0  0  0  0  0  0
  150.4079  143.5503  156.7249 H   0  0  0  0  0  0  0  0  0  0  0  0
  152.9209  139.3501  155.8229 H   0  0  0  0  0  0  0  0  0  0  0  0
  151.9344  139.9300  153.8336 H   0  0  0  0  0  0  0  0  0  0  0  0
  151.0795  138.4016  153.9955 H   0  0  0  0  0  0  0  0  0  0  0  0
  149.1622  139.4918  155.0106 H   0  0  0  0  0  0  0  0  0  0  0  0
  149.4745  140.1704  152.7948 H   0  0  0  0  0  0  0  0  0  0  0  0
  150.7937  142.0367  155.3620 H   0  0  0  0  0  0  0  0  0  0  0  0
  149.4455  141.4494  156.3481 H   0  0  0  0  0  0  0  0  0  0  0  0
  154.2115  140.4019  159.9260 H   0  0  0  0  0  0  0  0  0  0  0  0
  150.9387  145.5582  158.1196 H   0  0  0  0  0  0  0  0  0  0  0  0
  1  2  2  0  0  0  0
  2  3  1  0  0  0  0
  2  4  1  0  0  0  0
  4  9  1  0  0  0  0
  4  5  1  0  0  0  0
  4 20  1  0  0  0  0
  5  6  1  0  0  0  0
  5 21  1  0  0  0  0
  5 22  1  0  0  0  0
  6  7  1  0  0  0  0
  6  8  1  0  0  0  0
  6 23  1  0  0  0  0
  7 24  1  0  0  0  0
  8  9  1  0  0  0  0
  8 25  1  0  0  0  0
  8 26  1  0  0  0  0
  9 10  1  0  0  0  0
 10 18  1  0  0  0  0
 10 11  2  0  0  0  0
 11 12  1  0  0  0  0
 12 13  2  0  0  0  0
 12 27  1  0  0  0  0
 13 14  1  0  0  0  0
 14 18  2  0  0  0  0
 14 15  1  0  0  0  0
 15 16  2  0  0  0  0
 16 17  1  0  0  0  0
 16 28  1  0  0  0  0
 17 19  1  0  0  0  0
 17 18  1  0  0  0  0
M  CHG  1   3  -1
M  END
> <s_m_source_file>
AV-unprocessed.smi

> <i_m_source_file_index>
66

> <i_lp_mmshare_version>
43012

> <i_f3d_flags>
0

> <s_epik_input>
Tz1DKFtPSF0pW0NAQEhdMVtDSDJdW0NAQEhdKFtPSF0pW0NIMl1OMWMobltjSF1uMiljKGMyMylbbkhdW2NIXW4z

> <s_epik_cmdline>
J2VwaWtfcHl0aG9uJywgJy1waCcsICc3LjAnLCAnLXRuJywgJzgnLCAnLW1hJywgJzIwMCcsICctbWV0YWxfYmluZGluZycsICctaW1hZScsICc8aW5maWxlLm1hZT4nLCAnLW9tYWUnLCAnPG91dGZpbGUubWFlPic=

> <r_lp_tautomer_probability>
0.0419193

> <r_epik_Ionization_Penalty>
0.0157405

> <r_epik_Ionization_Penalty_Charging>
0.000248217

> <r_epik_Ionization_Penalty_Neutral>
0.0154923

> <r_epik_State_Penalty>
1.99742

> <r_epik_Charging_Adjusted_Penalty>
1.99767

> <i_epik_Tot_Q>
-1

> <i_epik_Tot_abs_Q>
1

> <r_epik_Metal_State_Penalty>
2.31035

> <b_epik_Metal_Only>
0

> <s_lp_Force_Field>
OPLS_2005

> <r_lp_Energy>
19.7313

> <b_lp_Chiralities_Consistent>
1

> <s_lp_Variant>
AV-unprocessed.smi:66-8

> <Gold.Version>
5.8.1

> <Gold.Id.Protein>
6NUR|6NUR_protein|mol2

> <Gold.PLP.Fitness>
46.4190

> <Gold.PLP.PLP>
-31.9800

> <Gold.PLP.part.hbond>
-5.6414

> <Gold.PLP.part.metal>
0.0000

> <Gold.PLP.part.buried>
-2.1448

> <Gold.PLP.part.nonpolar>
-22.7981

> <Gold.PLP.part.repulsive>
0.0269

> <Gold.PLP.ligand.clash>
0.0000

> <Gold.PLP.ligand.torsion>
0.1876

> <Gold.PLP.Chemscore.Hbond>
4.8764

> <Gold.PLP.Chemscore.CHOScore>
0.0000

> <Gold.PLP.Chemscore.Metal>
0.0000

> <Gold.Chemscore.Hbonds>
donor molecule, donor type, donor heavy atom, donor atom, acceptor molecule, acceptor atom, score
      L1  H     7    24       P1  7957  0.82
      L1  H    17    19       P1  8028  0.55
      P1  H  7997  8009       L1    11  0.46
      P1  H  8011  8017       L1     7  0.85
      P1  H 10752 10763       L1     1  1.53

> <Gold.PLP.Chemscore.Internal.Correction>
0.1851

> <Gold.Rescore>
     Score         DG    S(hbond)    S(metal)    S(lipo)     H(rot)  DE(clash)    DE(int)     intcor
     12.22     -14.62       2.71        0.00      39.76       1.78       1.35       1.05       ----

> <Gold.Chemscore.Fitness>
12.2185

> <Gold.Chemscore.DG>
-14.6182

> <Gold.Chemscore.ZeroCoef>
-5.4800

> <Gold.Chemscore.Hbond>
2.7107

> <Gold.Chemscore.Metal>
0.0000

> <Gold.Chemscore.Lipo>
39.7629

> <Gold.Chemscore.Internal_Hbond>
0.0000

> <Gold.Chemscore.DEClash>
1.3456

> <Gold.Chemscore.DEInternal>
1.0541

> <Gold.Chemscore.Rot>
1.7842

> <Gold.Chemscore.Internal.Correction>
   9.000000E+99

> <Gold.Chemscore.Hbonds>
donor molecule, donor type, donor heavy atom, donor atom, acceptor molecule, acceptor atom, score
      L1  H     7    24       P1  7957  0.81
      L1  H    17    19       P1  8028  0.55
      P1  H  7997  8009       L1    11  0.04
      P1  H  8011  8017       L1     7  0.14
      P1  H 10752 10763       L1     1  0.74

> <Gold.Chemscore.Hbond.Weighted>
-9.0536

> <Gold.Chemscore.Metal.Weighted>
-0.0000

> <Gold.Chemscore.Lipo.Weighted>
-4.6523

> <Gold.Chemscore.Internal_Hbond.Weighted>
0.0000

> <Gold.Chemscore.DEClash.Weighted>
1.3456

> <Gold.Chemscore.DEInternal.Weighted>
1.0541

> <Gold.Chemscore.Rot.Weighted>
4.5676

> <Gold.Chemscore.Internal.Correction.Weighted>
   9.000000E+99

> <Gold.Protein.RotatedTorsions>
[ 6907 6896 6895 6894 ] final    1.04 input  -60.11 | X-H torsion
[ 7974 7965 7964 7962 ] final  -32.49 input  175.53 | X-H torsion
[ 8008 7997 7996 7995 ] final  163.82 input   59.86 | X-H torsion
[ 10167 10162 10161 10158 ] final   84.77 input  -65.29 | X-H torsion
[ 10718 10713 10712 10709 ] final  -68.80 input   66.30 | X-H torsion
[ 10763 10752 10751 10750 ] final   80.43 input  -60.55 | X-H torsion
[ 11005 11000 10999 10996 ] final   28.62 input  -57.11 | X-H torsion

> <Gold.Protein.ActiveResidues>
 VAL166  LYS551  ARG553  GLY616  TRP617  ASP618  TYR619  PRO620  LYS621  CYS622 
 ASP623  PHE694  ASN695  SER759  ASP760  ASP761  ALA762  ILE779  LEU786  VAL792 
 PHE793  MET794  SER795  GLU796  ALA797  LYS798  CYS799  TRP800  GLU811  SER814 

> <Gold.Protein.RotatedAtoms>
  151.5862  135.1056  160.0028 H   0  0  0  0  0  0  0  0  0  0  0  0  # atno 6907 bound_to 6896
  152.4329  133.7305  159.6595 H   0  0  0  0  0  0  0  0  0  0  0  0  # atno 6908 bound_to 6896
  150.8223  133.8160  159.3156 H   0  0  0  0  0  0  0  0  0  0  0  0  # atno 6909 bound_to 6896
  146.0986  140.5799  142.8831 H   0  0  0  0  0  0  0  0  0  0  0  0  # atno 7974 bound_to 7965
  156.1928  140.1713  156.8059 H   0  0  0  0  0  0  0  0  0  0  0  0  # atno 8008 bound_to 7997
  154.5492  140.0721  156.8671 H   0  0  0  0  0  0  0  0  0  0  0  0  # atno 8009 bound_to 7997
  155.3062  140.3364  155.4248 H   0  0  0  0  0  0  0  0  0  0  0  0  # atno 8010 bound_to 7997
  139.9046  144.6308  150.8600 H   0  0  0  0  0  0  0  0  0  0  0  0  # atno 10167 bound_to 10162
  156.0487  130.4301  150.2054 H   0  0  0  0  0  0  0  0  0  0  0  0  # atno 10718 bound_to 10713
  153.1033  135.4803  154.8906 H   0  0  0  0  0  0  0  0  0  0  0  0  # atno 10763 bound_to 10752
  154.7403  135.3080  154.8743 H   0  0  0  0  0  0  0  0  0  0  0  0  # atno 10764 bound_to 10752
  153.9353  135.6840  153.4798 H   0  0  0  0  0  0  0  0  0  0  0  0  # atno 10765 bound_to 10752
  140.3136  134.2621  155.7729 H   0  0  0  0  0  0  0  0  0  0  0  0  # atno 11005 bound_to 11000
  144.7414  140.4953  143.6866 LP  0  0  0  0  0  0  0  0  0  0  0  0  # atno 17320 bound_to 7965
  145.5900  139.1495  143.3188 LP  0  0  0  0  0  0  0  0  0  0  0  0  # atno 17321 bound_to 7965
  140.7699  143.3411  151.2207 LP  0  0  0  0  0  0  0  0  0  0  0  0  # atno 17342 bound_to 10162
  139.6995  143.9557  152.2898 LP  0  0  0  0  0  0  0  0  0  0  0  0  # atno 17343 bound_to 10162
  157.0140  130.9959  151.3358 LP  0  0  0  0  0  0  0  0  0  0  0  0  # atno 17370 bound_to 10713
  157.5390  130.8108  149.8006 LP  0  0  0  0  0  0  0  0  0  0  0  0  # atno 17371 bound_to 10713
  141.2102  133.7725  156.9944 LP  0  0  0  0  0  0  0  0  0  0  0  0  # atno 17394 bound_to 11000
  140.1003  134.9539  157.1912 LP  0  0  0  0  0  0  0  0  0  0  0  0  # atno 17395 bound_to 11000

$$$$
