AV-unprocessed.smi:83|AV-procd|sdf|802|dock6
  -GOLD-   2262017193D 1   1.00000     0.00000
 Structure written by MMmdl.
 56 59  0  0  0  0  0  0  0  0  1 V2000
  153.6813  141.2892  161.6617 C   0  0  0  0  0  0  0  0  0  0  0  0
  153.0432  142.6126  162.0864 C   0  0  0  0  0  0  0  0  0  0  0  0
  153.0719  142.9338  163.2740 O   0  0  0  0  0  0  0  0  0  0  0  0
  152.4697  143.3838  161.1403 N   0  0  0  0  0  0  0  0  0  0  0  0
  152.4242  143.0344  159.7230 C   0  0  0  0  0  0  0  0  0  0  0  0
  151.7531  144.2244  159.0300 C   0  0  0  0  0  0  0  0  0  0  0  0
  150.8977  144.8675  160.1210 C   0  0  1  0  0  0  0  0  0  0  0  0
  149.5045  144.1933  160.1718 C   0  0  0  0  0  0  0  0  0  0  0  0
  148.4964  144.9492  160.9174 N   0  0  0  0  0  0  0  0  0  0  0  0
  148.9817  145.8508  161.9609 C   0  0  0  0  0  0  0  0  0  0  0  0
  147.1801  144.5771  160.9265 C   0  0  0  0  0  0  0  0  0  0  0  0
  146.8591  143.3808  161.4921 N   0  0  0  0  0  0  0  0  0  0  0  0
  145.6018  142.9326  161.4970 C   0  0  0  0  0  0  0  0  0  0  0  0
  144.5117  143.5090  160.9940 N   0  0  0  0  0  0  0  0  0  0  0  0
  144.8079  144.7160  160.4371 C   0  0  0  0  0  0  0  0  0  0  0  0
  146.0958  145.3274  160.3672 C   0  0  0  0  0  0  0  0  0  0  0  0
  145.9740  146.5611  159.7340 N   0  0  0  0  0  0  0  0  0  0  0  0
  144.7115  146.6590  159.4265 C   0  0  0  0  0  0  0  0  0  0  0  0
  143.9388  145.5900  159.8081 N   0  0  0  0  0  0  0  0  0  0  0  0
  142.5133  145.4332  159.5808 C   0  0  0  0  0  0  0  0  0  0  0  0
  141.7059  145.4821  160.8928 C   0  0  1  0  0  0  0  0  0  0  0  0
  142.3563  146.3441  161.8067 O   0  0  0  0  0  0  0  0  0  0  0  0
  140.2675  145.9852  160.6752 C   0  0  2  0  0  0  0  0  0  0  0  0
  140.1443  147.5002  160.5001 C   0  0  0  0  0  0  0  0  0  0  0  0
  138.7259  147.8032  160.9574 C   0  0  0  0  0  0  0  0  0  0  0  0
  138.2948  146.5359  161.7000 C   0  0  0  0  0  0  0  0  0  0  0  0
  139.4805  145.7657  161.8358 O   0  0  0  0  0  0  0  0  0  0  0  0
  151.7665  144.6437  161.3690 C   0  0  0  0  0  0  0  0  0  0  0  0
  152.9582  140.6602  161.1420 H   0  0  0  0  0  0  0  0  0  0  0  0
  154.0443  140.7392  162.5304 H   0  0  0  0  0  0  0  0  0  0  0  0
  154.5291  141.4661  161.0007 H   0  0  0  0  0  0  0  0  0  0  0  0
  153.4193  142.8447  159.3184 H   0  0  0  0  0  0  0  0  0  0  0  0
  151.8274  142.1296  159.5970 H   0  0  0  0  0  0  0  0  0  0  0  0
  152.5178  144.9318  158.7060 H   0  0  0  0  0  0  0  0  0  0  0  0
  151.1840  143.9322  158.1468 H   0  0  0  0  0  0  0  0  0  0  0  0
  150.7700  145.9338  159.9299 H   0  0  0  0  0  0  0  0  0  0  0  0
  149.1369  144.1051  159.1489 H   0  0  0  0  0  0  0  0  0  0  0  0
  149.5817  143.1637  160.5030 H   0  0  0  0  0  0  0  0  0  0  0  0
  148.3895  146.7662  161.9895 H   0  0  0  0  0  0  0  0  0  0  0  0
  150.0187  146.1360  161.7822 H   0  0  0  0  0  0  0  0  0  0  0  0
  148.9313  145.3711  162.9390 H   0  0  0  0  0  0  0  0  0  0  0  0
  145.4494  141.9712  161.9651 H   0  0  0  0  0  0  0  0  0  0  0  0
  144.3092  147.5150  158.9041 H   0  0  0  0  0  0  0  0  0  0  0  0
  142.1763  146.2067  158.8892 H   0  0  0  0  0  0  0  0  0  0  0  0
  142.3580  144.4784  159.0772 H   0  0  0  0  0  0  0  0  0  0  0  0
  141.6748  144.4847  161.3337 H   0  0  0  0  0  0  0  0  0  0  0  0
  142.1644  146.0501  162.6841 H   0  0  0  0  0  0  0  0  0  0  0  0
  139.8039  145.4719  159.8300 H   0  0  0  0  0  0  0  0  0  0  0  0
  140.8536  148.0139  161.1505 H   0  0  0  0  0  0  0  0  0  0  0  0
  140.3361  147.8210  159.4758 H   0  0  0  0  0  0  0  0  0  0  0  0
  138.7063  148.6786  161.6073 H   0  0  0  0  0  0  0  0  0  0  0  0
  138.0648  147.9972  160.1121 H   0  0  0  0  0  0  0  0  0  0  0  0
  137.8522  146.7497  162.6730 H   0  0  0  0  0  0  0  0  0  0  0  0
  137.5681  145.9746  161.1108 H   0  0  0  0  0  0  0  0  0  0  0  0
  151.1948  144.6606  162.2935 H   0  0  0  0  0  0  0  0  0  0  0  0
  152.5135  145.4350  161.4469 H   0  0  0  0  0  0  0  0  0  0  0  0
  1  2  1  0  0  0  0
  1 29  1  0  0  0  0
  1 30  1  0  0  0  0
  1 31  1  0  0  0  0
  2  3  2  0  0  0  0
  2  4  1  0  0  0  0
  4 28  1  0  0  0  0
  4  5  1  0  0  0  0
  5  6  1  0  0  0  0
  5 32  1  0  0  0  0
  5 33  1  0  0  0  0
  6  7  1  0  0  0  0
  6 34  1  0  0  0  0
  6 35  1  0  0  0  0
  7  8  1  0  0  0  0
  7 28  1  0  0  0  0
  7 36  1  0  0  0  0
  8  9  1  0  0  0  0
  8 37  1  0  0  0  0
  8 38  1  0  0  0  0
  9 10  1  0  0  0  0
  9 11  1  0  0  0  0
 10 39  1  0  0  0  0
 10 40  1  0  0  0  0
 10 41  1  0  0  0  0
 11 16  1  0  0  0  0
 11 12  2  0  0  0  0
 12 13  1  0  0  0  0
 13 14  2  0  0  0  0
 13 42  1  0  0  0  0
 14 15  1  0  0  0  0
 15 19  1  0  0  0  0
 15 16  2  0  0  0  0
 16 17  1  0  0  0  0
 17 18  2  0  0  0  0
 18 19  1  0  0  0  0
 18 43  1  0  0  0  0
 19 20  1  0  0  0  0
 20 21  1  0  0  0  0
 20 44  1  0  0  0  0
 20 45  1  0  0  0  0
 21 22  1  0  0  0  0
 21 23  1  0  0  0  0
 21 46  1  0  0  0  0
 22 47  1  0  0  0  0
 23 27  1  0  0  0  0
 23 24  1  0  0  0  0
 23 48  1  0  0  0  0
 24 25  1  0  0  0  0
 24 49  1  0  0  0  0
 24 50  1  0  0  0  0
 25 26  1  0  0  0  0
 25 51  1  0  0  0  0
 25 52  1  0  0  0  0
 26 27  1  0  0  0  0
 26 53  1  0  0  0  0
 26 54  1  0  0  0  0
 28 55  1  0  0  0  0
 28 56  1  0  0  0  0
M  END
> <s_m_source_file>
AV-unprocessed.smi

> <i_m_source_file_index>
83

> <i_lp_mmshare_version>
43012

> <i_f3d_flags>
0

> <s_epik_input>
W0NIM11DKD1PKU4xW0NIMl1bQ0gyXVtDQEhdKFtDSDJdMSlbQ0gyXU4oW0NIM10pYyhuW2NIXW4yKWMoYzIzKW5bY0hdbjNbQ0gyXVtDQEhdKFtPSF0pW0NAQEhdNFtDSDJdW0NIMl1bQ0gyXU80

> <s_epik_cmdline>
J2VwaWtfcHl0aG9uJywgJy1waCcsICc3LjAnLCAnLXRuJywgJzgnLCAnLW1hJywgJzIwMCcsICctbWV0YWxfYmluZGluZycsICctaW1hZScsICc8aW5maWxlLm1hZT4nLCAnLW9tYWUnLCAnPG91dGZpbGUubWFlPic=

> <r_lp_tautomer_probability>
1

> <r_epik_Ionization_Penalty>
0.00109752

> <r_epik_Ionization_Penalty_Charging>
0

> <r_epik_Ionization_Penalty_Neutral>
0.00109752

> <r_epik_State_Penalty>
0.000634803

> <r_epik_Charging_Adjusted_Penalty>
0.000634803

> <i_epik_Tot_Q>
0

> <i_epik_Tot_abs_Q>
0

> <r_epik_Metal_State_Penalty>
-0

> <b_epik_Metal_Only>
0

> <s_lp_Force_Field>
OPLS_2005

> <r_lp_Energy>
53.2546

> <b_lp_Chiralities_Consistent>
1

> <s_lp_Variant>
AV-unprocessed.smi:83-3

> <Gold.Version>
5.8.1

> <Gold.Id.Protein>
6NUR|6NUR_protein|mol2

> <Gold.PLP.Fitness>
52.0093

> <Gold.PLP.PLP>
-53.2321

> <Gold.PLP.part.hbond>
-3.5234

> <Gold.PLP.part.metal>
0.0000

> <Gold.PLP.part.buried>
-4.7111

> <Gold.PLP.part.nonpolar>
-45.2865

> <Gold.PLP.part.repulsive>
0.3058

> <Gold.PLP.ligand.clash>
0.0000

> <Gold.PLP.ligand.torsion>
2.3312

> <Gold.PLP.Chemscore.Hbond>
1.0000

> <Gold.PLP.Chemscore.CHOScore>
0.0000

> <Gold.PLP.Chemscore.Metal>
0.0000

> <Gold.Chemscore.Hbonds>
donor molecule, donor type, donor heavy atom, donor atom, acceptor molecule, acceptor atom, score
      P1  H  6933  6944       L1    12  1.00

> <Gold.PLP.Chemscore.Internal.Correction>
0.4395

> <Gold.Rescore>
     Score         DG    S(hbond)    S(metal)    S(lipo)     H(rot)  DE(clash)    DE(int)     intcor
      6.86     -13.79       0.71        0.00     108.05       2.62       4.84       2.09       ----

> <Gold.Chemscore.Fitness>
6.8610

> <Gold.Chemscore.DG>
-13.7938

> <Gold.Chemscore.ZeroCoef>
-5.4800

> <Gold.Chemscore.Hbond>
0.7086

> <Gold.Chemscore.Metal>
0.0000

> <Gold.Chemscore.Lipo>
108.0498

> <Gold.Chemscore.Internal_Hbond>
0.0000

> <Gold.Chemscore.DEClash>
4.8449

> <Gold.Chemscore.DEInternal>
2.0879

> <Gold.Chemscore.Rot>
2.6152

> <Gold.Chemscore.Internal.Correction>
   9.000000E+99

> <Gold.Chemscore.Hbonds>
donor molecule, donor type, donor heavy atom, donor atom, acceptor molecule, acceptor atom, score
      P1  H  6933  6944       L1    12  0.53

> <Gold.Chemscore.Hbond.Weighted>
-2.3668

> <Gold.Chemscore.Metal.Weighted>
-0.0000

> <Gold.Chemscore.Lipo.Weighted>
-12.6418

> <Gold.Chemscore.Internal_Hbond.Weighted>
0.0000

> <Gold.Chemscore.DEClash.Weighted>
4.8449

> <Gold.Chemscore.DEInternal.Weighted>
2.0879

> <Gold.Chemscore.Rot.Weighted>
6.6949

> <Gold.Chemscore.Internal.Correction.Weighted>
   9.000000E+99

> <Gold.Protein.RotatedTorsions>
[ 6907 6896 6895 6894 ] final  -97.71 input  -60.11 | X-H torsion
[ 7974 7965 7964 7962 ] final -152.90 input  175.53 | X-H torsion
[ 8008 7997 7996 7995 ] final  114.13 input   59.86 | X-H torsion
[ 10167 10162 10161 10158 ] final  -45.36 input  -65.29 | X-H torsion
[ 10718 10713 10712 10709 ] final   35.88 input   66.30 | X-H torsion
[ 10763 10752 10751 10750 ] final -140.06 input  -60.55 | X-H torsion
[ 11005 11000 10999 10996 ] final -155.94 input  -57.11 | X-H torsion

> <Gold.Protein.ActiveResidues>
 VAL166  LYS551  ARG553  GLY616  TRP617  ASP618  TYR619  PRO620  LYS621  CYS622 
 ASP623  PHE694  ASN695  SER759  ASP760  ASP761  ALA762  ILE779  LEU786  VAL792 
 PHE793  MET794  SER795  GLU796  ALA797  LYS798  CYS799  TRP800  GLU811  SER814 

> <Gold.Protein.RotatedAtoms>
  150.7024  134.1306  159.4067 H   0  0  0  0  0  0  0  0  0  0  0  0  # atno 6907 bound_to 6896
  151.9292  135.0262  160.0537 H   0  0  0  0  0  0  0  0  0  0  0  0  # atno 6908 bound_to 6896
  152.2190  133.4934  159.5189 H   0  0  0  0  0  0  0  0  0  0  0  0  # atno 6909 bound_to 6896
  144.7769  140.4599  143.5867 H   0  0  0  0  0  0  0  0  0  0  0  0  # atno 7974 bound_to 7965
  156.2302  140.2965  156.0168 H   0  0  0  0  0  0  0  0  0  0  0  0  # atno 8008 bound_to 7997
  155.2247  140.0417  157.2970 H   0  0  0  0  0  0  0  0  0  0  0  0  # atno 8009 bound_to 7997
  154.5982  140.2420  155.7835 H   0  0  0  0  0  0  0  0  0  0  0  0  # atno 8010 bound_to 7997
  140.6861  143.2883  151.3628 H   0  0  0  0  0  0  0  0  0  0  0  0  # atno 10167 bound_to 10162
  157.3281  130.7483  149.6829 H   0  0  0  0  0  0  0  0  0  0  0  0  # atno 10718 bound_to 10713
  154.8590  135.3564  154.5646 H   0  0  0  0  0  0  0  0  0  0  0  0  # atno 10763 bound_to 10752
  153.6260  135.7004  153.5297 H   0  0  0  0  0  0  0  0  0  0  0  0  # atno 10764 bound_to 10752
  153.3089  135.4184  155.1278 H   0  0  0  0  0  0  0  0  0  0  0  0  # atno 10765 bound_to 10752
  140.6810  134.4145  157.5226 H   0  0  0  0  0  0  0  0  0  0  0  0  # atno 11005 bound_to 11000
  145.6160  139.1518  143.3049 LP  0  0  0  0  0  0  0  0  0  0  0  0  # atno 17320 bound_to 7965
  146.1954  140.6273  142.9126 LP  0  0  0  0  0  0  0  0  0  0  0  0  # atno 17321 bound_to 7965
  139.6221  144.0887  152.2400 LP  0  0  0  0  0  0  0  0  0  0  0  0  # atno 17342 bound_to 10162
  140.0334  144.6063  150.7469 LP  0  0  0  0  0  0  0  0  0  0  0  0  # atno 17343 bound_to 10162
  155.9693  130.4203  150.4417 LP  0  0  0  0  0  0  0  0  0  0  0  0  # atno 17370 bound_to 10713
  157.2444  131.0532  151.2417 LP  0  0  0  0  0  0  0  0  0  0  0  0  # atno 17371 bound_to 10713
  139.8952  134.8689  156.2143 LP  0  0  0  0  0  0  0  0  0  0  0  0  # atno 17394 bound_to 11000
  141.0318  133.6985  156.1443 LP  0  0  0  0  0  0  0  0  0  0  0  0  # atno 17395 bound_to 11000

$$$$
