AV-unprocessed.smi:50|AV-procd|sdf|497|dock2
  -GOLD-   2262016363D 1   1.00000     0.00000
 Structure written by MMmdl.
 42 43  0  0  0  0  0  0  0  0  2 V2000
  145.2181  131.0439  151.5934 C   0  0  0  0  0  0  0  0  0  0  0  0
  145.0720  132.4215  150.9236 C   0  0  0  0  0  0  0  0  0  0  0  0
  144.8184  132.2571  149.4121 C   0  0  0  0  0  0  0  0  0  0  0  0
  146.2492  133.3699  151.2854 C   0  0  2  0  0  0  0  0  0  0  0  0
  147.5294  132.6649  151.2039 N   0  0  0  0  0  0  0  0  0  0  0  0
  146.0677  134.1247  152.6168 C   0  0  0  0  0  0  0  0  0  0  0  0
  146.0681  133.5694  153.7157 O   0  0  0  0  0  0  0  0  0  0  0  0
  145.9271  135.4496  152.4198 O   0  0  0  0  0  0  0  0  0  0  0  0
  145.7766  136.3144  153.5331 C   0  0  0  0  0  0  0  0  0  0  0  0
  145.7471  137.7654  153.0473 C   0  0  0  0  0  0  0  0  0  0  0  0
  147.0326  138.3328  153.2338 O   0  0  0  0  0  0  0  0  0  0  0  0
  147.2049  138.8725  154.5012 C   0  0  0  0  0  0  0  0  0  0  0  0
  148.6066  139.2081  154.6519 N   0  0  0  0  0  0  0  0  0  0  0  0
  149.1520  140.4398  154.6622 C   0  0  0  0  0  0  0  0  0  0  0  0
  150.4750  140.4770  154.8169 N   0  0  0  0  0  0  0  0  0  0  0  0
  150.7944  139.1269  154.9121 C   0  0  0  0  0  0  0  0  0  0  0  0
  152.0904  138.4294  155.0934 C   0  0  0  0  0  0  0  0  0  0  0  0
  153.1208  139.0945  155.1834 O   0  0  0  0  0  0  0  0  0  0  0  0
  152.0212  137.0642  155.1462 N   0  5  0  0  0  0  0  0  0  0  0  0
  150.7865  136.4106  155.0266 C   0  0  0  0  0  0  0  0  0  0  0  0
  150.8997  135.0393  155.0969 N   0  0  0  0  0  0  0  0  0  0  0  0
  149.6076  136.9600  154.8638 N   0  0  0  0  0  0  0  0  0  0  0  0
  149.6789  138.3398  154.8149 C   0  0  0  0  0  0  0  0  0  0  0  0
  146.2807  134.1276  150.5017 H   0  0  0  0  0  0  0  0  0  0  0  0
  146.0732  130.4927  151.2009 H   0  0  0  0  0  0  0  0  0  0  0  0
  144.3301  130.4334  151.4284 H   0  0  0  0  0  0  0  0  0  0  0  0
  145.3515  131.1421  152.6709 H   0  0  0  0  0  0  0  0  0  0  0  0
  144.1699  132.8681  151.3452 H   0  0  0  0  0  0  0  0  0  0  0  0
  145.6249  131.7130  148.9208 H   0  0  0  0  0  0  0  0  0  0  0  0
  144.7138  133.2226  148.9169 H   0  0  0  0  0  0  0  0  0  0  0  0
  143.8981  131.7005  149.2334 H   0  0  0  0  0  0  0  0  0  0  0  0
  147.4894  131.8967  150.5496 H   0  0  0  0  0  0  0  0  0  0  0  0
  148.2677  133.2749  150.8830 H   0  0  0  0  0  0  0  0  0  0  0  0
  144.8535  136.0799  154.0650 H   0  0  0  0  0  0  0  0  0  0  0  0
  146.6050  136.1676  154.2275 H   0  0  0  0  0  0  0  0  0  0  0  0
  145.4713  137.8016  151.9921 H   0  0  0  0  0  0  0  0  0  0  0  0
  144.9995  138.3304  153.6064 H   0  0  0  0  0  0  0  0  0  0  0  0
  146.6104  139.7798  154.6209 H   0  0  0  0  0  0  0  0  0  0  0  0
  146.9289  138.1509  155.2719 H   0  0  0  0  0  0  0  0  0  0  0  0
  148.5604  141.3366  154.5526 H   0  0  0  0  0  0  0  0  0  0  0  0
  151.7780  134.5581  155.2211 H   0  0  0  0  0  0  0  0  0  0  0  0
  150.1075  134.4173  155.0299 H   0  0  0  0  0  0  0  0  0  0  0  0
  1  2  1  0  0  0  0
  1 25  1  0  0  0  0
  1 26  1  0  0  0  0
  1 27  1  0  0  0  0
  2  3  1  0  0  0  0
  2  4  1  0  0  0  0
  2 28  1  0  0  0  0
  3 29  1  0  0  0  0
  3 30  1  0  0  0  0
  3 31  1  0  0  0  0
  4 24  1  0  0  0  0
  4  5  1  0  0  0  0
  4  6  1  0  0  0  0
  5 32  1  0  0  0  0
  5 33  1  0  0  0  0
  6  7  2  0  0  0  0
  6  8  1  0  0  0  0
  8  9  1  0  0  0  0
  9 10  1  0  0  0  0
  9 34  1  0  0  0  0
  9 35  1  0  0  0  0
 10 11  1  0  0  0  0
 10 36  1  0  0  0  0
 10 37  1  0  0  0  0
 11 12  1  0  0  0  0
 12 13  1  0  0  0  0
 12 38  1  0  0  0  0
 12 39  1  0  0  0  0
 13 23  1  0  0  0  0
 13 14  1  0  0  0  0
 14 15  2  0  0  0  0
 14 40  1  0  0  0  0
 15 16  1  0  0  0  0
 16 23  2  0  0  0  0
 16 17  1  0  0  0  0
 17 18  2  0  0  0  0
 17 19  1  0  0  0  0
 19 20  1  0  0  0  0
 20 21  1  0  0  0  0
 20 22  2  0  0  0  0
 21 41  1  0  0  0  0
 21 42  1  0  0  0  0
 22 23  1  0  0  0  0
M  CHG  1  19  -1
M  END
> <s_m_source_file>
AV-unprocessed.smi

> <i_m_source_file_index>
50

> <i_lp_mmshare_version>
43012

> <i_f3d_flags>
0

> <s_epik_input>
W0NIM11bQ0hdKFtDSDNdKVtDQEhdKFtOSDJdKUMoPU8pT1tDSDJdW0NIMl1PW0NIMl1uKFtjSF1uMSljKGMxMiluYyhbTkgyXSlbbkhdYzI9Tw==

> <s_epik_cmdline>
J2VwaWtfcHl0aG9uJywgJy1waCcsICc3LjAnLCAnLXRuJywgJzgnLCAnLW1hJywgJzIwMCcsICctbWV0YWxfYmluZGluZycsICctaW1hZScsICc8aW5maWxlLm1hZT4nLCAnLW9tYWUnLCAnPG91dGZpbGUubWFlPic=

> <r_lp_tautomer_probability>
0.99994

> <r_epik_Ionization_Penalty>
4.26118

> <r_epik_Ionization_Penalty_Charging>
1.23364e-10

> <r_epik_Ionization_Penalty_Neutral>
4.26118

> <r_epik_State_Penalty>
4.27372

> <r_epik_Charging_Adjusted_Penalty>
4.27372

> <i_epik_Tot_Q>
-1

> <i_epik_Tot_abs_Q>
1

> <r_epik_Metal_State_Penalty>
1.24306

> <b_epik_Metal_Only>
1

> <s_epik_Chemistry_Notes>
This compound has an ester and may undergo hydrolysis at high or low pH. This compound contains an acetal/aminal-like group ( X-CH(R)-Y where X, Y are N, S, or O) that may be acid/base labile, releasing an aldehyde.

> <s_lp_Force_Field>
OPLS_2005

> <r_lp_Energy>
24.4723

> <b_lp_Chiralities_Consistent>
1

> <s_lp_Variant>
AV-unprocessed.smi:50-7

> <Gold.Version>
5.8.1

> <Gold.Id.Protein>
6NUR|6NUR_protein|mol2

> <Gold.PLP.Fitness>
45.5474

> <Gold.PLP.PLP>
-34.6142

> <Gold.PLP.part.hbond>
-3.9369

> <Gold.PLP.part.metal>
0.0000

> <Gold.PLP.part.buried>
-7.4408

> <Gold.PLP.part.nonpolar>
-26.0048

> <Gold.PLP.part.repulsive>
2.1220

> <Gold.PLP.ligand.clash>
0.0000

> <Gold.PLP.ligand.torsion>
1.1613

> <Gold.PLP.Chemscore.Hbond>
4.3200

> <Gold.PLP.Chemscore.CHOScore>
0.0000

> <Gold.PLP.Chemscore.Metal>
0.0000

> <Gold.Chemscore.Hbonds>
donor molecule, donor type, donor heavy atom, donor atom, acceptor molecule, acceptor atom, score
      L1  H     5    32       P1 10747  0.40
      P1  H  7989  7998       L1    15  0.85
      P1  H  7997  8008       L1    18  1.00
      P1  H 10752 10765       L1    19  1.23

> <Gold.PLP.Chemscore.Internal.Correction>
0.2959

> <Gold.Rescore>
     Score         DG    S(hbond)    S(metal)    S(lipo)     H(rot)  DE(clash)    DE(int)     intcor
      6.61      -9.17       2.87        0.00      53.04       4.72       1.21       1.35       ----

> <Gold.Chemscore.Fitness>
6.6138

> <Gold.Chemscore.DG>
-9.1724

> <Gold.Chemscore.ZeroCoef>
-5.4800

> <Gold.Chemscore.Hbond>
2.8681

> <Gold.Chemscore.Metal>
0.0000

> <Gold.Chemscore.Lipo>
53.0448

> <Gold.Chemscore.Internal_Hbond>
0.0000

> <Gold.Chemscore.DEClash>
1.2051

> <Gold.Chemscore.DEInternal>
1.3536

> <Gold.Chemscore.Rot>
4.7239

> <Gold.Chemscore.Internal.Correction>
   9.000000E+99

> <Gold.Chemscore.Hbonds>
donor molecule, donor type, donor heavy atom, donor atom, acceptor molecule, acceptor atom, score
      L1  H     5    32       P1 10747  0.40
      P1  H  7989  7998       L1    15  0.14
      P1  H  7997  8008       L1    18  1.00
      P1  H 10752 10765       L1    19  0.05

> <Gold.Chemscore.Hbond.Weighted>
-9.5795

> <Gold.Chemscore.Metal.Weighted>
-0.0000

> <Gold.Chemscore.Lipo.Weighted>
-6.2062

> <Gold.Chemscore.Internal_Hbond.Weighted>
0.0000

> <Gold.Chemscore.DEClash.Weighted>
1.2051

> <Gold.Chemscore.DEInternal.Weighted>
1.3536

> <Gold.Chemscore.Rot.Weighted>
12.0933

> <Gold.Chemscore.Internal.Correction.Weighted>
   9.000000E+99

> <Gold.Protein.RotatedTorsions>
[ 6907 6896 6895 6894 ] final  125.31 input  -60.11 | X-H torsion
[ 7974 7965 7964 7962 ] final  161.09 input  175.53 | X-H torsion
[ 8008 7997 7996 7995 ] final  -20.37 input   59.86 | X-H torsion
[ 10167 10162 10161 10158 ] final -152.43 input  -65.29 | X-H torsion
[ 10718 10713 10712 10709 ] final   88.24 input   66.30 | X-H torsion
[ 10763 10752 10751 10750 ] final  175.33 input  -60.55 | X-H torsion
[ 11005 11000 10999 10996 ] final   65.96 input  -57.11 | X-H torsion

> <Gold.Protein.ActiveResidues>
 VAL166  LYS551  ARG553  GLY616  TRP617  ASP618  TYR619  PRO620  LYS621  CYS622 
 ASP623  PHE694  ASN695  SER759  ASP760  ASP761  ALA762  ILE779  LEU786  VAL792 
 PHE793  MET794  SER795  GLU796  ALA797  LYS798  CYS799  TRP800  GLU811  SER814 

> <Gold.Protein.RotatedAtoms>
  152.4003  133.6807  159.6310 H   0  0  0  0  0  0  0  0  0  0  0  0  # atno 6907 bound_to 6896
  150.7895  133.8803  159.3292 H   0  0  0  0  0  0  0  0  0  0  0  0  # atno 6908 bound_to 6896
  151.6570  135.0996  160.0223 H   0  0  0  0  0  0  0  0  0  0  0  0  # atno 6909 bound_to 6896
  144.7703  139.7849  143.6299 H   0  0  0  0  0  0  0  0  0  0  0  0  # atno 7974 bound_to 7965
  154.4774  140.2063  155.9845 H   0  0  0  0  0  0  0  0  0  0  0  0  # atno 8008 bound_to 7997
  156.1111  140.3229  155.8044 H   0  0  0  0  0  0  0  0  0  0  0  0  # atno 8009 bound_to 7997
  155.4633  140.0525  157.2979 H   0  0  0  0  0  0  0  0  0  0  0  0  # atno 8010 bound_to 7997
  139.7182  143.8999  152.2494 H   0  0  0  0  0  0  0  0  0  0  0  0  # atno 10167 bound_to 10162
  157.6947  131.0287  150.3244 H   0  0  0  0  0  0  0  0  0  0  0  0  # atno 10718 bound_to 10713
  154.4662  135.2769  155.1677 H   0  0  0  0  0  0  0  0  0  0  0  0  # atno 10763 bound_to 10752
  154.3444  135.6163  153.5616 H   0  0  0  0  0  0  0  0  0  0  0  0  # atno 10764 bound_to 10752
  152.9859  135.5796  154.5034 H   0  0  0  0  0  0  0  0  0  0  0  0  # atno 10765 bound_to 10752
  139.9861  134.6665  156.0173 H   0  0  0  0  0  0  0  0  0  0  0  0  # atno 11005 bound_to 11000
  146.1844  139.5052  142.9845 LP  0  0  0  0  0  0  0  0  0  0  0  0  # atno 17320 bound_to 7965
  145.6344  141.0297  143.1846 LP  0  0  0  0  0  0  0  0  0  0  0  0  # atno 17321 bound_to 7965
  139.8887  144.6977  150.8794 LP  0  0  0  0  0  0  0  0  0  0  0  0  # atno 17342 bound_to 10162
  140.7748  143.3603  151.1841 LP  0  0  0  0  0  0  0  0  0  0  0  0  # atno 17343 bound_to 10162
  156.3727  130.3866  149.7163 LP  0  0  0  0  0  0  0  0  0  0  0  0  # atno 17370 bound_to 10713
  156.4572  130.7935  151.2955 LP  0  0  0  0  0  0  0  0  0  0  0  0  # atno 17371 bound_to 10713
  141.1526  133.6546  156.4060 LP  0  0  0  0  0  0  0  0  0  0  0  0  # atno 17394 bound_to 11000
  140.4999  134.6495  157.5244 LP  0  0  0  0  0  0  0  0  0  0  0  0  # atno 17395 bound_to 11000

$$$$
