AV-unprocessed.smi:2356|AV-procd|sdf|9396|dock6
  -GOLD-   2272013 33D 1   1.00000     0.00000
 Structure written by MMmdl.
 53 56  0  0  0  0  0  0  0  0  1 V2000
  152.6662  138.5103  154.8288 C   0  0  0  0  0  0  0  0  0  0  0  0
  152.2626  138.6315  156.2883 C   0  0  0  0  0  0  0  0  0  0  0  0
  152.5919  139.7980  156.8843 N   0  0  0  0  0  0  0  0  0  0  0  0
  152.2643  139.9923  158.1829 C   0  0  0  0  0  0  0  0  0  0  0  0
  152.6237  141.2244  158.7639 N   0  0  0  0  0  0  0  0  0  0  0  0
  153.0056  141.3278  160.1638 C   0  0  0  0  0  0  0  0  0  0  0  0
  153.1712  142.8265  160.4093 C   0  0  0  0  0  0  0  0  0  0  0  0
  152.1360  143.4470  159.4712 C   0  0  0  0  0  0  0  0  0  0  0  0
  152.0908  142.4888  158.2751 C   0  0  0  0  0  0  0  0  0  0  0  0
  151.5725  139.0098  158.9276 C   0  0  0  0  0  0  0  0  0  0  0  0
  151.2288  137.7937  158.3080 C   0  0  0  0  0  0  0  0  0  0  0  0
  151.5865  137.5828  156.9553 C   0  0  0  0  0  0  0  0  0  0  0  0
  151.2835  136.4007  156.2229 N   0  0  0  0  0  0  0  0  0  0  0  0
  150.5150  135.3454  156.5561 C   0  0  0  0  0  0  0  0  0  0  0  0
  149.9152  135.2159  157.6204 O   0  0  0  0  0  0  0  0  0  0  0  0
  150.4489  134.3985  155.6018 N   0  0  0  0  0  0  0  0  0  0  0  0
  149.7112  133.1330  155.6318 C   0  0  1  0  0  0  0  0  0  0  0  0
  148.3063  133.3631  156.2046 C   0  0  0  0  0  0  0  0  0  0  0  0
  147.4801  132.0686  156.1499 C   0  0  0  0  0  0  0  0  0  0  0  0
  147.4162  131.5736  154.8140 O   0  0  0  0  0  0  0  0  0  0  0  0
  148.6774  131.2827  154.2088 C   0  0  2  0  0  0  0  0  0  0  0  0
  149.3348  130.0551  154.8258 C   0  0  0  0  0  0  0  0  0  0  0  0
  150.7707  129.7064  154.5104 C   0  0  0  0  0  0  0  0  0  0  0  0
  149.6498  128.8467  153.9763 C   0  0  0  0  0  0  0  0  0  0  0  0
  149.5820  132.5302  154.2204 C   0  0  0  0  0  0  0  0  0  0  0  0
  151.7840  138.3650  154.2049 H   0  0  0  0  0  0  0  0  0  0  0  0
  153.3323  137.6591  154.6868 H   0  0  0  0  0  0  0  0  0  0  0  0
  153.1827  139.4049  154.4783 H   0  0  0  0  0  0  0  0  0  0  0  0
  152.2099  140.9208  160.7893 H   0  0  0  0  0  0  0  0  0  0  0  0
  153.9253  140.7805  160.3731 H   0  0  0  0  0  0  0  0  0  0  0  0
  153.0245  143.1045  161.4533 H   0  0  0  0  0  0  0  0  0  0  0  0
  154.1729  143.1410  160.1129 H   0  0  0  0  0  0  0  0  0  0  0  0
  151.1627  143.4610  159.9635 H   0  0  0  0  0  0  0  0  0  0  0  0
  152.3803  144.4701  159.1843 H   0  0  0  0  0  0  0  0  0  0  0  0
  152.7269  142.8498  157.4663 H   0  0  0  0  0  0  0  0  0  0  0  0
  151.0734  142.3898  157.8948 H   0  0  0  0  0  0  0  0  0  0  0  0
  151.2924  139.1738  159.9575 H   0  0  0  0  0  0  0  0  0  0  0  0
  150.6883  137.0612  158.8853 H   0  0  0  0  0  0  0  0  0  0  0  0
  151.7415  136.3309  155.3260 H   0  0  0  0  0  0  0  0  0  0  0  0
  150.9521  134.5899  154.7474 H   0  0  0  0  0  0  0  0  0  0  0  0
  150.2288  132.4309  156.2874 H   0  0  0  0  0  0  0  0  0  0  0  0
  148.3695  133.7207  157.2331 H   0  0  0  0  0  0  0  0  0  0  0  0
  147.7943  134.1399  155.6346 H   0  0  0  0  0  0  0  0  0  0  0  0
  147.8927  131.3144  156.8203 H   0  0  0  0  0  0  0  0  0  0  0  0
  146.4642  132.2631  156.4938 H   0  0  0  0  0  0  0  0  0  0  0  0
  148.4628  131.0416  153.1670 H   0  0  0  0  0  0  0  0  0  0  0  0
  149.0214  129.8402  155.8448 H   0  0  0  0  0  0  0  0  0  0  0  0
  151.3024  130.3388  153.8022 H   0  0  0  0  0  0  0  0  0  0  0  0
  151.3771  129.2967  155.3156 H   0  0  0  0  0  0  0  0  0  0  0  0
  149.5072  127.8667  154.4270 H   0  0  0  0  0  0  0  0  0  0  0  0
  149.4353  128.9060  152.9110 H   0  0  0  0  0  0  0  0  0  0  0  0
  149.1540  133.2779  153.5511 H   0  0  0  0  0  0  0  0  0  0  0  0
  150.5612  132.2810  153.8101 H   0  0  0  0  0  0  0  0  0  0  0  0
  1  2  1  0  0  0  0
  1 26  1  0  0  0  0
  1 27  1  0  0  0  0
  1 28  1  0  0  0  0
  2 12  1  0  0  0  0
  2  3  2  0  0  0  0
  3  4  1  0  0  0  0
  4  5  1  0  0  0  0
  4 10  2  0  0  0  0
  5  9  1  0  0  0  0
  5  6  1  0  0  0  0
  6  7  1  0  0  0  0
  6 29  1  0  0  0  0
  6 30  1  0  0  0  0
  7  8  1  0  0  0  0
  7 31  1  0  0  0  0
  7 32  1  0  0  0  0
  8  9  1  0  0  0  0
  8 33  1  0  0  0  0
  8 34  1  0  0  0  0
  9 35  1  0  0  0  0
  9 36  1  0  0  0  0
 10 11  1  0  0  0  0
 10 37  1  0  0  0  0
 11 12  2  0  0  0  0
 11 38  1  0  0  0  0
 12 13  1  0  0  0  0
 13 14  1  0  0  0  0
 13 39  1  0  0  0  0
 14 15  2  0  0  0  0
 14 16  1  0  0  0  0
 16 17  1  0  0  0  0
 16 40  1  0  0  0  0
 17 25  1  0  0  0  0
 17 18  1  0  0  0  0
 17 41  1  0  0  0  0
 18 19  1  0  0  0  0
 18 42  1  0  0  0  0
 18 43  1  0  0  0  0
 19 20  1  0  0  0  0
 19 44  1  0  0  0  0
 19 45  1  0  0  0  0
 20 21  1  0  0  0  0
 21 22  1  0  0  0  0
 21 25  1  0  0  0  0
 21 46  1  0  0  0  0
 22 24  1  0  0  0  0
 22 23  1  0  0  0  0
 22 47  1  0  0  0  0
 23 24  1  0  0  0  0
 23 48  1  0  0  0  0
 23 49  1  0  0  0  0
 24 50  1  0  0  0  0
 24 51  1  0  0  0  0
 25 52  1  0  0  0  0
 25 53  1  0  0  0  0
M  END
> <s_m_source_file>
AV-unprocessed.smi

> <i_m_source_file_index>
2356

> <i_lp_mmshare_version>
43012

> <i_f3d_flags>
0

> <s_epik_input>
W0NIMl0xW0NIMl1bQ0gyXVtDSDJdTjFjKG5jMltDSDNdKVtjSF1bY0hdYzJbTkhdQyg9TylbTkhdW0NAQEhdM1tDSDJdW0NIMl1PW0NASF0oW0NIMl0zKVtDSF00W0NIMl1bQ0gyXTQ=

> <s_epik_cmdline>
J2VwaWtfcHl0aG9uJywgJy1waCcsICc3LjAnLCAnLXRuJywgJzgnLCAnLW1hJywgJzIwMCcsICctbWV0YWxfYmluZGluZycsICctaW1hZScsICc8aW5maWxlLm1hZT4nLCAnLW9tYWUnLCAnPG91dGZpbGUubWFlPic=

> <r_lp_tautomer_probability>
1

> <r_epik_Ionization_Penalty>
0.308781

> <r_epik_Ionization_Penalty_Charging>
0

> <r_epik_Ionization_Penalty_Neutral>
0.308781

> <r_epik_State_Penalty>
0.302092

> <r_epik_Charging_Adjusted_Penalty>
0.302092

> <i_epik_Tot_Q>
0

> <i_epik_Tot_abs_Q>
0

> <r_epik_Metal_State_Penalty>
0.197467

> <b_epik_Metal_Only>
0

> <s_lp_Force_Field>
OPLS_2005

> <r_lp_Energy>
54.1465

> <b_lp_Chiralities_Consistent>
1

> <s_lp_Variant>
AV-unprocessed.smi:2356-4

> <Gold.Version>
5.8.1

> <Gold.Id.Protein>
6NUR|6NUR_protein|mol2

> <Gold.PLP.Fitness>
43.8817

> <Gold.PLP.PLP>
-41.0410

> <Gold.PLP.part.hbond>
-2.0000

> <Gold.PLP.part.metal>
0.0000

> <Gold.PLP.part.buried>
-6.2694

> <Gold.PLP.part.nonpolar>
-33.6098

> <Gold.PLP.part.repulsive>
0.2411

> <Gold.PLP.ligand.clash>
0.0000

> <Gold.PLP.ligand.torsion>
1.8886

> <Gold.PLP.Chemscore.Hbond>
1.7840

> <Gold.PLP.Chemscore.CHOScore>
0.0000

> <Gold.PLP.Chemscore.Metal>
0.0000

> <Gold.Chemscore.Hbonds>
donor molecule, donor type, donor heavy atom, donor atom, acceptor molecule, acceptor atom, score
      P1  H  6896  6909       L1    15  0.61
      P1  H  7997  8008       L1     3  1.00

> <Gold.PLP.Chemscore.Internal.Correction>
1.2659

> <Gold.Rescore>
     Score         DG    S(hbond)    S(metal)    S(lipo)     H(rot)  DE(clash)    DE(int)     intcor
     17.14     -19.97       1.65        0.00     101.84       1.14       0.00       2.84       ----

> <Gold.Chemscore.Fitness>
17.1368

> <Gold.Chemscore.DG>
-19.9739

> <Gold.Chemscore.ZeroCoef>
-5.4800

> <Gold.Chemscore.Hbond>
1.6453

> <Gold.Chemscore.Metal>
0.0000

> <Gold.Chemscore.Lipo>
101.8440

> <Gold.Chemscore.Internal_Hbond>
0.0000

> <Gold.Chemscore.DEClash>
0.0004

> <Gold.Chemscore.DEInternal>
2.8367

> <Gold.Chemscore.Rot>
1.1395

> <Gold.Chemscore.Internal.Correction>
   9.000000E+99

> <Gold.Chemscore.Hbonds>
donor molecule, donor type, donor heavy atom, donor atom, acceptor molecule, acceptor atom, score
      P1  H  6896  6909       L1    15  0.60
      P1  H  7997  8008       L1     3  0.53

> <Gold.Chemscore.Hbond.Weighted>
-5.4953

> <Gold.Chemscore.Metal.Weighted>
-0.0000

> <Gold.Chemscore.Lipo.Weighted>
-11.9157

> <Gold.Chemscore.Internal_Hbond.Weighted>
0.0000

> <Gold.Chemscore.DEClash.Weighted>
0.0004

> <Gold.Chemscore.DEInternal.Weighted>
2.8367

> <Gold.Chemscore.Rot.Weighted>
2.9171

> <Gold.Chemscore.Internal.Correction.Weighted>
   9.000000E+99

> <Gold.Protein.RotatedTorsions>
[ 6907 6896 6895 6894 ] final   31.62 input  -60.11 | X-H torsion
[ 7974 7965 7964 7962 ] final -155.40 input  175.53 | X-H torsion
[ 8008 7997 7996 7995 ] final  -52.99 input   59.86 | X-H torsion
[ 10167 10162 10161 10158 ] final  -76.40 input  -65.29 | X-H torsion
[ 10718 10713 10712 10709 ] final   62.01 input   66.30 | X-H torsion
[ 10763 10752 10751 10750 ] final  -46.69 input  -60.55 | X-H torsion
[ 11005 11000 10999 10996 ] final  153.49 input  -57.11 | X-H torsion

> <Gold.Protein.ActiveResidues>
 VAL166  LYS551  ARG553  GLY616  TRP617  ASP618  TYR619  PRO620  LYS621  CYS622 
 ASP623  PHE694  ASN695  SER759  ASP760  ASP761  ALA762  ILE779  LEU786  VAL792 
 PHE793  MET794  SER795  GLU796  ALA797  LYS798  CYS799  TRP800  GLU811  SER814 

> <Gold.Protein.RotatedAtoms>
  152.0629  134.9583  160.0574 H   0  0  0  0  0  0  0  0  0  0  0  0  # atno 6907 bound_to 6896
  152.0939  133.4210  159.4564 H   0  0  0  0  0  0  0  0  0  0  0  0  # atno 6908 bound_to 6896
  150.6837  134.2759  159.4650 H   0  0  0  0  0  0  0  0  0  0  0  0  # atno 6909 bound_to 6896
  144.7642  140.4255  143.5954 H   0  0  0  0  0  0  0  0  0  0  0  0  # atno 7974 bound_to 7965
  154.4121  140.1210  156.5081 H   0  0  0  0  0  0  0  0  0  0  0  0  # atno 8008 bound_to 7997
  155.6827  140.3496  155.4842 H   0  0  0  0  0  0  0  0  0  0  0  0  # atno 8009 bound_to 7997
  155.9537  140.1110  157.0945 H   0  0  0  0  0  0  0  0  0  0  0  0  # atno 8010 bound_to 7997
  140.4860  143.2391  151.7983 H   0  0  0  0  0  0  0  0  0  0  0  0  # atno 10167 bound_to 10162
  157.5869  130.9026  149.9533 H   0  0  0  0  0  0  0  0  0  0  0  0  # atno 10718 bound_to 10713
  154.0492  135.6633  153.4798 H   0  0  0  0  0  0  0  0  0  0  0  0  # atno 10763 bound_to 10752
  153.0470  135.5108  154.7767 H   0  0  0  0  0  0  0  0  0  0  0  0  # atno 10764 bound_to 10752
  154.6768  135.3038  154.9634 H   0  0  0  0  0  0  0  0  0  0  0  0  # atno 10765 bound_to 10752
  140.1403  134.8744  157.2321 H   0  0  0  0  0  0  0  0  0  0  0  0  # atno 11005 bound_to 11000
  145.6522  139.1567  143.2855 LP  0  0  0  0  0  0  0  0  0  0  0  0  # atno 17320 bound_to 7965
  146.1734  140.6610  142.9222 LP  0  0  0  0  0  0  0  0  0  0  0  0  # atno 17321 bound_to 7965
  139.4842  144.4711  151.9424 LP  0  0  0  0  0  0  0  0  0  0  0  0  # atno 17342 bound_to 10162
  140.3797  144.2752  150.5910 LP  0  0  0  0  0  0  0  0  0  0  0  0  # atno 17343 bound_to 10162
  156.0920  130.3662  150.0378 LP  0  0  0  0  0  0  0  0  0  0  0  0  # atno 17370 bound_to 10713
  156.8507  130.9458  151.3625 LP  0  0  0  0  0  0  0  0  0  0  0  0  # atno 17371 bound_to 10713
  140.2731  134.3437  155.7367 LP  0  0  0  0  0  0  0  0  0  0  0  0  # atno 17394 bound_to 11000
  141.2185  133.7435  156.9252 LP  0  0  0  0  0  0  0  0  0  0  0  0  # atno 17395 bound_to 11000

$$$$
