AV-unprocessed.smi:1040|AV-procd|sdf|4526|dock3
  -GOLD-   22720 2543D 1   1.00000     0.00000
 Structure written by MMmdl.
 55 56  0  0  0  0  0  0  0  0  2 V2000
  148.8295  135.1474  158.4338 C   0  0  0  0  0  0  0  0  0  0  0  0
  147.6156  136.0525  158.6996 C   0  0  2  0  0  0  0  0  0  0  0  0
  147.8048  137.3615  158.0780 N   0  0  0  0  0  0  0  0  0  0  0  0
  148.7847  138.2298  158.3632 C   0  0  0  0  0  0  0  0  0  0  0  0
  149.6374  138.0385  159.2301 O   0  0  0  0  0  0  0  0  0  0  0  0
  148.7192  139.3099  157.5679 N   0  0  0  0  0  0  0  0  0  0  0  0
  149.6326  140.3984  157.4982 C   0  0  0  0  0  0  0  0  0  0  0  0
  150.7951  140.4719  158.3064 C   0  0  0  0  0  0  0  0  0  0  0  0
  151.6486  141.5882  158.1995 C   0  0  0  0  0  0  0  0  0  0  0  0
  151.3234  142.6160  157.2945 C   0  0  0  0  0  0  0  0  0  0  0  0
  150.2011  142.5232  156.5507 N   0  3  0  0  0  0  0  0  0  0  0  0
  149.3481  141.4720  156.6173 C   0  0  0  0  0  0  0  0  0  0  0  0
  148.2071  141.4779  155.7991 N   0  0  0  0  0  0  0  0  0  0  0  0
  147.1642  142.3889  156.2632 C   0  0  0  0  0  0  0  0  0  0  0  0
  145.8630  142.1743  155.4707 C   0  0  0  0  0  0  0  0  0  0  0  0
  146.1155  142.2889  153.9584 C   0  0  0  0  0  0  0  0  0  0  0  0
  147.2425  141.3336  153.5322 C   0  0  0  0  0  0  0  0  0  0  0  0
  148.5095  141.5681  154.3730 C   0  0  0  0  0  0  0  0  0  0  0  0
  147.2792  136.2001  160.1878 C   0  0  0  0  0  0  0  0  0  0  0  0
  147.6491  137.1967  160.8101 O   0  0  0  0  0  0  0  0  0  0  0  0
  146.5892  135.1859  160.7399 N   0  0  0  0  0  0  0  0  0  0  0  0
  146.1327  135.0398  162.1273 C   0  0  0  0  0  0  0  0  0  0  0  0
  145.0446  136.1041  162.3540 C   0  0  0  0  0  0  0  0  0  0  0  0
  147.2930  135.2915  163.1136 C   0  0  0  0  0  0  0  0  0  0  0  0
  145.5202  133.6420  162.3539 C   0  0  0  0  0  0  0  0  0  0  0  0
  148.6967  134.1653  158.8891 H   0  0  0  0  0  0  0  0  0  0  0  0
  149.7440  135.5808  158.8408 H   0  0  0  0  0  0  0  0  0  0  0  0
  148.9811  134.9929  157.3650 H   0  0  0  0  0  0  0  0  0  0  0  0
  146.7465  135.5835  158.2333 H   0  0  0  0  0  0  0  0  0  0  0  0
  147.1506  137.6048  157.3483 H   0  0  0  0  0  0  0  0  0  0  0  0
  148.0106  139.2883  156.8488 H   0  0  0  0  0  0  0  0  0  0  0  0
  151.0387  139.6960  159.0163 H   0  0  0  0  0  0  0  0  0  0  0  0
  152.5386  141.6568  158.8081 H   0  0  0  0  0  0  0  0  0  0  0  0
  151.9188  143.5058  157.1488 H   0  0  0  0  0  0  0  0  0  0  0  0
  146.9814  142.2294  157.3269 H   0  0  0  0  0  0  0  0  0  0  0  0
  147.5035  143.4192  156.1474 H   0  0  0  0  0  0  0  0  0  0  0  0
  145.4553  141.1884  155.6985 H   0  0  0  0  0  0  0  0  0  0  0  0
  145.1109  142.8997  155.7821 H   0  0  0  0  0  0  0  0  0  0  0  0
  145.2027  142.0664  153.4052 H   0  0  0  0  0  0  0  0  0  0  0  0
  146.3900  143.3146  153.7088 H   0  0  0  0  0  0  0  0  0  0  0  0
  146.9110  140.3011  153.6528 H   0  0  0  0  0  0  0  0  0  0  0  0
  147.4663  141.4654  152.4732 H   0  0  0  0  0  0  0  0  0  0  0  0
  148.9243  142.5521  154.1501 H   0  0  0  0  0  0  0  0  0  0  0  0
  149.2704  140.8318  154.1103 H   0  0  0  0  0  0  0  0  0  0  0  0
  146.3504  134.4211  160.1251 H   0  0  0  0  0  0  0  0  0  0  0  0
  144.6512  136.0592  163.3702 H   0  0  0  0  0  0  0  0  0  0  0  0
  144.2044  135.9666  161.6718 H   0  0  0  0  0  0  0  0  0  0  0  0
  145.4336  137.1113  162.1982 H   0  0  0  0  0  0  0  0  0  0  0  0
  147.7582  136.2626  162.9404 H   0  0  0  0  0  0  0  0  0  0  0  0
  148.0720  134.5334  163.0339 H   0  0  0  0  0  0  0  0  0  0  0  0
  146.9411  135.2769  164.1457 H   0  0  0  0  0  0  0  0  0  0  0  0
  145.0971  133.5579  163.3553 H   0  0  0  0  0  0  0  0  0  0  0  0
  146.2599  132.8478  162.2531 H   0  0  0  0  0  0  0  0  0  0  0  0
  144.7193  133.4392  161.6420 H   0  0  0  0  0  0  0  0  0  0  0  0
  149.9847  143.2835  155.9058 H   0  0  0  0  0  0  0  0  0  0  0  0
  1  2  1  0  0  0  0
  1 26  1  0  0  0  0
  1 27  1  0  0  0  0
  1 28  1  0  0  0  0
  2  3  1  0  0  0  0
  2 19  1  0  0  0  0
  2 29  1  0  0  0  0
  3  4  1  0  0  0  0
  3 30  1  0  0  0  0
  4  5  2  0  0  0  0
  4  6  1  0  0  0  0
  6  7  1  0  0  0  0
  6 31  1  0  0  0  0
  7 12  1  0  0  0  0
  7  8  2  0  0  0  0
  8  9  1  0  0  0  0
  8 32  1  0  0  0  0
  9 10  2  0  0  0  0
  9 33  1  0  0  0  0
 10 11  1  0  0  0  0
 10 34  1  0  0  0  0
 11 12  2  0  0  0  0
 11 55  1  0  0  0  0
 12 13  1  0  0  0  0
 13 18  1  0  0  0  0
 13 14  1  0  0  0  0
 14 15  1  0  0  0  0
 14 35  1  0  0  0  0
 14 36  1  0  0  0  0
 15 16  1  0  0  0  0
 15 37  1  0  0  0  0
 15 38  1  0  0  0  0
 16 17  1  0  0  0  0
 16 39  1  0  0  0  0
 16 40  1  0  0  0  0
 17 18  1  0  0  0  0
 17 41  1  0  0  0  0
 17 42  1  0  0  0  0
 18 43  1  0  0  0  0
 18 44  1  0  0  0  0
 19 20  2  0  0  0  0
 19 21  1  0  0  0  0
 21 22  1  0  0  0  0
 21 45  1  0  0  0  0
 22 23  1  0  0  0  0
 22 24  1  0  0  0  0
 22 25  1  0  0  0  0
 23 46  1  0  0  0  0
 23 47  1  0  0  0  0
 23 48  1  0  0  0  0
 24 49  1  0  0  0  0
 24 50  1  0  0  0  0
 24 51  1  0  0  0  0
 25 52  1  0  0  0  0
 25 53  1  0  0  0  0
 25 54  1  0  0  0  0
M  CHG  1  11   1
M  END
> <s_m_source_file>
AV-unprocessed.smi

> <i_m_source_file_index>
1040

> <i_lp_mmshare_version>
43012

> <i_f3d_flags>
0

> <s_epik_input>
W0NIM11DKFtDSDNdKShbQ0gzXSlbTkhdQyg9TylbQ0BIXShbQ0gzXSlbTkhdQyg9TylbTkhdYzFbY0hdW2NIXVtjSF1uYzFOMltDSDJdW0NIMl1bQ0gyXVtDSDJdW0NIMl0y

> <s_epik_cmdline>
J2VwaWtfcHl0aG9uJywgJy1waCcsICc3LjAnLCAnLXRuJywgJzgnLCAnLW1hJywgJzIwMCcsICctbWV0YWxfYmluZGluZycsICctaW1hZScsICc8aW5maWxlLm1hZT4nLCAnLW9tYWUnLCAnPG91dGZpbGUubWFlPic=

> <r_lp_tautomer_probability>
0.999994

> <r_epik_Ionization_Penalty>
1.20468

> <r_epik_Ionization_Penalty_Charging>
1.20466

> <r_epik_Ionization_Penalty_Neutral>
1.88859e-05

> <r_epik_State_Penalty>
1.27057

> <r_epik_Charging_Adjusted_Penalty>
2.47523

> <i_epik_Tot_Q>
1

> <i_epik_Tot_abs_Q>
1

> <r_epik_Metal_State_Penalty>
1.34448

> <b_epik_Metal_Only>
0

> <s_lp_Force_Field>
OPLS_2005

> <r_lp_Energy>
28.5731

> <b_lp_Chiralities_Consistent>
1

> <s_lp_Variant>
AV-unprocessed.smi:1040-3

> <Gold.Version>
5.8.1

> <Gold.Id.Protein>
6NUR|6NUR_protein|mol2

> <Gold.PLP.Fitness>
47.8288

> <Gold.PLP.PLP>
-38.0116

> <Gold.PLP.part.hbond>
-4.0000

> <Gold.PLP.part.metal>
0.0000

> <Gold.PLP.part.buried>
-5.0636

> <Gold.PLP.part.nonpolar>
-29.8675

> <Gold.PLP.part.repulsive>
0.3609

> <Gold.PLP.ligand.clash>
0.0000

> <Gold.PLP.ligand.torsion>
0.9399

> <Gold.PLP.Chemscore.Hbond>
3.7844

> <Gold.PLP.Chemscore.CHOScore>
0.0000

> <Gold.PLP.Chemscore.Metal>
0.0000

> <Gold.Chemscore.Hbonds>
donor molecule, donor type, donor heavy atom, donor atom, acceptor molecule, acceptor atom, score
      L1  H    11    55       P1  8028  1.73
      P1  H  6931  6943       L1    20  0.78
      P1  H  6934  6947       L1    20  0.94

> <Gold.PLP.Chemscore.Internal.Correction>
0.3438

> <Gold.Rescore>
     Score         DG    S(hbond)    S(metal)    S(lipo)     H(rot)  DE(clash)    DE(int)     intcor
     15.84     -20.76       2.66        0.00      90.71       1.64       0.13       4.79       ----

> <Gold.Chemscore.Fitness>
15.8363

> <Gold.Chemscore.DG>
-20.7602

> <Gold.Chemscore.ZeroCoef>
-5.4800

> <Gold.Chemscore.Hbond>
2.6565

> <Gold.Chemscore.Metal>
0.0000

> <Gold.Chemscore.Lipo>
90.7080

> <Gold.Chemscore.Internal_Hbond>
0.0000

> <Gold.Chemscore.DEClash>
0.1304

> <Gold.Chemscore.DEInternal>
4.7935

> <Gold.Chemscore.Rot>
1.6428

> <Gold.Chemscore.Internal.Correction>
   9.000000E+99

> <Gold.Chemscore.Hbonds>
donor molecule, donor type, donor heavy atom, donor atom, acceptor molecule, acceptor atom, score
      L1  H    11    55       P1  8028  0.87
      P1  H  6931  6943       L1    20  0.73
      P1  H  6934  6947       L1    20  0.91

> <Gold.Chemscore.Hbond.Weighted>
-8.8728

> <Gold.Chemscore.Metal.Weighted>
-0.0000

> <Gold.Chemscore.Lipo.Weighted>
-10.6128

> <Gold.Chemscore.Internal_Hbond.Weighted>
0.0000

> <Gold.Chemscore.DEClash.Weighted>
0.1304

> <Gold.Chemscore.DEInternal.Weighted>
4.7935

> <Gold.Chemscore.Rot.Weighted>
4.2055

> <Gold.Chemscore.Internal.Correction.Weighted>
   9.000000E+99

> <Gold.Protein.RotatedTorsions>
[ 6907 6896 6895 6894 ] final  -80.09 input  -60.11 | X-H torsion
[ 7974 7965 7964 7962 ] final  119.41 input  175.53 | X-H torsion
[ 8008 7997 7996 7995 ] final   20.55 input   59.86 | X-H torsion
[ 10167 10162 10161 10158 ] final   57.25 input  -65.29 | X-H torsion
[ 10718 10713 10712 10709 ] final  124.61 input   66.30 | X-H torsion
[ 10763 10752 10751 10750 ] final   52.23 input  -60.55 | X-H torsion
[ 11005 11000 10999 10996 ] final  116.24 input  -57.11 | X-H torsion

> <Gold.Protein.ActiveResidues>
 VAL166  LYS551  ARG553  GLY616  TRP617  ASP618  TYR619  PRO620  LYS621  CYS622 
 ASP623  PHE694  ASN695  SER759  ASP760  ASP761  ALA762  ILE779  LEU786  VAL792 
 PHE793  MET794  SER795  GLU796  ALA797  LYS798  CYS799  TRP800  GLU811  SER814 

> <Gold.Protein.RotatedAtoms>
  150.6936  134.4022  159.5123 H   0  0  0  0  0  0  0  0  0  0  0  0  # atno 6907 bound_to 6896
  152.1793  134.8765  160.0537 H   0  0  0  0  0  0  0  0  0  0  0  0  # atno 6908 bound_to 6896
  151.9761  133.3707  159.4126 H   0  0  0  0  0  0  0  0  0  0  0  0  # atno 6909 bound_to 6896
  145.1434  139.3254  143.4604 H   0  0  0  0  0  0  0  0  0  0  0  0  # atno 7974 bound_to 7965
  154.9372  140.3048  155.5138 H   0  0  0  0  0  0  0  0  0  0  0  0  # atno 8008 bound_to 7997
  156.2999  140.2343  156.4375 H   0  0  0  0  0  0  0  0  0  0  0  0  # atno 8009 bound_to 7997
  154.8180  140.0425  157.1379 H   0  0  0  0  0  0  0  0  0  0  0  0  # atno 8010 bound_to 7997
  140.2000  144.3998  150.6533 H   0  0  0  0  0  0  0  0  0  0  0  0  # atno 10167 bound_to 10162
  157.5571  131.1091  150.8603 H   0  0  0  0  0  0  0  0  0  0  0  0  # atno 10718 bound_to 10713
  152.9788  135.5819  154.4545 H   0  0  0  0  0  0  0  0  0  0  0  0  # atno 10763 bound_to 10752
  154.4129  135.2770  155.2027 H   0  0  0  0  0  0  0  0  0  0  0  0  # atno 10764 bound_to 10752
  154.3809  135.6147  153.5844 H   0  0  0  0  0  0  0  0  0  0  0  0  # atno 10765 bound_to 10752
  139.9035  134.9595  156.7167 H   0  0  0  0  0  0  0  0  0  0  0  0  # atno 11005 bound_to 11000
  146.3502  140.1480  142.8593 LP  0  0  0  0  0  0  0  0  0  0  0  0  # atno 17320 bound_to 7965
  145.0507  140.9016  143.4997 LP  0  0  0  0  0  0  0  0  0  0  0  0  # atno 17321 bound_to 7965
  140.6397  143.2201  151.6317 LP  0  0  0  0  0  0  0  0  0  0  0  0  # atno 17342 bound_to 10162
  139.5221  144.3173  152.0941 LP  0  0  0  0  0  0  0  0  0  0  0  0  # atno 17343 bound_to 10162
  156.9111  130.5281  149.5280 LP  0  0  0  0  0  0  0  0  0  0  0  0  # atno 17370 bound_to 10713
  156.0628  130.5677  150.9228 LP  0  0  0  0  0  0  0  0  0  0  0  0  # atno 17371 bound_to 10713
  140.7032  133.9288  155.8037 LP  0  0  0  0  0  0  0  0  0  0  0  0  # atno 17394 bound_to 11000
  141.0356  134.0695  157.3963 LP  0  0  0  0  0  0  0  0  0  0  0  0  # atno 17395 bound_to 11000

$$$$
