AV-unprocessed.smi:2033|AV-procd|sdf|8259|dock4
  -GOLD-   2272010533D 1   1.00000     0.00000
 Structure written by MMmdl.
 33 34  0  0  0  0  0  0  0  0  1 V2000
  150.8221  131.1014  156.6322 C   0  0  0  0  0  0  0  0  0  0  0  0
  150.5196  132.5320  156.3433 C   0  0  0  0  0  0  0  0  0  0  0  0
  150.7680  133.5164  157.2158 N   0  0  0  0  0  0  0  0  0  0  0  0
  150.3999  134.7609  156.7236 N   0  0  0  0  0  0  0  0  0  0  0  0
  149.8829  134.6778  155.4901 C   0  0  0  0  0  0  0  0  0  0  0  0
  149.4247  135.7994  154.7494 N   0  0  0  0  0  0  0  0  0  0  0  0
  149.0266  136.9975  155.2125 C   0  0  0  0  0  0  0  0  0  0  0  0
  148.9932  137.3272  156.3984 O   0  0  0  0  0  0  0  0  0  0  0  0
  148.6624  137.8084  154.2084 N   0  0  0  0  0  0  0  0  0  0  0  0
  148.2076  139.1917  154.3510 C   0  0  2  0  0  0  0  0  0  0  0  0
  147.2106  139.5608  153.2229 C   0  0  0  0  0  0  0  0  0  0  0  0
  147.0825  141.0639  152.8974 C   0  0  0  0  0  0  0  0  0  0  0  0
  146.7843  141.9814  154.1006 C   0  0  0  0  0  0  0  0  0  0  0  0
  147.7709  141.9126  155.2915 C   0  0  0  0  0  0  0  0  0  0  0  0
  149.1032  141.4163  154.9473 N   0  0  0  0  0  0  0  0  0  0  0  0
  149.3847  140.1688  154.5330 C   0  0  0  0  0  0  0  0  0  0  0  0
  150.5376  139.8195  154.2832 O   0  0  0  0  0  0  0  0  0  0  0  0
  149.8012  133.0552  154.8249 S   0  0  0  0  0  0  0  0  0  0  0  0
  151.4655  131.0136  157.5083 H   0  0  0  0  0  0  0  0  0  0  0  0
  151.3298  130.6478  155.7809 H   0  0  0  0  0  0  0  0  0  0  0  0
  149.8972  130.5567  156.8210 H   0  0  0  0  0  0  0  0  0  0  0  0
  149.3996  135.6755  153.7479 H   0  0  0  0  0  0  0  0  0  0  0  0
  148.7259  137.4559  153.2644 H   0  0  0  0  0  0  0  0  0  0  0  0
  147.6604  139.2293  155.2938 H   0  0  0  0  0  0  0  0  0  0  0  0
  147.5008  139.0507  152.3032 H   0  0  0  0  0  0  0  0  0  0  0  0
  146.2272  139.1652  153.4796 H   0  0  0  0  0  0  0  0  0  0  0  0
  147.9918  141.4064  152.4013 H   0  0  0  0  0  0  0  0  0  0  0  0
  146.2929  141.1928  152.1566 H   0  0  0  0  0  0  0  0  0  0  0  0
  146.7643  143.0073  153.7318 H   0  0  0  0  0  0  0  0  0  0  0  0
  145.7759  141.7858  154.4667 H   0  0  0  0  0  0  0  0  0  0  0  0
  147.8773  142.9040  155.7324 H   0  0  0  0  0  0  0  0  0  0  0  0
  147.3555  141.2910  156.0853 H   0  0  0  0  0  0  0  0  0  0  0  0
  149.8717  142.0630  155.0514 H   0  0  0  0  0  0  0  0  0  0  0  0
  1  2  1  0  0  0  0
  1 19  1  0  0  0  0
  1 20  1  0  0  0  0
  1 21  1  0  0  0  0
  2 18  1  0  0  0  0
  2  3  2  0  0  0  0
  3  4  1  0  0  0  0
  4  5  2  0  0  0  0
  5  6  1  0  0  0  0
  5 18  1  0  0  0  0
  6  7  1  0  0  0  0
  6 22  1  0  0  0  0
  7  8  2  0  0  0  0
  7  9  1  0  0  0  0
  9 10  1  0  0  0  0
  9 23  1  0  0  0  0
 10 16  1  0  0  0  0
 10 11  1  0  0  0  0
 10 24  1  0  0  0  0
 11 12  1  0  0  0  0
 11 25  1  0  0  0  0
 11 26  1  0  0  0  0
 12 13  1  0  0  0  0
 12 27  1  0  0  0  0
 12 28  1  0  0  0  0
 13 14  1  0  0  0  0
 13 29  1  0  0  0  0
 13 30  1  0  0  0  0
 14 15  1  0  0  0  0
 14 31  1  0  0  0  0
 14 32  1  0  0  0  0
 15 16  1  0  0  0  0
 15 33  1  0  0  0  0
 16 17  2  0  0  0  0
M  END
> <s_m_source_file>
AV-unprocessed.smi

> <i_m_source_file_index>
2033

> <i_lp_mmshare_version>
43012

> <i_f3d_flags>
0

> <s_epik_input>
W0NIM11jMW5uYyhzMSlbTkhdQyg9TylbTkhdW0NAQEhdMltDSDJdW0NIMl1bQ0gyXVtDSDJdW05IXUMyPU8=

> <s_epik_cmdline>
J2VwaWtfcHl0aG9uJywgJy1waCcsICc3LjAnLCAnLXRuJywgJzgnLCAnLW1hJywgJzIwMCcsICctbWV0YWxfYmluZGluZycsICctaW1hZScsICc8aW5maWxlLm1hZT4nLCAnLW9tYWUnLCAnPG91dGZpbGUubWFlPic=

> <r_lp_tautomer_probability>
1

> <r_epik_Ionization_Penalty>
0.00079266

> <r_epik_Ionization_Penalty_Charging>
0

> <r_epik_Ionization_Penalty_Neutral>
0.00079266

> <r_epik_State_Penalty>
-0

> <r_epik_Charging_Adjusted_Penalty>
0

> <i_epik_Tot_Q>
0

> <i_epik_Tot_abs_Q>
0

> <r_epik_Metal_State_Penalty>
0.265831

> <b_epik_Metal_Only>
0

> <s_lp_Force_Field>
OPLS_2005

> <r_lp_Energy>
13.3352

> <b_lp_Chiralities_Consistent>
1

> <s_lp_Variant>
AV-unprocessed.smi:2033-1

> <Gold.Version>
5.8.1

> <Gold.Id.Protein>
6NUR|6NUR_protein|mol2

> <Gold.PLP.Fitness>
36.1867

> <Gold.PLP.PLP>
-25.7602

> <Gold.PLP.part.hbond>
-4.0000

> <Gold.PLP.part.metal>
0.0000

> <Gold.PLP.part.buried>
-3.1110

> <Gold.PLP.part.nonpolar>
-18.2824

> <Gold.PLP.part.repulsive>
0.3356

> <Gold.PLP.ligand.clash>
0.0000

> <Gold.PLP.ligand.torsion>
0.4404

> <Gold.PLP.Chemscore.Hbond>
3.7520

> <Gold.PLP.Chemscore.CHOScore>
0.0000

> <Gold.PLP.Chemscore.Metal>
0.0000

> <Gold.Chemscore.Hbonds>
donor molecule, donor type, donor heavy atom, donor atom, acceptor molecule, acceptor atom, score
      L1  H     6    22       P1  7948  1.00
      L1  H     9    23       P1  7948  1.00
      P1  H  6896  6907       L1     3  0.80
      P1  H  7989  7998       L1    17  1.00

> <Gold.PLP.Chemscore.Internal.Correction>
0.0513

> <Gold.Rescore>
     Score         DG    S(hbond)    S(metal)    S(lipo)     H(rot)  DE(clash)    DE(int)     intcor
     17.67     -19.40       3.38        0.00      44.31       1.00       0.09       1.63       ----

> <Gold.Chemscore.Fitness>
17.6743

> <Gold.Chemscore.DG>
-19.3975

> <Gold.Chemscore.ZeroCoef>
-5.4800

> <Gold.Chemscore.Hbond>
3.3813

> <Gold.Chemscore.Metal>
0.0000

> <Gold.Chemscore.Lipo>
44.3070

> <Gold.Chemscore.Internal_Hbond>
0.0000

> <Gold.Chemscore.DEClash>
0.0884

> <Gold.Chemscore.DEInternal>
1.6349

> <Gold.Chemscore.Rot>
1.0000

> <Gold.Chemscore.Internal.Correction>
   9.000000E+99

> <Gold.Chemscore.Hbonds>
donor molecule, donor type, donor heavy atom, donor atom, acceptor molecule, acceptor atom, score
      L1  H     6    22       P1  7948  0.43
      L1  H     9    23       P1  7948  1.00
      P1  H  6896  6907       L1     3  0.63
      P1  H  7989  7998       L1    17  0.98

> <Gold.Chemscore.Hbond.Weighted>
-11.2936

> <Gold.Chemscore.Metal.Weighted>
-0.0000

> <Gold.Chemscore.Lipo.Weighted>
-5.1839

> <Gold.Chemscore.Internal_Hbond.Weighted>
0.0000

> <Gold.Chemscore.DEClash.Weighted>
0.0884

> <Gold.Chemscore.DEInternal.Weighted>
1.6349

> <Gold.Chemscore.Rot.Weighted>
2.5600

> <Gold.Chemscore.Internal.Correction.Weighted>
   9.000000E+99

> <Gold.Protein.RotatedTorsions>
[ 6907 6896 6895 6894 ] final -142.26 input  -60.11 | X-H torsion
[ 7974 7965 7964 7962 ] final   13.90 input  175.53 | X-H torsion
[ 8008 7997 7996 7995 ] final  116.23 input   59.86 | X-H torsion
[ 10167 10162 10161 10158 ] final  145.50 input  -65.29 | X-H torsion
[ 10718 10713 10712 10709 ] final -138.92 input   66.30 | X-H torsion
[ 10763 10752 10751 10750 ] final  -87.58 input  -60.55 | X-H torsion
[ 11005 11000 10999 10996 ] final   41.51 input  -57.11 | X-H torsion

> <Gold.Protein.ActiveResidues>
 VAL166  LYS551  ARG553  GLY616  TRP617  ASP618  TYR619  PRO620  LYS621  CYS622 
 ASP623  PHE694  ASN695  SER759  ASP760  ASP761  ALA762  ILE779  LEU786  VAL792 
 PHE793  MET794  SER795  GLU796  ALA797  LYS798  CYS799  TRP800  GLU811  SER814 

> <Gold.Protein.RotatedAtoms>
  151.0847  133.5362  159.2618 H   0  0  0  0  0  0  0  0  0  0  0  0  # atno 6907 bound_to 6896
  151.2252  135.0533  159.8975 H   0  0  0  0  0  0  0  0  0  0  0  0  # atno 6908 bound_to 6896
  152.5428  134.0644  159.8220 H   0  0  0  0  0  0  0  0  0  0  0  0  # atno 6909 bound_to 6896
  146.2318  139.9121  142.8523 H   0  0  0  0  0  0  0  0  0  0  0  0  # atno 7974 bound_to 7965
  156.2427  140.2922  156.0491 H   0  0  0  0  0  0  0  0  0  0  0  0  # atno 8008 bound_to 7997
  155.1902  140.0406  157.2916 H   0  0  0  0  0  0  0  0  0  0  0  0  # atno 8009 bound_to 7997
  154.6200  140.2473  155.7568 H   0  0  0  0  0  0  0  0  0  0  0  0  # atno 8010 bound_to 7997
  139.4925  144.5897  151.6706 H   0  0  0  0  0  0  0  0  0  0  0  0  # atno 10167 bound_to 10162
  156.3048  130.7449  151.1510 H   0  0  0  0  0  0  0  0  0  0  0  0  # atno 10718 bound_to 10713
  154.6351  135.5408  153.7725 H   0  0  0  0  0  0  0  0  0  0  0  0  # atno 10763 bound_to 10752
  153.0304  135.6445  154.1243 H   0  0  0  0  0  0  0  0  0  0  0  0  # atno 10764 bound_to 10752
  154.1170  135.2923  155.3197 H   0  0  0  0  0  0  0  0  0  0  0  0  # atno 10765 bound_to 10752
  140.1827  134.4083  155.8191 H   0  0  0  0  0  0  0  0  0  0  0  0  # atno 11005 bound_to 11000
  145.2219  140.9938  143.4040 LP  0  0  0  0  0  0  0  0  0  0  0  0  # atno 17320 bound_to 7965
  144.9603  139.3987  143.6359 LP  0  0  0  0  0  0  0  0  0  0  0  0  # atno 17321 bound_to 7965
  140.5521  144.0408  150.6131 LP  0  0  0  0  0  0  0  0  0  0  0  0  # atno 17342 bound_to 10162
  140.3466  143.2988  152.0532 LP  0  0  0  0  0  0  0  0  0  0  0  0  # atno 17343 bound_to 10162
  157.7377  131.0549  150.5341 LP  0  0  0  0  0  0  0  0  0  0  0  0  # atno 17370 bound_to 10713
  156.5473  130.4223  149.6125 LP  0  0  0  0  0  0  0  0  0  0  0  0  # atno 17371 bound_to 10713
  141.2223  133.7008  156.7959 LP  0  0  0  0  0  0  0  0  0  0  0  0  # atno 17394 bound_to 11000
  140.2249  134.8730  157.3416 LP  0  0  0  0  0  0  0  0  0  0  0  0  # atno 17395 bound_to 11000

$$$$
