AV-unprocessed.smi:115|AV-procd|sdf|1123|dock2
  -GOLD-   2262018243D 1   1.00000     0.00000
 Structure written by MMmdl.
 55 57  0  0  0  0  0  0  0  0  1 V2000
  140.2718  145.3625  153.8629 C   0  0  0  0  0  0  0  0  0  0  0  0
  141.2235  145.0743  154.8756 O   0  0  0  0  0  0  0  0  0  0  0  0
  142.3002  144.2495  154.4489 C   0  0  0  0  0  0  0  0  0  0  0  0
  143.4907  144.2903  155.4321 C   0  0  2  0  0  0  0  0  0  0  0  0
  143.8792  145.7126  155.8797 C   0  0  0  0  0  0  0  0  0  0  0  0
  144.6271  143.4927  154.9413 N   0  0  0  0  0  0  0  0  0  0  0  0
  145.2385  143.6990  153.7051 C   0  0  0  0  0  0  0  0  0  0  0  0
  144.8121  144.7581  152.7374 C   0  0  0  0  0  0  0  0  0  0  0  0
  146.2381  142.7837  153.5720 C   0  0  0  0  0  0  0  0  0  0  0  0
  146.2863  141.9909  154.7490 C   0  0  0  0  0  0  0  0  0  0  0  0
  147.1925  140.8495  155.0395 C   0  0  0  0  0  0  0  0  0  0  0  0
  146.8960  139.9257  155.7985 O   0  0  0  0  0  0  0  0  0  0  0  0
  148.5502  140.8720  154.3121 C   0  0  0  0  0  0  0  0  0  0  0  0
  149.6850  140.7348  155.2178 N   0  0  0  0  0  0  0  0  0  0  0  0
  150.6557  139.7485  154.9141 C   0  0  0  0  0  0  0  0  0  0  0  0
  150.5738  139.0340  153.9134 O   0  0  0  0  0  0  0  0  0  0  0  0
  151.7454  139.6570  155.8783 C   0  0  0  0  0  0  0  0  0  0  0  0
  152.6902  138.7136  155.7255 F   0  0  0  0  0  0  0  0  0  0  0  0
  151.8137  140.4943  156.9357 C   0  0  0  0  0  0  0  0  0  0  0  0
  150.8911  141.5017  157.1697 N   0  0  0  0  0  0  0  0  0  0  0  0
  150.9531  142.3634  158.4147 C   0  0  2  0  0  0  0  0  0  0  0  0
  150.7597  143.8671  158.1514 C   0  0  0  0  0  0  0  0  0  0  0  0
  152.1687  144.4069  158.3014 C   0  0  0  0  0  0  0  0  0  0  0  0
  152.7559  143.4523  159.3335 C   0  0  0  0  0  0  0  0  0  0  0  0
  152.2150  142.1843  158.9853 O   0  0  0  0  0  0  0  0  0  0  0  0
  149.7593  141.6103  156.3288 C   0  0  0  0  0  0  0  0  0  0  0  0
  148.8807  142.4465  156.5521 O   0  0  0  0  0  0  0  0  0  0  0  0
  145.3143  142.4628  155.6036 C   0  0  0  0  0  0  0  0  0  0  0  0
  144.9693  142.0239  157.0002 C   0  0  0  0  0  0  0  0  0  0  0  0
  139.5107  146.0319  154.2634 H   0  0  0  0  0  0  0  0  0  0  0  0
  139.7665  144.4653  153.5070 H   0  0  0  0  0  0  0  0  0  0  0  0
  140.7385  145.8614  153.0128 H   0  0  0  0  0  0  0  0  0  0  0  0
  141.9535  143.2253  154.3012 H   0  0  0  0  0  0  0  0  0  0  0  0
  142.6045  144.6051  153.4669 H   0  0  0  0  0  0  0  0  0  0  0  0
  143.1585  143.8186  156.3529 H   0  0  0  0  0  0  0  0  0  0  0  0
  143.0860  146.1471  156.4887 H   0  0  0  0  0  0  0  0  0  0  0  0
  144.0383  146.3965  155.0490 H   0  0  0  0  0  0  0  0  0  0  0  0
  144.7840  145.7006  156.4881 H   0  0  0  0  0  0  0  0  0  0  0  0
  145.4998  144.8105  151.8929 H   0  0  0  0  0  0  0  0  0  0  0  0
  144.7965  145.7405  153.2103 H   0  0  0  0  0  0  0  0  0  0  0  0
  143.8180  144.5486  152.3415 H   0  0  0  0  0  0  0  0  0  0  0  0
  146.8727  142.6921  152.7028 H   0  0  0  0  0  0  0  0  0  0  0  0
  148.6089  140.0759  153.5686 H   0  0  0  0  0  0  0  0  0  0  0  0
  148.6772  141.7991  153.7510 H   0  0  0  0  0  0  0  0  0  0  0  0
  152.6329  140.3507  157.6215 H   0  0  0  0  0  0  0  0  0  0  0  0
  150.1700  141.9959  159.0794 H   0  0  0  0  0  0  0  0  0  0  0  0
  150.2815  144.0845  157.1966 H   0  0  0  0  0  0  0  0  0  0  0  0
  150.1254  144.2694  158.9424 H   0  0  0  0  0  0  0  0  0  0  0  0
  152.7166  144.3271  157.3624 H   0  0  0  0  0  0  0  0  0  0  0  0
  152.1943  145.4485  158.6226 H   0  0  0  0  0  0  0  0  0  0  0  0
  153.8458  143.4396  159.3260 H   0  0  0  0  0  0  0  0  0  0  0  0
  152.4225  143.7197  160.3373 H   0  0  0  0  0  0  0  0  0  0  0  0
  145.8409  141.6390  157.5268 H   0  0  0  0  0  0  0  0  0  0  0  0
  144.2127  141.2395  156.9844 H   0  0  0  0  0  0  0  0  0  0  0  0
  144.6062  142.8415  157.6156 H   0  0  0  0  0  0  0  0  0  0  0  0
  1  2  1  0  0  0  0
  1 30  1  0  0  0  0
  1 31  1  0  0  0  0
  1 32  1  0  0  0  0
  2  3  1  0  0  0  0
  3  4  1  0  0  0  0
  3 33  1  0  0  0  0
  3 34  1  0  0  0  0
  4  5  1  0  0  0  0
  4  6  1  0  0  0  0
  4 35  1  0  0  0  0
  5 36  1  0  0  0  0
  5 37  1  0  0  0  0
  5 38  1  0  0  0  0
  6 28  1  0  0  0  0
  6  7  1  0  0  0  0
  7  8  1  0  0  0  0
  7  9  2  0  0  0  0
  8 39  1  0  0  0  0
  8 40  1  0  0  0  0
  8 41  1  0  0  0  0
  9 10  1  0  0  0  0
  9 42  1  0  0  0  0
 10 11  1  0  0  0  0
 10 28  2  0  0  0  0
 11 12  2  0  0  0  0
 11 13  1  0  0  0  0
 13 14  1  0  0  0  0
 13 43  1  0  0  0  0
 13 44  1  0  0  0  0
 14 26  1  0  0  0  0
 14 15  1  0  0  0  0
 15 16  2  0  0  0  0
 15 17  1  0  0  0  0
 17 18  1  0  0  0  0
 17 19  2  0  0  0  0
 19 20  1  0  0  0  0
 19 45  1  0  0  0  0
 20 21  1  0  0  0  0
 20 26  1  0  0  0  0
 21 25  1  0  0  0  0
 21 22  1  0  0  0  0
 21 46  1  0  0  0  0
 22 23  1  0  0  0  0
 22 47  1  0  0  0  0
 22 48  1  0  0  0  0
 23 24  1  0  0  0  0
 23 49  1  0  0  0  0
 23 50  1  0  0  0  0
 24 25  1  0  0  0  0
 24 51  1  0  0  0  0
 24 52  1  0  0  0  0
 26 27  2  0  0  0  0
 28 29  1  0  0  0  0
 29 53  1  0  0  0  0
 29 54  1  0  0  0  0
 29 55  1  0  0  0  0
M  END
> <s_m_source_file>
AV-unprocessed.smi

> <i_m_source_file_index>
115

> <i_lp_mmshare_version>
43012

> <i_f3d_flags>
0

> <s_epik_input>
W0NIM11PW0NIMl1bQ0BIXShbQ0gzXSluMWMoW0NIM10pW2NIXWMoYzFbQ0gzXSlDKD1PKVtDSDJdbjJjKD1PKWMoRilbY0hdbihjMj1PKVtDQEBIXTNbQ0gyXVtDSDJdW0NIMl1PMw==

> <s_epik_cmdline>
J2VwaWtfcHl0aG9uJywgJy1waCcsICc3LjAnLCAnLXRuJywgJzgnLCAnLW1hJywgJzIwMCcsICctbWV0YWxfYmluZGluZycsICctaW1hZScsICc8aW5maWxlLm1hZT4nLCAnLW9tYWUnLCAnPG91dGZpbGUubWFlPic=

> <r_lp_tautomer_probability>
1

> <r_epik_Ionization_Penalty>
5.02611e-09

> <r_epik_Ionization_Penalty_Charging>
5.01743e-09

> <r_epik_Ionization_Penalty_Neutral>
8.68114e-12

> <r_epik_State_Penalty>
-0

> <r_epik_Charging_Adjusted_Penalty>
5.01743e-09

> <i_epik_Tot_Q>
0

> <i_epik_Tot_abs_Q>
0

> <r_epik_Metal_State_Penalty>
-0

> <b_epik_Metal_Only>
0

> <s_epik_Chemistry_Notes>
This compound contains an acetal/aminal-like group ( X-CH(R)-Y where X, Y are N, S, or O) that may be acid/base labile, releasing an aldehyde.

> <s_lp_Force_Field>
OPLS_2005

> <r_lp_Energy>
47.9533

> <b_lp_Chiralities_Consistent>
1

> <s_lp_Variant>
AV-unprocessed.smi:115-1

> <Gold.Version>
5.8.1

> <Gold.Id.Protein>
6NUR|6NUR_protein|mol2

> <Gold.PLP.Fitness>
51.3651

> <Gold.PLP.PLP>
-52.6453

> <Gold.PLP.part.hbond>
-0.5697

> <Gold.PLP.part.metal>
0.0000

> <Gold.PLP.part.buried>
-7.7087

> <Gold.PLP.part.nonpolar>
-49.6029

> <Gold.PLP.part.repulsive>
4.9575

> <Gold.PLP.ligand.clash>
0.0000

> <Gold.PLP.ligand.torsion>
0.9781

> <Gold.PLP.Chemscore.Hbond>
0.0000

> <Gold.PLP.Chemscore.CHOScore>
0.0000

> <Gold.PLP.Chemscore.Metal>
0.0000

> <Gold.PLP.Chemscore.Internal.Correction>
0.6760

> <Gold.Rescore>
     Score         DG    S(hbond)    S(metal)    S(lipo)     H(rot)  DE(clash)    DE(int)     intcor
      7.02     -13.23       0.00        0.00     114.26       2.19       1.77       4.44       ----

> <Gold.Chemscore.Fitness>
7.0224

> <Gold.Chemscore.DG>
-13.2329

> <Gold.Chemscore.ZeroCoef>
-5.4800

> <Gold.Chemscore.Hbond>
0.0000

> <Gold.Chemscore.Metal>
0.0000

> <Gold.Chemscore.Lipo>
114.2645

> <Gold.Chemscore.Internal_Hbond>
0.0000

> <Gold.Chemscore.DEClash>
1.7750

> <Gold.Chemscore.DEInternal>
4.4356

> <Gold.Chemscore.Rot>
2.1938

> <Gold.Chemscore.Internal.Correction>
   9.000000E+99

> <Gold.Chemscore.Hbond.Weighted>
-0.0000

> <Gold.Chemscore.Metal.Weighted>
-0.0000

> <Gold.Chemscore.Lipo.Weighted>
-13.3689

> <Gold.Chemscore.Internal_Hbond.Weighted>
0.0000

> <Gold.Chemscore.DEClash.Weighted>
1.7750

> <Gold.Chemscore.DEInternal.Weighted>
4.4356

> <Gold.Chemscore.Rot.Weighted>
5.6160

> <Gold.Chemscore.Internal.Correction.Weighted>
   9.000000E+99

> <Gold.Protein.RotatedTorsions>
[ 6907 6896 6895 6894 ] final    0.90 input  -60.11 | X-H torsion
[ 7974 7965 7964 7962 ] final  -68.07 input  175.53 | X-H torsion
[ 8008 7997 7996 7995 ] final   44.84 input   59.86 | X-H torsion
[ 10167 10162 10161 10158 ] final   97.26 input  -65.29 | X-H torsion
[ 10718 10713 10712 10709 ] final -171.89 input   66.30 | X-H torsion
[ 10763 10752 10751 10750 ] final  163.31 input  -60.55 | X-H torsion
[ 11005 11000 10999 10996 ] final  111.70 input  -57.11 | X-H torsion

> <Gold.Protein.ActiveResidues>
 VAL166  LYS551  ARG553  GLY616  TRP617  ASP618  TYR619  PRO620  LYS621  CYS622 
 ASP623  PHE694  ASN695  SER759  ASP760  ASP761  ALA762  ILE779  LEU786  VAL792 
 PHE793  MET794  SER795  GLU796  ALA797  LYS798  CYS799  TRP800  GLU811  SER814 

> <Gold.Protein.RotatedAtoms>
  151.5840  135.1057  160.0023 H   0  0  0  0  0  0  0  0  0  0  0  0  # atno 6907 bound_to 6896
  152.4340  133.7323  159.6605 H   0  0  0  0  0  0  0  0  0  0  0  0  # atno 6908 bound_to 6896
  150.8235  133.8141  159.3151 H   0  0  0  0  0  0  0  0  0  0  0  0  # atno 6909 bound_to 6896
  145.7211  140.9038  143.0630 H   0  0  0  0  0  0  0  0  0  0  0  0  # atno 7974 bound_to 7965
  155.3259  140.3399  155.4240 H   0  0  0  0  0  0  0  0  0  0  0  0  # atno 8008 bound_to 7997
  156.1886  140.1689  156.8174 H   0  0  0  0  0  0  0  0  0  0  0  0  # atno 8009 bound_to 7997
  154.5415  140.0724  156.8501 H   0  0  0  0  0  0  0  0  0  0  0  0  # atno 8010 bound_to 7997
  139.7817  144.6886  151.0013 H   0  0  0  0  0  0  0  0  0  0  0  0  # atno 10167 bound_to 10162
  156.7475  130.9365  151.3113 H   0  0  0  0  0  0  0  0  0  0  0  0  # atno 10718 bound_to 10713
  154.2917  135.2761  155.2651 H   0  0  0  0  0  0  0  0  0  0  0  0  # atno 10763 bound_to 10752
  154.5127  135.5778  153.6621 H   0  0  0  0  0  0  0  0  0  0  0  0  # atno 10764 bound_to 10752
  152.9913  135.6185  154.3082 H   0  0  0  0  0  0  0  0  0  0  0  0  # atno 10765 bound_to 10752
  139.8910  134.9514  156.6473 H   0  0  0  0  0  0  0  0  0  0  0  0  # atno 11005 bound_to 11000
  144.6916  139.9204  143.7467 LP  0  0  0  0  0  0  0  0  0  0  0  0  # atno 17320 bound_to 7965
  146.0625  139.3617  143.0573 LP  0  0  0  0  0  0  0  0  0  0  0  0  # atno 17321 bound_to 7965
  140.7818  143.4476  151.0460 LP  0  0  0  0  0  0  0  0  0  0  0  0  # atno 17342 bound_to 10162
  139.8156  143.7891  152.3174 LP  0  0  0  0  0  0  0  0  0  0  0  0  # atno 17343 bound_to 10162
  157.6791  130.9123  150.0224 LP  0  0  0  0  0  0  0  0  0  0  0  0  # atno 17370 bound_to 10713
  156.1423  130.3642  149.9563 LP  0  0  0  0  0  0  0  0  0  0  0  0  # atno 17371 bound_to 10713
  140.7547  133.8867  155.8373 LP  0  0  0  0  0  0  0  0  0  0  0  0  # atno 17394 bound_to 11000
  140.9971  134.1200  157.4353 LP  0  0  0  0  0  0  0  0  0  0  0  0  # atno 17395 bound_to 11000

$$$$
