AV-unprocessed.smi:1489|AV-procd|sdf|6027|dock9
  -GOLD-   22720 6133D 1   1.00000     0.00000
 Structure written by MMmdl.
 47 49  0  0  0  0  0  0  0  0  2 V2000
  150.0433  136.8802  156.9046 O   0  0  0  0  0  0  0  0  0  0  0  0
  149.8599  137.1797  155.7248 C   0  0  0  0  0  0  0  0  0  0  0  0
  150.0189  138.4085  155.2033 N   0  0  0  0  0  0  0  0  0  0  0  0
  150.3659  139.6124  155.8739 C   0  0  0  0  0  0  0  0  0  0  0  0
  151.2326  139.6716  156.9938 C   0  0  0  0  0  0  0  0  0  0  0  0
  151.5010  140.9164  157.5990 C   0  0  0  0  0  0  0  0  0  0  0  0
  150.8952  142.0865  157.0849 C   0  0  0  0  0  0  0  0  0  0  0  0
  151.1045  143.3693  157.6114 N   0  0  0  0  0  0  0  0  0  0  0  0
  152.4058  143.5608  158.2310 C   0  0  0  0  0  0  0  0  0  0  0  0
  152.2716  144.8109  159.1057 C   0  0  0  0  0  0  0  0  0  0  0  0
  150.7633  144.9898  159.3137 C   0  0  0  0  0  0  0  0  0  0  0  0
  150.1248  143.7990  158.5954 C   0  0  0  0  0  0  0  0  0  0  0  0
  150.0642  141.9835  156.0248 N   0  3  0  0  0  0  0  0  0  0  0  0
  149.7790  140.8113  155.4171 C   0  0  0  0  0  0  0  0  0  0  0  0
  149.4883  136.2969  154.7863 N   0  0  0  0  0  0  0  0  0  0  0  0
  149.2422  134.8754  155.0140 C   0  0  2  0  0  0  0  0  0  0  0  0
  150.5377  134.2028  155.5078 C   0  0  0  0  0  0  0  0  0  0  0  0
  150.3492  132.6899  155.7058 C   0  0  0  0  0  0  0  0  0  0  0  0
  149.8445  132.0218  154.4156 C   0  0  1  0  0  0  0  0  0  0  0  0
  149.6200  130.6480  154.6515 O   0  0  0  0  0  0  0  0  0  0  0  0
  148.5434  132.6805  153.9260 C   0  0  0  0  0  0  0  0  0  0  0  0
  148.7285  134.1937  153.7274 C   0  0  0  0  0  0  0  0  0  0  0  0
  149.9266  138.4807  154.2005 H   0  0  0  0  0  0  0  0  0  0  0  0
  151.6871  138.7858  157.4094 H   0  0  0  0  0  0  0  0  0  0  0  0
  152.1647  140.9645  158.4497 H   0  0  0  0  0  0  0  0  0  0  0  0
  152.6699  142.6998  158.8466 H   0  0  0  0  0  0  0  0  0  0  0  0
  153.1825  143.6838  157.4756 H   0  0  0  0  0  0  0  0  0  0  0  0
  152.8077  144.6958  160.0483 H   0  0  0  0  0  0  0  0  0  0  0  0
  152.6834  145.6821  158.5949 H   0  0  0  0  0  0  0  0  0  0  0  0
  150.4881  145.0210  160.3685 H   0  0  0  0  0  0  0  0  0  0  0  0
  150.4362  145.9252  158.8578 H   0  0  0  0  0  0  0  0  0  0  0  0
  149.1850  144.0775  158.1177 H   0  0  0  0  0  0  0  0  0  0  0  0
  149.9162  143.0004  159.3082 H   0  0  0  0  0  0  0  0  0  0  0  0
  149.0970  140.8714  154.5812 H   0  0  0  0  0  0  0  0  0  0  0  0
  149.3683  136.6298  153.8409 H   0  0  0  0  0  0  0  0  0  0  0  0
  148.4867  134.7698  155.7952 H   0  0  0  0  0  0  0  0  0  0  0  0
  151.3402  134.3732  154.7884 H   0  0  0  0  0  0  0  0  0  0  0  0
  150.8615  134.6568  156.4452 H   0  0  0  0  0  0  0  0  0  0  0  0
  151.2919  132.2389  156.0180 H   0  0  0  0  0  0  0  0  0  0  0  0
  149.6394  132.5172  156.5162 H   0  0  0  0  0  0  0  0  0  0  0  0
  150.6075  132.1078  153.6408 H   0  0  0  0  0  0  0  0  0  0  0  0
  148.8254  130.5549  155.1546 H   0  0  0  0  0  0  0  0  0  0  0  0
  148.2199  132.2229  152.9904 H   0  0  0  0  0  0  0  0  0  0  0  0
  147.7444  132.5065  154.6484 H   0  0  0  0  0  0  0  0  0  0  0  0
  147.7813  134.6358  153.4161 H   0  0  0  0  0  0  0  0  0  0  0  0
  149.4322  134.3668  152.9118 H   0  0  0  0  0  0  0  0  0  0  0  0
  149.6300  142.8337  155.6650 H   0  0  0  0  0  0  0  0  0  0  0  0
  1  2  2  0  0  0  0
  2  3  1  0  0  0  0
  2 15  1  0  0  0  0
  3  4  1  0  0  0  0
  3 23  1  0  0  0  0
  4 14  1  0  0  0  0
  4  5  2  0  0  0  0
  5  6  1  0  0  0  0
  5 24  1  0  0  0  0
  6  7  2  0  0  0  0
  6 25  1  0  0  0  0
  7  8  1  0  0  0  0
  7 13  1  0  0  0  0
  8 12  1  0  0  0  0
  8  9  1  0  0  0  0
  9 10  1  0  0  0  0
  9 26  1  0  0  0  0
  9 27  1  0  0  0  0
 10 11  1  0  0  0  0
 10 28  1  0  0  0  0
 10 29  1  0  0  0  0
 11 12  1  0  0  0  0
 11 30  1  0  0  0  0
 11 31  1  0  0  0  0
 12 32  1  0  0  0  0
 12 33  1  0  0  0  0
 13 14  2  0  0  0  0
 13 47  1  0  0  0  0
 14 34  1  0  0  0  0
 15 16  1  0  0  0  0
 15 35  1  0  0  0  0
 16 22  1  0  0  0  0
 16 17  1  0  0  0  0
 16 36  1  0  0  0  0
 17 18  1  0  0  0  0
 17 37  1  0  0  0  0
 17 38  1  0  0  0  0
 18 19  1  0  0  0  0
 18 39  1  0  0  0  0
 18 40  1  0  0  0  0
 19 20  1  0  0  0  0
 19 21  1  0  0  0  0
 19 41  1  0  0  0  0
 20 42  1  0  0  0  0
 21 22  1  0  0  0  0
 21 43  1  0  0  0  0
 21 44  1  0  0  0  0
 22 45  1  0  0  0  0
 22 46  1  0  0  0  0
M  CHG  1  13   1
M  END
> <s_m_source_file>
AV-unprocessed.smi

> <i_m_source_file_index>
1489

> <i_lp_mmshare_version>
43012

> <i_f3d_flags>
0

> <s_epik_input>
W0NIMl0xW0NIMl1bQ0BIXShbT0hdKVtDSDJdW0NIMl1bQ0BIXTFbTkhdQyg9TylbTkhdYzJbY0hdW2NIXWMobltjSF0yKU4zW0NIMl1bQ0gyXVtDSDJdW0NIMl0z

> <s_epik_cmdline>
J2VwaWtfcHl0aG9uJywgJy1waCcsICc3LjAnLCAnLXRuJywgJzgnLCAnLW1hJywgJzIwMCcsICctbWV0YWxfYmluZGluZycsICctaW1hZScsICc8aW5maWxlLm1hZT4nLCAnLW9tYWUnLCAnPG91dGZpbGUubWFlPic=

> <r_lp_tautomer_probability>
0.999994

> <r_epik_Ionization_Penalty>
1.08454

> <r_epik_Ionization_Penalty_Charging>
1.08452

> <r_epik_Ionization_Penalty_Neutral>
2.18252e-05

> <r_epik_State_Penalty>
1.14025

> <r_epik_Charging_Adjusted_Penalty>
2.22477

> <i_epik_Tot_Q>
1

> <i_epik_Tot_abs_Q>
1

> <r_epik_Metal_State_Penalty>
1.22975

> <b_epik_Metal_Only>
0

> <s_lp_Force_Field>
OPLS_2005

> <r_lp_Energy>
44.1541

> <b_lp_Chiralities_Consistent>
1

> <s_lp_Variant>
AV-unprocessed.smi:1489-3

> <Gold.Version>
5.8.1

> <Gold.Id.Protein>
6NUR|6NUR_protein|mol2

> <Gold.PLP.Fitness>
42.4976

> <Gold.PLP.PLP>
-35.5066

> <Gold.PLP.part.hbond>
-2.0000

> <Gold.PLP.part.metal>
0.0000

> <Gold.PLP.part.buried>
-3.6950

> <Gold.PLP.part.nonpolar>
-30.4225

> <Gold.PLP.part.repulsive>
0.3031

> <Gold.PLP.ligand.clash>
0.0000

> <Gold.PLP.ligand.torsion>
0.9865

> <Gold.PLP.Chemscore.Hbond>
2.9833

> <Gold.PLP.Chemscore.CHOScore>
0.0000

> <Gold.PLP.Chemscore.Metal>
0.0000

> <Gold.Chemscore.Hbonds>
donor molecule, donor type, donor heavy atom, donor atom, acceptor molecule, acceptor atom, score
      L1  H    13    47       P1  8028  2.00
      L1  H    15    35       P1  7948  0.98

> <Gold.PLP.Chemscore.Internal.Correction>
0.0141

> <Gold.Rescore>
     Score         DG    S(hbond)    S(metal)    S(lipo)     H(rot)  DE(clash)    DE(int)     intcor
     14.70     -18.39       1.71        0.00      98.63       1.69       1.21       2.48       ----

> <Gold.Chemscore.Fitness>
14.7018

> <Gold.Chemscore.DG>
-18.3881

> <Gold.Chemscore.ZeroCoef>
-5.4800

> <Gold.Chemscore.Hbond>
1.7073

> <Gold.Chemscore.Metal>
0.0000

> <Gold.Chemscore.Lipo>
98.6271

> <Gold.Chemscore.Internal_Hbond>
0.0000

> <Gold.Chemscore.DEClash>
1.2112

> <Gold.Chemscore.DEInternal>
2.4751

> <Gold.Chemscore.Rot>
1.6929

> <Gold.Chemscore.Internal.Correction>
   9.000000E+99

> <Gold.Chemscore.Hbonds>
donor molecule, donor type, donor heavy atom, donor atom, acceptor molecule, acceptor atom, score
      L1  H    13    47       P1  8028  0.93
      L1  H    15    35       P1  7948  0.80

> <Gold.Chemscore.Hbond.Weighted>
-5.7025

> <Gold.Chemscore.Metal.Weighted>
-0.0000

> <Gold.Chemscore.Lipo.Weighted>
-11.5394

> <Gold.Chemscore.Internal_Hbond.Weighted>
0.0000

> <Gold.Chemscore.DEClash.Weighted>
1.2112

> <Gold.Chemscore.DEInternal.Weighted>
2.4751

> <Gold.Chemscore.Rot.Weighted>
4.3338

> <Gold.Chemscore.Internal.Correction.Weighted>
   9.000000E+99

> <Gold.Protein.RotatedTorsions>
[ 6907 6896 6895 6894 ] final  -92.16 input  -60.11 | X-H torsion
[ 7974 7965 7964 7962 ] final  -42.28 input  175.53 | X-H torsion
[ 8008 7997 7996 7995 ] final  148.66 input   59.86 | X-H torsion
[ 10167 10162 10161 10158 ] final -139.69 input  -65.29 | X-H torsion
[ 10718 10713 10712 10709 ] final  -65.81 input   66.30 | X-H torsion
[ 10763 10752 10751 10750 ] final   68.71 input  -60.55 | X-H torsion
[ 11005 11000 10999 10996 ] final -154.26 input  -57.11 | X-H torsion

> <Gold.Protein.ActiveResidues>
 VAL166  LYS551  ARG553  GLY616  TRP617  ASP618  TYR619  PRO620  LYS621  CYS622 
 ASP623  PHE694  ASN695  SER759  ASP760  ASP761  ALA762  ILE779  LEU786  VAL792 
 PHE793  MET794  SER795  GLU796  ALA797  LYS798  CYS799  TRP800  GLU811  SER814 

> <Gold.Protein.RotatedAtoms>
  150.6902  134.2165  159.4379 H   0  0  0  0  0  0  0  0  0  0  0  0  # atno 6907 bound_to 6896
  152.0123  134.9866  160.0578 H   0  0  0  0  0  0  0  0  0  0  0  0  # atno 6908 bound_to 6896
  152.1476  133.4467  159.4834 H   0  0  0  0  0  0  0  0  0  0  0  0  # atno 6909 bound_to 6896
  146.0131  140.6940  142.9215 H   0  0  0  0  0  0  0  0  0  0  0  0  # atno 7974 bound_to 7965
  156.2783  140.2122  156.5734 H   0  0  0  0  0  0  0  0  0  0  0  0  # atno 8008 bound_to 7997
  154.7117  140.0511  157.0579 H   0  0  0  0  0  0  0  0  0  0  0  0  # atno 8009 bound_to 7997
  155.0597  140.3165  155.4668 H   0  0  0  0  0  0  0  0  0  0  0  0  # atno 8010 bound_to 7997
  139.8355  143.7391  152.2665 H   0  0  0  0  0  0  0  0  0  0  0  0  # atno 10167 bound_to 10162
  156.0648  130.4252  150.1617 H   0  0  0  0  0  0  0  0  0  0  0  0  # atno 10718 bound_to 10713
  153.0249  135.5237  154.7176 H   0  0  0  0  0  0  0  0  0  0  0  0  # atno 10763 bound_to 10752
  154.6240  135.2892  155.0295 H   0  0  0  0  0  0  0  0  0  0  0  0  # atno 10764 bound_to 10752
  154.1271  135.6598  153.4967 H   0  0  0  0  0  0  0  0  0  0  0  0  # atno 10765 bound_to 10752
  140.6993  134.3955  157.5211 H   0  0  0  0  0  0  0  0  0  0  0  0  # atno 11005 bound_to 11000
  144.6960  140.3433  143.7195 LP  0  0  0  0  0  0  0  0  0  0  0  0  # atno 17320 bound_to 7965
  145.7311  139.1736  143.2430 LP  0  0  0  0  0  0  0  0  0  0  0  0  # atno 17321 bound_to 7965
  139.7612  144.7506  151.0362 LP  0  0  0  0  0  0  0  0  0  0  0  0  # atno 17342 bound_to 10162
  140.7803  143.4749  151.0096 LP  0  0  0  0  0  0  0  0  0  0  0  0  # atno 17343 bound_to 10162
  156.9679  130.9825  151.3465 LP  0  0  0  0  0  0  0  0  0  0  0  0  # atno 17370 bound_to 10713
  157.5683  130.8292  149.8356 LP  0  0  0  0  0  0  0  0  0  0  0  0  # atno 17371 bound_to 10713
  139.8901  134.8813  156.2386 LP  0  0  0  0  0  0  0  0  0  0  0  0  # atno 17394 bound_to 11000
  141.0177  133.7059  156.1216 LP  0  0  0  0  0  0  0  0  0  0  0  0  # atno 17395 bound_to 11000

$$$$
