AV-unprocessed.smi:265|AV-procd|sdf|2025|dock7
  -GOLD-   2262021233D 1   1.00000     0.00000
 Structure written by MMmdl.
 52 56  0  0  0  0  0  0  0  0  1 V2000
  146.4800  138.3412  151.9535 C   0  0  0  0  0  0  0  0  0  0  0  0
  145.8469  137.0239  152.4301 C   0  0  2  0  0  0  0  0  0  0  0  0
  145.2300  136.3440  151.3463 O   0  0  0  0  0  0  0  0  0  0  0  0
  144.3564  135.3803  151.9057 C   0  0  0  0  0  0  0  0  0  0  0  0
  143.6677  136.1583  153.0204 C   0  0  0  0  0  0  0  0  0  0  0  0
  144.7485  137.1209  153.5227 C   0  0  2  0  0  0  0  0  0  0  0  0
  144.1843  138.4208  153.5881 O   0  0  0  0  0  0  0  0  0  0  0  0
  145.2561  136.7407  154.9356 C   0  0  0  0  0  0  0  0  0  0  0  0
  146.4102  137.5160  155.3664 N   0  0  0  0  0  0  0  0  0  0  0  0
  147.6736  137.4884  154.8197 C   0  0  0  0  0  0  0  0  0  0  0  0
  148.5456  138.2719  155.3922 N   0  0  0  0  0  0  0  0  0  0  0  0
  147.8266  138.9006  156.4017 C   0  0  0  0  0  0  0  0  0  0  0  0
  148.1531  139.8617  157.4000 C   0  0  0  0  0  0  0  0  0  0  0  0
  149.3936  140.3987  157.5214 N   0  0  0  0  0  0  0  0  0  0  0  0
  150.3837  139.6563  158.3011 C   0  0  0  0  0  0  0  0  0  0  0  0
  151.8017  140.1707  158.0098 C   0  0  0  0  0  0  0  0  0  0  0  0
  151.9112  141.6915  158.2074 C   0  0  2  0  0  0  0  0  0  0  0  0
  151.7785  142.0204  159.5842 O   0  0  0  0  0  0  0  0  0  0  0  0
  152.0474  143.3927  159.8772 C   0  0  0  0  0  0  0  0  0  0  0  0
  151.2928  144.3516  158.9374 C   0  0  0  0  0  0  0  0  0  0  0  0
  151.1843  145.5394  159.2320 O   0  0  0  0  0  0  0  0  0  0  0  0
  150.8062  143.8581  157.7874 N   0  0  0  0  0  0  0  0  0  0  0  0
  150.8009  142.4411  157.4395 C   0  0  2  0  0  0  0  0  0  0  0  0
  149.4091  141.8450  157.7313 C   0  0  0  0  0  0  0  0  0  0  0  0
  147.1620  140.2399  158.2513 N   0  0  0  0  0  0  0  0  0  0  0  0
  145.9353  139.7244  158.1309 C   0  0  0  0  0  0  0  0  0  0  0  0
  145.4896  138.8295  157.2477 N   0  0  0  0  0  0  0  0  0  0  0  0
  146.4807  138.4371  156.3974 C   0  0  0  0  0  0  0  0  0  0  0  0
  152.8947  142.0168  157.8625 H   0  0  0  0  0  0  0  0  0  0  0  0
  150.9970  142.3579  156.3696 H   0  0  0  0  0  0  0  0  0  0  0  0
  146.9488  138.8746  152.7809 H   0  0  0  0  0  0  0  0  0  0  0  0
  145.7405  139.0018  151.5006 H   0  0  0  0  0  0  0  0  0  0  0  0
  147.2497  138.1501  151.2059 H   0  0  0  0  0  0  0  0  0  0  0  0
  146.6435  136.3651  152.7774 H   0  0  0  0  0  0  0  0  0  0  0  0
  143.6557  134.9923  151.1662 H   0  0  0  0  0  0  0  0  0  0  0  0
  144.9341  134.5463  152.3078 H   0  0  0  0  0  0  0  0  0  0  0  0
  142.8229  136.7032  152.5952 H   0  0  0  0  0  0  0  0  0  0  0  0
  143.2723  135.5025  153.7971 H   0  0  0  0  0  0  0  0  0  0  0  0
  144.3402  138.8578  152.7651 H   0  0  0  0  0  0  0  0  0  0  0  0
  144.4631  136.8704  155.6733 H   0  0  0  0  0  0  0  0  0  0  0  0
  145.5246  135.6838  154.9633 H   0  0  0  0  0  0  0  0  0  0  0  0
  147.9330  136.8566  153.9826 H   0  0  0  0  0  0  0  0  0  0  0  0
  150.1589  139.7614  159.3636 H   0  0  0  0  0  0  0  0  0  0  0  0
  150.3308  138.5930  158.0633 H   0  0  0  0  0  0  0  0  0  0  0  0
  152.5255  139.6561  158.6420 H   0  0  0  0  0  0  0  0  0  0  0  0
  152.0630  139.9257  156.9796 H   0  0  0  0  0  0  0  0  0  0  0  0
  151.7701  143.5954  160.9121 H   0  0  0  0  0  0  0  0  0  0  0  0
  153.1179  143.5799  159.7866 H   0  0  0  0  0  0  0  0  0  0  0  0
  150.3423  144.4918  157.1529 H   0  0  0  0  0  0  0  0  0  0  0  0
  148.6658  142.3459  157.1115 H   0  0  0  0  0  0  0  0  0  0  0  0
  149.1283  142.0409  158.7673 H   0  0  0  0  0  0  0  0  0  0  0  0
  145.2068  140.0803  158.8447 H   0  0  0  0  0  0  0  0  0  0  0  0
  1  2  1  0  0  0  0
  1 31  1  0  0  0  0
  1 32  1  0  0  0  0
  1 33  1  0  0  0  0
  2  6  1  0  0  0  0
  2  3  1  0  0  0  0
  2 34  1  0  0  0  0
  3  4  1  0  0  0  0
  4  5  1  0  0  0  0
  4 35  1  0  0  0  0
  4 36  1  0  0  0  0
  5  6  1  0  0  0  0
  5 37  1  0  0  0  0
  5 38  1  0  0  0  0
  6  7  1  0  0  0  0
  6  8  1  0  0  0  0
  7 39  1  0  0  0  0
  8  9  1  0  0  0  0
  8 40  1  0  0  0  0
  8 41  1  0  0  0  0
  9 28  1  0  0  0  0
  9 10  1  0  0  0  0
 10 11  2  0  0  0  0
 10 42  1  0  0  0  0
 11 12  1  0  0  0  0
 12 28  2  0  0  0  0
 12 13  1  0  0  0  0
 13 14  1  0  0  0  0
 13 25  2  0  0  0  0
 14 24  1  0  0  0  0
 14 15  1  0  0  0  0
 15 16  1  0  0  0  0
 15 43  1  0  0  0  0
 15 44  1  0  0  0  0
 16 17  1  0  0  0  0
 16 45  1  0  0  0  0
 16 46  1  0  0  0  0
 17 29  1  0  0  0  0
 17 23  1  0  0  0  0
 17 18  1  0  0  0  0
 18 19  1  0  0  0  0
 19 20  1  0  0  0  0
 19 47  1  0  0  0  0
 19 48  1  0  0  0  0
 20 21  2  0  0  0  0
 20 22  1  0  0  0  0
 22 23  1  0  0  0  0
 22 49  1  0  0  0  0
 23 30  1  0  0  0  0
 23 24  1  0  0  0  0
 24 50  1  0  0  0  0
 24 51  1  0  0  0  0
 25 26  1  0  0  0  0
 26 27  2  0  0  0  0
 26 52  1  0  0  0  0
 27 28  1  0  0  0  0
M  END
> <s_m_source_file>
AV-unprocessed.smi

> <i_m_source_file_index>
265

> <i_lp_mmshare_version>
43012

> <i_f3d_flags>
0

> <s_epik_input>
W0NIMl0xW0NIMl1PW0NAQEhdKFtDSDNdKVtDQEBdMShbT0hdKVtDSDJdbihbY0hdbjIpYyhjMjMpbltjSF1uYzNOKFtDSDJdW0NIMl00KVtDSDJdW0NAQEhdKFtDQEhdNDUpW05IXUMoPU8pW0NIMl1PNQ==

> <s_epik_cmdline>
J2VwaWtfcHl0aG9uJywgJy1waCcsICc3LjAnLCAnLXRuJywgJzgnLCAnLW1hJywgJzIwMCcsICctbWV0YWxfYmluZGluZycsICctaW1hZScsICc8aW5maWxlLm1hZT4nLCAnLW9tYWUnLCAnPG91dGZpbGUubWFlPic=

> <r_lp_tautomer_probability>
1

> <r_epik_Ionization_Penalty>
0.00221504

> <r_epik_Ionization_Penalty_Charging>
0

> <r_epik_Ionization_Penalty_Neutral>
0.00221504

> <r_epik_State_Penalty>
-0

> <r_epik_Charging_Adjusted_Penalty>
0

> <i_epik_Tot_Q>
0

> <i_epik_Tot_abs_Q>
0

> <r_epik_Metal_State_Penalty>
-0

> <b_epik_Metal_Only>
0

> <s_lp_Force_Field>
OPLS_2005

> <r_lp_Energy>
44.0403

> <b_lp_Chiralities_Consistent>
1

> <s_lp_Variant>
AV-unprocessed.smi:265-11

> <Gold.Version>
5.8.1

> <Gold.Id.Protein>
6NUR|6NUR_protein|mol2

> <Gold.PLP.Fitness>
37.9210

> <Gold.PLP.PLP>
-31.6677

> <Gold.PLP.part.hbond>
-3.5810

> <Gold.PLP.part.metal>
0.0000

> <Gold.PLP.part.buried>
-6.2901

> <Gold.PLP.part.nonpolar>
-23.8803

> <Gold.PLP.part.repulsive>
1.3680

> <Gold.PLP.ligand.clash>
0.0000

> <Gold.PLP.ligand.torsion>
0.6312

> <Gold.PLP.Chemscore.Hbond>
1.3839

> <Gold.PLP.Chemscore.CHOScore>
1.0000

> <Gold.PLP.Chemscore.Metal>
0.0000

> <Gold.Chemscore.Hbonds>
donor molecule, donor type, donor heavy atom, donor atom, acceptor molecule, acceptor atom, score
      L1  H     7    39       P1 10175  0.42
      L1  H    22    49       P1  8028  0.87
      L1  C    10    42       P1  7948  1.00

> <Gold.PLP.Chemscore.Internal.Correction>
0.3639

> <Gold.Rescore>
     Score         DG    S(hbond)    S(metal)    S(lipo)     H(rot)  DE(clash)    DE(int)     intcor
     11.19     -12.38       1.68        0.00      60.19       2.25       0.61       0.58       ----

> <Gold.Chemscore.Fitness>
11.1931

> <Gold.Chemscore.DG>
-12.3847

> <Gold.Chemscore.ZeroCoef>
-5.4800

> <Gold.Chemscore.Hbond>
1.6798

> <Gold.Chemscore.Metal>
0.0000

> <Gold.Chemscore.Lipo>
60.1874

> <Gold.Chemscore.Internal_Hbond>
0.0000

> <Gold.Chemscore.DEClash>
0.6122

> <Gold.Chemscore.DEInternal>
0.5794

> <Gold.Chemscore.Rot>
2.2453

> <Gold.Chemscore.Internal.Correction>
   9.000000E+99

> <Gold.Chemscore.Hbonds>
donor molecule, donor type, donor heavy atom, donor atom, acceptor molecule, acceptor atom, score
      L1  H     7    39       P1 10175  0.40
      L1  H    22    49       P1  8028  0.57

> <Gold.Chemscore.Hbond.Weighted>
-5.6106

> <Gold.Chemscore.Metal.Weighted>
-0.0000

> <Gold.Chemscore.Lipo.Weighted>
-7.0419

> <Gold.Chemscore.Internal_Hbond.Weighted>
0.0000

> <Gold.Chemscore.DEClash.Weighted>
0.6122

> <Gold.Chemscore.DEInternal.Weighted>
0.5794

> <Gold.Chemscore.Rot.Weighted>
5.7479

> <Gold.Chemscore.Internal.Correction.Weighted>
   9.000000E+99

> <Gold.Protein.RotatedTorsions>
[ 6907 6896 6895 6894 ] final   19.67 input  -60.11 | X-H torsion
[ 7974 7965 7964 7962 ] final   63.98 input  175.53 | X-H torsion
[ 8008 7997 7996 7995 ] final  -32.06 input   59.86 | X-H torsion
[ 10167 10162 10161 10158 ] final  -59.59 input  -65.29 | X-H torsion
[ 10718 10713 10712 10709 ] final -115.05 input   66.30 | X-H torsion
[ 10763 10752 10751 10750 ] final  159.93 input  -60.55 | X-H torsion
[ 11005 11000 10999 10996 ] final  128.15 input  -57.11 | X-H torsion

> <Gold.Protein.ActiveResidues>
 VAL166  LYS551  ARG553  GLY616  TRP617  ASP618  TYR619  PRO620  LYS621  CYS622 
 ASP623  PHE694  ASN695  SER759  ASP760  ASP761  ALA762  ILE779  LEU786  VAL792 
 PHE793  MET794  SER795  GLU796  ALA797  LYS798  CYS799  TRP800  GLU811  SER814 

> <Gold.Protein.RotatedAtoms>
  151.8845  135.0441  160.0491 H   0  0  0  0  0  0  0  0  0  0  0  0  # atno 6907 bound_to 6896
  152.2486  133.5191  159.5320 H   0  0  0  0  0  0  0  0  0  0  0  0  # atno 6908 bound_to 6896
  150.7076  134.0907  159.3973 H   0  0  0  0  0  0  0  0  0  0  0  0  # atno 6909 bound_to 6896
  145.8555  139.3281  143.0850 H   0  0  0  0  0  0  0  0  0  0  0  0  # atno 7974 bound_to 7965
  154.4192  140.1747  156.1667 H   0  0  0  0  0  0  0  0  0  0  0  0  # atno 8008 bound_to 7997
  155.9794  140.3379  155.6624 H   0  0  0  0  0  0  0  0  0  0  0  0  # atno 8009 bound_to 7997
  155.6520  140.0691  157.2574 H   0  0  0  0  0  0  0  0  0  0  0  0  # atno 8010 bound_to 7997
  140.6125  143.2392  151.5675 H   0  0  0  0  0  0  0  0  0  0  0  0  # atno 10167 bound_to 10162
  156.0870  130.6060  150.8856 H   0  0  0  0  0  0  0  0  0  0  0  0  # atno 10718 bound_to 10713
  154.2394  135.2775  155.2859 H   0  0  0  0  0  0  0  0  0  0  0  0  # atno 10763 bound_to 10752
  154.5557  135.5662  153.6965 H   0  0  0  0  0  0  0  0  0  0  0  0  # atno 10764 bound_to 10752
  153.0003  135.6285  154.2538 H   0  0  0  0  0  0  0  0  0  0  0  0  # atno 10765 bound_to 10752
  139.9545  134.9615  156.8960 H   0  0  0  0  0  0  0  0  0  0  0  0  # atno 11005 bound_to 11000
  145.9308  140.9049  143.0357 LP  0  0  0  0  0  0  0  0  0  0  0  0  # atno 17320 bound_to 7965
  144.6728  140.1416  143.7436 LP  0  0  0  0  0  0  0  0  0  0  0  0  # atno 17321 bound_to 7965
  139.5372  144.2747  152.1277 LP  0  0  0  0  0  0  0  0  0  0  0  0  # atno 17342 bound_to 10162
  140.1949  144.4715  150.6460 LP  0  0  0  0  0  0  0  0  0  0  0  0  # atno 17343 bound_to 10162
  157.6008  131.0941  150.8964 LP  0  0  0  0  0  0  0  0  0  0  0  0  # atno 17370 bound_to 10713
  156.9121  130.5284  149.5280 LP  0  0  0  0  0  0  0  0  0  0  0  0  # atno 17371 bound_to 10713
  140.5640  134.0507  155.7408 LP  0  0  0  0  0  0  0  0  0  0  0  0  # atno 17394 bound_to 11000
  141.1214  133.9454  157.2721 LP  0  0  0  0  0  0  0  0  0  0  0  0  # atno 17395 bound_to 11000

$$$$
