AV-unprocessed.smi:568|AV-procd|sdf|2957|dock4
  -GOLD-   2262023463D 1   1.00000     0.00000
 Structure written by MMmdl.
 35 36  0  0  0  0  0  0  0  0  1 V2000
  152.7287  138.7280  154.7359 C   0  0  0  0  0  0  0  0  0  0  0  0
  151.6610  139.4889  155.4683 C   0  0  0  0  0  0  0  0  0  0  0  0
  150.8186  140.2456  154.7854 N   0  0  0  0  0  0  0  0  0  0  0  0
  149.9592  140.8123  155.7312 O   0  0  0  0  0  0  0  0  0  0  0  0
  150.3209  140.3682  156.9615 C   0  0  0  0  0  0  0  0  0  0  0  0
  149.5151  140.8667  158.1133 C   0  0  0  0  0  0  0  0  0  0  0  0
  151.3934  139.5236  156.8674 C   0  0  0  0  0  0  0  0  0  0  0  0
  152.1265  138.8016  157.9699 C   0  0  0  0  0  0  0  0  0  0  0  0
  152.9187  139.8060  158.8073 C   0  0  0  0  0  0  0  0  0  0  0  0
  154.1458  139.7323  158.8649 O   0  0  0  0  0  0  0  0  0  0  0  0
  152.2032  140.7433  159.4447 N   0  0  0  0  0  0  0  0  0  0  0  0
  152.7656  141.8232  160.2429 C   0  0  0  0  0  0  0  0  0  0  0  0
  152.0365  143.1454  159.9535 C   0  0  2  0  0  0  0  0  0  0  0  0
  152.5376  143.8914  158.7316 C   0  0  0  0  0  0  0  0  0  0  0  0
  152.0079  145.2997  158.9837 C   0  0  0  0  0  0  0  0  0  0  0  0
  151.9687  145.4559  160.3998 O   0  0  0  0  0  0  0  0  0  0  0  0
  152.2149  144.2064  161.0384 C   0  0  0  0  0  0  0  0  0  0  0  0
  153.5960  138.5515  155.3719 H   0  0  0  0  0  0  0  0  0  0  0  0
  153.0744  139.2719  153.8563 H   0  0  0  0  0  0  0  0  0  0  0  0
  152.3574  137.7584  154.4040 H   0  0  0  0  0  0  0  0  0  0  0  0
  150.1196  140.9246  159.0183 H   0  0  0  0  0  0  0  0  0  0  0  0
  148.6745  140.2015  158.3102 H   0  0  0  0  0  0  0  0  0  0  0  0
  149.1202  141.8625  157.9111 H   0  0  0  0  0  0  0  0  0  0  0  0
  151.4383  138.2621  158.6215 H   0  0  0  0  0  0  0  0  0  0  0  0
  152.8095  138.0531  157.5667 H   0  0  0  0  0  0  0  0  0  0  0  0
  151.1990  140.7253  159.3421 H   0  0  0  0  0  0  0  0  0  0  0  0
  152.6769  141.5690  161.3000 H   0  0  0  0  0  0  0  0  0  0  0  0
  153.8303  141.9264  160.0253 H   0  0  0  0  0  0  0  0  0  0  0  0
  150.9691  142.9525  159.8307 H   0  0  0  0  0  0  0  0  0  0  0  0
  153.6284  143.8993  158.7110 H   0  0  0  0  0  0  0  0  0  0  0  0
  152.1824  143.4686  157.7912 H   0  0  0  0  0  0  0  0  0  0  0  0
  152.6248  146.0661  158.5143 H   0  0  0  0  0  0  0  0  0  0  0  0
  150.9930  145.3981  158.5967 H   0  0  0  0  0  0  0  0  0  0  0  0
  151.5458  144.0539  161.8857 H   0  0  0  0  0  0  0  0  0  0  0  0
  153.2393  144.2092  161.4136 H   0  0  0  0  0  0  0  0  0  0  0  0
  1  2  1  0  0  0  0
  1 18  1  0  0  0  0
  1 19  1  0  0  0  0
  1 20  1  0  0  0  0
  2  7  1  0  0  0  0
  2  3  2  0  0  0  0
  3  4  1  0  0  0  0
  4  5  1  0  0  0  0
  5  6  1  0  0  0  0
  5  7  2  0  0  0  0
  6 21  1  0  0  0  0
  6 22  1  0  0  0  0
  6 23  1  0  0  0  0
  7  8  1  0  0  0  0
  8  9  1  0  0  0  0
  8 24  1  0  0  0  0
  8 25  1  0  0  0  0
  9 10  2  0  0  0  0
  9 11  1  0  0  0  0
 11 12  1  0  0  0  0
 11 26  1  0  0  0  0
 12 13  1  0  0  0  0
 12 27  1  0  0  0  0
 12 28  1  0  0  0  0
 13 17  1  0  0  0  0
 13 14  1  0  0  0  0
 13 29  1  0  0  0  0
 14 15  1  0  0  0  0
 14 30  1  0  0  0  0
 14 31  1  0  0  0  0
 15 16  1  0  0  0  0
 15 32  1  0  0  0  0
 15 33  1  0  0  0  0
 16 17  1  0  0  0  0
 17 34  1  0  0  0  0
 17 35  1  0  0  0  0
M  END
> <s_m_source_file>
AV-unprocessed.smi

> <i_m_source_file_index>
568

> <i_lp_mmshare_version>
43012

> <i_f3d_flags>
0

> <s_epik_input>
W0NIM11jMW5vYyhbQ0gzXSljMVtDSDJdQyg9TylbTkhdW0NIMl1bQ0BASF0yW0NIMl1bQ0gyXU9bQ0gyXTI=

> <s_epik_cmdline>
J2VwaWtfcHl0aG9uJywgJy1waCcsICc3LjAnLCAnLXRuJywgJzgnLCAnLW1hJywgJzIwMCcsICctbWV0YWxfYmluZGluZycsICctaW1hZScsICc8aW5maWxlLm1hZT4nLCAnLW9tYWUnLCAnPG91dGZpbGUubWFlPic=

> <r_lp_tautomer_probability>
1

> <r_epik_Ionization_Penalty>
2.07075e-08

> <r_epik_Ionization_Penalty_Charging>
0

> <r_epik_Ionization_Penalty_Neutral>
2.07075e-08

> <r_epik_State_Penalty>
-0

> <r_epik_Charging_Adjusted_Penalty>
0

> <i_epik_Tot_Q>
0

> <i_epik_Tot_abs_Q>
0

> <r_epik_Metal_State_Penalty>
-0

> <b_epik_Metal_Only>
0

> <s_lp_Force_Field>
OPLS_2005

> <r_lp_Energy>
12.0647

> <b_lp_Chiralities_Consistent>
1

> <s_lp_Variant>
AV-unprocessed.smi:568-1

> <Gold.Version>
5.8.1

> <Gold.Id.Protein>
6NUR|6NUR_protein|mol2

> <Gold.PLP.Fitness>
42.4990

> <Gold.PLP.PLP>
-37.3835

> <Gold.PLP.part.hbond>
-1.9503

> <Gold.PLP.part.metal>
0.0000

> <Gold.PLP.part.buried>
-4.6386

> <Gold.PLP.part.nonpolar>
-30.4904

> <Gold.PLP.part.repulsive>
0.4518

> <Gold.PLP.ligand.clash>
0.0000

> <Gold.PLP.ligand.torsion>
0.4346

> <Gold.PLP.Chemscore.Hbond>
1.9913

> <Gold.PLP.Chemscore.CHOScore>
0.0000

> <Gold.PLP.Chemscore.Metal>
0.0000

> <Gold.Chemscore.Hbonds>
donor molecule, donor type, donor heavy atom, donor atom, acceptor molecule, acceptor atom, score
      P1  H  7989  7998       L1     3  1.00
      P1  H  7997  8008       L1    10  1.00

> <Gold.PLP.Chemscore.Internal.Correction>
0.0111

> <Gold.Rescore>
     Score         DG    S(hbond)    S(metal)    S(lipo)     H(rot)  DE(clash)    DE(int)     intcor
     18.11     -18.58       1.85        0.00      93.21       1.56       0.01       0.46       ----

> <Gold.Chemscore.Fitness>
18.1149

> <Gold.Chemscore.DG>
-18.5825

> <Gold.Chemscore.ZeroCoef>
-5.4800

> <Gold.Chemscore.Hbond>
1.8498

> <Gold.Chemscore.Metal>
0.0000

> <Gold.Chemscore.Lipo>
93.2051

> <Gold.Chemscore.Internal_Hbond>
0.0000

> <Gold.Chemscore.DEClash>
0.0073

> <Gold.Chemscore.DEInternal>
0.4602

> <Gold.Chemscore.Rot>
1.5551

> <Gold.Chemscore.Internal.Correction>
   9.000000E+99

> <Gold.Chemscore.Hbonds>
donor molecule, donor type, donor heavy atom, donor atom, acceptor molecule, acceptor atom, score
      P1  H  7989  7998       L1     3  0.65
      P1  H  7997  8008       L1    10  0.93

> <Gold.Chemscore.Hbond.Weighted>
-6.1784

> <Gold.Chemscore.Metal.Weighted>
-0.0000

> <Gold.Chemscore.Lipo.Weighted>
-10.9050

> <Gold.Chemscore.Internal_Hbond.Weighted>
0.0000

> <Gold.Chemscore.DEClash.Weighted>
0.0073

> <Gold.Chemscore.DEInternal.Weighted>
0.4602

> <Gold.Chemscore.Rot.Weighted>
3.9809

> <Gold.Chemscore.Internal.Correction.Weighted>
   9.000000E+99

> <Gold.Protein.RotatedTorsions>
[ 6907 6896 6895 6894 ] final  106.45 input  -60.11 | X-H torsion
[ 7974 7965 7964 7962 ] final    6.52 input  175.53 | X-H torsion
[ 8008 7997 7996 7995 ] final -120.82 input   59.86 | X-H torsion
[ 10167 10162 10161 10158 ] final   48.38 input  -65.29 | X-H torsion
[ 10718 10713 10712 10709 ] final   12.34 input   66.30 | X-H torsion
[ 10763 10752 10751 10750 ] final -175.13 input  -60.55 | X-H torsion
[ 11005 11000 10999 10996 ] final  -65.64 input  -57.11 | X-H torsion

> <Gold.Protein.ActiveResidues>
 VAL166  LYS551  ARG553  GLY616  TRP617  ASP618  TYR619  PRO620  LYS621  CYS622 
 ASP623  PHE694  ASN695  SER759  ASP760  ASP761  ALA762  ILE779  LEU786  VAL792 
 PHE793  MET794  SER795  GLU796  ALA797  LYS798  CYS799  TRP800  GLU811  SER814 

> <Gold.Protein.RotatedAtoms>
  152.5193  133.9380  159.7612 H   0  0  0  0  0  0  0  0  0  0  0  0  # atno 6907 bound_to 6896
  150.9716  133.6330  159.2744 H   0  0  0  0  0  0  0  0  0  0  0  0  # atno 6908 bound_to 6896
  151.3539  135.0896  159.9465 H   0  0  0  0  0  0  0  0  0  0  0  0  # atno 6909 bound_to 6896
  146.2434  140.0220  142.8397 H   0  0  0  0  0  0  0  0  0  0  0  0  # atno 7974 bound_to 7965
  155.1380  140.0401  157.2791 H   0  0  0  0  0  0  0  0  0  0  0  0  # atno 8008 bound_to 7997
  154.6494  140.2565  155.7205 H   0  0  0  0  0  0  0  0  0  0  0  0  # atno 8009 bound_to 7997
  156.2570  140.2839  156.0921 H   0  0  0  0  0  0  0  0  0  0  0  0  # atno 8010 bound_to 7997
  140.2939  144.3013  150.6234 H   0  0  0  0  0  0  0  0  0  0  0  0  # atno 10167 bound_to 10162
  157.0087  130.6108  149.5705 H   0  0  0  0  0  0  0  0  0  0  0  0  # atno 10718 bound_to 10713
  154.5880  135.2842  155.0664 H   0  0  0  0  0  0  0  0  0  0  0  0  # atno 10763 bound_to 10752
  154.1976  135.6430  153.5081 H   0  0  0  0  0  0  0  0  0  0  0  0  # atno 10764 bound_to 10752
  153.0111  135.5461  154.6556 H   0  0  0  0  0  0  0  0  0  0  0  0  # atno 10765 bound_to 10752
  141.1460  133.6685  156.6018 H   0  0  0  0  0  0  0  0  0  0  0  0  # atno 11005 bound_to 11000
  145.1232  140.9475  143.4588 LP  0  0  0  0  0  0  0  0  0  0  0  0  # atno 17320 bound_to 7965
  145.0460  139.3220  143.5952 LP  0  0  0  0  0  0  0  0  0  0  0  0  # atno 17321 bound_to 7965
  140.5709  143.2181  151.7601 LP  0  0  0  0  0  0  0  0  0  0  0  0  # atno 17342 bound_to 10162
  139.4931  144.4218  151.9969 LP  0  0  0  0  0  0  0  0  0  0  0  0  # atno 17343 bound_to 10162
  156.0144  130.5237  150.8089 LP  0  0  0  0  0  0  0  0  0  0  0  0  # atno 17370 bound_to 10713
  157.5336  131.0938  150.9922 LP  0  0  0  0  0  0  0  0  0  0  0  0  # atno 17371 bound_to 10713
  140.3683  134.7628  157.4581 LP  0  0  0  0  0  0  0  0  0  0  0  0  # atno 17394 bound_to 11000
  140.0731  134.5835  155.8621 LP  0  0  0  0  0  0  0  0  0  0  0  0  # atno 17395 bound_to 11000

$$$$
