AV-unprocessed.smi:153|AV-procd|sdf|1255|dock4
  -GOLD-   2262018493D 1   1.00000     0.00000
 Structure written by MMmdl.
 60 63  0  0  0  0  0  0  0  0  2 V2000
  149.9513  143.9362  158.4521 C   0  0  0  0  0  0  0  0  0  0  0  0
  151.2472  143.2435  157.9996 C   0  0  1  0  0  0  0  0  0  0  0  0
  152.2771  143.5902  158.9230 O   0  0  0  0  0  0  0  0  0  0  0  0
  153.1571  142.4903  159.0728 C   0  0  0  0  0  0  0  0  0  0  0  0
  152.2054  141.3062  159.0491 C   0  0  0  0  0  0  0  0  0  0  0  0
  151.2204  141.6903  157.9451 C   0  0  1  0  0  0  0  0  0  0  0  0
  149.9507  141.1538  158.2749 O   0  0  0  0  0  0  0  0  0  0  0  0
  151.6204  141.1754  156.5356 C   0  0  0  0  0  0  0  0  0  0  0  0
  150.5081  141.0414  155.6057 N   0  0  0  0  0  0  0  0  0  0  0  0
  149.9187  142.0517  154.8826 C   0  0  0  0  0  0  0  0  0  0  0  0
  148.9422  141.6780  154.1036 N   0  0  0  0  0  0  0  0  0  0  0  0
  148.8258  140.3081  154.3183 C   0  0  0  0  0  0  0  0  0  0  0  0
  147.9854  139.2750  153.7976 C   0  0  0  0  0  0  0  0  0  0  0  0
  147.0028  139.4509  152.8686 N   0  0  0  0  0  0  0  0  0  0  0  0
  146.6603  140.7950  152.4191 C   0  0  0  0  0  0  0  0  0  0  0  0
  146.6119  138.3220  152.0209 C   0  0  0  0  0  0  0  0  0  0  0  0
  145.5394  137.4300  152.6795 C   0  0  1  0  0  0  0  0  0  0  0  0
  144.2642  137.9342  152.3329 O   0  0  0  0  0  0  0  0  0  0  0  0
  145.6190  135.9786  152.1648 C   0  0  0  0  0  0  0  0  0  0  0  0
  146.8554  135.2801  152.6016 N   0  3  0  0  0  0  0  0  0  0  0  0
  147.0383  135.3186  154.0721 C   0  0  0  0  0  0  0  0  0  0  0  0
  148.3627  134.6442  154.4678 C   0  0  0  0  0  0  0  0  0  0  0  0
  148.3810  133.3080  153.9814 O   0  0  0  0  0  0  0  0  0  0  0  0
  148.2926  133.2574  152.5630 C   0  0  0  0  0  0  0  0  0  0  0  0
  146.9660  133.8862  152.1036 C   0  0  0  0  0  0  0  0  0  0  0  0
  148.1978  138.0172  154.2688 N   0  0  0  0  0  0  0  0  0  0  0  0
  149.1468  137.7749  155.1761 C   0  0  0  0  0  0  0  0  0  0  0  0
  149.9980  138.6319  155.7378 N   0  0  0  0  0  0  0  0  0  0  0  0
  149.8038  139.8975  155.2719 C   0  0  0  0  0  0  0  0  0  0  0  0
  149.1291  143.7231  157.7684 H   0  0  0  0  0  0  0  0  0  0  0  0
  150.0815  145.0181  158.4824 H   0  0  0  0  0  0  0  0  0  0  0  0
  149.6555  143.6121  159.4505 H   0  0  0  0  0  0  0  0  0  0  0  0
  151.5324  143.6457  157.0262 H   0  0  0  0  0  0  0  0  0  0  0  0
  153.8551  142.4537  158.2352 H   0  0  0  0  0  0  0  0  0  0  0  0
  153.7278  142.5549  159.9993 H   0  0  0  0  0  0  0  0  0  0  0  0
  152.7142  140.3550  158.9020 H   0  0  0  0  0  0  0  0  0  0  0  0
  151.6967  141.2535  160.0134 H   0  0  0  0  0  0  0  0  0  0  0  0
  150.0710  140.2757  158.6029 H   0  0  0  0  0  0  0  0  0  0  0  0
  152.3598  141.8418  156.0890 H   0  0  0  0  0  0  0  0  0  0  0  0
  152.1040  140.2010  156.6164 H   0  0  0  0  0  0  0  0  0  0  0  0
  150.2478  143.0793  154.9398 H   0  0  0  0  0  0  0  0  0  0  0  0
  146.5108  141.4632  153.2678 H   0  0  0  0  0  0  0  0  0  0  0  0
  145.7337  140.7877  151.8451 H   0  0  0  0  0  0  0  0  0  0  0  0
  147.4454  141.2023  151.7816 H   0  0  0  0  0  0  0  0  0  0  0  0
  146.3072  138.6382  151.0225 H   0  0  0  0  0  0  0  0  0  0  0  0
  147.5121  137.7280  151.8605 H   0  0  0  0  0  0  0  0  0  0  0  0
  145.6564  137.4543  153.7624 H   0  0  0  0  0  0  0  0  0  0  0  0
  144.1756  138.8024  152.6971 H   0  0  0  0  0  0  0  0  0  0  0  0
  144.7453  135.4342  152.5280 H   0  0  0  0  0  0  0  0  0  0  0  0
  145.5607  135.9542  151.0753 H   0  0  0  0  0  0  0  0  0  0  0  0
  147.0375  136.3524  154.4200 H   0  0  0  0  0  0  0  0  0  0  0  0
  146.2015  134.8147  154.5587 H   0  0  0  0  0  0  0  0  0  0  0  0
  149.2164  135.1996  154.0761 H   0  0  0  0  0  0  0  0  0  0  0  0
  148.4654  134.6263  155.5529 H   0  0  0  0  0  0  0  0  0  0  0  0
  149.1438  133.7724  152.1144 H   0  0  0  0  0  0  0  0  0  0  0  0
  148.3458  132.2168  152.2426 H   0  0  0  0  0  0  0  0  0  0  0  0
  146.1268  133.2957  152.4750 H   0  0  0  0  0  0  0  0  0  0  0  0
  146.9176  133.8608  151.0158 H   0  0  0  0  0  0  0  0  0  0  0  0
  149.2399  136.7467  155.4937 H   0  0  0  0  0  0  0  0  0  0  0  0
  147.6268  135.7995  152.2065 H   0  0  0  0  0  0  0  0  0  0  0  0
  1  2  1  0  0  0  0
  1 30  1  0  0  0  0
  1 31  1  0  0  0  0
  1 32  1  0  0  0  0
  2  6  1  0  0  0  0
  2  3  1  0  0  0  0
  2 33  1  0  0  0  0
  3  4  1  0  0  0  0
  4  5  1  0  0  0  0
  4 34  1  0  0  0  0
  4 35  1  0  0  0  0
  5  6  1  0  0  0  0
  5 36  1  0  0  0  0
  5 37  1  0  0  0  0
  6  7  1  0  0  0  0
  6  8  1  0  0  0  0
  7 38  1  0  0  0  0
  8  9  1  0  0  0  0
  8 39  1  0  0  0  0
  8 40  1  0  0  0  0
  9 29  1  0  0  0  0
  9 10  1  0  0  0  0
 10 11  2  0  0  0  0
 10 41  1  0  0  0  0
 11 12  1  0  0  0  0
 12 29  2  0  0  0  0
 12 13  1  0  0  0  0
 13 14  1  0  0  0  0
 13 26  2  0  0  0  0
 14 15  1  0  0  0  0
 14 16  1  0  0  0  0
 15 42  1  0  0  0  0
 15 43  1  0  0  0  0
 15 44  1  0  0  0  0
 16 17  1  0  0  0  0
 16 45  1  0  0  0  0
 16 46  1  0  0  0  0
 17 18  1  0  0  0  0
 17 19  1  0  0  0  0
 17 47  1  0  0  0  0
 18 48  1  0  0  0  0
 19 20  1  0  0  0  0
 19 49  1  0  0  0  0
 19 50  1  0  0  0  0
 20 25  1  0  0  0  0
 20 21  1  0  0  0  0
 20 60  1  0  0  0  0
 21 22  1  0  0  0  0
 21 51  1  0  0  0  0
 21 52  1  0  0  0  0
 22 23  1  0  0  0  0
 22 53  1  0  0  0  0
 22 54  1  0  0  0  0
 23 24  1  0  0  0  0
 24 25  1  0  0  0  0
 24 55  1  0  0  0  0
 24 56  1  0  0  0  0
 25 57  1  0  0  0  0
 25 58  1  0  0  0  0
 26 27  1  0  0  0  0
 27 28  2  0  0  0  0
 27 59  1  0  0  0  0
 28 29  1  0  0  0  0
M  CHG  1  20   1
M  END
> <s_m_source_file>
AV-unprocessed.smi

> <i_m_source_file_index>
153

> <i_lp_mmshare_version>
43012

> <i_f3d_flags>
0

> <s_epik_input>
W0NIMl0xW0NIMl1PW0NAQEhdKFtDSDNdKVtDQEBdMShbT0hdKVtDSDJdbihbY0hdbjIpYyhjMjMpbltjSF1uYzNOKFtDSDNdKVtDSDJdW0NASF0oW09IXSlbQ0gyXU40W0NIMl1bQ0gyXU9bQ0gyXVtDSDJdNA==

> <s_epik_cmdline>
J2VwaWtfcHl0aG9uJywgJy1waCcsICc3LjAnLCAnLXRuJywgJzgnLCAnLW1hJywgJzIwMCcsICctbWV0YWxfYmluZGluZycsICctaW1hZScsICc8aW5maWxlLm1hZT4nLCAnLW9tYWUnLCAnPG91dGZpbGUubWFlPic=

> <r_lp_tautomer_probability>
1

> <r_epik_Ionization_Penalty>
0.403509

> <r_epik_Ionization_Penalty_Charging>
0.40072

> <r_epik_Ionization_Penalty_Neutral>
0.00278876

> <r_epik_State_Penalty>
0.400058

> <r_epik_Charging_Adjusted_Penalty>
0.800778

> <i_epik_Tot_Q>
1

> <i_epik_Tot_abs_Q>
1

> <r_epik_Metal_State_Penalty>
0.400321

> <b_epik_Metal_Only>
0

> <s_lp_Force_Field>
OPLS_2005

> <r_lp_Energy>
46.896

> <b_lp_Chiralities_Consistent>
1

> <s_lp_Variant>
AV-unprocessed.smi:153-6

> <Gold.Version>
5.8.1

> <Gold.Id.Protein>
6NUR|6NUR_protein|mol2

> <Gold.PLP.Fitness>
51.3195

> <Gold.PLP.PLP>
-41.3773

> <Gold.PLP.part.hbond>
-4.1973

> <Gold.PLP.part.metal>
0.0000

> <Gold.PLP.part.buried>
-0.8026

> <Gold.PLP.part.nonpolar>
-36.8222

> <Gold.PLP.part.repulsive>
0.9281

> <Gold.PLP.ligand.clash>
0.0000

> <Gold.PLP.ligand.torsion>
1.4493

> <Gold.PLP.Chemscore.Hbond>
3.2927

> <Gold.PLP.Chemscore.CHOScore>
0.8301

> <Gold.PLP.Chemscore.Metal>
0.0000

> <Gold.Chemscore.Hbonds>
donor molecule, donor type, donor heavy atom, donor atom, acceptor molecule, acceptor atom, score
      L1  H    18    48       P1 10175  0.94
      L1  H    20    60       P1  7948  1.43
      P1  H  8011  8017       L1    11  0.37
      L1  C    10    41       P1  8028  0.85

> <Gold.PLP.Chemscore.Internal.Correction>
0.4726

> <Gold.Rescore>
     Score         DG    S(hbond)    S(metal)    S(lipo)     H(rot)  DE(clash)    DE(int)     intcor
      9.80     -13.83       2.02        0.00      92.94       3.62       1.73       2.30       ----

> <Gold.Chemscore.Fitness>
9.7983

> <Gold.Chemscore.DG>
-13.8292

> <Gold.Chemscore.ZeroCoef>
-5.4800

> <Gold.Chemscore.Hbond>
2.0173

> <Gold.Chemscore.Metal>
0.0000

> <Gold.Chemscore.Lipo>
92.9402

> <Gold.Chemscore.Internal_Hbond>
0.0000

> <Gold.Chemscore.DEClash>
1.7325

> <Gold.Chemscore.DEInternal>
2.2984

> <Gold.Chemscore.Rot>
3.6182

> <Gold.Chemscore.Internal.Correction>
   9.000000E+99

> <Gold.Chemscore.Hbonds>
donor molecule, donor type, donor heavy atom, donor atom, acceptor molecule, acceptor atom, score
      L1  H    18    48       P1 10175  0.91
      L1  H    20    60       P1  7948  0.71
      P1  H  8011  8017       L1    11  0.04

> <Gold.Chemscore.Hbond.Weighted>
-6.7376

> <Gold.Chemscore.Metal.Weighted>
-0.0000

> <Gold.Chemscore.Lipo.Weighted>
-10.8740

> <Gold.Chemscore.Internal_Hbond.Weighted>
0.0000

> <Gold.Chemscore.DEClash.Weighted>
1.7325

> <Gold.Chemscore.DEInternal.Weighted>
2.2984

> <Gold.Chemscore.Rot.Weighted>
9.2625

> <Gold.Chemscore.Internal.Correction.Weighted>
   9.000000E+99

> <Gold.Protein.RotatedTorsions>
[ 6907 6896 6895 6894 ] final  163.61 input  -60.11 | X-H torsion
[ 7974 7965 7964 7962 ] final   70.31 input  175.53 | X-H torsion
[ 8008 7997 7996 7995 ] final -103.37 input   59.86 | X-H torsion
[ 10167 10162 10161 10158 ] final    4.56 input  -65.29 | X-H torsion
[ 10718 10713 10712 10709 ] final   95.96 input   66.30 | X-H torsion
[ 10763 10752 10751 10750 ] final -157.53 input  -60.55 | X-H torsion
[ 11005 11000 10999 10996 ] final -172.17 input  -57.11 | X-H torsion

> <Gold.Protein.ActiveResidues>
 VAL166  LYS551  ARG553  GLY616  TRP617  ASP618  TYR619  PRO620  LYS621  CYS622 
 ASP623  PHE694  ASN695  SER759  ASP760  ASP761  ALA762  ILE779  LEU786  VAL792 
 PHE793  MET794  SER795  GLU796  ALA797  LYS798  CYS799  TRP800  GLU811  SER814 

> <Gold.Protein.RotatedAtoms>
  151.9225  133.3589  159.3901 H   0  0  0  0  0  0  0  0  0  0  0  0  # atno 6907 bound_to 6896
  150.7034  134.4621  159.5395 H   0  0  0  0  0  0  0  0  0  0  0  0  # atno 6908 bound_to 6896
  152.2247  134.8380  160.0532 H   0  0  0  0  0  0  0  0  0  0  0  0  # atno 6909 bound_to 6896
  145.7797  139.2882  143.1273 H   0  0  0  0  0  0  0  0  0  0  0  0  # atno 7974 bound_to 7965
  154.8699  140.0423  157.1718 H   0  0  0  0  0  0  0  0  0  0  0  0  # atno 8008 bound_to 7997
  154.8750  140.2964  155.5438 H   0  0  0  0  0  0  0  0  0  0  0  0  # atno 8009 bound_to 7997
  156.2999  140.2422  156.3744 H   0  0  0  0  0  0  0  0  0  0  0  0  # atno 8010 bound_to 7997
  140.6528  143.7501  150.7604 H   0  0  0  0  0  0  0  0  0  0  0  0  # atno 10167 bound_to 10162
  157.6933  131.0563  150.4419 H   0  0  0  0  0  0  0  0  0  0  0  0  # atno 10718 bound_to 10713
  154.7629  135.3123  154.8344 H   0  0  0  0  0  0  0  0  0  0  0  0  # atno 10763 bound_to 10752
  153.9100  135.6807  153.4755 H   0  0  0  0  0  0  0  0  0  0  0  0  # atno 10764 bound_to 10752
  153.1231  135.4813  154.9160 H   0  0  0  0  0  0  0  0  0  0  0  0  # atno 10765 bound_to 10752
  140.5000  134.5903  157.4984 H   0  0  0  0  0  0  0  0  0  0  0  0  # atno 11005 bound_to 11000
  146.0087  140.8455  142.9982 LP  0  0  0  0  0  0  0  0  0  0  0  0  # atno 17320 bound_to 7965
  144.6798  140.2457  143.7338 LP  0  0  0  0  0  0  0  0  0  0  0  0  # atno 17321 bound_to 7965
  140.1155  143.4660  152.2344 LP  0  0  0  0  0  0  0  0  0  0  0  0  # atno 17342 bound_to 10162
  139.5746  144.7481  151.3799 LP  0  0  0  0  0  0  0  0  0  0  0  0  # atno 17343 bound_to 10162
  156.4777  130.4067  149.6480 LP  0  0  0  0  0  0  0  0  0  0  0  0  # atno 17370 bound_to 10713
  156.3537  130.7445  151.2408 LP  0  0  0  0  0  0  0  0  0  0  0  0  # atno 17371 bound_to 10713
  139.9719  134.7279  156.0025 LP  0  0  0  0  0  0  0  0  0  0  0  0  # atno 17394 bound_to 11000
  141.1440  133.6559  156.3814 LP  0  0  0  0  0  0  0  0  0  0  0  0  # atno 17395 bound_to 11000

$$$$
