AV-unprocessed.smi:2154|AV-procd|sdf|8776|dock3
  -GOLD-   2272011553D 1   1.00000     0.00000
 Structure written by MMmdl.
 31 32  0  0  0  0  0  0  0  0  2 V2000
  153.1294  142.8987  160.0405 C   0  0  0  0  0  0  0  0  0  0  0  0
  153.0418  143.8966  158.9032 C   0  0  2  0  0  0  0  0  0  0  0  0
  152.0469  145.0323  158.9513 C   0  0  0  0  0  0  0  0  0  0  0  0
  151.8743  143.9254  157.9361 C   0  0  2  0  0  0  0  0  0  0  0  0
  150.7215  142.9410  158.0378 C   0  0  0  0  0  0  0  0  0  0  0  0
  150.0543  142.6454  156.7771 N   0  0  0  0  0  0  0  0  0  0  0  0
  150.2955  141.5688  156.0144 C   0  0  0  0  0  0  0  0  0  0  0  0
  151.1101  140.6958  156.3178 O   0  0  0  0  0  0  0  0  0  0  0  0
  149.4645  141.4535  154.7292 C   0  0  0  0  0  0  0  0  0  0  0  0
  148.0220  141.3158  154.9872 N   0  0  0  0  0  0  0  0  0  0  0  0
  147.1720  142.3278  154.5076 C   0  0  0  0  0  0  0  0  0  0  0  0
  145.8397  142.2869  154.6997 C   0  0  0  0  0  0  0  0  0  0  0  0
  145.2816  141.1538  155.4272 C   0  0  0  0  0  0  0  0  0  0  0  0
  144.0667  141.0975  155.6078 O   0  0  0  0  0  0  0  0  0  0  0  0
  146.1482  140.1993  155.8771 N   0  5  0  0  0  0  0  0  0  0  0  0
  147.5016  140.2556  155.6764 C   0  0  0  0  0  0  0  0  0  0  0  0
  148.2662  139.3845  156.0930 O   0  0  0  0  0  0  0  0  0  0  0  0
  152.1696  142.7879  160.5447 H   0  0  0  0  0  0  0  0  0  0  0  0
  153.8621  143.2352  160.7740 H   0  0  0  0  0  0  0  0  0  0  0  0
  153.4397  141.9250  159.6617 H   0  0  0  0  0  0  0  0  0  0  0  0
  154.0104  144.1288  158.4644 H   0  0  0  0  0  0  0  0  0  0  0  0
  151.3508  145.0631  159.7875 H   0  0  0  0  0  0  0  0  0  0  0  0
  152.3712  146.0034  158.5828 H   0  0  0  0  0  0  0  0  0  0  0  0
  152.1422  144.1673  156.9091 H   0  0  0  0  0  0  0  0  0  0  0  0
  151.1111  142.0017  158.4307 H   0  0  0  0  0  0  0  0  0  0  0  0
  149.9873  143.2962  158.7623 H   0  0  0  0  0  0  0  0  0  0  0  0
  149.3669  143.3109  156.4546 H   0  0  0  0  0  0  0  0  0  0  0  0
  149.6592  142.3372  154.1203 H   0  0  0  0  0  0  0  0  0  0  0  0
  149.8199  140.6111  154.1326 H   0  0  0  0  0  0  0  0  0  0  0  0
  147.6657  143.1341  153.9854 H   0  0  0  0  0  0  0  0  0  0  0  0
  145.2010  143.0743  154.3272 H   0  0  0  0  0  0  0  0  0  0  0  0
  1  2  1  0  0  0  0
  1 18  1  0  0  0  0
  1 19  1  0  0  0  0
  1 20  1  0  0  0  0
  2  4  1  0  0  0  0
  2  3  1  0  0  0  0
  2 21  1  0  0  0  0
  3  4  1  0  0  0  0
  3 22  1  0  0  0  0
  3 23  1  0  0  0  0
  4  5  1  0  0  0  0
  4 24  1  0  0  0  0
  5  6  1  0  0  0  0
  5 25  1  0  0  0  0
  5 26  1  0  0  0  0
  6  7  1  0  0  0  0
  6 27  1  0  0  0  0
  7  8  2  0  0  0  0
  7  9  1  0  0  0  0
  9 10  1  0  0  0  0
  9 28  1  0  0  0  0
  9 29  1  0  0  0  0
 10 16  1  0  0  0  0
 10 11  1  0  0  0  0
 11 12  2  0  0  0  0
 11 30  1  0  0  0  0
 12 13  1  0  0  0  0
 12 31  1  0  0  0  0
 13 14  2  0  0  0  0
 13 15  1  0  0  0  0
 15 16  1  0  0  0  0
 16 17  2  0  0  0  0
M  CHG  1  15  -1
M  END
> <s_m_source_file>
AV-unprocessed.smi

> <i_m_source_file_index>
2154

> <i_lp_mmshare_version>
43012

> <i_f3d_flags>
0

> <s_epik_input>
W0NIM11bQ0BASF0xW0NIMl1bQ0BIXTFbQ0gyXVtOSF1DKD1PKVtDSDJdbjJbY0hdW2NIXWMoPU8pW25IXWMyPU8=

> <s_epik_cmdline>
J2VwaWtfcHl0aG9uJywgJy1waCcsICc3LjAnLCAnLXRuJywgJzgnLCAnLW1hJywgJzIwMCcsICctbWV0YWxfYmluZGluZycsICctaW1hZScsICc8aW5maWxlLm1hZT4nLCAnLW9tYWUnLCAnPG91dGZpbGUubWFlPic=

> <r_lp_tautomer_probability>
0.999537

> <r_epik_Ionization_Penalty>
3.12283

> <r_epik_Ionization_Penalty_Charging>
2.83566e-08

> <r_epik_Ionization_Penalty_Neutral>
3.12283

> <r_epik_State_Penalty>
3.12192

> <r_epik_Charging_Adjusted_Penalty>
3.12192

> <i_epik_Tot_Q>
-1

> <i_epik_Tot_abs_Q>
1

> <r_epik_Metal_State_Penalty>
0.463748

> <b_epik_Metal_Only>
1

> <s_lp_Force_Field>
OPLS_2005

> <r_lp_Energy>
24.9188

> <b_lp_Chiralities_Consistent>
1

> <s_lp_Variant>
AV-unprocessed.smi:2154-7

> <Gold.Version>
5.8.1

> <Gold.Id.Protein>
6NUR|6NUR_protein|mol2

> <Gold.PLP.Fitness>
39.0707

> <Gold.PLP.PLP>
-34.9457

> <Gold.PLP.part.hbond>
-1.0000

> <Gold.PLP.part.metal>
0.0000

> <Gold.PLP.part.buried>
-2.9509

> <Gold.PLP.part.nonpolar>
-31.3856

> <Gold.PLP.part.repulsive>
0.2468

> <Gold.PLP.ligand.clash>
0.0000

> <Gold.PLP.ligand.torsion>
0.6560

> <Gold.PLP.Chemscore.Hbond>
1.0000

> <Gold.PLP.Chemscore.CHOScore>
0.6315

> <Gold.PLP.Chemscore.Metal>
0.0000

> <Gold.Chemscore.Hbonds>
donor molecule, donor type, donor heavy atom, donor atom, acceptor molecule, acceptor atom, score
      L1  H     6    27       P1  8028  1.00
      L1  C    11    30       P1  8028  0.59

> <Gold.PLP.Chemscore.Internal.Correction>
0.5426

> <Gold.Rescore>
     Score         DG    S(hbond)    S(metal)    S(lipo)     H(rot)  DE(clash)    DE(int)     intcor
     12.61     -13.34       0.99        0.00      81.90       1.96       0.05       0.68       ----

> <Gold.Chemscore.Fitness>
12.6076

> <Gold.Chemscore.DG>
-13.3436

> <Gold.Chemscore.ZeroCoef>
-5.4800

> <Gold.Chemscore.Hbond>
0.9883

> <Gold.Chemscore.Metal>
0.0000

> <Gold.Chemscore.Lipo>
81.9028

> <Gold.Chemscore.Internal_Hbond>
0.0000

> <Gold.Chemscore.DEClash>
0.0537

> <Gold.Chemscore.DEInternal>
0.6823

> <Gold.Chemscore.Rot>
1.9609

> <Gold.Chemscore.Internal.Correction>
   9.000000E+99

> <Gold.Chemscore.Hbonds>
donor molecule, donor type, donor heavy atom, donor atom, acceptor molecule, acceptor atom, score
      L1  H     6    27       P1  8028  0.97

> <Gold.Chemscore.Hbond.Weighted>
-3.3010

> <Gold.Chemscore.Metal.Weighted>
-0.0000

> <Gold.Chemscore.Lipo.Weighted>
-9.5826

> <Gold.Chemscore.Internal_Hbond.Weighted>
0.0000

> <Gold.Chemscore.DEClash.Weighted>
0.0537

> <Gold.Chemscore.DEInternal.Weighted>
0.6823

> <Gold.Chemscore.Rot.Weighted>
5.0200

> <Gold.Chemscore.Internal.Correction.Weighted>
   9.000000E+99

> <Gold.Protein.RotatedTorsions>
[ 6907 6896 6895 6894 ] final  -96.00 input  -60.11 | X-H torsion
[ 7974 7965 7964 7962 ] final  118.35 input  175.53 | X-H torsion
[ 8008 7997 7996 7995 ] final  152.03 input   59.86 | X-H torsion
[ 10167 10162 10161 10158 ] final   14.41 input  -65.29 | X-H torsion
[ 10718 10713 10712 10709 ] final  -75.19 input   66.30 | X-H torsion
[ 10763 10752 10751 10750 ] final  -96.07 input  -60.55 | X-H torsion
[ 11005 11000 10999 10996 ] final   85.64 input  -57.11 | X-H torsion

> <Gold.Protein.ActiveResidues>
 VAL166  LYS551  ARG553  GLY616  TRP617  ASP618  TYR619  PRO620  LYS621  CYS622 
 ASP623  PHE694  ASN695  SER759  ASP760  ASP761  ALA762  ILE779  LEU786  VAL792 
 PHE793  MET794  SER795  GLU796  ALA797  LYS798  CYS799  TRP800  GLU811  SER814 

> <Gold.Protein.RotatedAtoms>
  150.6977  134.1571  159.4161 H   0  0  0  0  0  0  0  0  0  0  0  0  # atno 6907 bound_to 6896
  151.9552  135.0147  160.0553 H   0  0  0  0  0  0  0  0  0  0  0  0  # atno 6908 bound_to 6896
  152.1975  133.4782  159.5078 H   0  0  0  0  0  0  0  0  0  0  0  0  # atno 6909 bound_to 6896
  145.1563  139.3181  143.4540 H   0  0  0  0  0  0  0  0  0  0  0  0  # atno 7974 bound_to 7965
  156.2647  140.2032  156.6269 H   0  0  0  0  0  0  0  0  0  0  0  0  # atno 8008 bound_to 7997
  154.6713  140.0550  157.0193 H   0  0  0  0  0  0  0  0  0  0  0  0  # atno 8009 bound_to 7997
  155.1133  140.3217  155.4519 H   0  0  0  0  0  0  0  0  0  0  0  0  # atno 8010 bound_to 7997
  140.5937  143.8743  150.6898 H   0  0  0  0  0  0  0  0  0  0  0  0  # atno 10167 bound_to 10162
  156.0216  130.4435  150.3006 H   0  0  0  0  0  0  0  0  0  0  0  0  # atno 10718 bound_to 10713
  154.7206  135.5097  153.8806 H   0  0  0  0  0  0  0  0  0  0  0  0  # atno 10763 bound_to 10752
  153.0859  135.6645  153.9960 H   0  0  0  0  0  0  0  0  0  0  0  0  # atno 10764 bound_to 10752
  153.9783  135.3031  155.3401 H   0  0  0  0  0  0  0  0  0  0  0  0  # atno 10765 bound_to 10752
  139.8966  134.8301  156.2610 H   0  0  0  0  0  0  0  0  0  0  0  0  # atno 11005 bound_to 11000
  146.3488  140.1657  142.8590 LP  0  0  0  0  0  0  0  0  0  0  0  0  # atno 17320 bound_to 7965
  145.0377  140.8921  143.5071 LP  0  0  0  0  0  0  0  0  0  0  0  0  # atno 17321 bound_to 7965
  140.2273  143.3763  152.1595 LP  0  0  0  0  0  0  0  0  0  0  0  0  # atno 17342 bound_to 10162
  139.5244  144.7084  151.5284 LP  0  0  0  0  0  0  0  0  0  0  0  0  # atno 17343 bound_to 10162
  157.1108  131.0221  151.3048 LP  0  0  0  0  0  0  0  0  0  0  0  0  # atno 17370 bound_to 10713
  157.4706  130.7706  149.7319 LP  0  0  0  0  0  0  0  0  0  0  0  0  # atno 17371 bound_to 10713
  141.0162  133.7067  156.1193 LP  0  0  0  0  0  0  0  0  0  0  0  0  # atno 17394 bound_to 11000
  140.7298  134.4267  157.5567 LP  0  0  0  0  0  0  0  0  0  0  0  0  # atno 17395 bound_to 11000

$$$$
