AV-unprocessed.smi:3056|AV-procd|sdf|11651|dock4
  -GOLD-   2272017 53D 1   1.00000     0.00000
 Structure written by MMmdl.
 48 49  0  0  0  0  0  0  0  0  2 V2000
  144.2065  134.1412  150.5466 C   0  0  0  0  0  0  0  0  0  0  0  0
  145.2418  133.4213  151.3620 C   0  0  0  0  0  0  0  0  0  0  0  0
  145.2813  132.0399  151.7020 C   0  0  0  0  0  0  0  0  0  0  0  0
  146.3361  131.7222  152.4342 N   0  0  0  0  0  0  0  0  0  0  0  0
  147.0031  132.8848  152.6002 N   0  0  0  0  0  0  0  0  0  0  0  0
  148.2503  132.8974  153.3591 C   0  0  2  0  0  0  0  0  0  0  0  0
  148.6878  131.4709  153.7364 C   0  0  0  0  0  0  0  0  0  0  0  0
  148.2157  133.8814  154.5600 C   0  0  1  0  0  0  0  0  0  0  0  0
  148.4650  133.1776  155.9040 C   0  0  0  0  0  0  0  0  0  0  0  0
  149.1946  134.9807  154.4003 N   0  3  0  0  0  0  0  0  0  0  0  0
  149.2720  135.9270  155.5346 C   0  0  0  0  0  0  0  0  0  0  0  0
  150.7114  136.3763  155.8251 C   0  0  0  0  0  0  0  0  0  0  0  0
  151.5997  135.5240  155.8786 O   0  0  0  0  0  0  0  0  0  0  0  0
  150.9615  137.6946  156.0093 N   0  0  0  0  0  0  0  0  0  0  0  0
  152.2764  138.3005  156.2416 C   0  0  0  0  0  0  0  0  0  0  0  0
  152.6035  139.2128  155.0465 C   0  0  0  0  0  0  0  0  0  0  0  0
  151.5796  140.1936  154.8976 O   0  0  0  0  0  0  0  0  0  0  0  0
  150.2811  139.6364  154.6982 C   0  0  2  0  0  0  0  0  0  0  0  0
  149.2852  140.7890  154.5319 C   0  0  0  0  0  0  0  0  0  0  0  0
  149.9322  138.7316  155.8971 C   0  0  0  0  0  0  0  0  0  0  0  0
  146.3639  133.9261  151.9547 C   0  0  0  0  0  0  0  0  0  0  0  0
  143.5990  133.4507  149.9613 H   0  0  0  0  0  0  0  0  0  0  0  0
  144.6608  134.8414  149.8455 H   0  0  0  0  0  0  0  0  0  0  0  0
  143.5253  134.7128  151.1774 H   0  0  0  0  0  0  0  0  0  0  0  0
  144.5800  131.2623  151.4370 H   0  0  0  0  0  0  0  0  0  0  0  0
  149.0244  133.2673  152.6839 H   0  0  0  0  0  0  0  0  0  0  0  0
  149.6468  131.4793  154.2550 H   0  0  0  0  0  0  0  0  0  0  0  0
  148.8042  130.8528  152.8455 H   0  0  0  0  0  0  0  0  0  0  0  0
  147.9630  130.9774  154.3838 H   0  0  0  0  0  0  0  0  0  0  0  0
  147.2139  134.3110  154.6158 H   0  0  0  0  0  0  0  0  0  0  0  0
  147.7596  132.3599  156.0550 H   0  0  0  0  0  0  0  0  0  0  0  0
  148.3436  133.8711  156.7367 H   0  0  0  0  0  0  0  0  0  0  0  0
  149.4718  132.7638  155.9658 H   0  0  0  0  0  0  0  0  0  0  0  0
  150.1115  134.5737  154.2832 H   0  0  0  0  0  0  0  0  0  0  0  0
  148.6649  136.8060  155.3193 H   0  0  0  0  0  0  0  0  0  0  0  0
  148.8576  135.4406  156.4188 H   0  0  0  0  0  0  0  0  0  0  0  0
  152.2429  138.8875  157.1606 H   0  0  0  0  0  0  0  0  0  0  0  0
  153.0791  137.5788  156.3815 H   0  0  0  0  0  0  0  0  0  0  0  0
  153.5553  139.7193  155.2072 H   0  0  0  0  0  0  0  0  0  0  0  0
  152.7009  138.6321  154.1279 H   0  0  0  0  0  0  0  0  0  0  0  0
  150.2858  139.0449  153.7808 H   0  0  0  0  0  0  0  0  0  0  0  0
  148.2759  140.4138  154.3600 H   0  0  0  0  0  0  0  0  0  0  0  0
  149.5544  141.4176  153.6827 H   0  0  0  0  0  0  0  0  0  0  0  0
  149.2611  141.4210  155.4199 H   0  0  0  0  0  0  0  0  0  0  0  0
  148.9293  138.3208  155.7729 H   0  0  0  0  0  0  0  0  0  0  0  0
  149.9066  139.3148  156.8189 H   0  0  0  0  0  0  0  0  0  0  0  0
  146.7535  134.9334  151.9685 H   0  0  0  0  0  0  0  0  0  0  0  0
  148.9689  135.4927  153.5594 H   0  0  0  0  0  0  0  0  0  0  0  0
  1  2  1  0  0  0  0
  1 22  1  0  0  0  0
  1 23  1  0  0  0  0
  1 24  1  0  0  0  0
  2 21  2  0  0  0  0
  2  3  1  0  0  0  0
  3  4  2  0  0  0  0
  3 25  1  0  0  0  0
  4  5  1  0  0  0  0
  5  6  1  0  0  0  0
  5 21  1  0  0  0  0
  6  7  1  0  0  0  0
  6  8  1  0  0  0  0
  6 26  1  0  0  0  0
  7 27  1  0  0  0  0
  7 28  1  0  0  0  0
  7 29  1  0  0  0  0
  8  9  1  0  0  0  0
  8 10  1  0  0  0  0
  8 30  1  0  0  0  0
  9 31  1  0  0  0  0
  9 32  1  0  0  0  0
  9 33  1  0  0  0  0
 10 11  1  0  0  0  0
 10 34  1  0  0  0  0
 10 48  1  0  0  0  0
 11 12  1  0  0  0  0
 11 35  1  0  0  0  0
 11 36  1  0  0  0  0
 12 13  2  0  0  0  0
 12 14  1  0  0  0  0
 14 20  1  0  0  0  0
 14 15  1  0  0  0  0
 15 16  1  0  0  0  0
 15 37  1  0  0  0  0
 15 38  1  0  0  0  0
 16 17  1  0  0  0  0
 16 39  1  0  0  0  0
 16 40  1  0  0  0  0
 17 18  1  0  0  0  0
 18 19  1  0  0  0  0
 18 20  1  0  0  0  0
 18 41  1  0  0  0  0
 19 42  1  0  0  0  0
 19 43  1  0  0  0  0
 19 44  1  0  0  0  0
 20 45  1  0  0  0  0
 20 46  1  0  0  0  0
 21 47  1  0  0  0  0
M  CHG  1  10   1
M  END
> <s_m_source_file>
AV-unprocessed.smi

> <i_m_source_file_index>
3056

> <i_lp_mmshare_version>
43012

> <i_f3d_flags>
0

> <s_epik_input>
W0NIM11jMVtjSF1ubihbY0hdMSlbQ0BIXShbQ0gzXSlbQ0BIXShbQ0gzXSlbTkhdW0NIMl1DKD1PKU4yW0NIMl1bQ0gyXU9bQ0BASF0oW0NIM10pW0NIMl0y

> <s_epik_cmdline>
J2VwaWtfcHl0aG9uJywgJy1waCcsICc3LjAnLCAnLXRuJywgJzgnLCAnLW1hJywgJzIwMCcsICctbWV0YWxfYmluZGluZycsICctaW1hZScsICc8aW5maWxlLm1hZT4nLCAnLW9tYWUnLCAnPG91dGZpbGUubWFlPic=

> <r_lp_tautomer_probability>
1

> <r_epik_Ionization_Penalty>
0.233715

> <r_epik_Ionization_Penalty_Charging>
0.233698

> <r_epik_Ionization_Penalty_Neutral>
1.68157e-05

> <r_epik_State_Penalty>
0.225221

> <r_epik_Charging_Adjusted_Penalty>
0.458919

> <i_epik_Tot_Q>
1

> <i_epik_Tot_abs_Q>
1

> <r_epik_Metal_State_Penalty>
0.225535

> <b_epik_Metal_Only>
0

> <s_lp_Force_Field>
OPLS_2005

> <r_lp_Energy>
29.3518

> <b_lp_Chiralities_Consistent>
1

> <s_lp_Variant>
AV-unprocessed.smi:3056-7

> <Gold.Version>
5.8.1

> <Gold.Id.Protein>
6NUR|6NUR_protein|mol2

> <Gold.PLP.Fitness>
46.7336

> <Gold.PLP.PLP>
-35.5212

> <Gold.PLP.part.hbond>
-2.9643

> <Gold.PLP.part.metal>
0.0000

> <Gold.PLP.part.buried>
-4.4206

> <Gold.PLP.part.nonpolar>
-29.0890

> <Gold.PLP.part.repulsive>
0.6218

> <Gold.PLP.ligand.clash>
0.0000

> <Gold.PLP.ligand.torsion>
1.9774

> <Gold.PLP.Chemscore.Hbond>
4.0000

> <Gold.PLP.Chemscore.CHOScore>
1.0000

> <Gold.PLP.Chemscore.Metal>
0.0000

> <Gold.Chemscore.Hbonds>
donor molecule, donor type, donor heavy atom, donor atom, acceptor molecule, acceptor atom, score
      L1  H    10    48       P1  7948  2.00
      P1  H  7989  7998       L1    17  0.75
      P1  H 10752 10763       L1    13  1.00
      L1  C    21    47       P1  7948  1.00

> <Gold.PLP.Chemscore.Internal.Correction>
0.1672

> <Gold.Rescore>
     Score         DG    S(hbond)    S(metal)    S(lipo)     H(rot)  DE(clash)    DE(int)     intcor
     14.41     -16.45       1.72        0.00      82.65       1.74       0.12       1.92       ----

> <Gold.Chemscore.Fitness>
14.4146

> <Gold.Chemscore.DG>
-16.4525

> <Gold.Chemscore.ZeroCoef>
-5.4800

> <Gold.Chemscore.Hbond>
1.7202

> <Gold.Chemscore.Metal>
0.0000

> <Gold.Chemscore.Lipo>
82.6465

> <Gold.Chemscore.Internal_Hbond>
0.0000

> <Gold.Chemscore.DEClash>
0.1152

> <Gold.Chemscore.DEInternal>
1.9227

> <Gold.Chemscore.Rot>
1.7354

> <Gold.Chemscore.Internal.Correction>
   9.000000E+99

> <Gold.Chemscore.Hbonds>
donor molecule, donor type, donor heavy atom, donor atom, acceptor molecule, acceptor atom, score
      L1  H    10    48       P1  7948  0.78
      P1  H  7989  7998       L1    17  0.07
      P1  H 10752 10763       L1    13  0.99

> <Gold.Chemscore.Hbond.Weighted>
-5.7455

> <Gold.Chemscore.Metal.Weighted>
-0.0000

> <Gold.Chemscore.Lipo.Weighted>
-9.6696

> <Gold.Chemscore.Internal_Hbond.Weighted>
0.0000

> <Gold.Chemscore.DEClash.Weighted>
0.1152

> <Gold.Chemscore.DEInternal.Weighted>
1.9227

> <Gold.Chemscore.Rot.Weighted>
4.4426

> <Gold.Chemscore.Internal.Correction.Weighted>
   9.000000E+99

> <Gold.Protein.RotatedTorsions>
[ 6907 6896 6895 6894 ] final  111.60 input  -60.11 | X-H torsion
[ 7974 7965 7964 7962 ] final  -90.59 input  175.53 | X-H torsion
[ 8008 7997 7996 7995 ] final  132.65 input   59.86 | X-H torsion
[ 10167 10162 10161 10158 ] final -148.96 input  -65.29 | X-H torsion
[ 10718 10713 10712 10709 ] final  -55.38 input   66.30 | X-H torsion
[ 10763 10752 10751 10750 ] final   93.93 input  -60.55 | X-H torsion
[ 11005 11000 10999 10996 ] final   97.72 input  -57.11 | X-H torsion

> <Gold.Protein.ActiveResidues>
 VAL166  LYS551  ARG553  GLY616  TRP617  ASP618  TYR619  PRO620  LYS621  CYS622 
 ASP623  PHE694  ASN695  SER759  ASP760  ASP761  ALA762  ILE779  LEU786  VAL792 
 PHE793  MET794  SER795  GLU796  ALA797  LYS798  CYS799  TRP800  GLU811  SER814 

> <Gold.Protein.RotatedAtoms>
  152.4961  133.8635  159.7262 H   0  0  0  0  0  0  0  0  0  0  0  0  # atno 6907 bound_to 6896
  150.9140  133.6952  159.2854 H   0  0  0  0  0  0  0  0  0  0  0  0  # atno 6908 bound_to 6896
  151.4352  135.1018  159.9706 H   0  0  0  0  0  0  0  0  0  0  0  0  # atno 6909 bound_to 6896
  145.4244  140.9553  143.2163 H   0  0  0  0  0  0  0  0  0  0  0  0  # atno 7974 bound_to 7965
  156.2985  140.2541  156.3124 H   0  0  0  0  0  0  0  0  0  0  0  0  # atno 8008 bound_to 7997
  154.9313  140.0398  157.2068 H   0  0  0  0  0  0  0  0  0  0  0  0  # atno 8009 bound_to 7997
  154.8215  140.2861  155.5788 H   0  0  0  0  0  0  0  0  0  0  0  0  # atno 8010 bound_to 7997
  139.7485  143.8554  152.2580 H   0  0  0  0  0  0  0  0  0  0  0  0  # atno 10167 bound_to 10162
  156.1373  130.4156  150.0163 H   0  0  0  0  0  0  0  0  0  0  0  0  # atno 10718 bound_to 10713
  153.2358  135.4308  155.0645 H   0  0  0  0  0  0  0  0  0  0  0  0  # atno 10763 bound_to 10752
  154.8318  135.3390  154.6721 H   0  0  0  0  0  0  0  0  0  0  0  0  # atno 10764 bound_to 10752
  153.7146  135.7020  153.5085 H   0  0  0  0  0  0  0  0  0  0  0  0  # atno 10765 bound_to 10752
  139.8775  134.9014  156.4349 H   0  0  0  0  0  0  0  0  0  0  0  0  # atno 11005 bound_to 11000
  144.8224  139.5769  143.6981 LP  0  0  0  0  0  0  0  0  0  0  0  0  # atno 17320 bound_to 7965
  146.2640  139.6475  142.9342 LP  0  0  0  0  0  0  0  0  0  0  0  0  # atno 17321 bound_to 7965
  139.8525  144.7157  150.9197 LP  0  0  0  0  0  0  0  0  0  0  0  0  # atno 17342 bound_to 10162
  140.7795  143.3887  151.1348 LP  0  0  0  0  0  0  0  0  0  0  0  0  # atno 17343 bound_to 10162
  156.8059  130.9307  151.3645 LP  0  0  0  0  0  0  0  0  0  0  0  0  # atno 17370 bound_to 10713
  157.6544  130.8912  149.9698 LP  0  0  0  0  0  0  0  0  0  0  0  0  # atno 17371 bound_to 10713
  140.9040  133.7759  155.9713 LP  0  0  0  0  0  0  0  0  0  0  0  0  # atno 17394 bound_to 11000
  140.8619  134.2830  157.5230 LP  0  0  0  0  0  0  0  0  0  0  0  0  # atno 17395 bound_to 11000

$$$$
