AV-unprocessed.smi:2666|AV-procd|sdf|10332|dock8
  -GOLD-   2272014353D 1   1.00000     0.00000
 Structure written by MMmdl.
 43 44  0  0  0  0  0  0  0  0  1 V2000
  145.3951  138.3415  153.7474 O   0  0  0  0  0  0  0  0  0  0  0  0
  146.3059  137.7287  153.1912 C   0  0  0  0  0  0  0  0  0  0  0  0
  147.5952  138.1070  153.1646 N   0  0  0  0  0  0  0  0  0  0  0  0
  148.2059  139.2260  153.7929 C   0  0  0  0  0  0  0  0  0  0  0  0
  147.3991  140.3493  154.0676 C   0  0  0  0  0  0  0  0  0  0  0  0
  147.9795  141.4810  154.6711 C   0  0  0  0  0  0  0  0  0  0  0  0
  149.3549  141.4481  154.9709 C   0  0  0  0  0  0  0  0  0  0  0  0
  150.1454  140.3876  154.7024 N   0  0  0  0  0  0  0  0  0  0  0  0
  149.5817  139.3047  154.1245 C   0  0  0  0  0  0  0  0  0  0  0  0
  146.1271  136.5880  152.5082 N   0  0  0  0  0  0  0  0  0  0  0  0
  144.8603  135.8727  152.3357 C   0  0  2  0  0  0  0  0  0  0  0  0
  144.3652  135.3631  153.7142 C   0  0  0  0  0  0  0  0  0  0  0  0
  142.8342  135.3108  153.8888 C   0  0  0  0  0  0  0  0  0  0  0  0
  142.4449  134.3018  154.7984 O   0  0  0  0  0  0  0  0  0  0  0  0
  145.0306  134.7424  151.2781 C   0  0  0  0  0  0  0  0  0  0  0  0
  143.7896  133.8145  151.2081 C   0  0  0  0  0  0  0  0  0  0  0  0
  143.9513  132.6908  150.1725 C   0  0  0  0  0  0  0  0  0  0  0  0
  145.2082  131.8578  150.4490 C   0  0  0  0  0  0  0  0  0  0  0  0
  146.4506  132.7554  150.4895 C   0  0  0  0  0  0  0  0  0  0  0  0
  146.2960  133.8831  151.5233 C   0  0  0  0  0  0  0  0  0  0  0  0
  148.2095  137.5430  152.5957 H   0  0  0  0  0  0  0  0  0  0  0  0
  146.3468  140.3462  153.8229 H   0  0  0  0  0  0  0  0  0  0  0  0
  147.3854  142.3538  154.8980 H   0  0  0  0  0  0  0  0  0  0  0  0
  149.8342  142.2981  155.4338 H   0  0  0  0  0  0  0  0  0  0  0  0
  150.2701  138.5025  153.9114 H   0  0  0  0  0  0  0  0  0  0  0  0
  146.9394  136.1640  152.0847 H   0  0  0  0  0  0  0  0  0  0  0  0
  144.1028  136.5607  151.9562 H   0  0  0  0  0  0  0  0  0  0  0  0
  144.7197  134.3433  153.8547 H   0  0  0  0  0  0  0  0  0  0  0  0
  144.8121  135.9468  154.5203 H   0  0  0  0  0  0  0  0  0  0  0  0
  142.4460  136.2756  154.2171 H   0  0  0  0  0  0  0  0  0  0  0  0
  142.3625  135.0875  152.9315 H   0  0  0  0  0  0  0  0  0  0  0  0
  142.8142  133.4806  154.5112 H   0  0  0  0  0  0  0  0  0  0  0  0
  145.1391  135.2168  150.3014 H   0  0  0  0  0  0  0  0  0  0  0  0
  143.6042  133.3787  152.1907 H   0  0  0  0  0  0  0  0  0  0  0  0
  142.8945  134.3808  150.9515 H   0  0  0  0  0  0  0  0  0  0  0  0
  143.0706  132.0481  150.1826 H   0  0  0  0  0  0  0  0  0  0  0  0
  144.0088  133.1211  149.1719 H   0  0  0  0  0  0  0  0  0  0  0  0
  145.1009  131.3336  151.3995 H   0  0  0  0  0  0  0  0  0  0  0  0
  145.3251  131.0915  149.6820 H   0  0  0  0  0  0  0  0  0  0  0  0
  147.3318  132.1570  150.7226 H   0  0  0  0  0  0  0  0  0  0  0  0
  146.6228  133.1862  149.5024 H   0  0  0  0  0  0  0  0  0  0  0  0
  147.1952  134.4956  151.4804 H   0  0  0  0  0  0  0  0  0  0  0  0
  146.2607  133.4541  152.5258 H   0  0  0  0  0  0  0  0  0  0  0  0
  1  2  2  0  0  0  0
  2  3  1  0  0  0  0
  2 10  1  0  0  0  0
  3  4  1  0  0  0  0
  3 21  1  0  0  0  0
  4  9  1  0  0  0  0
  4  5  2  0  0  0  0
  5  6  1  0  0  0  0
  5 22  1  0  0  0  0
  6  7  2  0  0  0  0
  6 23  1  0  0  0  0
  7  8  1  0  0  0  0
  7 24  1  0  0  0  0
  8  9  2  0  0  0  0
  9 25  1  0  0  0  0
 10 11  1  0  0  0  0
 10 26  1  0  0  0  0
 11 12  1  0  0  0  0
 11 15  1  0  0  0  0
 11 27  1  0  0  0  0
 12 13  1  0  0  0  0
 12 28  1  0  0  0  0
 12 29  1  0  0  0  0
 13 14  1  0  0  0  0
 13 30  1  0  0  0  0
 13 31  1  0  0  0  0
 14 32  1  0  0  0  0
 15 20  1  0  0  0  0
 15 16  1  0  0  0  0
 15 33  1  0  0  0  0
 16 17  1  0  0  0  0
 16 34  1  0  0  0  0
 16 35  1  0  0  0  0
 17 18  1  0  0  0  0
 17 36  1  0  0  0  0
 17 37  1  0  0  0  0
 18 19  1  0  0  0  0
 18 38  1  0  0  0  0
 18 39  1  0  0  0  0
 19 20  1  0  0  0  0
 19 40  1  0  0  0  0
 19 41  1  0  0  0  0
 20 42  1  0  0  0  0
 20 43  1  0  0  0  0
M  END
> <s_m_source_file>
AV-unprocessed.smi

> <i_m_source_file_index>
2666

> <i_lp_mmshare_version>
43012

> <i_f3d_flags>
0

> <s_epik_input>
W2NIXTFuW2NIXVtjSF1bY0hdYzFbTkhdQyg9TylbTkhdW0NASF0oW0NIMl1bQ0gyXVtPSF0pW0NIXTJbQ0gyXVtDSDJdW0NIMl1bQ0gyXVtDSDJdMg==

> <s_epik_cmdline>
J2VwaWtfcHl0aG9uJywgJy1waCcsICc3LjAnLCAnLXRuJywgJzgnLCAnLW1hJywgJzIwMCcsICctbWV0YWxfYmluZGluZycsICctaW1hZScsICc8aW5maWxlLm1hZT4nLCAnLW9tYWUnLCAnPG91dGZpbGUubWFlPic=

> <r_epik_Ionization_Penalty>
0.00500145

> <r_epik_Ionization_Penalty_Charging>
0

> <r_epik_Ionization_Penalty_Neutral>
0.00500145

> <r_epik_State_Penalty>
0.00360517

> <r_epik_Charging_Adjusted_Penalty>
0.00360517

> <i_epik_Tot_Q>
0

> <i_epik_Tot_abs_Q>
0

> <r_epik_Metal_State_Penalty>
-0

> <b_epik_Metal_Only>
0

> <s_lp_Force_Field>
OPLS_2005

> <r_lp_Energy>
19.5826

> <b_lp_Chiralities_Consistent>
1

> <s_lp_Variant>
AV-unprocessed.smi:2666-1

> <Gold.Version>
5.8.1

> <Gold.Id.Protein>
6NUR|6NUR_protein|mol2

> <Gold.PLP.Fitness>
50.7772

> <Gold.PLP.PLP>
-35.7320

> <Gold.PLP.part.hbond>
-5.0000

> <Gold.PLP.part.metal>
0.0000

> <Gold.PLP.part.buried>
-3.7081

> <Gold.PLP.part.nonpolar>
-29.7732

> <Gold.PLP.part.repulsive>
1.8896

> <Gold.PLP.ligand.clash>
0.0000

> <Gold.PLP.ligand.torsion>
0.9037

> <Gold.PLP.Chemscore.Hbond>
4.6160

> <Gold.PLP.Chemscore.CHOScore>
0.9813

> <Gold.PLP.Chemscore.Metal>
0.0000

> <Gold.Chemscore.Hbonds>
donor molecule, donor type, donor heavy atom, donor atom, acceptor molecule, acceptor atom, score
      L1  H     3    21       P1  7948  1.00
      L1  H    10    26       P1  7948  0.94
      L1  H    14    32       P1 10957  0.80
      P1  H  7989  7998       L1     8  0.99
      P1  H 11000 11005       L1    14  0.83
      L1  C     7    24       P1  8028  0.76

> <Gold.PLP.Chemscore.Internal.Correction>
0.0608

> <Gold.Rescore>
     Score         DG    S(hbond)    S(metal)    S(lipo)     H(rot)  DE(clash)    DE(int)     intcor
     19.91     -22.17       3.66        0.00      86.82       2.23       0.22       2.04       ----

> <Gold.Chemscore.Fitness>
19.9143

> <Gold.Chemscore.DG>
-22.1715

> <Gold.Chemscore.ZeroCoef>
-5.4800

> <Gold.Chemscore.Hbond>
3.6617

> <Gold.Chemscore.Metal>
0.0000

> <Gold.Chemscore.Lipo>
86.8183

> <Gold.Chemscore.Internal_Hbond>
0.0000

> <Gold.Chemscore.DEClash>
0.2153

> <Gold.Chemscore.DEInternal>
2.0419

> <Gold.Chemscore.Rot>
2.2251

> <Gold.Chemscore.Internal.Correction>
   9.000000E+99

> <Gold.Chemscore.Hbonds>
donor molecule, donor type, donor heavy atom, donor atom, acceptor molecule, acceptor atom, score
      L1  H     3    21       P1  7948  1.00
      L1  H    10    26       P1  7948  0.87
      L1  H    14    32       P1 10957  0.80
      P1  H  7989  7998       L1     8  0.36
      P1  H 11000 11005       L1    14  0.47

> <Gold.Chemscore.Hbond.Weighted>
-12.2300

> <Gold.Chemscore.Metal.Weighted>
-0.0000

> <Gold.Chemscore.Lipo.Weighted>
-10.1577

> <Gold.Chemscore.Internal_Hbond.Weighted>
0.0000

> <Gold.Chemscore.DEClash.Weighted>
0.2153

> <Gold.Chemscore.DEInternal.Weighted>
2.0419

> <Gold.Chemscore.Rot.Weighted>
5.6962

> <Gold.Chemscore.Internal.Correction.Weighted>
   9.000000E+99

> <Gold.Protein.RotatedTorsions>
[ 6907 6896 6895 6894 ] final  -60.92 input  -60.11 | X-H torsion
[ 7974 7965 7964 7962 ] final -134.23 input  175.53 | X-H torsion
[ 8008 7997 7996 7995 ] final -126.19 input   59.86 | X-H torsion
[ 10167 10162 10161 10158 ] final  148.04 input  -65.29 | X-H torsion
[ 10718 10713 10712 10709 ] final   40.04 input   66.30 | X-H torsion
[ 10763 10752 10751 10750 ] final  128.58 input  -60.55 | X-H torsion
[ 11005 11000 10999 10996 ] final  -12.09 input  -57.11 | X-H torsion

> <Gold.Protein.ActiveResidues>
 VAL166  LYS551  ARG553  GLY616  TRP617  ASP618  TYR619  PRO620  LYS621  CYS622 
 ASP623  PHE694  ASN695  SER759  ASP760  ASP761  ALA762  ILE779  LEU786  VAL792 
 PHE793  MET794  SER795  GLU796  ALA797  LYS798  CYS799  TRP800  GLU811  SER814 

> <Gold.Protein.RotatedAtoms>
  150.7821  134.6773  159.6424 H   0  0  0  0  0  0  0  0  0  0  0  0  # atno 6907 bound_to 6896
  152.3908  134.6440  160.0117 H   0  0  0  0  0  0  0  0  0  0  0  0  # atno 6908 bound_to 6896
  151.6741  133.3276  159.3240 H   0  0  0  0  0  0  0  0  0  0  0  0  # atno 6909 bound_to 6896
  144.9121  140.6909  143.5018 H   0  0  0  0  0  0  0  0  0  0  0  0  # atno 7974 bound_to 7965
  155.2256  140.0423  157.2955 H   0  0  0  0  0  0  0  0  0  0  0  0  # atno 8008 bound_to 7997
  154.5921  140.2429  155.7877 H   0  0  0  0  0  0  0  0  0  0  0  0  # atno 8009 bound_to 7997
  156.2266  140.2952  156.0091 H   0  0  0  0  0  0  0  0  0  0  0  0  # atno 8010 bound_to 7997
  139.4881  144.5710  151.7055 H   0  0  0  0  0  0  0  0  0  0  0  0  # atno 10167 bound_to 10162
  157.3776  130.7735  149.7167 H   0  0  0  0  0  0  0  0  0  0  0  0  # atno 10718 bound_to 10713
  153.7278  135.3243  155.3280 H   0  0  0  0  0  0  0  0  0  0  0  0  # atno 10763 bound_to 10752
  154.8335  135.4515  154.1152 H   0  0  0  0  0  0  0  0  0  0  0  0  # atno 10764 bound_to 10752
  153.2291  135.6957  153.7991 H   0  0  0  0  0  0  0  0  0  0  0  0  # atno 10765 bound_to 10752
  140.7621  133.8506  155.9133 H   0  0  0  0  0  0  0  0  0  0  0  0  # atno 11005 bound_to 11000
  145.3436  139.1725  143.4472 LP  0  0  0  0  0  0  0  0  0  0  0  0  # atno 17320 bound_to 7965
  146.3164  140.3480  142.8653 LP  0  0  0  0  0  0  0  0  0  0  0  0  # atno 17321 bound_to 7965
  140.5297  144.0750  150.6049 LP  0  0  0  0  0  0  0  0  0  0  0  0  # atno 17342 bound_to 10162
  140.3736  143.2841  152.0251 LP  0  0  0  0  0  0  0  0  0  0  0  0  # atno 17343 bound_to 10162
  155.9768  130.4070  150.3751 LP  0  0  0  0  0  0  0  0  0  0  0  0  # atno 17370 bound_to 10713
  157.1850  131.0401  151.2729 LP  0  0  0  0  0  0  0  0  0  0  0  0  # atno 17371 bound_to 10713
  140.9653  134.1602  157.4621 LP  0  0  0  0  0  0  0  0  0  0  0  0  # atno 17394 bound_to 11000
  139.8769  134.9959  156.5769 LP  0  0  0  0  0  0  0  0  0  0  0  0  # atno 17395 bound_to 11000

$$$$
