AV-unprocessed.smi:1223|AV-procd|sdf|5126|dock2
  -GOLD-   22720 4183D 1   1.00000     0.00000
 Structure written by MMmdl.
 33 34  0  0  0  0  0  0  0  0  1 V2000
  149.8774  142.9550  157.9810 O   0  0  0  0  0  0  0  0  0  0  0  0
  150.5877  141.9609  157.8336 C   0  0  0  0  0  0  0  0  0  0  0  0
  151.8419  141.7829  158.6931 C   0  0  0  0  0  0  0  0  0  0  0  0
  151.9707  142.8370  159.6852 N   0  0  0  0  0  0  0  0  0  0  0  0
  151.9840  144.2026  159.4883 C   0  0  0  0  0  0  0  0  0  0  0  0
  152.1373  144.7889  160.7117 C   0  0  0  0  0  0  0  0  0  0  0  0
  152.2062  143.6862  161.6084 C   0  0  0  0  0  0  0  0  0  0  0  0
  152.1056  142.5197  160.9917 N   0  0  0  0  0  0  0  0  0  0  0  0
  150.3324  140.9984  156.9313 N   0  0  0  0  0  0  0  0  0  0  0  0
  149.1998  140.9767  156.0058 C   0  0  2  0  0  0  0  0  0  0  0  0
  148.1284  140.0207  156.5865 C   0  0  0  0  0  0  0  0  0  0  0  0
  147.0245  139.5557  155.6107 C   0  0  0  0  0  0  0  0  0  0  0  0
  146.4481  140.6616  154.7031 C   0  0  0  0  0  0  0  0  0  0  0  0
  147.4368  141.3429  153.7206 C   0  0  0  0  0  0  0  0  0  0  0  0
  148.7389  140.6865  153.5970 N   0  0  0  0  0  0  0  0  0  0  0  0
  149.6156  140.4975  154.5976 C   0  0  0  0  0  0  0  0  0  0  0  0
  150.6953  139.9384  154.4078 O   0  0  0  0  0  0  0  0  0  0  0  0
  151.8000  140.8195  159.2024 H   0  0  0  0  0  0  0  0  0  0  0  0
  152.7328  141.7748  158.0632 H   0  0  0  0  0  0  0  0  0  0  0  0
  151.8877  144.6378  158.5045 H   0  0  0  0  0  0  0  0  0  0  0  0
  152.1919  145.8443  160.9327 H   0  0  0  0  0  0  0  0  0  0  0  0
  152.3258  143.6984  162.6816 H   0  0  0  0  0  0  0  0  0  0  0  0
  150.9758  140.2228  156.8758 H   0  0  0  0  0  0  0  0  0  0  0  0
  148.7888  141.9855  155.9410 H   0  0  0  0  0  0  0  0  0  0  0  0
  148.6065  139.1305  156.9988 H   0  0  0  0  0  0  0  0  0  0  0  0
  147.6566  140.5180  157.4349 H   0  0  0  0  0  0  0  0  0  0  0  0
  147.4022  138.7424  154.9894 H   0  0  0  0  0  0  0  0  0  0  0  0
  146.2137  139.1132  156.1903 H   0  0  0  0  0  0  0  0  0  0  0  0
  145.6379  140.2225  154.1201 H   0  0  0  0  0  0  0  0  0  0  0  0
  145.9760  141.4261  155.3209 H   0  0  0  0  0  0  0  0  0  0  0  0
  146.9877  141.3894  152.7283 H   0  0  0  0  0  0  0  0  0  0  0  0
  147.5967  142.3813  154.0135 H   0  0  0  0  0  0  0  0  0  0  0  0
  149.0004  140.3625  152.6770 H   0  0  0  0  0  0  0  0  0  0  0  0
  1  2  2  0  0  0  0
  2  3  1  0  0  0  0
  2  9  1  0  0  0  0
  3  4  1  0  0  0  0
  3 18  1  0  0  0  0
  3 19  1  0  0  0  0
  4  8  1  0  0  0  0
  4  5  1  0  0  0  0
  5  6  2  0  0  0  0
  5 20  1  0  0  0  0
  6  7  1  0  0  0  0
  6 21  1  0  0  0  0
  7  8  2  0  0  0  0
  7 22  1  0  0  0  0
  9 10  1  0  0  0  0
  9 23  1  0  0  0  0
 10 16  1  0  0  0  0
 10 11  1  0  0  0  0
 10 24  1  0  0  0  0
 11 12  1  0  0  0  0
 11 25  1  0  0  0  0
 11 26  1  0  0  0  0
 12 13  1  0  0  0  0
 12 27  1  0  0  0  0
 12 28  1  0  0  0  0
 13 14  1  0  0  0  0
 13 29  1  0  0  0  0
 13 30  1  0  0  0  0
 14 15  1  0  0  0  0
 14 31  1  0  0  0  0
 14 32  1  0  0  0  0
 15 16  1  0  0  0  0
 15 33  1  0  0  0  0
 16 17  2  0  0  0  0
M  END
> <s_m_source_file>
AV-unprocessed.smi

> <i_m_source_file_index>
1223

> <i_lp_mmshare_version>
43012

> <i_f3d_flags>
0

> <s_epik_input>
bjFbY0hdW2NIXVtjSF1uMVtDSDJdQyg9TylbTkhdW0NAQEhdMltDSDJdW0NIMl1bQ0gyXVtDSDJdW05IXUMyPU8=

> <s_epik_cmdline>
J2VwaWtfcHl0aG9uJywgJy1waCcsICc3LjAnLCAnLXRuJywgJzgnLCAnLW1hJywgJzIwMCcsICctbWV0YWxfYmluZGluZycsICctaW1hZScsICc8aW5maWxlLm1hZT4nLCAnLW9tYWUnLCAnPG91dGZpbGUubWFlPic=

> <r_lp_tautomer_probability>
1

> <r_epik_Ionization_Penalty>
1.16214e-05

> <r_epik_Ionization_Penalty_Charging>
0

> <r_epik_Ionization_Penalty_Neutral>
1.16214e-05

> <r_epik_State_Penalty>
-0

> <r_epik_Charging_Adjusted_Penalty>
0

> <i_epik_Tot_Q>
0

> <i_epik_Tot_abs_Q>
0

> <r_epik_Metal_State_Penalty>
-0

> <b_epik_Metal_Only>
0

> <s_lp_Force_Field>
OPLS_2005

> <r_lp_Energy>
15.4059

> <b_lp_Chiralities_Consistent>
1

> <s_lp_Variant>
AV-unprocessed.smi:1223-1

> <Gold.Version>
5.8.1

> <Gold.Id.Protein>
6NUR|6NUR_protein|mol2

> <Gold.PLP.Fitness>
37.5535

> <Gold.PLP.PLP>
-32.1633

> <Gold.PLP.part.hbond>
-2.3868

> <Gold.PLP.part.metal>
0.0000

> <Gold.PLP.part.buried>
-6.5106

> <Gold.PLP.part.nonpolar>
-23.8633

> <Gold.PLP.part.repulsive>
0.8355

> <Gold.PLP.ligand.clash>
0.0000

> <Gold.PLP.ligand.torsion>
0.3061

> <Gold.PLP.Chemscore.Hbond>
2.0000

> <Gold.PLP.Chemscore.CHOScore>
0.0000

> <Gold.PLP.Chemscore.Metal>
0.0000

> <Gold.Chemscore.Hbonds>
donor molecule, donor type, donor heavy atom, donor atom, acceptor molecule, acceptor atom, score
      L1  H    15    33       P1  7957  1.00
      P1  H  7989  7998       L1    17  1.00

> <Gold.PLP.Chemscore.Internal.Correction>
0.0024

> <Gold.Rescore>
     Score         DG    S(hbond)    S(metal)    S(lipo)     H(rot)  DE(clash)    DE(int)     intcor
     13.67     -15.33       1.94        0.00      63.27       1.58       0.00       1.66       ----

> <Gold.Chemscore.Fitness>
13.6693

> <Gold.Chemscore.DG>
-15.3261

> <Gold.Chemscore.ZeroCoef>
-5.4800

> <Gold.Chemscore.Hbond>
1.9420

> <Gold.Chemscore.Metal>
0.0000

> <Gold.Chemscore.Lipo>
63.2716

> <Gold.Chemscore.Internal_Hbond>
0.0000

> <Gold.Chemscore.DEClash>
0.0004

> <Gold.Chemscore.DEInternal>
1.6564

> <Gold.Chemscore.Rot>
1.5792

> <Gold.Chemscore.Internal.Correction>
   9.000000E+99

> <Gold.Chemscore.Hbonds>
donor molecule, donor type, donor heavy atom, donor atom, acceptor molecule, acceptor atom, score
      L1  H    15    33       P1  7957  1.00
      P1  H  7989  7998       L1    17  0.73

> <Gold.Chemscore.Hbond.Weighted>
-6.4861

> <Gold.Chemscore.Metal.Weighted>
-0.0000

> <Gold.Chemscore.Lipo.Weighted>
-7.4028

> <Gold.Chemscore.Internal_Hbond.Weighted>
0.0000

> <Gold.Chemscore.DEClash.Weighted>
0.0004

> <Gold.Chemscore.DEInternal.Weighted>
1.6564

> <Gold.Chemscore.Rot.Weighted>
4.0428

> <Gold.Chemscore.Internal.Correction.Weighted>
   9.000000E+99

> <Gold.Protein.RotatedTorsions>
[ 6907 6896 6895 6894 ] final  -50.81 input  -60.11 | X-H torsion
[ 7974 7965 7964 7962 ] final  133.26 input  175.53 | X-H torsion
[ 8008 7997 7996 7995 ] final -134.80 input   59.86 | X-H torsion
[ 10167 10162 10161 10158 ] final   81.77 input  -65.29 | X-H torsion
[ 10718 10713 10712 10709 ] final   60.62 input   66.30 | X-H torsion
[ 10763 10752 10751 10750 ] final   21.98 input  -60.55 | X-H torsion
[ 11005 11000 10999 10996 ] final  133.47 input  -57.11 | X-H torsion

> <Gold.Protein.ActiveResidues>
 VAL166  LYS551  ARG553  GLY616  TRP617  ASP618  TYR619  PRO620  LYS621  CYS622 
 ASP623  PHE694  ASN695  SER759  ASP760  ASP761  ALA762  ILE779  LEU786  VAL792 
 PHE793  MET794  SER795  GLU796  ALA797  LYS798  CYS799  TRP800  GLU811  SER814 

> <Gold.Protein.RotatedAtoms>
  150.8671  134.8037  159.7126 H   0  0  0  0  0  0  0  0  0  0  0  0  # atno 6907 bound_to 6896
  152.4689  134.5006  159.9733 H   0  0  0  0  0  0  0  0  0  0  0  0  # atno 6908 bound_to 6896
  151.5101  133.3448  159.2919 H   0  0  0  0  0  0  0  0  0  0  0  0  # atno 6909 bound_to 6896
  144.9883  139.4432  143.5352 H   0  0  0  0  0  0  0  0  0  0  0  0  # atno 7974 bound_to 7965
  155.3681  140.0486  157.3046 H   0  0  0  0  0  0  0  0  0  0  0  0  # atno 8008 bound_to 7997
  154.5144  140.2203  155.9057 H   0  0  0  0  0  0  0  0  0  0  0  0  # atno 8009 bound_to 7997
  156.1619  140.3114  155.8828 H   0  0  0  0  0  0  0  0  0  0  0  0  # atno 8010 bound_to 7997
  139.9357  144.6122  150.8300 H   0  0  0  0  0  0  0  0  0  0  0  0  # atno 10167 bound_to 10162
  157.5766  130.8949  149.9358 H   0  0  0  0  0  0  0  0  0  0  0  0  # atno 10718 bound_to 10713
  153.0951  135.6657  153.9778 H   0  0  0  0  0  0  0  0  0  0  0  0  # atno 10763 bound_to 10752
  153.9364  135.2998  155.3445 H   0  0  0  0  0  0  0  0  0  0  0  0  # atno 10764 bound_to 10752
  154.7369  135.5097  153.9131 H   0  0  0  0  0  0  0  0  0  0  0  0  # atno 10765 bound_to 10752
  139.9854  134.9534  156.9729 H   0  0  0  0  0  0  0  0  0  0  0  0  # atno 11005 bound_to 11000
  146.3425  139.9199  142.8768 LP  0  0  0  0  0  0  0  0  0  0  0  0  # atno 17320 bound_to 7965
  145.2321  140.9977  143.3984 LP  0  0  0  0  0  0  0  0  0  0  0  0  # atno 17321 bound_to 7965
  140.7625  143.3199  151.2645 LP  0  0  0  0  0  0  0  0  0  0  0  0  # atno 17342 bound_to 10162
  139.6745  143.9962  152.2773 LP  0  0  0  0  0  0  0  0  0  0  0  0  # atno 17343 bound_to 10162
  156.0811  130.3673  150.0578 LP  0  0  0  0  0  0  0  0  0  0  0  0  # atno 17370 bound_to 10713
  156.8723  130.9528  151.3608 LP  0  0  0  0  0  0  0  0  0  0  0  0  # atno 17371 bound_to 10713
  140.5013  134.1094  155.7251 LP  0  0  0  0  0  0  0  0  0  0  0  0  # atno 17394 bound_to 11000
  141.1520  133.8952  157.2075 LP  0  0  0  0  0  0  0  0  0  0  0  0  # atno 17395 bound_to 11000

$$$$
