AV-unprocessed.smi:889|AV-procd|sdf|4056|dock10
  -GOLD-   22720 1543D 1   1.00000     0.00000
 Structure written by MMmdl.
 43 44  0  0  0  0  0  0  0  0  1 V2000
  153.1847  142.4854  160.4197 C   0  0  0  0  0  0  0  0  0  0  0  0
  152.9895  141.3582  159.4638 C   0  0  0  0  0  0  0  0  0  0  0  0
  151.9208  140.9452  158.7207 C   0  0  0  0  0  0  0  0  0  0  0  0
  152.4140  139.8073  158.0237 C   0  0  0  0  0  0  0  0  0  0  0  0
  151.6900  138.9265  157.0410 C   0  0  0  0  0  0  0  0  0  0  0  0
  151.1720  139.7542  155.8642 C   0  0  0  0  0  0  0  0  0  0  0  0
  151.6032  139.5508  154.7293 O   0  0  0  0  0  0  0  0  0  0  0  0
  150.2400  140.6759  156.1463 N   0  0  0  0  0  0  0  0  0  0  0  0
  149.5992  141.5427  155.1641 C   0  0  0  0  0  0  0  0  0  0  0  0
  148.0640  141.3902  155.1757 C   0  0  0  0  0  0  0  0  0  0  0  0
  147.4955  141.8232  156.5481 C   0  0  0  0  0  0  0  0  0  0  0  0
  145.9604  142.0021  156.6631 C   0  0  0  0  0  0  0  0  0  0  0  0
  145.4290  143.2442  155.9290 C   0  0  0  0  0  0  0  0  0  0  0  0
  145.5378  142.0340  158.1399 C   0  0  0  0  0  0  0  0  0  0  0  0
  147.3512  142.0369  153.9649 C   0  0  0  0  0  0  0  0  0  0  0  0
  147.3943  140.6977  153.2348 C   0  0  0  0  0  0  0  0  0  0  0  0
  147.5367  140.0506  154.6098 C   0  0  0  0  0  0  0  0  0  0  0  0
  153.6792  139.5592  158.3254 N   0  0  0  0  0  0  0  0  0  0  0  0
  154.0542  140.5431  159.2468 O   0  0  0  0  0  0  0  0  0  0  0  0
  152.8262  143.4212  159.9907 H   0  0  0  0  0  0  0  0  0  0  0  0
  154.2384  142.6121  160.6695 H   0  0  0  0  0  0  0  0  0  0  0  0
  152.6372  142.3056  161.3449 H   0  0  0  0  0  0  0  0  0  0  0  0
  150.9369  141.3883  158.6806 H   0  0  0  0  0  0  0  0  0  0  0  0
  152.3575  138.1482  156.6695 H   0  0  0  0  0  0  0  0  0  0  0  0
  150.8526  138.4131  157.5164 H   0  0  0  0  0  0  0  0  0  0  0  0
  149.9485  140.7803  157.1075 H   0  0  0  0  0  0  0  0  0  0  0  0
  149.8869  142.5699  155.3916 H   0  0  0  0  0  0  0  0  0  0  0  0
  149.9990  141.3429  154.1693 H   0  0  0  0  0  0  0  0  0  0  0  0
  147.8175  141.1126  157.3104 H   0  0  0  0  0  0  0  0  0  0  0  0
  147.9632  142.7635  156.8435 H   0  0  0  0  0  0  0  0  0  0  0  0
  145.4743  141.1294  156.2270 H   0  0  0  0  0  0  0  0  0  0  0  0
  145.9330  144.1506  156.2657 H   0  0  0  0  0  0  0  0  0  0  0  0
  144.3606  143.3747  156.1029 H   0  0  0  0  0  0  0  0  0  0  0  0
  145.5645  143.1619  154.8517 H   0  0  0  0  0  0  0  0  0  0  0  0
  145.9729  142.8882  158.6594 H   0  0  0  0  0  0  0  0  0  0  0  0
  145.8561  141.1299  158.6599 H   0  0  0  0  0  0  0  0  0  0  0  0
  144.4540  142.1018  158.2382 H   0  0  0  0  0  0  0  0  0  0  0  0
  146.3303  142.3527  154.1871 H   0  0  0  0  0  0  0  0  0  0  0  0
  147.9085  142.8354  153.4736 H   0  0  0  0  0  0  0  0  0  0  0  0
  146.4805  140.4387  152.6993 H   0  0  0  0  0  0  0  0  0  0  0  0
  148.2813  140.5777  152.6113 H   0  0  0  0  0  0  0  0  0  0  0  0
  148.2481  139.2250  154.6407 H   0  0  0  0  0  0  0  0  0  0  0  0
  146.5735  139.7559  155.0301 H   0  0  0  0  0  0  0  0  0  0  0  0
  1  2  1  0  0  0  0
  1 20  1  0  0  0  0
  1 21  1  0  0  0  0
  1 22  1  0  0  0  0
  2 19  1  0  0  0  0
  2  3  2  0  0  0  0
  3  4  1  0  0  0  0
  3 23  1  0  0  0  0
  4  5  1  0  0  0  0
  4 18  2  0  0  0  0
  5  6  1  0  0  0  0
  5 24  1  0  0  0  0
  5 25  1  0  0  0  0
  6  7  2  0  0  0  0
  6  8  1  0  0  0  0
  8  9  1  0  0  0  0
  8 26  1  0  0  0  0
  9 10  1  0  0  0  0
  9 27  1  0  0  0  0
  9 28  1  0  0  0  0
 10 17  1  0  0  0  0
 10 11  1  0  0  0  0
 10 15  1  0  0  0  0
 11 12  1  0  0  0  0
 11 29  1  0  0  0  0
 11 30  1  0  0  0  0
 12 13  1  0  0  0  0
 12 14  1  0  0  0  0
 12 31  1  0  0  0  0
 13 32  1  0  0  0  0
 13 33  1  0  0  0  0
 13 34  1  0  0  0  0
 14 35  1  0  0  0  0
 14 36  1  0  0  0  0
 14 37  1  0  0  0  0
 15 16  1  0  0  0  0
 15 38  1  0  0  0  0
 15 39  1  0  0  0  0
 16 17  1  0  0  0  0
 16 40  1  0  0  0  0
 16 41  1  0  0  0  0
 17 42  1  0  0  0  0
 17 43  1  0  0  0  0
 18 19  1  0  0  0  0
M  END
> <s_m_source_file>
AV-unprocessed.smi

> <i_m_source_file_index>
889

> <i_lp_mmshare_version>
43012

> <i_f3d_flags>
0

> <s_epik_input>
W0NIM11jMVtjSF1jKG5vMSlbQ0gyXUMoPU8pW05IXVtDSDJdQzIoW0NIMl1bQ0hdKFtDSDNdKVtDSDNdKVtDSDJdW0NIMl1bQ0gyXTI=

> <s_epik_cmdline>
J2VwaWtfcHl0aG9uJywgJy1waCcsICc3LjAnLCAnLXRuJywgJzgnLCAnLW1hJywgJzIwMCcsICctbWV0YWxfYmluZGluZycsICctaW1hZScsICc8aW5maWxlLm1hZT4nLCAnLW9tYWUnLCAnPG91dGZpbGUubWFlPic=

> <r_lp_tautomer_probability>
1

> <r_epik_Ionization_Penalty>
7.05168e-08

> <r_epik_Ionization_Penalty_Charging>
0

> <r_epik_Ionization_Penalty_Neutral>
7.05168e-08

> <r_epik_State_Penalty>
-0

> <r_epik_Charging_Adjusted_Penalty>
0

> <i_epik_Tot_Q>
0

> <i_epik_Tot_abs_Q>
0

> <r_epik_Metal_State_Penalty>
-0

> <b_epik_Metal_Only>
0

> <s_lp_Force_Field>
OPLS_2005

> <r_lp_Energy>
19.2899

> <b_lp_Chiralities_Consistent>
1

> <s_lp_Variant>
AV-unprocessed.smi:889-1

> <Gold.Version>
5.8.1

> <Gold.Id.Protein>
6NUR|6NUR_protein|mol2

> <Gold.PLP.Fitness>
37.8504

> <Gold.PLP.PLP>
-32.0992

> <Gold.PLP.part.hbond>
-2.7955

> <Gold.PLP.part.metal>
0.0000

> <Gold.PLP.part.buried>
-3.4022

> <Gold.PLP.part.nonpolar>
-25.8465

> <Gold.PLP.part.repulsive>
0.1284

> <Gold.PLP.ligand.clash>
0.0000

> <Gold.PLP.ligand.torsion>
0.3372

> <Gold.PLP.Chemscore.Hbond>
2.0000

> <Gold.PLP.Chemscore.CHOScore>
0.0000

> <Gold.PLP.Chemscore.Metal>
0.0000

> <Gold.Chemscore.Hbonds>
donor molecule, donor type, donor heavy atom, donor atom, acceptor molecule, acceptor atom, score
      P1  H  7989  7998       L1     7  1.00
      P1  H  7997  8010       L1    18  0.90

> <Gold.PLP.Chemscore.Internal.Correction>
0.4257

> <Gold.Rescore>
     Score         DG    S(hbond)    S(metal)    S(lipo)     H(rot)  DE(clash)    DE(int)     intcor
     15.54     -16.09       1.87        0.00      74.24       1.68       0.10       0.45       ----

> <Gold.Chemscore.Fitness>
15.5386

> <Gold.Chemscore.DG>
-16.0871

> <Gold.Chemscore.ZeroCoef>
-5.4800

> <Gold.Chemscore.Hbond>
1.8664

> <Gold.Chemscore.Metal>
0.0000

> <Gold.Chemscore.Lipo>
74.2407

> <Gold.Chemscore.Internal_Hbond>
0.0000

> <Gold.Chemscore.DEClash>
0.0978

> <Gold.Chemscore.DEInternal>
0.4507

> <Gold.Chemscore.Rot>
1.6846

> <Gold.Chemscore.Internal.Correction>
   9.000000E+99

> <Gold.Chemscore.Hbonds>
donor molecule, donor type, donor heavy atom, donor atom, acceptor molecule, acceptor atom, score
      P1  H  7989  7998       L1     7  0.98
      P1  H  7997  8010       L1    18  0.12

> <Gold.Chemscore.Hbond.Weighted>
-6.2337

> <Gold.Chemscore.Metal.Weighted>
-0.0000

> <Gold.Chemscore.Lipo.Weighted>
-8.6862

> <Gold.Chemscore.Internal_Hbond.Weighted>
0.0000

> <Gold.Chemscore.DEClash.Weighted>
0.0978

> <Gold.Chemscore.DEInternal.Weighted>
0.4507

> <Gold.Chemscore.Rot.Weighted>
4.3127

> <Gold.Chemscore.Internal.Correction.Weighted>
   9.000000E+99

> <Gold.Protein.RotatedTorsions>
[ 6907 6896 6895 6894 ] final  118.38 input  -60.11 | X-H torsion
[ 7974 7965 7964 7962 ] final  -41.85 input  175.53 | X-H torsion
[ 8008 7997 7996 7995 ] final   31.26 input   59.86 | X-H torsion
[ 10167 10162 10161 10158 ] final   30.70 input  -65.29 | X-H torsion
[ 10718 10713 10712 10709 ] final  -16.19 input   66.30 | X-H torsion
[ 10763 10752 10751 10750 ] final  144.02 input  -60.55 | X-H torsion
[ 11005 11000 10999 10996 ] final -179.01 input  -57.11 | X-H torsion

> <Gold.Protein.ActiveResidues>
 VAL166  LYS551  ARG553  GLY616  TRP617  ASP618  TYR619  PRO620  LYS621  CYS622 
 ASP623  PHE694  ASN695  SER759  ASP760  ASP761  ALA762  ILE779  LEU786  VAL792 
 PHE793  MET794  SER795  GLU796  ALA797  LYS798  CYS799  TRP800  GLU811  SER814 

> <Gold.Protein.RotatedAtoms>
  152.4547  133.7699  159.6792 H   0  0  0  0  0  0  0  0  0  0  0  0  # atno 6907 bound_to 6896
  150.8469  133.7837  159.3046 H   0  0  0  0  0  0  0  0  0  0  0  0  # atno 6908 bound_to 6896
  151.5445  135.1071  159.9986 H   0  0  0  0  0  0  0  0  0  0  0  0  # atno 6909 bound_to 6896
  146.0172  140.6893  142.9196 H   0  0  0  0  0  0  0  0  0  0  0  0  # atno 7974 bound_to 7965
  155.1036  140.3232  155.4540 H   0  0  0  0  0  0  0  0  0  0  0  0  # atno 8008 bound_to 7997
  156.2710  140.2056  156.6109 H   0  0  0  0  0  0  0  0  0  0  0  0  # atno 8009 bound_to 7997
  154.6810  140.0526  157.0253 H   0  0  0  0  0  0  0  0  0  0  0  0  # atno 8010 bound_to 7997
  140.4655  144.0842  150.6223 H   0  0  0  0  0  0  0  0  0  0  0  0  # atno 10167 bound_to 10162
  156.5910  130.4799  149.6279 H   0  0  0  0  0  0  0  0  0  0  0  0  # atno 10718 bound_to 10713
  153.9819  135.2940  155.3419 H   0  0  0  0  0  0  0  0  0  0  0  0  # atno 10763 bound_to 10752
  154.7264  135.5087  153.8896 H   0  0  0  0  0  0  0  0  0  0  0  0  # atno 10764 bound_to 10752
  153.0850  135.6690  154.0081 H   0  0  0  0  0  0  0  0  0  0  0  0  # atno 10765 bound_to 10752
  140.4234  134.6585  157.4675 H   0  0  0  0  0  0  0  0  0  0  0  0  # atno 11005 bound_to 11000
  144.6975  140.3502  143.7183 LP  0  0  0  0  0  0  0  0  0  0  0  0  # atno 17320 bound_to 7965
  145.7250  139.1720  143.2463 LP  0  0  0  0  0  0  0  0  0  0  0  0  # atno 17321 bound_to 7965
  140.4042  143.2689  151.9912 LP  0  0  0  0  0  0  0  0  0  0  0  0  # atno 17342 bound_to 10162
  139.4811  144.5972  151.7670 LP  0  0  0  0  0  0  0  0  0  0  0  0  # atno 17343 bound_to 10162
  156.2549  130.6929  151.1679 LP  0  0  0  0  0  0  0  0  0  0  0  0  # atno 17370 bound_to 10713
  157.7303  131.0617  150.5731 LP  0  0  0  0  0  0  0  0  0  0  0  0  # atno 17371 bound_to 10713
  140.0184  134.6584  155.9275 LP  0  0  0  0  0  0  0  0  0  0  0  0  # atno 17394 bound_to 11000
  141.1775  133.6542  156.4886 LP  0  0  0  0  0  0  0  0  0  0  0  0  # atno 17395 bound_to 11000

$$$$
