AV-unprocessed.smi:249|AV-procd|sdf|1900|dock5
  -GOLD-   2262020573D 1   1.00000     0.00000
 Structure written by MMmdl.
 64 67  0  0  0  0  0  0  0  0  2 V2000
  146.9605  138.8319  152.9523 C   0  0  0  0  0  0  0  0  0  0  0  0
  147.8945  138.4023  154.0954 C   0  0  0  0  0  0  0  0  0  0  0  0
  149.0565  139.3167  154.2945 N   0  3  2  0  0  0  0  0  0  0  0  0
  150.2319  138.6005  154.8693 C   0  0  0  0  0  0  0  0  0  0  0  0
  151.4608  139.5133  155.0094 C   0  0  0  0  0  0  0  0  0  0  0  0
  151.1546  140.7442  155.8864 C   0  0  2  0  0  0  0  0  0  0  0  0
  150.9016  140.4146  157.2988 N   0  0  0  0  0  0  0  0  0  0  0  0
  150.2655  141.4396  158.1210 C   0  0  0  0  0  0  0  0  0  0  0  0
  151.9542  139.8741  157.9532 C   0  0  0  0  0  0  0  0  0  0  0  0
  152.2429  138.5738  157.7020 N   0  0  0  0  0  0  0  0  0  0  0  0
  153.2760  137.9903  158.3177 C   0  0  0  0  0  0  0  0  0  0  0  0
  154.1262  138.5158  159.2028 N   0  0  0  0  0  0  0  0  0  0  0  0
  153.8327  139.8228  159.4597 C   0  0  0  0  0  0  0  0  0  0  0  0
  152.7726  140.5758  158.8823 C   0  0  0  0  0  0  0  0  0  0  0  0
  152.7823  141.8726  159.3810 N   0  0  0  0  0  0  0  0  0  0  0  0
  153.7895  141.8849  160.2112 C   0  0  0  0  0  0  0  0  0  0  0  0
  154.4789  140.6979  160.3152 N   0  0  0  0  0  0  0  0  0  0  0  0
  155.6302  140.4384  161.1622 C   0  0  0  0  0  0  0  0  0  0  0  0
  155.2645  140.2828  162.6591 C   0  0  2  0  0  0  0  0  0  0  0  0
  156.0384  141.2683  163.5685 C   0  0  0  0  0  0  0  0  0  0  0  0
  157.4289  141.0193  163.5345 O   0  0  0  0  0  0  0  0  0  0  0  0
  155.4053  138.8138  163.1330 C   0  0  2  0  0  0  0  0  0  0  0  0
  154.3693  137.8579  162.5680 C   0  0  0  0  0  0  0  0  0  0  0  0
  154.4639  136.6809  163.5311 C   0  0  0  0  0  0  0  0  0  0  0  0
  154.7581  137.2537  164.7994 O   0  0  0  0  0  0  0  0  0  0  0  0
  155.1929  138.6007  164.6363 C   0  0  0  0  0  0  0  0  0  0  0  0
  149.9637  141.4632  155.2258 C   0  0  0  0  0  0  0  0  0  0  0  0
  148.7218  140.5542  155.0730 C   0  0  1  0  0  0  0  0  0  0  0  0
  147.5854  141.3812  154.4362 C   0  0  0  0  0  0  0  0  0  0  0  0
  146.0514  138.2296  152.9594 H   0  0  0  0  0  0  0  0  0  0  0  0
  147.4161  138.6990  151.9715 H   0  0  0  0  0  0  0  0  0  0  0  0
  146.6629  139.8758  153.0544 H   0  0  0  0  0  0  0  0  0  0  0  0
  147.2756  138.3787  154.9893 H   0  0  0  0  0  0  0  0  0  0  0  0
  148.2472  137.3827  153.9340 H   0  0  0  0  0  0  0  0  0  0  0  0
  149.9614  138.1765  155.8373 H   0  0  0  0  0  0  0  0  0  0  0  0
  150.5184  137.7655  154.2323 H   0  0  0  0  0  0  0  0  0  0  0  0
  152.3083  138.9466  155.3955 H   0  0  0  0  0  0  0  0  0  0  0  0
  151.7677  139.8478  154.0175 H   0  0  0  0  0  0  0  0  0  0  0  0
  152.0142  141.4145  155.8539 H   0  0  0  0  0  0  0  0  0  0  0  0
  150.3739  141.2348  159.1877 H   0  0  0  0  0  0  0  0  0  0  0  0
  149.1973  141.4833  157.9084 H   0  0  0  0  0  0  0  0  0  0  0  0
  150.6957  142.4212  157.9184 H   0  0  0  0  0  0  0  0  0  0  0  0
  153.4459  136.9535  158.0672 H   0  0  0  0  0  0  0  0  0  0  0  0
  154.0616  142.7663  160.7737 H   0  0  0  0  0  0  0  0  0  0  0  0
  156.1102  139.5338  160.7888 H   0  0  0  0  0  0  0  0  0  0  0  0
  156.3522  141.2450  161.0307 H   0  0  0  0  0  0  0  0  0  0  0  0
  154.2100  140.5470  162.7521 H   0  0  0  0  0  0  0  0  0  0  0  0
  155.8603  142.3013  163.2696 H   0  0  0  0  0  0  0  0  0  0  0  0
  155.6969  141.1928  164.6006 H   0  0  0  0  0  0  0  0  0  0  0  0
  157.6060  140.3907  162.8517 H   0  0  0  0  0  0  0  0  0  0  0  0
  156.3943  138.4368  162.8667 H   0  0  0  0  0  0  0  0  0  0  0  0
  153.3734  138.3007  162.6144 H   0  0  0  0  0  0  0  0  0  0  0  0
  154.5681  137.5662  161.5363 H   0  0  0  0  0  0  0  0  0  0  0  0
  153.5495  136.0883  163.5605 H   0  0  0  0  0  0  0  0  0  0  0  0
  155.2864  136.0231  163.2474 H   0  0  0  0  0  0  0  0  0  0  0  0
  156.0979  138.7908  165.2139 H   0  0  0  0  0  0  0  0  0  0  0  0
  154.4082  139.2573  165.0149 H   0  0  0  0  0  0  0  0  0  0  0  0
  149.7089  142.3662  155.7808 H   0  0  0  0  0  0  0  0  0  0  0  0
  150.2693  141.8140  154.2387 H   0  0  0  0  0  0  0  0  0  0  0  0
  148.3947  140.2470  156.0678 H   0  0  0  0  0  0  0  0  0  0  0  0
  147.4777  142.3440  154.9369 H   0  0  0  0  0  0  0  0  0  0  0  0
  146.6157  140.8921  154.5201 H   0  0  0  0  0  0  0  0  0  0  0  0
  147.7797  141.5819  153.3820 H   0  0  0  0  0  0  0  0  0  0  0  0
  149.3332  139.6312  153.3754 H   0  0  0  0  0  0  0  0  0  0  0  0
  1  2  1  0  0  0  0
  1 30  1  0  0  0  0
  1 31  1  0  0  0  0
  1 32  1  0  0  0  0
  2  3  1  0  0  0  0
  2 33  1  0  0  0  0
  2 34  1  0  0  0  0
  3 28  1  0  0  0  0
  3  4  1  0  0  0  0
  3 64  1  0  0  0  0
  4  5  1  0  0  0  0
  4 35  1  0  0  0  0
  4 36  1  0  0  0  0
  5  6  1  0  0  0  0
  5 37  1  0  0  0  0
  5 38  1  0  0  0  0
  6  7  1  0  0  0  0
  6 27  1  0  0  0  0
  6 39  1  0  0  0  0
  7  8  1  0  0  0  0
  7  9  1  0  0  0  0
  8 40  1  0  0  0  0
  8 41  1  0  0  0  0
  8 42  1  0  0  0  0
  9 14  1  0  0  0  0
  9 10  2  0  0  0  0
 10 11  1  0  0  0  0
 11 12  2  0  0  0  0
 11 43  1  0  0  0  0
 12 13  1  0  0  0  0
 13 17  1  0  0  0  0
 13 14  2  0  0  0  0
 14 15  1  0  0  0  0
 15 16  2  0  0  0  0
 16 17  1  0  0  0  0
 16 44  1  0  0  0  0
 17 18  1  0  0  0  0
 18 19  1  0  0  0  0
 18 45  1  0  0  0  0
 18 46  1  0  0  0  0
 19 20  1  0  0  0  0
 19 22  1  0  0  0  0
 19 47  1  0  0  0  0
 20 21  1  0  0  0  0
 20 48  1  0  0  0  0
 20 49  1  0  0  0  0
 21 50  1  0  0  0  0
 22 26  1  0  0  0  0
 22 23  1  0  0  0  0
 22 51  1  0  0  0  0
 23 24  1  0  0  0  0
 23 52  1  0  0  0  0
 23 53  1  0  0  0  0
 24 25  1  0  0  0  0
 24 54  1  0  0  0  0
 24 55  1  0  0  0  0
 25 26  1  0  0  0  0
 26 56  1  0  0  0  0
 26 57  1  0  0  0  0
 27 28  1  0  0  0  0
 27 58  1  0  0  0  0
 27 59  1  0  0  0  0
 28 29  1  0  0  0  0
 28 60  1  0  0  0  0
 29 61  1  0  0  0  0
 29 62  1  0  0  0  0
 29 63  1  0  0  0  0
M  CHG  1   3   1
M  END
> <s_m_source_file>
AV-unprocessed.smi

> <i_m_source_file_index>
249

> <i_lp_mmshare_version>
43012

> <i_f3d_flags>
0

> <s_epik_input>
W0NIM11bQ0gyXU4xW0NIMl1bQ0gyXVtDQEhdKFtDSDJdW0NASF0xW0NIM10pTihbQ0gzXSljKG5bY0hdbjIpYyhjMjMpbltjSF1uM1tDSDJdW0NASF0oW0NIMl1bT0hdKVtDQEBIXTRbQ0gyXVtDSDJdT1tDSDJdNA==

> <s_epik_cmdline>
J2VwaWtfcHl0aG9uJywgJy1waCcsICc3LjAnLCAnLXRuJywgJzgnLCAnLW1hJywgJzIwMCcsICctbWV0YWxfYmluZGluZycsICctaW1hZScsICc8aW5maWxlLm1hZT4nLCAnLW9tYWUnLCAnPG91dGZpbGUubWFlPic=

> <r_lp_tautomer_probability>
1

> <r_epik_Ionization_Penalty>
0.00294688

> <r_epik_Ionization_Penalty_Charging>
0.00169971

> <r_epik_Ionization_Penalty_Neutral>
0.00124717

> <r_epik_State_Penalty>
-0

> <r_epik_Charging_Adjusted_Penalty>
0.00169971

> <i_epik_Tot_Q>
1

> <i_epik_Tot_abs_Q>
1

> <r_epik_Metal_State_Penalty>
-0

> <b_epik_Metal_Only>
0

> <s_lp_Force_Field>
OPLS_2005

> <r_lp_Energy>
57.7525

> <b_lp_Chiralities_Consistent>
1

> <s_lp_Variant>
AV-unprocessed.smi:249-3

> <Gold.Version>
5.8.1

> <Gold.Id.Protein>
6NUR|6NUR_protein|mol2

> <Gold.PLP.Fitness>
47.3114

> <Gold.PLP.PLP>
-48.2613

> <Gold.PLP.part.hbond>
-1.6390

> <Gold.PLP.part.metal>
0.0000

> <Gold.PLP.part.buried>
-0.9985

> <Gold.PLP.part.nonpolar>
-44.2666

> <Gold.PLP.part.repulsive>
0.1946

> <Gold.PLP.ligand.clash>
0.0000

> <Gold.PLP.ligand.torsion>
2.0464

> <Gold.PLP.Chemscore.Hbond>
0.7800

> <Gold.PLP.Chemscore.CHOScore>
0.0000

> <Gold.PLP.Chemscore.Metal>
0.0000

> <Gold.Chemscore.Hbonds>
donor molecule, donor type, donor heavy atom, donor atom, acceptor molecule, acceptor atom, score
      L1  H     3    64       P1  7957  0.41

> <Gold.PLP.Chemscore.Internal.Correction>
0.8029

> <Gold.Rescore>
     Score         DG    S(hbond)    S(metal)    S(lipo)     H(rot)  DE(clash)    DE(int)     intcor
      7.37     -14.62       0.97        0.00     113.82       2.90       1.85       5.40       ----

> <Gold.Chemscore.Fitness>
7.3723

> <Gold.Chemscore.DG>
-14.6167

> <Gold.Chemscore.ZeroCoef>
-5.4800

> <Gold.Chemscore.Hbond>
0.9715

> <Gold.Chemscore.Metal>
0.0000

> <Gold.Chemscore.Lipo>
113.8249

> <Gold.Chemscore.Internal_Hbond>
0.0000

> <Gold.Chemscore.DEClash>
1.8490

> <Gold.Chemscore.DEInternal>
5.3954

> <Gold.Chemscore.Rot>
2.9006

> <Gold.Chemscore.Internal.Correction>
   9.000000E+99

> <Gold.Chemscore.Hbonds>
donor molecule, donor type, donor heavy atom, donor atom, acceptor molecule, acceptor atom, score
      L1  H     3    64       P1  7957  0.41

> <Gold.Chemscore.Hbond.Weighted>
-3.2449

> <Gold.Chemscore.Metal.Weighted>
-0.0000

> <Gold.Chemscore.Lipo.Weighted>
-13.3175

> <Gold.Chemscore.Internal_Hbond.Weighted>
0.0000

> <Gold.Chemscore.DEClash.Weighted>
1.8490

> <Gold.Chemscore.DEInternal.Weighted>
5.3954

> <Gold.Chemscore.Rot.Weighted>
7.4256

> <Gold.Chemscore.Internal.Correction.Weighted>
   9.000000E+99

> <Gold.Protein.RotatedTorsions>
[ 6907 6896 6895 6894 ] final  156.64 input  -60.11 | X-H torsion
[ 7974 7965 7964 7962 ] final   33.19 input  175.53 | X-H torsion
[ 8008 7997 7996 7995 ] final  -57.74 input   59.86 | X-H torsion
[ 10167 10162 10161 10158 ] final  -92.45 input  -65.29 | X-H torsion
[ 10718 10713 10712 10709 ] final -147.19 input   66.30 | X-H torsion
[ 10763 10752 10751 10750 ] final   20.10 input  -60.55 | X-H torsion
[ 11005 11000 10999 10996 ] final  -55.27 input  -57.11 | X-H torsion

> <Gold.Protein.ActiveResidues>
 VAL166  LYS551  ARG553  GLY616  TRP617  ASP618  TYR619  PRO620  LYS621  CYS622 
 ASP623  PHE694  ASN695  SER759  ASP760  ASP761  ALA762  ILE779  LEU786  VAL792 
 PHE793  MET794  SER795  GLU796  ALA797  LYS798  CYS799  TRP800  GLU811  SER814 

> <Gold.Protein.RotatedAtoms>
  152.0267  133.3920  159.4280 H   0  0  0  0  0  0  0  0  0  0  0  0  # atno 6907 bound_to 6896
  150.6885  134.3566  159.4941 H   0  0  0  0  0  0  0  0  0  0  0  0  # atno 6908 bound_to 6896
  152.1347  134.9108  160.0607 H   0  0  0  0  0  0  0  0  0  0  0  0  # atno 6909 bound_to 6896
  146.1437  139.6429  142.9145 H   0  0  0  0  0  0  0  0  0  0  0  0  # atno 7974 bound_to 7965
  154.4280  140.1100  156.5846 H   0  0  0  0  0  0  0  0  0  0  0  0  # atno 8008 bound_to 7997
  155.6076  140.3494  155.4594 H   0  0  0  0  0  0  0  0  0  0  0  0  # atno 8009 bound_to 7997
  156.0124  140.1222  157.0430 H   0  0  0  0  0  0  0  0  0  0  0  0  # atno 8010 bound_to 7997
  140.3347  143.2975  151.9903 H   0  0  0  0  0  0  0  0  0  0  0  0  # atno 10167 bound_to 10162
  156.4044  130.7950  151.2163 H   0  0  0  0  0  0  0  0  0  0  0  0  # atno 10718 bound_to 10713
  153.1106  135.6695  153.9507 H   0  0  0  0  0  0  0  0  0  0  0  0  # atno 10763 bound_to 10752
  153.9052  135.3031  155.3450 H   0  0  0  0  0  0  0  0  0  0  0  0  # atno 10764 bound_to 10752
  154.7525  135.5027  153.9393 H   0  0  0  0  0  0  0  0  0  0  0  0  # atno 10765 bound_to 10752
  141.1066  133.6613  156.4445 H   0  0  0  0  0  0  0  0  0  0  0  0  # atno 11005 bound_to 11000
  145.4987  141.0438  143.2552 LP  0  0  0  0  0  0  0  0  0  0  0  0  # atno 17320 bound_to 7965
  144.7822  139.6502  143.7149 LP  0  0  0  0  0  0  0  0  0  0  0  0  # atno 17321 bound_to 7965
  139.4850  144.6206  151.7262 LP  0  0  0  0  0  0  0  0  0  0  0  0  # atno 17342 bound_to 10162
  140.5365  144.0648  150.6072 LP  0  0  0  0  0  0  0  0  0  0  0  0  # atno 17343 bound_to 10162
  157.7505  131.0277  150.4016 LP  0  0  0  0  0  0  0  0  0  0  0  0  # atno 17370 bound_to 10713
  156.4302  130.3970  149.6766 LP  0  0  0  0  0  0  0  0  0  0  0  0  # atno 17371 bound_to 10713
  140.4886  134.6596  157.5201 LP  0  0  0  0  0  0  0  0  0  0  0  0  # atno 17394 bound_to 11000
  139.9939  134.6942  155.9643 LP  0  0  0  0  0  0  0  0  0  0  0  0  # atno 17395 bound_to 11000

$$$$
