AV-unprocessed.smi:678|AV-procd|sdf|3318|dock6
  -GOLD-   22720 0283D 1   1.00000     0.00000
 Structure written by MMmdl.
 50 51  0  0  0  0  0  0  0  0  1 V2000
  146.9728  135.5798  163.3030 C   0  0  0  0  0  0  0  0  0  0  0  0
  147.2310  134.8988  161.9703 C   0  0  0  0  0  0  0  0  0  0  0  0
  147.2019  133.5538  161.8479 C   0  0  0  0  0  0  0  0  0  0  0  0
  147.4475  132.9152  160.5777 C   0  0  0  0  0  0  0  0  0  0  0  0
  147.7118  133.6929  159.5183 C   0  0  0  0  0  0  0  0  0  0  0  0
  147.7524  135.0960  159.6197 N   0  0  0  0  0  0  0  0  0  0  0  0
  148.0501  135.8462  158.3877 C   0  0  0  0  0  0  0  0  0  0  0  0
  149.3480  136.6612  158.4748 C   0  0  0  0  0  0  0  0  0  0  0  0
  150.0416  136.6340  159.4924 O   0  0  0  0  0  0  0  0  0  0  0  0
  149.6470  137.4074  157.4003 N   0  0  0  0  0  0  0  0  0  0  0  0
  150.8185  138.2682  157.2657 C   0  0  0  0  0  0  0  0  0  0  0  0
  150.4956  139.7415  157.5732 C   0  0  1  0  0  0  0  0  0  0  0  0
  151.4963  140.4038  158.5458 C   0  0  0  0  0  0  0  0  0  0  0  0
  151.2140  141.8231  158.7467 N   0  0  0  0  0  0  0  0  0  0  0  0
  152.1687  142.4691  159.6493 C   0  0  0  0  0  0  0  0  0  0  0  0
  151.6389  143.6897  160.4333 C   0  0  0  0  0  0  0  0  0  0  0  0
  151.9395  145.0109  159.7068 C   0  0  0  0  0  0  0  0  0  0  0  0
  152.2274  143.7100  161.8515 C   0  0  0  0  0  0  0  0  0  0  0  0
  151.1921  142.4895  157.4502 C   0  0  0  0  0  0  0  0  0  0  0  0
  150.1925  141.8332  156.4846 C   0  0  0  0  0  0  0  0  0  0  0  0
  150.5107  140.4535  156.3386 O   0  0  0  0  0  0  0  0  0  0  0  0
  147.5171  135.7494  160.7997 C   0  0  0  0  0  0  0  0  0  0  0  0
  147.5465  136.9796  160.8705 O   0  0  0  0  0  0  0  0  0  0  0  0
  146.7946  134.8515  164.0949 H   0  0  0  0  0  0  0  0  0  0  0  0
  146.0977  136.2270  163.2370 H   0  0  0  0  0  0  0  0  0  0  0  0
  147.8298  136.1886  163.5933 H   0  0  0  0  0  0  0  0  0  0  0  0
  146.9907  132.9390  162.7106 H   0  0  0  0  0  0  0  0  0  0  0  0
  147.4155  131.8399  160.4822 H   0  0  0  0  0  0  0  0  0  0  0  0
  147.8992  133.2957  158.5311 H   0  0  0  0  0  0  0  0  0  0  0  0
  148.1024  135.1651  157.5361 H   0  0  0  0  0  0  0  0  0  0  0  0
  147.2357  136.5327  158.1519 H   0  0  0  0  0  0  0  0  0  0  0  0
  149.0159  137.3750  156.6127 H   0  0  0  0  0  0  0  0  0  0  0  0
  151.6400  137.9192  157.8937 H   0  0  0  0  0  0  0  0  0  0  0  0
  151.1686  138.1831  156.2367 H   0  0  0  0  0  0  0  0  0  0  0  0
  149.4897  139.8000  157.9934 H   0  0  0  0  0  0  0  0  0  0  0  0
  151.4512  139.8806  159.4994 H   0  0  0  0  0  0  0  0  0  0  0  0
  152.5117  140.2780  158.1664 H   0  0  0  0  0  0  0  0  0  0  0  0
  152.5505  141.7291  160.3544 H   0  0  0  0  0  0  0  0  0  0  0  0
  153.0334  142.7972  159.0705 H   0  0  0  0  0  0  0  0  0  0  0  0
  150.5586  143.6040  160.5472 H   0  0  0  0  0  0  0  0  0  0  0  0
  153.0116  145.1494  159.5636 H   0  0  0  0  0  0  0  0  0  0  0  0
  151.5660  145.8644  160.2732 H   0  0  0  0  0  0  0  0  0  0  0  0
  151.4656  145.0405  158.7254 H   0  0  0  0  0  0  0  0  0  0  0  0
  153.3138  143.8021  161.8289 H   0  0  0  0  0  0  0  0  0  0  0  0
  151.9822  142.7950  162.3916 H   0  0  0  0  0  0  0  0  0  0  0  0
  151.8343  144.5467  162.4297 H   0  0  0  0  0  0  0  0  0  0  0  0
  150.9299  143.5403  157.5781 H   0  0  0  0  0  0  0  0  0  0  0  0
  152.1888  142.4685  157.0062 H   0  0  0  0  0  0  0  0  0  0  0  0
  149.1705  141.9430  156.8506 H   0  0  0  0  0  0  0  0  0  0  0  0
  150.2371  142.3148  155.5078 H   0  0  0  0  0  0  0  0  0  0  0  0
  1  2  1  0  0  0  0
  1 24  1  0  0  0  0
  1 25  1  0  0  0  0
  1 26  1  0  0  0  0
  2 22  1  0  0  0  0
  2  3  2  0  0  0  0
  3  4  1  0  0  0  0
  3 27  1  0  0  0  0
  4  5  2  0  0  0  0
  4 28  1  0  0  0  0
  5  6  1  0  0  0  0
  5 29  1  0  0  0  0
  6  7  1  0  0  0  0
  6 22  1  0  0  0  0
  7  8  1  0  0  0  0
  7 30  1  0  0  0  0
  7 31  1  0  0  0  0
  8  9  2  0  0  0  0
  8 10  1  0  0  0  0
 10 11  1  0  0  0  0
 10 32  1  0  0  0  0
 11 12  1  0  0  0  0
 11 33  1  0  0  0  0
 11 34  1  0  0  0  0
 12 21  1  0  0  0  0
 12 13  1  0  0  0  0
 12 35  1  0  0  0  0
 13 14  1  0  0  0  0
 13 36  1  0  0  0  0
 13 37  1  0  0  0  0
 14 15  1  0  0  0  0
 14 19  1  0  0  0  0
 15 16  1  0  0  0  0
 15 38  1  0  0  0  0
 15 39  1  0  0  0  0
 16 17  1  0  0  0  0
 16 18  1  0  0  0  0
 16 40  1  0  0  0  0
 17 41  1  0  0  0  0
 17 42  1  0  0  0  0
 17 43  1  0  0  0  0
 18 44  1  0  0  0  0
 18 45  1  0  0  0  0
 18 46  1  0  0  0  0
 19 20  1  0  0  0  0
 19 47  1  0  0  0  0
 19 48  1  0  0  0  0
 20 21  1  0  0  0  0
 20 49  1  0  0  0  0
 20 50  1  0  0  0  0
 22 23  2  0  0  0  0
M  END
> <s_m_source_file>
AV-unprocessed.smi

> <i_m_source_file_index>
678

> <i_lp_mmshare_version>
43012

> <i_f3d_flags>
0

> <s_epik_input>
W0NIM11jMVtjSF1bY0hdW2NIXW4oYzE9TylbQ0gyXUMoPU8pW05IXVtDSDJdW0NAQEhdMltDSDJdTihbQ0gyXVtDSDJdTzIpW0NIMl1bQ0hdKFtDSDNdKVtDSDNd

> <s_epik_cmdline>
J2VwaWtfcHl0aG9uJywgJy1waCcsICc3LjAnLCAnLXRuJywgJzgnLCAnLW1hJywgJzIwMCcsICctbWV0YWxfYmluZGluZycsICctaW1hZScsICc8aW5maWxlLm1hZT4nLCAnLW9tYWUnLCAnPG91dGZpbGUubWFlPic=

> <r_lp_tautomer_probability>
1

> <r_epik_Ionization_Penalty>
1.11669

> <r_epik_Ionization_Penalty_Charging>
7.32459e-07

> <r_epik_Ionization_Penalty_Neutral>
1.11669

> <r_epik_State_Penalty>
1.17516

> <r_epik_Charging_Adjusted_Penalty>
1.17516

> <i_epik_Tot_Q>
0

> <i_epik_Tot_abs_Q>
0

> <r_epik_Metal_State_Penalty>
1.17513

> <b_epik_Metal_Only>
0

> <s_lp_Force_Field>
OPLS_2005

> <r_lp_Energy>
33.1266

> <b_lp_Chiralities_Consistent>
1

> <s_lp_Variant>
AV-unprocessed.smi:678-6

> <Gold.Version>
5.8.1

> <Gold.Id.Protein>
6NUR|6NUR_protein|mol2

> <Gold.PLP.Fitness>
52.1514

> <Gold.PLP.PLP>
-47.0009

> <Gold.PLP.part.hbond>
-3.0000

> <Gold.PLP.part.metal>
0.0000

> <Gold.PLP.part.buried>
-6.9153

> <Gold.PLP.part.nonpolar>
-37.7818

> <Gold.PLP.part.repulsive>
0.0668

> <Gold.PLP.ligand.clash>
0.0000

> <Gold.PLP.ligand.torsion>
1.6277

> <Gold.PLP.Chemscore.Hbond>
2.7760

> <Gold.PLP.Chemscore.CHOScore>
0.0000

> <Gold.PLP.Chemscore.Metal>
0.0000

> <Gold.Chemscore.Hbonds>
donor molecule, donor type, donor heavy atom, donor atom, acceptor molecule, acceptor atom, score
      P1  H  6896  6907       L1     9  1.00
      P1  H  6931  6943       L1    23  0.51
      P1  H  6934  6947       L1    23  0.89

> <Gold.PLP.Chemscore.Internal.Correction>
0.0779

> <Gold.Rescore>
     Score         DG    S(hbond)    S(metal)    S(lipo)     H(rot)  DE(clash)    DE(int)     intcor
     21.36     -23.37       2.69        0.00     115.88       1.82       0.12       1.90       ----

> <Gold.Chemscore.Fitness>
21.3571

> <Gold.Chemscore.DG>
-23.3679

> <Gold.Chemscore.ZeroCoef>
-5.4800

> <Gold.Chemscore.Hbond>
2.6946

> <Gold.Chemscore.Metal>
0.0000

> <Gold.Chemscore.Lipo>
115.8821

> <Gold.Chemscore.Internal_Hbond>
0.0000

> <Gold.Chemscore.DEClash>
0.1155

> <Gold.Chemscore.DEInternal>
1.8953

> <Gold.Chemscore.Rot>
1.8243

> <Gold.Chemscore.Internal.Correction>
   9.000000E+99

> <Gold.Chemscore.Hbonds>
donor molecule, donor type, donor heavy atom, donor atom, acceptor molecule, acceptor atom, score
      P1  H  6896  6907       L1     9  0.85
      P1  H  6931  6943       L1    23  0.48
      P1  H  6934  6947       L1    23  0.82

> <Gold.Chemscore.Hbond.Weighted>
-9.0000

> <Gold.Chemscore.Metal.Weighted>
-0.0000

> <Gold.Chemscore.Lipo.Weighted>
-13.5582

> <Gold.Chemscore.Internal_Hbond.Weighted>
0.0000

> <Gold.Chemscore.DEClash.Weighted>
0.1155

> <Gold.Chemscore.DEInternal.Weighted>
1.8953

> <Gold.Chemscore.Rot.Weighted>
4.6703

> <Gold.Chemscore.Internal.Correction.Weighted>
   9.000000E+99

> <Gold.Protein.RotatedTorsions>
[ 6907 6896 6895 6894 ] final  -42.07 input  -60.11 | X-H torsion
[ 7974 7965 7964 7962 ] final -116.90 input  175.53 | X-H torsion
[ 8008 7997 7996 7995 ] final -100.14 input   59.86 | X-H torsion
[ 10167 10162 10161 10158 ] final  -32.59 input  -65.29 | X-H torsion
[ 10718 10713 10712 10709 ] final  -14.12 input   66.30 | X-H torsion
[ 10763 10752 10751 10750 ] final   64.73 input  -60.55 | X-H torsion
[ 11005 11000 10999 10996 ] final  -10.33 input  -57.11 | X-H torsion

> <Gold.Protein.ActiveResidues>
 VAL166  LYS551  ARG553  GLY616  TRP617  ASP618  TYR619  PRO620  LYS621  CYS622 
 ASP623  PHE694  ASN695  SER759  ASP760  ASP761  ALA762  ILE779  LEU786  VAL792 
 PHE793  MET794  SER795  GLU796  ALA797  LYS798  CYS799  TRP800  GLU811  SER814 

> <Gold.Protein.RotatedAtoms>
  150.9594  134.8984  159.7720 H   0  0  0  0  0  0  0  0  0  0  0  0  # atno 6907 bound_to 6896
  152.5150  134.3694  159.9323 H   0  0  0  0  0  0  0  0  0  0  0  0  # atno 6908 bound_to 6896
  151.3707  133.3815  159.2734 H   0  0  0  0  0  0  0  0  0  0  0  0  # atno 6909 bound_to 6896
  145.0914  140.8492  143.3980 H   0  0  0  0  0  0  0  0  0  0  0  0  # atno 7974 bound_to 7965
  154.8245  140.0443  157.1434 H   0  0  0  0  0  0  0  0  0  0  0  0  # atno 8008 bound_to 7997
  154.9222  140.3028  155.5190 H   0  0  0  0  0  0  0  0  0  0  0  0  # atno 8009 bound_to 7997
  156.2982  140.2338  156.4273 H   0  0  0  0  0  0  0  0  0  0  0  0  # atno 8010 bound_to 7997
  140.7219  143.3683  151.1827 H   0  0  0  0  0  0  0  0  0  0  0  0  # atno 10167 bound_to 10162
  156.6205  130.4874  149.6166 H   0  0  0  0  0  0  0  0  0  0  0  0  # atno 10718 bound_to 10713
  153.0067  135.5382  154.6555 H   0  0  0  0  0  0  0  0  0  0  0  0  # atno 10763 bound_to 10752
  154.5777  135.2847  155.0766 H   0  0  0  0  0  0  0  0  0  0  0  0  # atno 10764 bound_to 10752
  154.1907  135.6500  153.5112 H   0  0  0  0  0  0  0  0  0  0  0  0  # atno 10765 bound_to 10752
  140.7436  133.8650  155.8987 H   0  0  0  0  0  0  0  0  0  0  0  0  # atno 11005 bound_to 11000
  145.1062  139.2788  143.5661 LP  0  0  0  0  0  0  0  0  0  0  0  0  # atno 17320 bound_to 7965
  146.3531  140.0644  142.8627 LP  0  0  0  0  0  0  0  0  0  0  0  0  # atno 17321 bound_to 7965
  139.7249  143.9164  152.2999 LP  0  0  0  0  0  0  0  0  0  0  0  0  # atno 17342 bound_to 10162
  139.8933  144.6953  150.8746 LP  0  0  0  0  0  0  0  0  0  0  0  0  # atno 17343 bound_to 10162
  156.2315  130.6797  151.1468 LP  0  0  0  0  0  0  0  0  0  0  0  0  # atno 17370 bound_to 10713
  157.7229  131.0670  150.6059 LP  0  0  0  0  0  0  0  0  0  0  0  0  # atno 17371 bound_to 10713
  140.9814  134.1400  157.4490 LP  0  0  0  0  0  0  0  0  0  0  0  0  # atno 17394 bound_to 11000
  139.8801  135.0012  156.6052 LP  0  0  0  0  0  0  0  0  0  0  0  0  # atno 17395 bound_to 11000

$$$$
