AV-unprocessed.smi:2391|AV-procd|sdf|9486|dock10
  -GOLD-   2272013113D 1   1.00000     0.00000
 Structure written by MMmdl.
 34 35  0  0  0  0  0  0  0  0  2 V2000
  150.5348  140.9373  158.1778 O   0  0  0  0  0  0  0  0  0  0  0  0
  151.7542  140.9686  157.9990 C   0  0  0  0  0  0  0  0  0  0  0  0
  152.4502  140.2327  157.1013 N   0  5  0  0  0  0  0  0  0  0  0  0
  151.8302  139.6909  156.0421 C   0  0  0  0  0  0  0  0  0  0  0  0
  150.6906  140.3134  155.4852 C   0  0  0  0  0  0  0  0  0  0  0  0
  150.0660  139.7045  154.3838 C   0  0  0  0  0  0  0  0  0  0  0  0
  150.6231  138.5038  153.9132 C   0  0  0  0  0  0  0  0  0  0  0  0
  151.7107  137.9383  154.4792 N   0  0  0  0  0  0  0  0  0  0  0  0
  152.2984  138.5251  155.5280 N   0  0  0  0  0  0  0  0  0  0  0  0
  152.5243  141.7809  158.7379 N   0  0  0  0  0  0  0  0  0  0  0  0
  152.0814  142.7009  159.7890 C   0  0  1  0  0  0  0  0  0  0  0  0
  153.0936  142.6741  160.9645 C   0  0  0  0  0  0  0  0  0  0  0  0
  153.5975  141.2735  161.3367 C   0  0  0  0  0  0  0  0  0  0  0  0
  154.2039  141.4290  162.7327 C   0  0  0  0  0  0  0  0  0  0  0  0
  153.4683  142.6081  163.3834 C   0  0  0  0  0  0  0  0  0  0  0  0
  152.5533  143.1971  162.3021 C   0  0  0  0  0  0  0  0  0  0  0  0
  151.8840  144.1022  159.1668 C   0  0  0  0  0  0  0  0  0  0  0  0
  150.8604  144.0787  158.3120 F   0  0  0  0  0  0  0  0  0  0  0  0
  151.6056  145.0069  160.1046 F   0  0  0  0  0  0  0  0  0  0  0  0
  152.9798  144.4853  158.5100 F   0  0  0  0  0  0  0  0  0  0  0  0
  150.3064  141.2377  155.8916 H   0  0  0  0  0  0  0  0  0  0  0  0
  149.1946  140.1407  153.9189 H   0  0  0  0  0  0  0  0  0  0  0  0
  150.1895  137.9861  153.0704 H   0  0  0  0  0  0  0  0  0  0  0  0
  153.5153  141.7665  158.5464 H   0  0  0  0  0  0  0  0  0  0  0  0
  151.1104  142.3805  160.1701 H   0  0  0  0  0  0  0  0  0  0  0  0
  153.9627  143.2760  160.6938 H   0  0  0  0  0  0  0  0  0  0  0  0
  152.7588  140.5770  161.3791 H   0  0  0  0  0  0  0  0  0  0  0  0
  154.3171  140.8790  160.6185 H   0  0  0  0  0  0  0  0  0  0  0  0
  154.1160  140.5129  163.3172 H   0  0  0  0  0  0  0  0  0  0  0  0
  155.2657  141.6630  162.6489 H   0  0  0  0  0  0  0  0  0  0  0  0
  152.8909  142.2919  164.2527 H   0  0  0  0  0  0  0  0  0  0  0  0
  154.1882  143.3532  163.7238 H   0  0  0  0  0  0  0  0  0  0  0  0
  152.5280  144.2861  162.3455 H   0  0  0  0  0  0  0  0  0  0  0  0
  151.5352  142.8368  162.4565 H   0  0  0  0  0  0  0  0  0  0  0  0
  1  2  2  0  0  0  0
  2  3  1  0  0  0  0
  2 10  1  0  0  0  0
  3  4  1  0  0  0  0
  4  9  1  0  0  0  0
  4  5  2  0  0  0  0
  5  6  1  0  0  0  0
  5 21  1  0  0  0  0
  6  7  2  0  0  0  0
  6 22  1  0  0  0  0
  7  8  1  0  0  0  0
  7 23  1  0  0  0  0
  8  9  2  0  0  0  0
 10 11  1  0  0  0  0
 10 24  1  0  0  0  0
 11 12  1  0  0  0  0
 11 17  1  0  0  0  0
 11 25  1  0  0  0  0
 12 16  1  0  0  0  0
 12 13  1  0  0  0  0
 12 26  1  0  0  0  0
 13 14  1  0  0  0  0
 13 27  1  0  0  0  0
 13 28  1  0  0  0  0
 14 15  1  0  0  0  0
 14 29  1  0  0  0  0
 14 30  1  0  0  0  0
 15 16  1  0  0  0  0
 15 31  1  0  0  0  0
 15 32  1  0  0  0  0
 16 33  1  0  0  0  0
 16 34  1  0  0  0  0
 17 18  1  0  0  0  0
 17 19  1  0  0  0  0
 17 20  1  0  0  0  0
M  CHG  1   3  -1
M  END
> <s_m_source_file>
AV-unprocessed.smi

> <i_m_source_file_index>
2391

> <i_lp_mmshare_version>
43012

> <i_f3d_flags>
0

> <s_epik_input>
W0NIMl0xW0NIMl1bQ0gyXVtDSDJdW0NIXTFbQ0BIXShDKEYpKEYpRilbTkhdQyg9TylbTkhdYzJbY0hdW2NIXVtjSF1ubjI=

> <s_epik_cmdline>
J2VwaWtfcHl0aG9uJywgJy1waCcsICc3LjAnLCAnLXRuJywgJzgnLCAnLW1hJywgJzIwMCcsICctbWV0YWxfYmluZGluZycsICctaW1hZScsICc8aW5maWxlLm1hZT4nLCAnLW9tYWUnLCAnPG91dGZpbGUubWFlPic=

> <r_lp_tautomer_probability>
1

> <r_epik_Ionization_Penalty>
8.90766

> <r_epik_Ionization_Penalty_Charging>
5.82661

> <r_epik_Ionization_Penalty_Neutral>
3.08106

> <r_epik_State_Penalty>
5.83894

> <r_epik_Charging_Adjusted_Penalty>
11.6655

> <i_epik_Tot_Q>
-1

> <i_epik_Tot_abs_Q>
1

> <r_epik_Metal_State_Penalty>
1.80768

> <b_epik_Metal_Only>
1

> <s_lp_Force_Field>
OPLS_2005

> <r_lp_Energy>
28.2955

> <b_lp_Chiralities_Consistent>
1

> <s_lp_Variant>
AV-unprocessed.smi:2391-6

> <Gold.Version>
5.8.1

> <Gold.Id.Protein>
6NUR|6NUR_protein|mol2

> <Gold.PLP.Fitness>
57.1523

> <Gold.PLP.PLP>
-49.5536

> <Gold.PLP.part.hbond>
-1.0000

> <Gold.PLP.part.metal>
0.0000

> <Gold.PLP.part.buried>
-1.5220

> <Gold.PLP.part.nonpolar>
-46.2018

> <Gold.PLP.part.repulsive>
0.2461

> <Gold.PLP.ligand.clash>
0.0000

> <Gold.PLP.ligand.torsion>
0.9980

> <Gold.PLP.Chemscore.Hbond>
2.0000

> <Gold.PLP.Chemscore.CHOScore>
1.0709

> <Gold.PLP.Chemscore.Metal>
0.0000

> <Gold.Chemscore.Hbonds>
donor molecule, donor type, donor heavy atom, donor atom, acceptor molecule, acceptor atom, score
      P1  H  7997  8010       L1     3  2.00
      L1  C     7    23       P1  7948  0.93
      L1  C     7    23       P1  7949  0.11
      L1  C     7    23       P1  7957  0.11

> <Gold.PLP.Chemscore.Internal.Correction>
0.3821

> <Gold.Rescore>
     Score         DG    S(hbond)    S(metal)    S(lipo)     H(rot)  DE(clash)    DE(int)     intcor
     11.62     -13.96       0.00        0.00     101.32       1.32       0.09       2.25       ----

> <Gold.Chemscore.Fitness>
11.6188

> <Gold.Chemscore.DG>
-13.9606

> <Gold.Chemscore.ZeroCoef>
-5.4800

> <Gold.Chemscore.Hbond>
0.0000

> <Gold.Chemscore.Metal>
0.0000

> <Gold.Chemscore.Lipo>
101.3187

> <Gold.Chemscore.Internal_Hbond>
0.0000

> <Gold.Chemscore.DEClash>
0.0904

> <Gold.Chemscore.DEInternal>
2.2514

> <Gold.Chemscore.Rot>
1.3179

> <Gold.Chemscore.Internal.Correction>
   9.000000E+99

> <Gold.Chemscore.Hbonds>
donor molecule, donor type, donor heavy atom, donor atom, acceptor molecule, acceptor atom, score
      P1  H  7997  8010       L1     3  0.37

> <Gold.Chemscore.Hbond.Weighted>
-0.0000

> <Gold.Chemscore.Metal.Weighted>
-0.0000

> <Gold.Chemscore.Lipo.Weighted>
-11.8543

> <Gold.Chemscore.Internal_Hbond.Weighted>
0.0000

> <Gold.Chemscore.DEClash.Weighted>
0.0904

> <Gold.Chemscore.DEInternal.Weighted>
2.2514

> <Gold.Chemscore.Rot.Weighted>
3.3737

> <Gold.Chemscore.Internal.Correction.Weighted>
   9.000000E+99

> <Gold.Protein.RotatedTorsions>
[ 6907 6896 6895 6894 ] final  -92.20 input  -60.11 | X-H torsion
[ 7974 7965 7964 7962 ] final    5.19 input  175.53 | X-H torsion
[ 8008 7997 7996 7995 ] final   62.99 input   59.86 | X-H torsion
[ 10167 10162 10161 10158 ] final   75.12 input  -65.29 | X-H torsion
[ 10718 10713 10712 10709 ] final   67.35 input   66.30 | X-H torsion
[ 10763 10752 10751 10750 ] final  -89.02 input  -60.55 | X-H torsion
[ 11005 11000 10999 10996 ] final   23.08 input  -57.11 | X-H torsion

> <Gold.Protein.ActiveResidues>
 VAL166  LYS551  ARG553  GLY616  TRP617  ASP618  TYR619  PRO620  LYS621  CYS622 
 ASP623  PHE694  ASN695  SER759  ASP760  ASP761  ALA762  ILE779  LEU786  VAL792 
 PHE793  MET794  SER795  GLU796  ALA797  LYS798  CYS799  TRP800  GLU811  SER814 

> <Gold.Protein.RotatedAtoms>
  150.6903  134.2159  159.4377 H   0  0  0  0  0  0  0  0  0  0  0  0  # atno 6907 bound_to 6896
  152.0118  134.9870  160.0577 H   0  0  0  0  0  0  0  0  0  0  0  0  # atno 6908 bound_to 6896
  152.1481  133.4470  159.4837 H   0  0  0  0  0  0  0  0  0  0  0  0  # atno 6909 bound_to 6896
  146.2441  140.0422  142.8381 H   0  0  0  0  0  0  0  0  0  0  0  0  # atno 7974 bound_to 7965
  155.6232  140.3496  155.4658 H   0  0  0  0  0  0  0  0  0  0  0  0  # atno 8008 bound_to 7997
  156.0063  140.1224  157.0522 H   0  0  0  0  0  0  0  0  0  0  0  0  # atno 8009 bound_to 7997
  154.4265  140.1090  156.5753 H   0  0  0  0  0  0  0  0  0  0  0  0  # atno 8010 bound_to 7997
  140.0064  144.5647  150.7694 H   0  0  0  0  0  0  0  0  0  0  0  0  # atno 10167 bound_to 10162
  157.6225  130.9316  150.0231 H   0  0  0  0  0  0  0  0  0  0  0  0  # atno 10718 bound_to 10713
  154.6508  135.5356  153.7899 H   0  0  0  0  0  0  0  0  0  0  0  0  # atno 10763 bound_to 10752
  153.0385  135.6482  154.1020 H   0  0  0  0  0  0  0  0  0  0  0  0  # atno 10764 bound_to 10752
  154.0937  135.2938  155.3246 H   0  0  0  0  0  0  0  0  0  0  0  0  # atno 10765 bound_to 10752
  140.3736  134.1996  155.7666 H   0  0  0  0  0  0  0  0  0  0  0  0  # atno 11005 bound_to 11000
  145.1059  140.9375  143.4685 LP  0  0  0  0  0  0  0  0  0  0  0  0  # atno 17320 bound_to 7965
  145.0625  139.3094  143.5873 LP  0  0  0  0  0  0  0  0  0  0  0  0  # atno 17321 bound_to 7965
  140.7399  143.2797  151.3636 LP  0  0  0  0  0  0  0  0  0  0  0  0  # atno 17342 bound_to 10162
  139.6235  144.0859  152.2413 LP  0  0  0  0  0  0  0  0  0  0  0  0  # atno 17343 bound_to 10162
  156.1378  130.3642  149.9629 LP  0  0  0  0  0  0  0  0  0  0  0  0  # atno 17370 bound_to 10713
  156.7677  130.9174  151.3643 LP  0  0  0  0  0  0  0  0  0  0  0  0  # atno 17371 bound_to 10713
  141.1947  133.8123  157.0748 LP  0  0  0  0  0  0  0  0  0  0  0  0  # atno 17394 bound_to 11000
  140.0533  134.9794  157.1175 LP  0  0  0  0  0  0  0  0  0  0  0  0  # atno 17395 bound_to 11000

$$$$
