AV-unprocessed.smi:49|AV-procd|sdf|463|dock7
  -GOLD-   2262016333D 1   1.00000     0.00000
 Structure written by MMmdl.
 28 29  0  0  0  0  0  0  0  0  2 V2000
  146.9203  139.0052  153.0239 C   0  0  0  0  0  0  0  0  0  0  0  0
  146.6660  138.3284  151.6727 C   0  0  0  0  0  0  0  0  0  0  0  0
  145.5698  137.3158  151.7348 C   0  0  0  0  0  0  0  0  0  0  0  0
  145.6812  136.0427  151.3704 N   0  0  0  0  0  0  0  0  0  0  0  0
  144.4223  135.5942  151.6575 C   0  0  0  0  0  0  0  0  0  0  0  0
  143.9942  134.1855  151.3750 C   0  0  2  0  0  0  0  0  0  0  0  0
  144.9913  133.1472  151.9154 C   0  0  0  0  0  0  0  0  0  0  0  0
  145.7683  132.6998  150.6797 C   0  0  1  0  0  0  0  0  0  0  0  0
  146.3014  131.4008  150.8253 O   0  0  0  0  0  0  0  0  0  0  0  0
  144.7142  132.7712  149.5768 C   0  0  0  0  0  0  0  0  0  0  0  0
  143.8778  133.9349  149.9204 N   0  3  0  0  0  0  0  0  0  0  0  0
  143.5773  136.5055  152.1430 N   0  0  0  0  0  0  0  0  0  0  0  0
  144.3521  137.6094  152.1949 N   0  0  0  0  0  0  0  0  0  0  0  0
  143.0169  134.0237  151.8318 H   0  0  0  0  0  0  0  0  0  0  0  0
  146.5736  133.4060  150.4712 H   0  0  0  0  0  0  0  0  0  0  0  0
  144.0207  138.5032  152.5297 H   0  0  0  0  0  0  0  0  0  0  0  0
  147.7249  139.7368  152.9466 H   0  0  0  0  0  0  0  0  0  0  0  0
  147.2060  138.2757  153.7823 H   0  0  0  0  0  0  0  0  0  0  0  0
  146.0296  139.5255  153.3773 H   0  0  0  0  0  0  0  0  0  0  0  0
  146.4160  139.0797  150.9228 H   0  0  0  0  0  0  0  0  0  0  0  0
  147.5763  137.8366  151.3280 H   0  0  0  0  0  0  0  0  0  0  0  0
  145.6288  133.5241  152.7165 H   0  0  0  0  0  0  0  0  0  0  0  0
  144.4328  132.2992  152.3159 H   0  0  0  0  0  0  0  0  0  0  0  0
  147.2316  131.4698  150.9798 H   0  0  0  0  0  0  0  0  0  0  0  0
  145.1466  132.8622  148.5802 H   0  0  0  0  0  0  0  0  0  0  0  0
  144.0817  131.8821  149.5935 H   0  0  0  0  0  0  0  0  0  0  0  0
  142.9167  133.7825  149.6509 H   0  0  0  0  0  0  0  0  0  0  0  0
  144.2413  134.7463  149.4403 H   0  0  0  0  0  0  0  0  0  0  0  0
  1  2  1  0  0  0  0
  1 17  1  0  0  0  0
  1 18  1  0  0  0  0
  1 19  1  0  0  0  0
  2  3  1  0  0  0  0
  2 20  1  0  0  0  0
  2 21  1  0  0  0  0
  3 13  1  0  0  0  0
  3  4  2  0  0  0  0
  4  5  1  0  0  0  0
  5  6  1  0  0  0  0
  5 12  2  0  0  0  0
  6 14  1  0  0  0  0
  6 11  1  0  0  0  0
  6  7  1  0  0  0  0
  7  8  1  0  0  0  0
  7 22  1  0  0  0  0
  7 23  1  0  0  0  0
  8 15  1  0  0  0  0
  8  9  1  0  0  0  0
  8 10  1  0  0  0  0
  9 24  1  0  0  0  0
 10 11  1  0  0  0  0
 10 25  1  0  0  0  0
 10 26  1  0  0  0  0
 11 27  1  0  0  0  0
 11 28  1  0  0  0  0
 12 13  1  0  0  0  0
 13 16  1  0  0  0  0
M  CHG  1  11   1
M  END
> <s_m_source_file>
AV-unprocessed.smi

> <i_m_source_file_index>
49

> <i_lp_mmshare_version>
43012

> <i_f3d_flags>
0

> <s_epik_input>
W0NIM11bQ0gyXWMxbmMobltuSF0xKVtDQEBIXTJbQ0gyXVtDQEBIXShbT0hdKVtDSDJdW05IXTI=

> <s_epik_cmdline>
J2VwaWtfcHl0aG9uJywgJy1waCcsICc3LjAnLCAnLXRuJywgJzgnLCAnLW1hJywgJzIwMCcsICctbWV0YWxfYmluZGluZycsICctaW1hZScsICc8aW5maWxlLm1hZT4nLCAnLW9tYWUnLCAnPG91dGZpbGUubWFlPic=

> <r_lp_tautomer_probability>
0.948284

> <r_epik_Ionization_Penalty>
0.045643

> <r_epik_Ionization_Penalty_Charging>
0.0371552

> <r_epik_Ionization_Penalty_Neutral>
0.00848778

> <r_epik_State_Penalty>
0.283309

> <r_epik_Charging_Adjusted_Penalty>
0.320465

> <i_epik_Tot_Q>
1

> <i_epik_Tot_abs_Q>
1

> <r_epik_Metal_State_Penalty>
0.558162

> <b_epik_Metal_Only>
0

> <s_lp_Force_Field>
OPLS_2005

> <r_lp_Energy>
17.5806

> <b_lp_Chiralities_Consistent>
1

> <s_lp_Variant>
AV-unprocessed.smi:49-1

> <Gold.Version>
5.8.1

> <Gold.Id.Protein>
6NUR|6NUR_protein|mol2

> <Gold.PLP.Fitness>
35.2303

> <Gold.PLP.PLP>
-23.7946

> <Gold.PLP.part.hbond>
-4.0000

> <Gold.PLP.part.metal>
0.0000

> <Gold.PLP.part.buried>
-0.4516

> <Gold.PLP.part.nonpolar>
-20.0200

> <Gold.PLP.part.repulsive>
0.4762

> <Gold.PLP.ligand.clash>
0.0000

> <Gold.PLP.ligand.torsion>
0.2765

> <Gold.PLP.Chemscore.Hbond>
3.9920

> <Gold.PLP.Chemscore.CHOScore>
0.0000

> <Gold.PLP.Chemscore.Metal>
0.0000

> <Gold.Chemscore.Hbonds>
donor molecule, donor type, donor heavy atom, donor atom, acceptor molecule, acceptor atom, score
      L1  H     9    24       P1 10747  0.83
      L1  H    11    27       P1 10186  2.00
      L1  H    13    16       P1 10175  1.00

> <Gold.PLP.Chemscore.Internal.Correction>
0.0128

> <Gold.Rescore>
     Score         DG    S(hbond)    S(metal)    S(lipo)     H(rot)  DE(clash)    DE(int)     intcor
     14.09     -16.04       2.87        0.00      49.52       1.89       1.49       0.46       ----

> <Gold.Chemscore.Fitness>
14.0863

> <Gold.Chemscore.DG>
-16.0385

> <Gold.Chemscore.ZeroCoef>
-5.4800

> <Gold.Chemscore.Hbond>
2.8739

> <Gold.Chemscore.Metal>
0.0000

> <Gold.Chemscore.Lipo>
49.5197

> <Gold.Chemscore.Internal_Hbond>
0.0000

> <Gold.Chemscore.DEClash>
1.4943

> <Gold.Chemscore.DEInternal>
0.4579

> <Gold.Chemscore.Rot>
1.8883

> <Gold.Chemscore.Internal.Correction>
   9.000000E+99

> <Gold.Chemscore.Hbonds>
donor molecule, donor type, donor heavy atom, donor atom, acceptor molecule, acceptor atom, score
      L1  H     9    24       P1 10747  0.81
      L1  H    11    27       P1 10186  0.89
      L1  H    13    16       P1 10175  0.97

> <Gold.Chemscore.Hbond.Weighted>
-9.5987

> <Gold.Chemscore.Metal.Weighted>
-0.0000

> <Gold.Chemscore.Lipo.Weighted>
-5.7938

> <Gold.Chemscore.Internal_Hbond.Weighted>
0.0000

> <Gold.Chemscore.DEClash.Weighted>
1.4943

> <Gold.Chemscore.DEInternal.Weighted>
0.4579

> <Gold.Chemscore.Rot.Weighted>
4.8340

> <Gold.Chemscore.Internal.Correction.Weighted>
   9.000000E+99

> <Gold.Protein.RotatedTorsions>
[ 6907 6896 6895 6894 ] final  134.35 input  -60.11 | X-H torsion
[ 7974 7965 7964 7962 ] final  149.32 input  175.53 | X-H torsion
[ 8008 7997 7996 7995 ] final   36.44 input   59.86 | X-H torsion
[ 10167 10162 10161 10158 ] final  -36.84 input  -65.29 | X-H torsion
[ 10718 10713 10712 10709 ] final   -7.96 input   66.30 | X-H torsion
[ 10763 10752 10751 10750 ] final   26.30 input  -60.55 | X-H torsion
[ 11005 11000 10999 10996 ] final   28.23 input  -57.11 | X-H torsion

> <Gold.Protein.ActiveResidues>
 VAL166  LYS551  ARG553  GLY616  TRP617  ASP618  TYR619  PRO620  LYS621  CYS622 
 ASP623  PHE694  ASN695  SER759  ASP760  ASP761  ALA762  ILE779  LEU786  VAL792 
 PHE793  MET794  SER795  GLU796  ALA797  LYS798  CYS799  TRP800  GLU811  SER814 

> <Gold.Protein.RotatedAtoms>
  152.3122  133.5765  159.5688 H   0  0  0  0  0  0  0  0  0  0  0  0  # atno 6907 bound_to 6896
  150.7329  134.0135  159.3686 H   0  0  0  0  0  0  0  0  0  0  0  0  # atno 6908 bound_to 6896
  151.8027  135.0704  160.0453 H   0  0  0  0  0  0  0  0  0  0  0  0  # atno 6909 bound_to 6896
  144.8447  139.6266  143.6001 H   0  0  0  0  0  0  0  0  0  0  0  0  # atno 7974 bound_to 7965
  155.1875  140.3305  155.4364 H   0  0  0  0  0  0  0  0  0  0  0  0  # atno 8008 bound_to 7997
  156.2454  140.1916  156.6919 H   0  0  0  0  0  0  0  0  0  0  0  0  # atno 8009 bound_to 7997
  154.6229  140.0593  156.9623 H   0  0  0  0  0  0  0  0  0  0  0  0  # atno 8010 bound_to 7997
  140.7133  143.3381  151.2417 H   0  0  0  0  0  0  0  0  0  0  0  0  # atno 10167 bound_to 10162
  156.7095  130.5117  149.5896 H   0  0  0  0  0  0  0  0  0  0  0  0  # atno 10718 bound_to 10713
  153.0632  135.6563  154.0415 H   0  0  0  0  0  0  0  0  0  0  0  0  # atno 10763 bound_to 10752
  154.0078  135.2931  155.3397 H   0  0  0  0  0  0  0  0  0  0  0  0  # atno 10764 bound_to 10752
  154.6979  135.5256  153.8552 H   0  0  0  0  0  0  0  0  0  0  0  0  # atno 10765 bound_to 10752
  140.3178  134.2577  155.7722 H   0  0  0  0  0  0  0  0  0  0  0  0  # atno 11005 bound_to 11000
  146.2733  139.6690  142.9280 LP  0  0  0  0  0  0  0  0  0  0  0  0  # atno 17320 bound_to 7965
  145.4622  141.0433  143.2745 LP  0  0  0  0  0  0  0  0  0  0  0  0  # atno 17321 bound_to 7965
  139.6882  143.9737  152.2845 LP  0  0  0  0  0  0  0  0  0  0  0  0  # atno 17342 bound_to 10162
  139.9390  144.6693  150.8285 LP  0  0  0  0  0  0  0  0  0  0  0  0  # atno 17343 bound_to 10162
  156.1671  130.6412  151.0791 LP  0  0  0  0  0  0  0  0  0  0  0  0  # atno 17370 bound_to 10713
  157.6941  131.0800  150.7020 LP  0  0  0  0  0  0  0  0  0  0  0  0  # atno 17371 bound_to 10713
  141.2093  133.7751  157.0002 LP  0  0  0  0  0  0  0  0  0  0  0  0  # atno 17394 bound_to 11000
  140.0968  134.9559  157.1862 LP  0  0  0  0  0  0  0  0  0  0  0  0  # atno 17395 bound_to 11000

$$$$
