AV-unprocessed.smi:49|AV-procd|sdf|478|dock2
  -GOLD-   2262016343D 1   1.00000     0.00000
 Structure written by MMmdl.
 27 28  0  0  0  0  0  0  0  0  1 V2000
  153.7409  141.9985  160.4356 C   0  0  0  0  0  0  0  0  0  0  0  0
  153.3120  143.2209  159.6162 C   0  0  0  0  0  0  0  0  0  0  0  0
  152.2416  142.8931  158.6287 C   0  0  0  0  0  0  0  0  0  0  0  0
  151.8318  141.6124  158.3828 N   0  0  0  0  0  0  0  0  0  0  0  0
  150.9230  141.8320  157.4362 C   0  0  0  0  0  0  0  0  0  0  0  0
  150.1072  140.7822  156.7459 C   0  0  1  0  0  0  0  0  0  0  0  0
  149.0174  141.3910  155.8432 C   0  0  0  0  0  0  0  0  0  0  0  0
  149.4939  141.0868  154.4265 C   0  0  2  0  0  0  0  0  0  0  0  0
  148.4334  140.9767  153.5010 O   0  0  0  0  0  0  0  0  0  0  0  0
  150.2408  139.7727  154.6125 C   0  0  0  0  0  0  0  0  0  0  0  0
  150.9284  139.9206  155.8874 N   0  0  0  0  0  0  0  0  0  0  0  0
  150.8130  143.1264  157.1298 N   0  0  0  0  0  0  0  0  0  0  0  0
  151.6694  143.8419  157.8891 N   0  0  0  0  0  0  0  0  0  0  0  0
  149.6237  140.1728  157.5108 H   0  0  0  0  0  0  0  0  0  0  0  0
  150.1859  141.8624  154.0945 H   0  0  0  0  0  0  0  0  0  0  0  0
  150.2035  143.5455  156.4420 H   0  0  0  0  0  0  0  0  0  0  0  0
  154.5177  142.2646  161.1525 H   0  0  0  0  0  0  0  0  0  0  0  0
  154.1365  141.2124  159.7919 H   0  0  0  0  0  0  0  0  0  0  0  0
  152.9001  141.5845  160.9931 H   0  0  0  0  0  0  0  0  0  0  0  0
  152.9517  144.0051  160.2831 H   0  0  0  0  0  0  0  0  0  0  0  0
  154.1729  143.6350  159.0896 H   0  0  0  0  0  0  0  0  0  0  0  0
  148.0740  140.8766  156.0331 H   0  0  0  0  0  0  0  0  0  0  0  0
  148.8476  142.4551  156.0136 H   0  0  0  0  0  0  0  0  0  0  0  0
  148.7851  140.6754  152.6771 H   0  0  0  0  0  0  0  0  0  0  0  0
  149.5317  138.9458  154.6733 H   0  0  0  0  0  0  0  0  0  0  0  0
  150.9336  139.5611  153.7976 H   0  0  0  0  0  0  0  0  0  0  0  0
  151.0343  139.0053  156.3129 H   0  0  0  0  0  0  0  0  0  0  0  0
  1  2  1  0  0  0  0
  1 17  1  0  0  0  0
  1 18  1  0  0  0  0
  1 19  1  0  0  0  0
  2 20  1  0  0  0  0
  2 21  1  0  0  0  0
  2  3  1  0  0  0  0
  3  4  1  0  0  0  0
  3 13  2  0  0  0  0
  4  5  2  0  0  0  0
  5  6  1  0  0  0  0
  5 12  1  0  0  0  0
  6 14  1  0  0  0  0
  6 11  1  0  0  0  0
  6  7  1  0  0  0  0
  7  8  1  0  0  0  0
  7 22  1  0  0  0  0
  7 23  1  0  0  0  0
  8 15  1  0  0  0  0
  8  9  1  0  0  0  0
  8 10  1  0  0  0  0
  9 24  1  0  0  0  0
 10 11  1  0  0  0  0
 10 25  1  0  0  0  0
 10 26  1  0  0  0  0
 11 27  1  0  0  0  0
 12 13  1  0  0  0  0
 12 16  1  0  0  0  0
M  END
> <s_m_source_file>
AV-unprocessed.smi

> <i_m_source_file_index>
49

> <i_lp_mmshare_version>
43012

> <i_f3d_flags>
0

> <s_epik_input>
W0NIM11bQ0gyXWMxbmMobltuSF0xKVtDQEBIXTJbQ0gyXVtDQEBIXShbT0hdKVtDSDJdW05IXTI=

> <s_epik_cmdline>
J2VwaWtfcHl0aG9uJywgJy1waCcsICc3LjAnLCAnLXRuJywgJzgnLCAnLW1hJywgJzIwMCcsICctbWV0YWxfYmluZGluZycsICctaW1hZScsICc8aW5maWxlLm1hZT4nLCAnLW9tYWUnLCAnPG91dGZpbGUubWFlPic=

> <r_epik_Ionization_Penalty>
1.31544

> <r_epik_Ionization_Penalty_Charging>
0

> <r_epik_Ionization_Penalty_Neutral>
1.31544

> <r_epik_State_Penalty>
2.06074

> <r_epik_Charging_Adjusted_Penalty>
2.06074

> <i_epik_Tot_Q>
0

> <i_epik_Tot_abs_Q>
0

> <r_epik_Metal_State_Penalty>
2.32913

> <b_epik_Metal_Only>
0

> <s_lp_Force_Field>
OPLS_2005

> <r_lp_Energy>
17.94

> <b_lp_Chiralities_Consistent>
1

> <s_lp_Variant>
AV-unprocessed.smi:49-16

> <Gold.Version>
5.8.1

> <Gold.Id.Protein>
6NUR|6NUR_protein|mol2

> <Gold.PLP.Fitness>
31.4795

> <Gold.PLP.PLP>
-25.8249

> <Gold.PLP.part.hbond>
-2.3091

> <Gold.PLP.part.metal>
0.0000

> <Gold.PLP.part.buried>
-3.2440

> <Gold.PLP.part.nonpolar>
-20.3963

> <Gold.PLP.part.repulsive>
0.1185

> <Gold.PLP.ligand.clash>
0.0000

> <Gold.PLP.ligand.torsion>
0.1756

> <Gold.PLP.Chemscore.Hbond>
2.0000

> <Gold.PLP.Chemscore.CHOScore>
0.0000

> <Gold.PLP.Chemscore.Metal>
0.0000

> <Gold.Chemscore.Hbonds>
donor molecule, donor type, donor heavy atom, donor atom, acceptor molecule, acceptor atom, score
      L1  H     9    24       P1  7957  1.00
      L1  H    12    16       P1  8028  1.00

> <Gold.PLP.Chemscore.Internal.Correction>
0.0059

> <Gold.Rescore>
     Score         DG    S(hbond)    S(metal)    S(lipo)     H(rot)  DE(clash)    DE(int)     intcor
     13.16     -13.35       2.00        0.00      50.87       1.86       0.18       0.01       ----

> <Gold.Chemscore.Fitness>
13.1561

> <Gold.Chemscore.DG>
-13.3510

> <Gold.Chemscore.ZeroCoef>
-5.4800

> <Gold.Chemscore.Hbond>
1.9968

> <Gold.Chemscore.Metal>
0.0000

> <Gold.Chemscore.Lipo>
50.8746

> <Gold.Chemscore.Internal_Hbond>
0.0000

> <Gold.Chemscore.DEClash>
0.1845

> <Gold.Chemscore.DEInternal>
0.0104

> <Gold.Chemscore.Rot>
1.8558

> <Gold.Chemscore.Internal.Correction>
   9.000000E+99

> <Gold.Chemscore.Hbonds>
donor molecule, donor type, donor heavy atom, donor atom, acceptor molecule, acceptor atom, score
      L1  H     9    24       P1  7957  1.00
      L1  H    12    16       P1  8028  0.99

> <Gold.Chemscore.Hbond.Weighted>
-6.6694

> <Gold.Chemscore.Metal.Weighted>
-0.0000

> <Gold.Chemscore.Lipo.Weighted>
-5.9523

> <Gold.Chemscore.Internal_Hbond.Weighted>
0.0000

> <Gold.Chemscore.DEClash.Weighted>
0.1845

> <Gold.Chemscore.DEInternal.Weighted>
0.0104

> <Gold.Chemscore.Rot.Weighted>
4.7507

> <Gold.Chemscore.Internal.Correction.Weighted>
   9.000000E+99

> <Gold.Protein.RotatedTorsions>
[ 6907 6896 6895 6894 ] final -112.16 input  -60.11 | X-H torsion
[ 7974 7965 7964 7962 ] final   45.16 input  175.53 | X-H torsion
[ 8008 7997 7996 7995 ] final -170.63 input   59.86 | X-H torsion
[ 10167 10162 10161 10158 ] final  -47.12 input  -65.29 | X-H torsion
[ 10718 10713 10712 10709 ] final   63.16 input   66.30 | X-H torsion
[ 10763 10752 10751 10750 ] final   21.90 input  -60.55 | X-H torsion
[ 11005 11000 10999 10996 ] final -160.45 input  -57.11 | X-H torsion

> <Gold.Protein.ActiveResidues>
 VAL166  LYS551  ARG553  GLY616  TRP617  ASP618  TYR619  PRO620  LYS621  CYS622 
 ASP623  PHE694  ASN695  SER759  ASP760  ASP761  ALA762  ILE779  LEU786  VAL792 
 PHE793  MET794  SER795  GLU796  ALA797  LYS798  CYS799  TRP800  GLU811  SER814 

> <Gold.Protein.RotatedAtoms>
  150.7739  133.9130  159.3374 H   0  0  0  0  0  0  0  0  0  0  0  0  # atno 6907 bound_to 6896
  151.7009  135.0928  160.0260 H   0  0  0  0  0  0  0  0  0  0  0  0  # atno 6908 bound_to 6896
  152.3768  133.6454  159.6165 H   0  0  0  0  0  0  0  0  0  0  0  0  # atno 6909 bound_to 6896
  146.0505  139.4995  142.9721 H   0  0  0  0  0  0  0  0  0  0  0  0  # atno 7974 bound_to 7965
  155.9209  140.1074  157.1208 H   0  0  0  0  0  0  0  0  0  0  0  0  # atno 8008 bound_to 7997
  154.4054  140.1256  156.4743 H   0  0  0  0  0  0  0  0  0  0  0  0  # atno 8009 bound_to 7997
  155.7197  140.3470  155.5013 H   0  0  0  0  0  0  0  0  0  0  0  0  # atno 8010 bound_to 7997
  140.6789  143.2799  151.3880 H   0  0  0  0  0  0  0  0  0  0  0  0  # atno 10167 bound_to 10162
  157.5952  130.9090  149.9680 H   0  0  0  0  0  0  0  0  0  0  0  0  # atno 10718 bound_to 10713
  153.0958  135.6659  153.9766 H   0  0  0  0  0  0  0  0  0  0  0  0  # atno 10763 bound_to 10752
  153.9350  135.3000  155.3446 H   0  0  0  0  0  0  0  0  0  0  0  0  # atno 10764 bound_to 10752
  154.7376  135.5094  153.9143 H   0  0  0  0  0  0  0  0  0  0  0  0  # atno 10765 bound_to 10752
  140.6314  134.4648  157.5229 H   0  0  0  0  0  0  0  0  0  0  0  0  # atno 11005 bound_to 11000
  145.6733  141.0211  143.1646 LP  0  0  0  0  0  0  0  0  0  0  0  0  # atno 17320 bound_to 7965
  144.7120  139.8336  143.7411 LP  0  0  0  0  0  0  0  0  0  0  0  0  # atno 17321 bound_to 7965
  139.6098  144.1122  152.2287 LP  0  0  0  0  0  0  0  0  0  0  0  0  # atno 17342 bound_to 10162
  140.0532  144.5916  150.7320 LP  0  0  0  0  0  0  0  0  0  0  0  0  # atno 17343 bound_to 10162
  156.1013  130.3655  150.0213 LP  0  0  0  0  0  0  0  0  0  0  0  0  # atno 17370 bound_to 10713
  156.8328  130.9398  151.3636 LP  0  0  0  0  0  0  0  0  0  0  0  0  # atno 17371 bound_to 10713
  139.9115  134.8335  156.1513 LP  0  0  0  0  0  0  0  0  0  0  0  0  # atno 17394 bound_to 11000
  141.0673  133.6813  156.2070 LP  0  0  0  0  0  0  0  0  0  0  0  0  # atno 17395 bound_to 11000

$$$$
