AV-unprocessed.smi:2340|AV-procd|sdf|9351|dock10
  -GOLD-   2272012573D 1   1.00000     0.00000
 Structure written by MMmdl.
 40 41  0  0  0  0  0  0  0  0  1 V2000
  147.4879  140.7425  154.3615 C   0  0  0  0  0  0  0  0  0  0  0  0
  148.8545  140.4479  154.8943 C   0  0  0  0  0  0  0  0  0  0  0  0
  149.5313  141.1393  155.8677 C   0  0  0  0  0  0  0  0  0  0  0  0
  151.0916  140.4371  156.1972 S   0  0  0  0  0  0  0  0  0  0  0  0
  150.7676  139.2144  154.9712 C   0  0  0  0  0  0  0  0  0  0  0  0
  151.7005  138.0829  154.6536 C   0  0  1  0  0  0  0  0  0  0  0  0
  153.1644  138.4394  154.9490 C   0  0  0  0  0  0  0  0  0  0  0  0
  151.2764  136.7488  155.3126 C   0  0  0  0  0  0  0  0  0  0  0  0
  150.2801  136.0172  154.5343 N   0  0  0  0  0  0  0  0  0  0  0  0
  149.5549  134.9856  154.9859 C   0  0  0  0  0  0  0  0  0  0  0  0
  149.5669  134.5909  156.1519 O   0  0  0  0  0  0  0  0  0  0  0  0
  148.8536  134.4085  154.0016 N   0  0  0  0  0  0  0  0  0  0  0  0
  148.0870  133.1743  154.1350 C   0  0  1  0  0  0  0  0  0  0  0  0
  146.6990  133.3082  153.5416 C   0  0  0  0  0  0  0  0  0  0  0  0
  146.3431  131.8649  153.1878 C   0  0  0  0  0  0  0  0  0  0  0  0
  147.5760  131.1632  153.0513 O   0  0  0  0  0  0  0  0  0  0  0  0
  148.6700  132.0434  153.2800 C   0  0  2  0  0  0  0  0  0  0  0  0
  149.8355  131.2853  153.9275 C   0  0  0  0  0  0  0  0  0  0  0  0
  149.5723  139.3603  154.3916 N   0  0  0  0  0  0  0  0  0  0  0  0
  147.0293  141.5837  154.8817 H   0  0  0  0  0  0  0  0  0  0  0  0
  146.8270  139.8832  154.4790 H   0  0  0  0  0  0  0  0  0  0  0  0
  147.5242  140.9902  153.3005 H   0  0  0  0  0  0  0  0  0  0  0  0
  149.2054  142.0118  156.4142 H   0  0  0  0  0  0  0  0  0  0  0  0
  151.6421  137.9325  153.5744 H   0  0  0  0  0  0  0  0  0  0  0  0
  153.4666  139.3353  154.4059 H   0  0  0  0  0  0  0  0  0  0  0  0
  153.8322  137.6311  154.6496 H   0  0  0  0  0  0  0  0  0  0  0  0
  153.3237  138.6235  156.0117 H   0  0  0  0  0  0  0  0  0  0  0  0
  152.1461  136.1168  155.4991 H   0  0  0  0  0  0  0  0  0  0  0  0
  150.8285  136.9520  156.2856 H   0  0  0  0  0  0  0  0  0  0  0  0
  150.1972  136.2637  153.5588 H   0  0  0  0  0  0  0  0  0  0  0  0
  148.9115  134.8103  153.0773 H   0  0  0  0  0  0  0  0  0  0  0  0
  148.0015  132.8611  155.1776 H   0  0  0  0  0  0  0  0  0  0  0  0
  145.9834  133.7670  154.2247 H   0  0  0  0  0  0  0  0  0  0  0  0
  146.7297  133.9082  152.6306 H   0  0  0  0  0  0  0  0  0  0  0  0
  145.7704  131.4020  153.9921 H   0  0  0  0  0  0  0  0  0  0  0  0
  145.7518  131.8031  152.2739 H   0  0  0  0  0  0  0  0  0  0  0  0
  148.9806  132.4357  152.3097 H   0  0  0  0  0  0  0  0  0  0  0  0
  150.6925  131.9396  154.0864 H   0  0  0  0  0  0  0  0  0  0  0  0
  150.1638  130.4619  153.2930 H   0  0  0  0  0  0  0  0  0  0  0  0
  149.5479  130.8688  154.8932 H   0  0  0  0  0  0  0  0  0  0  0  0
  1  2  1  0  0  0  0
  1 20  1  0  0  0  0
  1 21  1  0  0  0  0
  1 22  1  0  0  0  0
  2 19  1  0  0  0  0
  2  3  2  0  0  0  0
  3  4  1  0  0  0  0
  3 23  1  0  0  0  0
  4  5  1  0  0  0  0
  5  6  1  0  0  0  0
  5 19  2  0  0  0  0
  6  7  1  0  0  0  0
  6  8  1  0  0  0  0
  6 24  1  0  0  0  0
  7 25  1  0  0  0  0
  7 26  1  0  0  0  0
  7 27  1  0  0  0  0
  8  9  1  0  0  0  0
  8 28  1  0  0  0  0
  8 29  1  0  0  0  0
  9 10  1  0  0  0  0
  9 30  1  0  0  0  0
 10 11  2  0  0  0  0
 10 12  1  0  0  0  0
 12 13  1  0  0  0  0
 12 31  1  0  0  0  0
 13 17  1  0  0  0  0
 13 14  1  0  0  0  0
 13 32  1  0  0  0  0
 14 15  1  0  0  0  0
 14 33  1  0  0  0  0
 14 34  1  0  0  0  0
 15 16  1  0  0  0  0
 15 35  1  0  0  0  0
 15 36  1  0  0  0  0
 16 17  1  0  0  0  0
 17 18  1  0  0  0  0
 17 37  1  0  0  0  0
 18 38  1  0  0  0  0
 18 39  1  0  0  0  0
 18 40  1  0  0  0  0
M  END
> <s_m_source_file>
AV-unprocessed.smi

> <i_m_source_file_index>
2340

> <i_lp_mmshare_version>
43012

> <i_f3d_flags>
0

> <s_epik_input>
W0NIM11jMVtjSF1zYyhuMSlbQ0BIXShbQ0gzXSlbQ0gyXVtOSF1DKD1PKVtOSF1bQ0BASF0yW0NIMl1bQ0gyXU9bQ0BIXTJbQ0gzXQ==

> <s_epik_cmdline>
J2VwaWtfcHl0aG9uJywgJy1waCcsICc3LjAnLCAnLXRuJywgJzgnLCAnLW1hJywgJzIwMCcsICctbWV0YWxfYmluZGluZycsICctaW1hZScsICc8aW5maWxlLm1hZT4nLCAnLW9tYWUnLCAnPG91dGZpbGUubWFlPic=

> <r_epik_Ionization_Penalty>
0.00156622

> <r_epik_Ionization_Penalty_Charging>
0

> <r_epik_Ionization_Penalty_Neutral>
0.00156622

> <r_epik_State_Penalty>
0.00101902

> <r_epik_Charging_Adjusted_Penalty>
0.00101902

> <i_epik_Tot_Q>
0

> <i_epik_Tot_abs_Q>
0

> <r_epik_Metal_State_Penalty>
-0

> <b_epik_Metal_Only>
0

> <s_lp_Force_Field>
OPLS_2005

> <r_lp_Energy>
3.95119

> <b_lp_Chiralities_Consistent>
1

> <s_lp_Variant>
AV-unprocessed.smi:2340-8

> <Gold.Version>
5.8.1

> <Gold.Id.Protein>
6NUR|6NUR_protein|mol2

> <Gold.PLP.Fitness>
39.9043

> <Gold.PLP.PLP>
-34.3589

> <Gold.PLP.part.hbond>
-2.4377

> <Gold.PLP.part.metal>
0.0000

> <Gold.PLP.part.buried>
-4.6382

> <Gold.PLP.part.nonpolar>
-30.7170

> <Gold.PLP.part.repulsive>
1.4177

> <Gold.PLP.ligand.clash>
0.0000

> <Gold.PLP.ligand.torsion>
1.1146

> <Gold.PLP.Chemscore.Hbond>
1.5472

> <Gold.PLP.Chemscore.CHOScore>
1.0000

> <Gold.PLP.Chemscore.Metal>
0.0000

> <Gold.Chemscore.Hbonds>
donor molecule, donor type, donor heavy atom, donor atom, acceptor molecule, acceptor atom, score
      L1  H     9    30       P1  7948  0.44
      L1  H    12    31       P1  7948  0.80
      L1  C     3    23       P1  8028  0.26

> <Gold.PLP.Chemscore.Internal.Correction>
0.1329

> <Gold.Rescore>
     Score         DG    S(hbond)    S(metal)    S(lipo)     H(rot)  DE(clash)    DE(int)     intcor
     15.09     -15.79       1.73        0.00      72.33       1.53       0.11       0.59       ----

> <Gold.Chemscore.Fitness>
15.0915

> <Gold.Chemscore.DG>
-15.7882

> <Gold.Chemscore.ZeroCoef>
-5.4800

> <Gold.Chemscore.Hbond>
1.7270

> <Gold.Chemscore.Metal>
0.0000

> <Gold.Chemscore.Lipo>
72.3348

> <Gold.Chemscore.Internal_Hbond>
0.0000

> <Gold.Chemscore.DEClash>
0.1086

> <Gold.Chemscore.DEInternal>
0.5881

> <Gold.Chemscore.Rot>
1.5325

> <Gold.Chemscore.Internal.Correction>
   9.000000E+99

> <Gold.Chemscore.Hbonds>
donor molecule, donor type, donor heavy atom, donor atom, acceptor molecule, acceptor atom, score
      L1  H     9    30       P1  7948  0.02
      L1  H    12    31       P1  7948  0.12

> <Gold.Chemscore.Hbond.Weighted>
-5.7683

> <Gold.Chemscore.Metal.Weighted>
-0.0000

> <Gold.Chemscore.Lipo.Weighted>
-8.4632

> <Gold.Chemscore.Internal_Hbond.Weighted>
0.0000

> <Gold.Chemscore.DEClash.Weighted>
0.1086

> <Gold.Chemscore.DEInternal.Weighted>
0.5881

> <Gold.Chemscore.Rot.Weighted>
3.9233

> <Gold.Chemscore.Internal.Correction.Weighted>
   9.000000E+99

> <Gold.Protein.RotatedTorsions>
[ 6907 6896 6895 6894 ] final -171.81 input  -60.11 | X-H torsion
[ 7974 7965 7964 7962 ] final  136.59 input  175.53 | X-H torsion
[ 8008 7997 7996 7995 ] final  165.24 input   59.86 | X-H torsion
[ 10167 10162 10161 10158 ] final  -49.19 input  -65.29 | X-H torsion
[ 10718 10713 10712 10709 ] final  155.82 input   66.30 | X-H torsion
[ 10763 10752 10751 10750 ] final  -88.22 input  -60.55 | X-H torsion
[ 11005 11000 10999 10996 ] final  -14.80 input  -57.11 | X-H torsion

> <Gold.Protein.ActiveResidues>
 VAL166  LYS551  ARG553  GLY616  TRP617  ASP618  TYR619  PRO620  LYS621  CYS622 
 ASP623  PHE694  ASN695  SER759  ASP760  ASP761  ALA762  ILE779  LEU786  VAL792 
 PHE793  MET794  SER795  GLU796  ALA797  LYS798  CYS799  TRP800  GLU811  SER814 

> <Gold.Protein.RotatedAtoms>
  151.5298  133.3451  159.2915 H   0  0  0  0  0  0  0  0  0  0  0  0  # atno 6907 bound_to 6896
  150.8600  134.7952  159.7086 H   0  0  0  0  0  0  0  0  0  0  0  0  # atno 6908 bound_to 6896
  152.4622  134.5166  159.9821 H   0  0  0  0  0  0  0  0  0  0  0  0  # atno 6909 bound_to 6896
  144.9550  139.4775  143.5507 H   0  0  0  0  0  0  0  0  0  0  0  0  # atno 7974 bound_to 7965
  156.1816  140.1675  156.8264 H   0  0  0  0  0  0  0  0  0  0  0  0  # atno 8008 bound_to 7997
  154.5366  140.0745  156.8471 H   0  0  0  0  0  0  0  0  0  0  0  0  # atno 8009 bound_to 7997
  155.3298  140.3378  155.4242 H   0  0  0  0  0  0  0  0  0  0  0  0  # atno 8010 bound_to 7997
  140.6696  143.2708  151.4179 H   0  0  0  0  0  0  0  0  0  0  0  0  # atno 10167 bound_to 10162
  157.2133  131.0702  151.1956 H   0  0  0  0  0  0  0  0  0  0  0  0  # atno 10718 bound_to 10713
  154.6421  135.5385  153.7802 H   0  0  0  0  0  0  0  0  0  0  0  0  # atno 10763 bound_to 10752
  153.0339  135.6462  154.1144 H   0  0  0  0  0  0  0  0  0  0  0  0  # atno 10764 bound_to 10752
  154.1067  135.2929  155.3219 H   0  0  0  0  0  0  0  0  0  0  0  0  # atno 10765 bound_to 10752
  140.7902  133.8294  155.9372 H   0  0  0  0  0  0  0  0  0  0  0  0  # atno 11005 bound_to 11000
  146.3334  139.8661  142.8848 LP  0  0  0  0  0  0  0  0  0  0  0  0  # atno 17320 bound_to 7965
  145.2787  141.0132  143.3730 LP  0  0  0  0  0  0  0  0  0  0  0  0  # atno 17321 bound_to 7965
  139.5959  144.1398  152.2143 LP  0  0  0  0  0  0  0  0  0  0  0  0  # atno 17342 bound_to 10162
  140.0767  144.5734  150.7152 LP  0  0  0  0  0  0  0  0  0  0  0  0  # atno 17343 bound_to 10162
  157.3650  130.7151  149.6527 LP  0  0  0  0  0  0  0  0  0  0  0  0  # atno 17370 bound_to 10713
  155.9688  130.4215  150.4471 LP  0  0  0  0  0  0  0  0  0  0  0  0  # atno 17371 bound_to 10713
  140.9397  134.1916  157.4806 LP  0  0  0  0  0  0  0  0  0  0  0  0  # atno 17394 bound_to 11000
  139.8732  134.9867  156.5335 LP  0  0  0  0  0  0  0  0  0  0  0  0  # atno 17395 bound_to 11000

$$$$
