AV-unprocessed.smi:329|AV-procd|sdf|2348|dock7
  -GOLD-   2262022263D 1   1.00000     0.00000
 Structure written by MMmdl.
 18 18  0  0  0  0  0  0  0  0  1 V2000
  146.5100  131.1966  150.2129 N   0  0  0  0  0  0  0  0  0  0  0  0
  145.7875  130.8899  151.2928 C   0  0  0  0  0  0  0  0  0  0  0  0
  146.2230  130.1559  152.1791 O   0  0  0  0  0  0  0  0  0  0  0  0
  144.3805  131.4980  151.3662 C   0  0  0  0  0  0  0  0  0  0  0  0
  144.3825  132.9474  151.2476 N   0  0  0  0  0  0  0  0  0  0  0  0
  144.8868  133.7227  150.2233 C   0  0  0  0  0  0  0  0  0  0  0  0
  144.6547  135.0278  150.5507 C   0  0  0  0  0  0  0  0  0  0  0  0
  144.9994  136.1600  149.7891 N   0  0  0  0  0  0  0  0  0  0  0  0
  143.9982  134.9501  151.8110 C   0  0  0  0  0  0  0  0  0  0  0  0
  143.8382  133.7038  152.2264 N   0  0  0  0  0  0  0  0  0  0  0  0
  147.4437  130.8248  150.1146 H   0  0  0  0  0  0  0  0  0  0  0  0
  146.1239  131.7988  149.5003 H   0  0  0  0  0  0  0  0  0  0  0  0
  143.7568  131.0736  150.5777 H   0  0  0  0  0  0  0  0  0  0  0  0
  143.9208  131.2309  152.3186 H   0  0  0  0  0  0  0  0  0  0  0  0
  145.3581  133.2836  149.3563 H   0  0  0  0  0  0  0  0  0  0  0  0
  145.4684  136.0801  148.8983 H   0  0  0  0  0  0  0  0  0  0  0  0
  144.8508  137.0986  150.1313 H   0  0  0  0  0  0  0  0  0  0  0  0
  143.6360  135.7561  152.4321 H   0  0  0  0  0  0  0  0  0  0  0  0
  1  2  1  0  0  0  0
  1 11  1  0  0  0  0
  1 12  1  0  0  0  0
  2  3  2  0  0  0  0
  2  4  1  0  0  0  0
  4  5  1  0  0  0  0
  4 13  1  0  0  0  0
  4 14  1  0  0  0  0
  5 10  1  0  0  0  0
  5  6  1  0  0  0  0
  6  7  2  0  0  0  0
  6 15  1  0  0  0  0
  7  8  1  0  0  0  0
  7  9  1  0  0  0  0
  8 16  1  0  0  0  0
  8 17  1  0  0  0  0
  9 10  2  0  0  0  0
  9 18  1  0  0  0  0
M  END
> <s_m_source_file>
AV-unprocessed.smi

> <i_m_source_file_index>
329

> <i_lp_mmshare_version>
43012

> <i_f3d_flags>
0

> <s_epik_input>
W05IMl1DKD1PKVtDSDJdbjFbY0hdYyhbTkgyXSlbY0hdbjE=

> <s_epik_cmdline>
J2VwaWtfcHl0aG9uJywgJy1waCcsICc3LjAnLCAnLXRuJywgJzgnLCAnLW1hJywgJzIwMCcsICctbWV0YWxfYmluZGluZycsICctaW1hZScsICc8aW5maWxlLm1hZT4nLCAnLW9tYWUnLCAnPG91dGZpbGUubWFlPic=

> <r_lp_tautomer_probability>
1

> <r_epik_Ionization_Penalty>
9.33273e-05

> <r_epik_Ionization_Penalty_Charging>
0

> <r_epik_Ionization_Penalty_Neutral>
9.33273e-05

> <r_epik_State_Penalty>
-0

> <r_epik_Charging_Adjusted_Penalty>
0

> <i_epik_Tot_Q>
0

> <i_epik_Tot_abs_Q>
0

> <r_epik_Metal_State_Penalty>
-0

> <b_epik_Metal_Only>
0

> <s_lp_Force_Field>
OPLS_2005

> <r_lp_Energy>
3.96238

> <b_lp_Chiralities_Consistent>
1

> <s_lp_Variant>
AV-unprocessed.smi:329-1

> <Gold.Version>
5.8.1

> <Gold.Id.Protein>
6NUR|6NUR_protein|mol2

> <Gold.PLP.Fitness>
29.0852

> <Gold.PLP.PLP>
-18.7733

> <Gold.PLP.part.hbond>
-2.8282

> <Gold.PLP.part.metal>
0.0000

> <Gold.PLP.part.buried>
-3.8654

> <Gold.PLP.part.nonpolar>
-12.6728

> <Gold.PLP.part.repulsive>
0.5948

> <Gold.PLP.ligand.clash>
0.0000

> <Gold.PLP.ligand.torsion>
0.0298

> <Gold.PLP.Chemscore.Hbond>
2.7033

> <Gold.PLP.Chemscore.CHOScore>
0.7539

> <Gold.PLP.Chemscore.Metal>
0.0000

> <Gold.Chemscore.Hbonds>
donor molecule, donor type, donor heavy atom, donor atom, acceptor molecule, acceptor atom, score
      L1  H     1    11       P1 10747  0.99
      L1  H     8    16       P1  7921  0.90
      L1  H     8    17       P1 10171  0.82
      L1  C     6    15       P1  7921  0.75

> <Gold.PLP.Chemscore.Internal.Correction>
0.0002

> <Gold.Rescore>
     Score         DG    S(hbond)    S(metal)    S(lipo)     H(rot)  DE(clash)    DE(int)     intcor
     14.30     -14.32       2.92        0.00      27.84       1.63       0.00       0.01       ----

> <Gold.Chemscore.Fitness>
14.3044

> <Gold.Chemscore.DG>
-14.3155

> <Gold.Chemscore.ZeroCoef>
-5.4800

> <Gold.Chemscore.Hbond>
2.9174

> <Gold.Chemscore.Metal>
0.0000

> <Gold.Chemscore.Lipo>
27.8437

> <Gold.Chemscore.Internal_Hbond>
0.0000

> <Gold.Chemscore.DEClash>
0.0000

> <Gold.Chemscore.DEInternal>
0.0111

> <Gold.Chemscore.Rot>
1.6274

> <Gold.Chemscore.Internal.Correction>
   9.000000E+99

> <Gold.Chemscore.Hbonds>
donor molecule, donor type, donor heavy atom, donor atom, acceptor molecule, acceptor atom, score
      L1  H     1    11       P1 10747  0.91
      L1  H     8    16       P1  7921  0.88
      L1  H     8    17       P1 10171  0.80

> <Gold.Chemscore.Hbond.Weighted>
-9.7440

> <Gold.Chemscore.Metal.Weighted>
-0.0000

> <Gold.Chemscore.Lipo.Weighted>
-3.2577

> <Gold.Chemscore.Internal_Hbond.Weighted>
0.0000

> <Gold.Chemscore.DEClash.Weighted>
0.0000

> <Gold.Chemscore.DEInternal.Weighted>
0.0111

> <Gold.Chemscore.Rot.Weighted>
4.1662

> <Gold.Chemscore.Internal.Correction.Weighted>
   9.000000E+99

> <Gold.Protein.RotatedTorsions>
[ 6907 6896 6895 6894 ] final  123.03 input  -60.11 | X-H torsion
[ 7974 7965 7964 7962 ] final -150.14 input  175.53 | X-H torsion
[ 8008 7997 7996 7995 ] final   76.62 input   59.86 | X-H torsion
[ 10167 10162 10161 10158 ] final -126.48 input  -65.29 | X-H torsion
[ 10718 10713 10712 10709 ] final  -60.92 input   66.30 | X-H torsion
[ 10763 10752 10751 10750 ] final  -76.88 input  -60.55 | X-H torsion
[ 11005 11000 10999 10996 ] final   43.92 input  -57.11 | X-H torsion

> <Gold.Protein.ActiveResidues>
 VAL166  LYS551  ARG553  GLY616  TRP617  ASP618  TYR619  PRO620  LYS621  CYS622 
 ASP623  PHE694  ASN695  SER759  ASP760  ASP761  ALA762  ILE779  LEU786  VAL792 
 PHE793  MET794  SER795  GLU796  ALA797  LYS798  CYS799  TRP800  GLU811  SER814 

> <Gold.Protein.RotatedAtoms>
  152.4195  133.7093  159.6469 H   0  0  0  0  0  0  0  0  0  0  0  0  # atno 6907 bound_to 6896
  150.8071  133.8478  159.3206 H   0  0  0  0  0  0  0  0  0  0  0  0  # atno 6908 bound_to 6896
  151.6199  135.1035  160.0151 H   0  0  0  0  0  0  0  0  0  0  0  0  # atno 6909 bound_to 6896
  144.7925  140.4971  143.5763 H   0  0  0  0  0  0  0  0  0  0  0  0  # atno 7974 bound_to 7965
  155.8299  140.3466  155.5566 H   0  0  0  0  0  0  0  0  0  0  0  0  # atno 8008 bound_to 7997
  155.8253  140.0919  157.1845 H   0  0  0  0  0  0  0  0  0  0  0  0  # atno 8009 bound_to 7997
  154.4004  140.1422  156.3536 H   0  0  0  0  0  0  0  0  0  0  0  0  # atno 8010 bound_to 7997
  139.9711  143.5845  152.2412 H   0  0  0  0  0  0  0  0  0  0  0  0  # atno 10167 bound_to 10162
  156.0957  130.4193  150.0922 H   0  0  0  0  0  0  0  0  0  0  0  0  # atno 10718 bound_to 10713
  154.5057  135.5782  153.6565 H   0  0  0  0  0  0  0  0  0  0  0  0  # atno 10763 bound_to 10752
  152.9887  135.6146  154.2944 H   0  0  0  0  0  0  0  0  0  0  0  0  # atno 10764 bound_to 10752
  154.2855  135.2850  155.2657 H   0  0  0  0  0  0  0  0  0  0  0  0  # atno 10765 bound_to 10752
  140.1600  134.4353  155.8324 H   0  0  0  0  0  0  0  0  0  0  0  0  # atno 11005 bound_to 11000
  145.5757  139.1486  143.3263 LP  0  0  0  0  0  0  0  0  0  0  0  0  # atno 17320 bound_to 7965
  146.2182  140.5889  142.9029 LP  0  0  0  0  0  0  0  0  0  0  0  0  # atno 17321 bound_to 7965
  139.6481  144.7659  151.2203 LP  0  0  0  0  0  0  0  0  0  0  0  0  # atno 17342 bound_to 10162
  140.7522  143.6206  150.8517 LP  0  0  0  0  0  0  0  0  0  0  0  0  # atno 17343 bound_to 10162
  156.8921  130.9592  151.3587 LP  0  0  0  0  0  0  0  0  0  0  0  0  # atno 17370 bound_to 10713
  157.6117  130.8588  149.8962 LP  0  0  0  0  0  0  0  0  0  0  0  0  # atno 17371 bound_to 10713
  141.2208  133.6909  156.7576 LP  0  0  0  0  0  0  0  0  0  0  0  0  # atno 17394 bound_to 11000
  140.2501  134.8547  157.3659 LP  0  0  0  0  0  0  0  0  0  0  0  0  # atno 17395 bound_to 11000

$$$$
