AV-unprocessed.smi:653|AV-procd|sdf|3204|dock6
  -GOLD-   22720 0143D 1   1.00000     0.00000
 Structure written by MMmdl.
 44 45  0  0  0  0  0  0  0  0  1 V2000
  151.2871  145.4100  158.8251 C   0  0  0  0  0  0  0  0  0  0  0  0
  152.1187  144.3252  159.4770 C   0  0  0  0  0  0  0  0  0  0  0  0
  152.0705  144.1179  160.8716 C   0  0  0  0  0  0  0  0  0  0  0  0
  152.8694  143.0993  161.4258 C   0  0  0  0  0  0  0  0  0  0  0  0
  153.6836  142.3306  160.5682 C   0  0  0  0  0  0  0  0  0  0  0  0
  154.5680  141.2223  161.1161 C   0  0  0  0  0  0  0  0  0  0  0  0
  154.3558  139.8912  160.3851 C   0  0  0  0  0  0  0  0  0  0  0  0
  154.6643  139.7573  159.1997 O   0  0  0  0  0  0  0  0  0  0  0  0
  153.8195  138.9039  161.1180 N   0  0  0  0  0  0  0  0  0  0  0  0
  153.5091  137.5673  160.6227 C   0  0  0  0  0  0  0  0  0  0  0  0
  153.7047  136.4929  161.7106 C   0  0  2  0  0  0  0  0  0  0  0  0
  153.2871  136.9295  163.1016 C   0  0  0  0  0  0  0  0  0  0  0  0
  154.0171  135.9172  163.9764 C   0  0  0  0  0  0  0  0  0  0  0  0
  155.2365  135.6358  163.2977 O   0  0  0  0  0  0  0  0  0  0  0  0
  155.1711  136.1028  161.9509 C   0  0  1  0  0  0  0  0  0  0  0  0
  155.7695  135.0672  160.9708 C   0  0  0  0  0  0  0  0  0  0  0  0
  155.8686  135.5783  159.5217 C   0  0  0  0  0  0  0  0  0  0  0  0
  154.9835  133.7477  161.0237 C   0  0  0  0  0  0  0  0  0  0  0  0
  153.6569  142.6189  159.1871 C   0  0  0  0  0  0  0  0  0  0  0  0
  152.8951  143.5942  158.6471 N   0  0  0  0  0  0  0  0  0  0  0  0
  150.4926  145.7490  159.4905 H   0  0  0  0  0  0  0  0  0  0  0  0
  150.8264  145.0429  157.9073 H   0  0  0  0  0  0  0  0  0  0  0  0
  151.9144  146.2663  158.5767 H   0  0  0  0  0  0  0  0  0  0  0  0
  151.4379  144.7233  161.5040 H   0  0  0  0  0  0  0  0  0  0  0  0
  152.8556  142.9117  162.4893 H   0  0  0  0  0  0  0  0  0  0  0  0
  155.6160  141.5120  161.0316 H   0  0  0  0  0  0  0  0  0  0  0  0
  154.3599  141.0920  162.1791 H   0  0  0  0  0  0  0  0  0  0  0  0
  153.5998  139.0952  162.0849 H   0  0  0  0  0  0  0  0  0  0  0  0
  152.4866  137.5416  160.2425 H   0  0  0  0  0  0  0  0  0  0  0  0
  154.1574  137.3633  159.7699 H   0  0  0  0  0  0  0  0  0  0  0  0
  153.1234  135.6082  161.4530 H   0  0  0  0  0  0  0  0  0  0  0  0
  153.6493  137.9367  163.3134 H   0  0  0  0  0  0  0  0  0  0  0  0
  152.2070  136.9146  163.2506 H   0  0  0  0  0  0  0  0  0  0  0  0
  154.1964  136.2874  164.9859 H   0  0  0  0  0  0  0  0  0  0  0  0
  153.4407  134.9940  164.0497 H   0  0  0  0  0  0  0  0  0  0  0  0
  155.7709  137.0142  161.9141 H   0  0  0  0  0  0  0  0  0  0  0  0
  156.7823  134.8429  161.3068 H   0  0  0  0  0  0  0  0  0  0  0  0
  154.8908  135.8587  159.1292 H   0  0  0  0  0  0  0  0  0  0  0  0
  156.2761  134.8085  158.8658 H   0  0  0  0  0  0  0  0  0  0  0  0
  156.5238  136.4442  159.4363 H   0  0  0  0  0  0  0  0  0  0  0  0
  153.9512  133.8877  160.7019 H   0  0  0  0  0  0  0  0  0  0  0  0
  154.9645  133.3401  162.0346 H   0  0  0  0  0  0  0  0  0  0  0  0
  155.4338  132.9948  160.3763 H   0  0  0  0  0  0  0  0  0  0  0  0
  154.2637  142.0528  158.4957 H   0  0  0  0  0  0  0  0  0  0  0  0
  1  2  1  0  0  0  0
  1 21  1  0  0  0  0
  1 22  1  0  0  0  0
  1 23  1  0  0  0  0
  2 20  1  0  0  0  0
  2  3  2  0  0  0  0
  3  4  1  0  0  0  0
  3 24  1  0  0  0  0
  4  5  2  0  0  0  0
  4 25  1  0  0  0  0
  5  6  1  0  0  0  0
  5 19  1  0  0  0  0
  6  7  1  0  0  0  0
  6 26  1  0  0  0  0
  6 27  1  0  0  0  0
  7  8  2  0  0  0  0
  7  9  1  0  0  0  0
  9 10  1  0  0  0  0
  9 28  1  0  0  0  0
 10 11  1  0  0  0  0
 10 29  1  0  0  0  0
 10 30  1  0  0  0  0
 11 15  1  0  0  0  0
 11 12  1  0  0  0  0
 11 31  1  0  0  0  0
 12 13  1  0  0  0  0
 12 32  1  0  0  0  0
 12 33  1  0  0  0  0
 13 14  1  0  0  0  0
 13 34  1  0  0  0  0
 13 35  1  0  0  0  0
 14 15  1  0  0  0  0
 15 16  1  0  0  0  0
 15 36  1  0  0  0  0
 16 17  1  0  0  0  0
 16 18  1  0  0  0  0
 16 37  1  0  0  0  0
 17 38  1  0  0  0  0
 17 39  1  0  0  0  0
 17 40  1  0  0  0  0
 18 41  1  0  0  0  0
 18 42  1  0  0  0  0
 18 43  1  0  0  0  0
 19 20  2  0  0  0  0
 19 44  1  0  0  0  0
M  END
> <s_m_source_file>
AV-unprocessed.smi

> <i_m_source_file_index>
653

> <i_lp_mmshare_version>
43012

> <i_f3d_flags>
0

> <s_epik_input>
W0NIM11jMVtjSF1bY0hdYyhbY0hdbjEpW0NIMl1DKD1PKVtOSF1bQ0gyXVtDQEBIXTJbQ0gyXVtDSDJdT1tDQEhdMltDSF0oW0NIM10pW0NIM10=

> <s_epik_cmdline>
J2VwaWtfcHl0aG9uJywgJy1waCcsICc3LjAnLCAnLXRuJywgJzgnLCAnLW1hJywgJzIwMCcsICctbWV0YWxfYmluZGluZycsICctaW1hZScsICc8aW5maWxlLm1hZT4nLCAnLW9tYWUnLCAnPG91dGZpbGUubWFlPic=

> <r_epik_Ionization_Penalty>
0.0166429

> <r_epik_Ionization_Penalty_Charging>
0

> <r_epik_Ionization_Penalty_Neutral>
0.0166429

> <r_epik_State_Penalty>
0.0131478

> <r_epik_Charging_Adjusted_Penalty>
0.0131478

> <i_epik_Tot_Q>
0

> <i_epik_Tot_abs_Q>
0

> <r_epik_Metal_State_Penalty>
0.012786

> <b_epik_Metal_Only>
0

> <s_lp_Force_Field>
OPLS_2005

> <r_lp_Energy>
19.6488

> <b_lp_Chiralities_Consistent>
1

> <s_lp_Variant>
AV-unprocessed.smi:653-1

> <Gold.Version>
5.8.1

> <Gold.Id.Protein>
6NUR|6NUR_protein|mol2

> <Gold.PLP.Fitness>
43.3134

> <Gold.PLP.PLP>
-41.2625

> <Gold.PLP.part.hbond>
-1.0000

> <Gold.PLP.part.metal>
0.0000

> <Gold.PLP.part.buried>
-4.2437

> <Gold.PLP.part.nonpolar>
-35.9833

> <Gold.PLP.part.repulsive>
0.0412

> <Gold.PLP.ligand.clash>
0.0000

> <Gold.PLP.ligand.torsion>
0.4911

> <Gold.PLP.Chemscore.Hbond>
1.0000

> <Gold.PLP.Chemscore.CHOScore>
0.0000

> <Gold.PLP.Chemscore.Metal>
0.0000

> <Gold.Chemscore.Hbonds>
donor molecule, donor type, donor heavy atom, donor atom, acceptor molecule, acceptor atom, score
      P1  H  7997  8008       L1     8  1.00

> <Gold.PLP.Chemscore.Internal.Correction>
0.0332

> <Gold.Rescore>
     Score         DG    S(hbond)    S(metal)    S(lipo)     H(rot)  DE(clash)    DE(int)     intcor
     18.65     -19.13       0.97        0.00     121.41       1.48       0.12       0.36       ----

> <Gold.Chemscore.Fitness>
18.6483

> <Gold.Chemscore.DG>
-19.1286

> <Gold.Chemscore.ZeroCoef>
-5.4800

> <Gold.Chemscore.Hbond>
0.9716

> <Gold.Chemscore.Metal>
0.0000

> <Gold.Chemscore.Lipo>
121.4100

> <Gold.Chemscore.Internal_Hbond>
0.0000

> <Gold.Chemscore.DEClash>
0.1241

> <Gold.Chemscore.DEInternal>
0.3561

> <Gold.Chemscore.Rot>
1.4850

> <Gold.Chemscore.Internal.Correction>
   9.000000E+99

> <Gold.Chemscore.Hbonds>
donor molecule, donor type, donor heavy atom, donor atom, acceptor molecule, acceptor atom, score
      P1  H  7997  8008       L1     8  0.99

> <Gold.Chemscore.Hbond.Weighted>
-3.2451

> <Gold.Chemscore.Metal.Weighted>
-0.0000

> <Gold.Chemscore.Lipo.Weighted>
-14.2050

> <Gold.Chemscore.Internal_Hbond.Weighted>
0.0000

> <Gold.Chemscore.DEClash.Weighted>
0.1241

> <Gold.Chemscore.DEInternal.Weighted>
0.3561

> <Gold.Chemscore.Rot.Weighted>
3.8015

> <Gold.Chemscore.Internal.Correction.Weighted>
   9.000000E+99

> <Gold.Protein.RotatedTorsions>
[ 6907 6896 6895 6894 ] final   27.34 input  -60.11 | X-H torsion
[ 7974 7965 7964 7962 ] final -108.34 input  175.53 | X-H torsion
[ 8008 7997 7996 7995 ] final -119.07 input   59.86 | X-H torsion
[ 10167 10162 10161 10158 ] final   88.36 input  -65.29 | X-H torsion
[ 10718 10713 10712 10709 ] final   62.27 input   66.30 | X-H torsion
[ 10763 10752 10751 10750 ] final  168.30 input  -60.55 | X-H torsion
[ 11005 11000 10999 10996 ] final  100.27 input  -57.11 | X-H torsion

> <Gold.Protein.ActiveResidues>
 VAL166  LYS551  ARG553  GLY616  TRP617  ASP618  TYR619  PRO620  LYS621  CYS622 
 ASP623  PHE694  ASN695  SER759  ASP760  ASP761  ALA762  ILE779  LEU786  VAL792 
 PHE793  MET794  SER795  GLU796  ALA797  LYS798  CYS799  TRP800  GLU811  SER814 

> <Gold.Protein.RotatedAtoms>
  152.0007  134.9929  160.0564 H   0  0  0  0  0  0  0  0  0  0  0  0  # atno 6907 bound_to 6896
  152.1521  133.4524  159.4827 H   0  0  0  0  0  0  0  0  0  0  0  0  # atno 6908 bound_to 6896
  150.6877  134.2094  159.4396 H   0  0  0  0  0  0  0  0  0  0  0  0  # atno 6909 bound_to 6896
  145.1941  140.9027  143.3408 H   0  0  0  0  0  0  0  0  0  0  0  0  # atno 7974 bound_to 7965
  155.1098  140.0397  157.2721 H   0  0  0  0  0  0  0  0  0  0  0  0  # atno 8008 bound_to 7997
  154.6694  140.2609  155.6998 H   0  0  0  0  0  0  0  0  0  0  0  0  # atno 8009 bound_to 7997
  156.2652  140.2801  156.1197 H   0  0  0  0  0  0  0  0  0  0  0  0  # atno 8010 bound_to 7997
  139.8680  144.6508  150.8982 H   0  0  0  0  0  0  0  0  0  0  0  0  # atno 10167 bound_to 10162
  157.5888  130.9041  149.9566 H   0  0  0  0  0  0  0  0  0  0  0  0  # atno 10718 bound_to 10713
  154.3665  135.2753  155.2290 H   0  0  0  0  0  0  0  0  0  0  0  0  # atno 10763 bound_to 10752
  154.4456  135.5943  153.6161 H   0  0  0  0  0  0  0  0  0  0  0  0  # atno 10764 bound_to 10752
  152.9840  135.6029  154.3892 H   0  0  0  0  0  0  0  0  0  0  0  0  # atno 10765 bound_to 10752
  139.8771  134.9133  156.4731 H   0  0  0  0  0  0  0  0  0  0  0  0  # atno 11005 bound_to 11000
  145.0012  139.3596  143.6166 LP  0  0  0  0  0  0  0  0  0  0  0  0  # atno 17320 bound_to 7965
  146.3430  139.9236  142.8763 LP  0  0  0  0  0  0  0  0  0  0  0  0  # atno 17321 bound_to 7965
  140.7765  143.3687  151.1689 LP  0  0  0  0  0  0  0  0  0  0  0  0  # atno 17342 bound_to 10162
  139.7310  143.9072  152.3019 LP  0  0  0  0  0  0  0  0  0  0  0  0  # atno 17343 bound_to 10162
  156.0940  130.3661  150.0341 LP  0  0  0  0  0  0  0  0  0  0  0  0  # atno 17370 bound_to 10713
  156.8467  130.9444  151.3628 LP  0  0  0  0  0  0  0  0  0  0  0  0  # atno 17371 bound_to 10713
  140.8781  133.7938  155.9437 LP  0  0  0  0  0  0  0  0  0  0  0  0  # atno 17394 bound_to 11000
  140.8883  134.2527  157.5108 LP  0  0  0  0  0  0  0  0  0  0  0  0  # atno 17395 bound_to 11000

$$$$
