AV-unprocessed.smi:126|AV-procd|sdf|1152|dock8
  -GOLD-   2262018293D 1   1.00000     0.00000
 Structure written by MMmdl.
 40 42  0  0  0  0  0  0  0  0  1 V2000
  154.1281  139.2172  160.8609 O   0  0  0  0  0  0  0  0  0  0  0  0
  153.6941  139.5240  159.7497 C   0  0  0  0  0  0  0  0  0  0  0  0
  153.7055  138.5025  158.6016 C   0  0  0  0  0  0  0  0  0  0  0  0
  152.3772  138.2998  157.9823 N   0  0  0  0  0  0  0  0  0  0  0  0
  151.3822  137.6189  158.7268 C   0  0  0  0  0  0  0  0  0  0  0  0
  151.6067  137.2104  159.8673 O   0  0  0  0  0  0  0  0  0  0  0  0
  150.1022  137.4385  158.0511 C   0  0  0  0  0  0  0  0  0  0  0  0
  149.0976  136.8107  158.6855 F   0  0  0  0  0  0  0  0  0  0  0  0
  149.9082  137.8943  156.7965 C   0  0  0  0  0  0  0  0  0  0  0  0
  150.8925  138.5483  156.0771 N   0  0  0  0  0  0  0  0  0  0  0  0
  150.6592  139.0513  154.6684 C   0  0  1  0  0  0  0  0  0  0  0  0
  149.3087  138.5449  154.1291 C   0  0  0  0  0  0  0  0  0  0  0  0
  148.6602  139.8138  153.6132 C   0  0  0  0  0  0  0  0  0  0  0  0
  149.2516  140.8662  154.5389 C   0  0  0  0  0  0  0  0  0  0  0  0
  150.6050  140.4498  154.6652 O   0  0  0  0  0  0  0  0  0  0  0  0
  152.1585  138.7641  156.6636 C   0  0  0  0  0  0  0  0  0  0  0  0
  153.0507  139.3377  156.0349 O   0  0  0  0  0  0  0  0  0  0  0  0
  153.2245  140.7426  159.4261 N   0  0  0  0  0  0  0  0  0  0  0  0
  153.0567  141.8783  160.2635 C   0  0  0  0  0  0  0  0  0  0  0  0
  152.4982  143.0357  159.6811 C   0  0  0  0  0  0  0  0  0  0  0  0
  152.2820  144.1920  160.4553 C   0  0  0  0  0  0  0  0  0  0  0  0
  152.6118  144.1953  161.8237 C   0  0  0  0  0  0  0  0  0  0  0  0
  153.1529  143.0397  162.4177 C   0  0  0  0  0  0  0  0  0  0  0  0
  153.3714  141.8828  161.6445 C   0  0  0  0  0  0  0  0  0  0  0  0
  154.4294  138.8207  157.8491 H   0  0  0  0  0  0  0  0  0  0  0  0
  154.1166  137.5668  158.9833 H   0  0  0  0  0  0  0  0  0  0  0  0
  148.9374  137.7308  156.3547 H   0  0  0  0  0  0  0  0  0  0  0  0
  151.5238  138.7238  154.0887 H   0  0  0  0  0  0  0  0  0  0  0  0
  149.4533  137.7883  153.3575 H   0  0  0  0  0  0  0  0  0  0  0  0
  148.7154  138.1172  154.9392 H   0  0  0  0  0  0  0  0  0  0  0  0
  148.9704  140.0034  152.5847 H   0  0  0  0  0  0  0  0  0  0  0  0
  147.5710  139.7809  153.6437 H   0  0  0  0  0  0  0  0  0  0  0  0
  149.1786  141.8756  154.1338 H   0  0  0  0  0  0  0  0  0  0  0  0
  148.7586  140.8480  155.5119 H   0  0  0  0  0  0  0  0  0  0  0  0
  153.0067  140.8872  158.4509 H   0  0  0  0  0  0  0  0  0  0  0  0
  152.2375  143.0433  158.6327 H   0  0  0  0  0  0  0  0  0  0  0  0
  151.8610  145.0759  159.9995 H   0  0  0  0  0  0  0  0  0  0  0  0
  152.4440  145.0814  162.4182 H   0  0  0  0  0  0  0  0  0  0  0  0
  153.3959  143.0378  163.4701 H   0  0  0  0  0  0  0  0  0  0  0  0
  153.7662  141.0063  162.1348 H   0  0  0  0  0  0  0  0  0  0  0  0
  1  2  2  0  0  0  0
  2  3  1  0  0  0  0
  2 18  1  0  0  0  0
  3  4  1  0  0  0  0
  3 25  1  0  0  0  0
  3 26  1  0  0  0  0
  4 16  1  0  0  0  0
  4  5  1  0  0  0  0
  5  6  2  0  0  0  0
  5  7  1  0  0  0  0
  7  8  1  0  0  0  0
  7  9  2  0  0  0  0
  9 10  1  0  0  0  0
  9 27  1  0  0  0  0
 10 11  1  0  0  0  0
 10 16  1  0  0  0  0
 11 15  1  0  0  0  0
 11 12  1  0  0  0  0
 11 28  1  0  0  0  0
 12 13  1  0  0  0  0
 12 29  1  0  0  0  0
 12 30  1  0  0  0  0
 13 14  1  0  0  0  0
 13 31  1  0  0  0  0
 13 32  1  0  0  0  0
 14 15  1  0  0  0  0
 14 33  1  0  0  0  0
 14 34  1  0  0  0  0
 16 17  2  0  0  0  0
 18 19  1  0  0  0  0
 18 35  1  0  0  0  0
 19 24  1  0  0  0  0
 19 20  2  0  0  0  0
 20 21  1  0  0  0  0
 20 36  1  0  0  0  0
 21 22  2  0  0  0  0
 21 37  1  0  0  0  0
 22 23  1  0  0  0  0
 22 38  1  0  0  0  0
 23 24  2  0  0  0  0
 23 39  1  0  0  0  0
 24 40  1  0  0  0  0
M  END
> <s_m_source_file>
AV-unprocessed.smi

> <i_m_source_file_index>
126

> <i_lp_mmshare_version>
43012

> <i_f3d_flags>
0

> <s_epik_input>
W2NIXTFbY0hdW2NIXVtjSF1bY0hdYzFbTkhdQyg9TylbQ0gyXW4yYyg9TyljKEYpW2NIXW4oYzI9TylbQ0BASF0zW0NIMl1bQ0gyXVtDSDJdTzM=

> <s_epik_cmdline>
J2VwaWtfcHl0aG9uJywgJy1waCcsICc3LjAnLCAnLXRuJywgJzgnLCAnLW1hJywgJzIwMCcsICctbWV0YWxfYmluZGluZycsICctaW1hZScsICc8aW5maWxlLm1hZT4nLCAnLW9tYWUnLCAnPG91dGZpbGUubWFlPic=

> <r_lp_tautomer_probability>
1

> <r_epik_Ionization_Penalty>
1.86934e-06

> <r_epik_Ionization_Penalty_Charging>
3.88729e-08

> <r_epik_Ionization_Penalty_Neutral>
1.83046e-06

> <r_epik_State_Penalty>
-0

> <r_epik_Charging_Adjusted_Penalty>
3.88729e-08

> <i_epik_Tot_Q>
0

> <i_epik_Tot_abs_Q>
0

> <r_epik_Metal_State_Penalty>
-0

> <b_epik_Metal_Only>
0

> <s_epik_Chemistry_Notes>
This compound contains an acetal/aminal-like group ( X-CH(R)-Y where X, Y are N, S, or O) that may be acid/base labile, releasing an aldehyde.

> <s_lp_Force_Field>
OPLS_2005

> <r_lp_Energy>
33.9476

> <b_lp_Chiralities_Consistent>
1

> <s_lp_Variant>
AV-unprocessed.smi:126-2

> <Gold.Version>
5.8.1

> <Gold.Id.Protein>
6NUR|6NUR_protein|mol2

> <Gold.PLP.Fitness>
53.3992

> <Gold.PLP.PLP>
-44.9514

> <Gold.PLP.part.hbond>
-2.8860

> <Gold.PLP.part.metal>
0.0000

> <Gold.PLP.part.buried>
-3.3079

> <Gold.PLP.part.nonpolar>
-38.2497

> <Gold.PLP.part.repulsive>
0.1873

> <Gold.PLP.ligand.clash>
0.0000

> <Gold.PLP.ligand.torsion>
0.2879

> <Gold.PLP.Chemscore.Hbond>
3.0000

> <Gold.PLP.Chemscore.CHOScore>
0.0000

> <Gold.PLP.Chemscore.Metal>
0.0000

> <Gold.Chemscore.Hbonds>
donor molecule, donor type, donor heavy atom, donor atom, acceptor molecule, acceptor atom, score
      P1  H  6896  6908       L1     6  0.86
      P1  H  7989  7998       L1    15  1.00
      P1  H  7997  8010       L1    17  1.00

> <Gold.PLP.Chemscore.Internal.Correction>
0.0236

> <Gold.Rescore>
     Score         DG    S(hbond)    S(metal)    S(lipo)     H(rot)  DE(clash)    DE(int)     intcor
     16.90     -21.20       2.48        0.00      99.84       1.66       1.77       2.54       ----

> <Gold.Chemscore.Fitness>
16.9029

> <Gold.Chemscore.DG>
-21.2042

> <Gold.Chemscore.ZeroCoef>
-5.4800

> <Gold.Chemscore.Hbond>
2.4846

> <Gold.Chemscore.Metal>
0.0000

> <Gold.Chemscore.Lipo>
99.8351

> <Gold.Chemscore.Internal_Hbond>
0.0000

> <Gold.Chemscore.DEClash>
1.7661

> <Gold.Chemscore.DEInternal>
2.5352

> <Gold.Chemscore.Rot>
1.6621

> <Gold.Chemscore.Internal.Correction>
   9.000000E+99

> <Gold.Chemscore.Hbonds>
donor molecule, donor type, donor heavy atom, donor atom, acceptor molecule, acceptor atom, score
      P1  H  6896  6908       L1     6  0.58
      P1  H  7989  7998       L1    15  0.41
      P1  H  7997  8010       L1    17  0.95

> <Gold.Chemscore.Hbond.Weighted>
-8.2985

> <Gold.Chemscore.Metal.Weighted>
-0.0000

> <Gold.Chemscore.Lipo.Weighted>
-11.6807

> <Gold.Chemscore.Internal_Hbond.Weighted>
0.0000

> <Gold.Chemscore.DEClash.Weighted>
1.7661

> <Gold.Chemscore.DEInternal.Weighted>
2.5352

> <Gold.Chemscore.Rot.Weighted>
4.2550

> <Gold.Chemscore.Internal.Correction.Weighted>
   9.000000E+99

> <Gold.Protein.RotatedTorsions>
[ 6907 6896 6895 6894 ] final -136.96 input  -60.11 | X-H torsion
[ 7974 7965 7964 7962 ] final  -79.33 input  175.53 | X-H torsion
[ 8008 7997 7996 7995 ] final   97.77 input   59.86 | X-H torsion
[ 10167 10162 10161 10158 ] final  -38.99 input  -65.29 | X-H torsion
[ 10718 10713 10712 10709 ] final   20.93 input   66.30 | X-H torsion
[ 10763 10752 10751 10750 ] final  169.14 input  -60.55 | X-H torsion
[ 11005 11000 10999 10996 ] final  -65.90 input  -57.11 | X-H torsion

> <Gold.Protein.ActiveResidues>
 VAL166  LYS551  ARG553  GLY616  TRP617  ASP618  TYR619  PRO620  LYS621  CYS622 
 ASP623  PHE694  ASN695  SER759  ASP760  ASP761  ALA762  ILE779  LEU786  VAL792 
 PHE793  MET794  SER795  GLU796  ALA797  LYS798  CYS799  TRP800  GLU811  SER814 

> <Gold.Protein.RotatedAtoms>
  151.0165  133.5916  159.2676 H   0  0  0  0  0  0  0  0  0  0  0  0  # atno 6907 bound_to 6896
  151.3048  135.0777  159.9261 H   0  0  0  0  0  0  0  0  0  0  0  0  # atno 6908 bound_to 6896
  152.5313  133.9840  159.7874 H   0  0  0  0  0  0  0  0  0  0  0  0  # atno 6909 bound_to 6896
  145.5746  140.9460  143.1377 H   0  0  0  0  0  0  0  0  0  0  0  0  # atno 7974 bound_to 7965
  156.0936  140.3253  155.7848 H   0  0  0  0  0  0  0  0  0  0  0  0  # atno 8008 bound_to 7997
  155.4955  140.0565  157.2964 H   0  0  0  0  0  0  0  0  0  0  0  0  # atno 8009 bound_to 7997
  154.4653  140.1986  156.0152 H   0  0  0  0  0  0  0  0  0  0  0  0  # atno 8010 bound_to 7997
  140.7077  143.3242  151.2719 H   0  0  0  0  0  0  0  0  0  0  0  0  # atno 10167 bound_to 10162
  157.1313  130.6592  149.5952 H   0  0  0  0  0  0  0  0  0  0  0  0  # atno 10718 bound_to 10713
  154.3788  135.2753  155.2223 H   0  0  0  0  0  0  0  0  0  0  0  0  # atno 10763 bound_to 10752
  154.4339  135.5971  153.6089 H   0  0  0  0  0  0  0  0  0  0  0  0  # atno 10764 bound_to 10752
  152.9835  135.6002  154.4028 H   0  0  0  0  0  0  0  0  0  0  0  0  # atno 10765 bound_to 10752
  141.1467  133.6690  156.6058 H   0  0  0  0  0  0  0  0  0  0  0  0  # atno 11005 bound_to 11000
  144.7422  139.7418  143.7306 LP  0  0  0  0  0  0  0  0  0  0  0  0  # atno 17320 bound_to 7965
  146.1760  139.4930  142.9897 LP  0  0  0  0  0  0  0  0  0  0  0  0  # atno 17321 bound_to 7965
  139.6705  144.0028  152.2750 LP  0  0  0  0  0  0  0  0  0  0  0  0  # atno 17342 bound_to 10162
  139.9625  144.6548  150.8066 LP  0  0  0  0  0  0  0  0  0  0  0  0  # atno 17343 bound_to 10162
  155.9807  130.4810  150.6788 LP  0  0  0  0  0  0  0  0  0  0  0  0  # atno 17370 bound_to 10713
  157.4390  131.0859  151.0963 LP  0  0  0  0  0  0  0  0  0  0  0  0  # atno 17371 bound_to 10713
  140.3653  134.7652  157.4562 LP  0  0  0  0  0  0  0  0  0  0  0  0  # atno 17394 bound_to 11000
  140.0753  134.5806  155.8598 LP  0  0  0  0  0  0  0  0  0  0  0  0  # atno 17395 bound_to 11000

$$$$
