AV-unprocessed.smi:99|AV-procd|sdf|880|dock10
  -GOLD-   2262017353D 1   1.00000     0.00000
 Structure written by MMmdl.
 53 56  0  0  0  0  0  0  0  0  1 V2000
  145.9485  138.0073  159.3462 O   0  0  0  0  0  0  0  0  0  0  0  0
  145.8787  136.7784  159.4064 C   0  0  0  0  0  0  0  0  0  0  0  0
  145.5287  135.9980  158.3661 O   0  0  0  0  0  0  0  0  0  0  0  0
  145.3521  136.5544  157.0734 C   0  0  0  0  0  0  0  0  0  0  0  0
  146.6813  136.4724  156.3124 C   0  0  1  0  0  0  0  0  0  0  0  0
  147.7656  136.7261  157.2009 O   0  0  0  0  0  0  0  0  0  0  0  0
  148.9297  136.1033  156.7318 C   0  0  2  0  0  0  0  0  0  0  0  0
  149.9492  137.1598  156.3537 N   0  0  0  0  0  0  0  0  0  0  0  0
  149.5794  138.3990  155.8448 C   0  0  0  0  0  0  0  0  0  0  0  0
  150.4774  139.3520  155.4997 C   0  0  0  0  0  0  0  0  0  0  0  0
  151.9090  139.1108  155.6487 C   0  0  0  0  0  0  0  0  0  0  0  0
  152.7961  139.9133  155.3671 O   0  0  0  0  0  0  0  0  0  0  0  0
  152.2352  137.8488  156.1536 N   0  0  0  0  0  0  0  0  0  0  0  0
  151.3193  136.8575  156.5088 C   0  0  0  0  0  0  0  0  0  0  0  0
  151.7160  135.7712  156.9292 O   0  0  0  0  0  0  0  0  0  0  0  0
  148.5264  135.1984  155.5438 C   0  0  2  0  0  0  0  0  0  0  0  0
  148.8205  135.7839  154.2835 O   0  0  0  0  0  0  0  0  0  0  0  0
  147.0273  135.0856  155.7720 C   0  0  2  0  0  0  0  0  0  0  0  0
  146.3306  134.7121  154.5859 O   0  0  0  0  0  0  0  0  0  0  0  0
  146.6908  133.6223  153.8730 C   0  0  0  0  0  0  0  0  0  0  0  0
  147.6619  132.9138  154.1448 O   0  0  0  0  0  0  0  0  0  0  0  0
  145.7612  133.3394  152.7427 C   0  0  0  0  0  0  0  0  0  0  0  0
  145.9457  132.1686  151.9708 C   0  0  0  0  0  0  0  0  0  0  0  0
  145.0670  131.8607  150.9143 C   0  0  0  0  0  0  0  0  0  0  0  0
  143.9960  132.7223  150.6141 C   0  0  0  0  0  0  0  0  0  0  0  0
  143.8046  133.8924  151.3715 C   0  0  0  0  0  0  0  0  0  0  0  0
  144.6806  134.2005  152.4305 C   0  0  0  0  0  0  0  0  0  0  0  0
  146.2019  135.9920  160.6318 C   0  0  0  0  0  0  0  0  0  0  0  0
  145.9269  134.6049  160.6587 C   0  0  0  0  0  0  0  0  0  0  0  0
  146.1962  133.8427  161.8121 C   0  0  0  0  0  0  0  0  0  0  0  0
  146.7452  134.4579  162.9523 C   0  0  0  0  0  0  0  0  0  0  0  0
  147.0291  135.8359  162.9362 C   0  0  0  0  0  0  0  0  0  0  0  0
  146.7622  136.5990  161.7832 C   0  0  0  0  0  0  0  0  0  0  0  0
  153.2159  137.6361  156.2673 H   0  0  0  0  0  0  0  0  0  0  0  0
  144.5804  135.9894  156.5497 H   0  0  0  0  0  0  0  0  0  0  0  0
  145.0200  137.5921  157.1302 H   0  0  0  0  0  0  0  0  0  0  0  0
  146.7077  137.2127  155.5110 H   0  0  0  0  0  0  0  0  0  0  0  0
  149.3568  135.5505  157.5707 H   0  0  0  0  0  0  0  0  0  0  0  0
  148.5352  138.6335  155.7044 H   0  0  0  0  0  0  0  0  0  0  0  0
  150.1346  140.2993  155.1090 H   0  0  0  0  0  0  0  0  0  0  0  0
  149.0301  134.2342  155.6174 H   0  0  0  0  0  0  0  0  0  0  0  0
  148.7639  135.1108  153.6224 H   0  0  0  0  0  0  0  0  0  0  0  0
  146.8731  134.3545  156.5672 H   0  0  0  0  0  0  0  0  0  0  0  0
  146.7565  131.4881  152.1877 H   0  0  0  0  0  0  0  0  0  0  0  0
  145.2135  130.9603  150.3362 H   0  0  0  0  0  0  0  0  0  0  0  0
  143.3215  132.4856  149.8044 H   0  0  0  0  0  0  0  0  0  0  0  0
  142.9830  134.5549  151.1418 H   0  0  0  0  0  0  0  0  0  0  0  0
  144.5035  135.1045  152.9947 H   0  0  0  0  0  0  0  0  0  0  0  0
  145.4982  134.1120  159.7977 H   0  0  0  0  0  0  0  0  0  0  0  0
  145.9778  132.7849  161.8222 H   0  0  0  0  0  0  0  0  0  0  0  0
  146.9475  133.8742  163.8382 H   0  0  0  0  0  0  0  0  0  0  0  0
  147.4469  136.3112  163.8116 H   0  0  0  0  0  0  0  0  0  0  0  0
  146.9854  137.6558  161.8084 H   0  0  0  0  0  0  0  0  0  0  0  0
  1  2  2  0  0  0  0
  2  3  1  0  0  0  0
  2 28  1  0  0  0  0
  3  4  1  0  0  0  0
  4  5  1  0  0  0  0
  4 35  1  0  0  0  0
  4 36  1  0  0  0  0
  5 18  1  0  0  0  0
  5  6  1  0  0  0  0
  5 37  1  0  0  0  0
  6  7  1  0  0  0  0
  7  8  1  0  0  0  0
  7 16  1  0  0  0  0
  7 38  1  0  0  0  0
  8 14  1  0  0  0  0
  8  9  1  0  0  0  0
  9 10  2  0  0  0  0
  9 39  1  0  0  0  0
 10 11  1  0  0  0  0
 10 40  1  0  0  0  0
 11 12  2  0  0  0  0
 11 13  1  0  0  0  0
 13 34  1  0  0  0  0
 13 14  1  0  0  0  0
 14 15  2  0  0  0  0
 16 17  1  0  0  0  0
 16 18  1  0  0  0  0
 16 41  1  0  0  0  0
 17 42  1  0  0  0  0
 18 19  1  0  0  0  0
 18 43  1  0  0  0  0
 19 20  1  0  0  0  0
 20 21  2  0  0  0  0
 20 22  1  0  0  0  0
 22 27  1  0  0  0  0
 22 23  2  0  0  0  0
 23 24  1  0  0  0  0
 23 44  1  0  0  0  0
 24 25  2  0  0  0  0
 24 45  1  0  0  0  0
 25 26  1  0  0  0  0
 25 46  1  0  0  0  0
 26 27  2  0  0  0  0
 26 47  1  0  0  0  0
 27 48  1  0  0  0  0
 28 33  1  0  0  0  0
 28 29  2  0  0  0  0
 29 30  1  0  0  0  0
 29 49  1  0  0  0  0
 30 31  2  0  0  0  0
 30 50  1  0  0  0  0
 31 32  1  0  0  0  0
 31 51  1  0  0  0  0
 32 33  2  0  0  0  0
 32 52  1  0  0  0  0
 33 53  1  0  0  0  0
M  END
> <s_m_source_file>
AV-unprocessed.smi

> <i_m_source_file_index>
99

> <i_lp_mmshare_version>
43012

> <i_f3d_flags>
0

> <s_epik_input>
W2NIXTFbY0hdW2NIXVtjSF1bY0hdYzFDKD1PKU9bQ0gyXVtDQEBIXTJPW0NAQEhdKG4zW2NIXVtjSF1jKD1PKVtuSF1jMz1PKVtDQEBIXShbT0hdKVtDQEhdMk9DKD1PKWM0W2NIXVtjSF1bY0hdW2NIXVtjSF00

> <s_epik_cmdline>
J2VwaWtfcHl0aG9uJywgJy1waCcsICc3LjAnLCAnLXRuJywgJzgnLCAnLW1hJywgJzIwMCcsICctbWV0YWxfYmluZGluZycsICctaW1hZScsICc8aW5maWxlLm1hZT4nLCAnLW9tYWUnLCAnPG91dGZpbGUubWFlPic=

> <r_lp_tautomer_probability>
1

> <r_epik_Ionization_Penalty>
0.00454555

> <r_epik_Ionization_Penalty_Charging>
0.0045191

> <r_epik_Ionization_Penalty_Neutral>
2.64449e-05

> <r_epik_State_Penalty>
-0

> <r_epik_Charging_Adjusted_Penalty>
0.0045191

> <i_epik_Tot_Q>
0

> <i_epik_Tot_abs_Q>
0

> <r_epik_Metal_State_Penalty>
1.27877

> <b_epik_Metal_Only>
0

> <s_epik_Chemistry_Notes>
This compound has an ester and may undergo hydrolysis at high or low pH. This compound contains an acetal/aminal-like group ( X-CH(R)-Y where X, Y are N, S, or O) that may be acid/base labile, releasing an aldehyde.

> <s_lp_Force_Field>
OPLS_2005

> <r_lp_Energy>
44.2289

> <b_lp_Chiralities_Consistent>
1

> <s_lp_Variant>
AV-unprocessed.smi:99-16

> <Gold.Version>
5.8.1

> <Gold.Id.Protein>
6NUR|6NUR_protein|mol2

> <Gold.PLP.Fitness>
50.1429

> <Gold.PLP.PLP>
-43.2570

> <Gold.PLP.part.hbond>
-4.2295

> <Gold.PLP.part.metal>
0.0000

> <Gold.PLP.part.buried>
-6.6364

> <Gold.PLP.part.nonpolar>
-33.7918

> <Gold.PLP.part.repulsive>
0.3052

> <Gold.PLP.ligand.clash>
0.0000

> <Gold.PLP.ligand.torsion>
1.2824

> <Gold.PLP.Chemscore.Hbond>
3.0526

> <Gold.PLP.Chemscore.CHOScore>
0.0000

> <Gold.PLP.Chemscore.Metal>
0.0000

> <Gold.Chemscore.Hbonds>
donor molecule, donor type, donor heavy atom, donor atom, acceptor molecule, acceptor atom, score
      L1  H    17    42       P1  7948  0.04
      P1  H  6934  6947       L1     1  0.38
      P1  H  7989  7998       L1    12  0.06
      P1  H  7997  8009       L1    12  1.00
      P1  H 10752 10765       L1    15  0.07

> <Gold.PLP.Chemscore.Internal.Correction>
0.2928

> <Gold.Rescore>
     Score         DG    S(hbond)    S(metal)    S(lipo)     H(rot)  DE(clash)    DE(int)     intcor
     13.56     -16.37       2.32        0.00      96.76       3.19       0.02       2.79       ----

> <Gold.Chemscore.Fitness>
13.5561

> <Gold.Chemscore.DG>
-16.3688

> <Gold.Chemscore.ZeroCoef>
-5.4800

> <Gold.Chemscore.Hbond>
2.3159

> <Gold.Chemscore.Metal>
0.0000

> <Gold.Chemscore.Lipo>
96.7584

> <Gold.Chemscore.Internal_Hbond>
0.0000

> <Gold.Chemscore.DEClash>
0.0195

> <Gold.Chemscore.DEInternal>
2.7932

> <Gold.Chemscore.Rot>
3.1903

> <Gold.Chemscore.Internal.Correction>
   9.000000E+99

> <Gold.Chemscore.Hbonds>
donor molecule, donor type, donor heavy atom, donor atom, acceptor molecule, acceptor atom, score
      L1  H    17    42       P1  7948  0.06
      P1  H  6934  6947       L1     1  0.36
      P1  H  7989  7998       L1    12  0.01
      P1  H  7997  8009       L1    12  1.00
      P1  H 10752 10765       L1    15  0.02

> <Gold.Chemscore.Hbond.Weighted>
-7.7352

> <Gold.Chemscore.Metal.Weighted>
-0.0000

> <Gold.Chemscore.Lipo.Weighted>
-11.3207

> <Gold.Chemscore.Internal_Hbond.Weighted>
0.0000

> <Gold.Chemscore.DEClash.Weighted>
0.0195

> <Gold.Chemscore.DEInternal.Weighted>
2.7932

> <Gold.Chemscore.Rot.Weighted>
8.1671

> <Gold.Chemscore.Internal.Correction.Weighted>
   9.000000E+99

> <Gold.Protein.RotatedTorsions>
[ 6907 6896 6895 6894 ] final   92.51 input  -60.11 | X-H torsion
[ 7974 7965 7964 7962 ] final   39.38 input  175.53 | X-H torsion
[ 8008 7997 7996 7995 ] final -136.91 input   59.86 | X-H torsion
[ 10167 10162 10161 10158 ] final  169.82 input  -65.29 | X-H torsion
[ 10718 10713 10712 10709 ] final -173.41 input   66.30 | X-H torsion
[ 10763 10752 10751 10750 ] final -128.93 input  -60.55 | X-H torsion
[ 11005 11000 10999 10996 ] final  114.65 input  -57.11 | X-H torsion

> <Gold.Protein.ActiveResidues>
 VAL166  LYS551  ARG553  GLY616  TRP617  ASP618  TYR619  PRO620  LYS621  CYS622 
 ASP623  PHE694  ASN695  SER759  ASP760  ASP761  ALA762  ILE779  LEU786  VAL792 
 PHE793  MET794  SER795  GLU796  ALA797  LYS798  CYS799  TRP800  GLU811  SER814 

> <Gold.Protein.RotatedAtoms>
  152.5452  134.1491  159.8510 H   0  0  0  0  0  0  0  0  0  0  0  0  # atno 6907 bound_to 6896
  151.1519  133.4894  159.2602 H   0  0  0  0  0  0  0  0  0  0  0  0  # atno 6908 bound_to 6896
  151.1463  135.0215  159.8703 H   0  0  0  0  0  0  0  0  0  0  0  0  # atno 6909 bound_to 6896
  146.0989  139.5659  142.9427 H   0  0  0  0  0  0  0  0  0  0  0  0  # atno 7974 bound_to 7965
  155.4030  140.0507  157.3036 H   0  0  0  0  0  0  0  0  0  0  0  0  # atno 8008 bound_to 7997
  154.4981  140.2146  155.9363 H   0  0  0  0  0  0  0  0  0  0  0  0  # atno 8009 bound_to 7997
  156.1432  140.3150  155.8534 H   0  0  0  0  0  0  0  0  0  0  0  0  # atno 8010 bound_to 7997
  139.5002  144.3664  151.9771 H   0  0  0  0  0  0  0  0  0  0  0  0  # atno 10167 bound_to 10162
  156.7699  130.9444  151.3119 H   0  0  0  0  0  0  0  0  0  0  0  0  # atno 10718 bound_to 10713
  154.8757  135.3912  154.3838 H   0  0  0  0  0  0  0  0  0  0  0  0  # atno 10763 bound_to 10752
  153.4582  135.7029  153.6072 H   0  0  0  0  0  0  0  0  0  0  0  0  # atno 10764 bound_to 10752
  153.4582  135.3818  155.2291 H   0  0  0  0  0  0  0  0  0  0  0  0  # atno 10765 bound_to 10752
  139.8986  134.9571  156.6924 H   0  0  0  0  0  0  0  0  0  0  0  0  # atno 11005 bound_to 11000
  145.5894  141.0371  143.2078 LP  0  0  0  0  0  0  0  0  0  0  0  0  # atno 17320 bound_to 7965
  144.7417  139.7432  143.7308 LP  0  0  0  0  0  0  0  0  0  0  0  0  # atno 17321 bound_to 7965
  140.3100  144.3549  150.6036 LP  0  0  0  0  0  0  0  0  0  0  0  0  # atno 17342 bound_to 10162
  140.5806  143.2173  151.7435 LP  0  0  0  0  0  0  0  0  0  0  0  0  # atno 17343 bound_to 10162
  157.6696  130.9039  150.0010 LP  0  0  0  0  0  0  0  0  0  0  0  0  # atno 17370 bound_to 10713
  156.1285  130.3644  149.9770 LP  0  0  0  0  0  0  0  0  0  0  0  0  # atno 17371 bound_to 10713
  140.7215  133.9137  155.8150 LP  0  0  0  0  0  0  0  0  0  0  0  0  # atno 17394 bound_to 11000
  141.0224  134.0870  157.4106 LP  0  0  0  0  0  0  0  0  0  0  0  0  # atno 17395 bound_to 11000

$$$$
