AV-unprocessed.smi:157|AV-procd|sdf|1319|dock2
  -GOLD-   2262019 13D 1   1.00000     0.00000
 Structure written by MMmdl.
 36 38  0  0  0  0  0  0  0  0  2 V2000
  148.5397  139.8157  153.4980 O   0  0  0  0  0  0  0  0  0  0  0  0
  148.9560  138.8223  154.4101 C   0  0  0  0  0  0  0  0  0  0  0  0
  150.4112  138.4045  154.1029 C   0  0  1  0  0  0  0  0  0  0  0  0
  151.2558  139.5412  154.2993 O   0  0  0  0  0  0  0  0  0  0  0  0
  151.9112  139.4785  155.5347 C   0  0  1  0  0  0  0  0  0  0  0  0
  151.5749  140.7000  156.3305 N   0  0  0  0  0  0  0  0  0  0  0  0
  150.7364  141.6970  155.9742 C   0  0  0  0  0  0  0  0  0  0  0  0
  150.6309  142.6661  156.8677 N   0  3  0  0  0  0  0  0  0  0  0  0
  151.4594  142.3241  157.9153 C   0  0  0  0  0  0  0  0  0  0  0  0
  152.0325  141.0989  157.5652 C   0  0  0  0  0  0  0  0  0  0  0  0
  152.9483  140.3011  158.2680 N   0  0  0  0  0  0  0  0  0  0  0  0
  153.1833  140.4488  159.5312 C   0  0  0  0  0  0  0  0  0  0  0  0
  152.7026  141.4132  160.4012 N   0  0  0  0  0  0  0  0  0  0  0  0
  152.6936  142.8302  160.0832 C   0  0  0  0  0  0  0  0  0  0  0  0
  151.5905  143.2353  159.0961 C   0  0  2  0  0  0  0  0  0  0  0  0
  150.3787  143.3774  159.8082 O   0  0  0  0  0  0  0  0  0  0  0  0
  151.4093  138.2241  156.2491 C   0  0  0  0  0  0  0  0  0  0  0  0
  151.0078  137.3687  155.0689 C   0  0  1  0  0  0  0  0  0  0  0  0
  150.1229  136.3328  155.4435 O   0  0  0  0  0  0  0  0  0  0  0  0
  150.4854  138.0442  153.0759 H   0  0  0  0  0  0  0  0  0  0  0  0
  152.9931  139.5094  155.3993 H   0  0  0  0  0  0  0  0  0  0  0  0
  151.8345  144.2292  158.7196 H   0  0  0  0  0  0  0  0  0  0  0  0
  151.8998  136.9263  154.6226 H   0  0  0  0  0  0  0  0  0  0  0  0
  149.0348  139.7170  152.6991 H   0  0  0  0  0  0  0  0  0  0  0  0
  148.8380  139.1792  155.4331 H   0  0  0  0  0  0  0  0  0  0  0  0
  148.2771  137.9789  154.2851 H   0  0  0  0  0  0  0  0  0  0  0  0
  150.2009  141.7031  155.0414 H   0  0  0  0  0  0  0  0  0  0  0  0
  153.8531  139.7463  160.0291 H   0  0  0  0  0  0  0  0  0  0  0  0
  152.8012  141.2591  161.3947 H   0  0  0  0  0  0  0  0  0  0  0  0
  152.6248  143.4129  161.0025 H   0  0  0  0  0  0  0  0  0  0  0  0
  153.6637  143.0708  159.6456 H   0  0  0  0  0  0  0  0  0  0  0  0
  150.3286  142.6973  160.4621 H   0  0  0  0  0  0  0  0  0  0  0  0
  152.1879  137.7828  156.8719 H   0  0  0  0  0  0  0  0  0  0  0  0
  150.5463  138.4673  156.8718 H   0  0  0  0  0  0  0  0  0  0  0  0
  150.4314  135.5225  155.0669 H   0  0  0  0  0  0  0  0  0  0  0  0
  150.0607  143.4984  156.7869 H   0  0  0  0  0  0  0  0  0  0  0  0
  1  2  1  0  0  0  0
  1 24  1  0  0  0  0
  2  3  1  0  0  0  0
  2 25  1  0  0  0  0
  2 26  1  0  0  0  0
  3 20  1  0  0  0  0
  3 18  1  0  0  0  0
  3  4  1  0  0  0  0
  4  5  1  0  0  0  0
  5 21  1  0  0  0  0
  5  6  1  0  0  0  0
  5 17  1  0  0  0  0
  6 10  1  0  0  0  0
  6  7  1  0  0  0  0
  7  8  2  0  0  0  0
  7 27  1  0  0  0  0
  8  9  1  0  0  0  0
  8 36  1  0  0  0  0
  9 15  1  0  0  0  0
  9 10  2  0  0  0  0
 10 11  1  0  0  0  0
 11 12  2  0  0  0  0
 12 13  1  0  0  0  0
 12 28  1  0  0  0  0
 13 14  1  0  0  0  0
 13 29  1  0  0  0  0
 14 15  1  0  0  0  0
 14 30  1  0  0  0  0
 14 31  1  0  0  0  0
 15 22  1  0  0  0  0
 15 16  1  0  0  0  0
 16 32  1  0  0  0  0
 17 18  1  0  0  0  0
 17 33  1  0  0  0  0
 17 34  1  0  0  0  0
 18 23  1  0  0  0  0
 18 19  1  0  0  0  0
 19 35  1  0  0  0  0
M  CHG  1   8   1
M  END
> <s_m_source_file>
AV-unprocessed.smi

> <i_m_source_file_index>
157

> <i_lp_mmshare_version>
43012

> <i_f3d_flags>
0

> <s_epik_input>
W09IXVtDSDJdW0NASF0xT1tDQEhdKFtDSDJdW0NAQEhdMVtPSF0pbihbY0hdbjIpYyhjMjMpTj1bQ0hdW05IXVtDSDJdW0NASF0zW09IXQ==

> <s_epik_cmdline>
J2VwaWtfcHl0aG9uJywgJy1waCcsICc3LjAnLCAnLXRuJywgJzgnLCAnLW1hJywgJzIwMCcsICctbWV0YWxfYmluZGluZycsICctaW1hZScsICc8aW5maWxlLm1hZT4nLCAnLW9tYWUnLCAnPG91dGZpbGUubWFlPic=

> <r_epik_Ionization_Penalty>
1.68594

> <r_epik_Ionization_Penalty_Charging>
0

> <r_epik_Ionization_Penalty_Neutral>
1.68594

> <r_epik_State_Penalty>
1.79006

> <r_epik_Charging_Adjusted_Penalty>
1.79006

> <i_epik_Tot_Q>
1

> <i_epik_Tot_abs_Q>
1

> <r_epik_Metal_State_Penalty>
5.85324

> <b_epik_Metal_Only>
0

> <s_epik_Chemistry_Notes>
This compound has an imine and may undergo hydrolysis. This compound contains an acetal/aminal-like group ( X-CH(R)-Y where X, Y are N, S, or O) that may be acid/base labile, releasing an aldehyde.

> <s_lp_Force_Field>
OPLS_2005

> <r_lp_Energy>
55.1144

> <b_lp_Chiralities_Consistent>
1

> <s_lp_Variant>
AV-unprocessed.smi:157-29

> <Gold.Version>
5.8.1

> <Gold.Id.Protein>
6NUR|6NUR_protein|mol2

> <Gold.PLP.Fitness>
48.0787

> <Gold.PLP.PLP>
-33.4353

> <Gold.PLP.part.hbond>
-5.0000

> <Gold.PLP.part.metal>
0.0000

> <Gold.PLP.part.buried>
-4.7165

> <Gold.PLP.part.nonpolar>
-22.6933

> <Gold.PLP.part.repulsive>
0.2827

> <Gold.PLP.ligand.clash>
0.0000

> <Gold.PLP.ligand.torsion>
0.0424

> <Gold.PLP.Chemscore.Hbond>
4.9040

> <Gold.PLP.Chemscore.CHOScore>
0.0000

> <Gold.PLP.Chemscore.Metal>
0.0000

> <Gold.Chemscore.Hbonds>
donor molecule, donor type, donor heavy atom, donor atom, acceptor molecule, acceptor atom, score
      L1  H     1    24       P1  7957  1.00
      L1  H     8    36       P1  8028  2.00
      P1  H  7989  7998       L1     4  1.00
      P1  H  7997  8010       L1    11  0.84

> <Gold.PLP.Chemscore.Internal.Correction>
0.0161

> <Gold.Rescore>
     Score         DG    S(hbond)    S(metal)    S(lipo)     H(rot)  DE(clash)    DE(int)     intcor
     13.21     -13.62       3.30        0.00      55.57       3.67       0.32       0.08       ----

> <Gold.Chemscore.Fitness>
13.2125

> <Gold.Chemscore.DG>
-13.6165

> <Gold.Chemscore.ZeroCoef>
-5.4800

> <Gold.Chemscore.Hbond>
3.2992

> <Gold.Chemscore.Metal>
0.0000

> <Gold.Chemscore.Lipo>
55.5722

> <Gold.Chemscore.Internal_Hbond>
0.0000

> <Gold.Chemscore.DEClash>
0.3204

> <Gold.Chemscore.DEInternal>
0.0836

> <Gold.Chemscore.Rot>
3.6659

> <Gold.Chemscore.Internal.Correction>
   9.000000E+99

> <Gold.Chemscore.Hbonds>
donor molecule, donor type, donor heavy atom, donor atom, acceptor molecule, acceptor atom, score
      L1  H     1    24       P1  7957  0.99
      L1  H     8    36       P1  8028  0.88
      P1  H  7989  7998       L1     4  0.80
      P1  H  7997  8010       L1    11  0.37

> <Gold.Chemscore.Hbond.Weighted>
-11.0194

> <Gold.Chemscore.Metal.Weighted>
-0.0000

> <Gold.Chemscore.Lipo.Weighted>
-6.5019

> <Gold.Chemscore.Internal_Hbond.Weighted>
0.0000

> <Gold.Chemscore.DEClash.Weighted>
0.3204

> <Gold.Chemscore.DEInternal.Weighted>
0.0836

> <Gold.Chemscore.Rot.Weighted>
9.3848

> <Gold.Chemscore.Internal.Correction.Weighted>
   9.000000E+99

> <Gold.Protein.RotatedTorsions>
[ 6907 6896 6895 6894 ] final -144.45 input  -60.11 | X-H torsion
[ 7974 7965 7964 7962 ] final   62.87 input  175.53 | X-H torsion
[ 8008 7997 7996 7995 ] final   37.28 input   59.86 | X-H torsion
[ 10167 10162 10161 10158 ] final -151.80 input  -65.29 | X-H torsion
[ 10718 10713 10712 10709 ] final   -2.02 input   66.30 | X-H torsion
[ 10763 10752 10751 10750 ] final  -72.77 input  -60.55 | X-H torsion
[ 11005 11000 10999 10996 ] final  177.42 input  -57.11 | X-H torsion

> <Gold.Protein.ActiveResidues>
 VAL166  LYS551  ARG553  GLY616  TRP617  ASP618  TYR619  PRO620  LYS621  CYS622 
 ASP623  PHE694  ASN695  SER759  ASP760  ASP761  ALA762  ILE779  LEU786  VAL792 
 PHE793  MET794  SER795  GLU796  ALA797  LYS798  CYS799  TRP800  GLU811  SER814 

> <Gold.Protein.RotatedAtoms>
  151.1143  133.5150  159.2604 H   0  0  0  0  0  0  0  0  0  0  0  0  # atno 6907 bound_to 6896
  151.1932  135.0411  159.8851 H   0  0  0  0  0  0  0  0  0  0  0  0  # atno 6908 bound_to 6896
  152.5452  134.0980  159.8359 H   0  0  0  0  0  0  0  0  0  0  0  0  # atno 6909 bound_to 6896
  145.8684  139.3361  143.0777 H   0  0  0  0  0  0  0  0  0  0  0  0  # atno 7974 bound_to 7965
  155.2012  140.3316  155.4343 H   0  0  0  0  0  0  0  0  0  0  0  0  # atno 8008 bound_to 7997
  156.2406  140.1893  156.7049 H   0  0  0  0  0  0  0  0  0  0  0  0  # atno 8009 bound_to 7997
  154.6140  140.0605  156.9516 H   0  0  0  0  0  0  0  0  0  0  0  0  # atno 8010 bound_to 7997
  139.7236  143.8918  152.2512 H   0  0  0  0  0  0  0  0  0  0  0  0  # atno 10167 bound_to 10162
  156.7970  130.5380  149.5727 H   0  0  0  0  0  0  0  0  0  0  0  0  # atno 10718 bound_to 10713
  154.4503  135.5919  153.6187 H   0  0  0  0  0  0  0  0  0  0  0  0  # atno 10763 bound_to 10752
  152.9813  135.6019  154.3613 H   0  0  0  0  0  0  0  0  0  0  0  0  # atno 10764 bound_to 10752
  154.3473  135.2841  155.2369 H   0  0  0  0  0  0  0  0  0  0  0  0  # atno 10765 bound_to 10752
  140.3839  134.6922  157.4467 H   0  0  0  0  0  0  0  0  0  0  0  0  # atno 11005 bound_to 11000
  145.9166  140.9144  143.0427 LP  0  0  0  0  0  0  0  0  0  0  0  0  # atno 17320 bound_to 7965
  144.6726  140.1231  143.7448 LP  0  0  0  0  0  0  0  0  0  0  0  0  # atno 17321 bound_to 7965
  139.8821  144.7012  150.8866 LP  0  0  0  0  0  0  0  0  0  0  0  0  # atno 17342 bound_to 10162
  140.7758  143.3653  151.1751 LP  0  0  0  0  0  0  0  0  0  0  0  0  # atno 17343 bound_to 10162
  156.1124  130.6050  151.0068 LP  0  0  0  0  0  0  0  0  0  0  0  0  # atno 17370 bound_to 10713
  157.6572  131.0887  150.7919 LP  0  0  0  0  0  0  0  0  0  0  0  0  # atno 17371 bound_to 10713
  140.0458  134.6202  155.8923 LP  0  0  0  0  0  0  0  0  0  0  0  0  # atno 17394 bound_to 11000
  141.1914  133.6571  156.5455 LP  0  0  0  0  0  0  0  0  0  0  0  0  # atno 17395 bound_to 11000

$$$$
