AV-unprocessed.smi:290|AV-procd|sdf|2229|dock4
  -GOLD-   2262022 83D 1   1.00000     0.00000
 Structure written by MMmdl.
 59 62  0  0  0  0  0  0  0  0  2 V2000
  152.9277  140.7152  159.3445 C   0  0  0  0  0  0  0  0  0  0  0  0
  152.9243  142.0451  158.5702 C   0  0  2  0  0  0  0  0  0  0  0  0
  153.5546  143.0664  159.3421 O   0  0  0  0  0  0  0  0  0  0  0  0
  152.6464  144.1322  159.5737 C   0  0  0  0  0  0  0  0  0  0  0  0
  151.7151  144.0924  158.3698 C   0  0  0  0  0  0  0  0  0  0  0  0
  151.5437  142.5991  158.1340 C   0  0  2  0  0  0  0  0  0  0  0  0
  150.5133  142.1349  158.9925 O   0  0  0  0  0  0  0  0  0  0  0  0
  151.1488  142.2711  156.6740 C   0  0  0  0  0  0  0  0  0  0  0  0
  150.7593  140.8832  156.4786 N   0  0  0  0  0  0  0  0  0  0  0  0
  149.5499  140.3121  156.8040 C   0  0  0  0  0  0  0  0  0  0  0  0
  149.4472  139.0385  156.5393 N   0  0  0  0  0  0  0  0  0  0  0  0
  150.6775  138.7044  155.9849 C   0  0  0  0  0  0  0  0  0  0  0  0
  151.2446  137.4987  155.4801 C   0  0  0  0  0  0  0  0  0  0  0  0
  150.5806  136.3122  155.4813 N   0  0  0  0  0  0  0  0  0  0  0  0
  151.3931  135.1007  155.3936 C   0  0  0  0  0  0  0  0  0  0  0  0
  150.5981  134.1014  154.5469 C   0  0  0  0  0  0  0  0  0  0  0  0
  149.1581  134.6071  154.6832 C   0  0  2  0  0  0  0  0  0  0  0  0
  148.2000  134.1312  153.6445 N   0  3  2  0  0  0  0  0  0  0  0  0
  146.8112  134.5613  153.9330 C   0  0  0  0  0  0  0  0  0  0  0  0
  148.2918  132.6870  153.2957 C   0  0  0  0  0  0  0  0  0  0  0  0
  147.2260  132.2803  152.2659 C   0  0  0  0  0  0  0  0  0  0  0  0
  147.6731  132.5858  150.9616 O   0  0  0  0  0  0  0  0  0  0  0  0
  149.3311  136.1312  154.7428 C   0  0  1  0  0  0  0  0  0  0  0  0
  148.1403  136.8436  155.4093 C   0  0  0  0  0  0  0  0  0  0  0  0
  152.5102  137.5659  154.9877 N   0  0  0  0  0  0  0  0  0  0  0  0
  153.1786  138.7227  154.9906 C   0  0  0  0  0  0  0  0  0  0  0  0
  152.7785  139.9152  155.4333 N   0  0  0  0  0  0  0  0  0  0  0  0
  151.5089  139.8589  155.9270 C   0  0  0  0  0  0  0  0  0  0  0  0
  148.7871  134.2872  155.6592 H   0  0  0  0  0  0  0  0  0  0  0  0
  149.4686  136.5335  153.7401 H   0  0  0  0  0  0  0  0  0  0  0  0
  152.4481  139.9209  158.7732 H   0  0  0  0  0  0  0  0  0  0  0  0
  152.4086  140.8053  160.2989 H   0  0  0  0  0  0  0  0  0  0  0  0
  153.9481  140.3970  159.5576 H   0  0  0  0  0  0  0  0  0  0  0  0
  153.5530  141.9280  157.6874 H   0  0  0  0  0  0  0  0  0  0  0  0
  152.0960  143.9402  160.4957 H   0  0  0  0  0  0  0  0  0  0  0  0
  153.1646  145.0857  159.6763 H   0  0  0  0  0  0  0  0  0  0  0  0
  150.7767  144.6234  158.5354 H   0  0  0  0  0  0  0  0  0  0  0  0
  152.2144  144.5562  157.5178 H   0  0  0  0  0  0  0  0  0  0  0  0
  149.7225  142.0350  158.4852 H   0  0  0  0  0  0  0  0  0  0  0  0
  150.3242  142.9080  156.3508 H   0  0  0  0  0  0  0  0  0  0  0  0
  151.9800  142.4882  156.0021 H   0  0  0  0  0  0  0  0  0  0  0  0
  148.7431  140.8719  157.2543 H   0  0  0  0  0  0  0  0  0  0  0  0
  152.3757  135.2873  154.9573 H   0  0  0  0  0  0  0  0  0  0  0  0
  151.5411  134.7102  156.4010 H   0  0  0  0  0  0  0  0  0  0  0  0
  150.9505  134.1566  153.5172 H   0  0  0  0  0  0  0  0  0  0  0  0
  150.7223  133.0730  154.8872 H   0  0  0  0  0  0  0  0  0  0  0  0
  146.4413  134.0997  154.8493 H   0  0  0  0  0  0  0  0  0  0  0  0
  146.1352  134.2925  153.1221 H   0  0  0  0  0  0  0  0  0  0  0  0
  146.7577  135.6438  154.0519 H   0  0  0  0  0  0  0  0  0  0  0  0
  149.2697  132.4320  152.8895 H   0  0  0  0  0  0  0  0  0  0  0  0
  148.1832  132.0889  154.2018 H   0  0  0  0  0  0  0  0  0  0  0  0
  147.0426  131.2071  152.3222 H   0  0  0  0  0  0  0  0  0  0  0  0
  146.2728  132.7747  152.4510 H   0  0  0  0  0  0  0  0  0  0  0  0
  148.1087  131.8269  150.6035 H   0  0  0  0  0  0  0  0  0  0  0  0
  147.2193  136.6614  154.8554 H   0  0  0  0  0  0  0  0  0  0  0  0
  148.2851  137.9230  155.4505 H   0  0  0  0  0  0  0  0  0  0  0  0
  147.9890  136.4925  156.4306 H   0  0  0  0  0  0  0  0  0  0  0  0
  154.1775  138.6871  154.5810 H   0  0  0  0  0  0  0  0  0  0  0  0
  148.4683  134.6247  152.8047 H   0  0  0  0  0  0  0  0  0  0  0  0
  1  2  1  0  0  0  0
  1 31  1  0  0  0  0
  1 32  1  0  0  0  0
  1 33  1  0  0  0  0
  2  6  1  0  0  0  0
  2  3  1  0  0  0  0
  2 34  1  0  0  0  0
  3  4  1  0  0  0  0
  4  5  1  0  0  0  0
  4 35  1  0  0  0  0
  4 36  1  0  0  0  0
  5  6  1  0  0  0  0
  5 37  1  0  0  0  0
  5 38  1  0  0  0  0
  6  7  1  0  0  0  0
  6  8  1  0  0  0  0
  7 39  1  0  0  0  0
  8  9  1  0  0  0  0
  8 40  1  0  0  0  0
  8 41  1  0  0  0  0
  9 28  1  0  0  0  0
  9 10  1  0  0  0  0
 10 11  2  0  0  0  0
 10 42  1  0  0  0  0
 11 12  1  0  0  0  0
 12 28  2  0  0  0  0
 12 13  1  0  0  0  0
 13 14  1  0  0  0  0
 13 25  2  0  0  0  0
 14 23  1  0  0  0  0
 14 15  1  0  0  0  0
 15 16  1  0  0  0  0
 15 43  1  0  0  0  0
 15 44  1  0  0  0  0
 16 17  1  0  0  0  0
 16 45  1  0  0  0  0
 16 46  1  0  0  0  0
 17 29  1  0  0  0  0
 17 18  1  0  0  0  0
 17 23  1  0  0  0  0
 18 19  1  0  0  0  0
 18 20  1  0  0  0  0
 18 59  1  0  0  0  0
 19 47  1  0  0  0  0
 19 48  1  0  0  0  0
 19 49  1  0  0  0  0
 20 21  1  0  0  0  0
 20 50  1  0  0  0  0
 20 51  1  0  0  0  0
 21 22  1  0  0  0  0
 21 52  1  0  0  0  0
 21 53  1  0  0  0  0
 22 54  1  0  0  0  0
 23 30  1  0  0  0  0
 23 24  1  0  0  0  0
 24 55  1  0  0  0  0
 24 56  1  0  0  0  0
 24 57  1  0  0  0  0
 25 26  1  0  0  0  0
 26 27  2  0  0  0  0
 26 58  1  0  0  0  0
 27 28  1  0  0  0  0
M  CHG  1  18   1
M  END
> <s_m_source_file>
AV-unprocessed.smi

> <i_m_source_file_index>
290

> <i_lp_mmshare_version>
43012

> <i_f3d_flags>
0

> <s_epik_input>
W0NIMl0xW0NIMl1PW0NAQEhdKFtDSDNdKVtDQEBdMShbT0hdKVtDSDJdbihbY0hdbjIpYyhjMjMpbltjSF1uYzNONFtDSDJdW0NIMl1bQ0BIXShbQ0BIXTRbQ0gzXSlOKFtDSDNdKVtDSDJdW0NIMl1bT0hd

> <s_epik_cmdline>
J2VwaWtfcHl0aG9uJywgJy1waCcsICc3LjAnLCAnLXRuJywgJzgnLCAnLW1hJywgJzIwMCcsICctbWV0YWxfYmluZGluZycsICctaW1hZScsICc8aW5maWxlLm1hZT4nLCAnLW9tYWUnLCAnPG91dGZpbGUubWFlPic=

> <r_lp_tautomer_probability>
1

> <r_epik_Ionization_Penalty>
0.0036983

> <r_epik_Ionization_Penalty_Charging>
0.0032725

> <r_epik_Ionization_Penalty_Neutral>
0.000425798

> <r_epik_State_Penalty>
-0

> <r_epik_Charging_Adjusted_Penalty>
0.0032725

> <i_epik_Tot_Q>
1

> <i_epik_Tot_abs_Q>
1

> <r_epik_Metal_State_Penalty>
-0

> <b_epik_Metal_Only>
0

> <s_lp_Force_Field>
OPLS_2005

> <r_lp_Energy>
60.087

> <b_lp_Chiralities_Consistent>
1

> <s_lp_Variant>
AV-unprocessed.smi:290-15

> <Gold.Version>
5.8.1

> <Gold.Id.Protein>
6NUR|6NUR_protein|mol2

> <Gold.PLP.Fitness>
54.1743

> <Gold.PLP.PLP>
-41.5742

> <Gold.PLP.part.hbond>
-4.5464

> <Gold.PLP.part.metal>
0.0000

> <Gold.PLP.part.buried>
-4.6916

> <Gold.PLP.part.nonpolar>
-33.0269

> <Gold.PLP.part.repulsive>
0.1515

> <Gold.PLP.ligand.clash>
0.0000

> <Gold.PLP.ligand.torsion>
0.9579

> <Gold.PLP.Chemscore.Hbond>
4.6660

> <Gold.PLP.Chemscore.CHOScore>
0.0000

> <Gold.PLP.Chemscore.Metal>
0.0000

> <Gold.Chemscore.Hbonds>
donor molecule, donor type, donor heavy atom, donor atom, acceptor molecule, acceptor atom, score
      L1  H    18    59       P1  7948  2.00
      L1  H    22    54       P1 10747  0.52
      P1  H  7997  8009       L1    27  0.50
      P1  H 10752 10763       L1    25  0.52

> <Gold.PLP.Chemscore.Internal.Correction>
0.5180

> <Gold.Rescore>
     Score         DG    S(hbond)    S(metal)    S(lipo)     H(rot)  DE(clash)    DE(int)     intcor
     13.48     -16.10       2.66        0.00      95.04       3.67       0.09       2.53       ----

> <Gold.Chemscore.Fitness>
13.4799

> <Gold.Chemscore.DG>
-16.0952

> <Gold.Chemscore.ZeroCoef>
-5.4800

> <Gold.Chemscore.Hbond>
2.6587

> <Gold.Chemscore.Metal>
0.0000

> <Gold.Chemscore.Lipo>
95.0396

> <Gold.Chemscore.Internal_Hbond>
0.0000

> <Gold.Chemscore.DEClash>
0.0873

> <Gold.Chemscore.DEInternal>
2.5280

> <Gold.Chemscore.Rot>
3.6658

> <Gold.Chemscore.Internal.Correction>
   9.000000E+99

> <Gold.Chemscore.Hbonds>
donor molecule, donor type, donor heavy atom, donor atom, acceptor molecule, acceptor atom, score
      L1  H    18    59       P1  7948  0.25
      L1  H    22    54       P1 10747  0.52
      P1  H  7997  8009       L1    27  0.02
      P1  H 10752 10763       L1    25  0.19

> <Gold.Chemscore.Hbond.Weighted>
-8.8800

> <Gold.Chemscore.Metal.Weighted>
-0.0000

> <Gold.Chemscore.Lipo.Weighted>
-11.1196

> <Gold.Chemscore.Internal_Hbond.Weighted>
0.0000

> <Gold.Chemscore.DEClash.Weighted>
0.0873

> <Gold.Chemscore.DEInternal.Weighted>
2.5280

> <Gold.Chemscore.Rot.Weighted>
9.3844

> <Gold.Chemscore.Internal.Correction.Weighted>
   9.000000E+99

> <Gold.Protein.RotatedTorsions>
[ 6907 6896 6895 6894 ] final    3.64 input  -60.11 | X-H torsion
[ 7974 7965 7964 7962 ] final -175.15 input  175.53 | X-H torsion
[ 8008 7997 7996 7995 ] final -160.24 input   59.86 | X-H torsion
[ 10167 10162 10161 10158 ] final -117.33 input  -65.29 | X-H torsion
[ 10718 10713 10712 10709 ] final   19.85 input   66.30 | X-H torsion
[ 10763 10752 10751 10750 ] final   66.90 input  -60.55 | X-H torsion
[ 11005 11000 10999 10996 ] final  -27.20 input  -57.11 | X-H torsion

> <Gold.Protein.ActiveResidues>
 VAL166  LYS551  ARG553  GLY616  TRP617  ASP618  TYR619  PRO620  LYS621  CYS622 
 ASP623  PHE694  ASN695  SER759  ASP760  ASP761  ALA762  ILE779  LEU786  VAL792 
 PHE793  MET794  SER795  GLU796  ALA797  LYS798  CYS799  TRP800  GLU811  SER814 

> <Gold.Protein.RotatedAtoms>
  151.6283  135.1025  160.0116 H   0  0  0  0  0  0  0  0  0  0  0  0  # atno 6907 bound_to 6896
  152.4120  133.6974  159.6415 H   0  0  0  0  0  0  0  0  0  0  0  0  # atno 6908 bound_to 6896
  150.8010  133.8524  159.3250 H   0  0  0  0  0  0  0  0  0  0  0  0  # atno 6909 bound_to 6896
  144.7129  140.1364  143.6395 H   0  0  0  0  0  0  0  0  0  0  0  0  # atno 7974 bound_to 7965
  155.7744  140.0856  157.2091 H   0  0  0  0  0  0  0  0  0  0  0  0  # atno 8008 bound_to 7997
  154.3994  140.1519  156.3037 H   0  0  0  0  0  0  0  0  0  0  0  0  # atno 8009 bound_to 7997
  155.8715  140.3425  155.5827 H   0  0  0  0  0  0  0  0  0  0  0  0  # atno 8010 bound_to 7997
  140.0695  143.4891  152.1987 H   0  0  0  0  0  0  0  0  0  0  0  0  # atno 10167 bound_to 10162
  157.1162  130.6530  149.5911 H   0  0  0  0  0  0  0  0  0  0  0  0  # atno 10718 bound_to 10713
  153.0161  135.5304  154.6895 H   0  0  0  0  0  0  0  0  0  0  0  0  # atno 10763 bound_to 10752
  154.6034  135.2870  155.0513 H   0  0  0  0  0  0  0  0  0  0  0  0  # atno 10764 bound_to 10752
  154.1562  135.6555  153.5027 H   0  0  0  0  0  0  0  0  0  0  0  0  # atno 10765 bound_to 10752
  140.9098  133.7468  156.0655 H   0  0  0  0  0  0  0  0  0  0  0  0  # atno 11005 bound_to 11000
  145.9241  139.2564  143.1364 LP  0  0  0  0  0  0  0  0  0  0  0  0  # atno 17320 bound_to 7965
  145.9590  140.8850  143.0220 LP  0  0  0  0  0  0  0  0  0  0  0  0  # atno 17321 bound_to 7965
  139.5844  144.7525  151.3556 LP  0  0  0  0  0  0  0  0  0  0  0  0  # atno 17342 bound_to 10162
  140.7132  143.7334  150.7606 LP  0  0  0  0  0  0  0  0  0  0  0  0  # atno 17343 bound_to 10162
  155.9839  130.4861  150.6955 LP  0  0  0  0  0  0  0  0  0  0  0  0  # atno 17370 bound_to 10713
  157.4516  131.0873  151.0840 LP  0  0  0  0  0  0  0  0  0  0  0  0  # atno 17371 bound_to 10713
  140.8125  134.3383  157.5407 LP  0  0  0  0  0  0  0  0  0  0  0  0  # atno 17394 bound_to 11000
  139.8755  134.9262  156.3394 LP  0  0  0  0  0  0  0  0  0  0  0  0  # atno 17395 bound_to 11000

$$$$
