AV-unprocessed.smi:203|AV-procd|sdf|1597|dock3
  -GOLD-   2262019503D 1   1.00000     0.00000
 Structure written by MMmdl.
 57 61  0  0  0  0  0  0  0  0  1 V2000
  147.3081  142.5885  153.7778 O   0  0  0  0  0  0  0  0  0  0  0  0
  148.0241  141.7856  154.3715 C   0  0  0  0  0  0  0  0  0  0  0  0
  148.0760  141.6678  155.8849 C   0  0  0  0  0  0  0  0  0  0  0  0
  149.2631  140.7154  156.1352 C   0  0  2  0  0  0  0  0  0  0  0  0
  150.5063  141.3909  156.7970 C   0  0  1  0  0  0  0  0  0  0  0  0
  150.1324  142.6347  157.6468 C   0  0  0  0  0  0  0  0  0  0  0  0
  151.3687  143.2789  158.2878 C   0  0  0  0  0  0  0  0  0  0  0  0
  152.1263  142.2384  159.1189 C   0  0  0  0  0  0  0  0  0  0  0  0
  152.4900  141.0258  158.2521 C   0  0  0  0  0  0  0  0  0  0  0  0
  151.3059  140.4559  157.6096 N   0  0  0  0  0  0  0  0  0  0  0  0
  151.6078  139.2661  157.0433 C   0  0  0  0  0  0  0  0  0  0  0  0
  152.6934  139.2255  156.2326 N   0  0  0  0  0  0  0  0  0  0  0  0
  153.0481  138.0762  155.6498 C   0  0  0  0  0  0  0  0  0  0  0  0
  152.4653  136.8785  155.7410 N   0  0  0  0  0  0  0  0  0  0  0  0
  151.3683  136.9206  156.5503 C   0  0  0  0  0  0  0  0  0  0  0  0
  150.8691  138.0643  157.2339 C   0  0  0  0  0  0  0  0  0  0  0  0
  149.7320  137.7259  157.9581 N   0  0  0  0  0  0  0  0  0  0  0  0
  149.5705  136.4528  157.7193 C   0  0  0  0  0  0  0  0  0  0  0  0
  150.5081  135.8896  156.8837 N   0  0  0  0  0  0  0  0  0  0  0  0
  150.5662  134.5018  156.4574 C   0  0  0  0  0  0  0  0  0  0  0  0
  149.4911  134.1599  155.4036 C   0  0  1  0  0  0  0  0  0  0  0  0
  149.9544  134.6013  154.1417 O   0  0  0  0  0  0  0  0  0  0  0  0
  149.2091  132.6476  155.2966 C   0  0  1  0  0  0  0  0  0  0  0  0
  148.5311  132.2086  153.9970 C   0  0  0  0  0  0  0  0  0  0  0  0
  148.9165  130.7443  153.8694 C   0  0  0  0  0  0  0  0  0  0  0  0
  150.1310  130.6045  154.7899 C   0  0  0  0  0  0  0  0  0  0  0  0
  150.4302  131.9276  155.2133 O   0  0  0  0  0  0  0  0  0  0  0  0
  149.5669  140.0881  154.7574 C   0  0  0  0  0  0  0  0  0  0  0  0
  148.8483  140.9087  153.8021 N   0  0  0  0  0  0  0  0  0  0  0  0
  148.1961  142.6433  156.3568 H   0  0  0  0  0  0  0  0  0  0  0  0
  147.1427  141.2329  156.2431 H   0  0  0  0  0  0  0  0  0  0  0  0
  148.9215  139.9005  156.7741 H   0  0  0  0  0  0  0  0  0  0  0  0
  151.1517  141.7418  155.9911 H   0  0  0  0  0  0  0  0  0  0  0  0
  149.6223  143.3822  157.0405 H   0  0  0  0  0  0  0  0  0  0  0  0
  149.4352  142.3575  158.4374 H   0  0  0  0  0  0  0  0  0  0  0  0
  152.0215  143.6806  157.5118 H   0  0  0  0  0  0  0  0  0  0  0  0
  151.0725  144.1191  158.9161 H   0  0  0  0  0  0  0  0  0  0  0  0
  153.0283  142.6794  159.5435 H   0  0  0  0  0  0  0  0  0  0  0  0
  151.5096  141.9172  159.9595 H   0  0  0  0  0  0  0  0  0  0  0  0
  153.2091  141.3224  157.4871 H   0  0  0  0  0  0  0  0  0  0  0  0
  152.9781  140.2712  158.8712 H   0  0  0  0  0  0  0  0  0  0  0  0
  153.9249  138.1226  155.0208 H   0  0  0  0  0  0  0  0  0  0  0  0
  148.7567  135.8856  158.1474 H   0  0  0  0  0  0  0  0  0  0  0  0
  151.5632  134.2941  156.0663 H   0  0  0  0  0  0  0  0  0  0  0  0
  150.4461  133.8802  157.3450 H   0  0  0  0  0  0  0  0  0  0  0  0
  148.5688  134.6897  155.6452 H   0  0  0  0  0  0  0  0  0  0  0  0
  149.2794  135.1275  153.7412 H   0  0  0  0  0  0  0  0  0  0  0  0
  148.6277  132.2946  156.1514 H   0  0  0  0  0  0  0  0  0  0  0  0
  147.4514  132.3599  154.0096 H   0  0  0  0  0  0  0  0  0  0  0  0
  148.9403  132.7664  153.1533 H   0  0  0  0  0  0  0  0  0  0  0  0
  148.1086  130.0925  154.2044 H   0  0  0  0  0  0  0  0  0  0  0  0
  149.1517  130.4855  152.8363 H   0  0  0  0  0  0  0  0  0  0  0  0
  149.8855  129.9939  155.6596 H   0  0  0  0  0  0  0  0  0  0  0  0
  150.9873  130.1543  154.2876 H   0  0  0  0  0  0  0  0  0  0  0  0
  150.6314  140.0465  154.5257 H   0  0  0  0  0  0  0  0  0  0  0  0
  149.1805  139.0698  154.7015 H   0  0  0  0  0  0  0  0  0  0  0  0
  148.9701  140.8140  152.8041 H   0  0  0  0  0  0  0  0  0  0  0  0
  1  2  2  0  0  0  0
  2 29  1  0  0  0  0
  2  3  1  0  0  0  0
  3  4  1  0  0  0  0
  3 30  1  0  0  0  0
  3 31  1  0  0  0  0
  4  5  1  0  0  0  0
  4 28  1  0  0  0  0
  4 32  1  0  0  0  0
  5 10  1  0  0  0  0
  5  6  1  0  0  0  0
  5 33  1  0  0  0  0
  6  7  1  0  0  0  0
  6 34  1  0  0  0  0
  6 35  1  0  0  0  0
  7  8  1  0  0  0  0
  7 36  1  0  0  0  0
  7 37  1  0  0  0  0
  8  9  1  0  0  0  0
  8 38  1  0  0  0  0
  8 39  1  0  0  0  0
  9 10  1  0  0  0  0
  9 40  1  0  0  0  0
  9 41  1  0  0  0  0
 10 11  1  0  0  0  0
 11 16  1  0  0  0  0
 11 12  2  0  0  0  0
 12 13  1  0  0  0  0
 13 14  2  0  0  0  0
 13 42  1  0  0  0  0
 14 15  1  0  0  0  0
 15 19  1  0  0  0  0
 15 16  2  0  0  0  0
 16 17  1  0  0  0  0
 17 18  2  0  0  0  0
 18 19  1  0  0  0  0
 18 43  1  0  0  0  0
 19 20  1  0  0  0  0
 20 21  1  0  0  0  0
 20 44  1  0  0  0  0
 20 45  1  0  0  0  0
 21 22  1  0  0  0  0
 21 23  1  0  0  0  0
 21 46  1  0  0  0  0
 22 47  1  0  0  0  0
 23 27  1  0  0  0  0
 23 24  1  0  0  0  0
 23 48  1  0  0  0  0
 24 25  1  0  0  0  0
 24 49  1  0  0  0  0
 24 50  1  0  0  0  0
 25 26  1  0  0  0  0
 25 51  1  0  0  0  0
 25 52  1  0  0  0  0
 26 27  1  0  0  0  0
 26 53  1  0  0  0  0
 26 54  1  0  0  0  0
 28 29  1  0  0  0  0
 28 55  1  0  0  0  0
 28 56  1  0  0  0  0
 29 57  1  0  0  0  0
M  END
> <s_m_source_file>
AV-unprocessed.smi

> <i_m_source_file_index>
203

> <i_lp_mmshare_version>
43012

> <i_f3d_flags>
0

> <s_epik_input>
Tz1DMVtDSDJdW0NASF0oW0NIMl1bTkhdMSlbQ0BASF0yW0NIMl1bQ0gyXVtDSDJdW0NIMl1OMmMobltjSF1uMyljKGMzNCluW2NIXW40W0NIMl1bQ0BIXShbT0hdKVtDQEBIXTVbQ0gyXVtDSDJdW0NIMl1PNQ==

> <s_epik_cmdline>
J2VwaWtfcHl0aG9uJywgJy1waCcsICc3LjAnLCAnLXRuJywgJzgnLCAnLW1hJywgJzIwMCcsICctbWV0YWxfYmluZGluZycsICctaW1hZScsICc8aW5maWxlLm1hZT4nLCAnLW9tYWUnLCAnPG91dGZpbGUubWFlPic=

> <r_lp_tautomer_probability>
1

> <r_epik_Ionization_Penalty>
0.00175146

> <r_epik_Ionization_Penalty_Charging>
0

> <r_epik_Ionization_Penalty_Neutral>
0.00175146

> <r_epik_State_Penalty>
0.00109045

> <r_epik_Charging_Adjusted_Penalty>
0.00109045

> <i_epik_Tot_Q>
0

> <i_epik_Tot_abs_Q>
0

> <r_epik_Metal_State_Penalty>
-0

> <b_epik_Metal_Only>
0

> <s_lp_Force_Field>
OPLS_2005

> <r_lp_Energy>
57.64

> <b_lp_Chiralities_Consistent>
1

> <s_lp_Variant>
AV-unprocessed.smi:203-16

> <Gold.Version>
5.8.1

> <Gold.Id.Protein>
6NUR|6NUR_protein|mol2

> <Gold.PLP.Fitness>
44.6376

> <Gold.PLP.PLP>
-37.3796

> <Gold.PLP.part.hbond>
-5.0649

> <Gold.PLP.part.metal>
0.0000

> <Gold.PLP.part.buried>
-1.1610

> <Gold.PLP.part.nonpolar>
-31.2258

> <Gold.PLP.part.repulsive>
0.3973

> <Gold.PLP.ligand.clash>
0.0000

> <Gold.PLP.ligand.torsion>
1.8203

> <Gold.PLP.Chemscore.Hbond>
3.5300

> <Gold.PLP.Chemscore.CHOScore>
0.0000

> <Gold.PLP.Chemscore.Metal>
0.0000

> <Gold.Chemscore.Hbonds>
donor molecule, donor type, donor heavy atom, donor atom, acceptor molecule, acceptor atom, score
      L1  H    22    47       P1  7948  0.49
      L1  H    29    57       P1  7957  1.00
      P1  H  7997  8009       L1    12  1.00
      P1  H 10752 10765       L1    14  0.86

> <Gold.PLP.Chemscore.Internal.Correction>
0.3086

> <Gold.Rescore>
     Score         DG    S(hbond)    S(metal)    S(lipo)     H(rot)  DE(clash)    DE(int)     intcor
     15.57     -17.53       2.62        0.00      87.75       2.72       0.10       1.87       ----

> <Gold.Chemscore.Fitness>
15.5698

> <Gold.Chemscore.DG>
-17.5306

> <Gold.Chemscore.ZeroCoef>
-5.4800

> <Gold.Chemscore.Hbond>
2.6165

> <Gold.Chemscore.Metal>
0.0000

> <Gold.Chemscore.Lipo>
87.7534

> <Gold.Chemscore.Internal_Hbond>
0.0000

> <Gold.Chemscore.DEClash>
0.0952

> <Gold.Chemscore.DEInternal>
1.8656

> <Gold.Chemscore.Rot>
2.7171

> <Gold.Chemscore.Internal.Correction>
   9.000000E+99

> <Gold.Chemscore.Hbonds>
donor molecule, donor type, donor heavy atom, donor atom, acceptor molecule, acceptor atom, score
      L1  H    22    47       P1  7948  0.13
      L1  H    29    57       P1  7957  0.99
      P1  H  7997  8009       L1    12  0.26
      P1  H 10752 10765       L1    14  0.85

> <Gold.Chemscore.Hbond.Weighted>
-8.7391

> <Gold.Chemscore.Metal.Weighted>
-0.0000

> <Gold.Chemscore.Lipo.Weighted>
-10.2671

> <Gold.Chemscore.Internal_Hbond.Weighted>
0.0000

> <Gold.Chemscore.DEClash.Weighted>
0.0952

> <Gold.Chemscore.DEInternal.Weighted>
1.8656

> <Gold.Chemscore.Rot.Weighted>
6.9557

> <Gold.Chemscore.Internal.Correction.Weighted>
   9.000000E+99

> <Gold.Protein.RotatedTorsions>
[ 6907 6896 6895 6894 ] final  149.12 input  -60.11 | X-H torsion
[ 7974 7965 7964 7962 ] final -121.38 input  175.53 | X-H torsion
[ 8008 7997 7996 7995 ] final -155.93 input   59.86 | X-H torsion
[ 10167 10162 10161 10158 ] final   91.17 input  -65.29 | X-H torsion
[ 10718 10713 10712 10709 ] final    4.50 input   66.30 | X-H torsion
[ 10763 10752 10751 10750 ] final -156.91 input  -60.55 | X-H torsion
[ 11005 11000 10999 10996 ] final   -8.48 input  -57.11 | X-H torsion

> <Gold.Protein.ActiveResidues>
 VAL166  LYS551  ARG553  GLY616  TRP617  ASP618  TYR619  PRO620  LYS621  CYS622 
 ASP623  PHE694  ASN695  SER759  ASP760  ASP761  ALA762  ILE779  LEU786  VAL792 
 PHE793  MET794  SER795  GLU796  ALA797  LYS798  CYS799  TRP800  GLU811  SER814 

> <Gold.Protein.RotatedAtoms>
  152.1323  133.4415  159.4726 H   0  0  0  0  0  0  0  0  0  0  0  0  # atno 6907 bound_to 6896
  150.6879  134.2405  159.4480 H   0  0  0  0  0  0  0  0  0  0  0  0  # atno 6908 bound_to 6896
  152.0290  134.9778  160.0623 H   0  0  0  0  0  0  0  0  0  0  0  0  # atno 6909 bound_to 6896
  145.0410  140.8144  143.4266 H   0  0  0  0  0  0  0  0  0  0  0  0  # atno 7974 bound_to 7965
  155.7094  140.0776  157.2377 H   0  0  0  0  0  0  0  0  0  0  0  0  # atno 8008 bound_to 7997
  154.4061  140.1633  156.2333 H   0  0  0  0  0  0  0  0  0  0  0  0  # atno 8009 bound_to 7997
  155.9296  140.3392  155.6241 H   0  0  0  0  0  0  0  0  0  0  0  0  # atno 8010 bound_to 7997
  139.8401  144.6645  150.9294 H   0  0  0  0  0  0  0  0  0  0  0  0  # atno 10167 bound_to 10162
  156.8935  130.5696  149.5649 H   0  0  0  0  0  0  0  0  0  0  0  0  # atno 10718 bound_to 10713
  154.7677  135.3136  154.8253 H   0  0  0  0  0  0  0  0  0  0  0  0  # atno 10763 bound_to 10752
  153.8997  135.6817  153.4760 H   0  0  0  0  0  0  0  0  0  0  0  0  # atno 10764 bound_to 10752
  153.1285  135.4790  154.9245 H   0  0  0  0  0  0  0  0  0  0  0  0  # atno 10765 bound_to 10752
  140.7239  133.8805  155.8841 H   0  0  0  0  0  0  0  0  0  0  0  0  # atno 11005 bound_to 11000
  145.1648  139.2438  143.5373 LP  0  0  0  0  0  0  0  0  0  0  0  0  # atno 17320 bound_to 7965
  146.3509  140.1384  142.8595 LP  0  0  0  0  0  0  0  0  0  0  0  0  # atno 17321 bound_to 7965
  140.7799  143.3921  151.1293 LP  0  0  0  0  0  0  0  0  0  0  0  0  # atno 17342 bound_to 10162
  139.7568  143.8696  152.3090 LP  0  0  0  0  0  0  0  0  0  0  0  0  # atno 17343 bound_to 10162
  156.0617  130.5668  150.9206 LP  0  0  0  0  0  0  0  0  0  0  0  0  # atno 17370 bound_to 10713
  157.6069  131.0938  150.8863 LP  0  0  0  0  0  0  0  0  0  0  0  0  # atno 17371 bound_to 10713
  140.9980  134.1189  157.4345 LP  0  0  0  0  0  0  0  0  0  0  0  0  # atno 17394 bound_to 11000
  139.8842  135.0060  156.6350 LP  0  0  0  0  0  0  0  0  0  0  0  0  # atno 17395 bound_to 11000

$$$$
