AV-unprocessed.smi:1766|AV-procd|sdf|7137|dock5
  -GOLD-   22720 8373D 1   1.00000     0.00000
 Structure written by MMmdl.
 40 42  0  0  0  0  0  0  0  0  2 V2000
  151.9604  137.6543  154.2686 N   0  0  0  0  0  0  0  0  0  0  0  0
  152.1722  138.6469  155.1365 C   0  0  0  0  0  0  0  0  0  0  0  0
  153.0537  139.4877  154.9710 O   0  0  0  0  0  0  0  0  0  0  0  0
  151.2693  138.7066  156.3708 C   0  0  0  0  0  0  0  0  0  0  0  0
  151.5217  139.9564  157.1606 C   0  0  0  0  0  0  0  0  0  0  0  0
  152.0641  140.0093  158.4120 N   0  3  0  0  0  0  0  0  0  0  0  0
  152.1480  141.3336  158.8400 C   0  0  0  0  0  0  0  0  0  0  0  0
  152.6170  141.8783  160.0314 C   0  0  0  0  0  0  0  0  0  0  0  0
  152.5591  143.2824  160.1510 C   0  0  0  0  0  0  0  0  0  0  0  0
  152.0508  144.0871  159.1107 C   0  0  0  0  0  0  0  0  0  0  0  0
  151.5807  143.5228  157.9063 C   0  0  0  0  0  0  0  0  0  0  0  0
  151.6415  142.1336  157.7963 C   0  0  0  0  0  0  0  0  0  0  0  0
  151.2767  141.2457  156.7774 N   0  0  0  0  0  0  0  0  0  0  0  0
  150.7232  141.7932  155.5275 C   0  0  0  0  0  0  0  0  0  0  0  0
  149.6908  140.8609  154.8637 C   0  0  2  0  0  0  0  0  0  0  0  0
  150.0644  140.6048  153.5240 O   0  0  0  0  0  0  0  0  0  0  0  0
  148.2862  141.4332  154.9707 C   0  0  0  0  0  0  0  0  0  0  0  0
  147.7114  141.6551  156.2407 C   0  0  0  0  0  0  0  0  0  0  0  0
  146.4145  142.1939  156.3486 C   0  0  0  0  0  0  0  0  0  0  0  0
  145.6856  142.5158  155.1876 C   0  0  0  0  0  0  0  0  0  0  0  0
  144.4389  143.0334  155.2918 F   0  0  0  0  0  0  0  0  0  0  0  0
  146.2550  142.3003  153.9181 C   0  0  0  0  0  0  0  0  0  0  0  0
  147.5522  141.7622  153.8094 C   0  0  0  0  0  0  0  0  0  0  0  0
  152.5391  137.5774  153.4445 H   0  0  0  0  0  0  0  0  0  0  0  0
  151.2276  136.9803  154.4395 H   0  0  0  0  0  0  0  0  0  0  0  0
  150.2252  138.6893  156.0566 H   0  0  0  0  0  0  0  0  0  0  0  0
  151.4275  137.8221  156.9870 H   0  0  0  0  0  0  0  0  0  0  0  0
  153.0064  141.2630  160.8296 H   0  0  0  0  0  0  0  0  0  0  0  0
  152.9108  143.7510  161.0588 H   0  0  0  0  0  0  0  0  0  0  0  0
  152.0211  145.1595  159.2391 H   0  0  0  0  0  0  0  0  0  0  0  0
  151.1924  144.1489  157.1166 H   0  0  0  0  0  0  0  0  0  0  0  0
  150.2790  142.7648  155.7469 H   0  0  0  0  0  0  0  0  0  0  0  0
  151.5515  141.9943  154.8484 H   0  0  0  0  0  0  0  0  0  0  0  0
  149.7043  139.8981  155.3759 H   0  0  0  0  0  0  0  0  0  0  0  0
  149.4607  139.9739  153.1618 H   0  0  0  0  0  0  0  0  0  0  0  0
  148.2628  141.4143  157.1378 H   0  0  0  0  0  0  0  0  0  0  0  0
  145.9785  142.3609  157.3226 H   0  0  0  0  0  0  0  0  0  0  0  0
  145.6968  142.5488  153.0274 H   0  0  0  0  0  0  0  0  0  0  0  0
  147.9823  141.6049  152.8311 H   0  0  0  0  0  0  0  0  0  0  0  0
  152.3469  139.1909  158.9361 H   0  0  0  0  0  0  0  0  0  0  0  0
  1  2  1  0  0  0  0
  1 24  1  0  0  0  0
  1 25  1  0  0  0  0
  2  3  2  0  0  0  0
  2  4  1  0  0  0  0
  4  5  1  0  0  0  0
  4 26  1  0  0  0  0
  4 27  1  0  0  0  0
  5 13  1  0  0  0  0
  5  6  2  0  0  0  0
  6  7  1  0  0  0  0
  6 40  1  0  0  0  0
  7 12  2  0  0  0  0
  7  8  1  0  0  0  0
  8  9  2  0  0  0  0
  8 28  1  0  0  0  0
  9 10  1  0  0  0  0
  9 29  1  0  0  0  0
 10 11  2  0  0  0  0
 10 30  1  0  0  0  0
 11 12  1  0  0  0  0
 11 31  1  0  0  0  0
 12 13  1  0  0  0  0
 13 14  1  0  0  0  0
 14 15  1  0  0  0  0
 14 32  1  0  0  0  0
 14 33  1  0  0  0  0
 15 16  1  0  0  0  0
 15 17  1  0  0  0  0
 15 34  1  0  0  0  0
 16 35  1  0  0  0  0
 17 23  1  0  0  0  0
 17 18  2  0  0  0  0
 18 19  1  0  0  0  0
 18 36  1  0  0  0  0
 19 20  2  0  0  0  0
 19 37  1  0  0  0  0
 20 21  1  0  0  0  0
 20 22  1  0  0  0  0
 22 23  2  0  0  0  0
 22 38  1  0  0  0  0
 23 39  1  0  0  0  0
M  CHG  1   6   1
M  END
> <s_m_source_file>
AV-unprocessed.smi

> <i_m_source_file_index>
1766

> <i_lp_mmshare_version>
43012

> <i_f3d_flags>
0

> <s_epik_input>
W2NIXTFbY0hdW2NIXVtjSF1jKGMxMiluKGMobjIpW0NIMl1DKD1PKVtOSDJdKVtDSDJdW0NASF0oW09IXSljM1tjSF1bY0hdYyhGKVtjSF1bY0hdMw==

> <s_epik_cmdline>
J2VwaWtfcHl0aG9uJywgJy1waCcsICc3LjAnLCAnLXRuJywgJzgnLCAnLW1hJywgJzIwMCcsICctbWV0YWxfYmluZGluZycsICctaW1hZScsICc8aW5maWxlLm1hZT4nLCAnLW9tYWUnLCAnPG91dGZpbGUubWFlPic=

> <r_epik_Ionization_Penalty>
1.66646

> <r_epik_Ionization_Penalty_Charging>
1.66645

> <r_epik_Ionization_Penalty_Neutral>
2.12833e-06

> <r_epik_State_Penalty>
1.76975

> <r_epik_Charging_Adjusted_Penalty>
3.43621

> <i_epik_Tot_Q>
1

> <i_epik_Tot_abs_Q>
1

> <r_epik_Metal_State_Penalty>
1.80493

> <b_epik_Metal_Only>
0

> <s_lp_Force_Field>
OPLS_2005

> <r_lp_Energy>
14.4919

> <b_lp_Chiralities_Consistent>
1

> <s_lp_Variant>
AV-unprocessed.smi:1766-3

> <Gold.Version>
5.8.1

> <Gold.Id.Protein>
6NUR|6NUR_protein|mol2

> <Gold.PLP.Fitness>
55.7036

> <Gold.PLP.PLP>
-50.6013

> <Gold.PLP.part.hbond>
-4.8786

> <Gold.PLP.part.metal>
0.0000

> <Gold.PLP.part.buried>
-5.1807

> <Gold.PLP.part.nonpolar>
-40.1964

> <Gold.PLP.part.repulsive>
0.2628

> <Gold.PLP.ligand.clash>
0.0000

> <Gold.PLP.ligand.torsion>
1.2009

> <Gold.PLP.Chemscore.Hbond>
2.4732

> <Gold.PLP.Chemscore.CHOScore>
0.0000

> <Gold.PLP.Chemscore.Metal>
0.0000

> <Gold.Chemscore.Hbonds>
donor molecule, donor type, donor heavy atom, donor atom, acceptor molecule, acceptor atom, score
      L1  H    16    35       P1  7957  0.16
      P1  H  7989  7998       L1    16  0.46
      P1  H  7997  8009       L1     3  1.00
      P1  H  8011  8017       L1    16  0.63

> <Gold.PLP.Chemscore.Internal.Correction>
0.0846

> <Gold.Rescore>
     Score         DG    S(hbond)    S(metal)    S(lipo)     H(rot)  DE(clash)    DE(int)     intcor
     15.52     -17.21       2.06        0.00     108.19       3.05       0.37       1.31       ----

> <Gold.Chemscore.Fitness>
15.5240

> <Gold.Chemscore.DG>
-17.2075

> <Gold.Chemscore.ZeroCoef>
-5.4800

> <Gold.Chemscore.Hbond>
2.0567

> <Gold.Chemscore.Metal>
0.0000

> <Gold.Chemscore.Lipo>
108.1915

> <Gold.Chemscore.Internal_Hbond>
0.0000

> <Gold.Chemscore.DEClash>
0.3733

> <Gold.Chemscore.DEInternal>
1.3102

> <Gold.Chemscore.Rot>
3.0470

> <Gold.Chemscore.Internal.Correction>
   9.000000E+99

> <Gold.Chemscore.Hbonds>
donor molecule, donor type, donor heavy atom, donor atom, acceptor molecule, acceptor atom, score
      L1  H    16    35       P1  7957  0.16
      P1  H  7989  7998       L1    16  0.24
      P1  H  7997  8009       L1     3  1.00
      P1  H  8011  8017       L1    16  0.26

> <Gold.Chemscore.Hbond.Weighted>
-6.8695

> <Gold.Chemscore.Metal.Weighted>
-0.0000

> <Gold.Chemscore.Lipo.Weighted>
-12.6584

> <Gold.Chemscore.Internal_Hbond.Weighted>
0.0000

> <Gold.Chemscore.DEClash.Weighted>
0.3733

> <Gold.Chemscore.DEInternal.Weighted>
1.3102

> <Gold.Chemscore.Rot.Weighted>
7.8004

> <Gold.Chemscore.Internal.Correction.Weighted>
   9.000000E+99

> <Gold.Protein.RotatedTorsions>
[ 6907 6896 6895 6894 ] final  132.86 input  -60.11 | X-H torsion
[ 7974 7965 7964 7962 ] final   -2.57 input  175.53 | X-H torsion
[ 8008 7997 7996 7995 ] final -141.04 input   59.86 | X-H torsion
[ 10167 10162 10161 10158 ] final  -92.30 input  -65.29 | X-H torsion
[ 10718 10713 10712 10709 ] final -116.95 input   66.30 | X-H torsion
[ 10763 10752 10751 10750 ] final  173.43 input  -60.55 | X-H torsion
[ 11005 11000 10999 10996 ] final  135.69 input  -57.11 | X-H torsion

> <Gold.Protein.ActiveResidues>
 VAL166  LYS551  ARG553  GLY616  TRP617  ASP618  TYR619  PRO620  LYS621  CYS622 
 ASP623  PHE694  ASN695  SER759  ASP760  ASP761  ALA762  ILE779  LEU786  VAL792 
 PHE793  MET794  SER795  GLU796  ALA797  LYS798  CYS799  TRP800  GLU811  SER814 

> <Gold.Protein.RotatedAtoms>
  152.3280  133.5926  159.5789 H   0  0  0  0  0  0  0  0  0  0  0  0  # atno 6907 bound_to 6896
  150.7407  133.9911  159.3616 H   0  0  0  0  0  0  0  0  0  0  0  0  # atno 6908 bound_to 6896
  151.7789  135.0767  160.0422 H   0  0  0  0  0  0  0  0  0  0  0  0  # atno 6909 bound_to 6896
  146.2402  140.1591  142.8333 H   0  0  0  0  0  0  0  0  0  0  0  0  # atno 7974 bound_to 7965
  155.4712  140.0553  157.2979 H   0  0  0  0  0  0  0  0  0  0  0  0  # atno 8008 bound_to 7997
  154.4698  140.2035  155.9978 H   0  0  0  0  0  0  0  0  0  0  0  0  # atno 8009 bound_to 7997
  156.1036  140.3215  155.7980 H   0  0  0  0  0  0  0  0  0  0  0  0  # atno 8010 bound_to 7997
  140.3361  143.2967  151.9887 H   0  0  0  0  0  0  0  0  0  0  0  0  # atno 10167 bound_to 10162
  156.1000  130.6164  150.9102 H   0  0  0  0  0  0  0  0  0  0  0  0  # atno 10718 bound_to 10713
  154.4400  135.2762  155.1854 H   0  0  0  0  0  0  0  0  0  0  0  0  # atno 10763 bound_to 10752
  154.3724  135.6105  153.5751 H   0  0  0  0  0  0  0  0  0  0  0  0  # atno 10764 bound_to 10752
  152.9840  135.5860  154.4726 H   0  0  0  0  0  0  0  0  0  0  0  0  # atno 10765 bound_to 10752
  139.9996  134.9483  157.0042 H   0  0  0  0  0  0  0  0  0  0  0  0  # atno 11005 bound_to 11000
  145.0104  140.8709  143.5227 LP  0  0  0  0  0  0  0  0  0  0  0  0  # atno 17320 bound_to 7965
  145.1624  139.2451  143.5385 LP  0  0  0  0  0  0  0  0  0  0  0  0  # atno 17321 bound_to 7965
  139.4848  144.6195  151.7283 LP  0  0  0  0  0  0  0  0  0  0  0  0  # atno 17342 bound_to 10162
  140.5352  144.0667  150.6068 LP  0  0  0  0  0  0  0  0  0  0  0  0  # atno 17343 bound_to 10162
  157.6168  131.0932  150.8696 LP  0  0  0  0  0  0  0  0  0  0  0  0  # atno 17370 bound_to 10713
  156.8826  130.5184  149.5290 LP  0  0  0  0  0  0  0  0  0  0  0  0  # atno 17371 bound_to 10713
  140.4752  134.1345  155.7209 LP  0  0  0  0  0  0  0  0  0  0  0  0  # atno 17394 bound_to 11000
  141.1632  133.8754  157.1790 LP  0  0  0  0  0  0  0  0  0  0  0  0  # atno 17395 bound_to 11000

$$$$
