AV-unprocessed.smi:3146|AV-procd|sdf|11986|dock5
  -GOLD-   2272017393D 1   1.00000     0.00000
 Structure written by MMmdl.
 34 35  0  0  0  0  0  0  0  0  1 V2000
  152.6237  142.3953  162.2090 O   0  0  0  0  0  0  0  0  0  0  0  0
  153.0374  142.4965  161.0523 C   0  0  0  0  0  0  0  0  0  0  0  0
  153.9371  141.3994  160.4593 C   0  0  0  0  0  0  0  0  0  0  0  0
  154.3156  140.3705  161.4365 N   0  0  0  0  0  0  0  0  0  0  0  0
  154.9777  139.2548  160.7783 C   0  0  0  0  0  0  0  0  0  0  0  0
  154.1558  137.9748  160.9889 C   0  0  0  0  0  0  0  0  0  0  0  0
  154.1656  137.5557  162.3771 N   0  0  0  0  0  0  0  0  0  0  0  0
  153.4410  136.5444  162.9725 C   0  0  0  0  0  0  0  0  0  0  0  0
  153.7801  136.5264  164.2950 C   0  0  0  0  0  0  0  0  0  0  0  0
  154.7322  137.5775  164.4143 C   0  0  0  0  0  0  0  0  0  0  0  0
  154.9602  138.1921  163.2648 N   0  0  0  0  0  0  0  0  0  0  0  0
  152.7283  143.5539  160.2730 N   0  0  0  0  0  0  0  0  0  0  0  0
  153.1895  143.7036  158.8940 C   0  0  0  0  0  0  0  0  0  0  0  0
  152.3922  144.8728  158.3157 C   0  0  0  0  0  0  0  0  0  0  0  0
  152.0227  145.7090  159.5329 C   0  0  0  0  0  0  0  0  0  0  0  0
  151.8928  144.6889  160.6646 C   0  0  0  0  0  0  0  0  0  0  0  0
  153.4083  140.9277  159.6297 H   0  0  0  0  0  0  0  0  0  0  0  0
  154.8394  141.8618  160.0564 H   0  0  0  0  0  0  0  0  0  0  0  0
  154.9227  140.7475  162.1506 H   0  0  0  0  0  0  0  0  0  0  0  0
  155.0826  139.4634  159.7125 H   0  0  0  0  0  0  0  0  0  0  0  0
  155.9805  139.1255  161.1885 H   0  0  0  0  0  0  0  0  0  0  0  0
  153.1202  138.1314  160.6832 H   0  0  0  0  0  0  0  0  0  0  0  0
  154.5472  137.1608  160.3765 H   0  0  0  0  0  0  0  0  0  0  0  0
  152.7517  135.9296  162.4120 H   0  0  0  0  0  0  0  0  0  0  0  0
  153.4058  135.8634  165.0609 H   0  0  0  0  0  0  0  0  0  0  0  0
  155.2603  137.9100  165.2960 H   0  0  0  0  0  0  0  0  0  0  0  0
  154.2562  143.9326  158.9001 H   0  0  0  0  0  0  0  0  0  0  0  0
  153.0407  142.7951  158.3081 H   0  0  0  0  0  0  0  0  0  0  0  0
  152.9502  145.4367  157.5677 H   0  0  0  0  0  0  0  0  0  0  0  0
  151.4840  144.4971  157.8423 H   0  0  0  0  0  0  0  0  0  0  0  0
  152.8340  146.4026  159.7576 H   0  0  0  0  0  0  0  0  0  0  0  0
  151.1147  146.2942  159.3847 H   0  0  0  0  0  0  0  0  0  0  0  0
  150.8584  144.3549  160.7588 H   0  0  0  0  0  0  0  0  0  0  0  0
  152.2000  145.1231  161.6168 H   0  0  0  0  0  0  0  0  0  0  0  0
  1  2  2  0  0  0  0
  2  3  1  0  0  0  0
  2 12  1  0  0  0  0
  3  4  1  0  0  0  0
  3 17  1  0  0  0  0
  3 18  1  0  0  0  0
  4  5  1  0  0  0  0
  4 19  1  0  0  0  0
  5  6  1  0  0  0  0
  5 20  1  0  0  0  0
  5 21  1  0  0  0  0
  6  7  1  0  0  0  0
  6 22  1  0  0  0  0
  6 23  1  0  0  0  0
  7 11  1  0  0  0  0
  7  8  1  0  0  0  0
  8  9  2  0  0  0  0
  8 24  1  0  0  0  0
  9 10  1  0  0  0  0
  9 25  1  0  0  0  0
 10 11  2  0  0  0  0
 10 26  1  0  0  0  0
 12 16  1  0  0  0  0
 12 13  1  0  0  0  0
 13 14  1  0  0  0  0
 13 27  1  0  0  0  0
 13 28  1  0  0  0  0
 14 15  1  0  0  0  0
 14 29  1  0  0  0  0
 14 30  1  0  0  0  0
 15 16  1  0  0  0  0
 15 31  1  0  0  0  0
 15 32  1  0  0  0  0
 16 33  1  0  0  0  0
 16 34  1  0  0  0  0
M  END
> <s_m_source_file>
AV-unprocessed.smi

> <i_m_source_file_index>
3146

> <i_lp_mmshare_version>
43012

> <i_f3d_flags>
0

> <s_epik_input>
W0NIMl0xW0NIMl1bQ0gyXVtDSDJdTjFDKD1PKVtDSDJdW05IXVtDSDJdW0NIMl1uMltjSF1bY0hdW2NIXW4y

> <s_epik_cmdline>
J2VwaWtfcHl0aG9uJywgJy1waCcsICc3LjAnLCAnLXRuJywgJzgnLCAnLW1hJywgJzIwMCcsICctbWV0YWxfYmluZGluZycsICctaW1hZScsICc8aW5maWxlLm1hZT4nLCAnLW9tYWUnLCAnPG91dGZpbGUubWFlPic=

> <r_lp_tautomer_probability>
1

> <r_epik_Ionization_Penalty>
0.734549

> <r_epik_Ionization_Penalty_Charging>
0

> <r_epik_Ionization_Penalty_Neutral>
0.734549

> <r_epik_State_Penalty>
0.75825

> <r_epik_Charging_Adjusted_Penalty>
0.75825

> <i_epik_Tot_Q>
0

> <i_epik_Tot_abs_Q>
0

> <r_epik_Metal_State_Penalty>
0.757003

> <b_epik_Metal_Only>
0

> <s_lp_Force_Field>
OPLS_2005

> <r_lp_Energy>
29.6194

> <b_lp_Chiralities_Consistent>
1

> <s_lp_Variant>
AV-unprocessed.smi:3146-2

> <Gold.Version>
5.8.1

> <Gold.Id.Protein>
6NUR|6NUR_protein|mol2

> <Gold.PLP.Fitness>
45.5354

> <Gold.PLP.PLP>
-46.5142

> <Gold.PLP.part.hbond>
0.0000

> <Gold.PLP.part.metal>
0.0000

> <Gold.PLP.part.buried>
-4.6943

> <Gold.PLP.part.nonpolar>
-41.8592

> <Gold.PLP.part.repulsive>
0.0914

> <Gold.PLP.ligand.clash>
0.0000

> <Gold.PLP.ligand.torsion>
0.4935

> <Gold.PLP.Chemscore.Hbond>
0.0000

> <Gold.PLP.Chemscore.CHOScore>
0.0000

> <Gold.PLP.Chemscore.Metal>
0.0000

> <Gold.PLP.Chemscore.Internal.Correction>
0.0082

> <Gold.Rescore>
     Score         DG    S(hbond)    S(metal)    S(lipo)     H(rot)  DE(clash)    DE(int)     intcor
     12.47     -13.09       0.00        0.00     105.00       1.82       0.04       0.58       ----

> <Gold.Chemscore.Fitness>
12.4688

> <Gold.Chemscore.DG>
-13.0935

> <Gold.Chemscore.ZeroCoef>
-5.4800

> <Gold.Chemscore.Hbond>
0.0000

> <Gold.Chemscore.Metal>
0.0000

> <Gold.Chemscore.Lipo>
104.9957

> <Gold.Chemscore.Internal_Hbond>
0.0000

> <Gold.Chemscore.DEClash>
0.0421

> <Gold.Chemscore.DEInternal>
0.5825

> <Gold.Chemscore.Rot>
1.8246

> <Gold.Chemscore.Internal.Correction>
   9.000000E+99

> <Gold.Chemscore.Hbond.Weighted>
-0.0000

> <Gold.Chemscore.Metal.Weighted>
-0.0000

> <Gold.Chemscore.Lipo.Weighted>
-12.2845

> <Gold.Chemscore.Internal_Hbond.Weighted>
0.0000

> <Gold.Chemscore.DEClash.Weighted>
0.0421

> <Gold.Chemscore.DEInternal.Weighted>
0.5825

> <Gold.Chemscore.Rot.Weighted>
4.6710

> <Gold.Chemscore.Internal.Correction.Weighted>
   9.000000E+99

> <Gold.Protein.RotatedTorsions>
[ 6907 6896 6895 6894 ] final  -78.54 input  -60.11 | X-H torsion
[ 7974 7965 7964 7962 ] final -113.26 input  175.53 | X-H torsion
[ 8008 7997 7996 7995 ] final  148.90 input   59.86 | X-H torsion
[ 10167 10162 10161 10158 ] final  -30.60 input  -65.29 | X-H torsion
[ 10718 10713 10712 10709 ] final  144.00 input   66.30 | X-H torsion
[ 10763 10752 10751 10750 ] final  -95.96 input  -60.55 | X-H torsion
[ 11005 11000 10999 10996 ] final -138.89 input  -57.11 | X-H torsion

> <Gold.Protein.ActiveResidues>
 VAL166  LYS551  ARG553  GLY616  TRP617  ASP618  TYR619  PRO620  LYS621  CYS622 
 ASP623  PHE694  ASN695  SER759  ASP760  ASP761  ALA762  ILE779  LEU786  VAL792 
 PHE793  MET794  SER795  GLU796  ALA797  LYS798  CYS799  TRP800  GLU811  SER814 

> <Gold.Protein.RotatedAtoms>
  150.6970  134.4256  159.5224 H   0  0  0  0  0  0  0  0  0  0  0  0  # atno 6907 bound_to 6896
  152.1991  134.8601  160.0519 H   0  0  0  0  0  0  0  0  0  0  0  0  # atno 6908 bound_to 6896
  151.9527  133.3636  159.4043 H   0  0  0  0  0  0  0  0  0  0  0  0  # atno 6909 bound_to 6896
  145.1342  140.8741  143.3740 H   0  0  0  0  0  0  0  0  0  0  0  0  # atno 7974 bound_to 7965
  156.2775  140.2116  156.5772 H   0  0  0  0  0  0  0  0  0  0  0  0  # atno 8008 bound_to 7997
  154.7088  140.0514  157.0553 H   0  0  0  0  0  0  0  0  0  0  0  0  # atno 8009 bound_to 7997
  155.0634  140.3169  155.4656 H   0  0  0  0  0  0  0  0  0  0  0  0  # atno 8010 bound_to 7997
  140.7247  143.3836  151.1556 H   0  0  0  0  0  0  0  0  0  0  0  0  # atno 10167 bound_to 10162
  157.3624  131.0967  151.0903 H   0  0  0  0  0  0  0  0  0  0  0  0  # atno 10718 bound_to 10713
  154.7196  135.5101  153.8791 H   0  0  0  0  0  0  0  0  0  0  0  0  # atno 10763 bound_to 10752
  153.0850  135.6643  153.9975 H   0  0  0  0  0  0  0  0  0  0  0  0  # atno 10764 bound_to 10752
  153.9801  135.3030  155.3400 H   0  0  0  0  0  0  0  0  0  0  0  0  # atno 10765 bound_to 10752
  140.8572  134.2213  157.4728 H   0  0  0  0  0  0  0  0  0  0  0  0  # atno 11005 bound_to 11000
  145.0602  139.3111  143.5884 LP  0  0  0  0  0  0  0  0  0  0  0  0  # atno 17320 bound_to 7965
  146.3511  140.0042  142.8673 LP  0  0  0  0  0  0  0  0  0  0  0  0  # atno 17321 bound_to 7965
  139.7429  143.8896  152.3055 LP  0  0  0  0  0  0  0  0  0  0  0  0  # atno 17342 bound_to 10162
  139.8724  144.7061  150.8972 LP  0  0  0  0  0  0  0  0  0  0  0  0  # atno 17343 bound_to 10162
  157.2038  130.6407  149.5748 LP  0  0  0  0  0  0  0  0  0  0  0  0  # atno 17370 bound_to 10713
  155.9740  130.4682  150.6352 LP  0  0  0  0  0  0  0  0  0  0  0  0  # atno 17371 bound_to 10713
  139.8705  134.9712  156.4729 LP  0  0  0  0  0  0  0  0  0  0  0  0  # atno 17394 bound_to 11000
  140.8724  133.7979  155.9378 LP  0  0  0  0  0  0  0  0  0  0  0  0  # atno 17395 bound_to 11000

$$$$
