AV-unprocessed.smi:103|AV-procd|sdf|979|dock3
  -GOLD-   2262017543D 1   1.00000     0.00000
 Structure written by MMmdl.
 53 55  0  0  0  0  0  0  0  0  1 V2000
  156.2840  135.5930  160.8548 C   0  0  0  0  0  0  0  0  0  0  0  0
  155.0382  135.4155  159.9968 C   0  0  0  0  0  0  0  0  0  0  0  0
  154.4589  134.3322  159.9177 O   0  0  0  0  0  0  0  0  0  0  0  0
  154.6829  136.5476  159.3734 O   0  0  0  0  0  0  0  0  0  0  0  0
  153.4904  136.5836  158.6068 C   0  0  0  0  0  0  0  0  0  0  0  0
  152.5539  137.6505  159.1857 C   0  0  2  0  0  0  0  0  0  0  0  0
  151.2897  137.0438  159.4555 O   0  0  0  0  0  0  0  0  0  0  0  0
  150.2830  137.7651  158.8225 C   0  0  2  0  0  0  0  0  0  0  0  0
  149.2022  136.8218  158.4045 N   0  0  0  0  0  0  0  0  0  0  0  0
  148.1619  136.2858  159.1370 C   0  0  0  0  0  0  0  0  0  0  0  0
  147.8415  136.5425  160.8785 S   0  0  0  0  0  0  0  0  0  0  0  0
  147.1855  134.9015  161.3846 C   0  0  0  0  0  0  0  0  0  0  0  0
  149.1380  136.7696  161.5347 O   0  0  0  0  0  0  0  0  0  0  0  0
  146.7702  137.5463  160.9751 O   0  0  0  0  0  0  0  0  0  0  0  0
  147.3902  135.4329  158.5194 N   0  0  0  0  0  0  0  0  0  0  0  0
  147.9013  135.4234  157.2293 C   0  0  0  0  0  0  0  0  0  0  0  0
  147.5449  134.7521  156.0326 C   0  0  0  0  0  0  0  0  0  0  0  0
  146.5102  133.9041  155.9499 N   0  0  0  0  0  0  0  0  0  0  0  0
  148.2828  134.9774  154.9204 N   0  0  0  0  0  0  0  0  0  0  0  0
  149.3208  135.8183  154.9772 C   0  0  0  0  0  0  0  0  0  0  0  0
  149.7761  136.5147  156.0220 N   0  0  0  0  0  0  0  0  0  0  0  0
  149.0298  136.2882  157.1432 C   0  0  0  0  0  0  0  0  0  0  0  0
  150.9342  138.4330  157.6163 C   0  0  1  0  0  0  0  0  0  0  0  0
  150.2018  139.5669  157.1654 O   0  0  0  0  0  0  0  0  0  0  0  0
  150.6743  140.3280  156.1635 C   0  0  0  0  0  0  0  0  0  0  0  0
  149.7587  141.5029  155.8483 C   0  0  0  0  0  0  0  0  0  0  0  0
  151.7136  140.1354  155.5324 O   0  0  0  0  0  0  0  0  0  0  0  0
  152.2854  138.8042  158.2000 C   0  0  1  0  0  0  0  0  0  0  0  0
  152.2110  140.0378  158.9102 O   0  0  0  0  0  0  0  0  0  0  0  0
  153.3016  140.5358  159.5185 C   0  0  0  0  0  0  0  0  0  0  0  0
  152.9896  141.7768  160.3438 C   0  0  0  0  0  0  0  0  0  0  0  0
  154.4413  140.0749  159.4545 O   0  0  0  0  0  0  0  0  0  0  0  0
  157.1321  135.8835  160.2347 H   0  0  0  0  0  0  0  0  0  0  0  0
  156.5323  134.6635  161.3675 H   0  0  0  0  0  0  0  0  0  0  0  0
  156.1204  136.3677  161.6039 H   0  0  0  0  0  0  0  0  0  0  0  0
  153.7131  136.7974  157.5605 H   0  0  0  0  0  0  0  0  0  0  0  0
  153.0104  135.6051  158.6478 H   0  0  0  0  0  0  0  0  0  0  0  0
  152.9674  138.0177  160.1262 H   0  0  0  0  0  0  0  0  0  0  0  0
  149.8450  138.4627  159.5334 H   0  0  0  0  0  0  0  0  0  0  0  0
  146.9428  134.9201  162.4467 H   0  0  0  0  0  0  0  0  0  0  0  0
  147.9347  134.1332  161.1956 H   0  0  0  0  0  0  0  0  0  0  0  0
  146.2861  134.6789  160.8107 H   0  0  0  0  0  0  0  0  0  0  0  0
  145.9445  133.7200  156.7661 H   0  0  0  0  0  0  0  0  0  0  0  0
  146.2955  133.4544  155.0717 H   0  0  0  0  0  0  0  0  0  0  0  0
  149.8654  135.9516  154.0539 H   0  0  0  0  0  0  0  0  0  0  0  0
  151.0809  137.6928  156.8284 H   0  0  0  0  0  0  0  0  0  0  0  0
  148.8030  141.1438  155.4661 H   0  0  0  0  0  0  0  0  0  0  0  0
  150.2106  142.1500  155.0963 H   0  0  0  0  0  0  0  0  0  0  0  0
  149.5744  142.0926  156.7464 H   0  0  0  0  0  0  0  0  0  0  0  0
  153.0370  138.8660  157.4111 H   0  0  0  0  0  0  0  0  0  0  0  0
  152.3515  141.5185  161.1890 H   0  0  0  0  0  0  0  0  0  0  0  0
  152.4744  142.5186  159.7334 H   0  0  0  0  0  0  0  0  0  0  0  0
  153.9078  142.2228  160.7269 H   0  0  0  0  0  0  0  0  0  0  0  0
  1  2  1  0  0  0  0
  1 33  1  0  0  0  0
  1 34  1  0  0  0  0
  1 35  1  0  0  0  0
  2  3  2  0  0  0  0
  2  4  1  0  0  0  0
  4  5  1  0  0  0  0
  5  6  1  0  0  0  0
  5 36  1  0  0  0  0
  5 37  1  0  0  0  0
  6 28  1  0  0  0  0
  6  7  1  0  0  0  0
  6 38  1  0  0  0  0
  7  8  1  0  0  0  0
  8  9  1  0  0  0  0
  8 23  1  0  0  0  0
  8 39  1  0  0  0  0
  9 22  1  0  0  0  0
  9 10  1  0  0  0  0
 10 11  1  0  0  0  0
 10 15  2  0  0  0  0
 11 12  1  0  0  0  0
 11 13  2  0  0  0  0
 11 14  2  0  0  0  0
 12 40  1  0  0  0  0
 12 41  1  0  0  0  0
 12 42  1  0  0  0  0
 15 16  1  0  0  0  0
 16 22  2  0  0  0  0
 16 17  1  0  0  0  0
 17 18  1  0  0  0  0
 17 19  2  0  0  0  0
 18 43  1  0  0  0  0
 18 44  1  0  0  0  0
 19 20  1  0  0  0  0
 20 21  2  0  0  0  0
 20 45  1  0  0  0  0
 21 22  1  0  0  0  0
 23 24  1  0  0  0  0
 23 28  1  0  0  0  0
 23 46  1  0  0  0  0
 24 25  1  0  0  0  0
 25 26  1  0  0  0  0
 25 27  2  0  0  0  0
 26 47  1  0  0  0  0
 26 48  1  0  0  0  0
 26 49  1  0  0  0  0
 28 29  1  0  0  0  0
 28 50  1  0  0  0  0
 29 30  1  0  0  0  0
 30 31  1  0  0  0  0
 30 32  2  0  0  0  0
 31 51  1  0  0  0  0
 31 52  1  0  0  0  0
 31 53  1  0  0  0  0
M  END
> <s_m_source_file>
AV-unprocessed.smi

> <i_m_source_file_index>
103

> <i_lp_mmshare_version>
43012

> <i_f3d_flags>
0

> <s_epik_input>
W0NIM11DKD1PKU9bQ0gyXVtDQEBIXTFPW0NASF0oW0NAQEhdKE9DKD1PKVtDSDNdKVtDQEhdMU9DKD1PKVtDSDNdKW4oYyhuMilTKD1PKSg9TylbQ0gzXSljKGMyMyluW2NIXW5jM1tOSDJd

> <s_epik_cmdline>
J2VwaWtfcHl0aG9uJywgJy1waCcsICc3LjAnLCAnLXRuJywgJzgnLCAnLW1hJywgJzIwMCcsICctbWV0YWxfYmluZGluZycsICctaW1hZScsICc8aW5maWxlLm1hZT4nLCAnLW9tYWUnLCAnPG91dGZpbGUubWFlPic=

> <r_lp_tautomer_probability>
1

> <r_epik_Ionization_Penalty>
1.51338e-05

> <r_epik_Ionization_Penalty_Charging>
0

> <r_epik_Ionization_Penalty_Neutral>
1.51338e-05

> <r_epik_State_Penalty>
-0

> <r_epik_Charging_Adjusted_Penalty>
0

> <i_epik_Tot_Q>
0

> <i_epik_Tot_abs_Q>
0

> <r_epik_Metal_State_Penalty>
-0

> <b_epik_Metal_Only>
0

> <s_epik_Chemistry_Notes>
This compound has an ester and may undergo hydrolysis at high or low pH. This compound contains an acetal/aminal-like group ( X-CH(R)-Y where X, Y are N, S, or O) that may be acid/base labile, releasing an aldehyde.

> <s_lp_Force_Field>
OPLS_2005

> <r_lp_Energy>
16.6357

> <b_lp_Chiralities_Consistent>
1

> <s_lp_Variant>
AV-unprocessed.smi:103-3

> <Gold.Version>
5.8.1

> <Gold.Id.Protein>
6NUR|6NUR_protein|mol2

> <Gold.PLP.Fitness>
46.3102

> <Gold.PLP.PLP>
-29.5962

> <Gold.PLP.part.hbond>
-5.7829

> <Gold.PLP.part.metal>
0.0000

> <Gold.PLP.part.buried>
-2.2187

> <Gold.PLP.part.nonpolar>
-21.6170

> <Gold.PLP.part.repulsive>
0.1634

> <Gold.PLP.ligand.clash>
0.0000

> <Gold.PLP.ligand.torsion>
2.9115

> <Gold.PLP.Chemscore.Hbond>
5.9193

> <Gold.PLP.Chemscore.CHOScore>
0.8464

> <Gold.PLP.Chemscore.Metal>
0.0000

> <Gold.Chemscore.Hbonds>
donor molecule, donor type, donor heavy atom, donor atom, acceptor molecule, acceptor atom, score
      P1  H  6896  6908       L1     7  1.00
      P1  H  6896  6909       L1     3  1.00
      P1  H  6931  6943       L1    13  0.96
      P1  H  6934  6947       L1    14  0.99
      P1  H  7989  7998       L1    27  0.61
      P1  H  7997  8009       L1    32  0.53
      L1  C    20    45       P1  7948  0.94

> <Gold.PLP.Chemscore.Internal.Correction>
2.2400

> <Gold.Rescore>
     Score         DG    S(hbond)    S(metal)    S(lipo)     H(rot)  DE(clash)    DE(int)     intcor
     12.75     -17.46       5.42        0.00      40.65       4.25       0.17       4.54       ----

> <Gold.Chemscore.Fitness>
12.7457

> <Gold.Chemscore.DG>
-17.4572

> <Gold.Chemscore.ZeroCoef>
-5.4800

> <Gold.Chemscore.Hbond>
5.4161

> <Gold.Chemscore.Metal>
0.0000

> <Gold.Chemscore.Lipo>
40.6503

> <Gold.Chemscore.Internal_Hbond>
0.0000

> <Gold.Chemscore.DEClash>
0.1697

> <Gold.Chemscore.DEInternal>
4.5418

> <Gold.Chemscore.Rot>
4.2456

> <Gold.Chemscore.Internal.Correction>
   9.000000E+99

> <Gold.Chemscore.Hbonds>
donor molecule, donor type, donor heavy atom, donor atom, acceptor molecule, acceptor atom, score
      P1  H  6896  6908       L1     7  0.88
      P1  H  6896  6909       L1     3  0.99
      P1  H  6931  6943       L1    13  0.35
      P1  H  6934  6947       L1    14  0.88
      P1  H  7989  7998       L1    27  0.52
      P1  H  7997  8009       L1    32  0.31

> <Gold.Chemscore.Hbond.Weighted>
-18.0898

> <Gold.Chemscore.Metal.Weighted>
-0.0000

> <Gold.Chemscore.Lipo.Weighted>
-4.7561

> <Gold.Chemscore.Internal_Hbond.Weighted>
0.0000

> <Gold.Chemscore.DEClash.Weighted>
0.1697

> <Gold.Chemscore.DEInternal.Weighted>
4.5418

> <Gold.Chemscore.Rot.Weighted>
10.8687

> <Gold.Chemscore.Internal.Correction.Weighted>
   9.000000E+99

> <Gold.Protein.RotatedTorsions>
[ 6907 6896 6895 6894 ] final -149.48 input  -60.11 | X-H torsion
[ 7974 7965 7964 7962 ] final  -67.64 input  175.53 | X-H torsion
[ 8008 7997 7996 7995 ] final  126.14 input   59.86 | X-H torsion
[ 10167 10162 10161 10158 ] final  147.75 input  -65.29 | X-H torsion
[ 10718 10713 10712 10709 ] final  161.59 input   66.30 | X-H torsion
[ 10763 10752 10751 10750 ] final -146.94 input  -60.55 | X-H torsion
[ 11005 11000 10999 10996 ] final   37.83 input  -57.11 | X-H torsion

> <Gold.Protein.ActiveResidues>
 VAL166  LYS551  ARG553  GLY616  TRP617  ASP618  TYR619  PRO620  LYS621  CYS622 
 ASP623  PHE694  ASN695  SER759  ASP760  ASP761  ALA762  ILE779  LEU786  VAL792 
 PHE793  MET794  SER795  GLU796  ALA797  LYS798  CYS799  TRP800  GLU811  SER814 

> <Gold.Protein.RotatedAtoms>
  151.1848  133.4703  159.2594 H   0  0  0  0  0  0  0  0  0  0  0  0  # atno 6907 bound_to 6896
  151.1223  135.0086  159.8554 H   0  0  0  0  0  0  0  0  0  0  0  0  # atno 6908 bound_to 6896
  152.5456  134.1758  159.8668 H   0  0  0  0  0  0  0  0  0  0  0  0  # atno 6909 bound_to 6896
  145.7266  140.9015  143.0602 H   0  0  0  0  0  0  0  0  0  0  0  0  # atno 7974 bound_to 7965
  156.2855  140.2700  156.2062 H   0  0  0  0  0  0  0  0  0  0  0  0  # atno 8008 bound_to 7997
  155.0310  140.0386  157.2492 H   0  0  0  0  0  0  0  0  0  0  0  0  # atno 8009 bound_to 7997
  154.7354  140.2714  155.6424 H   0  0  0  0  0  0  0  0  0  0  0  0  # atno 8010 bound_to 7997
  139.4885  144.5732  151.7015 H   0  0  0  0  0  0  0  0  0  0  0  0  # atno 10167 bound_to 10162
  157.1343  131.0524  151.2356 H   0  0  0  0  0  0  0  0  0  0  0  0  # atno 10718 bound_to 10713
  154.8311  135.3373  154.6740 H   0  0  0  0  0  0  0  0  0  0  0  0  # atno 10763 bound_to 10752
  153.7360  135.6949  153.4982 H   0  0  0  0  0  0  0  0  0  0  0  0  # atno 10764 bound_to 10752
  153.2278  135.4427  155.0513 H   0  0  0  0  0  0  0  0  0  0  0  0  # atno 10765 bound_to 10752
  140.2186  134.3668  155.8015 H   0  0  0  0  0  0  0  0  0  0  0  0  # atno 11005 bound_to 11000
  144.6903  139.9274  143.7470 LP  0  0  0  0  0  0  0  0  0  0  0  0  # atno 17320 bound_to 7965
  146.0576  139.3572  143.0601 LP  0  0  0  0  0  0  0  0  0  0  0  0  # atno 17321 bound_to 7965
  140.5323  144.0711  150.6058 LP  0  0  0  0  0  0  0  0  0  0  0  0  # atno 17342 bound_to 10162
  140.3705  143.2857  152.0283 LP  0  0  0  0  0  0  0  0  0  0  0  0  # atno 17343 bound_to 10162
  157.4364  130.7519  149.7032 LP  0  0  0  0  0  0  0  0  0  0  0  0  # atno 17370 bound_to 10713
  155.9801  130.4033  150.3546 LP  0  0  0  0  0  0  0  0  0  0  0  0  # atno 17371 bound_to 10713
  141.2224  133.7181  156.8538 LP  0  0  0  0  0  0  0  0  0  0  0  0  # atno 17394 bound_to 11000
  140.1874  134.8990  157.3020 LP  0  0  0  0  0  0  0  0  0  0  0  0  # atno 17395 bound_to 11000

$$$$
