AV-unprocessed.smi:3303|AV-procd|sdf|12663|dock6
  -GOLD-   2272019 03D 1   1.00000     0.00000
 Structure written by MMmdl.
 45 46  0  0  0  0  0  0  0  0  3 V2000
  147.0713  139.7572  152.8867 C   0  0  0  0  0  0  0  0  0  0  0  0
  147.3935  140.2509  154.3086 C   0  0  2  0  0  0  0  0  0  0  0  0
  146.1861  140.0820  155.2540 C   0  0  0  0  0  0  0  0  0  0  0  0
  145.0968  141.0502  154.9590 N   0  3  1  0  0  0  0  0  0  0  0  0
  143.8933  140.7572  155.7752 C   0  0  0  0  0  0  0  0  0  0  0  0
  145.5652  142.4659  155.0505 C   0  0  2  0  0  0  0  0  0  0  0  0
  144.4528  143.4820  154.7255 C   0  0  0  0  0  0  0  0  0  0  0  0
  146.7657  142.7011  154.1068 C   0  0  0  0  0  0  0  0  0  0  0  0
  147.9168  141.7026  154.3240 C   0  0  1  0  0  0  0  0  0  0  0  0
  148.6394  141.9950  155.5852 N   0  3  0  0  0  0  0  0  0  0  0  0
  149.9991  141.4245  155.6645 C   0  0  0  0  0  0  0  0  0  0  0  0
  150.3625  141.0532  157.1083 C   0  0  0  0  0  0  0  0  0  0  0  0
  151.0231  142.2050  157.8415 C   0  0  0  0  0  0  0  0  0  0  0  0
  151.5404  142.0328  159.1431 C   0  0  0  0  0  0  0  0  0  0  0  0
  152.1542  143.1342  159.7711 C   0  0  0  0  0  0  0  0  0  0  0  0
  152.2280  144.3567  159.0760 C   0  0  0  0  0  0  0  0  0  0  0  0
  151.6822  144.4249  157.7788 C   0  0  0  0  0  0  0  0  0  0  0  0
  151.0920  143.3748  157.1674 N   0  0  0  0  0  0  0  0  0  0  0  0
  146.2642  140.3284  152.4277 H   0  0  0  0  0  0  0  0  0  0  0  0
  146.7679  138.7099  152.8966 H   0  0  0  0  0  0  0  0  0  0  0  0
  147.9435  139.8348  152.2368 H   0  0  0  0  0  0  0  0  0  0  0  0
  148.1924  139.6034  154.6740 H   0  0  0  0  0  0  0  0  0  0  0  0
  145.8060  139.0623  155.1742 H   0  0  0  0  0  0  0  0  0  0  0  0
  146.5034  140.2095  156.2901 H   0  0  0  0  0  0  0  0  0  0  0  0
  144.0582  141.0096  156.8234 H   0  0  0  0  0  0  0  0  0  0  0  0
  143.6353  139.6990  155.7188 H   0  0  0  0  0  0  0  0  0  0  0  0
  143.0234  141.3072  155.4179 H   0  0  0  0  0  0  0  0  0  0  0  0
  145.8913  142.6454  156.0764 H   0  0  0  0  0  0  0  0  0  0  0  0
  144.8483  144.4980  154.7013 H   0  0  0  0  0  0  0  0  0  0  0  0
  143.6607  143.4771  155.4741 H   0  0  0  0  0  0  0  0  0  0  0  0
  144.0020  143.2820  153.7526 H   0  0  0  0  0  0  0  0  0  0  0  0
  146.4242  142.6288  153.0732 H   0  0  0  0  0  0  0  0  0  0  0  0
  147.1389  143.7201  154.2201 H   0  0  0  0  0  0  0  0  0  0  0  0
  148.6192  141.8238  153.4971 H   0  0  0  0  0  0  0  0  0  0  0  0
  148.7143  142.9971  155.6889 H   0  0  0  0  0  0  0  0  0  0  0  0
  150.0570  140.5399  155.0283 H   0  0  0  0  0  0  0  0  0  0  0  0
  150.7122  142.1527  155.2750 H   0  0  0  0  0  0  0  0  0  0  0  0
  149.4677  140.7533  157.6562 H   0  0  0  0  0  0  0  0  0  0  0  0
  151.0312  140.1913  157.1163 H   0  0  0  0  0  0  0  0  0  0  0  0
  151.4719  141.0818  159.6508 H   0  0  0  0  0  0  0  0  0  0  0  0
  152.5622  143.0426  160.7670 H   0  0  0  0  0  0  0  0  0  0  0  0
  152.6920  145.2221  159.5258 H   0  0  0  0  0  0  0  0  0  0  0  0
  151.7219  145.3460  157.2164 H   0  0  0  0  0  0  0  0  0  0  0  0
  148.0987  141.6318  156.3572 H   0  0  0  0  0  0  0  0  0  0  0  0
  144.8294  140.8937  153.9973 H   0  0  0  0  0  0  0  0  0  0  0  0
  1  2  1  0  0  0  0
  1 19  1  0  0  0  0
  1 20  1  0  0  0  0
  1 21  1  0  0  0  0
  2  9  1  0  0  0  0
  2  3  1  0  0  0  0
  2 22  1  0  0  0  0
  3  4  1  0  0  0  0
  3 23  1  0  0  0  0
  3 24  1  0  0  0  0
  4  5  1  0  0  0  0
  4  6  1  0  0  0  0
  4 45  1  0  0  0  0
  5 25  1  0  0  0  0
  5 26  1  0  0  0  0
  5 27  1  0  0  0  0
  6  7  1  0  0  0  0
  6  8  1  0  0  0  0
  6 28  1  0  0  0  0
  7 29  1  0  0  0  0
  7 30  1  0  0  0  0
  7 31  1  0  0  0  0
  8  9  1  0  0  0  0
  8 32  1  0  0  0  0
  8 33  1  0  0  0  0
  9 10  1  0  0  0  0
  9 34  1  0  0  0  0
 10 11  1  0  0  0  0
 10 35  1  0  0  0  0
 10 44  1  0  0  0  0
 11 12  1  0  0  0  0
 11 36  1  0  0  0  0
 11 37  1  0  0  0  0
 12 13  1  0  0  0  0
 12 38  1  0  0  0  0
 12 39  1  0  0  0  0
 13 18  1  0  0  0  0
 13 14  2  0  0  0  0
 14 15  1  0  0  0  0
 14 40  1  0  0  0  0
 15 16  2  0  0  0  0
 15 41  1  0  0  0  0
 16 17  1  0  0  0  0
 16 42  1  0  0  0  0
 17 18  2  0  0  0  0
 17 43  1  0  0  0  0
M  CHG  1   4   1
M  CHG  1  10   1
M  END
> <s_m_source_file>
AV-unprocessed.smi

> <i_m_source_file_index>
3303

> <i_lp_mmshare_version>
43012

> <i_f3d_flags>
0

> <s_epik_input>
W0NIM11bQ0BASF0xW0NIMl1OKFtDSDNdKVtDQEBIXShbQ0gzXSlbQ0gyXVtDQEhdMVtOSF1bQ0gyXVtDSDJdYzJbY0hdW2NIXVtjSF1bY0hdbjI=

> <s_epik_cmdline>
J2VwaWtfcHl0aG9uJywgJy1waCcsICc3LjAnLCAnLXRuJywgJzgnLCAnLW1hJywgJzIwMCcsICctbWV0YWxfYmluZGluZycsICctaW1hZScsICc8aW5maWxlLm1hZT4nLCAnLW9tYWUnLCAnPG91dGZpbGUubWFlPic=

> <r_epik_Ionization_Penalty>
0.0769462

> <r_epik_Ionization_Penalty_Charging>
0.0759813

> <r_epik_Ionization_Penalty_Neutral>
0.000964829

> <r_epik_State_Penalty>
0.0654373

> <r_epik_Charging_Adjusted_Penalty>
0.141419

> <i_epik_Tot_Q>
2

> <i_epik_Tot_abs_Q>
2

> <r_epik_Metal_State_Penalty>
0.0656439

> <b_epik_Metal_Only>
0

> <s_lp_Force_Field>
OPLS_2005

> <r_lp_Energy>
35.1377

> <b_lp_Chiralities_Consistent>
1

> <s_lp_Variant>
AV-unprocessed.smi:3303-7

> <Gold.Version>
5.8.1

> <Gold.Id.Protein>
6NUR|6NUR_protein|mol2

> <Gold.PLP.Fitness>
50.0970

> <Gold.PLP.PLP>
-39.2332

> <Gold.PLP.part.hbond>
-2.0000

> <Gold.PLP.part.metal>
0.0000

> <Gold.PLP.part.buried>
-3.7255

> <Gold.PLP.part.nonpolar>
-34.2005

> <Gold.PLP.part.repulsive>
0.6629

> <Gold.PLP.ligand.clash>
0.0000

> <Gold.PLP.ligand.torsion>
0.5783

> <Gold.PLP.Chemscore.Hbond>
4.0000

> <Gold.PLP.Chemscore.CHOScore>
0.0000

> <Gold.PLP.Chemscore.Metal>
0.0000

> <Gold.Chemscore.Hbonds>
donor molecule, donor type, donor heavy atom, donor atom, acceptor molecule, acceptor atom, score
      L1  H     4    45       P1 10175  2.00
      L1  H    10    35       P1  8028  2.00

> <Gold.PLP.Chemscore.Internal.Correction>
0.0202

> <Gold.Rescore>
     Score         DG    S(hbond)    S(metal)    S(lipo)     H(rot)  DE(clash)    DE(int)     intcor
     19.86     -20.62       1.94        0.00     104.18       1.37       0.34       0.42       ----

> <Gold.Chemscore.Fitness>
19.8641

> <Gold.Chemscore.DG>
-20.6219

> <Gold.Chemscore.ZeroCoef>
-5.4800

> <Gold.Chemscore.Hbond>
1.9375

> <Gold.Chemscore.Metal>
0.0000

> <Gold.Chemscore.Lipo>
104.1788

> <Gold.Chemscore.Internal_Hbond>
0.0000

> <Gold.Chemscore.DEClash>
0.3351

> <Gold.Chemscore.DEInternal>
0.4227

> <Gold.Chemscore.Rot>
1.3744

> <Gold.Chemscore.Internal.Correction>
   9.000000E+99

> <Gold.Chemscore.Hbonds>
donor molecule, donor type, donor heavy atom, donor atom, acceptor molecule, acceptor atom, score
      L1  H     4    45       P1 10175  0.91
      L1  H    10    35       P1  8028  1.00

> <Gold.Chemscore.Hbond.Weighted>
-6.4714

> <Gold.Chemscore.Metal.Weighted>
-0.0000

> <Gold.Chemscore.Lipo.Weighted>
-12.1889

> <Gold.Chemscore.Internal_Hbond.Weighted>
0.0000

> <Gold.Chemscore.DEClash.Weighted>
0.3351

> <Gold.Chemscore.DEInternal.Weighted>
0.4227

> <Gold.Chemscore.Rot.Weighted>
3.5185

> <Gold.Chemscore.Internal.Correction.Weighted>
   9.000000E+99

> <Gold.Protein.RotatedTorsions>
[ 6907 6896 6895 6894 ] final  -10.88 input  -60.11 | X-H torsion
[ 7974 7965 7964 7962 ] final  -98.36 input  175.53 | X-H torsion
[ 8008 7997 7996 7995 ] final -133.09 input   59.86 | X-H torsion
[ 10167 10162 10161 10158 ] final  -56.07 input  -65.29 | X-H torsion
[ 10718 10713 10712 10709 ] final   18.32 input   66.30 | X-H torsion
[ 10763 10752 10751 10750 ] final  -42.14 input  -60.55 | X-H torsion
[ 11005 11000 10999 10996 ] final    2.46 input  -57.11 | X-H torsion

> <Gold.Protein.ActiveResidues>
 VAL166  LYS551  ARG553  GLY616  TRP617  ASP618  TYR619  PRO620  LYS621  CYS622 
 ASP623  PHE694  ASN695  SER759  ASP760  ASP761  ALA762  ILE779  LEU786  VAL792 
 PHE793  MET794  SER795  GLU796  ALA797  LYS798  CYS799  TRP800  GLU811  SER814 

> <Gold.Protein.RotatedAtoms>
  151.3949  135.0962  159.9537 H   0  0  0  0  0  0  0  0  0  0  0  0  # atno 6907 bound_to 6896
  152.5068  133.8944  159.7420 H   0  0  0  0  0  0  0  0  0  0  0  0  # atno 6908 bound_to 6896
  150.9405  133.6606  159.2820 H   0  0  0  0  0  0  0  0  0  0  0  0  # atno 6909 bound_to 6896
  145.3216  140.9423  143.2712 H   0  0  0  0  0  0  0  0  0  0  0  0  # atno 7974 bound_to 7965
  155.3398  140.0471  157.3044 H   0  0  0  0  0  0  0  0  0  0  0  0  # atno 8008 bound_to 7997
  154.5283  140.2248  155.8814 H   0  0  0  0  0  0  0  0  0  0  0  0  # atno 8009 bound_to 7997
  156.1763  140.3084  155.9071 H   0  0  0  0  0  0  0  0  0  0  0  0  # atno 8010 bound_to 7997
  140.6338  143.2472  151.5171 H   0  0  0  0  0  0  0  0  0  0  0  0  # atno 10167 bound_to 10162
  157.0947  130.6442  149.5857 H   0  0  0  0  0  0  0  0  0  0  0  0  # atno 10718 bound_to 10713
  153.9742  135.6725  153.4748 H   0  0  0  0  0  0  0  0  0  0  0  0  # atno 10763 bound_to 10752
  153.0779  135.4939  154.8438 H   0  0  0  0  0  0  0  0  0  0  0  0  # atno 10764 bound_to 10752
  154.7202  135.3115  154.9021 H   0  0  0  0  0  0  0  0  0  0  0  0  # atno 10765 bound_to 10752
  140.6040  133.9809  155.8145 H   0  0  0  0  0  0  0  0  0  0  0  0  # atno 11005 bound_to 11000
  144.8934  139.4744  143.6667 LP  0  0  0  0  0  0  0  0  0  0  0  0  # atno 17320 bound_to 7965
  146.3080  139.7646  142.9041 LP  0  0  0  0  0  0  0  0  0  0  0  0  # atno 17321 bound_to 7965
  139.5550  144.2298  152.1597 LP  0  0  0  0  0  0  0  0  0  0  0  0  # atno 17342 bound_to 10162
  140.1549  144.5080  150.6666 LP  0  0  0  0  0  0  0  0  0  0  0  0  # atno 17343 bound_to 10162
  155.9889  130.4934  150.7190 LP  0  0  0  0  0  0  0  0  0  0  0  0  # atno 17370 bound_to 10713
  157.4692  131.0891  151.0661 LP  0  0  0  0  0  0  0  0  0  0  0  0  # atno 17371 bound_to 10713
  141.0853  134.0000  157.3323 LP  0  0  0  0  0  0  0  0  0  0  0  0  # atno 17394 bound_to 11000
  139.9220  135.0201  156.8099 LP  0  0  0  0  0  0  0  0  0  0  0  0  # atno 17395 bound_to 11000

$$$$
