AV-unprocessed.smi:113|AV-procd|sdf|1100|dock2
  -GOLD-   2262018213D 1   1.00000     0.00000
 Structure written by MMmdl.
 53 56  0  0  0  0  0  0  0  0  2 V2000
  148.9782  141.6061  154.0473 C   0  0  0  0  0  0  0  0  0  0  0  0
  149.8761  141.3982  155.2483 C   0  0  0  0  0  0  0  0  0  0  0  0
  150.4716  140.1539  155.5314 C   0  0  0  0  0  0  0  0  0  0  0  0
  151.3052  140.0106  156.6683 C   0  0  0  0  0  0  0  0  0  0  0  0
  151.9636  138.6679  157.0035 C   0  0  0  0  0  0  0  0  0  0  0  0
  151.0938  137.5010  157.0482 N   0  0  0  0  0  0  0  0  0  0  0  0
  150.0702  137.4788  158.0251 C   0  0  0  0  0  0  0  0  0  0  0  0
  149.9064  138.4175  158.8076 O   0  0  0  0  0  0  0  0  0  0  0  0
  149.2288  136.2806  158.0161 C   0  0  0  0  0  0  0  0  0  0  0  0
  148.1343  136.1694  159.0665 C   0  0  0  0  0  0  0  0  0  0  0  0
  149.4434  135.3116  157.0927 C   0  0  0  0  0  0  0  0  0  0  0  0
  150.4327  135.3738  156.1210 N   0  0  0  0  0  0  0  0  0  0  0  0
  150.6359  134.3031  155.0641 C   0  0  1  0  0  0  0  0  0  0  0  0
  150.3200  132.8720  155.4906 C   0  0  0  0  0  0  0  0  0  0  0  0
  150.1882  132.2195  154.1299 C   0  0  1  0  0  0  0  0  0  0  0  0
  149.4320  131.0272  154.2106 O   0  0  0  0  0  0  0  0  0  0  0  0
  149.5683  133.3422  153.2646 C   0  0  1  0  0  0  0  0  0  0  0  0
  148.0641  133.2205  152.9538 C   0  0  0  0  0  0  0  0  0  0  0  0
  147.6503  134.2444  152.0730 O   0  0  0  0  0  0  0  0  0  0  0  0
  149.7461  134.5416  154.0206 O   0  0  0  0  0  0  0  0  0  0  0  0
  151.2971  136.4886  156.0845 C   0  0  0  0  0  0  0  0  0  0  0  0
  152.1849  136.5739  155.2319 O   0  0  0  0  0  0  0  0  0  0  0  0
  151.5180  141.1476  157.4955 C   0  0  0  0  0  0  0  0  0  0  0  0
  152.3365  141.0982  158.6494 C   0  0  0  0  0  0  0  0  0  0  0  0
  152.5228  142.2467  159.4438 C   0  0  0  0  0  0  0  0  0  0  0  0
  151.8963  143.4587  159.0982 C   0  0  0  0  0  0  0  0  0  0  0  0
  151.0796  143.5257  157.9543 C   0  0  0  0  0  0  0  0  0  0  0  0
  150.8918  142.3781  157.1582 C   0  0  0  0  0  0  0  0  0  0  0  0
  150.1075  142.4486  156.0619 N   0  3  0  0  0  0  0  0  0  0  0  0
  148.5391  140.6619  153.7234 H   0  0  0  0  0  0  0  0  0  0  0  0
  149.5494  142.0212  153.2167 H   0  0  0  0  0  0  0  0  0  0  0  0
  148.1651  142.2928  154.2848 H   0  0  0  0  0  0  0  0  0  0  0  0
  150.2795  139.3228  154.8694 H   0  0  0  0  0  0  0  0  0  0  0  0
  152.7626  138.4536  156.2919 H   0  0  0  0  0  0  0  0  0  0  0  0
  152.4722  138.7281  157.9670 H   0  0  0  0  0  0  0  0  0  0  0  0
  147.5675  135.2430  158.9691 H   0  0  0  0  0  0  0  0  0  0  0  0
  147.4324  136.9993  158.9753 H   0  0  0  0  0  0  0  0  0  0  0  0
  148.5639  136.1924  160.0685 H   0  0  0  0  0  0  0  0  0  0  0  0
  148.8020  134.4476  157.1513 H   0  0  0  0  0  0  0  0  0  0  0  0
  151.6701  134.4138  154.7301 H   0  0  0  0  0  0  0  0  0  0  0  0
  151.1032  132.4493  156.1206 H   0  0  0  0  0  0  0  0  0  0  0  0
  149.3564  132.8310  155.9996 H   0  0  0  0  0  0  0  0  0  0  0  0
  151.1817  131.9785  153.7487 H   0  0  0  0  0  0  0  0  0  0  0  0
  148.5232  131.2361  154.0540 H   0  0  0  0  0  0  0  0  0  0  0  0
  150.1306  133.4442  152.3353 H   0  0  0  0  0  0  0  0  0  0  0  0
  147.8222  132.2424  152.5370 H   0  0  0  0  0  0  0  0  0  0  0  0
  147.4854  133.3259  153.8718 H   0  0  0  0  0  0  0  0  0  0  0  0
  148.3725  134.8397  151.9426 H   0  0  0  0  0  0  0  0  0  0  0  0
  152.8337  140.1870  158.9458 H   0  0  0  0  0  0  0  0  0  0  0  0
  153.1497  142.1968  160.3222 H   0  0  0  0  0  0  0  0  0  0  0  0
  152.0425  144.3366  159.7107 H   0  0  0  0  0  0  0  0  0  0  0  0
  150.6017  144.4590  157.6938 H   0  0  0  0  0  0  0  0  0  0  0  0
  149.6679  143.3413  155.8380 H   0  0  0  0  0  0  0  0  0  0  0  0
  1  2  1  0  0  0  0
  1 30  1  0  0  0  0
  1 31  1  0  0  0  0
  1 32  1  0  0  0  0
  2 29  1  0  0  0  0
  2  3  2  0  0  0  0
  3  4  1  0  0  0  0
  3 33  1  0  0  0  0
  4  5  1  0  0  0  0
  4 23  2  0  0  0  0
  5  6  1  0  0  0  0
  5 34  1  0  0  0  0
  5 35  1  0  0  0  0
  6 21  1  0  0  0  0
  6  7  1  0  0  0  0
  7  8  2  0  0  0  0
  7  9  1  0  0  0  0
  9 10  1  0  0  0  0
  9 11  2  0  0  0  0
 10 36  1  0  0  0  0
 10 37  1  0  0  0  0
 10 38  1  0  0  0  0
 11 12  1  0  0  0  0
 11 39  1  0  0  0  0
 12 13  1  0  0  0  0
 12 21  1  0  0  0  0
 13 20  1  0  0  0  0
 13 14  1  0  0  0  0
 13 40  1  0  0  0  0
 14 15  1  0  0  0  0
 14 41  1  0  0  0  0
 14 42  1  0  0  0  0
 15 16  1  0  0  0  0
 15 17  1  0  0  0  0
 15 43  1  0  0  0  0
 16 44  1  0  0  0  0
 17 18  1  0  0  0  0
 17 20  1  0  0  0  0
 17 45  1  0  0  0  0
 18 19  1  0  0  0  0
 18 46  1  0  0  0  0
 18 47  1  0  0  0  0
 19 48  1  0  0  0  0
 21 22  2  0  0  0  0
 23 28  1  0  0  0  0
 23 24  1  0  0  0  0
 24 25  2  0  0  0  0
 24 49  1  0  0  0  0
 25 26  1  0  0  0  0
 25 50  1  0  0  0  0
 26 27  2  0  0  0  0
 26 51  1  0  0  0  0
 27 28  1  0  0  0  0
 27 52  1  0  0  0  0
 28 29  2  0  0  0  0
 29 53  1  0  0  0  0
M  CHG  1  29   1
M  END
> <s_m_source_file>
AV-unprocessed.smi

> <i_m_source_file_index>
113

> <i_lp_mmshare_version>
43012

> <i_f3d_flags>
0

> <s_epik_input>
W2NIXTFbY0hdW2NIXVtjSF1jKGMxMiluYyhbQ0gzXSlbY0hdYzJbQ0gyXW4zYyg9TyljKFtDSDNdKVtjSF1uKGMzPU8pW0NAQEhdNFtDSDJdW0NAQEhdKFtPSF0pW0NASF0oTzQpW0NIMl1bT0hd

> <s_epik_cmdline>
J2VwaWtfcHl0aG9uJywgJy1waCcsICc3LjAnLCAnLXRuJywgJzgnLCAnLW1hJywgJzIwMCcsICctbWV0YWxfYmluZGluZycsICctaW1hZScsICc8aW5maWxlLm1hZT4nLCAnLW9tYWUnLCAnPG91dGZpbGUubWFlPic=

> <r_lp_tautomer_probability>
1

> <r_epik_Ionization_Penalty>
0.705471

> <r_epik_Ionization_Penalty_Charging>
0.70547

> <r_epik_Ionization_Penalty_Neutral>
1.19947e-07

> <r_epik_State_Penalty>
0.728574

> <r_epik_Charging_Adjusted_Penalty>
1.43404

> <i_epik_Tot_Q>
1

> <i_epik_Tot_abs_Q>
1

> <r_epik_Metal_State_Penalty>
4.61665

> <b_epik_Metal_Only>
0

> <s_epik_Chemistry_Notes>
This compound contains an acetal/aminal-like group ( X-CH(R)-Y where X, Y are N, S, or O) that may be acid/base labile, releasing an aldehyde.

> <s_lp_Force_Field>
OPLS_2005

> <r_lp_Energy>
46.487

> <b_lp_Chiralities_Consistent>
1

> <s_lp_Variant>
AV-unprocessed.smi:113-10

> <Gold.Version>
5.8.1

> <Gold.Id.Protein>
6NUR|6NUR_protein|mol2

> <Gold.PLP.Fitness>
60.2318

> <Gold.PLP.PLP>
-49.8432

> <Gold.PLP.part.hbond>
-3.4975

> <Gold.PLP.part.metal>
0.0000

> <Gold.PLP.part.buried>
-7.3390

> <Gold.PLP.part.nonpolar>
-40.8760

> <Gold.PLP.part.repulsive>
1.1169

> <Gold.PLP.ligand.clash>
0.0000

> <Gold.PLP.ligand.torsion>
0.8102

> <Gold.PLP.Chemscore.Hbond>
3.9920

> <Gold.PLP.Chemscore.CHOScore>
0.0000

> <Gold.PLP.Chemscore.Metal>
0.0000

> <Gold.Chemscore.Hbonds>
donor molecule, donor type, donor heavy atom, donor atom, acceptor molecule, acceptor atom, score
      L1  H    19    48       P1  7948  0.48
      L1  H    29    53       P1  8028  2.00
      P1  H 10752 10764       L1    22  0.64

> <Gold.PLP.Chemscore.Internal.Correction>
0.0330

> <Gold.Rescore>
     Score         DG    S(hbond)    S(metal)    S(lipo)     H(rot)  DE(clash)    DE(int)     intcor
     19.82     -21.82       2.90        0.00     122.72       3.01       0.21       1.79       ----

> <Gold.Chemscore.Fitness>
19.8152

> <Gold.Chemscore.DG>
-21.8205

> <Gold.Chemscore.ZeroCoef>
-5.4800

> <Gold.Chemscore.Hbond>
2.9020

> <Gold.Chemscore.Metal>
0.0000

> <Gold.Chemscore.Lipo>
122.7223

> <Gold.Chemscore.Internal_Hbond>
0.0000

> <Gold.Chemscore.DEClash>
0.2103

> <Gold.Chemscore.DEInternal>
1.7950

> <Gold.Chemscore.Rot>
3.0120

> <Gold.Chemscore.Internal.Correction>
   9.000000E+99

> <Gold.Chemscore.Hbonds>
donor molecule, donor type, donor heavy atom, donor atom, acceptor molecule, acceptor atom, score
      L1  H    19    48       P1  7948  0.03
      L1  H    29    53       P1  8028  0.98
      P1  H 10752 10764       L1    22  0.63

> <Gold.Chemscore.Hbond.Weighted>
-9.6928

> <Gold.Chemscore.Metal.Weighted>
-0.0000

> <Gold.Chemscore.Lipo.Weighted>
-14.3585

> <Gold.Chemscore.Internal_Hbond.Weighted>
0.0000

> <Gold.Chemscore.DEClash.Weighted>
0.2103

> <Gold.Chemscore.DEInternal.Weighted>
1.7950

> <Gold.Chemscore.Rot.Weighted>
7.7108

> <Gold.Chemscore.Internal.Correction.Weighted>
   9.000000E+99

> <Gold.Protein.RotatedTorsions>
[ 6907 6896 6895 6894 ] final -143.56 input  -60.11 | X-H torsion
[ 7974 7965 7964 7962 ] final    8.25 input  175.53 | X-H torsion
[ 8008 7997 7996 7995 ] final  105.03 input   59.86 | X-H torsion
[ 10167 10162 10161 10158 ] final -134.71 input  -65.29 | X-H torsion
[ 10718 10713 10712 10709 ] final -103.74 input   66.30 | X-H torsion
[ 10763 10752 10751 10750 ] final  -67.52 input  -60.55 | X-H torsion
[ 11005 11000 10999 10996 ] final -104.31 input  -57.11 | X-H torsion

> <Gold.Protein.ActiveResidues>
 VAL166  LYS551  ARG553  GLY616  TRP617  ASP618  TYR619  PRO620  LYS621  CYS622 
 ASP623  PHE694  ASN695  SER759  ASP760  ASP761  ALA762  ILE779  LEU786  VAL792 
 PHE793  MET794  SER795  GLU796  ALA797  LYS798  CYS799  TRP800  GLU811  SER814 

> <Gold.Protein.RotatedAtoms>
  151.1021  133.5236  159.2609 H   0  0  0  0  0  0  0  0  0  0  0  0  # atno 6907 bound_to 6896
  151.2062  135.0462  159.8902 H   0  0  0  0  0  0  0  0  0  0  0  0  # atno 6908 bound_to 6896
  152.5444  134.0843  159.8302 H   0  0  0  0  0  0  0  0  0  0  0  0  # atno 6909 bound_to 6896
  146.2418  139.9961  142.8420 H   0  0  0  0  0  0  0  0  0  0  0  0  # atno 7974 bound_to 7965
  156.1624  140.3137  155.8829 H   0  0  0  0  0  0  0  0  0  0  0  0  # atno 8008 bound_to 7997
  155.3756  140.0484  157.3062 H   0  0  0  0  0  0  0  0  0  0  0  0  # atno 8009 bound_to 7997
  154.5159  140.2181  155.9078 H   0  0  0  0  0  0  0  0  0  0  0  0  # atno 8010 bound_to 7997
  139.8853  143.6789  152.2621 H   0  0  0  0  0  0  0  0  0  0  0  0  # atno 10167 bound_to 10162
  156.0277  130.5481  150.7296 H   0  0  0  0  0  0  0  0  0  0  0  0  # atno 10718 bound_to 10713
  154.3757  135.6085  153.5764 H   0  0  0  0  0  0  0  0  0  0  0  0  # atno 10763 bound_to 10752
  152.9789  135.5849  154.4469 H   0  0  0  0  0  0  0  0  0  0  0  0  # atno 10764 bound_to 10752
  154.4230  135.2846  155.1940 H   0  0  0  0  0  0  0  0  0  0  0  0  # atno 10765 bound_to 10752
  141.1106  133.8712  157.1595 H   0  0  0  0  0  0  0  0  0  0  0  0  # atno 11005 bound_to 11000
  145.1458  140.9596  143.4462 LP  0  0  0  0  0  0  0  0  0  0  0  0  # atno 17320 bound_to 7965
  145.0252  139.3389  143.6052 LP  0  0  0  0  0  0  0  0  0  0  0  0  # atno 17321 bound_to 7965
  139.7159  144.7612  151.1035 LP  0  0  0  0  0  0  0  0  0  0  0  0  # atno 17342 bound_to 10162
  140.7737  143.5270  150.9468 LP  0  0  0  0  0  0  0  0  0  0  0  0  # atno 17343 bound_to 10162
  157.4892  131.0909  151.0447 LP  0  0  0  0  0  0  0  0  0  0  0  0  # atno 17370 bound_to 10713
  157.0859  130.5922  149.5429 LP  0  0  0  0  0  0  0  0  0  0  0  0  # atno 17371 bound_to 10713
  139.9998  135.0032  157.0165 LP  0  0  0  0  0  0  0  0  0  0  0  0  # atno 17394 bound_to 11000
  140.4785  134.1314  155.7213 LP  0  0  0  0  0  0  0  0  0  0  0  0  # atno 17395 bound_to 11000

$$$$
