AV-unprocessed.smi:1419|AV-procd|sdf|5781|dock3
  -GOLD-   22720 5423D 1   1.00000     0.00000
 Structure written by MMmdl.
 41 42  0  0  0  0  0  0  0  0  1 V2000
  150.5069  139.3589  155.1347 C   0  0  0  0  0  0  0  0  0  0  0  0
  150.9286  140.7558  155.6095 C   0  0  1  0  0  0  0  0  0  0  0  0
  149.8411  141.8075  155.2999 C   0  0  0  0  0  0  0  0  0  0  0  0
  148.5681  141.2081  154.9404 N   0  0  0  0  0  0  0  0  0  0  0  0
  148.0580  141.0253  153.6619 C   0  0  0  0  0  0  0  0  0  0  0  0
  146.8197  140.4434  153.8128 C   0  0  0  0  0  0  0  0  0  0  0  0
  146.5519  140.2529  155.1665 N   0  0  0  0  0  0  0  0  0  0  0  0
  147.6338  140.7248  155.7715 C   0  0  0  0  0  0  0  0  0  0  0  0
  151.2027  140.7093  157.0451 N   0  0  0  0  0  0  0  0  0  0  0  0
  152.1630  139.9800  157.6403 C   0  0  0  0  0  0  0  0  0  0  0  0
  152.8531  139.1689  157.0214 O   0  0  0  0  0  0  0  0  0  0  0  0
  152.3468  140.2574  158.9542 N   0  0  0  0  0  0  0  0  0  0  0  0
  151.7909  141.3937  159.7000 C   0  0  0  0  0  0  0  0  0  0  0  0
  152.9313  142.4015  159.9450 C   0  0  1  0  0  0  0  0  0  0  0  0
  152.4689  143.6122  160.7619 C   0  0  0  0  0  0  0  0  0  0  0  0
  153.9792  141.7499  160.6638 O   0  0  0  0  0  0  0  0  0  0  0  0
  154.5088  140.5994  160.0033 C   0  0  1  0  0  0  0  0  0  0  0  0
  155.6272  140.0182  160.8742 C   0  0  0  0  0  0  0  0  0  0  0  0
  153.3695  139.5880  159.7597 C   0  0  0  0  0  0  0  0  0  0  0  0
  150.3185  139.3508  154.0608 H   0  0  0  0  0  0  0  0  0  0  0  0
  149.5963  139.0266  155.6346 H   0  0  0  0  0  0  0  0  0  0  0  0
  151.2861  138.6231  155.3368 H   0  0  0  0  0  0  0  0  0  0  0  0
  151.8369  141.0208  155.0652 H   0  0  0  0  0  0  0  0  0  0  0  0
  149.6768  142.4453  156.1692 H   0  0  0  0  0  0  0  0  0  0  0  0
  150.1622  142.4623  154.4884 H   0  0  0  0  0  0  0  0  0  0  0  0
  148.5985  141.3263  152.7767 H   0  0  0  0  0  0  0  0  0  0  0  0
  146.1060  140.1505  153.0570 H   0  0  0  0  0  0  0  0  0  0  0  0
  147.7433  140.7311  156.8460 H   0  0  0  0  0  0  0  0  0  0  0  0
  150.6776  141.3478  157.6245 H   0  0  0  0  0  0  0  0  0  0  0  0
  150.9528  141.8794  159.2000 H   0  0  0  0  0  0  0  0  0  0  0  0
  151.3936  141.0381  160.6519 H   0  0  0  0  0  0  0  0  0  0  0  0
  153.3225  142.7540  158.9891 H   0  0  0  0  0  0  0  0  0  0  0  0
  151.6759  144.1538  160.2458 H   0  0  0  0  0  0  0  0  0  0  0  0
  153.2920  144.3074  160.9284 H   0  0  0  0  0  0  0  0  0  0  0  0
  152.0877  143.3078  161.7370 H   0  0  0  0  0  0  0  0  0  0  0  0
  154.9373  140.9070  159.0472 H   0  0  0  0  0  0  0  0  0  0  0  0
  156.0717  139.1395  160.4063 H   0  0  0  0  0  0  0  0  0  0  0  0
  155.2514  139.7231  161.8544 H   0  0  0  0  0  0  0  0  0  0  0  0
  156.4206  140.7501  161.0274 H   0  0  0  0  0  0  0  0  0  0  0  0
  152.9368  139.2616  160.7068 H   0  0  0  0  0  0  0  0  0  0  0  0
  153.7612  138.6888  159.2820 H   0  0  0  0  0  0  0  0  0  0  0  0
  1  2  1  0  0  0  0
  1 20  1  0  0  0  0
  1 21  1  0  0  0  0
  1 22  1  0  0  0  0
  2  3  1  0  0  0  0
  2  9  1  0  0  0  0
  2 23  1  0  0  0  0
  3  4  1  0  0  0  0
  3 24  1  0  0  0  0
  3 25  1  0  0  0  0
  4  8  1  0  0  0  0
  4  5  1  0  0  0  0
  5  6  2  0  0  0  0
  5 26  1  0  0  0  0
  6  7  1  0  0  0  0
  6 27  1  0  0  0  0
  7  8  2  0  0  0  0
  8 28  1  0  0  0  0
  9 10  1  0  0  0  0
  9 29  1  0  0  0  0
 10 11  2  0  0  0  0
 10 12  1  0  0  0  0
 12 19  1  0  0  0  0
 12 13  1  0  0  0  0
 13 14  1  0  0  0  0
 13 30  1  0  0  0  0
 13 31  1  0  0  0  0
 14 15  1  0  0  0  0
 14 16  1  0  0  0  0
 14 32  1  0  0  0  0
 15 33  1  0  0  0  0
 15 34  1  0  0  0  0
 15 35  1  0  0  0  0
 16 17  1  0  0  0  0
 17 18  1  0  0  0  0
 17 19  1  0  0  0  0
 17 36  1  0  0  0  0
 18 37  1  0  0  0  0
 18 38  1  0  0  0  0
 18 39  1  0  0  0  0
 19 40  1  0  0  0  0
 19 41  1  0  0  0  0
M  END
> <s_m_source_file>
AV-unprocessed.smi

> <i_m_source_file_index>
1419

> <i_lp_mmshare_version>
43012

> <i_f3d_flags>
0

> <s_epik_input>
W2NIXTFuW2NIXVtjSF1uMVtDSDJdW0NAQEhdKFtDSDNdKVtOSF1DKD1PKU4yW0NIMl1bQ0BASF0oW0NIM10pT1tDQEBIXShbQ0gzXSlbQ0gyXTI=

> <s_epik_cmdline>
J2VwaWtfcHl0aG9uJywgJy1waCcsICc3LjAnLCAnLXRuJywgJzgnLCAnLW1hJywgJzIwMCcsICctbWV0YWxfYmluZGluZycsICctaW1hZScsICc8aW5maWxlLm1hZT4nLCAnLW9tYWUnLCAnPG91dGZpbGUubWFlPic=

> <r_lp_tautomer_probability>
1

> <r_epik_Ionization_Penalty>
0.625124

> <r_epik_Ionization_Penalty_Charging>
0.625093

> <r_epik_Ionization_Penalty_Neutral>
3.17415e-05

> <r_epik_State_Penalty>
0.641455

> <r_epik_Charging_Adjusted_Penalty>
1.26655

> <i_epik_Tot_Q>
0

> <i_epik_Tot_abs_Q>
0

> <r_epik_Metal_State_Penalty>
0.307717

> <b_epik_Metal_Only>
0

> <s_lp_Force_Field>
OPLS_2005

> <r_lp_Energy>
27.9017

> <b_lp_Chiralities_Consistent>
1

> <s_lp_Variant>
AV-unprocessed.smi:1419-8

> <Gold.Version>
5.8.1

> <Gold.Id.Protein>
6NUR|6NUR_protein|mol2

> <Gold.PLP.Fitness>
40.7867

> <Gold.PLP.PLP>
-33.7352

> <Gold.PLP.part.hbond>
-1.0000

> <Gold.PLP.part.metal>
0.0000

> <Gold.PLP.part.buried>
-1.6618

> <Gold.PLP.part.nonpolar>
-30.9429

> <Gold.PLP.part.repulsive>
0.1339

> <Gold.PLP.ligand.clash>
0.0000

> <Gold.PLP.ligand.torsion>
1.0153

> <Gold.PLP.Chemscore.Hbond>
1.0000

> <Gold.PLP.Chemscore.CHOScore>
2.0000

> <Gold.PLP.Chemscore.Metal>
0.0000

> <Gold.Chemscore.Hbonds>
donor molecule, donor type, donor heavy atom, donor atom, acceptor molecule, acceptor atom, score
      P1  H  7997  8009       L1    11  1.00
      L1  C     5    26       P1  7957  1.00
      L1  C     6    27       P1 10175  1.00

> <Gold.PLP.Chemscore.Internal.Correction>
0.0822

> <Gold.Rescore>
     Score         DG    S(hbond)    S(metal)    S(lipo)     H(rot)  DE(clash)    DE(int)     intcor
     12.49     -14.53       0.95        0.00      84.70       1.58       0.34       1.70       ----

> <Gold.Chemscore.Fitness>
12.4883

> <Gold.Chemscore.DG>
-14.5250

> <Gold.Chemscore.ZeroCoef>
-5.4800

> <Gold.Chemscore.Hbond>
0.9497

> <Gold.Chemscore.Metal>
0.0000

> <Gold.Chemscore.Lipo>
84.7003

> <Gold.Chemscore.Internal_Hbond>
0.0000

> <Gold.Chemscore.DEClash>
0.3396

> <Gold.Chemscore.DEInternal>
1.6971

> <Gold.Chemscore.Rot>
1.5769

> <Gold.Chemscore.Internal.Correction>
   9.000000E+99

> <Gold.Chemscore.Hbonds>
donor molecule, donor type, donor heavy atom, donor atom, acceptor molecule, acceptor atom, score
      P1  H  7997  8009       L1    11  0.39

> <Gold.Chemscore.Hbond.Weighted>
-3.1720

> <Gold.Chemscore.Metal.Weighted>
-0.0000

> <Gold.Chemscore.Lipo.Weighted>
-9.9099

> <Gold.Chemscore.Internal_Hbond.Weighted>
0.0000

> <Gold.Chemscore.DEClash.Weighted>
0.3396

> <Gold.Chemscore.DEInternal.Weighted>
1.6971

> <Gold.Chemscore.Rot.Weighted>
4.0369

> <Gold.Chemscore.Internal.Correction.Weighted>
   9.000000E+99

> <Gold.Protein.RotatedTorsions>
[ 6907 6896 6895 6894 ] final   53.53 input  -60.11 | X-H torsion
[ 7974 7965 7964 7962 ] final   69.29 input  175.53 | X-H torsion
[ 8008 7997 7996 7995 ] final  164.14 input   59.86 | X-H torsion
[ 10167 10162 10161 10158 ] final  -59.86 input  -65.29 | X-H torsion
[ 10718 10713 10712 10709 ] final -132.32 input   66.30 | X-H torsion
[ 10763 10752 10751 10750 ] final  115.78 input  -60.55 | X-H torsion
[ 11005 11000 10999 10996 ] final  145.57 input  -57.11 | X-H torsion

> <Gold.Protein.ActiveResidues>
 VAL166  LYS551  ARG553  GLY616  TRP617  ASP618  TYR619  PRO620  LYS621  CYS622 
 ASP623  PHE694  ASN695  SER759  ASP760  ASP761  ALA762  ILE779  LEU786  VAL792 
 PHE793  MET794  SER795  GLU796  ALA797  LYS798  CYS799  TRP800  GLU811  SER814 

> <Gold.Protein.RotatedAtoms>
  152.3346  134.7214  160.0280 H   0  0  0  0  0  0  0  0  0  0  0  0  # atno 6907 bound_to 6896
  151.7620  133.3329  159.3428 H   0  0  0  0  0  0  0  0  0  0  0  0  # atno 6908 bound_to 6896
  150.7443  134.6029  159.6091 H   0  0  0  0  0  0  0  0  0  0  0  0  # atno 6909 bound_to 6896
  145.7922  139.2939  143.1204 H   0  0  0  0  0  0  0  0  0  0  0  0  # atno 7974 bound_to 7965
  156.1903  140.1705  156.8105 H   0  0  0  0  0  0  0  0  0  0  0  0  # atno 8008 bound_to 7997
  154.5463  140.0726  156.8627 H   0  0  0  0  0  0  0  0  0  0  0  0  # atno 8009 bound_to 7997
  155.3115  140.3368  155.4246 H   0  0  0  0  0  0  0  0  0  0  0  0  # atno 8010 bound_to 7997
  140.6108  143.2387  151.5713 H   0  0  0  0  0  0  0  0  0  0  0  0  # atno 10167 bound_to 10162
  156.2334  130.7051  151.0882 H   0  0  0  0  0  0  0  0  0  0  0  0  # atno 10718 bound_to 10713
  153.5274  135.3585  155.2660 H   0  0  0  0  0  0  0  0  0  0  0  0  # atno 10763 bound_to 10752
  154.8730  135.4060  154.3190 H   0  0  0  0  0  0  0  0  0  0  0  0  # atno 10764 bound_to 10752
  153.3873  135.7070  153.6588 H   0  0  0  0  0  0  0  0  0  0  0  0  # atno 10765 bound_to 10752
  140.0723  134.9145  157.1365 H   0  0  0  0  0  0  0  0  0  0  0  0  # atno 11005 bound_to 11000
  145.9965  140.8557  143.0040 LP  0  0  0  0  0  0  0  0  0  0  0  0  # atno 17320 bound_to 7965
  144.6780  140.2291  143.7357 LP  0  0  0  0  0  0  0  0  0  0  0  0  # atno 17321 bound_to 7965
  139.5360  144.2780  152.1252 LP  0  0  0  0  0  0  0  0  0  0  0  0  # atno 17342 bound_to 10162
  140.1979  144.4687  150.6446 LP  0  0  0  0  0  0  0  0  0  0  0  0  # atno 17343 bound_to 10162
  157.7143  131.0718  150.6385 LP  0  0  0  0  0  0  0  0  0  0  0  0  # atno 17370 bound_to 10713
  156.6454  130.4470  149.5738 LP  0  0  0  0  0  0  0  0  0  0  0  0  # atno 17371 bound_to 10713
  140.3609  134.2495  155.7187 LP  0  0  0  0  0  0  0  0  0  0  0  0  # atno 17394 bound_to 11000
  141.2016  133.7958  157.0431 LP  0  0  0  0  0  0  0  0  0  0  0  0  # atno 17395 bound_to 11000

$$$$
