AV-unprocessed.smi:138|AV-procd|sdf|1179|dock10
  -GOLD-   2262018333D 1   1.00000     0.00000
 Structure written by MMmdl.
 52 55  0  0  0  0  0  0  0  0  1 V2000
  150.5768  142.9907  157.2924 C   0  0  0  0  0  0  0  0  0  0  0  0
  151.2036  141.6814  157.6525 C   0  0  0  0  0  0  0  0  0  0  0  0
  150.8231  140.4174  157.3111 C   0  0  0  0  0  0  0  0  0  0  0  0
  151.7401  139.4960  157.8888 C   0  0  0  0  0  0  0  0  0  0  0  0
  151.7545  138.0153  157.7786 C   0  0  0  0  0  0  0  0  0  0  0  0
  152.6090  137.3078  158.3150 O   0  0  0  0  0  0  0  0  0  0  0  0
  150.6245  137.3944  156.9359 C   0  0  0  0  0  0  0  0  0  0  0  0
  149.3385  137.3889  157.6226 N   0  0  0  0  0  0  0  0  0  0  0  0
  148.2123  137.8920  156.9245 C   0  0  0  0  0  0  0  0  0  0  0  0
  148.2952  138.3288  155.7751 O   0  0  0  0  0  0  0  0  0  0  0  0
  146.9608  137.8347  157.6720 C   0  0  0  0  0  0  0  0  0  0  0  0
  145.8299  138.2948  157.1105 F   0  0  0  0  0  0  0  0  0  0  0  0
  146.9164  137.3249  158.9218 C   0  0  0  0  0  0  0  0  0  0  0  0
  148.0321  136.8266  159.5745 N   0  0  0  0  0  0  0  0  0  0  0  0
  147.9531  136.2430  160.9679 C   0  0  2  0  0  0  0  0  0  0  0  0
  147.0012  135.0339  160.9922 C   0  0  0  0  0  0  0  0  0  0  0  0
  146.1116  135.3378  162.1803 C   0  0  0  0  0  0  0  0  0  0  0  0
  146.0929  136.8590  162.1759 C   0  0  0  0  0  0  0  0  0  0  0  0
  147.4369  137.1950  161.8544 O   0  0  0  0  0  0  0  0  0  0  0  0
  149.2873  136.8455  158.9287 C   0  0  0  0  0  0  0  0  0  0  0  0
  150.2897  136.3908  159.4856 O   0  0  0  0  0  0  0  0  0  0  0  0
  152.6659  140.2280  158.5964 C   0  0  0  0  0  0  0  0  0  0  0  0
  153.8452  139.7775  159.4141 C   0  0  0  0  0  0  0  0  0  0  0  0
  152.3466  141.5787  158.4375 N   0  0  0  0  0  0  0  0  0  0  0  0
  153.0795  142.7081  159.0020 C   0  0  0  0  0  0  0  0  0  0  0  0
  153.0089  142.7534  160.4942 C   0  0  0  0  0  0  0  0  0  0  0  0
  153.4539  141.9199  161.4831 C   0  0  0  0  0  0  0  0  0  0  0  0
  153.0782  142.5218  162.7155 C   0  0  0  0  0  0  0  0  0  0  0  0
  152.4325  143.6795  162.3871 C   0  0  0  0  0  0  0  0  0  0  0  0
  152.3831  143.8364  161.0366 O   0  0  0  0  0  0  0  0  0  0  0  0
  149.6411  142.8373  156.7543 H   0  0  0  0  0  0  0  0  0  0  0  0
  151.2359  143.5749  156.6502 H   0  0  0  0  0  0  0  0  0  0  0  0
  150.3537  143.5795  158.1819 H   0  0  0  0  0  0  0  0  0  0  0  0
  149.9677  140.1807  156.6956 H   0  0  0  0  0  0  0  0  0  0  0  0
  150.5026  137.9286  155.9923 H   0  0  0  0  0  0  0  0  0  0  0  0
  150.8624  136.3667  156.6580 H   0  0  0  0  0  0  0  0  0  0  0  0
  145.9576  137.3134  159.4162 H   0  0  0  0  0  0  0  0  0  0  0  0
  148.9799  136.0097  161.2549 H   0  0  0  0  0  0  0  0  0  0  0  0
  146.4106  135.0008  160.0750 H   0  0  0  0  0  0  0  0  0  0  0  0
  147.5551  134.1002  161.0922 H   0  0  0  0  0  0  0  0  0  0  0  0
  145.1175  134.8981  162.0946 H   0  0  0  0  0  0  0  0  0  0  0  0
  146.5724  134.9715  163.0985 H   0  0  0  0  0  0  0  0  0  0  0  0
  145.4167  137.2355  161.4074 H   0  0  0  0  0  0  0  0  0  0  0  0
  145.7933  137.2804  163.1356 H   0  0  0  0  0  0  0  0  0  0  0  0
  153.5546  138.9854  160.1041 H   0  0  0  0  0  0  0  0  0  0  0  0
  154.2770  140.5704  160.0205 H   0  0  0  0  0  0  0  0  0  0  0  0
  154.6318  139.3875  158.7681 H   0  0  0  0  0  0  0  0  0  0  0  0
  154.1167  142.6600  158.6707 H   0  0  0  0  0  0  0  0  0  0  0  0
  152.6927  143.6389  158.5886 H   0  0  0  0  0  0  0  0  0  0  0  0
  153.9834  140.9903  161.3370 H   0  0  0  0  0  0  0  0  0  0  0  0
  153.2574  142.1546  163.7153 H   0  0  0  0  0  0  0  0  0  0  0  0
  151.9694  144.4689  162.9605 H   0  0  0  0  0  0  0  0  0  0  0  0
  1  2  1  0  0  0  0
  1 31  1  0  0  0  0
  1 32  1  0  0  0  0
  1 33  1  0  0  0  0
  2 24  1  0  0  0  0
  2  3  2  0  0  0  0
  3  4  1  0  0  0  0
  3 34  1  0  0  0  0
  4  5  1  0  0  0  0
  4 22  2  0  0  0  0
  5  6  2  0  0  0  0
  5  7  1  0  0  0  0
  7  8  1  0  0  0  0
  7 35  1  0  0  0  0
  7 36  1  0  0  0  0
  8 20  1  0  0  0  0
  8  9  1  0  0  0  0
  9 10  2  0  0  0  0
  9 11  1  0  0  0  0
 11 12  1  0  0  0  0
 11 13  2  0  0  0  0
 13 14  1  0  0  0  0
 13 37  1  0  0  0  0
 14 15  1  0  0  0  0
 14 20  1  0  0  0  0
 15 19  1  0  0  0  0
 15 16  1  0  0  0  0
 15 38  1  0  0  0  0
 16 17  1  0  0  0  0
 16 39  1  0  0  0  0
 16 40  1  0  0  0  0
 17 18  1  0  0  0  0
 17 41  1  0  0  0  0
 17 42  1  0  0  0  0
 18 19  1  0  0  0  0
 18 43  1  0  0  0  0
 18 44  1  0  0  0  0
 20 21  2  0  0  0  0
 22 23  1  0  0  0  0
 22 24  1  0  0  0  0
 23 45  1  0  0  0  0
 23 46  1  0  0  0  0
 23 47  1  0  0  0  0
 24 25  1  0  0  0  0
 25 26  1  0  0  0  0
 25 48  1  0  0  0  0
 25 49  1  0  0  0  0
 26 30  1  0  0  0  0
 26 27  2  0  0  0  0
 27 28  1  0  0  0  0
 27 50  1  0  0  0  0
 28 29  2  0  0  0  0
 28 51  1  0  0  0  0
 29 30  1  0  0  0  0
 29 52  1  0  0  0  0
M  END
> <s_m_source_file>
AV-unprocessed.smi

> <i_m_source_file_index>
138

> <i_lp_mmshare_version>
43012

> <i_f3d_flags>
0

> <s_epik_input>
bzFbY0hdW2NIXVtjSF1jMVtDSDJdbjJjKFtDSDNdKWMoW2NIXWMyW0NIM10pQyg9TylbQ0gyXW4zYyg9TyljKEYpW2NIXW4oYzM9TylbQ0BASF00W0NIMl1bQ0gyXVtDSDJdTzQ=

> <s_epik_cmdline>
J2VwaWtfcHl0aG9uJywgJy1waCcsICc3LjAnLCAnLXRuJywgJzgnLCAnLW1hJywgJzIwMCcsICctbWV0YWxfYmluZGluZycsICctaW1hZScsICc8aW5maWxlLm1hZT4nLCAnLW9tYWUnLCAnPG91dGZpbGUubWFlPic=

> <r_lp_tautomer_probability>
1

> <r_epik_Ionization_Penalty>
5.03107e-09

> <r_epik_Ionization_Penalty_Charging>
5.01743e-09

> <r_epik_Ionization_Penalty_Neutral>
1.36377e-11

> <r_epik_State_Penalty>
-0

> <r_epik_Charging_Adjusted_Penalty>
5.01743e-09

> <i_epik_Tot_Q>
0

> <i_epik_Tot_abs_Q>
0

> <r_epik_Metal_State_Penalty>
-0

> <b_epik_Metal_Only>
0

> <s_epik_Chemistry_Notes>
This compound contains an acetal/aminal-like group ( X-CH(R)-Y where X, Y are N, S, or O) that may be acid/base labile, releasing an aldehyde.

> <s_lp_Force_Field>
OPLS_2005

> <r_lp_Energy>
38.6842

> <b_lp_Chiralities_Consistent>
1

> <s_lp_Variant>
AV-unprocessed.smi:138-1

> <Gold.Version>
5.8.1

> <Gold.Id.Protein>
6NUR|6NUR_protein|mol2

> <Gold.PLP.Fitness>
54.1015

> <Gold.PLP.PLP>
-47.4162

> <Gold.PLP.part.hbond>
-3.0000

> <Gold.PLP.part.metal>
0.0000

> <Gold.PLP.part.buried>
-3.9542

> <Gold.PLP.part.nonpolar>
-40.7514

> <Gold.PLP.part.repulsive>
0.1235

> <Gold.PLP.ligand.clash>
0.0000

> <Gold.PLP.ligand.torsion>
0.3369

> <Gold.PLP.Chemscore.Hbond>
2.4361

> <Gold.PLP.Chemscore.CHOScore>
0.0000

> <Gold.PLP.Chemscore.Metal>
0.0000

> <Gold.Chemscore.Hbonds>
donor molecule, donor type, donor heavy atom, donor atom, acceptor molecule, acceptor atom, score
      P1  H  6896  6907       L1    21  1.00
      P1  H  6931  6943       L1    19  0.74
      P1  H  6934  6947       L1    19  0.71

> <Gold.PLP.Chemscore.Internal.Correction>
0.0507

> <Gold.Rescore>
     Score         DG    S(hbond)    S(metal)    S(lipo)     H(rot)  DE(clash)    DE(int)     intcor
     15.02     -19.76       1.67        0.00     118.06       2.00       0.23       4.50       ----

> <Gold.Chemscore.Fitness>
15.0247

> <Gold.Chemscore.DG>
-19.7565

> <Gold.Chemscore.ZeroCoef>
-5.4800

> <Gold.Chemscore.Hbond>
1.6684

> <Gold.Chemscore.Metal>
0.0000

> <Gold.Chemscore.Lipo>
118.0606

> <Gold.Chemscore.Internal_Hbond>
0.0000

> <Gold.Chemscore.DEClash>
0.2301

> <Gold.Chemscore.DEInternal>
4.5017

> <Gold.Chemscore.Rot>
1.9958

> <Gold.Chemscore.Internal.Correction>
   9.000000E+99

> <Gold.Chemscore.Hbonds>
donor molecule, donor type, donor heavy atom, donor atom, acceptor molecule, acceptor atom, score
      P1  H  6896  6907       L1    21  0.98
      P1  H  6931  6943       L1    19  0.11
      P1  H  6934  6947       L1    19  0.17

> <Gold.Chemscore.Hbond.Weighted>
-5.5726

> <Gold.Chemscore.Metal.Weighted>
-0.0000

> <Gold.Chemscore.Lipo.Weighted>
-13.8131

> <Gold.Chemscore.Internal_Hbond.Weighted>
0.0000

> <Gold.Chemscore.DEClash.Weighted>
0.2301

> <Gold.Chemscore.DEInternal.Weighted>
4.5017

> <Gold.Chemscore.Rot.Weighted>
5.1092

> <Gold.Chemscore.Internal.Correction.Weighted>
   9.000000E+99

> <Gold.Protein.RotatedTorsions>
[ 6907 6896 6895 6894 ] final  -43.66 input  -60.11 | X-H torsion
[ 7974 7965 7964 7962 ] final  -95.43 input  175.53 | X-H torsion
[ 8008 7997 7996 7995 ] final  107.68 input   59.86 | X-H torsion
[ 10167 10162 10161 10158 ] final -137.35 input  -65.29 | X-H torsion
[ 10718 10713 10712 10709 ] final -109.74 input   66.30 | X-H torsion
[ 10763 10752 10751 10750 ] final  -80.78 input  -60.55 | X-H torsion
[ 11005 11000 10999 10996 ] final  130.95 input  -57.11 | X-H torsion

> <Gold.Protein.ActiveResidues>
 VAL166  LYS551  ARG553  GLY616  TRP617  ASP618  TYR619  PRO620  LYS621  CYS622 
 ASP623  PHE694  ASN695  SER759  ASP760  ASP761  ALA762  ILE779  LEU786  VAL792 
 PHE793  MET794  SER795  GLU796  ALA797  LYS798  CYS799  TRP800  GLU811  SER814 

> <Gold.Protein.RotatedAtoms>
  150.9414  134.8823  159.7614 H   0  0  0  0  0  0  0  0  0  0  0  0  # atno 6907 bound_to 6896
  152.5082  134.3936  159.9402 H   0  0  0  0  0  0  0  0  0  0  0  0  # atno 6908 bound_to 6896
  151.3956  133.3734  159.2761 H   0  0  0  0  0  0  0  0  0  0  0  0  # atno 6909 bound_to 6896
  145.3602  140.9490  143.2505 H   0  0  0  0  0  0  0  0  0  0  0  0  # atno 7974 bound_to 7965
  156.1844  140.3090  155.9209 H   0  0  0  0  0  0  0  0  0  0  0  0  # atno 8008 bound_to 7997
  155.3314  140.0461  157.3059 H   0  0  0  0  0  0  0  0  0  0  0  0  # atno 8009 bound_to 7997
  154.5378  140.2252  155.8702 H   0  0  0  0  0  0  0  0  0  0  0  0  # atno 8010 bound_to 7997
  139.8586  143.7106  152.2652 H   0  0  0  0  0  0  0  0  0  0  0  0  # atno 10167 bound_to 10162
  156.0553  130.5779  150.8142 H   0  0  0  0  0  0  0  0  0  0  0  0  # atno 10718 bound_to 10713
  154.5555  135.5649  153.6960 H   0  0  0  0  0  0  0  0  0  0  0  0  # atno 10763 bound_to 10752
  153.0002  135.6261  154.2316 H   0  0  0  0  0  0  0  0  0  0  0  0  # atno 10764 bound_to 10752
  154.2253  135.2868  155.2890 H   0  0  0  0  0  0  0  0  0  0  0  0  # atno 10765 bound_to 10752
  139.9701  134.9580  156.9367 H   0  0  0  0  0  0  0  0  0  0  0  0  # atno 11005 bound_to 11000
  144.8652  139.5118  143.6793 LP  0  0  0  0  0  0  0  0  0  0  0  0  # atno 17320 bound_to 7965
  146.2931  139.7196  142.9147 LP  0  0  0  0  0  0  0  0  0  0  0  0  # atno 17321 bound_to 7965
  139.7396  144.7563  151.0674 LP  0  0  0  0  0  0  0  0  0  0  0  0  # atno 17342 bound_to 10162
  140.7778  143.4989  150.9797 LP  0  0  0  0  0  0  0  0  0  0  0  0  # atno 17343 bound_to 10162
  157.5517  131.0944  150.9685 LP  0  0  0  0  0  0  0  0  0  0  0  0  # atno 17370 bound_to 10713
  156.9944  130.5575  149.5306 LP  0  0  0  0  0  0  0  0  0  0  0  0  # atno 17371 bound_to 10713
  140.5311  134.0813  155.7316 LP  0  0  0  0  0  0  0  0  0  0  0  0  # atno 17394 bound_to 11000
  141.1381  133.9186  157.2388 LP  0  0  0  0  0  0  0  0  0  0  0  0  # atno 17395 bound_to 11000

$$$$
