AV-unprocessed.smi:713|AV-procd|sdf|3479|dock4
  -GOLD-   22720 0473D 1   1.00000     0.00000
 Structure written by MMmdl.
 41 42  0  0  0  0  0  0  0  0  1 V2000
  151.8492  140.2313  158.7848 C   0  0  0  0  0  0  0  0  0  0  0  0
  151.8994  141.3091  157.6823 C   0  0  1  0  0  0  0  0  0  0  0  0
  150.8816  141.0467  156.5624 C   0  0  0  0  0  0  0  0  0  0  0  0
  151.2404  140.5565  155.4910 O   0  0  0  0  0  0  0  0  0  0  0  0
  149.6068  141.3724  156.8297 N   0  0  0  0  0  0  0  0  0  0  0  0
  148.4818  141.1899  155.9185 C   0  0  2  0  0  0  0  0  0  0  0  0
  148.8984  141.6008  154.4950 C   0  0  0  0  0  0  0  0  0  0  0  0
  147.7239  141.4773  153.5128 C   0  0  0  0  0  0  0  0  0  0  0  0
  146.5138  142.2956  153.9879 C   0  0  0  0  0  0  0  0  0  0  0  0
  146.0825  141.8921  155.4100 C   0  0  2  0  0  0  0  0  0  0  0  0
  144.6552  142.9397  155.9483 S   0  0  0  0  0  0  0  0  0  0  0  0
  144.4661  144.1243  154.5516 C   0  0  0  0  0  0  0  0  0  0  0  0
  143.4484  142.1002  155.9974 O   0  0  0  0  0  0  0  0  0  0  0  0
  145.0627  143.6932  157.1440 O   0  0  0  0  0  0  0  0  0  0  0  0
  147.2642  142.0086  156.3933 C   0  0  0  0  0  0  0  0  0  0  0  0
  151.7274  142.6588  158.2089 N   0  0  0  0  0  0  0  0  0  0  0  0
  152.5306  143.3229  159.1141 C   0  0  0  0  0  0  0  0  0  0  0  0
  152.0146  144.5759  159.2813 C   0  0  0  0  0  0  0  0  0  0  0  0
  150.8877  144.5951  158.4138 C   0  0  0  0  0  0  0  0  0  0  0  0
  150.7249  143.4535  157.7661 N   0  0  0  0  0  0  0  0  0  0  0  0
  152.0385  139.2399  158.3720 H   0  0  0  0  0  0  0  0  0  0  0  0
  150.8813  140.1983  159.2866 H   0  0  0  0  0  0  0  0  0  0  0  0
  152.6084  140.4180  159.5449 H   0  0  0  0  0  0  0  0  0  0  0  0
  152.8963  141.2655  157.2399 H   0  0  0  0  0  0  0  0  0  0  0  0
  149.3989  141.7675  157.7352 H   0  0  0  0  0  0  0  0  0  0  0  0
  148.2092  140.1329  155.8972 H   0  0  0  0  0  0  0  0  0  0  0  0
  149.2612  142.6299  154.4969 H   0  0  0  0  0  0  0  0  0  0  0  0
  149.7284  140.9804  154.1541 H   0  0  0  0  0  0  0  0  0  0  0  0
  148.0318  141.8112  152.5216 H   0  0  0  0  0  0  0  0  0  0  0  0
  147.4395  140.4292  153.4114 H   0  0  0  0  0  0  0  0  0  0  0  0
  146.7626  143.3576  153.9674 H   0  0  0  0  0  0  0  0  0  0  0  0
  145.6847  142.1599  153.2928 H   0  0  0  0  0  0  0  0  0  0  0  0
  145.7305  140.8600  155.3922 H   0  0  0  0  0  0  0  0  0  0  0  0
  143.7081  144.8637  154.8091 H   0  0  0  0  0  0  0  0  0  0  0  0
  144.1520  143.5955  153.6526 H   0  0  0  0  0  0  0  0  0  0  0  0
  145.4137  144.6300  154.3686 H   0  0  0  0  0  0  0  0  0  0  0  0
  146.9613  141.6667  157.3823 H   0  0  0  0  0  0  0  0  0  0  0  0
  147.5490  143.0561  156.5021 H   0  0  0  0  0  0  0  0  0  0  0  0
  153.3948  142.8530  159.5599 H   0  0  0  0  0  0  0  0  0  0  0  0
  152.3885  145.3613  159.9213 H   0  0  0  0  0  0  0  0  0  0  0  0
  150.1917  145.4008  158.2320 H   0  0  0  0  0  0  0  0  0  0  0  0
  1  2  1  0  0  0  0
  1 21  1  0  0  0  0
  1 22  1  0  0  0  0
  1 23  1  0  0  0  0
  2  3  1  0  0  0  0
  2 16  1  0  0  0  0
  2 24  1  0  0  0  0
  3  4  2  0  0  0  0
  3  5  1  0  0  0  0
  5  6  1  0  0  0  0
  5 25  1  0  0  0  0
  6 15  1  0  0  0  0
  6  7  1  0  0  0  0
  6 26  1  0  0  0  0
  7  8  1  0  0  0  0
  7 27  1  0  0  0  0
  7 28  1  0  0  0  0
  8  9  1  0  0  0  0
  8 29  1  0  0  0  0
  8 30  1  0  0  0  0
  9 10  1  0  0  0  0
  9 31  1  0  0  0  0
  9 32  1  0  0  0  0
 10 11  1  0  0  0  0
 10 15  1  0  0  0  0
 10 33  1  0  0  0  0
 11 12  1  0  0  0  0
 11 13  2  0  0  0  0
 11 14  2  0  0  0  0
 12 34  1  0  0  0  0
 12 35  1  0  0  0  0
 12 36  1  0  0  0  0
 15 37  1  0  0  0  0
 15 38  1  0  0  0  0
 16 20  1  0  0  0  0
 16 17  1  0  0  0  0
 17 18  2  0  0  0  0
 17 39  1  0  0  0  0
 18 19  1  0  0  0  0
 18 40  1  0  0  0  0
 19 20  2  0  0  0  0
 19 41  1  0  0  0  0
M  END
> <s_m_source_file>
AV-unprocessed.smi

> <i_m_source_file_index>
713

> <i_lp_mmshare_version>
43012

> <i_f3d_flags>
0

> <s_epik_input>
bjFbY0hdW2NIXVtjSF1uMVtDQEhdKFtDSDNdKUMoPU8pW05IXVtDQEBIXTJbQ0gyXVtDSDJdW0NIMl1bQ0BIXShbQ0gyXTIpUyg9TykoPU8pW0NIM10=

> <s_epik_cmdline>
J2VwaWtfcHl0aG9uJywgJy1waCcsICc3LjAnLCAnLXRuJywgJzgnLCAnLW1hJywgJzIwMCcsICctbWV0YWxfYmluZGluZycsICctaW1hZScsICc8aW5maWxlLm1hZT4nLCAnLW9tYWUnLCAnPG91dGZpbGUubWFlPic=

> <r_lp_tautomer_probability>
1

> <r_epik_Ionization_Penalty>
4.07816e-05

> <r_epik_Ionization_Penalty_Charging>
0

> <r_epik_Ionization_Penalty_Neutral>
4.07816e-05

> <r_epik_State_Penalty>
-0

> <r_epik_Charging_Adjusted_Penalty>
0

> <i_epik_Tot_Q>
0

> <i_epik_Tot_abs_Q>
0

> <r_epik_Metal_State_Penalty>
-0

> <b_epik_Metal_Only>
0

> <s_lp_Force_Field>
OPLS_2005

> <r_lp_Energy>
7.30822

> <b_lp_Chiralities_Consistent>
1

> <s_lp_Variant>
AV-unprocessed.smi:713-6

> <Gold.Version>
5.8.1

> <Gold.Id.Protein>
6NUR|6NUR_protein|mol2

> <Gold.PLP.Fitness>
41.2947

> <Gold.PLP.PLP>
-36.9093

> <Gold.PLP.part.hbond>
-1.0000

> <Gold.PLP.part.metal>
0.0000

> <Gold.PLP.part.buried>
-5.8205

> <Gold.PLP.part.nonpolar>
-31.3445

> <Gold.PLP.part.repulsive>
0.9533

> <Gold.PLP.ligand.clash>
0.0000

> <Gold.PLP.ligand.torsion>
0.7278

> <Gold.PLP.Chemscore.Hbond>
0.8640

> <Gold.PLP.Chemscore.CHOScore>
1.0037

> <Gold.PLP.Chemscore.Metal>
0.0000

> <Gold.Chemscore.Hbonds>
donor molecule, donor type, donor heavy atom, donor atom, acceptor molecule, acceptor atom, score
      P1  H  7989  7998       L1     4  0.83
      L1  C    19    41       P1  8029  1.00

> <Gold.PLP.Chemscore.Internal.Correction>
0.2379

> <Gold.Rescore>
     Score         DG    S(hbond)    S(metal)    S(lipo)     H(rot)  DE(clash)    DE(int)     intcor
     10.81     -14.30       0.76        0.00      91.40       1.72       0.10       3.39       ----

> <Gold.Chemscore.Fitness>
10.8088

> <Gold.Chemscore.DG>
-14.2985

> <Gold.Chemscore.ZeroCoef>
-5.4800

> <Gold.Chemscore.Hbond>
0.7606

> <Gold.Chemscore.Metal>
0.0000

> <Gold.Chemscore.Lipo>
91.4016

> <Gold.Chemscore.Internal_Hbond>
0.0000

> <Gold.Chemscore.DEClash>
0.1012

> <Gold.Chemscore.DEInternal>
3.3885

> <Gold.Chemscore.Rot>
1.7249

> <Gold.Chemscore.Internal.Correction>
   9.000000E+99

> <Gold.Chemscore.Hbonds>
donor molecule, donor type, donor heavy atom, donor atom, acceptor molecule, acceptor atom, score
      P1  H  7989  7998       L1     4  0.77

> <Gold.Chemscore.Hbond.Weighted>
-2.5402

> <Gold.Chemscore.Metal.Weighted>
-0.0000

> <Gold.Chemscore.Lipo.Weighted>
-10.6940

> <Gold.Chemscore.Internal_Hbond.Weighted>
0.0000

> <Gold.Chemscore.DEClash.Weighted>
0.1012

> <Gold.Chemscore.DEInternal.Weighted>
3.3885

> <Gold.Chemscore.Rot.Weighted>
4.4157

> <Gold.Chemscore.Internal.Correction.Weighted>
   9.000000E+99

> <Gold.Protein.RotatedTorsions>
[ 6907 6896 6895 6894 ] final  -56.21 input  -60.11 | X-H torsion
[ 7974 7965 7964 7962 ] final -124.02 input  175.53 | X-H torsion
[ 8008 7997 7996 7995 ] final  144.20 input   59.86 | X-H torsion
[ 10167 10162 10161 10158 ] final   26.05 input  -65.29 | X-H torsion
[ 10718 10713 10712 10709 ] final -178.47 input   66.30 | X-H torsion
[ 10763 10752 10751 10750 ] final  -54.38 input  -60.55 | X-H torsion
[ 11005 11000 10999 10996 ] final   22.72 input  -57.11 | X-H torsion

> <Gold.Protein.ActiveResidues>
 VAL166  LYS551  ARG553  GLY616  TRP617  ASP618  TYR619  PRO620  LYS621  CYS622 
 ASP623  PHE694  ASN695  SER759  ASP760  ASP761  ALA762  ILE779  LEU786  VAL792 
 PHE793  MET794  SER795  GLU796  ALA797  LYS798  CYS799  TRP800  GLU811  SER814 

> <Gold.Protein.RotatedAtoms>
  150.8186  134.7382  159.6752 H   0  0  0  0  0  0  0  0  0  0  0  0  # atno 6907 bound_to 6896
  152.4304  134.5786  159.9951 H   0  0  0  0  0  0  0  0  0  0  0  0  # atno 6908 bound_to 6896
  151.5976  133.3322  159.3076 H   0  0  0  0  0  0  0  0  0  0  0  0  # atno 6909 bound_to 6896
  145.0125  140.7918  143.4430 H   0  0  0  0  0  0  0  0  0  0  0  0  # atno 7974 bound_to 7965
  156.2913  140.2242  156.5015 H   0  0  0  0  0  0  0  0  0  0  0  0  # atno 8008 bound_to 7997
  154.7686  140.0468  157.1054 H   0  0  0  0  0  0  0  0  0  0  0  0  # atno 8009 bound_to 7997
  154.9902  140.3089  155.4912 H   0  0  0  0  0  0  0  0  0  0  0  0  # atno 8010 bound_to 7997
  140.5055  144.0245  150.6350 H   0  0  0  0  0  0  0  0  0  0  0  0  # atno 10167 bound_to 10162
  156.8447  130.9698  151.3097 H   0  0  0  0  0  0  0  0  0  0  0  0  # atno 10718 bound_to 10713
  154.1739  135.6454  153.5016 H   0  0  0  0  0  0  0  0  0  0  0  0  # atno 10763 bound_to 10752
  153.0077  135.5390  154.6584 H   0  0  0  0  0  0  0  0  0  0  0  0  # atno 10764 bound_to 10752
  154.5930  135.2936  155.0587 H   0  0  0  0  0  0  0  0  0  0  0  0  # atno 10765 bound_to 10752
  140.3775  134.1956  155.7664 H   0  0  0  0  0  0  0  0  0  0  0  0  # atno 11005 bound_to 11000
  145.2003  139.2255  143.5196 LP  0  0  0  0  0  0  0  0  0  0  0  0  # atno 17320 bound_to 7965
  146.3472  140.1819  142.8589 LP  0  0  0  0  0  0  0  0  0  0  0  0  # atno 17321 bound_to 7965
  140.3553  143.2939  152.0442 LP  0  0  0  0  0  0  0  0  0  0  0  0  # atno 17342 bound_to 10162
  139.4882  144.6343  151.7007 LP  0  0  0  0  0  0  0  0  0  0  0  0  # atno 17343 bound_to 10162
  157.6336  130.8749  149.9319 LP  0  0  0  0  0  0  0  0  0  0  0  0  # atno 17370 bound_to 10713
  156.0861  130.3668  150.0485 LP  0  0  0  0  0  0  0  0  0  0  0  0  # atno 17371 bound_to 10713
  141.1934  133.8151  157.0799 LP  0  0  0  0  0  0  0  0  0  0  0  0  # atno 17394 bound_to 11000
  140.0504  134.9808  157.1125 LP  0  0  0  0  0  0  0  0  0  0  0  0  # atno 17395 bound_to 11000

$$$$
