AV-unprocessed.smi:1817|AV-procd|sdf|7370|dock7
  -GOLD-   22720 9 33D 1   1.00000     0.00000
 Structure written by MMmdl.
 43 44  0  0  0  0  0  0  0  0  2 V2000
  152.9223  137.9661  156.7495 C   0  0  0  0  0  0  0  0  0  0  0  0
  151.5766  137.2382  156.6189 C   0  0  0  0  0  0  0  0  0  0  0  0
  151.3255  136.7916  155.2466 N   0  0  0  0  0  0  0  0  0  0  0  0
  150.1263  135.9680  155.0728 C   0  0  0  0  0  0  0  0  0  0  0  0
  148.8238  136.7742  155.2605 C   0  0  0  0  0  0  0  0  0  0  0  0
  148.7681  137.9238  154.3169 N   0  3  0  0  0  0  0  0  0  0  0  0
  147.5100  138.7378  154.3563 C   0  0  2  0  0  0  0  0  0  0  0  0
  146.6045  138.4327  155.5712 C   0  0  0  0  0  0  0  0  0  0  0  0
  146.6884  138.5934  153.0486 C   0  0  0  0  0  0  0  0  0  0  0  0
  146.7592  137.2537  152.4669 N   0  0  0  0  0  0  0  0  0  0  0  0
  145.7114  136.5044  152.0951 C   0  0  0  0  0  0  0  0  0  0  0  0
  144.5438  136.8824  152.1853 O   0  0  0  0  0  0  0  0  0  0  0  0
  146.1091  135.3159  151.6139 N   0  0  0  0  0  0  0  0  0  0  0  0
  145.3019  134.2675  151.1058 C   0  0  0  0  0  0  0  0  0  0  0  0
  145.8749  133.3716  150.2937 N   0  0  0  0  0  0  0  0  0  0  0  0
  144.9732  132.4042  149.8679 N   0  0  0  0  0  0  0  0  0  0  0  0
  143.7542  132.6083  150.3764 C   0  0  0  0  0  0  0  0  0  0  0  0
  143.5845  134.0058  151.4243 S   0  0  0  0  0  0  0  0  0  0  0  0
  149.9921  138.7533  154.4817 C   0  0  0  0  0  0  0  0  0  0  0  0
  151.2652  137.9028  154.2962 C   0  0  0  0  0  0  0  0  0  0  0  0
  153.0241  138.4001  157.7442 H   0  0  0  0  0  0  0  0  0  0  0  0
  153.0050  138.7781  156.0264 H   0  0  0  0  0  0  0  0  0  0  0  0
  153.7679  137.2944  156.6049 H   0  0  0  0  0  0  0  0  0  0  0  0
  151.5256  136.4131  157.3282 H   0  0  0  0  0  0  0  0  0  0  0  0
  150.7887  137.9372  156.9019 H   0  0  0  0  0  0  0  0  0  0  0  0
  150.1452  135.5459  154.0671 H   0  0  0  0  0  0  0  0  0  0  0  0
  150.1463  135.1161  155.7513 H   0  0  0  0  0  0  0  0  0  0  0  0
  147.9995  136.0880  155.0706 H   0  0  0  0  0  0  0  0  0  0  0  0
  148.7157  137.1232  156.2879 H   0  0  0  0  0  0  0  0  0  0  0  0
  147.8036  139.7845  154.4496 H   0  0  0  0  0  0  0  0  0  0  0  0
  145.6712  138.9936  155.5103 H   0  0  0  0  0  0  0  0  0  0  0  0
  147.0744  138.7204  156.5120 H   0  0  0  0  0  0  0  0  0  0  0  0
  146.3460  137.3747  155.6291 H   0  0  0  0  0  0  0  0  0  0  0  0
  145.6386  138.7949  153.2628 H   0  0  0  0  0  0  0  0  0  0  0  0
  146.9702  139.3409  152.3072 H   0  0  0  0  0  0  0  0  0  0  0  0
  147.6826  136.8595  152.3564 H   0  0  0  0  0  0  0  0  0  0  0  0
  147.1027  135.1384  151.6065 H   0  0  0  0  0  0  0  0  0  0  0  0
  142.9490  131.9317  150.1313 H   0  0  0  0  0  0  0  0  0  0  0  0
  150.0129  139.5526  153.7434 H   0  0  0  0  0  0  0  0  0  0  0  0
  149.9863  139.2408  155.4572 H   0  0  0  0  0  0  0  0  0  0  0  0
  152.1553  138.5246  154.4011 H   0  0  0  0  0  0  0  0  0  0  0  0
  151.2910  137.5006  153.2824 H   0  0  0  0  0  0  0  0  0  0  0  0
  148.8149  137.5217  153.3912 H   0  0  0  0  0  0  0  0  0  0  0  0
  1  2  1  0  0  0  0
  1 21  1  0  0  0  0
  1 22  1  0  0  0  0
  1 23  1  0  0  0  0
  2  3  1  0  0  0  0
  2 24  1  0  0  0  0
  2 25  1  0  0  0  0
  3 20  1  0  0  0  0
  3  4  1  0  0  0  0
  4  5  1  0  0  0  0
  4 26  1  0  0  0  0
  4 27  1  0  0  0  0
  5  6  1  0  0  0  0
  5 28  1  0  0  0  0
  5 29  1  0  0  0  0
  6  7  1  0  0  0  0
  6 19  1  0  0  0  0
  6 43  1  0  0  0  0
  7  8  1  0  0  0  0
  7  9  1  0  0  0  0
  7 30  1  0  0  0  0
  8 31  1  0  0  0  0
  8 32  1  0  0  0  0
  8 33  1  0  0  0  0
  9 10  1  0  0  0  0
  9 34  1  0  0  0  0
  9 35  1  0  0  0  0
 10 11  1  0  0  0  0
 10 36  1  0  0  0  0
 11 12  2  0  0  0  0
 11 13  1  0  0  0  0
 13 14  1  0  0  0  0
 13 37  1  0  0  0  0
 14 18  1  0  0  0  0
 14 15  2  0  0  0  0
 15 16  1  0  0  0  0
 16 17  2  0  0  0  0
 17 18  1  0  0  0  0
 17 38  1  0  0  0  0
 19 20  1  0  0  0  0
 19 39  1  0  0  0  0
 19 40  1  0  0  0  0
 20 41  1  0  0  0  0
 20 42  1  0  0  0  0
M  CHG  1   6   1
M  END
> <s_m_source_file>
AV-unprocessed.smi

> <i_m_source_file_index>
1817

> <i_lp_mmshare_version>
43012

> <i_f3d_flags>
0

> <s_epik_input>
W0NIM11bQ0gyXU4xW0NIMl1bQ0gyXU4oW0NIMl1bQ0gyXTEpW0NASF0oW0NIM10pW0NIMl1bTkhdQyg9TylbTkhdYzJubltjSF1zMg==

> <s_epik_cmdline>
J2VwaWtfcHl0aG9uJywgJy1waCcsICc3LjAnLCAnLXRuJywgJzgnLCAnLW1hJywgJzIwMCcsICctbWV0YWxfYmluZGluZycsICctaW1hZScsICc8aW5maWxlLm1hZT4nLCAnLW9tYWUnLCAnPG91dGZpbGUubWFlPic=

> <r_epik_Ionization_Penalty>
0.153808

> <r_epik_Ionization_Penalty_Charging>
0.148467

> <r_epik_Ionization_Penalty_Neutral>
0.00534086

> <r_epik_State_Penalty>
0.974087

> <r_epik_Charging_Adjusted_Penalty>
1.12255

> <i_epik_Tot_Q>
1

> <i_epik_Tot_abs_Q>
1

> <r_epik_Metal_State_Penalty>
1.30894

> <b_epik_Metal_Only>
0

> <s_lp_Force_Field>
OPLS_2005

> <r_lp_Energy>
26.4186

> <b_lp_Chiralities_Consistent>
1

> <s_lp_Variant>
AV-unprocessed.smi:1817-3

> <Gold.Version>
5.8.1

> <Gold.Id.Protein>
6NUR|6NUR_protein|mol2

> <Gold.PLP.Fitness>
38.5095

> <Gold.PLP.PLP>
-26.8397

> <Gold.PLP.part.hbond>
-3.9715

> <Gold.PLP.part.metal>
0.0000

> <Gold.PLP.part.buried>
-6.4562

> <Gold.PLP.part.nonpolar>
-18.5190

> <Gold.PLP.part.repulsive>
0.7176

> <Gold.PLP.ligand.clash>
0.0000

> <Gold.PLP.ligand.torsion>
1.9274

> <Gold.PLP.Chemscore.Hbond>
4.5217

> <Gold.PLP.Chemscore.CHOScore>
0.6276

> <Gold.PLP.Chemscore.Metal>
0.0000

> <Gold.Chemscore.Hbonds>
donor molecule, donor type, donor heavy atom, donor atom, acceptor molecule, acceptor atom, score
      L1  H     6    43       P1  7948  2.00
      L1  H    10    36       P1  7948  0.91
      L1  H    13    37       P1  7948  0.62
      P1  H 10752 10764       L1     3  0.80
      L1  C    17    38       P1 10952  0.55

> <Gold.PLP.Chemscore.Internal.Correction>
0.0769

> <Gold.Rescore>
     Score         DG    S(hbond)    S(metal)    S(lipo)     H(rot)  DE(clash)    DE(int)     intcor
     14.30     -16.45       2.64        0.00      60.50       1.92       0.03       2.12       ----

> <Gold.Chemscore.Fitness>
14.3001

> <Gold.Chemscore.DG>
-16.4508

> <Gold.Chemscore.ZeroCoef>
-5.4800

> <Gold.Chemscore.Hbond>
2.6366

> <Gold.Chemscore.Metal>
0.0000

> <Gold.Chemscore.Lipo>
60.5007

> <Gold.Chemscore.Internal_Hbond>
0.0000

> <Gold.Chemscore.DEClash>
0.0273

> <Gold.Chemscore.DEInternal>
2.1234

> <Gold.Chemscore.Rot>
1.9196

> <Gold.Chemscore.Internal.Correction>
   9.000000E+99

> <Gold.Chemscore.Hbonds>
donor molecule, donor type, donor heavy atom, donor atom, acceptor molecule, acceptor atom, score
      L1  H     6    43       P1  7948  0.97
      L1  H    10    36       P1  7948  0.87
      L1  H    13    37       P1  7948  0.57
      P1  H 10752 10764       L1     3  0.14

> <Gold.Chemscore.Hbond.Weighted>
-8.8063

> <Gold.Chemscore.Metal.Weighted>
-0.0000

> <Gold.Chemscore.Lipo.Weighted>
-7.0786

> <Gold.Chemscore.Internal_Hbond.Weighted>
0.0000

> <Gold.Chemscore.DEClash.Weighted>
0.0273

> <Gold.Chemscore.DEInternal.Weighted>
2.1234

> <Gold.Chemscore.Rot.Weighted>
4.9141

> <Gold.Chemscore.Internal.Correction.Weighted>
   9.000000E+99

> <Gold.Protein.RotatedTorsions>
[ 6907 6896 6895 6894 ] final  128.33 input  -60.11 | X-H torsion
[ 7974 7965 7964 7962 ] final   73.95 input  175.53 | X-H torsion
[ 8008 7997 7996 7995 ] final  -17.91 input   59.86 | X-H torsion
[ 10167 10162 10161 10158 ] final   88.87 input  -65.29 | X-H torsion
[ 10718 10713 10712 10709 ] final  -42.92 input   66.30 | X-H torsion
[ 10763 10752 10751 10750 ] final  -63.42 input  -60.55 | X-H torsion
[ 11005 11000 10999 10996 ] final  134.95 input  -57.11 | X-H torsion

> <Gold.Protein.ActiveResidues>
 VAL166  LYS551  ARG553  GLY616  TRP617  ASP618  TYR619  PRO620  LYS621  CYS622 
 ASP623  PHE694  ASN695  SER759  ASP760  ASP761  ALA762  ILE779  LEU786  VAL792 
 PHE793  MET794  SER795  GLU796  ALA797  LYS798  CYS799  TRP800  GLU811  SER814 

> <Gold.Protein.RotatedAtoms>
  152.3729  133.6443  159.6101 H   0  0  0  0  0  0  0  0  0  0  0  0  # atno 6907 bound_to 6896
  150.7682  133.9240  159.3415 H   0  0  0  0  0  0  0  0  0  0  0  0  # atno 6908 bound_to 6896
  151.7059  135.0923  160.0310 H   0  0  0  0  0  0  0  0  0  0  0  0  # atno 6909 bound_to 6896
  145.7344  139.2696  143.1522 H   0  0  0  0  0  0  0  0  0  0  0  0  # atno 7974 bound_to 7965
  154.4944  140.2130  155.9479 H   0  0  0  0  0  0  0  0  0  0  0  0  # atno 8008 bound_to 7997
  156.1350  140.3190  155.8374 H   0  0  0  0  0  0  0  0  0  0  0  0  # atno 8009 bound_to 7997
  155.4227  140.0498  157.3015 H   0  0  0  0  0  0  0  0  0  0  0  0  # atno 8010 bound_to 7997
  139.8629  144.6534  150.9037 H   0  0  0  0  0  0  0  0  0  0  0  0  # atno 10167 bound_to 10162
  156.2545  130.4191  149.8612 H   0  0  0  0  0  0  0  0  0  0  0  0  # atno 10718 bound_to 10713
  154.3147  135.6208  153.5481 H   0  0  0  0  0  0  0  0  0  0  0  0  # atno 10763 bound_to 10752
  152.9826  135.5709  154.5137 H   0  0  0  0  0  0  0  0  0  0  0  0  # atno 10764 bound_to 10752
  154.4794  135.2862  155.1559 H   0  0  0  0  0  0  0  0  0  0  0  0  # atno 10765 bound_to 10752
  139.9948  134.9501  156.9939 H   0  0  0  0  0  0  0  0  0  0  0  0  # atno 11005 bound_to 11000
  146.0507  140.8072  142.9783 LP  0  0  0  0  0  0  0  0  0  0  0  0  # atno 17320 bound_to 7965
  144.6885  140.3048  143.7257 LP  0  0  0  0  0  0  0  0  0  0  0  0  # atno 17321 bound_to 7965
  140.7772  143.3729  151.1617 LP  0  0  0  0  0  0  0  0  0  0  0  0  # atno 17342 bound_to 10162
  139.7356  143.9004  152.3034 LP  0  0  0  0  0  0  0  0  0  0  0  0  # atno 17343 bound_to 10162
  156.6149  130.8602  151.3462 LP  0  0  0  0  0  0  0  0  0  0  0  0  # atno 17370 bound_to 10713
  157.7227  130.9580  150.1505 LP  0  0  0  0  0  0  0  0  0  0  0  0  # atno 17371 bound_to 10713
  140.4839  134.1261  155.7221 LP  0  0  0  0  0  0  0  0  0  0  0  0  # atno 17394 bound_to 11000
  141.1595  133.8819  157.1886 LP  0  0  0  0  0  0  0  0  0  0  0  0  # atno 17395 bound_to 11000

$$$$
