AV-unprocessed.smi:1415|AV-procd|sdf|5763|dock2
  -GOLD-   22720 5403D 1   1.00000     0.00000
 Structure written by MMmdl.
 40 41  0  0  0  0  0  0  0  0  1 V2000
  144.7302  136.3234  152.6836 O   0  0  0  0  0  0  0  0  0  0  0  0
  145.9348  136.2282  152.4463 C   0  0  0  0  0  0  0  0  0  0  0  0
  146.8167  137.2056  152.7017 N   0  0  0  0  0  0  0  0  0  0  0  0
  146.4803  138.4989  153.2843 C   0  0  0  0  0  0  0  0  0  0  0  0
  147.6007  139.5316  153.0571 C   0  0  0  0  0  0  0  0  0  0  0  0
  148.5168  139.5809  154.2033 N   0  0  0  0  0  0  0  0  0  0  0  0
  148.6121  138.3579  155.0181 C   0  0  0  0  0  0  0  0  0  0  0  0
  149.9650  137.6199  154.8803 C   0  0  0  0  0  0  0  0  0  0  0  0
  151.1922  138.4950  154.5567 C   0  0  0  0  0  0  0  0  0  0  0  0
  151.4045  139.6969  155.5009 C   0  0  0  0  0  0  0  0  0  0  0  0
  150.2010  140.6519  155.6826 C   0  0  0  0  0  0  0  0  0  0  0  0
  149.2406  140.6930  154.4832 C   0  0  0  0  0  0  0  0  0  0  0  0
  149.1679  141.7269  153.8185 O   0  0  0  0  0  0  0  0  0  0  0  0
  146.5391  135.1552  151.9063 N   0  0  0  0  0  0  0  0  0  0  0  0
  145.9513  133.9243  151.5092 C   0  0  0  0  0  0  0  0  0  0  0  0
  144.5626  133.9793  151.2532 C   0  0  0  0  0  0  0  0  0  0  0  0
  143.8849  132.8114  150.8524 C   0  0  0  0  0  0  0  0  0  0  0  0
  144.6145  131.6170  150.7169 C   0  0  0  0  0  0  0  0  0  0  0  0
  145.9942  131.6484  150.9906 C   0  0  0  0  0  0  0  0  0  0  0  0
  146.6455  132.7665  151.3750 N   0  0  0  0  0  0  0  0  0  0  0  0
  147.7877  137.0459  152.4757 H   0  0  0  0  0  0  0  0  0  0  0  0
  145.5564  138.8480  152.8225 H   0  0  0  0  0  0  0  0  0  0  0  0
  146.2676  138.3808  154.3483 H   0  0  0  0  0  0  0  0  0  0  0  0
  148.1585  139.2906  152.1503 H   0  0  0  0  0  0  0  0  0  0  0  0
  147.1636  140.5122  152.8663 H   0  0  0  0  0  0  0  0  0  0  0  0
  148.4351  138.6114  156.0635 H   0  0  0  0  0  0  0  0  0  0  0  0
  147.8107  137.6587  154.7786 H   0  0  0  0  0  0  0  0  0  0  0  0
  150.1507  137.0530  155.7931 H   0  0  0  0  0  0  0  0  0  0  0  0
  149.8731  136.8767  154.0876 H   0  0  0  0  0  0  0  0  0  0  0  0
  152.0849  137.8695  154.5782 H   0  0  0  0  0  0  0  0  0  0  0  0
  151.1221  138.8488  153.5269 H   0  0  0  0  0  0  0  0  0  0  0  0
  151.7035  139.3274  156.4822 H   0  0  0  0  0  0  0  0  0  0  0  0
  152.2554  140.2718  155.1341 H   0  0  0  0  0  0  0  0  0  0  0  0
  149.6400  140.3828  156.5772 H   0  0  0  0  0  0  0  0  0  0  0  0
  150.5702  141.6593  155.8795 H   0  0  0  0  0  0  0  0  0  0  0  0
  147.5355  135.2263  151.7630 H   0  0  0  0  0  0  0  0  0  0  0  0
  144.0173  134.9056  151.3623 H   0  0  0  0  0  0  0  0  0  0  0  0
  142.8240  132.8326  150.6520 H   0  0  0  0  0  0  0  0  0  0  0  0
  144.1307  130.7012  150.4113 H   0  0  0  0  0  0  0  0  0  0  0  0
  146.5908  130.7532  150.8987 H   0  0  0  0  0  0  0  0  0  0  0  0
  1  2  2  0  0  0  0
  2  3  1  0  0  0  0
  2 14  1  0  0  0  0
  3  4  1  0  0  0  0
  3 21  1  0  0  0  0
  4  5  1  0  0  0  0
  4 22  1  0  0  0  0
  4 23  1  0  0  0  0
  5  6  1  0  0  0  0
  5 24  1  0  0  0  0
  5 25  1  0  0  0  0
  6 12  1  0  0  0  0
  6  7  1  0  0  0  0
  7  8  1  0  0  0  0
  7 26  1  0  0  0  0
  7 27  1  0  0  0  0
  8  9  1  0  0  0  0
  8 28  1  0  0  0  0
  8 29  1  0  0  0  0
  9 10  1  0  0  0  0
  9 30  1  0  0  0  0
  9 31  1  0  0  0  0
 10 11  1  0  0  0  0
 10 32  1  0  0  0  0
 10 33  1  0  0  0  0
 11 12  1  0  0  0  0
 11 34  1  0  0  0  0
 11 35  1  0  0  0  0
 12 13  2  0  0  0  0
 14 15  1  0  0  0  0
 14 36  1  0  0  0  0
 15 20  1  0  0  0  0
 15 16  2  0  0  0  0
 16 17  1  0  0  0  0
 16 37  1  0  0  0  0
 17 18  2  0  0  0  0
 17 38  1  0  0  0  0
 18 19  1  0  0  0  0
 18 39  1  0  0  0  0
 19 20  2  0  0  0  0
 19 40  1  0  0  0  0
M  END
> <s_m_source_file>
AV-unprocessed.smi

> <i_m_source_file_index>
1415

> <i_lp_mmshare_version>
43012

> <i_f3d_flags>
0

> <s_epik_input>
bjFbY0hdW2NIXVtjSF1bY0hdYzFbTkhdQyg9TylbTkhdW0NIMl1bQ0gyXU4yW0NIMl1bQ0gyXVtDSDJdW0NIMl1bQ0gyXUMyPU8=

> <s_epik_cmdline>
J2VwaWtfcHl0aG9uJywgJy1waCcsICc3LjAnLCAnLXRuJywgJzgnLCAnLW1hJywgJzIwMCcsICctbWV0YWxfYmluZGluZycsICctaW1hZScsICc8aW5maWxlLm1hZT4nLCAnLW9tYWUnLCAnPG91dGZpbGUubWFlPic=

> <r_lp_tautomer_probability>
1

> <r_epik_Ionization_Penalty>
4.30218e-05

> <r_epik_Ionization_Penalty_Charging>
0

> <r_epik_Ionization_Penalty_Neutral>
4.30218e-05

> <r_epik_State_Penalty>
-0

> <r_epik_Charging_Adjusted_Penalty>
0

> <i_epik_Tot_Q>
0

> <i_epik_Tot_abs_Q>
0

> <r_epik_Metal_State_Penalty>
-0

> <b_epik_Metal_Only>
0

> <s_lp_Force_Field>
OPLS_2005

> <r_lp_Energy>
23.0834

> <b_lp_Chiralities_Consistent>
1

> <s_lp_Variant>
AV-unprocessed.smi:1415-1

> <Gold.Version>
5.8.1

> <Gold.Id.Protein>
6NUR|6NUR_protein|mol2

> <Gold.PLP.Fitness>
45.5402

> <Gold.PLP.PLP>
-36.6960

> <Gold.PLP.part.hbond>
-3.8760

> <Gold.PLP.part.metal>
0.0000

> <Gold.PLP.part.buried>
0.1852

> <Gold.PLP.part.nonpolar>
-31.7258

> <Gold.PLP.part.repulsive>
0.6398

> <Gold.PLP.ligand.clash>
0.0000

> <Gold.PLP.ligand.torsion>
0.8032

> <Gold.PLP.Chemscore.Hbond>
2.6000

> <Gold.PLP.Chemscore.CHOScore>
0.8814

> <Gold.PLP.Chemscore.Metal>
0.0000

> <Gold.Chemscore.Hbonds>
donor molecule, donor type, donor heavy atom, donor atom, acceptor molecule, acceptor atom, score
      L1  H     3    21       P1  7948  1.00
      L1  H    14    36       P1  7948  0.98
      P1  H  8011  8017       L1    13  0.62
      L1  C    19    40       P1 10747  0.84

> <Gold.PLP.Chemscore.Internal.Correction>
0.0062

> <Gold.Rescore>
     Score         DG    S(hbond)    S(metal)    S(lipo)     H(rot)  DE(clash)    DE(int)     intcor
     15.95     -18.54       2.53        0.00      73.89       1.57       0.35       2.24       ----

> <Gold.Chemscore.Fitness>
15.9527

> <Gold.Chemscore.DG>
-18.5414

> <Gold.Chemscore.ZeroCoef>
-5.4800

> <Gold.Chemscore.Hbond>
2.5279

> <Gold.Chemscore.Metal>
0.0000

> <Gold.Chemscore.Lipo>
73.8917

> <Gold.Chemscore.Internal_Hbond>
0.0000

> <Gold.Chemscore.DEClash>
0.3476

> <Gold.Chemscore.DEInternal>
2.2412

> <Gold.Chemscore.Rot>
1.5731

> <Gold.Chemscore.Internal.Correction>
   9.000000E+99

> <Gold.Chemscore.Hbonds>
donor molecule, donor type, donor heavy atom, donor atom, acceptor molecule, acceptor atom, score
      L1  H     3    21       P1  7948  0.92
      L1  H    14    36       P1  7948  0.85
      P1  H  8011  8017       L1    13  0.62

> <Gold.Chemscore.Hbond.Weighted>
-8.4432

> <Gold.Chemscore.Metal.Weighted>
-0.0000

> <Gold.Chemscore.Lipo.Weighted>
-8.6453

> <Gold.Chemscore.Internal_Hbond.Weighted>
0.0000

> <Gold.Chemscore.DEClash.Weighted>
0.3476

> <Gold.Chemscore.DEInternal.Weighted>
2.2412

> <Gold.Chemscore.Rot.Weighted>
4.0271

> <Gold.Chemscore.Internal.Correction.Weighted>
   9.000000E+99

> <Gold.Protein.RotatedTorsions>
[ 6907 6896 6895 6894 ] final -142.09 input  -60.11 | X-H torsion
[ 7974 7965 7964 7962 ] final  -71.99 input  175.53 | X-H torsion
[ 8008 7997 7996 7995 ] final  178.18 input   59.86 | X-H torsion
[ 10167 10162 10161 10158 ] final  128.26 input  -65.29 | X-H torsion
[ 10718 10713 10712 10709 ] final  -26.19 input   66.30 | X-H torsion
[ 10763 10752 10751 10750 ] final  -11.97 input  -60.55 | X-H torsion
[ 11005 11000 10999 10996 ] final -103.18 input  -57.11 | X-H torsion

> <Gold.Protein.ActiveResidues>
 VAL166  LYS551  ARG553  GLY616  TRP617  ASP618  TYR619  PRO620  LYS621  CYS622 
 ASP623  PHE694  ASN695  SER759  ASP760  ASP761  ALA762  ILE779  LEU786  VAL792 
 PHE793  MET794  SER795  GLU796  ALA797  LYS798  CYS799  TRP800  GLU811  SER814 

> <Gold.Protein.RotatedAtoms>
  151.0825  133.5379  159.2619 H   0  0  0  0  0  0  0  0  0  0  0  0  # atno 6907 bound_to 6896
  151.2277  135.0542  159.8985 H   0  0  0  0  0  0  0  0  0  0  0  0  # atno 6908 bound_to 6896
  152.5425  134.0618  159.8209 H   0  0  0  0  0  0  0  0  0  0  0  0  # atno 6909 bound_to 6896
  145.6709  140.9221  143.0883 H   0  0  0  0  0  0  0  0  0  0  0  0  # atno 7974 bound_to 7965
  156.0575  140.1340  156.9980 H   0  0  0  0  0  0  0  0  0  0  0  0  # atno 8008 bound_to 7997
  154.4465  140.0998  156.6538 H   0  0  0  0  0  0  0  0  0  0  0  0  # atno 8009 bound_to 7997
  155.5429  140.3461  155.4453 H   0  0  0  0  0  0  0  0  0  0  0  0  # atno 8010 bound_to 7997
  139.5536  144.6832  151.4250 H   0  0  0  0  0  0  0  0  0  0  0  0  # atno 10167 bound_to 10162
  156.4545  130.4491  149.6968 H   0  0  0  0  0  0  0  0  0  0  0  0  # atno 10718 bound_to 10713
  153.4915  135.7017  153.5881 H   0  0  0  0  0  0  0  0  0  0  0  0  # atno 10763 bound_to 10752
  153.4052  135.3862  155.2014 H   0  0  0  0  0  0  0  0  0  0  0  0  # atno 10764 bound_to 10752
  154.8716  135.3891  154.4376 H   0  0  0  0  0  0  0  0  0  0  0  0  # atno 10765 bound_to 10752
  141.1157  133.8619  157.1454 H   0  0  0  0  0  0  0  0  0  0  0  0  # atno 11005 bound_to 11000
  144.7057  139.8571  143.7430 LP  0  0  0  0  0  0  0  0  0  0  0  0  # atno 17320 bound_to 7965
  146.1046  139.4044  143.0325 LP  0  0  0  0  0  0  0  0  0  0  0  0  # atno 17321 bound_to 7965
  140.6804  143.8095  150.7114 LP  0  0  0  0  0  0  0  0  0  0  0  0  # atno 17342 bound_to 10162
  140.1546  143.4328  152.2108 LP  0  0  0  0  0  0  0  0  0  0  0  0  # atno 17343 bound_to 10162
  156.3781  130.7565  151.2555 LP  0  0  0  0  0  0  0  0  0  0  0  0  # atno 17370 bound_to 10713
  157.7501  131.0303  150.4133 LP  0  0  0  0  0  0  0  0  0  0  0  0  # atno 17371 bound_to 10713
  140.0078  135.0001  157.0329 LP  0  0  0  0  0  0  0  0  0  0  0  0  # atno 17394 bound_to 11000
  140.4652  134.1443  155.7196 LP  0  0  0  0  0  0  0  0  0  0  0  0  # atno 17395 bound_to 11000

$$$$
