AV-unprocessed.smi:949|AV-procd|sdf|4248|dock1
  -GOLD-   22720 2153D 1   1.00000     0.00000
 Structure written by MMmdl.
 32 33  0  0  0  0  0  0  0  0  1 V2000
  151.5308  140.7789  156.3674 C   0  0  0  0  0  0  0  0  0  0  0  0
  150.2628  141.4148  156.9657 C   0  0  2  0  0  0  0  0  0  0  0  0
  149.3827  141.8941  155.9053 N   0  0  0  0  0  0  0  0  0  0  0  0
  148.6908  141.0337  155.0341 C   0  0  0  0  0  0  0  0  0  0  0  0
  149.0133  139.6628  154.8937 C   0  0  0  0  0  0  0  0  0  0  0  0
  148.2646  138.8747  153.9979 C   0  0  0  0  0  0  0  0  0  0  0  0
  147.2454  139.3556  153.2574 N   0  0  0  0  0  0  0  0  0  0  0  0
  146.9361  140.6616  153.3907 C   0  0  0  0  0  0  0  0  0  0  0  0
  147.6194  141.5405  154.2576 C   0  0  0  0  0  0  0  0  0  0  0  0
  147.2259  142.8792  154.3286 N   0  0  0  0  0  0  0  0  0  0  0  0
  150.6204  142.5697  157.9218 C   0  0  1  0  0  0  0  0  0  0  0  0
  151.5491  142.1724  159.0726 C   0  0  0  0  0  0  0  0  0  0  0  0
  152.2142  143.4879  159.4033 C   0  0  0  0  0  0  0  0  0  0  0  0
  152.4090  144.0860  158.0151 C   0  0  0  0  0  0  0  0  0  0  0  0
  151.3292  143.5947  157.2256 O   0  0  0  0  0  0  0  0  0  0  0  0
  152.1806  140.3845  157.1488 H   0  0  0  0  0  0  0  0  0  0  0  0
  152.1066  141.5073  155.7955 H   0  0  0  0  0  0  0  0  0  0  0  0
  151.2916  139.9512  155.6999 H   0  0  0  0  0  0  0  0  0  0  0  0
  149.7322  140.6639  157.5509 H   0  0  0  0  0  0  0  0  0  0  0  0
  149.2636  142.8910  155.8007 H   0  0  0  0  0  0  0  0  0  0  0  0
  149.8156  139.2018  155.4484 H   0  0  0  0  0  0  0  0  0  0  0  0
  148.4923  137.8265  153.8733 H   0  0  0  0  0  0  0  0  0  0  0  0
  146.1148  141.0159  152.7849 H   0  0  0  0  0  0  0  0  0  0  0  0
  147.6991  143.5281  154.9412 H   0  0  0  0  0  0  0  0  0  0  0  0
  146.3493  143.1866  153.9330 H   0  0  0  0  0  0  0  0  0  0  0  0
  149.7140  143.0170  158.3330 H   0  0  0  0  0  0  0  0  0  0  0  0
  151.0163  141.7392  159.9196 H   0  0  0  0  0  0  0  0  0  0  0  0
  152.2964  141.4524  158.7352 H   0  0  0  0  0  0  0  0  0  0  0  0
  151.5409  144.1116  159.9930 H   0  0  0  0  0  0  0  0  0  0  0  0
  153.1481  143.3730  159.9539 H   0  0  0  0  0  0  0  0  0  0  0  0
  152.4306  145.1759  158.0290 H   0  0  0  0  0  0  0  0  0  0  0  0
  153.3439  143.7334  157.5774 H   0  0  0  0  0  0  0  0  0  0  0  0
  1  2  1  0  0  0  0
  1 16  1  0  0  0  0
  1 17  1  0  0  0  0
  1 18  1  0  0  0  0
  2  3  1  0  0  0  0
  2 11  1  0  0  0  0
  2 19  1  0  0  0  0
  3  4  1  0  0  0  0
  3 20  1  0  0  0  0
  4  9  1  0  0  0  0
  4  5  2  0  0  0  0
  5  6  1  0  0  0  0
  5 21  1  0  0  0  0
  6  7  2  0  0  0  0
  6 22  1  0  0  0  0
  7  8  1  0  0  0  0
  8  9  2  0  0  0  0
  8 23  1  0  0  0  0
  9 10  1  0  0  0  0
 10 24  1  0  0  0  0
 10 25  1  0  0  0  0
 11 15  1  0  0  0  0
 11 12  1  0  0  0  0
 11 26  1  0  0  0  0
 12 13  1  0  0  0  0
 12 27  1  0  0  0  0
 12 28  1  0  0  0  0
 13 14  1  0  0  0  0
 13 29  1  0  0  0  0
 13 30  1  0  0  0  0
 14 15  1  0  0  0  0
 14 31  1  0  0  0  0
 14 32  1  0  0  0  0
M  END
> <s_m_source_file>
AV-unprocessed.smi

> <i_m_source_file_index>
949

> <i_lp_mmshare_version>
43012

> <i_f3d_flags>
0

> <s_epik_input>
TzFbQ0gyXVtDSDJdW0NIMl1bQ0BIXTFbQ0BIXShbQ0gzXSlbTkhdYzJbY0hdW2NIXW5bY0hdYzJbTkgyXQ==

> <s_epik_cmdline>
J2VwaWtfcHl0aG9uJywgJy1waCcsICc3LjAnLCAnLXRuJywgJzgnLCAnLW1hJywgJzIwMCcsICctbWV0YWxfYmluZGluZycsICctaW1hZScsICc8aW5maWxlLm1hZT4nLCAnLW9tYWUnLCAnPG91dGZpbGUubWFlPic=

> <r_epik_Ionization_Penalty>
3.88091

> <r_epik_Ionization_Penalty_Charging>
0

> <r_epik_Ionization_Penalty_Neutral>
3.88091

> <r_epik_State_Penalty>
3.88049

> <r_epik_Charging_Adjusted_Penalty>
3.88049

> <i_epik_Tot_Q>
0

> <i_epik_Tot_abs_Q>
0

> <r_epik_Metal_State_Penalty>
0.313783

> <b_epik_Metal_Only>
1

> <s_lp_Force_Field>
OPLS_2005

> <r_lp_Energy>
23.3824

> <b_lp_Chiralities_Consistent>
1

> <s_lp_Variant>
AV-unprocessed.smi:949-7

> <Gold.Version>
5.8.1

> <Gold.Id.Protein>
6NUR|6NUR_protein|mol2

> <Gold.PLP.Fitness>
40.7784

> <Gold.PLP.PLP>
-29.2286

> <Gold.PLP.part.hbond>
-2.0000

> <Gold.PLP.part.metal>
0.0000

> <Gold.PLP.part.buried>
-5.5223

> <Gold.PLP.part.nonpolar>
-24.6675

> <Gold.PLP.part.repulsive>
1.7135

> <Gold.PLP.ligand.clash>
0.0000

> <Gold.PLP.ligand.torsion>
0.1609

> <Gold.PLP.Chemscore.Hbond>
2.0000

> <Gold.PLP.Chemscore.CHOScore>
1.9530

> <Gold.PLP.Chemscore.Metal>
0.0000

> <Gold.Chemscore.Hbonds>
donor molecule, donor type, donor heavy atom, donor atom, acceptor molecule, acceptor atom, score
      L1  H     3    20       P1  8028  1.00
      L1  H    10    24       P1  8028  1.00
      L1  C     6    22       P1  7948  0.83
      L1  C     8    23       P1 10175  0.94

> <Gold.PLP.Chemscore.Internal.Correction>
0.0127

> <Gold.Rescore>
     Score         DG    S(hbond)    S(metal)    S(lipo)     H(rot)  DE(clash)    DE(int)     intcor
     17.56     -17.82       1.70        0.00      83.66       1.22       0.12       0.14       ----

> <Gold.Chemscore.Fitness>
17.5625

> <Gold.Chemscore.DG>
-17.8227

> <Gold.Chemscore.ZeroCoef>
-5.4800

> <Gold.Chemscore.Hbond>
1.6976

> <Gold.Chemscore.Metal>
0.0000

> <Gold.Chemscore.Lipo>
83.6586

> <Gold.Chemscore.Internal_Hbond>
0.0000

> <Gold.Chemscore.DEClash>
0.1172

> <Gold.Chemscore.DEInternal>
0.1431

> <Gold.Chemscore.Rot>
1.2169

> <Gold.Chemscore.Internal.Correction>
   9.000000E+99

> <Gold.Chemscore.Hbonds>
donor molecule, donor type, donor heavy atom, donor atom, acceptor molecule, acceptor atom, score
      L1  H     3    20       P1  8028  1.00
      L1  H    10    24       P1  8028  0.30

> <Gold.Chemscore.Hbond.Weighted>
-5.6699

> <Gold.Chemscore.Metal.Weighted>
-0.0000

> <Gold.Chemscore.Lipo.Weighted>
-9.7881

> <Gold.Chemscore.Internal_Hbond.Weighted>
0.0000

> <Gold.Chemscore.DEClash.Weighted>
0.1172

> <Gold.Chemscore.DEInternal.Weighted>
0.1431

> <Gold.Chemscore.Rot.Weighted>
3.1152

> <Gold.Chemscore.Internal.Correction.Weighted>
   9.000000E+99

> <Gold.Protein.RotatedTorsions>
[ 6907 6896 6895 6894 ] final    6.32 input  -60.11 | X-H torsion
[ 7974 7965 7964 7962 ] final  107.98 input  175.53 | X-H torsion
[ 8008 7997 7996 7995 ] final   89.71 input   59.86 | X-H torsion
[ 10167 10162 10161 10158 ] final -106.04 input  -65.29 | X-H torsion
[ 10718 10713 10712 10709 ] final  -45.96 input   66.30 | X-H torsion
[ 10763 10752 10751 10750 ] final  120.88 input  -60.55 | X-H torsion
[ 11005 11000 10999 10996 ] final  -59.63 input  -57.11 | X-H torsion

> <Gold.Protein.ActiveResidues>
 VAL166  LYS551  ARG553  GLY616  TRP617  ASP618  TYR619  PRO620  LYS621  CYS622 
 ASP623  PHE694  ASN695  SER759  ASP760  ASP761  ALA762  ILE779  LEU786  VAL792 
 PHE793  MET794  SER795  GLU796  ALA797  LYS798  CYS799  TRP800  GLU811  SER814 

> <Gold.Protein.RotatedAtoms>
  151.6719  135.0975  160.0199 H   0  0  0  0  0  0  0  0  0  0  0  0  # atno 6907 bound_to 6896
  152.3887  133.6643  159.6228 H   0  0  0  0  0  0  0  0  0  0  0  0  # atno 6908 bound_to 6896
  150.7807  133.8908  159.3354 H   0  0  0  0  0  0  0  0  0  0  0  0  # atno 6909 bound_to 6896
  145.2866  139.2614  143.3887 H   0  0  0  0  0  0  0  0  0  0  0  0  # atno 7974 bound_to 7965
  156.0033  140.3357  155.6867 H   0  0  0  0  0  0  0  0  0  0  0  0  # atno 8008 bound_to 7997
  155.6260  140.0680  157.2681 H   0  0  0  0  0  0  0  0  0  0  0  0  # atno 8009 bound_to 7997
  154.4256  140.1768  156.1409 H   0  0  0  0  0  0  0  0  0  0  0  0  # atno 8010 bound_to 7997
  140.1921  143.3884  152.1198 H   0  0  0  0  0  0  0  0  0  0  0  0  # atno 10167 bound_to 10162
  156.2231  130.4167  149.8968 H   0  0  0  0  0  0  0  0  0  0  0  0  # atno 10718 bound_to 10713
  153.6053  135.3440  155.2960 H   0  0  0  0  0  0  0  0  0  0  0  0  # atno 10763 bound_to 10752
  154.8628  135.4237  154.2368 H   0  0  0  0  0  0  0  0  0  0  0  0  # atno 10764 bound_to 10752
  153.3206  135.7038  153.7106 H   0  0  0  0  0  0  0  0  0  0  0  0  # atno 10765 bound_to 10752
  141.1256  133.6617  156.5100 H   0  0  0  0  0  0  0  0  0  0  0  0  # atno 11005 bound_to 11000
  146.3199  140.3347  142.8643 LP  0  0  0  0  0  0  0  0  0  0  0  0  # atno 17320 bound_to 7965
  144.9208  140.7866  143.5749 LP  0  0  0  0  0  0  0  0  0  0  0  0  # atno 17321 bound_to 7965
  139.5252  144.7092  151.5258 LP  0  0  0  0  0  0  0  0  0  0  0  0  # atno 17342 bound_to 10162
  140.6449  143.8815  150.6727 LP  0  0  0  0  0  0  0  0  0  0  0  0  # atno 17343 bound_to 10162
  156.6607  130.8781  151.3547 LP  0  0  0  0  0  0  0  0  0  0  0  0  # atno 17370 bound_to 10713
  157.7097  130.9426  150.1048 LP  0  0  0  0  0  0  0  0  0  0  0  0  # atno 17371 bound_to 10713
  140.4376  134.7045  157.4975 LP  0  0  0  0  0  0  0  0  0  0  0  0  # atno 17394 bound_to 11000
  140.0251  134.6489  155.9184 LP  0  0  0  0  0  0  0  0  0  0  0  0  # atno 17395 bound_to 11000

$$$$
