AV-unprocessed.smi:1126|AV-procd|sdf|4839|dock1
  -GOLD-   22720 3403D 1   1.00000     0.00000
 Structure written by MMmdl.
 47 48  0  0  0  0  0  0  0  0  1 V2000
  152.3587  144.2795  157.6742 C   0  0  0  0  0  0  0  0  0  0  0  0
  151.9448  142.9247  157.6771 O   0  0  0  0  0  0  0  0  0  0  0  0
  150.8514  142.6883  156.8051 C   0  0  0  0  0  0  0  0  0  0  0  0
  151.0852  141.4055  155.9893 C   0  0  0  0  0  0  0  0  0  0  0  0
  149.8788  140.6978  155.5551 N   0  0  0  0  0  0  0  0  0  0  0  0
  150.1658  139.3580  155.0355 C   0  0  0  0  0  0  0  0  0  0  0  0
  148.8966  138.5991  154.6101 C   0  0  0  0  0  0  0  0  0  0  0  0
  148.0968  139.3998  153.5618 C   0  0  0  0  0  0  0  0  0  0  0  0
  146.7756  138.7157  153.1652 C   0  0  0  0  0  0  0  0  0  0  0  0
  146.9066  137.2649  153.1594 N   0  0  0  0  0  0  0  0  0  0  0  0
  146.0490  136.4205  153.7499 C   0  0  0  0  0  0  0  0  0  0  0  0
  145.0380  136.7883  154.3478 O   0  0  0  0  0  0  0  0  0  0  0  0
  146.3824  134.9314  153.6520 C   0  0  0  0  0  0  0  0  0  0  0  0
  145.4854  134.2540  152.7328 N   0  0  0  0  0  0  0  0  0  0  0  0
  145.8067  133.4336  151.6719 C   0  0  0  0  0  0  0  0  0  0  0  0
  144.6362  133.0343  151.0912 C   0  0  0  0  0  0  0  0  0  0  0  0
  144.4347  132.1364  149.9048 C   0  0  0  0  0  0  0  0  0  0  0  0
  143.6398  133.6745  151.8815 C   0  0  0  0  0  0  0  0  0  0  0  0
  144.1492  134.4026  152.8619 N   0  0  0  0  0  0  0  0  0  0  0  0
  147.8503  140.8200  154.1015 C   0  0  0  0  0  0  0  0  0  0  0  0
  149.1694  141.4767  154.5400 C   0  0  0  0  0  0  0  0  0  0  0  0
  153.1899  144.4097  158.3669 H   0  0  0  0  0  0  0  0  0  0  0  0
  151.5500  144.9393  157.9910 H   0  0  0  0  0  0  0  0  0  0  0  0
  152.6942  144.5873  156.6829 H   0  0  0  0  0  0  0  0  0  0  0  0
  149.9146  142.6220  157.3611 H   0  0  0  0  0  0  0  0  0  0  0  0
  150.7616  143.5338  156.1214 H   0  0  0  0  0  0  0  0  0  0  0  0
  151.6407  141.7002  155.0983 H   0  0  0  0  0  0  0  0  0  0  0  0
  151.7445  140.7317  156.5383 H   0  0  0  0  0  0  0  0  0  0  0  0
  150.8518  139.4274  154.1898 H   0  0  0  0  0  0  0  0  0  0  0  0
  150.6683  138.7616  155.7954 H   0  0  0  0  0  0  0  0  0  0  0  0
  149.1767  137.6222  154.2150 H   0  0  0  0  0  0  0  0  0  0  0  0
  148.2749  138.4118  155.4867 H   0  0  0  0  0  0  0  0  0  0  0  0
  148.7121  139.4878  152.6648 H   0  0  0  0  0  0  0  0  0  0  0  0
  145.9812  139.0010  153.8567 H   0  0  0  0  0  0  0  0  0  0  0  0
  146.4692  139.0495  152.1725 H   0  0  0  0  0  0  0  0  0  0  0  0
  147.7147  136.8770  152.6939 H   0  0  0  0  0  0  0  0  0  0  0  0
  147.4069  134.8003  153.3013 H   0  0  0  0  0  0  0  0  0  0  0  0
  146.3186  134.4662  154.6372 H   0  0  0  0  0  0  0  0  0  0  0  0
  146.8323  133.2063  151.4201 H   0  0  0  0  0  0  0  0  0  0  0  0
  143.6404  132.5015  149.2534 H   0  0  0  0  0  0  0  0  0  0  0  0
  144.1623  131.1259  150.2091 H   0  0  0  0  0  0  0  0  0  0  0  0
  145.3367  132.0574  149.2975 H   0  0  0  0  0  0  0  0  0  0  0  0
  142.5662  133.6318  151.7719 H   0  0  0  0  0  0  0  0  0  0  0  0
  147.3703  141.4340  153.3389 H   0  0  0  0  0  0  0  0  0  0  0  0
  147.1636  140.7834  154.9486 H   0  0  0  0  0  0  0  0  0  0  0  0
  148.9498  142.4718  154.9286 H   0  0  0  0  0  0  0  0  0  0  0  0
  149.8108  141.6216  153.6691 H   0  0  0  0  0  0  0  0  0  0  0  0
  1  2  1  0  0  0  0
  1 22  1  0  0  0  0
  1 23  1  0  0  0  0
  1 24  1  0  0  0  0
  2  3  1  0  0  0  0
  3  4  1  0  0  0  0
  3 25  1  0  0  0  0
  3 26  1  0  0  0  0
  4  5  1  0  0  0  0
  4 27  1  0  0  0  0
  4 28  1  0  0  0  0
  5 21  1  0  0  0  0
  5  6  1  0  0  0  0
  6  7  1  0  0  0  0
  6 29  1  0  0  0  0
  6 30  1  0  0  0  0
  7  8  1  0  0  0  0
  7 31  1  0  0  0  0
  7 32  1  0  0  0  0
  8  9  1  0  0  0  0
  8 20  1  0  0  0  0
  8 33  1  0  0  0  0
  9 10  1  0  0  0  0
  9 34  1  0  0  0  0
  9 35  1  0  0  0  0
 10 11  1  0  0  0  0
 10 36  1  0  0  0  0
 11 12  2  0  0  0  0
 11 13  1  0  0  0  0
 13 14  1  0  0  0  0
 13 37  1  0  0  0  0
 13 38  1  0  0  0  0
 14 19  1  0  0  0  0
 14 15  1  0  0  0  0
 15 16  2  0  0  0  0
 15 39  1  0  0  0  0
 16 17  1  0  0  0  0
 16 18  1  0  0  0  0
 17 40  1  0  0  0  0
 17 41  1  0  0  0  0
 17 42  1  0  0  0  0
 18 19  2  0  0  0  0
 18 43  1  0  0  0  0
 20 21  1  0  0  0  0
 20 44  1  0  0  0  0
 20 45  1  0  0  0  0
 21 46  1  0  0  0  0
 21 47  1  0  0  0  0
M  END
> <s_m_source_file>
AV-unprocessed.smi

> <i_m_source_file_index>
1126

> <i_lp_mmshare_version>
43012

> <i_f3d_flags>
0

> <s_epik_input>
W0NIM11PW0NIMl1bQ0gyXU4xW0NIMl1bQ0gyXVtDSF0oW0NIMl1bQ0gyXTEpW0NIMl1bTkhdQyg9TylbQ0gyXW4yW2NIXWMoW0NIM10pW2NIXW4y

> <s_epik_cmdline>
J2VwaWtfcHl0aG9uJywgJy1waCcsICc3LjAnLCAnLXRuJywgJzgnLCAnLW1hJywgJzIwMCcsICctbWV0YWxfYmluZGluZycsICctaW1hZScsICc8aW5maWxlLm1hZT4nLCAnLW9tYWUnLCAnPG91dGZpbGUubWFlPic=

> <r_lp_tautomer_probability>
1

> <r_epik_Ionization_Penalty>
2.42913

> <r_epik_Ionization_Penalty_Charging>
0

> <r_epik_Ionization_Penalty_Neutral>
2.42913

> <r_epik_State_Penalty>
2.58903

> <r_epik_Charging_Adjusted_Penalty>
2.58903

> <i_epik_Tot_Q>
0

> <i_epik_Tot_abs_Q>
0

> <r_epik_Metal_State_Penalty>
2.58902

> <b_epik_Metal_Only>
0

> <s_lp_Force_Field>
OPLS_2005

> <r_lp_Energy>
26.3674

> <b_lp_Chiralities_Consistent>
1

> <s_lp_Variant>
AV-unprocessed.smi:1126-3

> <Gold.Version>
5.8.1

> <Gold.Id.Protein>
6NUR|6NUR_protein|mol2

> <Gold.PLP.Fitness>
40.0201

> <Gold.PLP.PLP>
-35.7529

> <Gold.PLP.part.hbond>
-1.0000

> <Gold.PLP.part.metal>
0.0000

> <Gold.PLP.part.buried>
-1.6452

> <Gold.PLP.part.nonpolar>
-33.2000

> <Gold.PLP.part.repulsive>
0.2947

> <Gold.PLP.ligand.clash>
0.0000

> <Gold.PLP.ligand.torsion>
1.0649

> <Gold.PLP.Chemscore.Hbond>
1.0000

> <Gold.PLP.Chemscore.CHOScore>
1.0000

> <Gold.PLP.Chemscore.Metal>
0.0000

> <Gold.Chemscore.Hbonds>
donor molecule, donor type, donor heavy atom, donor atom, acceptor molecule, acceptor atom, score
      L1  H    10    36       P1  7948  1.00
      L1  C    18    43       P1 10186  0.29

> <Gold.PLP.Chemscore.Internal.Correction>
0.3971

> <Gold.Rescore>
     Score         DG    S(hbond)    S(metal)    S(lipo)     H(rot)  DE(clash)    DE(int)     intcor
     12.73     -15.45       0.99        0.00     101.27       2.03       0.29       2.43       ----

> <Gold.Chemscore.Fitness>
12.7302

> <Gold.Chemscore.DG>
-15.4536

> <Gold.Chemscore.ZeroCoef>
-5.4800

> <Gold.Chemscore.Hbond>
0.9916

> <Gold.Chemscore.Metal>
0.0000

> <Gold.Chemscore.Lipo>
101.2721

> <Gold.Chemscore.Internal_Hbond>
0.0000

> <Gold.Chemscore.DEClash>
0.2907

> <Gold.Chemscore.DEInternal>
2.4327

> <Gold.Chemscore.Rot>
2.0263

> <Gold.Chemscore.Internal.Correction>
   9.000000E+99

> <Gold.Chemscore.Hbonds>
donor molecule, donor type, donor heavy atom, donor atom, acceptor molecule, acceptor atom, score
      L1  H    10    36       P1  7948  0.99

> <Gold.Chemscore.Hbond.Weighted>
-3.3120

> <Gold.Chemscore.Metal.Weighted>
-0.0000

> <Gold.Chemscore.Lipo.Weighted>
-11.8488

> <Gold.Chemscore.Internal_Hbond.Weighted>
0.0000

> <Gold.Chemscore.DEClash.Weighted>
0.2907

> <Gold.Chemscore.DEInternal.Weighted>
2.4327

> <Gold.Chemscore.Rot.Weighted>
5.1872

> <Gold.Chemscore.Internal.Correction.Weighted>
   9.000000E+99

> <Gold.Protein.RotatedTorsions>
[ 6907 6896 6895 6894 ] final  -50.31 input  -60.11 | X-H torsion
[ 7974 7965 7964 7962 ] final  164.92 input  175.53 | X-H torsion
[ 8008 7997 7996 7995 ] final    5.57 input   59.86 | X-H torsion
[ 10167 10162 10161 10158 ] final   52.08 input  -65.29 | X-H torsion
[ 10718 10713 10712 10709 ] final  151.86 input   66.30 | X-H torsion
[ 10763 10752 10751 10750 ] final -157.46 input  -60.55 | X-H torsion
[ 11005 11000 10999 10996 ] final -103.23 input  -57.11 | X-H torsion

> <Gold.Protein.ActiveResidues>
 VAL166  LYS551  ARG553  GLY616  TRP617  ASP618  TYR619  PRO620  LYS621  CYS622 
 ASP623  PHE694  ASN695  SER759  ASP760  ASP761  ALA762  ILE779  LEU786  VAL792 
 PHE793  MET794  SER795  GLU796  ALA797  LYS798  CYS799  TRP800  GLU811  SER814 

> <Gold.Protein.RotatedAtoms>
  150.8720  134.8095  159.7161 H   0  0  0  0  0  0  0  0  0  0  0  0  # atno 6907 bound_to 6896
  152.4721  134.4932  159.9711 H   0  0  0  0  0  0  0  0  0  0  0  0  # atno 6908 bound_to 6896
  151.5019  133.3464  159.2906 H   0  0  0  0  0  0  0  0  0  0  0  0  # atno 6909 bound_to 6896
  144.7524  139.8395  143.6361 H   0  0  0  0  0  0  0  0  0  0  0  0  # atno 7974 bound_to 7965
  154.7301  140.2729  155.6464 H   0  0  0  0  0  0  0  0  0  0  0  0  # atno 8008 bound_to 7997
  156.2847  140.2717  156.1924 H   0  0  0  0  0  0  0  0  0  0  0  0  # atno 8009 bound_to 7997
  155.0393  140.0371  157.2493 H   0  0  0  0  0  0  0  0  0  0  0  0  # atno 8010 bound_to 7997
  140.2552  144.3435  150.6335 H   0  0  0  0  0  0  0  0  0  0  0  0  # atno 10167 bound_to 10162
  157.2652  131.0806  151.1638 H   0  0  0  0  0  0  0  0  0  0  0  0  # atno 10718 bound_to 10713
  154.7634  135.3124  154.8334 H   0  0  0  0  0  0  0  0  0  0  0  0  # atno 10763 bound_to 10752
  153.9089  135.6808  153.4756 H   0  0  0  0  0  0  0  0  0  0  0  0  # atno 10764 bound_to 10752
  153.1237  135.4811  154.9169 H   0  0  0  0  0  0  0  0  0  0  0  0  # atno 10765 bound_to 10752
  141.1155  133.8623  157.1460 H   0  0  0  0  0  0  0  0  0  0  0  0  # atno 11005 bound_to 11000
  146.1492  139.4571  143.0059 LP  0  0  0  0  0  0  0  0  0  0  0  0  # atno 17320 bound_to 7965
  145.6896  141.0168  143.1562 LP  0  0  0  0  0  0  0  0  0  0  0  0  # atno 17321 bound_to 7965
  140.6010  143.2167  151.7073 LP  0  0  0  0  0  0  0  0  0  0  0  0  # atno 17342 bound_to 10162
  139.5034  144.3793  152.0392 LP  0  0  0  0  0  0  0  0  0  0  0  0  # atno 17343 bound_to 10162
  157.3131  130.6900  149.6227 LP  0  0  0  0  0  0  0  0  0  0  0  0  # atno 17370 bound_to 10713
  155.9663  130.4357  150.5104 LP  0  0  0  0  0  0  0  0  0  0  0  0  # atno 17371 bound_to 10713
  140.0074  135.0002  157.0322 LP  0  0  0  0  0  0  0  0  0  0  0  0  # atno 17394 bound_to 11000
  140.4658  134.1437  155.7197 LP  0  0  0  0  0  0  0  0  0  0  0  0  # atno 17395 bound_to 11000

$$$$
