AV-unprocessed.smi:3062|AV-procd|sdf|11684|dock2
  -GOLD-   2272017 93D 1   1.00000     0.00000
 Structure written by MMmdl.
 39 40  0  0  0  0  0  0  0  0  1 V2000
  145.2493  144.1135  153.7539 C   0  0  0  0  0  0  0  0  0  0  0  0
  145.8282  143.0762  154.6781 C   0  0  0  0  0  0  0  0  0  0  0  0
  146.6882  142.2580  154.1667 N   0  0  0  0  0  0  0  0  0  0  0  0
  147.2821  141.2706  154.9272 N   0  0  0  0  0  0  0  0  0  0  0  0
  148.2298  140.4344  154.1810 C   0  0  0  0  0  0  0  0  0  0  0  0
  149.5544  140.2250  154.9477 C   0  0  1  0  0  0  0  0  0  0  0  0
  150.5181  139.6177  154.1111 O   0  0  0  0  0  0  0  0  0  0  0  0
  150.1560  141.5380  155.4751 C   0  0  0  0  0  0  0  0  0  0  0  0
  151.2703  141.2545  156.3057 O   0  0  0  0  0  0  0  0  0  0  0  0
  150.9442  141.2347  157.6854 C   0  0  0  0  0  0  0  0  0  0  0  0
  151.4418  142.5072  158.2976 C   0  0  0  0  0  0  0  0  0  0  0  0
  151.3981  143.7574  157.7346 C   0  0  0  0  0  0  0  0  0  0  0  0
  151.9595  144.7715  158.5653 C   0  0  0  0  0  0  0  0  0  0  0  0
  152.4300  144.2834  159.7549 C   0  0  0  0  0  0  0  0  0  0  0  0
  152.1946  142.5618  159.8769 S   0  0  0  0  0  0  0  0  0  0  0  0
  147.0389  141.0585  156.2522 C   0  0  0  0  0  0  0  0  0  0  0  0
  147.5923  140.1630  156.8924 O   0  0  0  0  0  0  0  0  0  0  0  0
  146.0635  141.9886  156.8257 C   0  0  0  0  0  0  0  0  0  0  0  0
  145.7810  141.8038  158.2126 C   0  0  0  0  0  0  0  0  0  0  0  0
  145.5721  141.6511  159.3411 N   0  0  0  0  0  0  0  0  0  0  0  0
  145.4699  142.9601  156.0882 C   0  0  0  0  0  0  0  0  0  0  0  0
  144.4523  143.9512  156.6368 C   0  0  0  0  0  0  0  0  0  0  0  0
  145.3979  145.1160  154.1548 H   0  0  0  0  0  0  0  0  0  0  0  0
  144.1789  143.9566  153.6201 H   0  0  0  0  0  0  0  0  0  0  0  0
  145.7136  144.0839  152.7667 H   0  0  0  0  0  0  0  0  0  0  0  0
  147.7815  139.4718  153.9262 H   0  0  0  0  0  0  0  0  0  0  0  0
  148.4345  140.9103  153.2203 H   0  0  0  0  0  0  0  0  0  0  0  0
  149.3992  139.5625  155.7999 H   0  0  0  0  0  0  0  0  0  0  0  0
  150.7981  138.8115  154.5173 H   0  0  0  0  0  0  0  0  0  0  0  0
  150.4900  142.1433  154.6311 H   0  0  0  0  0  0  0  0  0  0  0  0
  149.4070  142.1222  156.0126 H   0  0  0  0  0  0  0  0  0  0  0  0
  149.8648  141.1541  157.8198 H   0  0  0  0  0  0  0  0  0  0  0  0
  151.4090  140.3761  158.1724 H   0  0  0  0  0  0  0  0  0  0  0  0
  150.9842  143.9777  156.7616 H   0  0  0  0  0  0  0  0  0  0  0  0
  151.9982  145.8085  158.2655 H   0  0  0  0  0  0  0  0  0  0  0  0
  152.8990  144.8261  160.5625 H   0  0  0  0  0  0  0  0  0  0  0  0
  144.1712  143.7270  157.6654 H   0  0  0  0  0  0  0  0  0  0  0  0
  143.5388  143.9374  156.0413 H   0  0  0  0  0  0  0  0  0  0  0  0
  144.8601  144.9624  156.6187 H   0  0  0  0  0  0  0  0  0  0  0  0
  1  2  1  0  0  0  0
  1 23  1  0  0  0  0
  1 24  1  0  0  0  0
  1 25  1  0  0  0  0
  2 21  1  0  0  0  0
  2  3  2  0  0  0  0
  3  4  1  0  0  0  0
  4  5  1  0  0  0  0
  4 16  1  0  0  0  0
  5  6  1  0  0  0  0
  5 26  1  0  0  0  0
  5 27  1  0  0  0  0
  6  7  1  0  0  0  0
  6  8  1  0  0  0  0
  6 28  1  0  0  0  0
  7 29  1  0  0  0  0
  8  9  1  0  0  0  0
  8 30  1  0  0  0  0
  8 31  1  0  0  0  0
  9 10  1  0  0  0  0
 10 11  1  0  0  0  0
 10 32  1  0  0  0  0
 10 33  1  0  0  0  0
 11 15  1  0  0  0  0
 11 12  2  0  0  0  0
 12 13  1  0  0  0  0
 12 34  1  0  0  0  0
 13 14  2  0  0  0  0
 13 35  1  0  0  0  0
 14 15  1  0  0  0  0
 14 36  1  0  0  0  0
 16 17  2  0  0  0  0
 16 18  1  0  0  0  0
 18 19  1  0  0  0  0
 18 21  2  0  0  0  0
 19 20  3  0  0  0  0
 21 22  1  0  0  0  0
 22 37  1  0  0  0  0
 22 38  1  0  0  0  0
 22 39  1  0  0  0  0
M  END
> <s_m_source_file>
AV-unprocessed.smi

> <i_m_source_file_index>
3062

> <i_lp_mmshare_version>
43012

> <i_f3d_flags>
0

> <s_epik_input>
TiNDYyhjMVtDSDNdKWMoPU8pbihuYzFbQ0gzXSlbQ0gyXVtDQEhdKFtPSF0pW0NIMl1PW0NIMl1jMltjSF1bY0hdW2NIXXMy

> <s_epik_cmdline>
J2VwaWtfcHl0aG9uJywgJy1waCcsICc3LjAnLCAnLXRuJywgJzgnLCAnLW1hJywgJzIwMCcsICctbWV0YWxfYmluZGluZycsICctaW1hZScsICc8aW5maWxlLm1hZT4nLCAnLW9tYWUnLCAnPG91dGZpbGUubWFlPic=

> <r_lp_tautomer_probability>
1

> <r_epik_Ionization_Penalty>
6.86395e-08

> <r_epik_Ionization_Penalty_Charging>
2.24757e-10

> <r_epik_Ionization_Penalty_Neutral>
6.84147e-08

> <r_epik_State_Penalty>
-0

> <r_epik_Charging_Adjusted_Penalty>
2.24757e-10

> <i_epik_Tot_Q>
0

> <i_epik_Tot_abs_Q>
0

> <r_epik_Metal_State_Penalty>
-0

> <b_epik_Metal_Only>
0

> <s_lp_Force_Field>
OPLS_2005

> <r_lp_Energy>
25.5383

> <b_lp_Chiralities_Consistent>
1

> <s_lp_Variant>
AV-unprocessed.smi:3062-2

> <Gold.Version>
5.8.1

> <Gold.Id.Protein>
6NUR|6NUR_protein|mol2

> <Gold.PLP.Fitness>
46.1223

> <Gold.PLP.PLP>
-42.2482

> <Gold.PLP.part.hbond>
-2.7991

> <Gold.PLP.part.metal>
0.0000

> <Gold.PLP.part.buried>
-6.0528

> <Gold.PLP.part.nonpolar>
-34.0038

> <Gold.PLP.part.repulsive>
0.2133

> <Gold.PLP.ligand.clash>
0.0000

> <Gold.PLP.ligand.torsion>
1.0880

> <Gold.PLP.Chemscore.Hbond>
1.9913

> <Gold.PLP.Chemscore.CHOScore>
0.0000

> <Gold.PLP.Chemscore.Metal>
0.0000

> <Gold.Chemscore.Hbonds>
donor molecule, donor type, donor heavy atom, donor atom, acceptor molecule, acceptor atom, score
      P1  H  6934  6946       L1    20  0.93
      P1  H  7989  7998       L1     7  1.00

> <Gold.PLP.Chemscore.Internal.Correction>
0.0763

> <Gold.Rescore>
     Score         DG    S(hbond)    S(metal)    S(lipo)     H(rot)  DE(clash)    DE(int)     intcor
     14.87     -17.39       1.92        0.00     102.01       2.51       0.01       2.51       ----

> <Gold.Chemscore.Fitness>
14.8750

> <Gold.Chemscore.DG>
-17.3947

> <Gold.Chemscore.ZeroCoef>
-5.4800

> <Gold.Chemscore.Hbond>
1.9191

> <Gold.Chemscore.Metal>
0.0000

> <Gold.Chemscore.Lipo>
102.0131

> <Gold.Chemscore.Internal_Hbond>
0.0000

> <Gold.Chemscore.DEClash>
0.0121

> <Gold.Chemscore.DEInternal>
2.5076

> <Gold.Chemscore.Rot>
2.5119

> <Gold.Chemscore.Internal.Correction>
   9.000000E+99

> <Gold.Chemscore.Hbonds>
donor molecule, donor type, donor heavy atom, donor atom, acceptor molecule, acceptor atom, score
      P1  H  6934  6946       L1    20  0.84
      P1  H  7989  7998       L1     7  0.74

> <Gold.Chemscore.Hbond.Weighted>
-6.4097

> <Gold.Chemscore.Metal.Weighted>
-0.0000

> <Gold.Chemscore.Lipo.Weighted>
-11.9355

> <Gold.Chemscore.Internal_Hbond.Weighted>
0.0000

> <Gold.Chemscore.DEClash.Weighted>
0.0121

> <Gold.Chemscore.DEInternal.Weighted>
2.5076

> <Gold.Chemscore.Rot.Weighted>
6.4305

> <Gold.Chemscore.Internal.Correction.Weighted>
   9.000000E+99

> <Gold.Protein.RotatedTorsions>
[ 6907 6896 6895 6894 ] final   80.47 input  -60.11 | X-H torsion
[ 7974 7965 7964 7962 ] final  -94.52 input  175.53 | X-H torsion
[ 8008 7997 7996 7995 ] final   65.67 input   59.86 | X-H torsion
[ 10167 10162 10161 10158 ] final   90.29 input  -65.29 | X-H torsion
[ 10718 10713 10712 10709 ] final  -25.36 input   66.30 | X-H torsion
[ 10763 10752 10751 10750 ] final  -51.56 input  -60.55 | X-H torsion
[ 11005 11000 10999 10996 ] final  -70.49 input  -57.11 | X-H torsion

> <Gold.Protein.ActiveResidues>
 VAL166  LYS551  ARG553  GLY616  TRP617  ASP618  TYR619  PRO620  LYS621  CYS622 
 ASP623  PHE694  ASN695  SER759  ASP760  ASP761  ALA762  ILE779  LEU786  VAL792 
 PHE793  MET794  SER795  GLU796  ALA797  LYS798  CYS799  TRP800  GLU811  SER814 

> <Gold.Protein.RotatedAtoms>
  152.5236  134.3353  159.9197 H   0  0  0  0  0  0  0  0  0  0  0  0  # atno 6907 bound_to 6896
  151.3303  133.3997  159.2669 H   0  0  0  0  0  0  0  0  0  0  0  0  # atno 6908 bound_to 6896
  150.9886  134.9244  159.7944 H   0  0  0  0  0  0  0  0  0  0  0  0  # atno 6909 bound_to 6896
  145.3721  140.9507  143.2441 H   0  0  0  0  0  0  0  0  0  0  0  0  # atno 7974 bound_to 7965
  155.6653  140.3497  155.4798 H   0  0  0  0  0  0  0  0  0  0  0  0  # atno 8008 bound_to 7997
  155.9734  140.1160  157.0815 H   0  0  0  0  0  0  0  0  0  0  0  0  # atno 8009 bound_to 7997
  154.4172  140.1152  156.5323 H   0  0  0  0  0  0  0  0  0  0  0  0  # atno 8010 bound_to 7997
  139.8488  144.6604  150.9195 H   0  0  0  0  0  0  0  0  0  0  0  0  # atno 10167 bound_to 10162
  156.4655  130.4513  149.6902 H   0  0  0  0  0  0  0  0  0  0  0  0  # atno 10718 bound_to 10713
  154.1286  135.6523  153.4917 H   0  0  0  0  0  0  0  0  0  0  0  0  # atno 10763 bound_to 10752
  153.0202  135.5287  154.7024 H   0  0  0  0  0  0  0  0  0  0  0  0  # atno 10764 bound_to 10752
  154.6252  135.2969  155.0250 H   0  0  0  0  0  0  0  0  0  0  0  0  # atno 10765 bound_to 10752
  141.1575  133.6791  156.6761 H   0  0  0  0  0  0  0  0  0  0  0  0  # atno 11005 bound_to 11000
  144.8568  139.5237  143.6830 LP  0  0  0  0  0  0  0  0  0  0  0  0  # atno 17320 bound_to 7965
  146.2880  139.7059  142.9181 LP  0  0  0  0  0  0  0  0  0  0  0  0  # atno 17321 bound_to 7965
  140.7790  143.3846  151.1416 LP  0  0  0  0  0  0  0  0  0  0  0  0  # atno 17342 bound_to 10162
  139.7486  143.8813  152.3070 LP  0  0  0  0  0  0  0  0  0  0  0  0  # atno 17343 bound_to 10162
  156.3673  130.7512  151.2491 LP  0  0  0  0  0  0  0  0  0  0  0  0  # atno 17370 bound_to 10713
  157.7495  131.0333  150.4266 LP  0  0  0  0  0  0  0  0  0  0  0  0  # atno 17371 bound_to 10713
  140.3138  134.8064  157.4197 LP  0  0  0  0  0  0  0  0  0  0  0  0  # atno 17394 bound_to 11000
  140.1156  134.5288  155.8228 LP  0  0  0  0  0  0  0  0  0  0  0  0  # atno 17395 bound_to 11000

$$$$
