AV-unprocessed.smi:3072|AV-procd|sdf|11717|dock7
  -GOLD-   2272017123D 1   1.00000     0.00000
 Structure written by MMmdl.
 25 26  0  0  0  0  0  0  0  0  2 V2000
  152.4250  138.4373  154.8414 C   0  0  0  0  0  0  0  0  0  0  0  0
  151.9965  137.5349  153.9733 N   0  0  0  0  0  0  0  0  0  0  0  0
  150.6903  137.8242  153.8314 N   0  0  0  0  0  0  0  0  0  0  0  0
  150.2935  138.8943  154.5979 C   0  0  0  0  0  0  0  0  0  0  0  0
  151.3998  139.3296  155.2751 C   0  0  0  0  0  0  0  0  0  0  0  0
  151.5325  140.4738  156.2474 C   0  0  2  0  0  0  0  0  0  0  0  0
  151.1081  140.0570  157.6691 C   0  0  0  0  0  0  0  0  0  0  0  0
  151.2097  141.2491  158.6336 C   0  0  0  0  0  0  0  0  0  0  0  0
  150.4054  142.4505  158.1104 C   0  0  0  0  0  0  0  0  0  0  0  0
  150.8394  142.8147  156.7443 N   0  3  0  0  0  0  0  0  0  0  0  0
  150.7157  141.6974  155.7825 C   0  0  0  0  0  0  0  0  0  0  0  0
  150.0917  137.2900  153.2174 H   0  0  0  0  0  0  0  0  0  0  0  0
  153.4656  138.4212  155.1302 H   0  0  0  0  0  0  0  0  0  0  0  0
  149.2741  139.2515  154.5963 H   0  0  0  0  0  0  0  0  0  0  0  0
  152.5791  140.7792  156.2958 H   0  0  0  0  0  0  0  0  0  0  0  0
  150.0825  139.6851  157.6611 H   0  0  0  0  0  0  0  0  0  0  0  0
  151.7338  139.2376  158.0248 H   0  0  0  0  0  0  0  0  0  0  0  0
  150.8504  140.9609  159.6219 H   0  0  0  0  0  0  0  0  0  0  0  0
  152.2558  141.5335  158.7558 H   0  0  0  0  0  0  0  0  0  0  0  0
  149.3394  142.2184  158.0991 H   0  0  0  0  0  0  0  0  0  0  0  0
  150.5376  143.3102  158.7677 H   0  0  0  0  0  0  0  0  0  0  0  0
  150.2815  143.5911  156.4186 H   0  0  0  0  0  0  0  0  0  0  0  0
  151.0627  142.0366  154.8060 H   0  0  0  0  0  0  0  0  0  0  0  0
  149.6613  141.4394  155.6738 H   0  0  0  0  0  0  0  0  0  0  0  0
  151.8072  143.1015  156.7805 H   0  0  0  0  0  0  0  0  0  0  0  0
  1  5  1  0  0  0  0
  1  2  2  0  0  0  0
  1 13  1  0  0  0  0
  2  3  1  0  0  0  0
  3 12  1  0  0  0  0
  3  4  1  0  0  0  0
  4  5  2  0  0  0  0
  4 14  1  0  0  0  0
  5  6  1  0  0  0  0
  6 11  1  0  0  0  0
  6  7  1  0  0  0  0
  6 15  1  0  0  0  0
  7  8  1  0  0  0  0
  7 16  1  0  0  0  0
  7 17  1  0  0  0  0
  8  9  1  0  0  0  0
  8 18  1  0  0  0  0
  8 19  1  0  0  0  0
  9 10  1  0  0  0  0
  9 20  1  0  0  0  0
  9 21  1  0  0  0  0
 10 11  1  0  0  0  0
 10 22  1  0  0  0  0
 10 25  1  0  0  0  0
 11 23  1  0  0  0  0
 11 24  1  0  0  0  0
M  CHG  1  10   1
M  END
> <s_m_source_file>
AV-unprocessed.smi

> <i_m_source_file_index>
3072

> <i_lp_mmshare_version>
43012

> <i_f3d_flags>
0

> <s_epik_input>
W2NIXTFbbkhdbltjSF1jMVtDQEBIXTJbQ0gyXVtDSDJdW0NIMl1bTkhdW0NIMl0y

> <s_epik_cmdline>
J2VwaWtfcHl0aG9uJywgJy1waCcsICc3LjAnLCAnLXRuJywgJzgnLCAnLW1hJywgJzIwMCcsICctbWV0YWxfYmluZGluZycsICctaW1hZScsICc8aW5maWxlLm1hZT4nLCAnLW9tYWUnLCAnPG91dGZpbGUubWFlPic=

> <r_lp_tautomer_probability>
1

> <r_epik_Ionization_Penalty>
0.000160186

> <r_epik_Ionization_Penalty_Charging>
0.000157527

> <r_epik_Ionization_Penalty_Neutral>
2.65916e-06

> <r_epik_State_Penalty>
-0

> <r_epik_Charging_Adjusted_Penalty>
0.000157527

> <i_epik_Tot_Q>
1

> <i_epik_Tot_abs_Q>
1

> <r_epik_Metal_State_Penalty>
-0

> <b_epik_Metal_Only>
0

> <s_lp_Force_Field>
OPLS_2005

> <r_lp_Energy>
12.3326

> <b_lp_Chiralities_Consistent>
1

> <s_lp_Variant>
AV-unprocessed.smi:3072-1

> <Gold.Version>
5.8.1

> <Gold.Id.Protein>
6NUR|6NUR_protein|mol2

> <Gold.PLP.Fitness>
34.2040

> <Gold.PLP.PLP>
-23.6315

> <Gold.PLP.part.hbond>
-3.8744

> <Gold.PLP.part.metal>
0.0000

> <Gold.PLP.part.buried>
-4.8495

> <Gold.PLP.part.nonpolar>
-16.4777

> <Gold.PLP.part.repulsive>
0.6421

> <Gold.PLP.ligand.clash>
0.0000

> <Gold.PLP.ligand.torsion>
0.6108

> <Gold.PLP.Chemscore.Hbond>
3.9273

> <Gold.PLP.Chemscore.CHOScore>
0.0000

> <Gold.PLP.Chemscore.Metal>
0.0000

> <Gold.Chemscore.Hbonds>
donor molecule, donor type, donor heavy atom, donor atom, acceptor molecule, acceptor atom, score
      L1  H     3    12       P1  7948  0.90
      L1  H    10    22       P1  8028  2.00
      P1  H 10752 10764       L1     2  0.80

> <Gold.PLP.Chemscore.Internal.Correction>
0.0123

> <Gold.Rescore>
     Score         DG    S(hbond)    S(metal)    S(lipo)     H(rot)  DE(clash)    DE(int)     intcor
     15.93     -16.66       2.40        0.00      49.07       1.00       0.02       0.71       ----

> <Gold.Chemscore.Fitness>
15.9288

> <Gold.Chemscore.DG>
-16.6608

> <Gold.Chemscore.ZeroCoef>
-5.4800

> <Gold.Chemscore.Hbond>
2.3950

> <Gold.Chemscore.Metal>
0.0000

> <Gold.Chemscore.Lipo>
49.0716

> <Gold.Chemscore.Internal_Hbond>
0.0000

> <Gold.Chemscore.DEClash>
0.0197

> <Gold.Chemscore.DEInternal>
0.7123

> <Gold.Chemscore.Rot>
1.0000

> <Gold.Chemscore.Internal.Correction>
   9.000000E+99

> <Gold.Chemscore.Hbonds>
donor molecule, donor type, donor heavy atom, donor atom, acceptor molecule, acceptor atom, score
      L1  H     3    12       P1  7948  0.17
      L1  H    10    22       P1  8028  0.99
      P1  H 10752 10764       L1     2  0.67

> <Gold.Chemscore.Hbond.Weighted>
-7.9994

> <Gold.Chemscore.Metal.Weighted>
-0.0000

> <Gold.Chemscore.Lipo.Weighted>
-5.7414

> <Gold.Chemscore.Internal_Hbond.Weighted>
0.0000

> <Gold.Chemscore.DEClash.Weighted>
0.0197

> <Gold.Chemscore.DEInternal.Weighted>
0.7123

> <Gold.Chemscore.Rot.Weighted>
2.5600

> <Gold.Chemscore.Internal.Correction.Weighted>
   9.000000E+99

> <Gold.Protein.RotatedTorsions>
[ 6907 6896 6895 6894 ] final  -86.21 input  -60.11 | X-H torsion
[ 7974 7965 7964 7962 ] final -136.55 input  175.53 | X-H torsion
[ 8008 7997 7996 7995 ] final -164.64 input   59.86 | X-H torsion
[ 10167 10162 10161 10158 ] final   19.11 input  -65.29 | X-H torsion
[ 10718 10713 10712 10709 ] final  -85.82 input   66.30 | X-H torsion
[ 10763 10752 10751 10750 ] final  -90.21 input  -60.55 | X-H torsion
[ 11005 11000 10999 10996 ] final  -13.58 input  -57.11 | X-H torsion

> <Gold.Protein.ActiveResidues>
 VAL166  LYS551  ARG553  GLY616  TRP617  ASP618  TYR619  PRO620  LYS621  CYS622 
 ASP623  PHE694  ASN695  SER759  ASP760  ASP761  ALA762  ILE779  LEU786  VAL792 
 PHE793  MET794  SER795  GLU796  ALA797  LYS798  CYS799  TRP800  GLU811  SER814 

> <Gold.Protein.RotatedAtoms>
  150.6867  134.3086  159.4736 H   0  0  0  0  0  0  0  0  0  0  0  0  # atno 6907 bound_to 6896
  152.0974  134.9363  160.0579 H   0  0  0  0  0  0  0  0  0  0  0  0  # atno 6908 bound_to 6896
  152.0655  133.4047  159.4473 H   0  0  0  0  0  0  0  0  0  0  0  0  # atno 6909 bound_to 6896
  144.8918  140.6652  143.5141 H   0  0  0  0  0  0  0  0  0  0  0  0  # atno 7974 bound_to 7965
  155.8384  140.0944  157.1749 H   0  0  0  0  0  0  0  0  0  0  0  0  # atno 8008 bound_to 7997
  154.3981  140.1405  156.3760 H   0  0  0  0  0  0  0  0  0  0  0  0  # atno 8009 bound_to 7997
  155.8090  140.3450  155.5449 H   0  0  0  0  0  0  0  0  0  0  0  0  # atno 8010 bound_to 7997
  140.5603  143.9349  150.6638 H   0  0  0  0  0  0  0  0  0  0  0  0  # atno 10167 bound_to 10162
  155.9994  130.4744  150.4620 H   0  0  0  0  0  0  0  0  0  0  0  0  # atno 10718 bound_to 10713
  154.6633  135.5313  153.8046 H   0  0  0  0  0  0  0  0  0  0  0  0  # atno 10763 bound_to 10752
  153.0455  135.6511  154.0837 H   0  0  0  0  0  0  0  0  0  0  0  0  # atno 10764 bound_to 10752
  154.0744  135.2952  155.3282 H   0  0  0  0  0  0  0  0  0  0  0  0  # atno 10765 bound_to 10752
  140.7775  133.8389  155.9262 H   0  0  0  0  0  0  0  0  0  0  0  0  # atno 11005 bound_to 11000
  145.3770  139.1645  143.4301 LP  0  0  0  0  0  0  0  0  0  0  0  0  # atno 17320 bound_to 7965
  146.3058  140.3848  142.8688 LP  0  0  0  0  0  0  0  0  0  0  0  0  # atno 17321 bound_to 7965
  140.2798  143.3397  152.1162 LP  0  0  0  0  0  0  0  0  0  0  0  0  # atno 17342 bound_to 10162
  139.5067  144.6818  151.5988 LP  0  0  0  0  0  0  0  0  0  0  0  0  # atno 17343 bound_to 10162
  157.2643  131.0573  151.2300 LP  0  0  0  0  0  0  0  0  0  0  0  0  # atno 17370 bound_to 10713
  157.3403  130.7030  149.6377 LP  0  0  0  0  0  0  0  0  0  0  0  0  # atno 17371 bound_to 10713
  140.9514  134.1773  157.4724 LP  0  0  0  0  0  0  0  0  0  0  0  0  # atno 17394 bound_to 11000
  139.8747  134.9910  156.5531 LP  0  0  0  0  0  0  0  0  0  0  0  0  # atno 17395 bound_to 11000

$$$$
