AV-unprocessed.smi:38|AV-procd|sdf|341|dock8
  -GOLD-   2262016183D 1   1.00000     0.00000
 Structure written by MMmdl.
 28 29  0  0  0  0  0  0  0  0  1 V2000
  152.4589  139.8803  156.1275 O   0  0  0  0  0  0  0  0  0  0  0  0
  151.3594  139.7999  155.5834 C   0  0  0  0  0  0  0  0  0  0  0  0
  150.3854  140.7748  155.8197 N   0  0  0  0  0  0  0  0  0  0  0  0
  149.1050  140.7950  155.2635 C   0  0  0  0  0  0  0  0  0  0  0  0
  148.3357  141.7169  155.5315 O   0  0  0  0  0  0  0  0  0  0  0  0
  148.7627  139.7335  154.3964 N   0  0  0  0  0  0  0  0  0  0  0  0
  147.3895  139.6971  153.7656 C   0  0  1  0  0  0  0  0  0  0  0  0
  147.4886  139.4936  152.2532 C   0  0  0  0  0  0  0  0  0  0  0  0
  146.3174  138.5674  152.0007 C   0  0  1  0  0  0  0  0  0  0  0  0
  146.5160  137.8123  150.8230 O   0  0  0  0  0  0  0  0  0  0  0  0
  146.3225  137.6983  153.2611 C   0  0  2  0  0  0  0  0  0  0  0  0
  144.9586  137.0636  153.5727 C   0  0  0  0  0  0  0  0  0  0  0  0
  144.0003  138.0705  153.8176 O   0  0  0  0  0  0  0  0  0  0  0  0
  146.6745  138.6188  154.2942 O   0  0  0  0  0  0  0  0  0  0  0  0
  149.7027  138.7484  154.1241 C   0  0  0  0  0  0  0  0  0  0  0  0
  150.9432  138.7426  154.6667 C   0  0  0  0  0  0  0  0  0  0  0  0
  151.8004  137.7559  154.3541 F   0  0  0  0  0  0  0  0  0  0  0  0
  150.6307  141.5301  156.4432 H   0  0  0  0  0  0  0  0  0  0  0  0
  146.8601  140.6087  154.0468 H   0  0  0  0  0  0  0  0  0  0  0  0
  145.3928  139.1426  151.9307 H   0  0  0  0  0  0  0  0  0  0  0  0
  147.0999  136.9369  153.1748 H   0  0  0  0  0  0  0  0  0  0  0  0
  147.4290  140.4422  151.7190 H   0  0  0  0  0  0  0  0  0  0  0  0
  148.4323  139.0032  152.0067 H   0  0  0  0  0  0  0  0  0  0  0  0
  145.7751  137.9445  150.2512 H   0  0  0  0  0  0  0  0  0  0  0  0
  144.6288  136.4125  152.7625 H   0  0  0  0  0  0  0  0  0  0  0  0
  145.0266  136.4526  154.4732 H   0  0  0  0  0  0  0  0  0  0  0  0
  144.0831  138.7334  153.1493 H   0  0  0  0  0  0  0  0  0  0  0  0
  149.4485  137.9471  153.4470 H   0  0  0  0  0  0  0  0  0  0  0  0
  1  2  2  0  0  0  0
  2 16  1  0  0  0  0
  2  3  1  0  0  0  0
  3 18  1  0  0  0  0
  3  4  1  0  0  0  0
  4  5  2  0  0  0  0
  4  6  1  0  0  0  0
  6  7  1  0  0  0  0
  6 15  1  0  0  0  0
  7 19  1  0  0  0  0
  7 14  1  0  0  0  0
  7  8  1  0  0  0  0
  8  9  1  0  0  0  0
  8 22  1  0  0  0  0
  8 23  1  0  0  0  0
  9 20  1  0  0  0  0
  9 10  1  0  0  0  0
  9 11  1  0  0  0  0
 10 24  1  0  0  0  0
 11 21  1  0  0  0  0
 11 12  1  0  0  0  0
 11 14  1  0  0  0  0
 12 13  1  0  0  0  0
 12 25  1  0  0  0  0
 12 26  1  0  0  0  0
 13 27  1  0  0  0  0
 15 16  2  0  0  0  0
 15 28  1  0  0  0  0
 16 17  1  0  0  0  0
M  END
> <s_m_source_file>
AV-unprocessed.smi

> <i_m_source_file_index>
38

> <i_lp_mmshare_version>
43012

> <i_f3d_flags>
0

> <s_epik_input>
Tz1jMVtuSF1jKD1PKW4oW2NIXWMxRilbQ0BIXTJbQ0gyXVtDQEhdKFtPSF0pW0NASF0oTzIpW0NIMl1bT0hd

> <s_epik_cmdline>
J2VwaWtfcHl0aG9uJywgJy1waCcsICc3LjAnLCAnLXRuJywgJzgnLCAnLW1hJywgJzIwMCcsICctbWV0YWxfYmluZGluZycsICctaW1hZScsICc8aW5maWxlLm1hZT4nLCAnLW9tYWUnLCAnPG91dGZpbGUubWFlPic=

> <r_lp_tautomer_probability>
0.999537

> <r_epik_Ionization_Penalty>
0.0357432

> <r_epik_Ionization_Penalty_Charging>
0.0357431

> <r_epik_Ionization_Penalty_Neutral>
1.19946e-07

> <r_epik_State_Penalty>
0.0298169

> <r_epik_Charging_Adjusted_Penalty>
0.06556

> <i_epik_Tot_Q>
0

> <i_epik_Tot_abs_Q>
0

> <r_epik_Metal_State_Penalty>
2.348

> <b_epik_Metal_Only>
0

> <s_epik_Chemistry_Notes>
This compound contains an acetal/aminal-like group ( X-CH(R)-Y where X, Y are N, S, or O) that may be acid/base labile, releasing an aldehyde.

> <s_lp_Force_Field>
OPLS_2005

> <r_lp_Energy>
27.15

> <b_lp_Chiralities_Consistent>
1

> <s_lp_Variant>
AV-unprocessed.smi:38-7

> <Gold.Version>
5.8.1

> <Gold.Id.Protein>
6NUR|6NUR_protein|mol2

> <Gold.PLP.Fitness>
41.7888

> <Gold.PLP.PLP>
-27.1208

> <Gold.PLP.part.hbond>
-4.9429

> <Gold.PLP.part.metal>
0.0000

> <Gold.PLP.part.buried>
1.4090

> <Gold.PLP.part.nonpolar>
-25.4856

> <Gold.PLP.part.repulsive>
0.9022

> <Gold.PLP.ligand.clash>
0.0000

> <Gold.PLP.ligand.torsion>
0.1708

> <Gold.PLP.Chemscore.Hbond>
4.0000

> <Gold.PLP.Chemscore.CHOScore>
1.0000

> <Gold.PLP.Chemscore.Metal>
0.0000

> <Gold.Chemscore.Hbonds>
donor molecule, donor type, donor heavy atom, donor atom, acceptor molecule, acceptor atom, score
      L1  H    10    24       P1 10171  0.98
      L1  H    13    27       P1 10175  1.00
      P1  H  7954  7966       L1    10  1.00
      P1  H  7997  8010       L1     1  1.00
      L1  C    15    28       P1  7948  1.00

> <Gold.PLP.Chemscore.Internal.Correction>
0.0097

> <Gold.Rescore>
     Score         DG    S(hbond)    S(metal)    S(lipo)     H(rot)  DE(clash)    DE(int)     intcor
     14.09     -16.14       3.93        0.00      42.79       2.91       1.88       0.17       ----

> <Gold.Chemscore.Fitness>
14.0916

> <Gold.Chemscore.DG>
-16.1362

> <Gold.Chemscore.ZeroCoef>
-5.4800

> <Gold.Chemscore.Hbond>
3.9250

> <Gold.Chemscore.Metal>
0.0000

> <Gold.Chemscore.Lipo>
42.7921

> <Gold.Chemscore.Internal_Hbond>
0.0000

> <Gold.Chemscore.DEClash>
1.8785

> <Gold.Chemscore.DEInternal>
0.1660

> <Gold.Chemscore.Rot>
2.9141

> <Gold.Chemscore.Internal.Correction>
   9.000000E+99

> <Gold.Chemscore.Hbonds>
donor molecule, donor type, donor heavy atom, donor atom, acceptor molecule, acceptor atom, score
      L1  H    10    24       P1 10171  0.89
      L1  H    13    27       P1 10175  0.94
      P1  H  7954  7966       L1    10  0.80
      P1  H  7997  8010       L1     1  1.00

> <Gold.Chemscore.Hbond.Weighted>
-13.1096

> <Gold.Chemscore.Metal.Weighted>
-0.0000

> <Gold.Chemscore.Lipo.Weighted>
-5.0067

> <Gold.Chemscore.Internal_Hbond.Weighted>
0.0000

> <Gold.Chemscore.DEClash.Weighted>
1.8785

> <Gold.Chemscore.DEInternal.Weighted>
0.1660

> <Gold.Chemscore.Rot.Weighted>
7.4601

> <Gold.Chemscore.Internal.Correction.Weighted>
   9.000000E+99

> <Gold.Protein.RotatedTorsions>
[ 6907 6896 6895 6894 ] final -110.96 input  -60.11 | X-H torsion
[ 7974 7965 7964 7962 ] final  154.78 input  175.53 | X-H torsion
[ 8008 7997 7996 7995 ] final   78.17 input   59.86 | X-H torsion
[ 10167 10162 10161 10158 ] final  -46.80 input  -65.29 | X-H torsion
[ 10718 10713 10712 10709 ] final -102.84 input   66.30 | X-H torsion
[ 10763 10752 10751 10750 ] final  141.01 input  -60.55 | X-H torsion
[ 11005 11000 10999 10996 ] final   91.24 input  -57.11 | X-H torsion

> <Gold.Protein.ActiveResidues>
 VAL166  LYS551  ARG553  GLY616  TRP617  ASP618  TYR619  PRO620  LYS621  CYS622 
 ASP623  PHE694  ASN695  SER759  ASP760  ASP761  ALA762  ILE779  LEU786  VAL792 
 PHE793  MET794  SER795  GLU796  ALA797  LYS798  CYS799  TRP800  GLU811  SER814 

> <Gold.Protein.RotatedAtoms>
  150.7659  133.9305  159.3425 H   0  0  0  0  0  0  0  0  0  0  0  0  # atno 6907 bound_to 6896
  151.7203  135.0893  160.0292 H   0  0  0  0  0  0  0  0  0  0  0  0  # atno 6908 bound_to 6896
  152.3654  133.6312  159.6082 H   0  0  0  0  0  0  0  0  0  0  0  0  # atno 6909 bound_to 6896
  144.8066  139.6980  143.6159 H   0  0  0  0  0  0  0  0  0  0  0  0  # atno 7974 bound_to 7965
  155.8520  140.3457  155.5699 H   0  0  0  0  0  0  0  0  0  0  0  0  # atno 8008 bound_to 7997
  155.8027  140.0887  157.1967 H   0  0  0  0  0  0  0  0  0  0  0  0  # atno 8009 bound_to 7997
  154.4008  140.1462  156.3281 H   0  0  0  0  0  0  0  0  0  0  0  0  # atno 8010 bound_to 7997
  140.6802  143.2814  151.3835 H   0  0  0  0  0  0  0  0  0  0  0  0  # atno 10167 bound_to 10162
  156.0243  130.5439  150.7166 H   0  0  0  0  0  0  0  0  0  0  0  0  # atno 10718 bound_to 10713
  153.9322  135.2989  155.3445 H   0  0  0  0  0  0  0  0  0  0  0  0  # atno 10763 bound_to 10752
  154.7521  135.4975  153.9310 H   0  0  0  0  0  0  0  0  0  0  0  0  # atno 10764 bound_to 10752
  153.1085  135.6753  153.9647 H   0  0  0  0  0  0  0  0  0  0  0  0  # atno 10765 bound_to 10752
  139.8842  134.8662  156.3400 H   0  0  0  0  0  0  0  0  0  0  0  0  # atno 11005 bound_to 11000
  146.2359  139.5904  142.9524 LP  0  0  0  0  0  0  0  0  0  0  0  0  # atno 17320 bound_to 7965
  145.5423  141.0420  143.2324 LP  0  0  0  0  0  0  0  0  0  0  0  0  # atno 17321 bound_to 7965
  139.6120  144.1079  152.2308 LP  0  0  0  0  0  0  0  0  0  0  0  0  # atno 17342 bound_to 10162
  140.0497  144.5943  150.7346 LP  0  0  0  0  0  0  0  0  0  0  0  0  # atno 17343 bound_to 10162
  157.4792  131.0900  151.0556 LP  0  0  0  0  0  0  0  0  0  0  0  0  # atno 17370 bound_to 10713
  157.0994  130.5975  149.5457 LP  0  0  0  0  0  0  0  0  0  0  0  0  # atno 17371 bound_to 10713
  140.9665  133.7355  156.0474 LP  0  0  0  0  0  0  0  0  0  0  0  0  # atno 17394 bound_to 11000
  140.7925  134.3602  157.5461 LP  0  0  0  0  0  0  0  0  0  0  0  0  # atno 17395 bound_to 11000

$$$$
