AV-unprocessed.smi:1225|AV-procd|sdf|5143|dock1
  -GOLD-   22720 4213D 1   1.00000     0.00000
 Structure written by MMmdl.
 49 51  0  0  0  0  0  0  0  0  2 V2000
  145.1759  133.6709  152.7538 C   0  0  0  0  0  0  0  0  0  0  0  0
  145.3559  135.1427  152.9049 C   0  0  0  0  0  0  0  0  0  0  0  0
  144.6775  136.0478  152.1959 N   0  0  0  0  0  0  0  0  0  0  0  0
  145.0336  137.3579  152.5219 C   0  0  0  0  0  0  0  0  0  0  0  0
  145.9962  137.4446  153.4978 C   0  0  0  0  0  0  0  0  0  0  0  0
  146.5986  138.6818  154.0817 C   0  0  0  0  0  0  0  0  0  0  0  0
  146.4587  139.8646  153.1943 N   0  3  2  0  0  0  0  0  0  0  0  0
  146.9053  139.5920  151.8050 C   0  0  0  0  0  0  0  0  0  0  0  0
  147.0910  141.0792  153.7719 C   0  0  0  0  0  0  0  0  0  0  0  0
  148.5325  140.8194  154.2633 C   0  0  1  0  0  0  0  0  0  0  0  0
  149.4270  141.0693  153.1983 O   0  0  0  0  0  0  0  0  0  0  0  0
  148.9489  141.7144  155.4479 C   0  0  0  0  0  0  0  0  0  0  0  0
  150.0771  141.1757  156.1855 N   0  0  0  0  0  0  0  0  0  0  0  0
  150.7211  140.0152  155.9534 C   0  0  0  0  0  0  0  0  0  0  0  0
  151.7437  139.7172  156.7489 N   0  0  0  0  0  0  0  0  0  0  0  0
  151.7568  140.8037  157.6066 C   0  0  0  0  0  0  0  0  0  0  0  0
  152.6061  141.1034  158.6940 C   0  0  0  0  0  0  0  0  0  0  0  0
  152.4332  142.2890  159.4431 C   0  0  0  0  0  0  0  0  0  0  0  0
  153.3690  142.5711  160.6055 C   0  0  0  0  0  0  0  0  0  0  0  0
  151.3965  143.1968  159.1078 C   0  0  0  0  0  0  0  0  0  0  0  0
  151.1887  144.4742  159.9021 C   0  0  0  0  0  0  0  0  0  0  0  0
  150.5401  142.9135  158.0234 C   0  0  0  0  0  0  0  0  0  0  0  0
  150.7235  141.7315  157.2843 C   0  0  0  0  0  0  0  0  0  0  0  0
  146.4903  135.8615  154.0412 S   0  0  0  0  0  0  0  0  0  0  0  0
  144.3874  133.4515  152.0332 H   0  0  0  0  0  0  0  0  0  0  0  0
  144.9060  133.2279  153.7125 H   0  0  0  0  0  0  0  0  0  0  0  0
  146.1035  133.2161  152.4058 H   0  0  0  0  0  0  0  0  0  0  0  0
  144.5463  138.1742  152.0093 H   0  0  0  0  0  0  0  0  0  0  0  0
  146.1060  138.8779  155.0348 H   0  0  0  0  0  0  0  0  0  0  0  0
  147.6530  138.5193  154.3100 H   0  0  0  0  0  0  0  0  0  0  0  0
  147.9645  139.3333  151.7804 H   0  0  0  0  0  0  0  0  0  0  0  0
  146.7544  140.4542  151.1572 H   0  0  0  0  0  0  0  0  0  0  0  0
  146.3451  138.7669  151.3653 H   0  0  0  0  0  0  0  0  0  0  0  0
  147.1277  141.8771  153.0287 H   0  0  0  0  0  0  0  0  0  0  0  0
  146.4576  141.4496  154.5791 H   0  0  0  0  0  0  0  0  0  0  0  0
  148.6509  139.7781  154.5604 H   0  0  0  0  0  0  0  0  0  0  0  0
  149.3400  140.3752  152.5618 H   0  0  0  0  0  0  0  0  0  0  0  0
  149.2182  142.7111  155.0955 H   0  0  0  0  0  0  0  0  0  0  0  0
  148.1138  141.8419  156.1387 H   0  0  0  0  0  0  0  0  0  0  0  0
  150.4288  139.3561  155.1487 H   0  0  0  0  0  0  0  0  0  0  0  0
  153.3947  140.4112  158.9503 H   0  0  0  0  0  0  0  0  0  0  0  0
  152.8067  142.6776  161.5330 H   0  0  0  0  0  0  0  0  0  0  0  0
  153.9275  143.4908  160.4311 H   0  0  0  0  0  0  0  0  0  0  0  0
  154.0888  141.7638  160.7427 H   0  0  0  0  0  0  0  0  0  0  0  0
  150.3686  145.0666  159.4958 H   0  0  0  0  0  0  0  0  0  0  0  0
  152.0881  145.0898  159.8805 H   0  0  0  0  0  0  0  0  0  0  0  0
  150.9517  144.2425  160.9407 H   0  0  0  0  0  0  0  0  0  0  0  0
  149.7454  143.5956  157.7605 H   0  0  0  0  0  0  0  0  0  0  0  0
  145.4690  140.0639  153.1555 H   0  0  0  0  0  0  0  0  0  0  0  0
  1  2  1  0  0  0  0
  1 25  1  0  0  0  0
  1 26  1  0  0  0  0
  1 27  1  0  0  0  0
  2 24  1  0  0  0  0
  2  3  2  0  0  0  0
  3  4  1  0  0  0  0
  4  5  2  0  0  0  0
  4 28  1  0  0  0  0
  5  6  1  0  0  0  0
  5 24  1  0  0  0  0
  6  7  1  0  0  0  0
  6 29  1  0  0  0  0
  6 30  1  0  0  0  0
  7  8  1  0  0  0  0
  7  9  1  0  0  0  0
  7 49  1  0  0  0  0
  8 31  1  0  0  0  0
  8 32  1  0  0  0  0
  8 33  1  0  0  0  0
  9 10  1  0  0  0  0
  9 34  1  0  0  0  0
  9 35  1  0  0  0  0
 10 11  1  0  0  0  0
 10 12  1  0  0  0  0
 10 36  1  0  0  0  0
 11 37  1  0  0  0  0
 12 13  1  0  0  0  0
 12 38  1  0  0  0  0
 12 39  1  0  0  0  0
 13 23  1  0  0  0  0
 13 14  1  0  0  0  0
 14 15  2  0  0  0  0
 14 40  1  0  0  0  0
 15 16  1  0  0  0  0
 16 23  2  0  0  0  0
 16 17  1  0  0  0  0
 17 18  2  0  0  0  0
 17 41  1  0  0  0  0
 18 19  1  0  0  0  0
 18 20  1  0  0  0  0
 19 42  1  0  0  0  0
 19 43  1  0  0  0  0
 19 44  1  0  0  0  0
 20 21  1  0  0  0  0
 20 22  2  0  0  0  0
 21 45  1  0  0  0  0
 21 46  1  0  0  0  0
 21 47  1  0  0  0  0
 22 23  1  0  0  0  0
 22 48  1  0  0  0  0
M  CHG  1   7   1
M  END
> <s_m_source_file>
AV-unprocessed.smi

> <i_m_source_file_index>
1225

> <i_lp_mmshare_version>
43012

> <i_f3d_flags>
0

> <s_epik_input>
W0NIM11jMW5bY0hdYyhzMSlbQ0gyXU4oW0NIM10pW0NIMl1bQ0BIXShbT0hdKVtDSDJdbihbY0hdbjIpYyhjMjMpW2NIXWMoW0NIM10pYyhbY0hdMylbQ0gzXQ==

> <s_epik_cmdline>
J2VwaWtfcHl0aG9uJywgJy1waCcsICc3LjAnLCAnLXRuJywgJzgnLCAnLW1hJywgJzIwMCcsICctbWV0YWxfYmluZGluZycsICctaW1hZScsICc8aW5maWxlLm1hZT4nLCAnLW9tYWUnLCAnPG91dGZpbGUubWFlPic=

> <r_epik_Ionization_Penalty>
1.62543

> <r_epik_Ionization_Penalty_Charging>
1.53932

> <r_epik_Ionization_Penalty_Neutral>
0.0861152

> <r_epik_State_Penalty>
1.73127

> <r_epik_Charging_Adjusted_Penalty>
3.27059

> <i_epik_Tot_Q>
1

> <i_epik_Tot_abs_Q>
1

> <r_epik_Metal_State_Penalty>
1.71387

> <b_epik_Metal_Only>
0

> <s_lp_Force_Field>
OPLS_2005

> <r_lp_Energy>
12.5396

> <b_lp_Chiralities_Consistent>
1

> <s_lp_Variant>
AV-unprocessed.smi:1225-8

> <Gold.Version>
5.8.1

> <Gold.Id.Protein>
6NUR|6NUR_protein|mol2

> <Gold.PLP.Fitness>
57.8005

> <Gold.PLP.PLP>
-41.7607

> <Gold.PLP.part.hbond>
-3.1926

> <Gold.PLP.part.metal>
0.0000

> <Gold.PLP.part.buried>
-2.4928

> <Gold.PLP.part.nonpolar>
-37.3610

> <Gold.PLP.part.repulsive>
0.1382

> <Gold.PLP.ligand.clash>
0.0000

> <Gold.PLP.ligand.torsion>
1.0024

> <Gold.PLP.Chemscore.Hbond>
3.7821

> <Gold.PLP.Chemscore.CHOScore>
2.0000

> <Gold.PLP.Chemscore.Metal>
0.0000

> <Gold.Chemscore.Hbonds>
donor molecule, donor type, donor heavy atom, donor atom, acceptor molecule, acceptor atom, score
      L1  H     7    49       P1 10175  2.00
      L1  H    11    37       P1  7957  0.69
      P1  H  7989  7998       L1    11  0.06
      P1  H  8011  8017       L1    11  1.00
      L1  C     4    28       P1 10171  1.00
      L1  C     4    28       P1 10175  1.00

> <Gold.PLP.Chemscore.Internal.Correction>
0.6984

> <Gold.Rescore>
     Score         DG    S(hbond)    S(metal)    S(lipo)     H(rot)  DE(clash)    DE(int)     intcor
     19.93     -21.53       2.39        0.00     121.05       2.37       0.69       0.92       ----

> <Gold.Chemscore.Fitness>
19.9260

> <Gold.Chemscore.DG>
-21.5329

> <Gold.Chemscore.ZeroCoef>
-5.4800

> <Gold.Chemscore.Hbond>
2.3864

> <Gold.Chemscore.Metal>
0.0000

> <Gold.Chemscore.Lipo>
121.0455

> <Gold.Chemscore.Internal_Hbond>
0.0000

> <Gold.Chemscore.DEClash>
0.6867

> <Gold.Chemscore.DEInternal>
0.9202

> <Gold.Chemscore.Rot>
2.3750

> <Gold.Chemscore.Internal.Correction>
   9.000000E+99

> <Gold.Chemscore.Hbonds>
donor molecule, donor type, donor heavy atom, donor atom, acceptor molecule, acceptor atom, score
      L1  H     7    49       P1 10175  0.98
      L1  H    11    37       P1  7957  0.68
      P1  H  7989  7998       L1    11  0.01
      P1  H  8011  8017       L1    11  0.50

> <Gold.Chemscore.Hbond.Weighted>
-7.9705

> <Gold.Chemscore.Metal.Weighted>
-0.0000

> <Gold.Chemscore.Lipo.Weighted>
-14.1623

> <Gold.Chemscore.Internal_Hbond.Weighted>
0.0000

> <Gold.Chemscore.DEClash.Weighted>
0.6867

> <Gold.Chemscore.DEInternal.Weighted>
0.9202

> <Gold.Chemscore.Rot.Weighted>
6.0800

> <Gold.Chemscore.Internal.Correction.Weighted>
   9.000000E+99

> <Gold.Protein.RotatedTorsions>
[ 6907 6896 6895 6894 ] final   79.40 input  -60.11 | X-H torsion
[ 7974 7965 7964 7962 ] final  125.24 input  175.53 | X-H torsion
[ 8008 7997 7996 7995 ] final   45.72 input   59.86 | X-H torsion
[ 10167 10162 10161 10158 ] final -143.41 input  -65.29 | X-H torsion
[ 10718 10713 10712 10709 ] final  123.18 input   66.30 | X-H torsion
[ 10763 10752 10751 10750 ] final -111.78 input  -60.55 | X-H torsion
[ 11005 11000 10999 10996 ] final    5.33 input  -57.11 | X-H torsion

> <Gold.Protein.ActiveResidues>
 VAL166  LYS551  ARG553  GLY616  TRP617  ASP618  TYR619  PRO620  LYS621  CYS622 
 ASP623  PHE694  ASN695  SER759  ASP760  ASP761  ALA762  ILE779  LEU786  VAL792 
 PHE793  MET794  SER795  GLU796  ALA797  LYS798  CYS799  TRP800  GLU811  SER814 

> <Gold.Protein.RotatedAtoms>
  152.5197  134.3517  159.9253 H   0  0  0  0  0  0  0  0  0  0  0  0  # atno 6907 bound_to 6896
  151.3468  133.3934  159.2684 H   0  0  0  0  0  0  0  0  0  0  0  0  # atno 6908 bound_to 6896
  150.9759  134.9142  159.7873 H   0  0  0  0  0  0  0  0  0  0  0  0  # atno 6909 bound_to 6896
  145.0752  139.3699  143.4937 H   0  0  0  0  0  0  0  0  0  0  0  0  # atno 7974 bound_to 7965
  155.3406  140.3408  155.4239 H   0  0  0  0  0  0  0  0  0  0  0  0  # atno 8008 bound_to 7997
  156.1815  140.1666  156.8301 H   0  0  0  0  0  0  0  0  0  0  0  0  # atno 8009 bound_to 7997
  154.5339  140.0739  156.8376 H   0  0  0  0  0  0  0  0  0  0  0  0  # atno 8010 bound_to 7997
  139.7996  143.7852  152.2657 H   0  0  0  0  0  0  0  0  0  0  0  0  # atno 10167 bound_to 10162
  157.5685  131.1085  150.8411 H   0  0  0  0  0  0  0  0  0  0  0  0  # atno 10718 bound_to 10713
  154.8317  135.4515  154.1092 H   0  0  0  0  0  0  0  0  0  0  0  0  # atno 10763 bound_to 10752
  153.2359  135.6911  153.7844 H   0  0  0  0  0  0  0  0  0  0  0  0  # atno 10764 bound_to 10752
  153.7209  135.3342  155.3242 H   0  0  0  0  0  0  0  0  0  0  0  0  # atno 10765 bound_to 10752
  140.5719  134.0094  155.8012 H   0  0  0  0  0  0  0  0  0  0  0  0  # atno 11005 bound_to 11000
  146.3530  140.0516  142.8635 LP  0  0  0  0  0  0  0  0  0  0  0  0  # atno 17320 bound_to 7965
  145.1244  140.9481  143.4581 LP  0  0  0  0  0  0  0  0  0  0  0  0  # atno 17321 bound_to 7965
  139.7968  144.7389  150.9880 LP  0  0  0  0  0  0  0  0  0  0  0  0  # atno 17342 bound_to 10162
  140.7820  143.4386  151.0586 LP  0  0  0  0  0  0  0  0  0  0  0  0  # atno 17343 bound_to 10162
  156.8889  130.5206  149.5287 LP  0  0  0  0  0  0  0  0  0  0  0  0  # atno 17370 bound_to 10713
  156.0731  130.5760  150.9422 LP  0  0  0  0  0  0  0  0  0  0  0  0  # atno 17371 bound_to 10713
  141.1051  133.9707  157.3011 LP  0  0  0  0  0  0  0  0  0  0  0  0  # atno 17394 bound_to 11000
  139.9358  135.0196  156.8550 LP  0  0  0  0  0  0  0  0  0  0  0  0  # atno 17395 bound_to 11000

$$$$
