AV-unprocessed.smi:1492|AV-procd|sdf|6040|dock3
  -GOLD-   22720 6153D 1   1.00000     0.00000
 Structure written by MMmdl.
 52 53  0  0  0  0  0  0  0  0  1 V2000
  147.7258  140.7436  153.5316 C   0  0  0  0  0  0  0  0  0  0  0  0
  147.8136  139.2493  153.8927 C   0  0  0  0  0  0  0  0  0  0  0  0
  148.2609  138.9053  155.3491 C   0  0  1  0  0  0  0  0  0  0  0  0
  147.4490  139.7818  156.3409 C   0  0  0  0  0  0  0  0  0  0  0  0
  147.8776  137.4253  155.6614 C   0  0  0  0  0  0  0  0  0  0  0  0
  148.0997  137.1019  157.0683 N   0  0  0  0  0  0  0  0  0  0  0  0
  147.4660  136.1525  157.7711 C   0  0  0  0  0  0  0  0  0  0  0  0
  146.4861  135.5316  157.3606 O   0  0  0  0  0  0  0  0  0  0  0  0
  148.0712  135.8259  159.1351 C   0  0  0  0  0  0  0  0  0  0  0  0
  147.0402  135.5279  160.2227 C   0  0  0  0  0  0  0  0  0  0  0  0
  146.2498  134.4247  160.2077 C   0  0  0  0  0  0  0  0  0  0  0  0
  146.2771  133.3650  159.1207 C   0  0  0  0  0  0  0  0  0  0  0  0
  145.3479  134.1761  161.2271 N   0  0  0  0  0  0  0  0  0  0  0  0
  145.2896  135.0788  162.2755 C   0  0  0  0  0  0  0  0  0  0  0  0
  144.2965  134.6972  163.3512 C   0  0  0  0  0  0  0  0  0  0  0  0
  146.0018  136.1589  162.3808 N   0  0  0  0  0  0  0  0  0  0  0  0
  146.9227  136.4642  161.3662 C   0  0  0  0  0  0  0  0  0  0  0  0
  147.6158  137.4781  161.4414 O   0  0  0  0  0  0  0  0  0  0  0  0
  149.7236  139.1237  155.5552 N   0  0  0  0  0  0  0  0  0  0  0  0
  150.5994  138.4461  154.5916 C   0  0  0  0  0  0  0  0  0  0  0  0
  152.0829  138.5800  154.9719 C   0  0  0  0  0  0  0  0  0  0  0  0
  152.4287  139.9558  155.0756 O   0  0  0  0  0  0  0  0  0  0  0  0
  151.6356  140.6464  156.0335 C   0  0  0  0  0  0  0  0  0  0  0  0
  150.1469  140.5245  155.6647 C   0  0  0  0  0  0  0  0  0  0  0  0
  144.7843  133.3394  161.1802 H   0  0  0  0  0  0  0  0  0  0  0  0
  147.4177  140.8618  152.4927 H   0  0  0  0  0  0  0  0  0  0  0  0
  148.6856  141.2480  153.6381 H   0  0  0  0  0  0  0  0  0  0  0  0
  146.9929  141.2704  154.1417 H   0  0  0  0  0  0  0  0  0  0  0  0
  146.8351  138.8135  153.6934 H   0  0  0  0  0  0  0  0  0  0  0  0
  148.4937  138.7867  153.1781 H   0  0  0  0  0  0  0  0  0  0  0  0
  146.4054  139.4727  156.4019 H   0  0  0  0  0  0  0  0  0  0  0  0
  147.4434  140.8322  156.0489 H   0  0  0  0  0  0  0  0  0  0  0  0
  147.8541  139.7239  157.3521 H   0  0  0  0  0  0  0  0  0  0  0  0
  146.8206  137.2468  155.4648 H   0  0  0  0  0  0  0  0  0  0  0  0
  148.4089  136.7369  155.0031 H   0  0  0  0  0  0  0  0  0  0  0  0
  148.8875  137.5551  157.5084 H   0  0  0  0  0  0  0  0  0  0  0  0
  148.7668  134.9924  159.0286 H   0  0  0  0  0  0  0  0  0  0  0  0
  148.6922  136.6660  159.4465 H   0  0  0  0  0  0  0  0  0  0  0  0
  147.2718  132.9258  159.0434 H   0  0  0  0  0  0  0  0  0  0  0  0
  146.0135  133.7994  158.1563 H   0  0  0  0  0  0  0  0  0  0  0  0
  145.5723  132.5588  159.3275 H   0  0  0  0  0  0  0  0  0  0  0  0
  144.2568  135.4574  164.1323 H   0  0  0  0  0  0  0  0  0  0  0  0
  144.5819  133.7506  163.8110 H   0  0  0  0  0  0  0  0  0  0  0  0
  143.2974  134.5912  162.9274 H   0  0  0  0  0  0  0  0  0  0  0  0
  150.3654  137.3858  154.5247 H   0  0  0  0  0  0  0  0  0  0  0  0
  150.4579  138.8631  153.5945 H   0  0  0  0  0  0  0  0  0  0  0  0
  152.2855  138.0744  155.9157 H   0  0  0  0  0  0  0  0  0  0  0  0
  152.7124  138.1100  154.2163 H   0  0  0  0  0  0  0  0  0  0  0  0
  151.8193  140.2406  157.0287 H   0  0  0  0  0  0  0  0  0  0  0  0
  151.9362  141.6938  156.0556 H   0  0  0  0  0  0  0  0  0  0  0  0
  149.9738  141.0477  154.7245 H   0  0  0  0  0  0  0  0  0  0  0  0
  149.5746  141.0475  156.4288 H   0  0  0  0  0  0  0  0  0  0  0  0
  1  2  1  0  0  0  0
  1 26  1  0  0  0  0
  1 27  1  0  0  0  0
  1 28  1  0  0  0  0
  2  3  1  0  0  0  0
  2 29  1  0  0  0  0
  2 30  1  0  0  0  0
  3  4  1  0  0  0  0
  3  5  1  0  0  0  0
  3 19  1  0  0  0  0
  4 31  1  0  0  0  0
  4 32  1  0  0  0  0
  4 33  1  0  0  0  0
  5  6  1  0  0  0  0
  5 34  1  0  0  0  0
  5 35  1  0  0  0  0
  6  7  1  0  0  0  0
  6 36  1  0  0  0  0
  7  8  2  0  0  0  0
  7  9  1  0  0  0  0
  9 37  1  0  0  0  0
  9 38  1  0  0  0  0
  9 10  1  0  0  0  0
 10 17  1  0  0  0  0
 10 11  2  0  0  0  0
 11 12  1  0  0  0  0
 11 13  1  0  0  0  0
 12 39  1  0  0  0  0
 12 40  1  0  0  0  0
 12 41  1  0  0  0  0
 13 25  1  0  0  0  0
 13 14  1  0  0  0  0
 14 15  1  0  0  0  0
 14 16  2  0  0  0  0
 15 42  1  0  0  0  0
 15 43  1  0  0  0  0
 15 44  1  0  0  0  0
 16 17  1  0  0  0  0
 17 18  2  0  0  0  0
 19 24  1  0  0  0  0
 19 20  1  0  0  0  0
 20 21  1  0  0  0  0
 20 45  1  0  0  0  0
 20 46  1  0  0  0  0
 21 22  1  0  0  0  0
 21 47  1  0  0  0  0
 21 48  1  0  0  0  0
 22 23  1  0  0  0  0
 23 24  1  0  0  0  0
 23 49  1  0  0  0  0
 23 50  1  0  0  0  0
 24 51  1  0  0  0  0
 24 52  1  0  0  0  0
M  END
> <s_m_source_file>
AV-unprocessed.smi

> <i_m_source_file_index>
1492

> <i_lp_mmshare_version>
43012

> <i_f3d_flags>
0

> <s_epik_input>
W0NIMl0xW0NIMl1PW0NIMl1bQ0gyXU4xW0NAQF0oW0NIM10pKFtDSDJdW0NIM10pW0NIMl1bTkhdQyg9TylbQ0gyXWMyYyhbQ0gzXSluYyhbQ0gzXSlbbkhdYzI9Tw==

> <s_epik_cmdline>
J2VwaWtfcHl0aG9uJywgJy1waCcsICc3LjAnLCAnLXRuJywgJzgnLCAnLW1hJywgJzIwMCcsICctbWV0YWxfYmluZGluZycsICctaW1hZScsICc8aW5maWxlLm1hZT4nLCAnLW9tYWUnLCAnPG91dGZpbGUubWFlPic=

> <r_lp_tautomer_probability>
0.156392

> <r_epik_Ionization_Penalty>
0.342516

> <r_epik_Ionization_Penalty_Charging>
0.0141408

> <r_epik_Ionization_Penalty_Neutral>
0.328375

> <r_epik_State_Penalty>
1.47662

> <r_epik_Charging_Adjusted_Penalty>
1.49076

> <i_epik_Tot_Q>
0

> <i_epik_Tot_abs_Q>
0

> <r_epik_Metal_State_Penalty>
1.65506

> <b_epik_Metal_Only>
0

> <s_lp_Force_Field>
OPLS_2005

> <r_lp_Energy>
46.8903

> <b_lp_Chiralities_Consistent>
1

> <s_lp_Variant>
AV-unprocessed.smi:1492-5

> <Gold.Version>
5.8.1

> <Gold.Id.Protein>
6NUR|6NUR_protein|mol2

> <Gold.PLP.Fitness>
36.6652

> <Gold.PLP.PLP>
-28.8366

> <Gold.PLP.part.hbond>
-3.8392

> <Gold.PLP.part.metal>
0.0000

> <Gold.PLP.part.buried>
-2.9462

> <Gold.PLP.part.nonpolar>
-22.0964

> <Gold.PLP.part.repulsive>
0.0555

> <Gold.PLP.ligand.clash>
0.0000

> <Gold.PLP.ligand.torsion>
0.9114

> <Gold.PLP.Chemscore.Hbond>
3.1713

> <Gold.PLP.Chemscore.CHOScore>
0.0000

> <Gold.PLP.Chemscore.Metal>
0.0000

> <Gold.Chemscore.Hbonds>
donor molecule, donor type, donor heavy atom, donor atom, acceptor molecule, acceptor atom, score
      P1  H  6931  6943       L1    18  0.82
      P1  H  6934  6947       L1    18  0.77
      P1  H  7989  7998       L1    22  0.50
      P1  H  7997  8010       L1    22  0.62

> <Gold.PLP.Chemscore.Internal.Correction>
0.1376

> <Gold.Rescore>
     Score         DG    S(hbond)    S(metal)    S(lipo)     H(rot)  DE(clash)    DE(int)     intcor
     13.13     -15.74       2.64        0.00      58.73       2.12       0.01       2.60       ----

> <Gold.Chemscore.Fitness>
13.1303

> <Gold.Chemscore.DG>
-15.7374

> <Gold.Chemscore.ZeroCoef>
-5.4800

> <Gold.Chemscore.Hbond>
2.6353

> <Gold.Chemscore.Metal>
0.0000

> <Gold.Chemscore.Lipo>
58.7278

> <Gold.Chemscore.Internal_Hbond>
0.0000

> <Gold.Chemscore.DEClash>
0.0089

> <Gold.Chemscore.DEInternal>
2.5982

> <Gold.Chemscore.Rot>
2.1155

> <Gold.Chemscore.Internal.Correction>
   9.000000E+99

> <Gold.Chemscore.Hbonds>
donor molecule, donor type, donor heavy atom, donor atom, acceptor molecule, acceptor atom, score
      P1  H  6931  6943       L1    18  0.81
      P1  H  6934  6947       L1    18  0.76
      P1  H  7989  7998       L1    22  0.05
      P1  H  7997  8010       L1    22  0.14

> <Gold.Chemscore.Hbond.Weighted>
-8.8020

> <Gold.Chemscore.Metal.Weighted>
-0.0000

> <Gold.Chemscore.Lipo.Weighted>
-6.8712

> <Gold.Chemscore.Internal_Hbond.Weighted>
0.0000

> <Gold.Chemscore.DEClash.Weighted>
0.0089

> <Gold.Chemscore.DEInternal.Weighted>
2.5982

> <Gold.Chemscore.Rot.Weighted>
5.4157

> <Gold.Chemscore.Internal.Correction.Weighted>
   9.000000E+99

> <Gold.Protein.RotatedTorsions>
[ 6907 6896 6895 6894 ] final  179.79 input  -60.11 | X-H torsion
[ 7974 7965 7964 7962 ] final  -13.81 input  175.53 | X-H torsion
[ 8008 7997 7996 7995 ] final  100.05 input   59.86 | X-H torsion
[ 10167 10162 10161 10158 ] final -122.03 input  -65.29 | X-H torsion
[ 10718 10713 10712 10709 ] final  -85.67 input   66.30 | X-H torsion
[ 10763 10752 10751 10750 ] final -109.04 input  -60.55 | X-H torsion
[ 11005 11000 10999 10996 ] final  144.29 input  -57.11 | X-H torsion

> <Gold.Protein.ActiveResidues>
 VAL166  LYS551  ARG553  GLY616  TRP617  ASP618  TYR619  PRO620  LYS621  CYS622 
 ASP623  PHE694  ASN695  SER759  ASP760  ASP761  ALA762  ILE779  LEU786  VAL792 
 PHE793  MET794  SER795  GLU796  ALA797  LYS798  CYS799  TRP800  GLU811  SER814 

> <Gold.Protein.RotatedAtoms>
  151.6659  133.3315  159.3184 H   0  0  0  0  0  0  0  0  0  0  0  0  # atno 6907 bound_to 6896
  150.7891  134.6903  159.6503 H   0  0  0  0  0  0  0  0  0  0  0  0  # atno 6908 bound_to 6896
  152.3967  134.6358  160.0138 H   0  0  0  0  0  0  0  0  0  0  0  0  # atno 6909 bound_to 6896
  146.2099  140.3257  142.8394 H   0  0  0  0  0  0  0  0  0  0  0  0  # atno 7974 bound_to 7965
  156.1165  140.3219  155.8147 H   0  0  0  0  0  0  0  0  0  0  0  0  # atno 8008 bound_to 7997
  155.4580  140.0537  157.3011 H   0  0  0  0  0  0  0  0  0  0  0  0  # atno 8009 bound_to 7997
  154.4797  140.2047  155.9807 H   0  0  0  0  0  0  0  0  0  0  0  0  # atno 8010 bound_to 7997
  140.0187  143.5367  152.2230 H   0  0  0  0  0  0  0  0  0  0  0  0  # atno 10167 bound_to 10162
  155.9995  130.4739  150.4598 H   0  0  0  0  0  0  0  0  0  0  0  0  # atno 10718 bound_to 10713
  154.8170  135.4616  154.0672 H   0  0  0  0  0  0  0  0  0  0  0  0  # atno 10763 bound_to 10752
  153.2056  135.6875  153.8183 H   0  0  0  0  0  0  0  0  0  0  0  0  # atno 10764 bound_to 10752
  153.7652  135.3278  155.3320 H   0  0  0  0  0  0  0  0  0  0  0  0  # atno 10765 bound_to 10752
  140.0621  134.9199  157.1201 H   0  0  0  0  0  0  0  0  0  0  0  0  # atno 11005 bound_to 11000
  144.8888  140.7496  143.5940 LP  0  0  0  0  0  0  0  0  0  0  0  0  # atno 17320 bound_to 7965
  145.3179  139.1797  143.4603 LP  0  0  0  0  0  0  0  0  0  0  0  0  # atno 17321 bound_to 7965
  139.6155  144.7618  151.2857 LP  0  0  0  0  0  0  0  0  0  0  0  0  # atno 17342 bound_to 10162
  140.7351  143.6745  150.8053 LP  0  0  0  0  0  0  0  0  0  0  0  0  # atno 17343 bound_to 10162
  157.2623  131.0569  151.2312 LP  0  0  0  0  0  0  0  0  0  0  0  0  # atno 17370 bound_to 10713
  157.3423  130.7039  149.6389 LP  0  0  0  0  0  0  0  0  0  0  0  0  # atno 17371 bound_to 10713
  140.3755  134.2344  155.7174 LP  0  0  0  0  0  0  0  0  0  0  0  0  # atno 17394 bound_to 11000
  141.1977  133.8052  157.0614 LP  0  0  0  0  0  0  0  0  0  0  0  0  # atno 17395 bound_to 11000

$$$$
