AV-unprocessed.smi:66|AV-procd|sdf|617|dock2
  -GOLD-   2262016513D 1   1.00000     0.00000
 Structure written by MMmdl.
 28 30  0  0  0  0  0  0  0  0  2 V2000
  151.7170  139.2897  154.7009 O   0  0  0  0  0  0  0  0  0  0  0  0
  152.1695  139.3045  155.8664 C   0  0  0  0  0  0  0  0  0  0  0  0
  153.3348  138.9862  156.1936 O   0  5  0  0  0  0  0  0  0  0  0  0
  151.2069  139.7586  156.9761 C   0  0  2  0  0  0  0  0  0  0  0  0
  149.8228  140.1535  156.4300 C   0  0  0  0  0  0  0  0  0  0  0  0
  149.9233  141.6631  156.2184 C   0  0  1  0  0  0  0  0  0  0  0  0
  148.6628  142.3000  156.2295 O   0  0  0  0  0  0  0  0  0  0  0  0
  150.8128  142.1104  157.3782 C   0  0  0  0  0  0  0  0  0  0  0  0
  151.6834  140.9733  157.6458 N   0  0  0  0  0  0  0  0  0  0  0  0
  152.5676  140.9492  158.6812 C   0  0  0  0  0  0  0  0  0  0  0  0
  153.5624  140.0216  158.6629 N   0  0  0  0  0  0  0  0  0  0  0  0
  154.4586  139.9558  159.6508 C   0  0  0  0  0  0  0  0  0  0  0  0
  154.5488  140.7106  160.7466 N   0  0  0  0  0  0  0  0  0  0  0  0
  153.5579  141.6438  160.7756 C   0  0  0  0  0  0  0  0  0  0  0  0
  153.3281  142.5984  161.7431 N   0  0  0  0  0  0  0  0  0  0  0  0
  152.2231  143.2982  161.3292 C   0  0  0  0  0  0  0  0  0  0  0  0
  151.7175  142.8941  160.1958 N   0  0  0  0  0  0  0  0  0  0  0  0
  152.5353  141.8364  159.8006 C   0  0  0  0  0  0  0  0  0  0  0  0
  153.8968  142.7109  162.5697 H   0  0  0  0  0  0  0  0  0  0  0  0
  151.0849  138.9443  157.6918 H   0  0  0  0  0  0  0  0  0  0  0  0
  149.5432  139.6206  155.5200 H   0  0  0  0  0  0  0  0  0  0  0  0
  149.0661  139.9306  157.1839 H   0  0  0  0  0  0  0  0  0  0  0  0
  150.4208  141.8686  155.2695 H   0  0  0  0  0  0  0  0  0  0  0  0
  148.7959  143.2257  156.0940 H   0  0  0  0  0  0  0  0  0  0  0  0
  151.3782  143.0028  157.1093 H   0  0  0  0  0  0  0  0  0  0  0  0
  150.2209  142.3238  158.2698 H   0  0  0  0  0  0  0  0  0  0  0  0
  155.2101  139.1870  159.5470 H   0  0  0  0  0  0  0  0  0  0  0  0
  151.8048  144.1180  161.8943 H   0  0  0  0  0  0  0  0  0  0  0  0
  1  2  2  0  0  0  0
  2  3  1  0  0  0  0
  2  4  1  0  0  0  0
  4  5  1  0  0  0  0
  4 20  1  0  0  0  0
  4  9  1  0  0  0  0
  5  6  1  0  0  0  0
  5 21  1  0  0  0  0
  5 22  1  0  0  0  0
  6  7  1  0  0  0  0
  6  8  1  0  0  0  0
  6 23  1  0  0  0  0
  7 24  1  0  0  0  0
  8 25  1  0  0  0  0
  8 26  1  0  0  0  0
  8  9  1  0  0  0  0
  9 10  1  0  0  0  0
 10 11  1  0  0  0  0
 10 18  2  0  0  0  0
 11 12  2  0  0  0  0
 12 27  1  0  0  0  0
 12 13  1  0  0  0  0
 13 14  2  0  0  0  0
 14 15  1  0  0  0  0
 14 18  1  0  0  0  0
 15 16  1  0  0  0  0
 15 19  1  0  0  0  0
 16 17  2  0  0  0  0
 16 28  1  0  0  0  0
 17 18  1  0  0  0  0
M  CHG  1   3  -1
M  END
> <s_m_source_file>
AV-unprocessed.smi

> <i_m_source_file_index>
66

> <i_lp_mmshare_version>
43012

> <i_f3d_flags>
0

> <s_epik_input>
Tz1DKFtPSF0pW0NAQEhdMVtDSDJdW0NAQEhdKFtPSF0pW0NIMl1OMWMobltjSF1uMiljKGMyMylbbkhdW2NIXW4z

> <s_epik_cmdline>
J2VwaWtfcHl0aG9uJywgJy1waCcsICc3LjAnLCAnLXRuJywgJzgnLCAnLW1hJywgJzIwMCcsICctbWV0YWxfYmluZGluZycsICctaW1hZScsICc8aW5maWxlLm1hZT4nLCAnLW9tYWUnLCAnPG91dGZpbGUubWFlPic=

> <r_lp_tautomer_probability>
0.955585

> <r_epik_Ionization_Penalty>
0.00455415

> <r_epik_Ionization_Penalty_Charging>
0.000248217

> <r_epik_Ionization_Penalty_Neutral>
0.00430593

> <r_epik_State_Penalty>
0.0207074

> <r_epik_Charging_Adjusted_Penalty>
0.0209557

> <i_epik_Tot_Q>
-1

> <i_epik_Tot_abs_Q>
1

> <r_epik_Metal_State_Penalty>
0.337372

> <b_epik_Metal_Only>
0

> <s_lp_Force_Field>
OPLS_2005

> <r_lp_Energy>
24.8214

> <b_lp_Chiralities_Consistent>
1

> <s_lp_Variant>
AV-unprocessed.smi:66-1

> <Gold.Version>
5.8.1

> <Gold.Id.Protein>
6NUR|6NUR_protein|mol2

> <Gold.PLP.Fitness>
44.5003

> <Gold.PLP.PLP>
-33.1066

> <Gold.PLP.part.hbond>
-3.8935

> <Gold.PLP.part.metal>
0.0000

> <Gold.PLP.part.buried>
-5.2162

> <Gold.PLP.part.nonpolar>
-23.6286

> <Gold.PLP.part.repulsive>
0.1316

> <Gold.PLP.ligand.clash>
0.0000

> <Gold.PLP.ligand.torsion>
0.3312

> <Gold.PLP.Chemscore.Hbond>
3.9840

> <Gold.PLP.Chemscore.CHOScore>
0.0000

> <Gold.PLP.Chemscore.Metal>
0.0000

> <Gold.Chemscore.Hbonds>
donor molecule, donor type, donor heavy atom, donor atom, acceptor molecule, acceptor atom, score
      L1  H     7    24       P1  8028  1.00
      P1  H  7989  7998       L1     1  1.00
      P1  H  7997  8009       L1     3  1.95

> <Gold.PLP.Chemscore.Internal.Correction>
0.1041

> <Gold.Rescore>
     Score         DG    S(hbond)    S(metal)    S(lipo)     H(rot)  DE(clash)    DE(int)     intcor
     11.69     -14.30       2.89        0.00      32.08       1.78       0.00       2.62       ----

> <Gold.Chemscore.Fitness>
11.6861

> <Gold.Chemscore.DG>
-14.3036

> <Gold.Chemscore.ZeroCoef>
-5.4800

> <Gold.Chemscore.Hbond>
2.8856

> <Gold.Chemscore.Metal>
0.0000

> <Gold.Chemscore.Lipo>
32.0780

> <Gold.Chemscore.Internal_Hbond>
0.0000

> <Gold.Chemscore.DEClash>
0.0004

> <Gold.Chemscore.DEInternal>
2.6170

> <Gold.Chemscore.Rot>
1.7842

> <Gold.Chemscore.Internal.Correction>
   9.000000E+99

> <Gold.Chemscore.Hbonds>
donor molecule, donor type, donor heavy atom, donor atom, acceptor molecule, acceptor atom, score
      L1  H     7    24       P1  8028  0.95
      P1  H  7989  7998       L1     1  0.95
      P1  H  7997  8009       L1     3  0.87

> <Gold.Chemscore.Hbond.Weighted>
-9.6381

> <Gold.Chemscore.Metal.Weighted>
-0.0000

> <Gold.Chemscore.Lipo.Weighted>
-3.7531

> <Gold.Chemscore.Internal_Hbond.Weighted>
0.0000

> <Gold.Chemscore.DEClash.Weighted>
0.0004

> <Gold.Chemscore.DEInternal.Weighted>
2.6170

> <Gold.Chemscore.Rot.Weighted>
4.5676

> <Gold.Chemscore.Internal.Correction.Weighted>
   9.000000E+99

> <Gold.Protein.RotatedTorsions>
[ 6907 6896 6895 6894 ] final  -47.89 input  -60.11 | X-H torsion
[ 7974 7965 7964 7962 ] final  -65.30 input  175.53 | X-H torsion
[ 8008 7997 7996 7995 ] final -176.53 input   59.86 | X-H torsion
[ 10167 10162 10161 10158 ] final  135.13 input  -65.29 | X-H torsion
[ 10718 10713 10712 10709 ] final  -74.75 input   66.30 | X-H torsion
[ 10763 10752 10751 10750 ] final  -59.72 input  -60.55 | X-H torsion
[ 11005 11000 10999 10996 ] final  141.88 input  -57.11 | X-H torsion

> <Gold.Protein.ActiveResidues>
 VAL166  LYS551  ARG553  GLY616  TRP617  ASP618  TYR619  PRO620  LYS621  CYS622 
 ASP623  PHE694  ASN695  SER759  ASP760  ASP761  ALA762  ILE779  LEU786  VAL792 
 PHE793  MET794  SER795  GLU796  ALA797  LYS798  CYS799  TRP800  GLU811  SER814 

> <Gold.Protein.RotatedAtoms>
  150.8961  134.8370  159.7327 H   0  0  0  0  0  0  0  0  0  0  0  0  # atno 6907 bound_to 6896
  152.4866  134.4573  159.9604 H   0  0  0  0  0  0  0  0  0  0  0  0  # atno 6908 bound_to 6896
  151.4630  133.3549  159.2847 H   0  0  0  0  0  0  0  0  0  0  0  0  # atno 6909 bound_to 6896
  145.7559  140.8885  143.0455 H   0  0  0  0  0  0  0  0  0  0  0  0  # atno 7974 bound_to 7965
  155.9960  140.1211  157.0593 H   0  0  0  0  0  0  0  0  0  0  0  0  # atno 8008 bound_to 7997
  154.4227  140.1116  156.5700 H   0  0  0  0  0  0  0  0  0  0  0  0  # atno 8009 bound_to 7997
  155.6277  140.3472  155.4675 H   0  0  0  0  0  0  0  0  0  0  0  0  # atno 8010 bound_to 7997
  139.5229  144.6532  151.5239 H   0  0  0  0  0  0  0  0  0  0  0  0  # atno 10167 bound_to 10162
  156.0231  130.4424  150.2940 H   0  0  0  0  0  0  0  0  0  0  0  0  # atno 10718 bound_to 10713
  154.2582  135.6313  153.5264 H   0  0  0  0  0  0  0  0  0  0  0  0  # atno 10763 bound_to 10752
  152.9900  135.5581  154.5734 H   0  0  0  0  0  0  0  0  0  0  0  0  # atno 10764 bound_to 10752
  154.5276  135.2886  155.1183 H   0  0  0  0  0  0  0  0  0  0  0  0  # atno 10765 bound_to 10752
  140.0435  134.9293  157.0887 H   0  0  0  0  0  0  0  0  0  0  0  0  # atno 11005 bound_to 11000
  144.6840  139.9656  143.7481 LP  0  0  0  0  0  0  0  0  0  0  0  0  # atno 17320 bound_to 7965
  146.0311  139.3336  143.0754 LP  0  0  0  0  0  0  0  0  0  0  0  0  # atno 17321 bound_to 7965
  140.6347  143.9008  150.6636 LP  0  0  0  0  0  0  0  0  0  0  0  0  # atno 17342 bound_to 10162
  140.2323  143.3726  152.1555 LP  0  0  0  0  0  0  0  0  0  0  0  0  # atno 17343 bound_to 10162
  157.1043  131.0204  151.3073 LP  0  0  0  0  0  0  0  0  0  0  0  0  # atno 17370 bound_to 10713
  157.4755  130.7734  149.7364 LP  0  0  0  0  0  0  0  0  0  0  0  0  # atno 17371 bound_to 10713
  140.4031  134.2061  155.7163 LP  0  0  0  0  0  0  0  0  0  0  0  0  # atno 17394 bound_to 11000
  141.1895  133.8237  157.0954 LP  0  0  0  0  0  0  0  0  0  0  0  0  # atno 17395 bound_to 11000

$$$$
