AV-unprocessed.smi:1409|AV-procd|sdf|5727|dock9
  -GOLD-   22720 5363D 1   1.00000     0.00000
 Structure written by MMmdl.
 37 38  0  0  0  0  0  0  0  0  1 V2000
  151.9492  145.6077  159.6338 C   0  0  0  0  0  0  0  0  0  0  0  0
  151.7107  144.5117  158.7576 O   0  0  0  0  0  0  0  0  0  0  0  0
  152.1952  143.2667  159.1111 C   0  0  0  0  0  0  0  0  0  0  0  0
  153.0168  143.1751  160.1870 N   0  0  0  0  0  0  0  0  0  0  0  0
  153.4889  141.9600  160.5335 C   0  0  0  0  0  0  0  0  0  0  0  0
  153.1654  140.7807  159.8379 C   0  0  0  0  0  0  0  0  0  0  0  0
  152.3133  140.8728  158.7218 C   0  0  0  0  0  0  0  0  0  0  0  0
  151.8222  142.1436  158.3363 C   0  0  0  0  0  0  0  0  0  0  0  0
  150.9387  142.3438  157.2402 N   0  0  0  0  0  0  0  0  0  0  0  0
  150.4062  141.4231  156.4193 C   0  0  0  0  0  0  0  0  0  0  0  0
  150.6219  140.2124  156.4720 O   0  0  0  0  0  0  0  0  0  0  0  0
  149.6154  141.9942  155.5001 N   0  0  0  0  0  0  0  0  0  0  0  0
  148.9128  141.2812  154.4385 C   0  0  0  0  0  0  0  0  0  0  0  0
  147.3817  141.4201  154.5548 C   0  0  2  0  0  0  0  0  0  0  0  0
  146.8376  142.7410  153.9706 C   0  0  0  0  0  0  0  0  0  0  0  0
  145.3758  142.8978  154.3981 C   0  0  0  0  0  0  0  0  0  0  0  0
  145.2770  142.1771  156.0780 S   0  0  0  0  0  0  0  0  0  0  0  0
  145.3561  143.2533  157.0773 O   0  0  0  0  0  0  0  0  0  0  0  0
  144.1882  141.1891  156.1135 O   0  0  0  0  0  0  0  0  0  0  0  0
  146.8931  141.3124  156.0088 C   0  0  0  0  0  0  0  0  0  0  0  0
  151.5125  146.5108  159.2078 H   0  0  0  0  0  0  0  0  0  0  0  0
  153.0168  145.7889  159.7666 H   0  0  0  0  0  0  0  0  0  0  0  0
  151.4886  145.4457  160.6095 H   0  0  0  0  0  0  0  0  0  0  0  0
  154.1389  141.9259  161.3954 H   0  0  0  0  0  0  0  0  0  0  0  0
  153.5574  139.8261  160.1567 H   0  0  0  0  0  0  0  0  0  0  0  0
  152.0419  139.9710  158.1951 H   0  0  0  0  0  0  0  0  0  0  0  0
  150.7469  143.3085  157.0126 H   0  0  0  0  0  0  0  0  0  0  0  0
  149.4971  142.9964  155.5309 H   0  0  0  0  0  0  0  0  0  0  0  0
  149.2520  141.6386  153.4645 H   0  0  0  0  0  0  0  0  0  0  0  0
  149.1977  140.2303  154.4951 H   0  0  0  0  0  0  0  0  0  0  0  0
  146.9141  140.6054  153.9995 H   0  0  0  0  0  0  0  0  0  0  0  0
  147.4142  143.5753  154.3726 H   0  0  0  0  0  0  0  0  0  0  0  0
  146.9359  142.7788  152.8853 H   0  0  0  0  0  0  0  0  0  0  0  0
  145.0393  143.9347  154.4095 H   0  0  0  0  0  0  0  0  0  0  0  0
  144.7195  142.3225  153.7446 H   0  0  0  0  0  0  0  0  0  0  0  0
  146.7810  140.2805  156.3420 H   0  0  0  0  0  0  0  0  0  0  0  0
  147.5704  141.8243  156.6929 H   0  0  0  0  0  0  0  0  0  0  0  0
  1  2  1  0  0  0  0
  1 21  1  0  0  0  0
  1 22  1  0  0  0  0
  1 23  1  0  0  0  0
  2  3  1  0  0  0  0
  3  8  1  0  0  0  0
  3  4  2  0  0  0  0
  4  5  1  0  0  0  0
  5  6  2  0  0  0  0
  5 24  1  0  0  0  0
  6  7  1  0  0  0  0
  6 25  1  0  0  0  0
  7  8  2  0  0  0  0
  7 26  1  0  0  0  0
  8  9  1  0  0  0  0
  9 10  1  0  0  0  0
  9 27  1  0  0  0  0
 10 11  2  0  0  0  0
 10 12  1  0  0  0  0
 12 13  1  0  0  0  0
 12 28  1  0  0  0  0
 13 14  1  0  0  0  0
 13 29  1  0  0  0  0
 13 30  1  0  0  0  0
 14 20  1  0  0  0  0
 14 15  1  0  0  0  0
 14 31  1  0  0  0  0
 15 16  1  0  0  0  0
 15 32  1  0  0  0  0
 15 33  1  0  0  0  0
 16 17  1  0  0  0  0
 16 34  1  0  0  0  0
 16 35  1  0  0  0  0
 17 18  2  0  0  0  0
 17 19  2  0  0  0  0
 17 20  1  0  0  0  0
 20 36  1  0  0  0  0
 20 37  1  0  0  0  0
M  END
> <s_m_source_file>
AV-unprocessed.smi

> <i_m_source_file_index>
1409

> <i_lp_mmshare_version>
43012

> <i_f3d_flags>
0

> <s_epik_input>
W0NIM11PYzFuW2NIXVtjSF1bY0hdYzFbTkhdQyg9TylbTkhdW0NIMl1bQ0BASF0oW0NIMl0yKVtDSDJdW0NIMl1TMig9Tyk9Tw==

> <s_epik_cmdline>
J2VwaWtfcHl0aG9uJywgJy1waCcsICc3LjAnLCAnLXRuJywgJzgnLCAnLW1hJywgJzIwMCcsICctbWV0YWxfYmluZGluZycsICctaW1hZScsICc8aW5maWxlLm1hZT4nLCAnLW9tYWUnLCAnPG91dGZpbGUubWFlPic=

> <r_lp_tautomer_probability>
1

> <r_epik_Ionization_Penalty>
9.0549e-05

> <r_epik_Ionization_Penalty_Charging>
0

> <r_epik_Ionization_Penalty_Neutral>
9.0549e-05

> <r_epik_State_Penalty>
-0

> <r_epik_Charging_Adjusted_Penalty>
0

> <i_epik_Tot_Q>
0

> <i_epik_Tot_abs_Q>
0

> <r_epik_Metal_State_Penalty>
-0

> <b_epik_Metal_Only>
0

> <s_lp_Force_Field>
OPLS_2005

> <r_lp_Energy>
8.54576

> <b_lp_Chiralities_Consistent>
1

> <s_lp_Variant>
AV-unprocessed.smi:1409-1

> <Gold.Version>
5.8.1

> <Gold.Id.Protein>
6NUR|6NUR_protein|mol2

> <Gold.PLP.Fitness>
41.6200

> <Gold.PLP.PLP>
-39.1281

> <Gold.PLP.part.hbond>
-1.0000

> <Gold.PLP.part.metal>
0.0000

> <Gold.PLP.part.buried>
-6.6773

> <Gold.PLP.part.nonpolar>
-31.6627

> <Gold.PLP.part.repulsive>
0.5059

> <Gold.PLP.ligand.clash>
0.0000

> <Gold.PLP.ligand.torsion>
0.2575

> <Gold.PLP.Chemscore.Hbond>
1.0000

> <Gold.PLP.Chemscore.CHOScore>
0.0000

> <Gold.PLP.Chemscore.Metal>
0.0000

> <Gold.Chemscore.Hbonds>
donor molecule, donor type, donor heavy atom, donor atom, acceptor molecule, acceptor atom, score
      L1  H    12    28       P1  8028  1.00

> <Gold.PLP.Chemscore.Internal.Correction>
0.0068

> <Gold.Rescore>
     Score         DG    S(hbond)    S(metal)    S(lipo)     H(rot)  DE(clash)    DE(int)     intcor
     12.34     -14.00       1.00        0.00      79.14       1.59       0.20       1.45       ----

> <Gold.Chemscore.Fitness>
12.3427

> <Gold.Chemscore.DG>
-13.9973

> <Gold.Chemscore.ZeroCoef>
-5.4800

> <Gold.Chemscore.Hbond>
0.9978

> <Gold.Chemscore.Metal>
0.0000

> <Gold.Chemscore.Lipo>
79.1446

> <Gold.Chemscore.Internal_Hbond>
0.0000

> <Gold.Chemscore.DEClash>
0.2041

> <Gold.Chemscore.DEInternal>
1.4506

> <Gold.Chemscore.Rot>
1.5919

> <Gold.Chemscore.Internal.Correction>
   9.000000E+99

> <Gold.Chemscore.Hbonds>
donor molecule, donor type, donor heavy atom, donor atom, acceptor molecule, acceptor atom, score
      L1  H    12    28       P1  8028  1.00

> <Gold.Chemscore.Hbond.Weighted>
-3.3327

> <Gold.Chemscore.Metal.Weighted>
-0.0000

> <Gold.Chemscore.Lipo.Weighted>
-9.2599

> <Gold.Chemscore.Internal_Hbond.Weighted>
0.0000

> <Gold.Chemscore.DEClash.Weighted>
0.2041

> <Gold.Chemscore.DEInternal.Weighted>
1.4506

> <Gold.Chemscore.Rot.Weighted>
4.0754

> <Gold.Chemscore.Internal.Correction.Weighted>
   9.000000E+99

> <Gold.Protein.RotatedTorsions>
[ 6907 6896 6895 6894 ] final -138.97 input  -60.11 | X-H torsion
[ 7974 7965 7964 7962 ] final   10.43 input  175.53 | X-H torsion
[ 8008 7997 7996 7995 ] final  -80.87 input   59.86 | X-H torsion
[ 10167 10162 10161 10158 ] final  -21.66 input  -65.29 | X-H torsion
[ 10718 10713 10712 10709 ] final   92.54 input   66.30 | X-H torsion
[ 10763 10752 10751 10750 ] final  -54.63 input  -60.55 | X-H torsion
[ 11005 11000 10999 10996 ] final   58.22 input  -57.11 | X-H torsion

> <Gold.Protein.ActiveResidues>
 VAL166  LYS551  ARG553  GLY616  TRP617  ASP618  TYR619  PRO620  LYS621  CYS622 
 ASP623  PHE694  ASN695  SER759  ASP760  ASP761  ALA762  ILE779  LEU786  VAL792 
 PHE793  MET794  SER795  GLU796  ALA797  LYS798  CYS799  TRP800  GLU811  SER814 

> <Gold.Protein.RotatedAtoms>
  151.0418  133.5699  159.2650 H   0  0  0  0  0  0  0  0  0  0  0  0  # atno 6907 bound_to 6896
  151.2743  135.0693  159.9155 H   0  0  0  0  0  0  0  0  0  0  0  0  # atno 6908 bound_to 6896
  152.5365  134.0143  159.8007 H   0  0  0  0  0  0  0  0  0  0  0  0  # atno 6909 bound_to 6896
  146.2388  139.9635  142.8455 H   0  0  0  0  0  0  0  0  0  0  0  0  # atno 7974 bound_to 7965
  154.5926  140.0656  156.9260 H   0  0  0  0  0  0  0  0  0  0  0  0  # atno 8008 bound_to 7997
  155.2268  140.3334  155.4290 H   0  0  0  0  0  0  0  0  0  0  0  0  # atno 8009 bound_to 7997
  156.2266  140.1822  156.7332 H   0  0  0  0  0  0  0  0  0  0  0  0  # atno 8010 bound_to 7997
  140.7283  143.4607  151.0384 H   0  0  0  0  0  0  0  0  0  0  0  0  # atno 10167 bound_to 10162
  157.6958  131.0447  150.3897 H   0  0  0  0  0  0  0  0  0  0  0  0  # atno 10718 bound_to 10713
  154.1779  135.6448  153.5026 H   0  0  0  0  0  0  0  0  0  0  0  0  # atno 10763 bound_to 10752
  153.0067  135.5399  154.6544 H   0  0  0  0  0  0  0  0  0  0  0  0  # atno 10764 bound_to 10752
  154.5901  135.2933  155.0617 H   0  0  0  0  0  0  0  0  0  0  0  0  # atno 10765 bound_to 10752
  140.0393  134.5896  155.9402 H   0  0  0  0  0  0  0  0  0  0  0  0  # atno 11005 bound_to 11000
  145.1749  140.9739  143.4300 LP  0  0  0  0  0  0  0  0  0  0  0  0  # atno 17320 bound_to 7965
  144.9995  139.3612  143.6174 LP  0  0  0  0  0  0  0  0  0  0  0  0  # atno 17321 bound_to 7965
  139.8291  143.7715  152.3179 LP  0  0  0  0  0  0  0  0  0  0  0  0  # atno 17342 bound_to 10162
  139.7824  144.7439  151.0069 LP  0  0  0  0  0  0  0  0  0  0  0  0  # atno 17343 bound_to 10162
  156.4302  130.3970  149.6765 LP  0  0  0  0  0  0  0  0  0  0  0  0  # atno 17370 bound_to 10713
  156.3985  130.7663  151.2669 LP  0  0  0  0  0  0  0  0  0  0  0  0  # atno 17371 bound_to 10713
  141.1874  133.6560  156.5282 LP  0  0  0  0  0  0  0  0  0  0  0  0  # atno 17394 bound_to 11000
  140.4095  134.7285  157.4827 LP  0  0  0  0  0  0  0  0  0  0  0  0  # atno 17395 bound_to 11000

$$$$
