AV-unprocessed.smi:2693|AV-procd|sdf|10398|dock10
  -GOLD-   2272014433D 1   1.00000     0.00000
 Structure written by MMmdl.
 45 47  0  0  0  0  0  0  0  0  1 V2000
  144.3800  131.6006  150.9315 C   0  0  0  0  0  0  0  0  0  0  0  0
  145.1181  132.8587  150.8697 N   0  0  0  0  0  0  0  0  0  0  0  0
  146.4510  132.8323  150.2747 C   0  0  0  0  0  0  0  0  0  0  0  0
  144.5687  134.0458  151.3630 C   0  0  0  0  0  0  0  0  0  0  0  0
  145.1866  135.1913  151.0453 N   0  0  0  0  0  0  0  0  0  0  0  0
  144.6559  136.3396  151.5160 C   0  0  0  0  0  0  0  0  0  0  0  0
  143.4992  136.3533  152.3208 C   0  0  0  0  0  0  0  0  0  0  0  0
  142.9786  137.5991  152.7625 N   0  0  0  0  0  0  0  0  0  0  0  0
  141.9265  137.8219  153.5678 C   0  0  0  0  0  0  0  0  0  0  0  0
  141.2821  136.9521  154.1531 O   0  0  0  0  0  0  0  0  0  0  0  0
  141.6641  139.1309  153.6743 N   0  0  0  0  0  0  0  0  0  0  0  0
  140.5625  139.6867  154.4514 C   0  0  1  0  0  0  0  0  0  0  0  0
  140.0130  140.9793  153.8478 C   0  0  2  0  0  0  0  0  0  0  0  0
  139.9831  142.4031  154.2759 C   0  0  0  0  0  0  0  0  0  0  0  0
  138.4895  142.6878  153.9635 C   0  0  0  0  0  0  0  0  0  0  0  0
  137.8873  141.3986  153.6912 O   0  0  0  0  0  0  0  0  0  0  0  0
  138.6936  140.4926  154.4154 C   0  0  1  0  0  0  0  0  0  0  0  0
  139.1610  139.0583  154.0987 C   0  0  0  0  0  0  0  0  0  0  0  0
  138.9010  138.5158  152.6785 C   0  0  0  0  0  0  0  0  0  0  0  0
  138.6638  137.9829  155.0653 C   0  0  0  0  0  0  0  0  0  0  0  0
  142.9225  135.0890  152.5898 C   0  0  0  0  0  0  0  0  0  0  0  0
  143.4618  133.9479  152.1108 N   0  0  0  0  0  0  0  0  0  0  0  0
  144.1970  131.3191  151.9690 H   0  0  0  0  0  0  0  0  0  0  0  0
  144.9240  130.7851  150.4550 H   0  0  0  0  0  0  0  0  0  0  0  0
  143.4187  131.6974  150.4257 H   0  0  0  0  0  0  0  0  0  0  0  0
  147.1901  133.2231  150.9750 H   0  0  0  0  0  0  0  0  0  0  0  0
  146.4755  133.4436  149.3721 H   0  0  0  0  0  0  0  0  0  0  0  0
  146.7564  131.8218  150.0029 H   0  0  0  0  0  0  0  0  0  0  0  0
  145.1616  137.2552  151.2461 H   0  0  0  0  0  0  0  0  0  0  0  0
  143.4683  138.4169  152.4297 H   0  0  0  0  0  0  0  0  0  0  0  0
  142.2462  139.7828  153.1694 H   0  0  0  0  0  0  0  0  0  0  0  0
  140.7646  139.7655  155.5235 H   0  0  0  0  0  0  0  0  0  0  0  0
  140.0521  140.9354  152.7569 H   0  0  0  0  0  0  0  0  0  0  0  0
  140.2074  142.5150  155.3376 H   0  0  0  0  0  0  0  0  0  0  0  0
  140.6594  143.0347  153.6992 H   0  0  0  0  0  0  0  0  0  0  0  0
  137.9997  143.1662  154.8125 H   0  0  0  0  0  0  0  0  0  0  0  0
  138.3709  143.3358  153.0947 H   0  0  0  0  0  0  0  0  0  0  0  0
  138.5875  140.6586  155.4937 H   0  0  0  0  0  0  0  0  0  0  0  0
  137.8359  138.3515  152.5117 H   0  0  0  0  0  0  0  0  0  0  0  0
  139.4027  137.5603  152.5217 H   0  0  0  0  0  0  0  0  0  0  0  0
  139.2407  139.1789  151.8852 H   0  0  0  0  0  0  0  0  0  0  0  0
  137.5947  137.8037  154.9488 H   0  0  0  0  0  0  0  0  0  0  0  0
  138.8318  138.2688  156.1041 H   0  0  0  0  0  0  0  0  0  0  0  0
  139.1768  137.0337  154.9083 H   0  0  0  0  0  0  0  0  0  0  0  0
  142.0183  134.9681  153.1654 H   0  0  0  0  0  0  0  0  0  0  0  0
  1  2  1  0  0  0  0
  1 23  1  0  0  0  0
  1 24  1  0  0  0  0
  1 25  1  0  0  0  0
  2  3  1  0  0  0  0
  2  4  1  0  0  0  0
  3 26  1  0  0  0  0
  3 27  1  0  0  0  0
  3 28  1  0  0  0  0
  4 22  1  0  0  0  0
  4  5  2  0  0  0  0
  5  6  1  0  0  0  0
  6  7  2  0  0  0  0
  6 29  1  0  0  0  0
  7  8  1  0  0  0  0
  7 21  1  0  0  0  0
  8  9  1  0  0  0  0
  8 30  1  0  0  0  0
  9 10  2  0  0  0  0
  9 11  1  0  0  0  0
 11 12  1  0  0  0  0
 11 31  1  0  0  0  0
 12 18  1  0  0  0  0
 12 13  1  0  0  0  0
 12 32  1  0  0  0  0
 13 17  1  0  0  0  0
 13 14  1  0  0  0  0
 13 33  1  0  0  0  0
 14 15  1  0  0  0  0
 14 34  1  0  0  0  0
 14 35  1  0  0  0  0
 15 16  1  0  0  0  0
 15 36  1  0  0  0  0
 15 37  1  0  0  0  0
 16 17  1  0  0  0  0
 17 18  1  0  0  0  0
 17 38  1  0  0  0  0
 18 19  1  0  0  0  0
 18 20  1  0  0  0  0
 19 39  1  0  0  0  0
 19 40  1  0  0  0  0
 19 41  1  0  0  0  0
 20 42  1  0  0  0  0
 20 43  1  0  0  0  0
 20 44  1  0  0  0  0
 21 22  2  0  0  0  0
 21 45  1  0  0  0  0
M  END
> <s_m_source_file>
AV-unprocessed.smi

> <i_m_source_file_index>
2693

> <i_lp_mmshare_version>
43012

> <i_f3d_flags>
0

> <s_epik_input>
W0NIM11OKFtDSDNdKWMxbltjSF1jKFtjSF1uMSlbTkhdQyg9TylbTkhdW0NASF0yQyhbQ0gzXSkoW0NIM10pW0NAQEhdKFtDQEhdMjMpT1tDSDJdW0NIMl0z

> <s_epik_cmdline>
J2VwaWtfcHl0aG9uJywgJy1waCcsICc3LjAnLCAnLXRuJywgJzgnLCAnLW1hJywgJzIwMCcsICctbWV0YWxfYmluZGluZycsICctaW1hZScsICc8aW5maWxlLm1hZT4nLCAnLW9tYWUnLCAnPG91dGZpbGUubWFlPic=

> <r_lp_tautomer_probability>
1

> <r_epik_Ionization_Penalty>
0.00031779

> <r_epik_Ionization_Penalty_Charging>
0

> <r_epik_Ionization_Penalty_Neutral>
0.00031779

> <r_epik_State_Penalty>
-0

> <r_epik_Charging_Adjusted_Penalty>
0

> <i_epik_Tot_Q>
0

> <i_epik_Tot_abs_Q>
0

> <r_epik_Metal_State_Penalty>
-0

> <b_epik_Metal_Only>
0

> <s_lp_Force_Field>
OPLS_2005

> <r_lp_Energy>
52.7678

> <b_lp_Chiralities_Consistent>
1

> <s_lp_Variant>
AV-unprocessed.smi:2693-2

> <Gold.Version>
5.8.1

> <Gold.Id.Protein>
6NUR|6NUR_protein|mol2

> <Gold.PLP.Fitness>
39.2946

> <Gold.PLP.PLP>
-31.6663

> <Gold.PLP.part.hbond>
-2.2180

> <Gold.PLP.part.metal>
0.0000

> <Gold.PLP.part.buried>
-3.8954

> <Gold.PLP.part.nonpolar>
-25.7964

> <Gold.PLP.part.repulsive>
0.5155

> <Gold.PLP.ligand.clash>
0.0000

> <Gold.PLP.ligand.torsion>
0.2839

> <Gold.PLP.Chemscore.Hbond>
1.9516

> <Gold.PLP.Chemscore.CHOScore>
0.6913

> <Gold.PLP.Chemscore.Metal>
0.0000

> <Gold.Chemscore.Hbonds>
donor molecule, donor type, donor heavy atom, donor atom, acceptor molecule, acceptor atom, score
      L1  H     8    30       P1 10175  0.94
      L1  H    11    31       P1 10175  1.00
      L1  C     6    29       P1 10171  0.64

> <Gold.PLP.Chemscore.Internal.Correction>
0.2675

> <Gold.Rescore>
     Score         DG    S(hbond)    S(metal)    S(lipo)     H(rot)  DE(clash)    DE(int)     intcor
     14.86     -17.73       1.82        0.00      74.63       1.00       0.68       2.19       ----

> <Gold.Chemscore.Fitness>
14.8570

> <Gold.Chemscore.DG>
-17.7307

> <Gold.Chemscore.ZeroCoef>
-5.4800

> <Gold.Chemscore.Hbond>
1.8201

> <Gold.Chemscore.Metal>
0.0000

> <Gold.Chemscore.Lipo>
74.6277

> <Gold.Chemscore.Internal_Hbond>
0.0000

> <Gold.Chemscore.DEClash>
0.6818

> <Gold.Chemscore.DEInternal>
2.1920

> <Gold.Chemscore.Rot>
1.0000

> <Gold.Chemscore.Internal.Correction>
   9.000000E+99

> <Gold.Chemscore.Hbonds>
donor molecule, donor type, donor heavy atom, donor atom, acceptor molecule, acceptor atom, score
      L1  H     8    30       P1 10175  0.86
      L1  H    11    31       P1 10175  0.82

> <Gold.Chemscore.Hbond.Weighted>
-6.0793

> <Gold.Chemscore.Metal.Weighted>
-0.0000

> <Gold.Chemscore.Lipo.Weighted>
-8.7314

> <Gold.Chemscore.Internal_Hbond.Weighted>
0.0000

> <Gold.Chemscore.DEClash.Weighted>
0.6818

> <Gold.Chemscore.DEInternal.Weighted>
2.1920

> <Gold.Chemscore.Rot.Weighted>
2.5600

> <Gold.Chemscore.Internal.Correction.Weighted>
   9.000000E+99

> <Gold.Protein.RotatedTorsions>
[ 6907 6896 6895 6894 ] final -169.42 input  -60.11 | X-H torsion
[ 7974 7965 7964 7962 ] final   63.17 input  175.53 | X-H torsion
[ 8008 7997 7996 7995 ] final  112.73 input   59.86 | X-H torsion
[ 10167 10162 10161 10158 ] final  -18.31 input  -65.29 | X-H torsion
[ 10718 10713 10712 10709 ] final  -25.11 input   66.30 | X-H torsion
[ 10763 10752 10751 10750 ] final   10.00 input  -60.55 | X-H torsion
[ 11005 11000 10999 10996 ] final  -46.89 input  -57.11 | X-H torsion

> <Gold.Protein.ActiveResidues>
 VAL166  LYS551  ARG553  GLY616  TRP617  ASP618  TYR619  PRO620  LYS621  CYS622 
 ASP623  PHE694  ASN695  SER759  ASP760  ASP761  ALA762  ILE779  LEU786  VAL792 
 PHE793  MET794  SER795  GLU796  ALA797  LYS798  CYS799  TRP800  GLU811  SER814 

> <Gold.Protein.RotatedAtoms>
  151.4913  133.3524  159.2853 H   0  0  0  0  0  0  0  0  0  0  0  0  # atno 6907 bound_to 6896
  150.8833  134.8229  159.7251 H   0  0  0  0  0  0  0  0  0  0  0  0  # atno 6908 bound_to 6896
  152.4776  134.4813  159.9718 H   0  0  0  0  0  0  0  0  0  0  0  0  # atno 6909 bound_to 6896
  145.8649  139.3339  143.0797 H   0  0  0  0  0  0  0  0  0  0  0  0  # atno 7974 bound_to 7965
  156.2211  140.2994  155.9955 H   0  0  0  0  0  0  0  0  0  0  0  0  # atno 8008 bound_to 7997
  155.2478  140.0425  157.3000 H   0  0  0  0  0  0  0  0  0  0  0  0  # atno 8009 bound_to 7997
  154.5843  140.2384  155.8018 H   0  0  0  0  0  0  0  0  0  0  0  0  # atno 8010 bound_to 7997
  140.7257  143.4929  150.9969 H   0  0  0  0  0  0  0  0  0  0  0  0  # atno 10167 bound_to 10162
  156.4687  130.4519  149.6883 H   0  0  0  0  0  0  0  0  0  0  0  0  # atno 10718 bound_to 10713
  153.2079  135.6865  153.8150 H   0  0  0  0  0  0  0  0  0  0  0  0  # atno 10763 bound_to 10752
  153.7393  135.3240  155.3302 H   0  0  0  0  0  0  0  0  0  0  0  0  # atno 10764 bound_to 10752
  154.8206  135.4654  154.0874 H   0  0  0  0  0  0  0  0  0  0  0  0  # atno 10765 bound_to 10752
  141.0607  133.6710  156.3219 H   0  0  0  0  0  0  0  0  0  0  0  0  # atno 11005 bound_to 11000
  145.9205  140.9119  143.0408 LP  0  0  0  0  0  0  0  0  0  0  0  0  # atno 17320 bound_to 7965
  144.6726  140.1282  143.7445 LP  0  0  0  0  0  0  0  0  0  0  0  0  # atno 17321 bound_to 7965
  139.8634  143.7285  152.3172 LP  0  0  0  0  0  0  0  0  0  0  0  0  # atno 17342 bound_to 10162
  139.7508  144.7534  151.0509 LP  0  0  0  0  0  0  0  0  0  0  0  0  # atno 17343 bound_to 10162
  156.3641  130.7496  151.2472 LP  0  0  0  0  0  0  0  0  0  0  0  0  # atno 17370 bound_to 10713
  157.7493  131.0342  150.4306 LP  0  0  0  0  0  0  0  0  0  0  0  0  # atno 17371 bound_to 10713
  140.5875  134.5684  157.5492 LP  0  0  0  0  0  0  0  0  0  0  0  0  # atno 17394 bound_to 11000
  139.9430  134.7753  156.0632 LP  0  0  0  0  0  0  0  0  0  0  0  0  # atno 17395 bound_to 11000

$$$$
