AV-unprocessed.smi:2243|AV-procd|sdf|9069|dock3
  -GOLD-   2272012273D 1   1.00000     0.00000
 Structure written by MMmdl.
 34 35  0  0  0  0  0  0  0  0  1 V2000
  151.4924  140.4751  157.7786 C   0  0  0  0  0  0  0  0  0  0  0  0
  151.3978  141.9382  157.3131 C   0  0  1  0  0  0  0  0  0  0  0  0
  150.3081  142.0316  156.3402 N   0  0  0  0  0  0  0  0  0  0  0  0
  150.0866  141.2069  155.3045 C   0  0  0  0  0  0  0  0  0  0  0  0
  150.8261  140.2462  155.0683 O   0  0  0  0  0  0  0  0  0  0  0  0
  148.9606  141.6201  154.6065 N   0  0  0  0  0  0  0  0  0  0  0  0
  148.2443  140.7570  153.9529 C   0  0  0  0  0  0  0  0  0  0  0  0
  148.3465  139.3803  153.7708 N   0  0  0  0  0  0  0  0  0  0  0  0
  147.3083  138.9764  152.9789 C   0  0  0  0  0  0  0  0  0  0  0  0
  146.5826  140.0476  152.6735 C   0  0  0  0  0  0  0  0  0  0  0  0
  147.1303  141.1513  153.2554 O   0  0  0  0  0  0  0  0  0  0  0  0
  151.1731  142.9405  158.4766 C   0  0  0  0  0  0  0  0  0  0  0  0
  151.2589  144.4121  158.0173 C   0  0  0  0  0  0  0  0  0  0  0  0
  151.1053  145.3781  159.2027 C   0  0  0  0  0  0  0  0  0  0  0  0
  152.0959  145.1036  160.1854 O   0  0  0  0  0  0  0  0  0  0  0  0
  151.9754  143.7971  160.7333 C   0  0  0  0  0  0  0  0  0  0  0  0
  152.1746  142.7423  159.6327 C   0  0  0  0  0  0  0  0  0  0  0  0
  152.3701  140.3041  158.4010 H   0  0  0  0  0  0  0  0  0  0  0  0
  151.5740  139.7989  156.9268 H   0  0  0  0  0  0  0  0  0  0  0  0
  150.6116  140.1821  158.3510 H   0  0  0  0  0  0  0  0  0  0  0  0
  152.3460  142.1869  156.8338 H   0  0  0  0  0  0  0  0  0  0  0  0
  149.6619  142.7972  156.4663 H   0  0  0  0  0  0  0  0  0  0  0  0
  149.0454  138.7514  154.1401 H   0  0  0  0  0  0  0  0  0  0  0  0
  147.1966  137.9361  152.7112 H   0  0  0  0  0  0  0  0  0  0  0  0
  145.6900  140.1843  152.0812 H   0  0  0  0  0  0  0  0  0  0  0  0
  150.1697  142.7762  158.8731 H   0  0  0  0  0  0  0  0  0  0  0  0
  152.2172  144.5896  157.5273 H   0  0  0  0  0  0  0  0  0  0  0  0
  150.4875  144.6349  157.2801 H   0  0  0  0  0  0  0  0  0  0  0  0
  151.2229  146.4074  158.8635 H   0  0  0  0  0  0  0  0  0  0  0  0
  150.1093  145.3001  159.6415 H   0  0  0  0  0  0  0  0  0  0  0  0
  152.7296  143.6724  161.5105 H   0  0  0  0  0  0  0  0  0  0  0  0
  151.0026  143.6799  161.2135 H   0  0  0  0  0  0  0  0  0  0  0  0
  152.0651  141.7525  160.0747 H   0  0  0  0  0  0  0  0  0  0  0  0
  153.1952  142.8047  159.2528 H   0  0  0  0  0  0  0  0  0  0  0  0
  1  2  1  0  0  0  0
  1 18  1  0  0  0  0
  1 19  1  0  0  0  0
  1 20  1  0  0  0  0
  2  3  1  0  0  0  0
  2 12  1  0  0  0  0
  2 21  1  0  0  0  0
  3 22  1  0  0  0  0
  3  4  1  0  0  0  0
  4  6  1  0  0  0  0
  4  5  2  0  0  0  0
  6  7  2  0  0  0  0
  7 11  1  0  0  0  0
  7  8  1  0  0  0  0
  8 23  1  0  0  0  0
  8  9  1  0  0  0  0
  9 24  1  0  0  0  0
  9 10  2  0  0  0  0
 10 25  1  0  0  0  0
 10 11  1  0  0  0  0
 12 17  1  0  0  0  0
 12 13  1  0  0  0  0
 12 26  1  0  0  0  0
 13 14  1  0  0  0  0
 13 27  1  0  0  0  0
 13 28  1  0  0  0  0
 14 15  1  0  0  0  0
 14 29  1  0  0  0  0
 14 30  1  0  0  0  0
 15 16  1  0  0  0  0
 16 17  1  0  0  0  0
 16 31  1  0  0  0  0
 16 32  1  0  0  0  0
 17 33  1  0  0  0  0
 17 34  1  0  0  0  0
M  END
> <s_m_source_file>
AV-unprocessed.smi

> <i_m_source_file_index>
2243

> <i_lp_mmshare_version>
43012

> <i_f3d_flags>
0

> <s_epik_input>
W0NIMl0xW0NIMl1PW0NIMl1bQ0gyXVtDSF0xW0NASF0oW0NIM10pW05IXUMoPU8pW05IXWMybltjSF1bY0hdbzI=

> <s_epik_cmdline>
J2VwaWtfcHl0aG9uJywgJy1waCcsICc3LjAnLCAnLXRuJywgJzgnLCAnLW1hJywgJzIwMCcsICctbWV0YWxfYmluZGluZycsICctaW1hZScsICc8aW5maWxlLm1hZT4nLCAnLW9tYWUnLCAnPG91dGZpbGUubWFlPic=

> <r_lp_tautomer_probability>
0.107061

> <r_epik_Ionization_Penalty>
1.44639

> <r_epik_Ionization_Penalty_Charging>
1.44602

> <r_epik_Ionization_Penalty_Neutral>
0.000368208

> <r_epik_State_Penalty>
2.61815

> <r_epik_Charging_Adjusted_Penalty>
4.06418

> <i_epik_Tot_Q>
0

> <i_epik_Tot_abs_Q>
0

> <r_epik_Metal_State_Penalty>
3.54171

> <b_epik_Metal_Only>
0

> <s_lp_Force_Field>
OPLS_2005

> <r_lp_Energy>
34.9147

> <b_lp_Chiralities_Consistent>
1

> <s_lp_Variant>
AV-unprocessed.smi:2243-8

> <Gold.Version>
5.8.1

> <Gold.Id.Protein>
6NUR|6NUR_protein|mol2

> <Gold.PLP.Fitness>
41.0817

> <Gold.PLP.PLP>
-31.4210

> <Gold.PLP.part.hbond>
-3.0635

> <Gold.PLP.part.metal>
0.0000

> <Gold.PLP.part.buried>
0.0751

> <Gold.PLP.part.nonpolar>
-28.6559

> <Gold.PLP.part.repulsive>
0.6588

> <Gold.PLP.ligand.clash>
0.0000

> <Gold.PLP.ligand.torsion>
0.3459

> <Gold.PLP.Chemscore.Hbond>
1.4446

> <Gold.PLP.Chemscore.CHOScore>
2.0000

> <Gold.PLP.Chemscore.Metal>
0.0000

> <Gold.Chemscore.Hbonds>
donor molecule, donor type, donor heavy atom, donor atom, acceptor molecule, acceptor atom, score
      L1  H     3    22       P1  8028  0.48
      P1  H  7989  7998       L1     5  0.95
      L1  C     9    24       P1  7948  0.88
      L1  C    10    25       P1 10175  1.00

> <Gold.PLP.Chemscore.Internal.Correction>
0.0187

> <Gold.Rescore>
     Score         DG    S(hbond)    S(metal)    S(lipo)     H(rot)  DE(clash)    DE(int)     intcor
     11.66     -14.95       0.98        0.00      81.79       1.32       1.43       1.87       ----

> <Gold.Chemscore.Fitness>
11.6551

> <Gold.Chemscore.DG>
-14.9511

> <Gold.Chemscore.ZeroCoef>
-5.4800

> <Gold.Chemscore.Hbond>
0.9824

> <Gold.Chemscore.Metal>
0.0000

> <Gold.Chemscore.Lipo>
81.7896

> <Gold.Chemscore.Internal_Hbond>
0.0000

> <Gold.Chemscore.DEClash>
1.4266

> <Gold.Chemscore.DEInternal>
1.8694

> <Gold.Chemscore.Rot>
1.3201

> <Gold.Chemscore.Internal.Correction>
   9.000000E+99

> <Gold.Chemscore.Hbonds>
donor molecule, donor type, donor heavy atom, donor atom, acceptor molecule, acceptor atom, score
      L1  H     3    22       P1  8028  0.47
      P1  H  7989  7998       L1     5  0.21

> <Gold.Chemscore.Hbond.Weighted>
-3.2811

> <Gold.Chemscore.Metal.Weighted>
-0.0000

> <Gold.Chemscore.Lipo.Weighted>
-9.5694

> <Gold.Chemscore.Internal_Hbond.Weighted>
0.0000

> <Gold.Chemscore.DEClash.Weighted>
1.4266

> <Gold.Chemscore.DEInternal.Weighted>
1.8694

> <Gold.Chemscore.Rot.Weighted>
3.3794

> <Gold.Chemscore.Internal.Correction.Weighted>
   9.000000E+99

> <Gold.Protein.RotatedTorsions>
[ 6907 6896 6895 6894 ] final  -20.03 input  -60.11 | X-H torsion
[ 7974 7965 7964 7962 ] final  -18.56 input  175.53 | X-H torsion
[ 8008 7997 7996 7995 ] final  111.39 input   59.86 | X-H torsion
[ 10167 10162 10161 10158 ] final  107.25 input  -65.29 | X-H torsion
[ 10718 10713 10712 10709 ] final    7.30 input   66.30 | X-H torsion
[ 10763 10752 10751 10750 ] final  -54.77 input  -60.55 | X-H torsion
[ 11005 11000 10999 10996 ] final  -93.16 input  -57.11 | X-H torsion

> <Gold.Protein.ActiveResidues>
 VAL166  LYS551  ARG553  GLY616  TRP617  ASP618  TYR619  PRO620  LYS621  CYS622 
 ASP623  PHE694  ASN695  SER759  ASP760  ASP761  ALA762  ILE779  LEU786  VAL792 
 PHE793  MET794  SER795  GLU796  ALA797  LYS798  CYS799  TRP800  GLU811  SER814 

> <Gold.Protein.RotatedAtoms>
  151.2543  135.0632  159.9073 H   0  0  0  0  0  0  0  0  0  0  0  0  # atno 6907 bound_to 6896
  152.5375  134.0299  159.8030 H   0  0  0  0  0  0  0  0  0  0  0  0  # atno 6908 bound_to 6896
  151.0512  133.5573  159.2673 H   0  0  0  0  0  0  0  0  0  0  0  0  # atno 6909 bound_to 6896
  146.1886  140.3938  142.8467 H   0  0  0  0  0  0  0  0  0  0  0  0  # atno 7974 bound_to 7965
  156.2120  140.3020  155.9754 H   0  0  0  0  0  0  0  0  0  0  0  0  # atno 8008 bound_to 7997
  155.2700  140.0433  157.3023 H   0  0  0  0  0  0  0  0  0  0  0  0  # atno 8009 bound_to 7997
  154.5713  140.2349  155.8195 H   0  0  0  0  0  0  0  0  0  0  0  0  # atno 8010 bound_to 7997
  139.6942  144.7104  151.1295 H   0  0  0  0  0  0  0  0  0  0  0  0  # atno 10167 bound_to 10162
  156.9349  130.5839  149.5650 H   0  0  0  0  0  0  0  0  0  0  0  0  # atno 10718 bound_to 10713
  154.1802  135.6444  153.5032 H   0  0  0  0  0  0  0  0  0  0  0  0  # atno 10763 bound_to 10752
  153.0061  135.5404  154.6522 H   0  0  0  0  0  0  0  0  0  0  0  0  # atno 10764 bound_to 10752
  154.5884  135.2932  155.0633 H   0  0  0  0  0  0  0  0  0  0  0  0  # atno 10765 bound_to 10752
  141.1504  133.7869  157.0120 H   0  0  0  0  0  0  0  0  0  0  0  0  # atno 11005 bound_to 11000
  144.8444  140.6906  143.6209 LP  0  0  0  0  0  0  0  0  0  0  0  0  # atno 17320 bound_to 7965
  145.3862  139.1626  143.4253 LP  0  0  0  0  0  0  0  0  0  0  0  0  # atno 17321 bound_to 7965
  140.7691  143.5515  150.9199 LP  0  0  0  0  0  0  0  0  0  0  0  0  # atno 17342 bound_to 10162
  139.9194  143.6624  152.3100 LP  0  0  0  0  0  0  0  0  0  0  0  0  # atno 17343 bound_to 10162
  156.0430  130.5510  150.8816 LP  0  0  0  0  0  0  0  0  0  0  0  0  # atno 17370 bound_to 10713
  157.5823  131.0946  150.9251 LP  0  0  0  0  0  0  0  0  0  0  0  0  # atno 17371 bound_to 10713
  140.0871  134.9614  157.1718 LP  0  0  0  0  0  0  0  0  0  0  0  0  # atno 17394 bound_to 11000
  140.3496  134.2613  155.7200 LP  0  0  0  0  0  0  0  0  0  0  0  0  # atno 17395 bound_to 11000

$$$$
