AV-unprocessed.smi:2902|AV-procd|sdf|11157|dock10
  -GOLD-   2272016 43D 1   1.00000     0.00000
 Structure written by MMmdl.
 47 48  0  0  0  0  0  0  0  0  1 V2000
  148.5929  140.7901  154.6740 C   0  0  0  0  0  0  0  0  0  0  0  0
  149.8806  141.3596  155.2825 C   0  0  0  0  0  0  0  0  0  0  0  0
  149.7100  141.7719  156.7567 C   0  0  2  0  0  0  0  0  0  0  0  0
  151.0064  141.8031  157.3561 O   0  0  0  0  0  0  0  0  0  0  0  0
  151.2243  142.7668  158.3851 C   0  0  0  0  0  0  0  0  0  0  0  0
  151.4933  144.1798  157.8587 C   0  0  0  0  0  0  0  0  0  0  0  0
  152.2821  144.8735  158.9755 C   0  0  0  0  0  0  0  0  0  0  0  0
  152.9077  143.7534  159.8219 C   0  0  0  0  0  0  0  0  0  0  0  0
  152.5038  142.4364  159.1511 C   0  0  0  0  0  0  0  0  0  0  0  0
  148.7951  140.7930  157.5104 C   0  0  0  0  0  0  0  0  0  0  0  0
  147.7447  141.1857  158.0184 O   0  0  0  0  0  0  0  0  0  0  0  0
  149.2044  139.5156  157.5539 N   0  0  0  0  0  0  0  0  0  0  0  0
  148.4870  138.4108  158.1854 C   0  0  1  0  0  0  0  0  0  0  0  0
  147.2344  138.0750  157.3523 C   0  0  0  0  0  0  0  0  0  0  0  0
  149.4417  137.2047  158.3750 C   0  0  1  0  0  0  0  0  0  0  0  0
  148.7857  136.0298  159.1239 C   0  0  0  0  0  0  0  0  0  0  0  0
  149.9852  136.7406  157.1061 N   0  0  0  0  0  0  0  0  0  0  0  0
  150.8921  135.7978  156.8377 C   0  0  0  0  0  0  0  0  0  0  0  0
  151.1492  135.6528  155.5455 N   0  0  0  0  0  0  0  0  0  0  0  0
  150.3118  136.6056  155.0384 C   0  0  0  0  0  0  0  0  0  0  0  0
  149.5942  137.2879  155.9308 N   0  0  0  0  0  0  0  0  0  0  0  0
  148.7503  140.4980  153.6357 H   0  0  0  0  0  0  0  0  0  0  0  0
  147.7879  141.5251  154.6938 H   0  0  0  0  0  0  0  0  0  0  0  0
  148.2555  139.9088  155.2200 H   0  0  0  0  0  0  0  0  0  0  0  0
  150.6671  140.6081  155.1984 H   0  0  0  0  0  0  0  0  0  0  0  0
  150.2096  142.2147  154.6906 H   0  0  0  0  0  0  0  0  0  0  0  0
  149.2647  142.7680  156.7803 H   0  0  0  0  0  0  0  0  0  0  0  0
  150.3972  142.7879  159.0961 H   0  0  0  0  0  0  0  0  0  0  0  0
  152.1094  144.1244  156.9600 H   0  0  0  0  0  0  0  0  0  0  0  0
  150.5790  144.7157  157.6019 H   0  0  0  0  0  0  0  0  0  0  0  0
  153.0375  145.5455  158.5675 H   0  0  0  0  0  0  0  0  0  0  0  0
  151.6127  145.4727  159.5939 H   0  0  0  0  0  0  0  0  0  0  0  0
  153.9916  143.8495  159.8933 H   0  0  0  0  0  0  0  0  0  0  0  0
  152.5094  143.7944  160.8365 H   0  0  0  0  0  0  0  0  0  0  0  0
  152.3684  141.6235  159.8652 H   0  0  0  0  0  0  0  0  0  0  0  0
  153.2828  142.1338  158.4496 H   0  0  0  0  0  0  0  0  0  0  0  0
  150.0783  139.2877  157.1022 H   0  0  0  0  0  0  0  0  0  0  0  0
  148.1538  138.7290  159.1753 H   0  0  0  0  0  0  0  0  0  0  0  0
  146.6214  137.3122  157.8321 H   0  0  0  0  0  0  0  0  0  0  0  0
  147.5058  137.7092  156.3614 H   0  0  0  0  0  0  0  0  0  0  0  0
  146.6020  138.9536  157.2193 H   0  0  0  0  0  0  0  0  0  0  0  0
  150.2839  137.5439  158.9817 H   0  0  0  0  0  0  0  0  0  0  0  0
  148.4731  136.3164  160.1281 H   0  0  0  0  0  0  0  0  0  0  0  0
  149.4816  135.1967  159.2280 H   0  0  0  0  0  0  0  0  0  0  0  0
  147.9056  135.6633  158.5945 H   0  0  0  0  0  0  0  0  0  0  0  0
  151.3721  135.2051  157.6027 H   0  0  0  0  0  0  0  0  0  0  0  0
  150.2298  136.8036  153.9798 H   0  0  0  0  0  0  0  0  0  0  0  0
  1  2  1  0  0  0  0
  1 22  1  0  0  0  0
  1 23  1  0  0  0  0
  1 24  1  0  0  0  0
  2  3  1  0  0  0  0
  2 25  1  0  0  0  0
  2 26  1  0  0  0  0
  3  4  1  0  0  0  0
  3 10  1  0  0  0  0
  3 27  1  0  0  0  0
  4  5  1  0  0  0  0
  5  9  1  0  0  0  0
  5  6  1  0  0  0  0
  5 28  1  0  0  0  0
  6  7  1  0  0  0  0
  6 29  1  0  0  0  0
  6 30  1  0  0  0  0
  7  8  1  0  0  0  0
  7 31  1  0  0  0  0
  7 32  1  0  0  0  0
  8  9  1  0  0  0  0
  8 33  1  0  0  0  0
  8 34  1  0  0  0  0
  9 35  1  0  0  0  0
  9 36  1  0  0  0  0
 10 11  2  0  0  0  0
 10 12  1  0  0  0  0
 12 13  1  0  0  0  0
 12 37  1  0  0  0  0
 13 14  1  0  0  0  0
 13 15  1  0  0  0  0
 13 38  1  0  0  0  0
 14 39  1  0  0  0  0
 14 40  1  0  0  0  0
 14 41  1  0  0  0  0
 15 16  1  0  0  0  0
 15 17  1  0  0  0  0
 15 42  1  0  0  0  0
 16 43  1  0  0  0  0
 16 44  1  0  0  0  0
 16 45  1  0  0  0  0
 17 21  1  0  0  0  0
 17 18  1  0  0  0  0
 18 19  2  0  0  0  0
 18 46  1  0  0  0  0
 19 20  1  0  0  0  0
 20 21  2  0  0  0  0
 20 47  1  0  0  0  0
M  END
> <s_m_source_file>
AV-unprocessed.smi

> <i_m_source_file_index>
2902

> <i_lp_mmshare_version>
43012

> <i_f3d_flags>
0

> <s_epik_input>
W0NIMl0xW0NIMl1bQ0gyXVtDSDJdW0NIXTFPW0NAQEhdKFtDSDJdW0NIM10pQyg9TylbTkhdW0NASF0oW0NIM10pW0NASF0oW0NIM10pbjJbY0hdbltjSF1uMg==

> <s_epik_cmdline>
J2VwaWtfcHl0aG9uJywgJy1waCcsICc3LjAnLCAnLXRuJywgJzgnLCAnLW1hJywgJzIwMCcsICctbWV0YWxfYmluZGluZycsICctaW1hZScsICc8aW5maWxlLm1hZT4nLCAnLW9tYWUnLCAnPG91dGZpbGUubWFlPic=

> <r_lp_tautomer_probability>
1

> <r_epik_Ionization_Penalty>
6.95617e-05

> <r_epik_Ionization_Penalty_Charging>
0

> <r_epik_Ionization_Penalty_Neutral>
6.95617e-05

> <r_epik_State_Penalty>
-0

> <r_epik_Charging_Adjusted_Penalty>
0

> <i_epik_Tot_Q>
0

> <i_epik_Tot_abs_Q>
0

> <r_epik_Metal_State_Penalty>
-0

> <b_epik_Metal_Only>
0

> <s_lp_Force_Field>
OPLS_2005

> <r_lp_Energy>
29.96

> <b_lp_Chiralities_Consistent>
1

> <s_lp_Variant>
AV-unprocessed.smi:2902-7

> <Gold.Version>
5.8.1

> <Gold.Id.Protein>
6NUR|6NUR_protein|mol2

> <Gold.PLP.Fitness>
38.0978

> <Gold.PLP.PLP>
-33.7875

> <Gold.PLP.part.hbond>
-1.4396

> <Gold.PLP.part.metal>
0.0000

> <Gold.PLP.part.buried>
-4.5952

> <Gold.PLP.part.nonpolar>
-28.6102

> <Gold.PLP.part.repulsive>
0.3210

> <Gold.PLP.ligand.clash>
0.0000

> <Gold.PLP.ligand.torsion>
0.9561

> <Gold.PLP.Chemscore.Hbond>
1.0000

> <Gold.PLP.Chemscore.CHOScore>
1.0264

> <Gold.PLP.Chemscore.Metal>
0.0000

> <Gold.Chemscore.Hbonds>
donor molecule, donor type, donor heavy atom, donor atom, acceptor molecule, acceptor atom, score
      P1  H 10752 10764       L1    19  1.00
      L1  C    20    47       P1  7948  0.93
      L1  C    20    47       P1  7949  0.10

> <Gold.PLP.Chemscore.Internal.Correction>
0.1433

> <Gold.Rescore>
     Score         DG    S(hbond)    S(metal)    S(lipo)     H(rot)  DE(clash)    DE(int)     intcor
      9.07     -12.60       0.99        0.00      91.44       2.69       0.01       3.52       ----

> <Gold.Chemscore.Fitness>
9.0678

> <Gold.Chemscore.DG>
-12.5982

> <Gold.Chemscore.ZeroCoef>
-5.4800

> <Gold.Chemscore.Hbond>
0.9925

> <Gold.Chemscore.Metal>
0.0000

> <Gold.Chemscore.Lipo>
91.4428

> <Gold.Chemscore.Internal_Hbond>
0.0000

> <Gold.Chemscore.DEClash>
0.0086

> <Gold.Chemscore.DEInternal>
3.5218

> <Gold.Chemscore.Rot>
2.6935

> <Gold.Chemscore.Internal.Correction>
   9.000000E+99

> <Gold.Chemscore.Hbonds>
donor molecule, donor type, donor heavy atom, donor atom, acceptor molecule, acceptor atom, score
      P1  H 10752 10764       L1    19  0.86

> <Gold.Chemscore.Hbond.Weighted>
-3.3148

> <Gold.Chemscore.Metal.Weighted>
-0.0000

> <Gold.Chemscore.Lipo.Weighted>
-10.6988

> <Gold.Chemscore.Internal_Hbond.Weighted>
0.0000

> <Gold.Chemscore.DEClash.Weighted>
0.0086

> <Gold.Chemscore.DEInternal.Weighted>
3.5218

> <Gold.Chemscore.Rot.Weighted>
6.8954

> <Gold.Chemscore.Internal.Correction.Weighted>
   9.000000E+99

> <Gold.Protein.RotatedTorsions>
[ 6907 6896 6895 6894 ] final   61.61 input  -60.11 | X-H torsion
[ 7974 7965 7964 7962 ] final -119.00 input  175.53 | X-H torsion
[ 8008 7997 7996 7995 ] final   11.71 input   59.86 | X-H torsion
[ 10167 10162 10161 10158 ] final -137.15 input  -65.29 | X-H torsion
[ 10718 10713 10712 10709 ] final  -74.65 input   66.30 | X-H torsion
[ 10763 10752 10751 10750 ] final  -55.84 input  -60.55 | X-H torsion
[ 11005 11000 10999 10996 ] final  -72.27 input  -57.11 | X-H torsion

> <Gold.Protein.ActiveResidues>
 VAL166  LYS551  ARG553  GLY616  TRP617  ASP618  TYR619  PRO620  LYS621  CYS622 
 ASP623  PHE694  ASN695  SER759  ASP760  ASP761  ALA762  ILE779  LEU786  VAL792 
 PHE793  MET794  SER795  GLU796  ALA797  LYS798  CYS799  TRP800  GLU811  SER814 

> <Gold.Protein.RotatedAtoms>
  152.4103  134.6136  160.0031 H   0  0  0  0  0  0  0  0  0  0  0  0  # atno 6907 bound_to 6896
  151.6315  133.3326  159.3118 H   0  0  0  0  0  0  0  0  0  0  0  0  # atno 6908 bound_to 6896
  150.7994  134.7118  159.6653 H   0  0  0  0  0  0  0  0  0  0  0  0  # atno 6909 bound_to 6896
  145.0674  140.8334  143.4116 H   0  0  0  0  0  0  0  0  0  0  0  0  # atno 7974 bound_to 7965
  154.8106  140.2867  155.5856 H   0  0  0  0  0  0  0  0  0  0  0  0  # atno 8008 bound_to 7997
  156.2988  140.2569  156.2923 H   0  0  0  0  0  0  0  0  0  0  0  0  # atno 8009 bound_to 7997
  154.9452  140.0380  157.2106 H   0  0  0  0  0  0  0  0  0  0  0  0  # atno 8010 bound_to 7997
  139.8606  143.7082  152.2650 H   0  0  0  0  0  0  0  0  0  0  0  0  # atno 10167 bound_to 10162
  156.0235  130.4422  150.2925 H   0  0  0  0  0  0  0  0  0  0  0  0  # atno 10718 bound_to 10713
  154.1973  135.6417  153.5077 H   0  0  0  0  0  0  0  0  0  0  0  0  # atno 10763 bound_to 10752
  153.0020  135.5443  154.6353 H   0  0  0  0  0  0  0  0  0  0  0  0  # atno 10764 bound_to 10752
  154.5757  135.2920  155.0756 H   0  0  0  0  0  0  0  0  0  0  0  0  # atno 10765 bound_to 10752
  141.1606  133.6842  156.7033 H   0  0  0  0  0  0  0  0  0  0  0  0  # atno 11005 bound_to 11000
  145.1334  139.2617  143.5527 LP  0  0  0  0  0  0  0  0  0  0  0  0  # atno 17320 bound_to 7965
  146.3527  140.0991  142.8609 LP  0  0  0  0  0  0  0  0  0  0  0  0  # atno 17321 bound_to 7965
  139.7377  144.7567  151.0701 LP  0  0  0  0  0  0  0  0  0  0  0  0  # atno 17342 bound_to 10162
  140.7775  143.5010  150.9772 LP  0  0  0  0  0  0  0  0  0  0  0  0  # atno 17343 bound_to 10162
  157.1028  131.0200  151.3079 LP  0  0  0  0  0  0  0  0  0  0  0  0  # atno 17370 bound_to 10713
  157.4766  130.7740  149.7374 LP  0  0  0  0  0  0  0  0  0  0  0  0  # atno 17371 bound_to 10713
  140.2942  134.8216  157.4043 LP  0  0  0  0  0  0  0  0  0  0  0  0  # atno 17394 bound_to 11000
  140.1319  134.5084  155.8098 LP  0  0  0  0  0  0  0  0  0  0  0  0  # atno 17395 bound_to 11000

$$$$
