AV-unprocessed.smi:45|AV-procd|sdf|410|dock1
  -GOLD-   2262016273D 1   1.00000     0.00000
 Structure written by MMmdl.
 61 64  0  0  0  0  0  0  0  0  2 V2000
  135.9720  137.1538  154.8008 C   0  0  0  0  0  0  0  0  0  0  0  0
  136.7232  138.1654  154.1461 O   0  0  0  0  0  0  0  0  0  0  0  0
  138.0687  137.9458  153.9339 C   0  0  0  0  0  0  0  0  0  0  0  0
  138.7224  136.7199  154.2182 C   0  0  0  0  0  0  0  0  0  0  0  0
  140.1010  136.5700  153.9735 C   0  0  0  0  0  0  0  0  0  0  0  0
  140.8504  137.6398  153.4444 C   0  0  0  0  0  0  0  0  0  0  0  0
  142.3338  137.4796  153.1744 C   0  0  0  0  0  0  0  0  0  0  0  0
  143.1261  137.2925  154.3825 N   0  0  0  0  0  0  0  0  0  0  0  0
  144.0887  136.2722  154.4695 C   0  0  0  0  0  0  0  0  0  0  0  0
  144.1157  135.3464  153.4848 N   0  0  0  0  0  0  0  0  0  0  0  0
  145.0060  134.3464  153.5117 C   0  0  0  0  0  0  0  0  0  0  0  0
  145.0106  133.4078  152.4806 N   0  0  0  0  0  0  0  0  0  0  0  0
  143.9916  133.4201  151.4366 C   0  0  0  0  0  0  0  0  0  0  0  0
  144.6801  132.9157  150.1693 C   0  0  0  0  0  0  0  0  0  0  0  0
  145.7698  132.0013  150.7126 C   0  0  0  0  0  0  0  0  0  0  0  0
  146.1998  132.6907  152.0157 C   0  0  2  0  0  0  0  0  0  0  0  0
  146.7613  131.6953  153.0534 C   0  0  0  0  0  0  0  0  0  0  0  0
  148.1072  131.3953  152.7517 O   0  0  0  0  0  0  0  0  0  0  0  0
  145.8917  134.2144  154.5119 N   0  3  0  0  0  0  0  0  0  0  0  0
  145.9054  135.1104  155.5275 C   0  0  0  0  0  0  0  0  0  0  0  0
  144.9931  136.1872  155.5575 C   0  0  0  0  0  0  0  0  0  0  0  0
  145.0409  137.1935  156.6760 C   0  0  0  0  0  0  0  0  0  0  0  0
  144.7905  138.3826  156.4787 O   0  0  0  0  0  0  0  0  0  0  0  0
  145.3460  136.6914  157.8831 N   0  0  0  0  0  0  0  0  0  0  0  0
  145.4876  137.4795  159.1016 C   0  0  0  0  0  0  0  0  0  0  0  0
  145.9647  136.6466  160.2783 C   0  0  0  0  0  0  0  0  0  0  0  0
  147.1156  137.0203  160.8483 N   0  0  0  0  0  0  0  0  0  0  0  0
  147.5418  136.2870  161.8997 C   0  0  0  0  0  0  0  0  0  0  0  0
  146.8100  135.1821  162.3788 C   0  0  0  0  0  0  0  0  0  0  0  0
  145.6118  134.8850  161.6986 C   0  0  0  0  0  0  0  0  0  0  0  0
  145.1910  135.6205  160.6467 N   0  0  0  0  0  0  0  0  0  0  0  0
  140.2070  138.8594  153.1566 C   0  0  0  0  0  0  0  0  0  0  0  0
  138.8279  139.0115  153.4005 C   0  0  0  0  0  0  0  0  0  0  0  0
  138.0717  140.5217  153.0376 Cl  0  0  0  0  0  0  0  0  0  0  0  0
  146.9578  133.4404  151.7836 H   0  0  0  0  0  0  0  0  0  0  0  0
  134.9353  137.4778  154.8911 H   0  0  0  0  0  0  0  0  0  0  0  0
  136.3473  136.9668  155.8078 H   0  0  0  0  0  0  0  0  0  0  0  0
  135.9775  136.2223  154.2332 H   0  0  0  0  0  0  0  0  0  0  0  0
  138.1874  135.8755  154.6248 H   0  0  0  0  0  0  0  0  0  0  0  0
  140.5816  135.6278  154.1929 H   0  0  0  0  0  0  0  0  0  0  0  0
  142.4697  136.6201  152.5170 H   0  0  0  0  0  0  0  0  0  0  0  0
  142.7025  138.3549  152.6383 H   0  0  0  0  0  0  0  0  0  0  0  0
  143.1018  138.0121  155.0916 H   0  0  0  0  0  0  0  0  0  0  0  0
  143.1835  132.7491  151.7294 H   0  0  0  0  0  0  0  0  0  0  0  0
  143.5690  134.4133  151.2796 H   0  0  0  0  0  0  0  0  0  0  0  0
  143.9971  132.4097  149.4864 H   0  0  0  0  0  0  0  0  0  0  0  0
  145.1344  133.7520  149.6362 H   0  0  0  0  0  0  0  0  0  0  0  0
  145.3443  131.0183  150.9214 H   0  0  0  0  0  0  0  0  0  0  0  0
  146.5960  131.8663  150.0140 H   0  0  0  0  0  0  0  0  0  0  0  0
  146.7329  132.1004  154.0638 H   0  0  0  0  0  0  0  0  0  0  0  0
  146.1794  130.7730  153.0642 H   0  0  0  0  0  0  0  0  0  0  0  0
  148.2077  131.3687  151.8121 H   0  0  0  0  0  0  0  0  0  0  0  0
  146.6579  134.9367  156.2834 H   0  0  0  0  0  0  0  0  0  0  0  0
  145.5227  135.7006  157.9620 H   0  0  0  0  0  0  0  0  0  0  0  0
  146.1603  138.3222  158.9299 H   0  0  0  0  0  0  0  0  0  0  0  0
  144.5164  137.9106  159.3469 H   0  0  0  0  0  0  0  0  0  0  0  0
  148.4721  136.5837  162.3611 H   0  0  0  0  0  0  0  0  0  0  0  0
  147.1487  134.5948  163.2195 H   0  0  0  0  0  0  0  0  0  0  0  0
  144.9895  134.0554  161.9994 H   0  0  0  0  0  0  0  0  0  0  0  0
  140.7703  139.6854  152.7474 H   0  0  0  0  0  0  0  0  0  0  0  0
  146.5629  133.4462  154.5131 H   0  0  0  0  0  0  0  0  0  0  0  0
  1  2  1  0  0  0  0
  1 36  1  0  0  0  0
  1 37  1  0  0  0  0
  1 38  1  0  0  0  0
  2  3  1  0  0  0  0
  3 33  1  0  0  0  0
  3  4  2  0  0  0  0
  4  5  1  0  0  0  0
  4 39  1  0  0  0  0
  5  6  2  0  0  0  0
  5 40  1  0  0  0  0
  6  7  1  0  0  0  0
  6 32  1  0  0  0  0
  7  8  1  0  0  0  0
  7 41  1  0  0  0  0
  7 42  1  0  0  0  0
  8  9  1  0  0  0  0
  8 43  1  0  0  0  0
  9 21  1  0  0  0  0
  9 10  2  0  0  0  0
 10 11  1  0  0  0  0
 11 12  1  0  0  0  0
 11 19  2  0  0  0  0
 12 16  1  0  0  0  0
 12 13  1  0  0  0  0
 13 14  1  0  0  0  0
 13 44  1  0  0  0  0
 13 45  1  0  0  0  0
 14 15  1  0  0  0  0
 14 46  1  0  0  0  0
 14 47  1  0  0  0  0
 15 16  1  0  0  0  0
 15 48  1  0  0  0  0
 15 49  1  0  0  0  0
 16 35  1  0  0  0  0
 16 17  1  0  0  0  0
 17 18  1  0  0  0  0
 17 50  1  0  0  0  0
 17 51  1  0  0  0  0
 18 52  1  0  0  0  0
 19 20  1  0  0  0  0
 19 61  1  0  0  0  0
 20 21  2  0  0  0  0
 20 53  1  0  0  0  0
 21 22  1  0  0  0  0
 22 23  2  0  0  0  0
 22 24  1  0  0  0  0
 24 25  1  0  0  0  0
 24 54  1  0  0  0  0
 25 26  1  0  0  0  0
 25 55  1  0  0  0  0
 25 56  1  0  0  0  0
 26 31  1  0  0  0  0
 26 27  2  0  0  0  0
 27 28  1  0  0  0  0
 28 29  2  0  0  0  0
 28 57  1  0  0  0  0
 29 30  1  0  0  0  0
 29 58  1  0  0  0  0
 30 31  2  0  0  0  0
 30 59  1  0  0  0  0
 32 33  2  0  0  0  0
 32 60  1  0  0  0  0
 33 34  1  0  0  0  0
M  CHG  1  19   1
M  END
> <s_m_source_file>
AV-unprocessed.smi

> <i_m_source_file_index>
45

> <i_lp_mmshare_version>
43012

> <i_f3d_flags>
0

> <s_epik_input>
W0NIM11PYzFbY0hdW2NIXWMoW2NIXWMxQ2wpW0NIMl1bTkhdYzJuYyhOM1tDSDJdW0NIMl1bQ0gyXVtDQEhdM1tDSDJdW09IXSluW2NIXWMyQyg9TylbTkhdW0NIMl1jNG5bY0hdW2NIXVtjSF1uNA==

> <s_epik_cmdline>
J2VwaWtfcHl0aG9uJywgJy1waCcsICc3LjAnLCAnLXRuJywgJzgnLCAnLW1hJywgJzIwMCcsICctbWV0YWxfYmluZGluZycsICctaW1hZScsICc8aW5maWxlLm1hZT4nLCAnLW9tYWUnLCAnPG91dGZpbGUubWFlPic=

> <r_lp_tautomer_probability>
0.575011

> <r_epik_Ionization_Penalty>
1.61454

> <r_epik_Ionization_Penalty_Charging>
1.61448

> <r_epik_Ionization_Penalty_Neutral>
6.30284e-05

> <r_epik_State_Penalty>
1.91123

> <r_epik_Charging_Adjusted_Penalty>
3.52572

> <i_epik_Tot_Q>
1

> <i_epik_Tot_abs_Q>
1

> <r_epik_Metal_State_Penalty>
1.95488

> <b_epik_Metal_Only>
0

> <s_epik_Chemistry_Notes>
This compound contains an electron-poor aromatic ring that is susceptible to covalent hydrolysis at low pH, typically resulting in measured values for nitrogen ring protonation that are around two units higher than predicted values.

> <s_lp_Force_Field>
OPLS_2005

> <r_lp_Energy>
37.0931

> <b_lp_Chiralities_Consistent>
1

> <s_lp_Variant>
AV-unprocessed.smi:45-4

> <Gold.Version>
5.8.1

> <Gold.Id.Protein>
6NUR|6NUR_protein|mol2

> <Gold.PLP.Fitness>
52.5730

> <Gold.PLP.PLP>
-47.9481

> <Gold.PLP.part.hbond>
-2.7169

> <Gold.PLP.part.metal>
0.0000

> <Gold.PLP.part.buried>
-4.9240

> <Gold.PLP.part.nonpolar>
-39.6322

> <Gold.PLP.part.repulsive>
0.0779

> <Gold.PLP.ligand.clash>
0.0000

> <Gold.PLP.ligand.torsion>
1.0575

> <Gold.PLP.Chemscore.Hbond>
2.0000

> <Gold.PLP.Chemscore.CHOScore>
0.0000

> <Gold.PLP.Chemscore.Metal>
0.0000

> <Gold.Chemscore.Hbonds>
donor molecule, donor type, donor heavy atom, donor atom, acceptor molecule, acceptor atom, score
      L1  H    18    52       P1 10747  1.00
      P1  H  6934  6947       L1    27  1.00

> <Gold.PLP.Chemscore.Internal.Correction>
0.7399

> <Gold.Rescore>
     Score         DG    S(hbond)    S(metal)    S(lipo)     H(rot)  DE(clash)    DE(int)     intcor
     15.12     -18.64       1.91        0.00     122.19       2.94       0.40       3.13       ----

> <Gold.Chemscore.Fitness>
15.1188

> <Gold.Chemscore.DG>
-18.6404

> <Gold.Chemscore.ZeroCoef>
-5.4800

> <Gold.Chemscore.Hbond>
1.9128

> <Gold.Chemscore.Metal>
0.0000

> <Gold.Chemscore.Lipo>
122.1939

> <Gold.Chemscore.Internal_Hbond>
0.0000

> <Gold.Chemscore.DEClash>
0.3959

> <Gold.Chemscore.DEInternal>
3.1257

> <Gold.Chemscore.Rot>
2.9395

> <Gold.Chemscore.Internal.Correction>
   9.000000E+99

> <Gold.Chemscore.Hbonds>
donor molecule, donor type, donor heavy atom, donor atom, acceptor molecule, acceptor atom, score
      L1  H    18    52       P1 10747  0.98
      P1  H  6934  6947       L1    27  0.66

> <Gold.Chemscore.Hbond.Weighted>
-6.3888

> <Gold.Chemscore.Metal.Weighted>
-0.0000

> <Gold.Chemscore.Lipo.Weighted>
-14.2967

> <Gold.Chemscore.Internal_Hbond.Weighted>
0.0000

> <Gold.Chemscore.DEClash.Weighted>
0.3959

> <Gold.Chemscore.DEInternal.Weighted>
3.1257

> <Gold.Chemscore.Rot.Weighted>
7.5251

> <Gold.Chemscore.Internal.Correction.Weighted>
   9.000000E+99

> <Gold.Protein.RotatedTorsions>
[ 6907 6896 6895 6894 ] final  -76.01 input  -60.11 | X-H torsion
[ 7974 7965 7964 7962 ] final   -6.01 input  175.53 | X-H torsion
[ 8008 7997 7996 7995 ] final -174.26 input   59.86 | X-H torsion
[ 10167 10162 10161 10158 ] final   85.63 input  -65.29 | X-H torsion
[ 10718 10713 10712 10709 ] final  176.17 input   66.30 | X-H torsion
[ 10763 10752 10751 10750 ] final   77.85 input  -60.55 | X-H torsion
[ 11005 11000 10999 10996 ] final -154.10 input  -57.11 | X-H torsion

> <Gold.Protein.ActiveResidues>
 VAL166  LYS551  ARG553  GLY616  TRP617  ASP618  TYR619  PRO620  LYS621  CYS622 
 ASP623  PHE694  ASN695  SER759  ASP760  ASP761  ALA762  ILE779  LEU786  VAL792 
 PHE793  MET794  SER795  GLU796  ALA797  LYS798  CYS799  TRP800  GLU811  SER814 

> <Gold.Protein.RotatedAtoms>
  150.7040  134.4635  159.5391 H   0  0  0  0  0  0  0  0  0  0  0  0  # atno 6907 bound_to 6896
  152.2305  134.8323  160.0483 H   0  0  0  0  0  0  0  0  0  0  0  0  # atno 6908 bound_to 6896
  151.9141  133.3533  159.3911 H   0  0  0  0  0  0  0  0  0  0  0  0  # atno 6909 bound_to 6896
  146.2340  140.2107  142.8335 H   0  0  0  0  0  0  0  0  0  0  0  0  # atno 7974 bound_to 7965
  155.9678  140.1157  157.0839 H   0  0  0  0  0  0  0  0  0  0  0  0  # atno 8008 bound_to 7997
  154.4148  140.1169  156.5333 H   0  0  0  0  0  0  0  0  0  0  0  0  # atno 8009 bound_to 7997
  155.6636  140.3473  155.4794 H   0  0  0  0  0  0  0  0  0  0  0  0  # atno 8010 bound_to 7997
  139.8958  144.6359  150.8689 H   0  0  0  0  0  0  0  0  0  0  0  0  # atno 10167 bound_to 10162
  156.9241  130.9950  151.2999 H   0  0  0  0  0  0  0  0  0  0  0  0  # atno 10718 bound_to 10713
  153.0829  135.4899  154.8539 H   0  0  0  0  0  0  0  0  0  0  0  0  # atno 10763 bound_to 10752
  154.7174  135.3032  154.9104 H   0  0  0  0  0  0  0  0  0  0  0  0  # atno 10764 bound_to 10752
  153.9779  135.6793  153.4802 H   0  0  0  0  0  0  0  0  0  0  0  0  # atno 10765 bound_to 10752
  140.7010  134.3938  157.5209 H   0  0  0  0  0  0  0  0  0  0  0  0  # atno 11005 bound_to 11000
  144.9709  140.8368  143.5456 LP  0  0  0  0  0  0  0  0  0  0  0  0  # atno 17320 bound_to 7965
  145.2088  139.2215  143.5154 LP  0  0  0  0  0  0  0  0  0  0  0  0  # atno 17321 bound_to 7965
  140.7717  143.3474  151.2082 LP  0  0  0  0  0  0  0  0  0  0  0  0  # atno 17342 bound_to 10162
  139.7069  143.9441  152.2930 LP  0  0  0  0  0  0  0  0  0  0  0  0  # atno 17343 bound_to 10162
  157.5889  130.8429  149.8630 LP  0  0  0  0  0  0  0  0  0  0  0  0  # atno 17370 bound_to 10713
  156.0477  130.3724  150.1277 LP  0  0  0  0  0  0  0  0  0  0  0  0  # atno 17371 bound_to 10713
  139.8897  134.8824  156.2408 LP  0  0  0  0  0  0  0  0  0  0  0  0  # atno 17394 bound_to 11000
  141.0164  133.7066  156.1195 LP  0  0  0  0  0  0  0  0  0  0  0  0  # atno 17395 bound_to 11000

$$$$
