AV-unprocessed.smi:1626|AV-procd|sdf|6508|dock10
  -GOLD-   22720 7173D 1   1.00000     0.00000
 Structure written by MMmdl.
 48 50  0  0  0  0  0  0  0  0  2 V2000
  152.7999  143.1096  160.6499 C   0  0  0  0  0  0  0  0  0  0  0  0
  152.1497  142.4497  159.4467 C   0  0  0  0  0  0  0  0  0  0  0  0
  152.0744  141.0397  159.3942 C   0  0  0  0  0  0  0  0  0  0  0  0
  151.4804  140.3866  158.2924 C   0  0  0  0  0  0  0  0  0  0  0  0
  151.3046  139.0380  158.0355 N   0  0  0  0  0  0  0  0  0  0  0  0
  150.6924  139.0669  156.8559 C   0  0  0  0  0  0  0  0  0  0  0  0
  150.4625  140.2768  156.3096 N   0  0  0  0  0  0  0  0  0  0  0  0
  149.8241  140.5538  155.0349 C   0  0  0  0  0  0  0  0  0  0  0  0
  149.1505  139.3085  154.4234 C   0  0  2  0  0  0  0  0  0  0  0  0
  150.1178  138.6428  153.6366 O   0  0  0  0  0  0  0  0  0  0  0  0
  147.9234  139.6393  153.5434 C   0  0  0  0  0  0  0  0  0  0  0  0
  147.2976  138.4250  152.9608 N   0  3  2  0  0  0  0  0  0  0  0  0
  146.5878  138.7117  151.6878 C   0  0  0  0  0  0  0  0  0  0  0  0
  146.0801  137.4163  151.0286 C   0  0  0  0  0  0  0  0  0  0  0  0
  145.1941  136.5952  151.9799 C   0  0  2  0  0  0  0  0  0  0  0  0
  143.9600  137.2540  152.1827 O   0  0  0  0  0  0  0  0  0  0  0  0
  145.9089  136.3799  153.3244 C   0  0  0  0  0  0  0  0  0  0  0  0
  146.4200  137.7036  153.9216 C   0  0  0  0  0  0  0  0  0  0  0  0
  150.9588  141.1889  157.2356 C   0  0  0  0  0  0  0  0  0  0  0  0
  151.0224  142.5930  157.2795 C   0  0  0  0  0  0  0  0  0  0  0  0
  151.6233  143.2292  158.3857 C   0  0  0  0  0  0  0  0  0  0  0  0
  151.6951  144.7456  158.4192 C   0  0  0  0  0  0  0  0  0  0  0  0
  153.0769  142.3743  161.4060 H   0  0  0  0  0  0  0  0  0  0  0  0
  152.1178  143.8226  161.1135 H   0  0  0  0  0  0  0  0  0  0  0  0
  153.7042  143.6396  160.3496 H   0  0  0  0  0  0  0  0  0  0  0  0
  152.4748  140.4459  160.2028 H   0  0  0  0  0  0  0  0  0  0  0  0
  150.4039  138.1545  156.3546 H   0  0  0  0  0  0  0  0  0  0  0  0
  149.0898  141.3479  155.1801 H   0  0  0  0  0  0  0  0  0  0  0  0
  150.5811  140.9481  154.3554 H   0  0  0  0  0  0  0  0  0  0  0  0
  148.8703  138.6387  155.2345 H   0  0  0  0  0  0  0  0  0  0  0  0
  150.1321  139.0273  152.7738 H   0  0  0  0  0  0  0  0  0  0  0  0
  147.1607  140.1760  154.1087 H   0  0  0  0  0  0  0  0  0  0  0  0
  148.2404  140.3201  152.7518 H   0  0  0  0  0  0  0  0  0  0  0  0
  145.7570  139.3933  151.8777 H   0  0  0  0  0  0  0  0  0  0  0  0
  147.2615  139.2194  150.9965 H   0  0  0  0  0  0  0  0  0  0  0  0
  145.5380  137.6483  150.1110 H   0  0  0  0  0  0  0  0  0  0  0  0
  146.9374  136.8117  150.7296 H   0  0  0  0  0  0  0  0  0  0  0  0
  144.9732  135.6289  151.5250 H   0  0  0  0  0  0  0  0  0  0  0  0
  143.6567  137.5922  151.3533 H   0  0  0  0  0  0  0  0  0  0  0  0
  145.2456  135.8794  154.0309 H   0  0  0  0  0  0  0  0  0  0  0  0
  146.7554  135.7081  153.1753 H   0  0  0  0  0  0  0  0  0  0  0  0
  146.9581  137.4890  154.8441 H   0  0  0  0  0  0  0  0  0  0  0  0
  145.5786  138.3414  154.1963 H   0  0  0  0  0  0  0  0  0  0  0  0
  150.6126  143.1773  156.4692 H   0  0  0  0  0  0  0  0  0  0  0  0
  151.3052  145.1830  157.4996 H   0  0  0  0  0  0  0  0  0  0  0  0
  152.7269  145.0781  158.5349 H   0  0  0  0  0  0  0  0  0  0  0  0
  151.1092  145.1368  159.2512 H   0  0  0  0  0  0  0  0  0  0  0  0
  148.0552  137.8015  152.7224 H   0  0  0  0  0  0  0  0  0  0  0  0
  1  2  1  0  0  0  0
  1 23  1  0  0  0  0
  1 24  1  0  0  0  0
  1 25  1  0  0  0  0
  2 21  1  0  0  0  0
  2  3  2  0  0  0  0
  3  4  1  0  0  0  0
  3 26  1  0  0  0  0
  4 19  2  0  0  0  0
  4  5  1  0  0  0  0
  5  6  2  0  0  0  0
  6  7  1  0  0  0  0
  6 27  1  0  0  0  0
  7  8  1  0  0  0  0
  7 19  1  0  0  0  0
  8  9  1  0  0  0  0
  8 28  1  0  0  0  0
  8 29  1  0  0  0  0
  9 10  1  0  0  0  0
  9 11  1  0  0  0  0
  9 30  1  0  0  0  0
 10 31  1  0  0  0  0
 11 12  1  0  0  0  0
 11 32  1  0  0  0  0
 11 33  1  0  0  0  0
 12 18  1  0  0  0  0
 12 13  1  0  0  0  0
 12 48  1  0  0  0  0
 13 14  1  0  0  0  0
 13 34  1  0  0  0  0
 13 35  1  0  0  0  0
 14 15  1  0  0  0  0
 14 36  1  0  0  0  0
 14 37  1  0  0  0  0
 15 16  1  0  0  0  0
 15 17  1  0  0  0  0
 15 38  1  0  0  0  0
 16 39  1  0  0  0  0
 17 18  1  0  0  0  0
 17 40  1  0  0  0  0
 17 41  1  0  0  0  0
 18 42  1  0  0  0  0
 18 43  1  0  0  0  0
 19 20  1  0  0  0  0
 20 21  2  0  0  0  0
 20 44  1  0  0  0  0
 21 22  1  0  0  0  0
 22 45  1  0  0  0  0
 22 46  1  0  0  0  0
 22 47  1  0  0  0  0
M  CHG  1  12   1
M  END
> <s_m_source_file>
AV-unprocessed.smi

> <i_m_source_file_index>
1626

> <i_lp_mmshare_version>
43012

> <i_f3d_flags>
0

> <s_epik_input>
W0NIM11jKFtjSF0xKWMoW0NIM10pW2NIXWMoYzEyKW4oW2NIXW4yKVtDSDJdW0NASF0oW09IXSlbQ0gyXU4zW0NIMl1bQ0gyXVtDSF0oW09IXSlbQ0gyXVtDSDJdMw==

> <s_epik_cmdline>
J2VwaWtfcHl0aG9uJywgJy1waCcsICc3LjAnLCAnLXRuJywgJzgnLCAnLW1hJywgJzIwMCcsICctbWV0YWxfYmluZGluZycsICctaW1hZScsICc8aW5maWxlLm1hZT4nLCAnLW9tYWUnLCAnPG91dGZpbGUubWFlPic=

> <r_epik_Ionization_Penalty>
0.106584

> <r_epik_Ionization_Penalty_Charging>
0.0185694

> <r_epik_Ionization_Penalty_Neutral>
0.0880147

> <r_epik_State_Penalty>
0.0908428

> <r_epik_Charging_Adjusted_Penalty>
0.109412

> <i_epik_Tot_Q>
1

> <i_epik_Tot_abs_Q>
1

> <r_epik_Metal_State_Penalty>
0.0153739

> <b_epik_Metal_Only>
0

> <s_lp_Force_Field>
OPLS_2005

> <r_lp_Energy>
24.9536

> <b_lp_Chiralities_Consistent>
1

> <s_lp_Variant>
AV-unprocessed.smi:1626-3

> <Gold.Version>
5.8.1

> <Gold.Id.Protein>
6NUR|6NUR_protein|mol2

> <Gold.PLP.Fitness>
54.1845

> <Gold.PLP.PLP>
-43.6125

> <Gold.PLP.part.hbond>
-4.5695

> <Gold.PLP.part.metal>
0.0000

> <Gold.PLP.part.buried>
1.7082

> <Gold.PLP.part.nonpolar>
-41.4249

> <Gold.PLP.part.repulsive>
0.0423

> <Gold.PLP.ligand.clash>
0.0000

> <Gold.PLP.ligand.torsion>
0.7273

> <Gold.PLP.Chemscore.Hbond>
4.0000

> <Gold.PLP.Chemscore.CHOScore>
0.0000

> <Gold.PLP.Chemscore.Metal>
0.0000

> <Gold.Chemscore.Hbonds>
donor molecule, donor type, donor heavy atom, donor atom, acceptor molecule, acceptor atom, score
      L1  H    10    31       P1  7957  1.00
      L1  H    12    48       P1  7948  2.00
      L1  H    16    39       P1 10171  1.00

> <Gold.PLP.Chemscore.Internal.Correction>
0.0264

> <Gold.Rescore>
     Score         DG    S(hbond)    S(metal)    S(lipo)     H(rot)  DE(clash)    DE(int)     intcor
     18.91     -22.13       2.54        0.00     128.19       2.67       2.51       0.72       ----

> <Gold.Chemscore.Fitness>
18.9060

> <Gold.Chemscore.DG>
-22.1302

> <Gold.Chemscore.ZeroCoef>
-5.4800

> <Gold.Chemscore.Hbond>
2.5419

> <Gold.Chemscore.Metal>
0.0000

> <Gold.Chemscore.Lipo>
128.1933

> <Gold.Chemscore.Internal_Hbond>
0.0000

> <Gold.Chemscore.DEClash>
2.5073

> <Gold.Chemscore.DEInternal>
0.7169

> <Gold.Chemscore.Rot>
2.6712

> <Gold.Chemscore.Internal.Correction>
   9.000000E+99

> <Gold.Chemscore.Hbonds>
donor molecule, donor type, donor heavy atom, donor atom, acceptor molecule, acceptor atom, score
      L1  H    10    31       P1  7957  0.69
      L1  H    12    48       P1  7948  0.96
      L1  H    16    39       P1 10171  0.97

> <Gold.Chemscore.Hbond.Weighted>
-8.4899

> <Gold.Chemscore.Metal.Weighted>
-0.0000

> <Gold.Chemscore.Lipo.Weighted>
-14.9986

> <Gold.Chemscore.Internal_Hbond.Weighted>
0.0000

> <Gold.Chemscore.DEClash.Weighted>
2.5073

> <Gold.Chemscore.DEInternal.Weighted>
0.7169

> <Gold.Chemscore.Rot.Weighted>
6.8383

> <Gold.Chemscore.Internal.Correction.Weighted>
   9.000000E+99

> <Gold.Protein.RotatedTorsions>
[ 6907 6896 6895 6894 ] final  173.47 input  -60.11 | X-H torsion
[ 7974 7965 7964 7962 ] final   48.88 input  175.53 | X-H torsion
[ 8008 7997 7996 7995 ] final   65.42 input   59.86 | X-H torsion
[ 10167 10162 10161 10158 ] final  107.61 input  -65.29 | X-H torsion
[ 10718 10713 10712 10709 ] final   61.56 input   66.30 | X-H torsion
[ 10763 10752 10751 10750 ] final  118.64 input  -60.55 | X-H torsion
[ 11005 11000 10999 10996 ] final  116.83 input  -57.11 | X-H torsion

> <Gold.Protein.ActiveResidues>
 VAL166  LYS551  ARG553  GLY616  TRP617  ASP618  TYR619  PRO620  LYS621  CYS622 
 ASP623  PHE694  ASN695  SER759  ASP760  ASP761  ALA762  ILE779  LEU786  VAL792 
 PHE793  MET794  SER795  GLU796  ALA797  LYS798  CYS799  TRP800  GLU811  SER814 

> <Gold.Protein.RotatedAtoms>
  151.7678  133.3338  159.3435 H   0  0  0  0  0  0  0  0  0  0  0  0  # atno 6907 bound_to 6896
  150.7473  134.6047  159.6064 H   0  0  0  0  0  0  0  0  0  0  0  0  # atno 6908 bound_to 6896
  152.3362  134.7197  160.0328 H   0  0  0  0  0  0  0  0  0  0  0  0  # atno 6909 bound_to 6896
  146.0162  139.4599  142.9925 H   0  0  0  0  0  0  0  0  0  0  0  0  # atno 7974 bound_to 7965
  155.6614  140.3497  155.4784 H   0  0  0  0  0  0  0  0  0  0  0  0  # atno 8008 bound_to 7997
  155.9765  140.1166  157.0788 H   0  0  0  0  0  0  0  0  0  0  0  0  # atno 8009 bound_to 7997
  154.4180  140.1146  156.5364 H   0  0  0  0  0  0  0  0  0  0  0  0  # atno 8010 bound_to 7997
  139.6913  144.7107  151.1344 H   0  0  0  0  0  0  0  0  0  0  0  0  # atno 10167 bound_to 10162
  157.5837  130.9001  149.9476 H   0  0  0  0  0  0  0  0  0  0  0  0  # atno 10718 bound_to 10713
  153.5707  135.3503  155.2836 H   0  0  0  0  0  0  0  0  0  0  0  0  # atno 10763 bound_to 10752
  154.8682  135.4158  154.2728 H   0  0  0  0  0  0  0  0  0  0  0  0  # atno 10764 bound_to 10752
  153.3493  135.7054  153.6871 H   0  0  0  0  0  0  0  0  0  0  0  0  # atno 10765 bound_to 10752
  139.9054  134.9603  156.7259 H   0  0  0  0  0  0  0  0  0  0  0  0  # atno 11005 bound_to 11000
  145.7265  141.0057  143.1374 LP  0  0  0  0  0  0  0  0  0  0  0  0  # atno 17320 bound_to 7965
  144.6972  139.8933  143.7454 LP  0  0  0  0  0  0  0  0  0  0  0  0  # atno 17321 bound_to 7965
  140.7683  143.5556  150.9156 LP  0  0  0  0  0  0  0  0  0  0  0  0  # atno 17342 bound_to 10162
  139.9233  143.6580  152.3092 LP  0  0  0  0  0  0  0  0  0  0  0  0  # atno 17343 bound_to 10162
  156.0884  130.3666  150.0442 LP  0  0  0  0  0  0  0  0  0  0  0  0  # atno 17370 bound_to 10713
  156.8577  130.9481  151.3620 LP  0  0  0  0  0  0  0  0  0  0  0  0  # atno 17371 bound_to 10713
  140.6964  133.9345  155.7997 LP  0  0  0  0  0  0  0  0  0  0  0  0  # atno 17394 bound_to 11000
  141.0404  134.0629  157.3909 LP  0  0  0  0  0  0  0  0  0  0  0  0  # atno 17395 bound_to 11000

$$$$
