AV-unprocessed.smi:1239|AV-procd|sdf|5189|dock4
  -GOLD-   22720 4273D 1   1.00000     0.00000
 Structure written by MMmdl.
 49 50  0  0  0  0  0  0  0  0  3 V2000
  144.1714  137.3202  152.9989 C   0  0  0  0  0  0  0  0  0  0  0  0
  145.7172  137.2429  153.0358 C   0  0  2  0  0  0  0  0  0  0  0  0
  146.3240  138.2700  152.0432 C   0  0  0  0  0  0  0  0  0  0  0  0
  147.5806  138.8470  152.5143 N   0  0  0  0  0  0  0  0  0  0  0  0
  147.7160  139.5669  153.6371 C   0  0  0  0  0  0  0  0  0  0  0  0
  146.7771  139.8256  154.3896 O   0  0  0  0  0  0  0  0  0  0  0  0
  148.9856  139.9745  153.8093 N   0  0  0  0  0  0  0  0  0  0  0  0
  149.5361  140.7188  154.8884 C   0  0  0  0  0  0  0  0  0  0  0  0
  150.7995  140.3306  155.3812 C   0  0  0  0  0  0  0  0  0  0  0  0
  151.3777  141.0295  156.4608 C   0  0  0  0  0  0  0  0  0  0  0  0
  150.6827  142.1124  157.0529 C   0  0  0  0  0  0  0  0  0  0  0  0
  151.1937  142.8603  158.1360 N   0  0  0  0  0  0  0  0  0  0  0  0
  150.5013  144.0671  158.5745 C   0  0  0  0  0  0  0  0  0  0  0  0
  152.3905  142.4047  158.8311 C   0  0  0  0  0  0  0  0  0  0  0  0
  149.4659  142.4397  156.5531 N   0  3  0  0  0  0  0  0  0  0  0  0
  148.8765  141.7997  155.5203 C   0  0  0  0  0  0  0  0  0  0  0  0
  146.2555  135.8706  152.7587 N   0  3  0  0  0  0  0  0  0  0  0  0
  146.1287  134.9630  153.9320 C   0  0  0  0  0  0  0  0  0  0  0  0
  146.7707  133.5957  153.6478 C   0  0  0  0  0  0  0  0  0  0  0  0
  146.1575  133.0138  152.5070 O   0  0  0  0  0  0  0  0  0  0  0  0
  146.3498  133.8117  151.3483 C   0  0  0  0  0  0  0  0  0  0  0  0
  145.7069  135.1948  151.5503 C   0  0  0  0  0  0  0  0  0  0  0  0
  143.8135  138.3340  153.1774 H   0  0  0  0  0  0  0  0  0  0  0  0
  143.7122  136.7073  153.7747 H   0  0  0  0  0  0  0  0  0  0  0  0
  143.7785  137.0017  152.0327 H   0  0  0  0  0  0  0  0  0  0  0  0
  146.0189  137.5113  154.0496 H   0  0  0  0  0  0  0  0  0  0  0  0
  146.5003  137.8351  151.0600 H   0  0  0  0  0  0  0  0  0  0  0  0
  145.6197  139.0872  151.8851 H   0  0  0  0  0  0  0  0  0  0  0  0
  148.4003  138.6828  151.9477 H   0  0  0  0  0  0  0  0  0  0  0  0
  149.6284  139.7535  153.0629 H   0  0  0  0  0  0  0  0  0  0  0  0
  151.3305  139.5031  154.9335 H   0  0  0  0  0  0  0  0  0  0  0  0
  152.3479  140.7195  156.8182 H   0  0  0  0  0  0  0  0  0  0  0  0
  149.4903  143.8293  158.9071 H   0  0  0  0  0  0  0  0  0  0  0  0
  150.4382  144.7906  157.7608 H   0  0  0  0  0  0  0  0  0  0  0  0
  151.0219  144.5449  159.4046 H   0  0  0  0  0  0  0  0  0  0  0  0
  153.2400  142.3691  158.1485 H   0  0  0  0  0  0  0  0  0  0  0  0
  152.2359  141.4093  159.2484 H   0  0  0  0  0  0  0  0  0  0  0  0
  152.6509  143.0725  159.6525 H   0  0  0  0  0  0  0  0  0  0  0  0
  147.8994  142.1748  155.2559 H   0  0  0  0  0  0  0  0  0  0  0  0
  146.6010  135.3891  154.8150 H   0  0  0  0  0  0  0  0  0  0  0  0
  145.0735  134.8282  154.1754 H   0  0  0  0  0  0  0  0  0  0  0  0
  147.8467  133.6917  153.4937 H   0  0  0  0  0  0  0  0  0  0  0  0
  146.6294  132.9313  154.5006 H   0  0  0  0  0  0  0  0  0  0  0  0
  147.4146  133.9058  151.1283 H   0  0  0  0  0  0  0  0  0  0  0  0
  145.8938  133.3085  150.4957 H   0  0  0  0  0  0  0  0  0  0  0  0
  144.6245  135.0944  151.6455 H   0  0  0  0  0  0  0  0  0  0  0  0
  145.9052  135.7796  150.6526 H   0  0  0  0  0  0  0  0  0  0  0  0
  148.9616  143.2146  156.9841 H   0  0  0  0  0  0  0  0  0  0  0  0
  147.2434  135.9855  152.5813 H   0  0  0  0  0  0  0  0  0  0  0  0
  1  2  1  0  0  0  0
  1 23  1  0  0  0  0
  1 24  1  0  0  0  0
  1 25  1  0  0  0  0
  2  3  1  0  0  0  0
  2 17  1  0  0  0  0
  2 26  1  0  0  0  0
  3  4  1  0  0  0  0
  3 27  1  0  0  0  0
  3 28  1  0  0  0  0
  4  5  1  0  0  0  0
  4 29  1  0  0  0  0
  5  6  2  0  0  0  0
  5  7  1  0  0  0  0
  7  8  1  0  0  0  0
  7 30  1  0  0  0  0
  8 16  1  0  0  0  0
  8  9  2  0  0  0  0
  9 10  1  0  0  0  0
  9 31  1  0  0  0  0
 10 11  2  0  0  0  0
 10 32  1  0  0  0  0
 11 12  1  0  0  0  0
 11 15  1  0  0  0  0
 12 13  1  0  0  0  0
 12 14  1  0  0  0  0
 13 33  1  0  0  0  0
 13 34  1  0  0  0  0
 13 35  1  0  0  0  0
 14 36  1  0  0  0  0
 14 37  1  0  0  0  0
 14 38  1  0  0  0  0
 15 16  2  0  0  0  0
 15 48  1  0  0  0  0
 16 39  1  0  0  0  0
 17 22  1  0  0  0  0
 17 18  1  0  0  0  0
 17 49  1  0  0  0  0
 18 19  1  0  0  0  0
 18 40  1  0  0  0  0
 18 41  1  0  0  0  0
 19 20  1  0  0  0  0
 19 42  1  0  0  0  0
 19 43  1  0  0  0  0
 20 21  1  0  0  0  0
 21 22  1  0  0  0  0
 21 44  1  0  0  0  0
 21 45  1  0  0  0  0
 22 46  1  0  0  0  0
 22 47  1  0  0  0  0
M  CHG  1  15   1
M  CHG  1  17   1
M  END
> <s_m_source_file>
AV-unprocessed.smi

> <i_m_source_file_index>
1239

> <i_lp_mmshare_version>
43012

> <i_f3d_flags>
0

> <s_epik_input>
W0NIMl0xW0NIMl1PW0NIMl1bQ0gyXU4xW0NASF0oW0NIM10pW0NIMl1bTkhdQyg9TylbTkhdYzJbY0hdW2NIXWMoTihbQ0gzXSlbQ0gzXSluW2NIXTI=

> <s_epik_cmdline>
J2VwaWtfcHl0aG9uJywgJy1waCcsICc3LjAnLCAnLXRuJywgJzgnLCAnLW1hJywgJzIwMCcsICctbWV0YWxfYmluZGluZycsICctaW1hZScsICc8aW5maWxlLm1hZT4nLCAnLW9tYWUnLCAnPG91dGZpbGUubWFlPic=

> <r_lp_tautomer_probability>
0.999994

> <r_epik_Ionization_Penalty>
0.907597

> <r_epik_Ionization_Penalty_Charging>
0.907577

> <r_epik_Ionization_Penalty_Neutral>
2.023e-05

> <r_epik_State_Penalty>
0.909151

> <r_epik_Charging_Adjusted_Penalty>
1.81673

> <i_epik_Tot_Q>
2

> <i_epik_Tot_abs_Q>
2

> <r_epik_Metal_State_Penalty>
1.19543

> <b_epik_Metal_Only>
0

> <s_lp_Force_Field>
OPLS_2005

> <r_lp_Energy>
31.6235

> <b_lp_Chiralities_Consistent>
1

> <s_lp_Variant>
AV-unprocessed.smi:1239-5

> <Gold.Version>
5.8.1

> <Gold.Id.Protein>
6NUR|6NUR_protein|mol2

> <Gold.PLP.Fitness>
47.7024

> <Gold.PLP.PLP>
-39.0612

> <Gold.PLP.part.hbond>
-5.0000

> <Gold.PLP.part.metal>
0.0000

> <Gold.PLP.part.buried>
-2.9834

> <Gold.PLP.part.nonpolar>
-31.7532

> <Gold.PLP.part.repulsive>
0.5093

> <Gold.PLP.ligand.clash>
0.0000

> <Gold.PLP.ligand.torsion>
1.0177

> <Gold.PLP.Chemscore.Hbond>
3.5226

> <Gold.PLP.Chemscore.CHOScore>
0.0000

> <Gold.PLP.Chemscore.Metal>
0.0000

> <Gold.Chemscore.Hbonds>
donor molecule, donor type, donor heavy atom, donor atom, acceptor molecule, acceptor atom, score
      L1  H     4    29       P1  7957  0.56
      L1  H     7    30       P1  7957  0.69
      L1  H    15    48       P1  8028  0.35
      L1  H    17    49       P1  7948  2.00

> <Gold.PLP.Chemscore.Internal.Correction>
0.1089

> <Gold.Rescore>
     Score         DG    S(hbond)    S(metal)    S(lipo)     H(rot)  DE(clash)    DE(int)     intcor
     17.08     -19.00       2.46        0.00      78.20       1.51       0.19       1.74       ----

> <Gold.Chemscore.Fitness>
17.0770

> <Gold.Chemscore.DG>
-19.0041

> <Gold.Chemscore.ZeroCoef>
-5.4800

> <Gold.Chemscore.Hbond>
2.4642

> <Gold.Chemscore.Metal>
0.0000

> <Gold.Chemscore.Lipo>
78.2044

> <Gold.Chemscore.Internal_Hbond>
0.0000

> <Gold.Chemscore.DEClash>
0.1858

> <Gold.Chemscore.DEInternal>
1.7413

> <Gold.Chemscore.Rot>
1.5064

> <Gold.Chemscore.Internal.Correction>
   9.000000E+99

> <Gold.Chemscore.Hbonds>
donor molecule, donor type, donor heavy atom, donor atom, acceptor molecule, acceptor atom, score
      L1  H     4    29       P1  7957  0.45
      L1  H     7    30       P1  7957  0.68
      L1  H    15    48       P1  8028  0.14
      L1  H    17    49       P1  7948  1.00

> <Gold.Chemscore.Hbond.Weighted>
-8.2305

> <Gold.Chemscore.Metal.Weighted>
-0.0000

> <Gold.Chemscore.Lipo.Weighted>
-9.1499

> <Gold.Chemscore.Internal_Hbond.Weighted>
0.0000

> <Gold.Chemscore.DEClash.Weighted>
0.1858

> <Gold.Chemscore.DEInternal.Weighted>
1.7413

> <Gold.Chemscore.Rot.Weighted>
3.8563

> <Gold.Chemscore.Internal.Correction.Weighted>
   9.000000E+99

> <Gold.Protein.RotatedTorsions>
[ 6907 6896 6895 6894 ] final    2.04 input  -60.11 | X-H torsion
[ 7974 7965 7964 7962 ] final -173.81 input  175.53 | X-H torsion
[ 8008 7997 7996 7995 ] final  -86.32 input   59.86 | X-H torsion
[ 10167 10162 10161 10158 ] final  176.05 input  -65.29 | X-H torsion
[ 10718 10713 10712 10709 ] final    4.69 input   66.30 | X-H torsion
[ 10763 10752 10751 10750 ] final   79.67 input  -60.55 | X-H torsion
[ 11005 11000 10999 10996 ] final  129.93 input  -57.11 | X-H torsion

> <Gold.Protein.ActiveResidues>
 VAL166  LYS551  ARG553  GLY616  TRP617  ASP618  TYR619  PRO620  LYS621  CYS622 
 ASP623  PHE694  ASN695  SER759  ASP760  ASP761  ALA762  ILE779  LEU786  VAL792 
 PHE793  MET794  SER795  GLU796  ALA797  LYS798  CYS799  TRP800  GLU811  SER814 

> <Gold.Protein.RotatedAtoms>
  151.6025  135.1046  160.0063 H   0  0  0  0  0  0  0  0  0  0  0  0  # atno 6907 bound_to 6896
  152.4250  133.7176  159.6526 H   0  0  0  0  0  0  0  0  0  0  0  0  # atno 6908 bound_to 6896
  150.8139  133.8300  159.3191 H   0  0  0  0  0  0  0  0  0  0  0  0  # atno 6909 bound_to 6896
  144.7135  140.1566  143.6380 H   0  0  0  0  0  0  0  0  0  0  0  0  # atno 7974 bound_to 7965
  154.6506  140.0580  156.9951 H   0  0  0  0  0  0  0  0  0  0  0  0  # atno 8008 bound_to 7997
  155.1377  140.3262  155.4441 H   0  0  0  0  0  0  0  0  0  0  0  0  # atno 8009 bound_to 7997
  156.2574  140.1969  156.6494 H   0  0  0  0  0  0  0  0  0  0  0  0  # atno 8010 bound_to 7997
  139.5199  144.2961  152.0420 H   0  0  0  0  0  0  0  0  0  0  0  0  # atno 10167 bound_to 10162
  156.8964  130.5706  149.5649 H   0  0  0  0  0  0  0  0  0  0  0  0  # atno 10718 bound_to 10713
  153.0971  135.4831  154.8799 H   0  0  0  0  0  0  0  0  0  0  0  0  # atno 10763 bound_to 10752
  154.7337  135.3066  154.8850 H   0  0  0  0  0  0  0  0  0  0  0  0  # atno 10764 bound_to 10752
  153.9479  135.6826  153.4797 H   0  0  0  0  0  0  0  0  0  0  0  0  # atno 10765 bound_to 10752
  139.9643  134.9594  156.9220 H   0  0  0  0  0  0  0  0  0  0  0  0  # atno 11005 bound_to 11000
  145.9068  139.2463  143.1461 LP  0  0  0  0  0  0  0  0  0  0  0  0  # atno 17320 bound_to 7965
  145.9755  140.8725  143.0140 LP  0  0  0  0  0  0  0  0  0  0  0  0  # atno 17321 bound_to 7965
  140.2410  144.4269  150.6260 LP  0  0  0  0  0  0  0  0  0  0  0  0  # atno 17342 bound_to 10162
  140.6290  143.2185  151.6535 LP  0  0  0  0  0  0  0  0  0  0  0  0  # atno 17343 bound_to 10162
  156.0603  130.5657  150.9179 LP  0  0  0  0  0  0  0  0  0  0  0  0  # atno 17370 bound_to 10713
  157.6053  131.0939  150.8890 LP  0  0  0  0  0  0  0  0  0  0  0  0  # atno 17371 bound_to 10713
  140.5430  134.0701  155.7347 LP  0  0  0  0  0  0  0  0  0  0  0  0  # atno 17394 bound_to 11000
  141.1322  133.9282  157.2511 LP  0  0  0  0  0  0  0  0  0  0  0  0  # atno 17395 bound_to 11000

$$$$
