AV-unprocessed.smi:2061|AV-procd|sdf|8394|dock3
  -GOLD-   2272011 73D 1   1.00000     0.00000
 Structure written by MMmdl.
 45 46  0  0  0  0  0  0  0  0  3 V2000
  147.5666  134.7297  162.9743 C   0  0  0  0  0  0  0  0  0  0  0  0
  147.8007  135.2858  161.6117 C   0  0  0  0  0  0  0  0  0  0  0  0
  147.8533  134.7162  160.3707 C   0  0  0  0  0  0  0  0  0  0  0  0
  148.1158  135.8229  159.5195 C   0  0  0  0  0  0  0  0  0  0  0  0
  148.2475  135.6432  158.1167 N   0  0  0  0  0  0  0  0  0  0  0  0
  148.8557  134.6453  157.4490 C   0  0  0  0  0  0  0  0  0  0  0  0
  149.4056  133.7261  158.0674 O   0  0  0  0  0  0  0  0  0  0  0  0
  148.7715  134.8006  156.0989 N   0  5  0  0  0  0  0  0  0  0  0  0
  149.4963  135.8198  155.3399 C   0  0  0  0  0  0  0  0  0  0  0  0
  148.5528  136.9959  154.9517 C   0  0  2  0  0  0  0  0  0  0  0  0
  147.1439  136.4644  154.5573 C   0  0  0  0  0  0  0  0  0  0  0  0
  149.2135  137.8443  153.8966 N   0  3  1  0  0  0  0  0  0  0  0  0
  148.6126  139.1702  153.5815 C   0  0  0  0  0  0  0  0  0  0  0  0
  149.0070  140.2370  154.6253 C   0  0  2  0  0  0  0  0  0  0  0  0
  148.4557  141.6216  154.2689 C   0  0  0  0  0  0  0  0  0  0  0  0
  150.4254  140.3275  154.6744 O   0  0  0  0  0  0  0  0  0  0  0  0
  151.0363  139.1080  155.0791 C   0  0  2  0  0  0  0  0  0  0  0  0
  152.5471  139.3462  155.1766 C   0  0  0  0  0  0  0  0  0  0  0  0
  150.6888  138.0055  154.0564 C   0  0  0  0  0  0  0  0  0  0  0  0
  148.2105  136.9655  160.1834 N   0  0  0  0  0  0  0  0  0  0  0  0
  148.0091  136.6273  161.5267 O   0  0  0  0  0  0  0  0  0  0  0  0
  147.6699  133.6446  162.9750 H   0  0  0  0  0  0  0  0  0  0  0  0
  146.5636  134.9748  163.3234 H   0  0  0  0  0  0  0  0  0  0  0  0
  148.2833  135.1371  163.6875 H   0  0  0  0  0  0  0  0  0  0  0  0
  147.7268  133.6747  160.1147 H   0  0  0  0  0  0  0  0  0  0  0  0
  147.8186  136.3548  157.5441 H   0  0  0  0  0  0  0  0  0  0  0  0
  150.3294  136.2102  155.9254 H   0  0  0  0  0  0  0  0  0  0  0  0
  149.9461  135.4145  154.4325 H   0  0  0  0  0  0  0  0  0  0  0  0
  148.4093  137.6251  155.8311 H   0  0  0  0  0  0  0  0  0  0  0  0
  146.6829  135.8790  155.3556 H   0  0  0  0  0  0  0  0  0  0  0  0
  147.1699  135.8303  153.6688 H   0  0  0  0  0  0  0  0  0  0  0  0
  146.4420  137.2730  154.3622 H   0  0  0  0  0  0  0  0  0  0  0  0
  148.9989  139.4773  152.6085 H   0  0  0  0  0  0  0  0  0  0  0  0
  147.5334  139.1157  153.4450 H   0  0  0  0  0  0  0  0  0  0  0  0
  148.6379  139.9659  155.6146 H   0  0  0  0  0  0  0  0  0  0  0  0
  147.3660  141.6125  154.2324 H   0  0  0  0  0  0  0  0  0  0  0  0
  148.8208  141.9544  153.2968 H   0  0  0  0  0  0  0  0  0  0  0  0
  148.7565  142.3631  155.0092 H   0  0  0  0  0  0  0  0  0  0  0  0
  150.6695  138.8340  156.0693 H   0  0  0  0  0  0  0  0  0  0  0  0
  153.0662  138.4430  155.4983 H   0  0  0  0  0  0  0  0  0  0  0  0
  152.7719  140.1327  155.8973 H   0  0  0  0  0  0  0  0  0  0  0  0
  152.9631  139.6476  154.2148 H   0  0  0  0  0  0  0  0  0  0  0  0
  151.1674  137.0672  154.3375 H   0  0  0  0  0  0  0  0  0  0  0  0
  151.1046  138.2718  153.0836 H   0  0  0  0  0  0  0  0  0  0  0  0
  149.0863  137.3007  153.0546 H   0  0  0  0  0  0  0  0  0  0  0  0
  1  2  1  0  0  0  0
  1 22  1  0  0  0  0
  1 23  1  0  0  0  0
  1 24  1  0  0  0  0
  2 21  1  0  0  0  0
  2  3  2  0  0  0  0
  3  4  1  0  0  0  0
  3 25  1  0  0  0  0
  4  5  1  0  0  0  0
  4 20  2  0  0  0  0
  5  6  1  0  0  0  0
  5 26  1  0  0  0  0
  6  7  2  0  0  0  0
  6  8  1  0  0  0  0
  8  9  1  0  0  0  0
  9 10  1  0  0  0  0
  9 27  1  0  0  0  0
  9 28  1  0  0  0  0
 10 11  1  0  0  0  0
 10 12  1  0  0  0  0
 10 29  1  0  0  0  0
 11 30  1  0  0  0  0
 11 31  1  0  0  0  0
 11 32  1  0  0  0  0
 12 19  1  0  0  0  0
 12 13  1  0  0  0  0
 12 45  1  0  0  0  0
 13 14  1  0  0  0  0
 13 33  1  0  0  0  0
 13 34  1  0  0  0  0
 14 15  1  0  0  0  0
 14 16  1  0  0  0  0
 14 35  1  0  0  0  0
 15 36  1  0  0  0  0
 15 37  1  0  0  0  0
 15 38  1  0  0  0  0
 16 17  1  0  0  0  0
 17 18  1  0  0  0  0
 17 19  1  0  0  0  0
 17 39  1  0  0  0  0
 18 40  1  0  0  0  0
 18 41  1  0  0  0  0
 18 42  1  0  0  0  0
 19 43  1  0  0  0  0
 19 44  1  0  0  0  0
 20 21  1  0  0  0  0
M  CHG  1   8  -1
M  CHG  1  12   1
M  END
> <s_m_source_file>
AV-unprocessed.smi

> <i_m_source_file_index>
2061

> <i_lp_mmshare_version>
43012

> <i_f3d_flags>
0

> <s_epik_input>
W0NIM11jMVtjSF1jKG5vMSlbTkhdQyg9TylbTkhdW0NIMl1bQ0BIXShbQ0gzXSlOMltDSDJdW0NAQEhdKFtDSDNdKU9bQ0BASF0oW0NIM10pW0NIMl0y

> <s_epik_cmdline>
J2VwaWtfcHl0aG9uJywgJy1waCcsICc3LjAnLCAnLXRuJywgJzgnLCAnLW1hJywgJzIwMCcsICctbWV0YWxfYmluZGluZycsICctaW1hZScsICc8aW5maWxlLm1hZT4nLCAnLW9tYWUnLCAnPG91dGZpbGUubWFlPic=

> <r_epik_Ionization_Penalty>
6.8073

> <r_epik_Ionization_Penalty_Charging>
6.80729

> <r_epik_Ionization_Penalty_Neutral>
5.65391e-06

> <r_epik_State_Penalty>
7.47323

> <r_epik_Charging_Adjusted_Penalty>
14.2805

> <i_epik_Tot_Q>
0

> <i_epik_Tot_abs_Q>
2

> <r_epik_Metal_State_Penalty>
3.40035

> <b_epik_Metal_Only>
1

> <s_lp_Force_Field>
OPLS_2005

> <r_lp_Energy>
21.662

> <b_lp_Chiralities_Consistent>
1

> <s_lp_Variant>
AV-unprocessed.smi:2061-35

> <Gold.Version>
5.8.1

> <Gold.Id.Protein>
6NUR|6NUR_protein|mol2

> <Gold.PLP.Fitness>
45.0521

> <Gold.PLP.PLP>
-34.9657

> <Gold.PLP.part.hbond>
-6.8344

> <Gold.PLP.part.metal>
0.0000

> <Gold.PLP.part.buried>
0.4830

> <Gold.PLP.part.nonpolar>
-28.7577

> <Gold.PLP.part.repulsive>
0.1753

> <Gold.PLP.ligand.clash>
0.0000

> <Gold.PLP.ligand.torsion>
1.4933

> <Gold.PLP.Chemscore.Hbond>
4.3000

> <Gold.PLP.Chemscore.CHOScore>
0.0000

> <Gold.PLP.Chemscore.Metal>
0.0000

> <Gold.Chemscore.Hbonds>
donor molecule, donor type, donor heavy atom, donor atom, acceptor molecule, acceptor atom, score
      L1  H    12    45       P1  7948  2.00
      P1  H  6896  6908       L1     7  1.00
      P1  H  6931  6943       L1    21  0.25
      P1  H  7989  7998       L1    16  1.00

> <Gold.PLP.Chemscore.Internal.Correction>
0.1731

> <Gold.Rescore>
     Score         DG    S(hbond)    S(metal)    S(lipo)     H(rot)  DE(clash)    DE(int)     intcor
     16.96     -20.35       2.93        0.00      77.43       1.56       0.78       2.60       ----

> <Gold.Chemscore.Fitness>
16.9607

> <Gold.Chemscore.DG>
-20.3497

> <Gold.Chemscore.ZeroCoef>
-5.4800

> <Gold.Chemscore.Hbond>
2.9317

> <Gold.Chemscore.Metal>
0.0000

> <Gold.Chemscore.Lipo>
77.4256

> <Gold.Chemscore.Internal_Hbond>
0.0000

> <Gold.Chemscore.DEClash>
0.7848

> <Gold.Chemscore.DEInternal>
2.6043

> <Gold.Chemscore.Rot>
1.5550

> <Gold.Chemscore.Internal.Correction>
   9.000000E+99

> <Gold.Chemscore.Hbonds>
donor molecule, donor type, donor heavy atom, donor atom, acceptor molecule, acceptor atom, score
      L1  H    12    45       P1  7948  0.98
      P1  H  6896  6908       L1     7  1.00
      P1  H  7989  7998       L1    16  0.25

> <Gold.Chemscore.Hbond.Weighted>
-9.7918

> <Gold.Chemscore.Metal.Weighted>
-0.0000

> <Gold.Chemscore.Lipo.Weighted>
-9.0588

> <Gold.Chemscore.Internal_Hbond.Weighted>
0.0000

> <Gold.Chemscore.DEClash.Weighted>
0.7848

> <Gold.Chemscore.DEInternal.Weighted>
2.6043

> <Gold.Chemscore.Rot.Weighted>
3.9809

> <Gold.Chemscore.Internal.Correction.Weighted>
   9.000000E+99

> <Gold.Protein.RotatedTorsions>
[ 6907 6896 6895 6894 ] final  128.71 input  -60.11 | X-H torsion
[ 7974 7965 7964 7962 ] final  -91.02 input  175.53 | X-H torsion
[ 8008 7997 7996 7995 ] final   -0.08 input   59.86 | X-H torsion
[ 10167 10162 10161 10158 ] final   89.36 input  -65.29 | X-H torsion
[ 10718 10713 10712 10709 ] final  -36.53 input   66.30 | X-H torsion
[ 10763 10752 10751 10750 ] final  -80.71 input  -60.55 | X-H torsion
[ 11005 11000 10999 10996 ] final  -89.93 input  -57.11 | X-H torsion

> <Gold.Protein.ActiveResidues>
 VAL166  LYS551  ARG553  GLY616  TRP617  ASP618  TYR619  PRO620  LYS621  CYS622 
 ASP623  PHE694  ASN695  SER759  ASP760  ASP761  ALA762  ILE779  LEU786  VAL792 
 PHE793  MET794  SER795  GLU796  ALA797  LYS798  CYS799  TRP800  GLU811  SER814 

> <Gold.Protein.RotatedAtoms>
  152.3693  133.6398  159.6074 H   0  0  0  0  0  0  0  0  0  0  0  0  # atno 6907 bound_to 6896
  150.7657  133.9296  159.3432 H   0  0  0  0  0  0  0  0  0  0  0  0  # atno 6908 bound_to 6896
  151.7121  135.0912  160.0321 H   0  0  0  0  0  0  0  0  0  0  0  0  # atno 6909 bound_to 6896
  145.4187  140.9550  143.2193 H   0  0  0  0  0  0  0  0  0  0  0  0  # atno 7974 bound_to 7965
  154.6621  140.2593  155.7097 H   0  0  0  0  0  0  0  0  0  0  0  0  # atno 8008 bound_to 7997
  156.2623  140.2846  156.1019 H   0  0  0  0  0  0  0  0  0  0  0  0  # atno 8009 bound_to 7997
  155.1292  140.0378  157.2760 H   0  0  0  0  0  0  0  0  0  0  0  0  # atno 8010 bound_to 7997
  139.8580  144.6559  150.9091 H   0  0  0  0  0  0  0  0  0  0  0  0  # atno 10167 bound_to 10162
  156.3258  130.4272  149.7918 H   0  0  0  0  0  0  0  0  0  0  0  0  # atno 10718 bound_to 10713
  154.5546  135.5651  153.6952 H   0  0  0  0  0  0  0  0  0  0  0  0  # atno 10763 bound_to 10752
  152.9999  135.6259  154.2328 H   0  0  0  0  0  0  0  0  0  0  0  0  # atno 10764 bound_to 10752
  154.2264  135.2867  155.2886 H   0  0  0  0  0  0  0  0  0  0  0  0  # atno 10765 bound_to 10752
  141.1575  133.7660  156.9665 H   0  0  0  0  0  0  0  0  0  0  0  0  # atno 11005 bound_to 11000
  144.8260  139.5710  143.6965 LP  0  0  0  0  0  0  0  0  0  0  0  0  # atno 17320 bound_to 7965
  146.2667  139.6538  142.9324 LP  0  0  0  0  0  0  0  0  0  0  0  0  # atno 17321 bound_to 7965
  140.7779  143.3769  151.1547 LP  0  0  0  0  0  0  0  0  0  0  0  0  # atno 17342 bound_to 10162
  139.7401  143.8938  152.3047 LP  0  0  0  0  0  0  0  0  0  0  0  0  # atno 17343 bound_to 10162
  156.5209  130.8214  151.3203 LP  0  0  0  0  0  0  0  0  0  0  0  0  # atno 17370 bound_to 10713
  157.7421  130.9883  150.2491 LP  0  0  0  0  0  0  0  0  0  0  0  0  # atno 17371 bound_to 10713
  140.1158  134.9448  157.2132 LP  0  0  0  0  0  0  0  0  0  0  0  0  # atno 17394 bound_to 11000
  140.3135  134.2997  155.7261 LP  0  0  0  0  0  0  0  0  0  0  0  0  # atno 17395 bound_to 11000

$$$$
