AV-unprocessed.smi:2214|AV-procd|sdf|8958|dock4
  -GOLD-   2272012173D 1   1.00000     0.00000
 Structure written by MMmdl.
 41 42  0  0  0  0  0  0  0  0  1 V2000
  151.3751  144.4781  159.5694 C   0  0  0  0  0  0  0  0  0  0  0  0
  152.1059  143.1629  159.7456 C   0  0  0  0  0  0  0  0  0  0  0  0
  153.0741  143.0176  160.7583 C   0  0  0  0  0  0  0  0  0  0  0  0
  153.7485  141.7930  160.9140 C   0  0  0  0  0  0  0  0  0  0  0  0
  153.4584  140.7113  160.0601 C   0  0  0  0  0  0  0  0  0  0  0  0
  154.3021  139.2186  160.2719 Cl  0  0  0  0  0  0  0  0  0  0  0  0
  152.4909  140.8413  159.0392 C   0  0  0  0  0  0  0  0  0  0  0  0
  152.2608  139.7396  158.2429 O   0  0  0  0  0  0  0  0  0  0  0  0
  151.3500  139.8616  157.1575 C   0  0  0  0  0  0  0  0  0  0  0  0
  151.7350  138.8751  156.0419 C   0  0  2  0  0  0  0  0  0  0  0  0
  153.0947  139.0930  155.7230 O   0  0  0  0  0  0  0  0  0  0  0  0
  150.8544  139.0177  154.7800 C   0  0  0  0  0  0  0  0  0  0  0  0
  149.4177  138.9320  155.0898 N   0  0  0  0  0  0  0  0  0  0  0  0
  148.9625  137.7036  155.5956 C   0  0  0  0  0  0  0  0  0  0  0  0
  147.7210  137.5140  155.9025 N   0  0  0  0  0  0  0  0  0  0  0  0
  146.7947  138.5466  155.7310 C   0  0  0  0  0  0  0  0  0  0  0  0
  145.3639  138.2157  156.1175 C   0  0  0  0  0  0  0  0  0  0  0  0
  147.1720  139.7621  155.2486 C   0  0  0  0  0  0  0  0  0  0  0  0
  146.2079  140.9230  155.0392 C   0  0  0  0  0  0  0  0  0  0  0  0
  148.5838  139.9958  154.9038 C   0  0  0  0  0  0  0  0  0  0  0  0
  148.9983  141.0757  154.4782 O   0  0  0  0  0  0  0  0  0  0  0  0
  151.8171  142.0803  158.8898 C   0  0  0  0  0  0  0  0  0  0  0  0
  151.5413  145.1417  160.4186 H   0  0  0  0  0  0  0  0  0  0  0  0
  150.3018  144.3080  159.4778 H   0  0  0  0  0  0  0  0  0  0  0  0
  151.7211  144.9830  158.6673 H   0  0  0  0  0  0  0  0  0  0  0  0
  153.3036  143.8419  161.4178 H   0  0  0  0  0  0  0  0  0  0  0  0
  154.4905  141.6840  161.6911 H   0  0  0  0  0  0  0  0  0  0  0  0
  150.3221  139.6903  157.4822 H   0  0  0  0  0  0  0  0  0  0  0  0
  151.4071  140.8763  156.7598 H   0  0  0  0  0  0  0  0  0  0  0  0
  151.6555  137.8665  156.4496 H   0  0  0  0  0  0  0  0  0  0  0  0
  153.2172  138.9327  154.8000 H   0  0  0  0  0  0  0  0  0  0  0  0
  151.0474  139.9862  154.3146 H   0  0  0  0  0  0  0  0  0  0  0  0
  151.1554  138.2928  154.0203 H   0  0  0  0  0  0  0  0  0  0  0  0
  149.7251  136.9318  155.7130 H   0  0  0  0  0  0  0  0  0  0  0  0
  144.7042  138.3060  155.2542 H   0  0  0  0  0  0  0  0  0  0  0  0
  145.0130  138.8914  156.8978 H   0  0  0  0  0  0  0  0  0  0  0  0
  145.2804  137.1964  156.4967 H   0  0  0  0  0  0  0  0  0  0  0  0
  146.4957  141.7687  155.6645 H   0  0  0  0  0  0  0  0  0  0  0  0
  145.1759  140.6730  155.2784 H   0  0  0  0  0  0  0  0  0  0  0  0
  146.2316  141.2481  153.9988 H   0  0  0  0  0  0  0  0  0  0  0  0
  151.0714  142.2244  158.1230 H   0  0  0  0  0  0  0  0  0  0  0  0
  1  2  1  0  0  0  0
  1 23  1  0  0  0  0
  1 24  1  0  0  0  0
  1 25  1  0  0  0  0
  2 22  1  0  0  0  0
  2  3  2  0  0  0  0
  3  4  1  0  0  0  0
  3 26  1  0  0  0  0
  4  5  2  0  0  0  0
  4 27  1  0  0  0  0
  5  6  1  0  0  0  0
  5  7  1  0  0  0  0
  7  8  1  0  0  0  0
  7 22  2  0  0  0  0
  8  9  1  0  0  0  0
  9 10  1  0  0  0  0
  9 28  1  0  0  0  0
  9 29  1  0  0  0  0
 10 11  1  0  0  0  0
 10 12  1  0  0  0  0
 10 30  1  0  0  0  0
 11 31  1  0  0  0  0
 12 13  1  0  0  0  0
 12 32  1  0  0  0  0
 12 33  1  0  0  0  0
 13 20  1  0  0  0  0
 13 14  1  0  0  0  0
 14 15  2  0  0  0  0
 14 34  1  0  0  0  0
 15 16  1  0  0  0  0
 16 17  1  0  0  0  0
 16 18  2  0  0  0  0
 17 35  1  0  0  0  0
 17 36  1  0  0  0  0
 17 37  1  0  0  0  0
 18 19  1  0  0  0  0
 18 20  1  0  0  0  0
 19 38  1  0  0  0  0
 19 39  1  0  0  0  0
 19 40  1  0  0  0  0
 20 21  2  0  0  0  0
 22 41  1  0  0  0  0
M  END
> <s_m_source_file>
AV-unprocessed.smi

> <i_m_source_file_index>
2214

> <i_lp_mmshare_version>
43012

> <i_f3d_flags>
0

> <s_epik_input>
W0NIM11jMVtjSF1bY0hdYyhDbCljKFtjSF0xKU9bQ0gyXVtDQEhdKFtPSF0pW0NIMl1uMltjSF1uYyhbQ0gzXSljKFtDSDNdKWMyPU8=

> <s_epik_cmdline>
J2VwaWtfcHl0aG9uJywgJy1waCcsICc3LjAnLCAnLXRuJywgJzgnLCAnLW1hJywgJzIwMCcsICctbWV0YWxfYmluZGluZycsICctaW1hZScsICc8aW5maWxlLm1hZT4nLCAnLW9tYWUnLCAnPG91dGZpbGUubWFlPic=

> <r_lp_tautomer_probability>
1

> <r_epik_Ionization_Penalty>
3.50205e-05

> <r_epik_Ionization_Penalty_Charging>
7.87908e-08

> <r_epik_Ionization_Penalty_Neutral>
3.49418e-05

> <r_epik_State_Penalty>
-0

> <r_epik_Charging_Adjusted_Penalty>
7.87908e-08

> <i_epik_Tot_Q>
0

> <i_epik_Tot_abs_Q>
0

> <r_epik_Metal_State_Penalty>
-0

> <b_epik_Metal_Only>
0

> <s_lp_Force_Field>
OPLS_2005

> <r_lp_Energy>
24.1684

> <b_lp_Chiralities_Consistent>
1

> <s_lp_Variant>
AV-unprocessed.smi:2214-1

> <Gold.Version>
5.8.1

> <Gold.Id.Protein>
6NUR|6NUR_protein|mol2

> <Gold.PLP.Fitness>
47.9140

> <Gold.PLP.PLP>
-42.1183

> <Gold.PLP.part.hbond>
-3.0000

> <Gold.PLP.part.metal>
0.0000

> <Gold.PLP.part.buried>
-4.2566

> <Gold.PLP.part.nonpolar>
-35.7720

> <Gold.PLP.part.repulsive>
0.4941

> <Gold.PLP.ligand.clash>
0.0000

> <Gold.PLP.ligand.torsion>
0.2407

> <Gold.PLP.Chemscore.Hbond>
2.0880

> <Gold.PLP.Chemscore.CHOScore>
0.0000

> <Gold.PLP.Chemscore.Metal>
0.0000

> <Gold.Chemscore.Hbonds>
donor molecule, donor type, donor heavy atom, donor atom, acceptor molecule, acceptor atom, score
      P1  H  7997  8009       L1    11  1.00

> <Gold.PLP.Chemscore.Internal.Correction>
0.0132

> <Gold.Rescore>
     Score         DG    S(hbond)    S(metal)    S(lipo)     H(rot)  DE(clash)    DE(int)     intcor
     18.23     -19.04       1.99        0.00     110.46       2.35       0.45       0.36       ----

> <Gold.Chemscore.Fitness>
18.2306

> <Gold.Chemscore.DG>
-19.0445

> <Gold.Chemscore.ZeroCoef>
-5.4800

> <Gold.Chemscore.Hbond>
1.9922

> <Gold.Chemscore.Metal>
0.0000

> <Gold.Chemscore.Lipo>
110.4625

> <Gold.Chemscore.Internal_Hbond>
0.0000

> <Gold.Chemscore.DEClash>
0.4517

> <Gold.Chemscore.DEInternal>
0.3622

> <Gold.Chemscore.Rot>
2.3490

> <Gold.Chemscore.Internal.Correction>
   9.000000E+99

> <Gold.Chemscore.Hbonds>
donor molecule, donor type, donor heavy atom, donor atom, acceptor molecule, acceptor atom, score
      P1  H  7997  8009       L1    11  0.70

> <Gold.Chemscore.Hbond.Weighted>
-6.6539

> <Gold.Chemscore.Metal.Weighted>
-0.0000

> <Gold.Chemscore.Lipo.Weighted>
-12.9241

> <Gold.Chemscore.Internal_Hbond.Weighted>
0.0000

> <Gold.Chemscore.DEClash.Weighted>
0.4517

> <Gold.Chemscore.DEInternal.Weighted>
0.3622

> <Gold.Chemscore.Rot.Weighted>
6.0136

> <Gold.Chemscore.Internal.Correction.Weighted>
   9.000000E+99

> <Gold.Protein.RotatedTorsions>
[ 6907 6896 6895 6894 ] final -130.81 input  -60.11 | X-H torsion
[ 7974 7965 7964 7962 ] final   61.08 input  175.53 | X-H torsion
[ 8008 7997 7996 7995 ] final -159.44 input   59.86 | X-H torsion
[ 10167 10162 10161 10158 ] final   99.35 input  -65.29 | X-H torsion
[ 10718 10713 10712 10709 ] final  -82.08 input   66.30 | X-H torsion
[ 10763 10752 10751 10750 ] final   35.39 input  -60.55 | X-H torsion
[ 11005 11000 10999 10996 ] final  147.52 input  -57.11 | X-H torsion

> <Gold.Protein.ActiveResidues>
 VAL166  LYS551  ARG553  GLY616  TRP617  ASP618  TYR619  PRO620  LYS621  CYS622 
 ASP623  PHE694  ASN695  SER759  ASP760  ASP761  ALA762  ILE779  LEU786  VAL792 
 PHE793  MET794  SER795  GLU796  ALA797  LYS798  CYS799  TRP800  GLU811  SER814 

> <Gold.Protein.RotatedAtoms>
  150.9439  133.6625  159.2785 H   0  0  0  0  0  0  0  0  0  0  0  0  # atno 6907 bound_to 6896
  151.4005  135.0969  159.9564 H   0  0  0  0  0  0  0  0  0  0  0  0  # atno 6908 bound_to 6896
  152.5081  133.8934  159.7460 H   0  0  0  0  0  0  0  0  0  0  0  0  # atno 6909 bound_to 6896
  145.8888  139.3496  143.0662 H   0  0  0  0  0  0  0  0  0  0  0  0  # atno 7974 bound_to 7965
  155.7626  140.0841  157.2148 H   0  0  0  0  0  0  0  0  0  0  0  0  # atno 8008 bound_to 7997
  154.4002  140.1540  156.2906 H   0  0  0  0  0  0  0  0  0  0  0  0  # atno 8009 bound_to 7997
  155.8825  140.3420  155.5900 H   0  0  0  0  0  0  0  0  0  0  0  0  # atno 8010 bound_to 7997
  139.7626  144.6949  151.0271 H   0  0  0  0  0  0  0  0  0  0  0  0  # atno 10167 bound_to 10162
  156.0039  130.4623  150.4051 H   0  0  0  0  0  0  0  0  0  0  0  0  # atno 10718 bound_to 10713
  153.0121  135.6334  154.1818 H   0  0  0  0  0  0  0  0  0  0  0  0  # atno 10763 bound_to 10752
  154.1560  135.2826  155.3124 H   0  0  0  0  0  0  0  0  0  0  0  0  # atno 10764 bound_to 10752
  154.6018  135.5585  153.7442 H   0  0  0  0  0  0  0  0  0  0  0  0  # atno 10765 bound_to 10752
  140.0882  134.9056  157.1610 H   0  0  0  0  0  0  0  0  0  0  0  0  # atno 11005 bound_to 11000
  145.8934  140.9289  143.0540 LP  0  0  0  0  0  0  0  0  0  0  0  0  # atno 17320 bound_to 7965
  144.6729  140.0936  143.7464 LP  0  0  0  0  0  0  0  0  0  0  0  0  # atno 17321 bound_to 7965
  140.7808  143.4680  151.0185 LP  0  0  0  0  0  0  0  0  0  0  0  0  # atno 17342 bound_to 10162
  139.8366  143.7620  152.3180 LP  0  0  0  0  0  0  0  0  0  0  0  0  # atno 17343 bound_to 10162
  157.2117  131.0462  151.2595 LP  0  0  0  0  0  0  0  0  0  0  0  0  # atno 17370 bound_to 10713
  157.3882  130.7268  149.6678 LP  0  0  0  0  0  0  0  0  0  0  0  0  # atno 17371 bound_to 10713
  140.3389  134.2726  155.7215 LP  0  0  0  0  0  0  0  0  0  0  0  0  # atno 17394 bound_to 11000
  141.2069  133.7819  157.0147 LP  0  0  0  0  0  0  0  0  0  0  0  0  # atno 17395 bound_to 11000

$$$$
