AV-unprocessed.smi:2140|AV-procd|sdf|8715|dock2
  -GOLD-   2272011483D 1   1.00000     0.00000
 Structure written by MMmdl.
 39 40  0  0  0  0  0  0  0  0  1 V2000
  147.7460  141.8578  154.0265 C   0  0  0  0  0  0  0  0  0  0  0  0
  148.4597  140.5055  154.2818 C   0  0  1  0  0  0  0  0  0  0  0  0
  149.8728  140.7862  154.8717 C   0  0  0  0  0  0  0  0  0  0  0  0
  149.9246  141.9740  155.7199 N   0  0  0  0  0  0  0  0  0  0  0  0
  150.6480  142.0868  156.8426 C   0  0  0  0  0  0  0  0  0  0  0  0
  151.3522  141.1817  157.2898 O   0  0  0  0  0  0  0  0  0  0  0  0
  150.5154  143.3096  157.3841 N   0  0  0  0  0  0  0  0  0  0  0  0
  151.1175  143.8224  158.5645 C   0  0  0  0  0  0  0  0  0  0  0  0
  151.9641  143.0729  159.4167 C   0  0  0  0  0  0  0  0  0  0  0  0
  152.4852  143.6898  160.5705 C   0  0  0  0  0  0  0  0  0  0  0  0
  152.1360  145.0286  160.8336 C   0  0  0  0  0  0  0  0  0  0  0  0
  151.3189  145.7503  160.0378 N   0  0  0  0  0  0  0  0  0  0  0  0
  150.8223  145.1518  158.9343 C   0  0  0  0  0  0  0  0  0  0  0  0
  147.6543  139.5802  155.1127 N   0  0  0  0  0  0  0  0  0  0  0  0
  147.4575  140.0756  156.4801 C   0  0  0  0  0  0  0  0  0  0  0  0
  146.6028  139.1291  157.3403 C   0  0  0  0  0  0  0  0  0  0  0  0
  145.3433  138.9237  156.7160 O   0  0  0  0  0  0  0  0  0  0  0  0
  145.4786  138.3724  155.4137 C   0  0  0  0  0  0  0  0  0  0  0  0
  146.3316  139.3072  154.5377 C   0  0  0  0  0  0  0  0  0  0  0  0
  148.3620  142.5543  153.4589 H   0  0  0  0  0  0  0  0  0  0  0  0
  147.4789  142.3461  154.9642 H   0  0  0  0  0  0  0  0  0  0  0  0
  146.8382  141.7404  153.4365 H   0  0  0  0  0  0  0  0  0  0  0  0
  148.6046  140.0357  153.3077 H   0  0  0  0  0  0  0  0  0  0  0  0
  150.2021  139.9329  155.4652 H   0  0  0  0  0  0  0  0  0  0  0  0
  150.6219  140.9259  154.0934 H   0  0  0  0  0  0  0  0  0  0  0  0
  149.3775  142.7684  155.4227 H   0  0  0  0  0  0  0  0  0  0  0  0
  149.9679  143.9723  156.8548 H   0  0  0  0  0  0  0  0  0  0  0  0
  152.2107  142.0413  159.2189 H   0  0  0  0  0  0  0  0  0  0  0  0
  153.1347  143.1470  161.2413 H   0  0  0  0  0  0  0  0  0  0  0  0
  152.5185  145.5312  161.7097 H   0  0  0  0  0  0  0  0  0  0  0  0
  150.1704  145.7586  158.3227 H   0  0  0  0  0  0  0  0  0  0  0  0
  148.4130  140.1905  156.9886 H   0  0  0  0  0  0  0  0  0  0  0  0
  146.9911  141.0617  156.4534 H   0  0  0  0  0  0  0  0  0  0  0  0
  147.1091  138.1728  157.4828 H   0  0  0  0  0  0  0  0  0  0  0  0
  146.4436  139.5571  158.3300 H   0  0  0  0  0  0  0  0  0  0  0  0
  145.9303  137.3810  155.4746 H   0  0  0  0  0  0  0  0  0  0  0  0
  144.4877  138.2456  154.9775 H   0  0  0  0  0  0  0  0  0  0  0  0
  145.7962  140.2447  154.3802 H   0  0  0  0  0  0  0  0  0  0  0  0
  146.4237  138.8274  153.5658 H   0  0  0  0  0  0  0  0  0  0  0  0
  1  2  1  0  0  0  0
  1 20  1  0  0  0  0
  1 21  1  0  0  0  0
  1 22  1  0  0  0  0
  2  3  1  0  0  0  0
  2 14  1  0  0  0  0
  2 23  1  0  0  0  0
  3  4  1  0  0  0  0
  3 24  1  0  0  0  0
  3 25  1  0  0  0  0
  4  5  1  0  0  0  0
  4 26  1  0  0  0  0
  5  6  2  0  0  0  0
  5  7  1  0  0  0  0
  7  8  1  0  0  0  0
  7 27  1  0  0  0  0
  8 13  1  0  0  0  0
  8  9  2  0  0  0  0
  9 10  1  0  0  0  0
  9 28  1  0  0  0  0
 10 11  2  0  0  0  0
 10 29  1  0  0  0  0
 11 12  1  0  0  0  0
 11 30  1  0  0  0  0
 12 13  2  0  0  0  0
 13 31  1  0  0  0  0
 14 19  1  0  0  0  0
 14 15  1  0  0  0  0
 15 16  1  0  0  0  0
 15 32  1  0  0  0  0
 15 33  1  0  0  0  0
 16 17  1  0  0  0  0
 16 34  1  0  0  0  0
 16 35  1  0  0  0  0
 17 18  1  0  0  0  0
 18 19  1  0  0  0  0
 18 36  1  0  0  0  0
 18 37  1  0  0  0  0
 19 38  1  0  0  0  0
 19 39  1  0  0  0  0
M  END
> <s_m_source_file>
AV-unprocessed.smi

> <i_m_source_file_index>
2140

> <i_lp_mmshare_version>
43012

> <i_f3d_flags>
0

> <s_epik_input>
W0NIMl0xW0NIMl1PW0NIMl1bQ0gyXU4xW0NASF0oW0NIM10pW0NIMl1bTkhdQyg9TylbTkhdYzJbY0hdW2NIXVtjSF1uW2NIXTI=

> <s_epik_cmdline>
J2VwaWtfcHl0aG9uJywgJy1waCcsICc3LjAnLCAnLXRuJywgJzgnLCAnLW1hJywgJzIwMCcsICctbWV0YWxfYmluZGluZycsICctaW1hZScsICc8aW5maWxlLm1hZT4nLCAnLW9tYWUnLCAnPG91dGZpbGUubWFlPic=

> <r_epik_Ionization_Penalty>
0.270748

> <r_epik_Ionization_Penalty_Charging>
0

> <r_epik_Ionization_Penalty_Neutral>
0.270748

> <r_epik_State_Penalty>
0.268258

> <r_epik_Charging_Adjusted_Penalty>
0.268258

> <i_epik_Tot_Q>
0

> <i_epik_Tot_abs_Q>
0

> <r_epik_Metal_State_Penalty>
0.264828

> <b_epik_Metal_Only>
0

> <s_lp_Force_Field>
OPLS_2005

> <r_lp_Energy>
31.3995

> <b_lp_Chiralities_Consistent>
1

> <s_lp_Variant>
AV-unprocessed.smi:2140-2

> <Gold.Version>
5.8.1

> <Gold.Id.Protein>
6NUR|6NUR_protein|mol2

> <Gold.PLP.Fitness>
39.9982

> <Gold.PLP.PLP>
-32.1222

> <Gold.PLP.part.hbond>
-3.6767

> <Gold.PLP.part.metal>
0.0000

> <Gold.PLP.part.buried>
-4.7578

> <Gold.PLP.part.nonpolar>
-24.3144

> <Gold.PLP.part.repulsive>
0.4206

> <Gold.PLP.ligand.clash>
0.0000

> <Gold.PLP.ligand.torsion>
0.5440

> <Gold.PLP.Chemscore.Hbond>
1.9760

> <Gold.PLP.Chemscore.CHOScore>
1.0000

> <Gold.PLP.Chemscore.Metal>
0.0000

> <Gold.Chemscore.Hbonds>
donor molecule, donor type, donor heavy atom, donor atom, acceptor molecule, acceptor atom, score
      L1  H     4    26       P1  8028  0.99
      L1  H     7    27       P1  8028  1.00
      L1  C    13    31       P1  8029  1.00

> <Gold.PLP.Chemscore.Internal.Correction>
0.0361

> <Gold.Rescore>
     Score         DG    S(hbond)    S(metal)    S(lipo)     H(rot)  DE(clash)    DE(int)     intcor
     15.88     -17.79       1.94        0.00      81.97       1.47       0.11       1.80       ----

> <Gold.Chemscore.Fitness>
15.8820

> <Gold.Chemscore.DG>
-17.7916

> <Gold.Chemscore.ZeroCoef>
-5.4800

> <Gold.Chemscore.Hbond>
1.9429

> <Gold.Chemscore.Metal>
0.0000

> <Gold.Chemscore.Lipo>
81.9700

> <Gold.Chemscore.Internal_Hbond>
0.0000

> <Gold.Chemscore.DEClash>
0.1073

> <Gold.Chemscore.DEInternal>
1.8023

> <Gold.Chemscore.Rot>
1.4719

> <Gold.Chemscore.Internal.Correction>
   9.000000E+99

> <Gold.Chemscore.Hbonds>
donor molecule, donor type, donor heavy atom, donor atom, acceptor molecule, acceptor atom, score
      L1  H     4    26       P1  8028  0.88
      L1  H     7    27       P1  8028  0.98

> <Gold.Chemscore.Hbond.Weighted>
-6.4892

> <Gold.Chemscore.Metal.Weighted>
-0.0000

> <Gold.Chemscore.Lipo.Weighted>
-9.5905

> <Gold.Chemscore.Internal_Hbond.Weighted>
0.0000

> <Gold.Chemscore.DEClash.Weighted>
0.1073

> <Gold.Chemscore.DEInternal.Weighted>
1.8023

> <Gold.Chemscore.Rot.Weighted>
3.7681

> <Gold.Chemscore.Internal.Correction.Weighted>
   9.000000E+99

> <Gold.Protein.RotatedTorsions>
[ 6907 6896 6895 6894 ] final   25.09 input  -60.11 | X-H torsion
[ 7974 7965 7964 7962 ] final   24.00 input  175.53 | X-H torsion
[ 8008 7997 7996 7995 ] final  -57.77 input   59.86 | X-H torsion
[ 10167 10162 10161 10158 ] final -117.69 input  -65.29 | X-H torsion
[ 10718 10713 10712 10709 ] final  140.74 input   66.30 | X-H torsion
[ 10763 10752 10751 10750 ] final -132.70 input  -60.55 | X-H torsion
[ 11005 11000 10999 10996 ] final  153.97 input  -57.11 | X-H torsion

> <Gold.Protein.ActiveResidues>
 VAL166  LYS551  ARG553  GLY616  TRP617  ASP618  TYR619  PRO620  LYS621  CYS622 
 ASP623  PHE694  ASN695  SER759  ASP760  ASP761  ALA762  ILE779  LEU786  VAL792 
 PHE793  MET794  SER795  GLU796  ALA797  LYS798  CYS799  TRP800  GLU811  SER814 

> <Gold.Protein.RotatedAtoms>
  151.9673  135.0094  160.0550 H   0  0  0  0  0  0  0  0  0  0  0  0  # atno 6907 bound_to 6896
  152.1814  133.4705  159.4968 H   0  0  0  0  0  0  0  0  0  0  0  0  # atno 6908 bound_to 6896
  150.6918  134.1745  159.4268 H   0  0  0  0  0  0  0  0  0  0  0  0  # atno 6909 bound_to 6896
  146.1958  139.7666  142.8798 H   0  0  0  0  0  0  0  0  0  0  0  0  # atno 7974 bound_to 7965
  154.4281  140.1099  156.5850 H   0  0  0  0  0  0  0  0  0  0  0  0  # atno 8008 bound_to 7997
  155.6072  140.3494  155.4592 H   0  0  0  0  0  0  0  0  0  0  0  0  # atno 8009 bound_to 7997
  156.0127  140.1222  157.0427 H   0  0  0  0  0  0  0  0  0  0  0  0  # atno 8010 bound_to 7997
  140.0656  143.4926  152.2008 H   0  0  0  0  0  0  0  0  0  0  0  0  # atno 10167 bound_to 10162
  157.3998  131.1015  151.0563 H   0  0  0  0  0  0  0  0  0  0  0  0  # atno 10718 bound_to 10713
  154.8740  135.3789  154.4452 H   0  0  0  0  0  0  0  0  0  0  0  0  # atno 10763 bound_to 10752
  153.5133  135.7029  153.5774 H   0  0  0  0  0  0  0  0  0  0  0  0  # atno 10764 bound_to 10752
  153.4054  135.3938  155.1981 H   0  0  0  0  0  0  0  0  0  0  0  0  # atno 10765 bound_to 10752
  140.1446  134.8716  157.2376 H   0  0  0  0  0  0  0  0  0  0  0  0  # atno 11005 bound_to 11000
  145.3647  141.0332  143.3265 LP  0  0  0  0  0  0  0  0  0  0  0  0  # atno 17320 bound_to 7965
  144.8578  139.5223  143.6826 LP  0  0  0  0  0  0  0  0  0  0  0  0  # atno 17321 bound_to 7965
  139.5867  144.7534  151.3502 LP  0  0  0  0  0  0  0  0  0  0  0  0  # atno 17342 bound_to 10162
  140.7151  143.7289  150.7639 LP  0  0  0  0  0  0  0  0  0  0  0  0  # atno 17343 bound_to 10162
  157.1566  130.6207  149.5598 LP  0  0  0  0  0  0  0  0  0  0  0  0  # atno 17370 bound_to 10713
  155.9820  130.4831  150.6859 LP  0  0  0  0  0  0  0  0  0  0  0  0  # atno 17371 bound_to 10713
  140.2679  134.3494  155.7383 LP  0  0  0  0  0  0  0  0  0  0  0  0  # atno 17394 bound_to 11000
  141.2191  133.7406  156.9179 LP  0  0  0  0  0  0  0  0  0  0  0  0  # atno 17395 bound_to 11000

$$$$
