AV-unprocessed.smi:1554|AV-procd|sdf|6263|dock5
  -GOLD-   22720 6453D 1   1.00000     0.00000
 Structure written by MMmdl.
 49 51  0  0  0  0  0  0  0  0  3 V2000
  152.3820  143.9993  159.8767 C   0  0  0  0  0  0  0  0  0  0  0  0
  152.0385  142.9520  158.8308 C   0  0  0  0  0  0  0  0  0  0  0  0
  151.0963  143.2815  157.8304 C   0  0  0  0  0  0  0  0  0  0  0  0
  150.8061  142.3040  156.8859 C   0  0  0  0  0  0  0  0  0  0  0  0
  149.9389  142.3171  155.7911 N   0  3  0  0  0  0  0  0  0  0  0  0
  149.9959  141.1160  155.1517 C   0  0  0  0  0  0  0  0  0  0  0  0
  150.8848  140.3352  155.8245 N   0  0  0  0  0  0  0  0  0  0  0  0
  151.3180  138.9561  155.5619 C   0  0  0  0  0  0  0  0  0  0  0  0
  150.2271  138.1024  154.8849 C   0  0  1  0  0  0  0  0  0  0  0  0
  150.1723  138.4376  153.5106 O   0  0  0  0  0  0  0  0  0  0  0  0
  150.5204  136.5945  155.0291 C   0  0  0  0  0  0  0  0  0  0  0  0
  149.4428  135.7300  154.4817 N   0  3  2  0  0  0  0  0  0  0  0  0
  148.1358  135.8976  155.1646 C   0  0  0  0  0  0  0  0  0  0  0  0
  147.0726  134.9941  154.5186 C   0  0  0  0  0  0  0  0  0  0  0  0
  147.5087  133.6412  154.5562 O   0  0  0  0  0  0  0  0  0  0  0  0
  148.7140  133.4428  153.8259 C   0  0  2  0  0  0  0  0  0  0  0  0
  149.0474  131.9468  153.8501 C   0  0  0  0  0  0  0  0  0  0  0  0
  149.8301  134.2988  154.4558 C   0  0  0  0  0  0  0  0  0  0  0  0
  151.4159  141.0347  156.9131 C   0  0  0  0  0  0  0  0  0  0  0  0
  152.3442  140.6922  157.8931 C   0  0  0  0  0  0  0  0  0  0  0  0
  152.6540  141.6736  158.8619 C   0  0  0  0  0  0  0  0  0  0  0  0
  153.6671  141.3321  159.9414 C   0  0  0  0  0  0  0  0  0  0  0  0
  151.8171  144.9191  159.7218 H   0  0  0  0  0  0  0  0  0  0  0  0
  153.4426  144.2486  159.8343 H   0  0  0  0  0  0  0  0  0  0  0  0
  152.1517  143.6320  160.8769 H   0  0  0  0  0  0  0  0  0  0  0  0
  150.6237  144.2525  157.8005 H   0  0  0  0  0  0  0  0  0  0  0  0
  149.4347  140.8330  154.2726 H   0  0  0  0  0  0  0  0  0  0  0  0
  152.2057  139.0085  154.9297 H   0  0  0  0  0  0  0  0  0  0  0  0
  151.6370  138.5095  156.5046 H   0  0  0  0  0  0  0  0  0  0  0  0
  149.2668  138.3509  155.3345 H   0  0  0  0  0  0  0  0  0  0  0  0
  149.7713  137.7256  153.0364 H   0  0  0  0  0  0  0  0  0  0  0  0
  151.4583  136.3753  154.5159 H   0  0  0  0  0  0  0  0  0  0  0  0
  150.6826  136.3379  156.0773 H   0  0  0  0  0  0  0  0  0  0  0  0
  148.2404  135.6488  156.2220 H   0  0  0  0  0  0  0  0  0  0  0  0
  147.8022  136.9331  155.1120 H   0  0  0  0  0  0  0  0  0  0  0  0
  146.1302  135.0764  155.0603 H   0  0  0  0  0  0  0  0  0  0  0  0
  146.8750  135.2979  153.4893 H   0  0  0  0  0  0  0  0  0  0  0  0
  148.5590  133.7461  152.7887 H   0  0  0  0  0  0  0  0  0  0  0  0
  149.9622  131.7388  153.2945 H   0  0  0  0  0  0  0  0  0  0  0  0
  148.2454  131.3617  153.3991 H   0  0  0  0  0  0  0  0  0  0  0  0
  149.1861  131.5890  154.8708 H   0  0  0  0  0  0  0  0  0  0  0  0
  150.7503  134.1782  153.8823 H   0  0  0  0  0  0  0  0  0  0  0  0
  150.0388  133.9601  155.4723 H   0  0  0  0  0  0  0  0  0  0  0  0
  152.8135  139.7199  157.9157 H   0  0  0  0  0  0  0  0  0  0  0  0
  154.0457  140.3158  159.8275 H   0  0  0  0  0  0  0  0  0  0  0  0
  153.2152  141.4103  160.9306 H   0  0  0  0  0  0  0  0  0  0  0  0
  154.5186  142.0116  159.8948 H   0  0  0  0  0  0  0  0  0  0  0  0
  149.3137  136.0020  153.5176 H   0  0  0  0  0  0  0  0  0  0  0  0
  149.3516  143.0877  155.4982 H   0  0  0  0  0  0  0  0  0  0  0  0
  1  2  1  0  0  0  0
  1 23  1  0  0  0  0
  1 24  1  0  0  0  0
  1 25  1  0  0  0  0
  2 21  1  0  0  0  0
  2  3  2  0  0  0  0
  3  4  1  0  0  0  0
  3 26  1  0  0  0  0
  4 19  2  0  0  0  0
  4  5  1  0  0  0  0
  5  6  2  0  0  0  0
  5 49  1  0  0  0  0
  6  7  1  0  0  0  0
  6 27  1  0  0  0  0
  7  8  1  0  0  0  0
  7 19  1  0  0  0  0
  8  9  1  0  0  0  0
  8 28  1  0  0  0  0
  8 29  1  0  0  0  0
  9 10  1  0  0  0  0
  9 11  1  0  0  0  0
  9 30  1  0  0  0  0
 10 31  1  0  0  0  0
 11 12  1  0  0  0  0
 11 32  1  0  0  0  0
 11 33  1  0  0  0  0
 12 18  1  0  0  0  0
 12 13  1  0  0  0  0
 12 48  1  0  0  0  0
 13 14  1  0  0  0  0
 13 34  1  0  0  0  0
 13 35  1  0  0  0  0
 14 15  1  0  0  0  0
 14 36  1  0  0  0  0
 14 37  1  0  0  0  0
 15 16  1  0  0  0  0
 16 17  1  0  0  0  0
 16 18  1  0  0  0  0
 16 38  1  0  0  0  0
 17 39  1  0  0  0  0
 17 40  1  0  0  0  0
 17 41  1  0  0  0  0
 18 42  1  0  0  0  0
 18 43  1  0  0  0  0
 19 20  1  0  0  0  0
 20 21  2  0  0  0  0
 20 44  1  0  0  0  0
 21 22  1  0  0  0  0
 22 45  1  0  0  0  0
 22 46  1  0  0  0  0
 22 47  1  0  0  0  0
M  CHG  1   5   1
M  CHG  1  12   1
M  END
> <s_m_source_file>
AV-unprocessed.smi

> <i_m_source_file_index>
1554

> <i_lp_mmshare_version>
43012

> <i_f3d_flags>
0

> <s_epik_input>
W0NIM11jKFtjSF0xKWMoW0NIM10pW2NIXWMoYzEyKW4oW2NIXW4yKVtDSDJdW0NASF0oW09IXSlbQ0gyXU4zW0NIMl1bQ0gyXU9bQ0BASF0oW0NIM10pW0NIMl0z

> <s_epik_cmdline>
J2VwaWtfcHl0aG9uJywgJy1waCcsICc3LjAnLCAnLXRuJywgJzgnLCAnLW1hJywgJzIwMCcsICctbWV0YWxfYmluZGluZycsICctaW1hZScsICc8aW5maWxlLm1hZT4nLCAnLW9tYWUnLCAnPG91dGZpbGUubWFlPic=

> <r_epik_Ionization_Penalty>
1.8848

> <r_epik_Ionization_Penalty_Charging>
1.88479

> <r_epik_Ionization_Penalty_Neutral>
1.42224e-05

> <r_epik_State_Penalty>
1.94551

> <r_epik_Charging_Adjusted_Penalty>
3.8303

> <i_epik_Tot_Q>
2

> <i_epik_Tot_abs_Q>
2

> <r_epik_Metal_State_Penalty>
5.95849

> <b_epik_Metal_Only>
0

> <s_lp_Force_Field>
OPLS_2005

> <r_lp_Energy>
30.4692

> <b_lp_Chiralities_Consistent>
1

> <s_lp_Variant>
AV-unprocessed.smi:1554-24

> <Gold.Version>
5.8.1

> <Gold.Id.Protein>
6NUR|6NUR_protein|mol2

> <Gold.PLP.Fitness>
58.5667

> <Gold.PLP.PLP>
-44.6455

> <Gold.PLP.part.hbond>
-4.0054

> <Gold.PLP.part.metal>
0.0000

> <Gold.PLP.part.buried>
-3.7330

> <Gold.PLP.part.nonpolar>
-37.3794

> <Gold.PLP.part.repulsive>
0.2305

> <Gold.PLP.ligand.clash>
0.0000

> <Gold.PLP.ligand.torsion>
0.5576

> <Gold.PLP.Chemscore.Hbond>
5.0000

> <Gold.PLP.Chemscore.CHOScore>
0.0000

> <Gold.PLP.Chemscore.Metal>
0.0000

> <Gold.Chemscore.Hbonds>
donor molecule, donor type, donor heavy atom, donor atom, acceptor molecule, acceptor atom, score
      L1  H     5    49       P1  8028  1.98
      L1  H    10    31       P1  7948  1.00
      L1  H    12    48       P1  7948  2.00

> <Gold.PLP.Chemscore.Internal.Correction>
0.0363

> <Gold.Rescore>
     Score         DG    S(hbond)    S(metal)    S(lipo)     H(rot)  DE(clash)    DE(int)     intcor
     21.92     -22.55       2.86        0.00     110.44       2.11       0.02       0.61       ----

> <Gold.Chemscore.Fitness>
21.9165

> <Gold.Chemscore.DG>
-22.5503

> <Gold.Chemscore.ZeroCoef>
-5.4800

> <Gold.Chemscore.Hbond>
2.8610

> <Gold.Chemscore.Metal>
0.0000

> <Gold.Chemscore.Lipo>
110.4434

> <Gold.Chemscore.Internal_Hbond>
0.0000

> <Gold.Chemscore.DEClash>
0.0189

> <Gold.Chemscore.DEInternal>
0.6149

> <Gold.Chemscore.Rot>
2.1122

> <Gold.Chemscore.Internal.Correction>
   9.000000E+99

> <Gold.Chemscore.Hbonds>
donor molecule, donor type, donor heavy atom, donor atom, acceptor molecule, acceptor atom, score
      L1  H     5    49       P1  8028  0.94
      L1  H    10    31       P1  7948  0.52
      L1  H    12    48       P1  7948  0.70

> <Gold.Chemscore.Hbond.Weighted>
-9.5556

> <Gold.Chemscore.Metal.Weighted>
-0.0000

> <Gold.Chemscore.Lipo.Weighted>
-12.9219

> <Gold.Chemscore.Internal_Hbond.Weighted>
0.0000

> <Gold.Chemscore.DEClash.Weighted>
0.0189

> <Gold.Chemscore.DEInternal.Weighted>
0.6149

> <Gold.Chemscore.Rot.Weighted>
5.4073

> <Gold.Chemscore.Internal.Correction.Weighted>
   9.000000E+99

> <Gold.Protein.RotatedTorsions>
[ 6907 6896 6895 6894 ] final   56.98 input  -60.11 | X-H torsion
[ 7974 7965 7964 7962 ] final  -48.50 input  175.53 | X-H torsion
[ 8008 7997 7996 7995 ] final  125.27 input   59.86 | X-H torsion
[ 10167 10162 10161 10158 ] final   42.94 input  -65.29 | X-H torsion
[ 10718 10713 10712 10709 ] final -162.20 input   66.30 | X-H torsion
[ 10763 10752 10751 10750 ] final   22.38 input  -60.55 | X-H torsion
[ 11005 11000 10999 10996 ] final -169.32 input  -57.11 | X-H torsion

> <Gold.Protein.ActiveResidues>
 VAL166  LYS551  ARG553  GLY616  TRP617  ASP618  TYR619  PRO620  LYS621  CYS622 
 ASP623  PHE694  ASN695  SER759  ASP760  ASP761  ALA762  ILE779  LEU786  VAL792 
 PHE793  MET794  SER795  GLU796  ALA797  LYS798  CYS799  TRP800  GLU811  SER814 

> <Gold.Protein.RotatedAtoms>
  152.3688  134.6765  160.0182 H   0  0  0  0  0  0  0  0  0  0  0  0  # atno 6907 bound_to 6896
  151.7064  133.3306  159.3287 H   0  0  0  0  0  0  0  0  0  0  0  0  # atno 6908 bound_to 6896
  150.7658  134.6505  159.6330 H   0  0  0  0  0  0  0  0  0  0  0  0  # atno 6909 bound_to 6896
  145.9505  140.7577  142.9507 H   0  0  0  0  0  0  0  0  0  0  0  0  # atno 7974 bound_to 7965
  156.2828  140.2720  156.1922 H   0  0  0  0  0  0  0  0  0  0  0  0  # atno 8008 bound_to 7997
  155.0447  140.0386  157.2540 H   0  0  0  0  0  0  0  0  0  0  0  0  # atno 8009 bound_to 7997
  154.7245  140.2694  155.6517 H   0  0  0  0  0  0  0  0  0  0  0  0  # atno 8010 bound_to 7997
  140.3494  144.2369  150.6147 H   0  0  0  0  0  0  0  0  0  0  0  0  # atno 10167 bound_to 10162
  156.6071  130.8835  151.2928 H   0  0  0  0  0  0  0  0  0  0  0  0  # atno 10718 bound_to 10713
  153.0920  135.6649  153.9835 H   0  0  0  0  0  0  0  0  0  0  0  0  # atno 10763 bound_to 10752
  153.9429  135.2992  155.3443 H   0  0  0  0  0  0  0  0  0  0  0  0  # atno 10764 bound_to 10752
  154.7336  135.5112  153.9077 H   0  0  0  0  0  0  0  0  0  0  0  0  # atno 10765 bound_to 10752
  140.5321  134.5606  157.5077 H   0  0  0  0  0  0  0  0  0  0  0  0  # atno 11005 bound_to 11000
  144.6795  140.2426  143.7342 LP  0  0  0  0  0  0  0  0  0  0  0  0  # atno 17320 bound_to 7965
  145.8178  139.2030  143.1956 LP  0  0  0  0  0  0  0  0  0  0  0  0  # atno 17321 bound_to 7965
  140.5233  143.2260  151.8354 LP  0  0  0  0  0  0  0  0  0  0  0  0  # atno 17342 bound_to 10162
  139.4828  144.4810  151.9307 LP  0  0  0  0  0  0  0  0  0  0  0  0  # atno 17343 bound_to 10162
  157.7264  130.9629  150.1655 LP  0  0  0  0  0  0  0  0  0  0  0  0  # atno 17370 bound_to 10713
  156.2420  130.3692  149.8326 LP  0  0  0  0  0  0  0  0  0  0  0  0  # atno 17371 bound_to 10713
  139.9549  134.7553  156.0365 LP  0  0  0  0  0  0  0  0  0  0  0  0  # atno 17394 bound_to 11000
  141.1275  133.6595  156.3377 LP  0  0  0  0  0  0  0  0  0  0  0  0  # atno 17395 bound_to 11000

$$$$
