AV-unprocessed.smi:1791|AV-procd|sdf|7221|dock9
  -GOLD-   22720 8463D 1   1.00000     0.00000
 Structure written by MMmdl.
 38 39  0  0  0  0  0  0  0  0  1 V2000
  153.1597  139.2784  158.9093 C   0  0  0  0  0  0  0  0  0  0  0  0
  153.0664  139.5579  157.5166 O   0  0  0  0  0  0  0  0  0  0  0  0
  152.3073  138.7166  156.7294 C   0  0  0  0  0  0  0  0  0  0  0  0
  152.1550  139.0263  155.3632 C   0  0  0  0  0  0  0  0  0  0  0  0
  151.3822  138.1726  154.5528 C   0  0  0  0  0  0  0  0  0  0  0  0
  150.7785  137.0347  155.1392 C   0  0  0  0  0  0  0  0  0  0  0  0
  149.9984  136.0862  154.4252 N   0  0  0  0  0  0  0  0  0  0  0  0
  149.5920  134.8684  154.8224 C   0  0  0  0  0  0  0  0  0  0  0  0
  149.8839  134.3358  155.8930 O   0  0  0  0  0  0  0  0  0  0  0  0
  148.8364  134.2837  153.8816 N   0  0  0  0  0  0  0  0  0  0  0  0
  148.2289  132.9568  153.9692 C   0  0  1  0  0  0  0  0  0  0  0  0
  147.2792  132.9268  155.1756 C   0  0  0  0  0  0  0  0  0  0  0  0
  147.4982  132.6158  152.6551 C   0  0  1  0  0  0  0  0  0  0  0  0
  146.7357  131.2903  152.6625 C   0  0  0  0  0  0  0  0  0  0  0  0
  145.6908  131.4810  151.5756 C   0  0  0  0  0  0  0  0  0  0  0  0
  145.6224  132.9999  151.3883 C   0  0  0  0  0  0  0  0  0  0  0  0
  146.4566  133.5455  152.4018 O   0  0  0  0  0  0  0  0  0  0  0  0
  151.0037  136.8066  156.5124 C   0  0  0  0  0  0  0  0  0  0  0  0
  151.7414  137.6219  157.2951 N   0  0  0  0  0  0  0  0  0  0  0  0
  153.7967  140.0239  159.3848 H   0  0  0  0  0  0  0  0  0  0  0  0
  153.6044  138.2993  159.0924 H   0  0  0  0  0  0  0  0  0  0  0  0
  152.1815  139.3235  159.3905 H   0  0  0  0  0  0  0  0  0  0  0  0
  152.6276  139.9013  154.9418 H   0  0  0  0  0  0  0  0  0  0  0  0
  151.2829  138.3980  153.5024 H   0  0  0  0  0  0  0  0  0  0  0  0
  149.7554  136.3489  153.4813 H   0  0  0  0  0  0  0  0  0  0  0  0
  148.6628  134.8001  153.0318 H   0  0  0  0  0  0  0  0  0  0  0  0
  149.0001  132.2035  154.1399 H   0  0  0  0  0  0  0  0  0  0  0  0
  146.8357  131.9388  155.3017 H   0  0  0  0  0  0  0  0  0  0  0  0
  146.4658  133.6439  155.0607 H   0  0  0  0  0  0  0  0  0  0  0  0
  147.8084  133.1674  156.0981 H   0  0  0  0  0  0  0  0  0  0  0  0
  148.1970  132.6340  151.8161 H   0  0  0  0  0  0  0  0  0  0  0  0
  147.3796  130.4284  152.4853 H   0  0  0  0  0  0  0  0  0  0  0  0
  146.2401  131.1483  153.6240 H   0  0  0  0  0  0  0  0  0  0  0  0
  145.9969  130.9984  150.6467 H   0  0  0  0  0  0  0  0  0  0  0  0
  144.7295  131.0600  151.8719 H   0  0  0  0  0  0  0  0  0  0  0  0
  146.0130  133.2832  150.4101 H   0  0  0  0  0  0  0  0  0  0  0  0
  144.6066  133.3862  151.4733 H   0  0  0  0  0  0  0  0  0  0  0  0
  150.5761  135.9441  157.0023 H   0  0  0  0  0  0  0  0  0  0  0  0
  1  2  1  0  0  0  0
  1 20  1  0  0  0  0
  1 21  1  0  0  0  0
  1 22  1  0  0  0  0
  2  3  1  0  0  0  0
  3 19  1  0  0  0  0
  3  4  2  0  0  0  0
  4  5  1  0  0  0  0
  4 23  1  0  0  0  0
  5  6  2  0  0  0  0
  5 24  1  0  0  0  0
  6  7  1  0  0  0  0
  6 18  1  0  0  0  0
  7  8  1  0  0  0  0
  7 25  1  0  0  0  0
  8  9  2  0  0  0  0
  8 10  1  0  0  0  0
 10 11  1  0  0  0  0
 10 26  1  0  0  0  0
 11 12  1  0  0  0  0
 11 13  1  0  0  0  0
 11 27  1  0  0  0  0
 12 28  1  0  0  0  0
 12 29  1  0  0  0  0
 12 30  1  0  0  0  0
 13 17  1  0  0  0  0
 13 14  1  0  0  0  0
 13 31  1  0  0  0  0
 14 15  1  0  0  0  0
 14 32  1  0  0  0  0
 14 33  1  0  0  0  0
 15 16  1  0  0  0  0
 15 34  1  0  0  0  0
 15 35  1  0  0  0  0
 16 17  1  0  0  0  0
 16 36  1  0  0  0  0
 16 37  1  0  0  0  0
 18 19  2  0  0  0  0
 18 38  1  0  0  0  0
M  END
> <s_m_source_file>
AV-unprocessed.smi

> <i_m_source_file_index>
1791

> <i_lp_mmshare_version>
43012

> <i_f3d_flags>
0

> <s_epik_input>
W0NIM11PYzFbY0hdW2NIXWMoW2NIXW4xKVtOSF1DKD1PKVtOSF1bQ0BIXShbQ0gzXSlbQ0BASF0yW0NIMl1bQ0gyXVtDSDJdTzI=

> <s_epik_cmdline>
J2VwaWtfcHl0aG9uJywgJy1waCcsICc3LjAnLCAnLXRuJywgJzgnLCAnLW1hJywgJzIwMCcsICctbWV0YWxfYmluZGluZycsICctaW1hZScsICc8aW5maWxlLm1hZT4nLCAnLW9tYWUnLCAnPG91dGZpbGUubWFlPic=

> <r_lp_tautomer_probability>
1

> <r_epik_Ionization_Penalty>
9.18737e-05

> <r_epik_Ionization_Penalty_Charging>
0

> <r_epik_Ionization_Penalty_Neutral>
9.18737e-05

> <r_epik_State_Penalty>
-0

> <r_epik_Charging_Adjusted_Penalty>
0

> <i_epik_Tot_Q>
0

> <i_epik_Tot_abs_Q>
0

> <r_epik_Metal_State_Penalty>
-0

> <b_epik_Metal_Only>
0

> <s_lp_Force_Field>
OPLS_2005

> <r_lp_Energy>
20.4699

> <b_lp_Chiralities_Consistent>
1

> <s_lp_Variant>
AV-unprocessed.smi:1791-4

> <Gold.Version>
5.8.1

> <Gold.Id.Protein>
6NUR|6NUR_protein|mol2

> <Gold.PLP.Fitness>
37.3086

> <Gold.PLP.PLP>
-28.4085

> <Gold.PLP.part.hbond>
-3.7310

> <Gold.PLP.part.metal>
0.0000

> <Gold.PLP.part.buried>
-2.0740

> <Gold.PLP.part.nonpolar>
-22.0963

> <Gold.PLP.part.repulsive>
0.2064

> <Gold.PLP.ligand.clash>
0.0000

> <Gold.PLP.ligand.torsion>
0.0611

> <Gold.PLP.Chemscore.Hbond>
3.0000

> <Gold.PLP.Chemscore.CHOScore>
0.0000

> <Gold.PLP.Chemscore.Metal>
0.0000

> <Gold.Chemscore.Hbonds>
donor molecule, donor type, donor heavy atom, donor atom, acceptor molecule, acceptor atom, score
      L1  H     7    25       P1  7948  1.00
      L1  H    10    26       P1  7948  1.00
      P1  H  7997  8010       L1     2  1.00

> <Gold.PLP.Chemscore.Internal.Correction>
0.0222

> <Gold.Rescore>
     Score         DG    S(hbond)    S(metal)    S(lipo)     H(rot)  DE(clash)    DE(int)     intcor
     15.83     -17.36       2.55        0.00      60.86       1.47       0.02       1.51       ----

> <Gold.Chemscore.Fitness>
15.8283

> <Gold.Chemscore.DG>
-17.3634

> <Gold.Chemscore.ZeroCoef>
-5.4800

> <Gold.Chemscore.Hbond>
2.5520

> <Gold.Chemscore.Metal>
0.0000

> <Gold.Chemscore.Lipo>
60.8639

> <Gold.Chemscore.Internal_Hbond>
0.0000

> <Gold.Chemscore.DEClash>
0.0249

> <Gold.Chemscore.DEInternal>
1.5102

> <Gold.Chemscore.Rot>
1.4693

> <Gold.Chemscore.Internal.Correction>
   9.000000E+99

> <Gold.Chemscore.Hbonds>
donor molecule, donor type, donor heavy atom, donor atom, acceptor molecule, acceptor atom, score
      L1  H     7    25       P1  7948  0.25
      L1  H    10    26       P1  7948  0.29
      P1  H  7997  8010       L1     2  0.72

> <Gold.Chemscore.Hbond.Weighted>
-8.5236

> <Gold.Chemscore.Metal.Weighted>
-0.0000

> <Gold.Chemscore.Lipo.Weighted>
-7.1211

> <Gold.Chemscore.Internal_Hbond.Weighted>
0.0000

> <Gold.Chemscore.DEClash.Weighted>
0.0249

> <Gold.Chemscore.DEInternal.Weighted>
1.5102

> <Gold.Chemscore.Rot.Weighted>
3.7613

> <Gold.Chemscore.Internal.Correction.Weighted>
   9.000000E+99

> <Gold.Protein.RotatedTorsions>
[ 6907 6896 6895 6894 ] final  168.14 input  -60.11 | X-H torsion
[ 7974 7965 7964 7962 ] final  -20.06 input  175.53 | X-H torsion
[ 8008 7997 7996 7995 ] final   58.85 input   59.86 | X-H torsion
[ 10167 10162 10161 10158 ] final   -5.01 input  -65.29 | X-H torsion
[ 10718 10713 10712 10709 ] final -104.62 input   66.30 | X-H torsion
[ 10763 10752 10751 10750 ] final    2.41 input  -60.55 | X-H torsion
[ 11005 11000 10999 10996 ] final -159.43 input  -57.11 | X-H torsion

> <Gold.Protein.ActiveResidues>
 VAL166  LYS551  ARG553  GLY616  TRP617  ASP618  TYR619  PRO620  LYS621  CYS622 
 ASP623  PHE694  ASN695  SER759  ASP760  ASP761  ALA762  ILE779  LEU786  VAL792 
 PHE793  MET794  SER795  GLU796  ALA797  LYS798  CYS799  TRP800  GLU811  SER814 

> <Gold.Protein.RotatedAtoms>
  151.8523  133.3442  159.3676 H   0  0  0  0  0  0  0  0  0  0  0  0  # atno 6907 bound_to 6896
  150.7203  134.5287  159.5699 H   0  0  0  0  0  0  0  0  0  0  0  0  # atno 6908 bound_to 6896
  152.2783  134.7857  160.0452 H   0  0  0  0  0  0  0  0  0  0  0  0  # atno 6909 bound_to 6896
  146.1808  140.4150  142.8495 H   0  0  0  0  0  0  0  0  0  0  0  0  # atno 7974 bound_to 7965
  155.5567  140.3487  155.4481 H   0  0  0  0  0  0  0  0  0  0  0  0  # atno 8008 bound_to 7997
  156.0544  140.1325  157.0039 H   0  0  0  0  0  0  0  0  0  0  0  0  # atno 8009 bound_to 7997
  154.4449  140.0998  156.6409 H   0  0  0  0  0  0  0  0  0  0  0  0  # atno 8010 bound_to 7997
  140.6948  143.6357  150.8481 H   0  0  0  0  0  0  0  0  0  0  0  0  # atno 10167 bound_to 10162
  156.0312  130.5524  150.7423 H   0  0  0  0  0  0  0  0  0  0  0  0  # atno 10718 bound_to 10713
  153.2960  135.6952  153.7248 H   0  0  0  0  0  0  0  0  0  0  0  0  # atno 10763 bound_to 10752
  153.6181  135.3432  155.3002 H   0  0  0  0  0  0  0  0  0  0  0  0  # atno 10764 bound_to 10752
  154.8537  135.4379  154.2057 H   0  0  0  0  0  0  0  0  0  0  0  0  # atno 10765 bound_to 10752
  140.6427  134.4534  157.5233 H   0  0  0  0  0  0  0  0  0  0  0  0  # atno 11005 bound_to 11000
  144.8312  140.6710  143.6290 LP  0  0  0  0  0  0  0  0  0  0  0  0  # atno 17320 bound_to 7965
  145.4081  139.1585  143.4141 LP  0  0  0  0  0  0  0  0  0  0  0  0  # atno 17321 bound_to 7965
  140.0074  143.5679  152.2852 LP  0  0  0  0  0  0  0  0  0  0  0  0  # atno 17342 bound_to 10162
  139.6390  144.7653  151.2377 LP  0  0  0  0  0  0  0  0  0  0  0  0  # atno 17343 bound_to 10162
  157.4988  131.0917  151.0339 LP  0  0  0  0  0  0  0  0  0  0  0  0  # atno 17370 bound_to 10713
  157.0725  130.5870  149.5405 LP  0  0  0  0  0  0  0  0  0  0  0  0  # atno 17371 bound_to 10713
  139.9074  134.8418  156.1654 LP  0  0  0  0  0  0  0  0  0  0  0  0  # atno 17394 bound_to 11000
  141.0595  133.6849  156.1925 LP  0  0  0  0  0  0  0  0  0  0  0  0  # atno 17395 bound_to 11000

$$$$
