AV-unprocessed.smi:2589|AV-procd|sdf|10151|dock5
  -GOLD-   2272014163D 1   1.00000     0.00000
 Structure written by MMmdl.
 41 42  0  0  0  0  0  0  0  0  1 V2000
  147.6276  145.5424  160.5876 C   0  0  0  0  0  0  0  0  0  0  0  0
  147.1348  144.2778  159.8935 C   0  0  0  0  0  0  0  0  0  0  0  0
  146.7110  143.3328  160.5580 O   0  0  0  0  0  0  0  0  0  0  0  0
  147.1938  144.2746  158.5529 N   0  0  0  0  0  0  0  0  0  0  0  0
  146.7520  143.1778  157.6955 C   0  0  0  0  0  0  0  0  0  0  0  0
  147.8553  142.1436  157.4432 C   0  0  0  0  0  0  0  0  0  0  0  0
  147.7416  140.9903  157.8605 O   0  0  0  0  0  0  0  0  0  0  0  0
  148.9119  142.5684  156.7344 N   0  0  0  0  0  0  0  0  0  0  0  0
  150.0568  141.7411  156.3713 C   0  0  0  0  0  0  0  0  0  0  0  0
  151.1560  141.7364  157.4316 C   0  0  0  0  0  0  0  0  0  0  0  0
  151.4430  142.9253  158.1377 C   0  0  0  0  0  0  0  0  0  0  0  0
  152.4463  142.9183  159.1233 C   0  0  0  0  0  0  0  0  0  0  0  0
  153.1276  141.7133  159.3712 C   0  0  0  0  0  0  0  0  0  0  0  0
  152.8651  140.5678  158.7096 N   0  0  0  0  0  0  0  0  0  0  0  0
  151.8996  140.5713  157.7583 C   0  0  0  0  0  0  0  0  0  0  0  0
  151.6714  139.3650  157.0776 N   0  0  0  0  0  0  0  0  0  0  0  0
  152.2924  138.1916  157.6789 C   0  0  0  0  0  0  0  0  0  0  0  0
  151.8325  136.9241  156.9383 C   0  0  0  0  0  0  0  0  0  0  0  0
  152.1322  137.0461  155.5501 O   0  0  0  0  0  0  0  0  0  0  0  0
  151.4706  138.1586  154.9530 C   0  0  0  0  0  0  0  0  0  0  0  0
  151.9182  139.4573  155.6449 C   0  0  0  0  0  0  0  0  0  0  0  0
  146.9739  146.3825  160.3522 H   0  0  0  0  0  0  0  0  0  0  0  0
  148.6387  145.7888  160.2630 H   0  0  0  0  0  0  0  0  0  0  0  0
  147.6394  145.4114  161.6699 H   0  0  0  0  0  0  0  0  0  0  0  0
  147.5488  145.0992  158.0909 H   0  0  0  0  0  0  0  0  0  0  0  0
  145.9156  142.6773  158.1832 H   0  0  0  0  0  0  0  0  0  0  0  0
  146.3745  143.5683  156.7487 H   0  0  0  0  0  0  0  0  0  0  0  0
  148.9257  143.5305  156.4282 H   0  0  0  0  0  0  0  0  0  0  0  0
  149.7037  140.7168  156.2522 H   0  0  0  0  0  0  0  0  0  0  0  0
  150.4228  142.0440  155.3899 H   0  0  0  0  0  0  0  0  0  0  0  0
  150.8989  143.8350  157.9293 H   0  0  0  0  0  0  0  0  0  0  0  0
  152.6859  143.8140  159.6770 H   0  0  0  0  0  0  0  0  0  0  0  0
  153.9037  141.6674  160.1207 H   0  0  0  0  0  0  0  0  0  0  0  0
  153.3786  138.2771  157.6253 H   0  0  0  0  0  0  0  0  0  0  0  0
  152.0230  138.1306  158.7340 H   0  0  0  0  0  0  0  0  0  0  0  0
  152.3439  136.0481  157.3373 H   0  0  0  0  0  0  0  0  0  0  0  0
  150.7624  136.7600  157.0762 H   0  0  0  0  0  0  0  0  0  0  0  0
  151.7186  138.1931  153.8922 H   0  0  0  0  0  0  0  0  0  0  0  0
  150.3888  138.0341  155.0244 H   0  0  0  0  0  0  0  0  0  0  0  0
  151.3825  140.3098  155.2268 H   0  0  0  0  0  0  0  0  0  0  0  0
  152.9811  139.6264  155.4668 H   0  0  0  0  0  0  0  0  0  0  0  0
  1  2  1  0  0  0  0
  1 22  1  0  0  0  0
  1 23  1  0  0  0  0
  1 24  1  0  0  0  0
  2  3  2  0  0  0  0
  2  4  1  0  0  0  0
  4  5  1  0  0  0  0
  4 25  1  0  0  0  0
  5  6  1  0  0  0  0
  5 26  1  0  0  0  0
  5 27  1  0  0  0  0
  6  7  2  0  0  0  0
  6  8  1  0  0  0  0
  8  9  1  0  0  0  0
  8 28  1  0  0  0  0
  9 10  1  0  0  0  0
  9 29  1  0  0  0  0
  9 30  1  0  0  0  0
 10 15  1  0  0  0  0
 10 11  2  0  0  0  0
 11 12  1  0  0  0  0
 11 31  1  0  0  0  0
 12 13  2  0  0  0  0
 12 32  1  0  0  0  0
 13 14  1  0  0  0  0
 13 33  1  0  0  0  0
 14 15  2  0  0  0  0
 15 16  1  0  0  0  0
 16 21  1  0  0  0  0
 16 17  1  0  0  0  0
 17 18  1  0  0  0  0
 17 34  1  0  0  0  0
 17 35  1  0  0  0  0
 18 19  1  0  0  0  0
 18 36  1  0  0  0  0
 18 37  1  0  0  0  0
 19 20  1  0  0  0  0
 20 21  1  0  0  0  0
 20 38  1  0  0  0  0
 20 39  1  0  0  0  0
 21 40  1  0  0  0  0
 21 41  1  0  0  0  0
M  END
> <s_m_source_file>
AV-unprocessed.smi

> <i_m_source_file_index>
2589

> <i_lp_mmshare_version>
43012

> <i_f3d_flags>
0

> <s_epik_input>
W0NIM11DKD1PKVtOSF1bQ0gyXUMoPU8pW05IXVtDSDJdYzFbY0hdW2NIXVtjSF1uYzFOMltDSDJdW0NIMl1PW0NIMl1bQ0gyXTI=

> <s_epik_cmdline>
J2VwaWtfcHl0aG9uJywgJy1waCcsICc3LjAnLCAnLXRuJywgJzgnLCAnLW1hJywgJzIwMCcsICctbWV0YWxfYmluZGluZycsICctaW1hZScsICc8aW5maWxlLm1hZT4nLCAnLW9tYWUnLCAnPG91dGZpbGUubWFlPic=

> <r_lp_tautomer_probability>
1

> <r_epik_Ionization_Penalty>
0.00462917

> <r_epik_Ionization_Penalty_Charging>
0

> <r_epik_Ionization_Penalty_Neutral>
0.00462917

> <r_epik_State_Penalty>
0.00334737

> <r_epik_Charging_Adjusted_Penalty>
0.00334737

> <i_epik_Tot_Q>
0

> <i_epik_Tot_abs_Q>
0

> <r_epik_Metal_State_Penalty>
-0

> <b_epik_Metal_Only>
0

> <s_lp_Force_Field>
OPLS_2005

> <r_lp_Energy>
14.0488

> <b_lp_Chiralities_Consistent>
1

> <s_lp_Variant>
AV-unprocessed.smi:2589-1

> <Gold.Version>
5.8.1

> <Gold.Id.Protein>
6NUR|6NUR_protein|mol2

> <Gold.PLP.Fitness>
49.4282

> <Gold.PLP.PLP>
-36.5451

> <Gold.PLP.part.hbond>
-6.5046

> <Gold.PLP.part.metal>
0.0000

> <Gold.PLP.part.buried>
-5.1518

> <Gold.PLP.part.nonpolar>
-25.6995

> <Gold.PLP.part.repulsive>
0.1575

> <Gold.PLP.ligand.clash>
0.0000

> <Gold.PLP.ligand.torsion>
0.8553

> <Gold.PLP.Chemscore.Hbond>
4.8103

> <Gold.PLP.Chemscore.CHOScore>
0.0000

> <Gold.PLP.Chemscore.Metal>
0.0000

> <Gold.Chemscore.Hbonds>
donor molecule, donor type, donor heavy atom, donor atom, acceptor molecule, acceptor atom, score
      L1  H     4    25       P1  8029  0.21
      L1  H     8    28       P1  8028  0.70
      P1  H  6933  6944       L1     3  0.54
      P1  H 10752 10763       L1    19  0.80

> <Gold.PLP.Chemscore.Internal.Correction>
0.1630

> <Gold.Rescore>
     Score         DG    S(hbond)    S(metal)    S(lipo)     H(rot)  DE(clash)    DE(int)     intcor
     19.74     -20.85       3.76        0.00      73.76       2.28       0.00       1.11       ----

> <Gold.Chemscore.Fitness>
19.7391

> <Gold.Chemscore.DG>
-20.8511

> <Gold.Chemscore.ZeroCoef>
-5.4800

> <Gold.Chemscore.Hbond>
3.7632

> <Gold.Chemscore.Metal>
0.0000

> <Gold.Chemscore.Lipo>
73.7615

> <Gold.Chemscore.Internal_Hbond>
0.0000

> <Gold.Chemscore.DEClash>
0.0044

> <Gold.Chemscore.DEInternal>
1.1076

> <Gold.Chemscore.Rot>
2.2766

> <Gold.Chemscore.Internal.Correction>
   9.000000E+99

> <Gold.Chemscore.Hbonds>
donor molecule, donor type, donor heavy atom, donor atom, acceptor molecule, acceptor atom, score
      L1  H     4    25       P1  8029  0.21
      L1  H     8    28       P1  8028  0.67
      P1  H  6933  6944       L1     3  0.32
      P1  H  6934  6946       L1     3  0.02
      P1  H 10752 10763       L1    19  0.78

> <Gold.Chemscore.Hbond.Weighted>
-12.5691

> <Gold.Chemscore.Metal.Weighted>
-0.0000

> <Gold.Chemscore.Lipo.Weighted>
-8.6301

> <Gold.Chemscore.Internal_Hbond.Weighted>
0.0000

> <Gold.Chemscore.DEClash.Weighted>
0.0044

> <Gold.Chemscore.DEInternal.Weighted>
1.1076

> <Gold.Chemscore.Rot.Weighted>
5.8281

> <Gold.Chemscore.Internal.Correction.Weighted>
   9.000000E+99

> <Gold.Protein.RotatedTorsions>
[ 6907 6896 6895 6894 ] final   82.22 input  -60.11 | X-H torsion
[ 7974 7965 7964 7962 ] final  -53.39 input  175.53 | X-H torsion
[ 8008 7997 7996 7995 ] final   21.04 input   59.86 | X-H torsion
[ 10167 10162 10161 10158 ] final   16.83 input  -65.29 | X-H torsion
[ 10718 10713 10712 10709 ] final  -84.72 input   66.30 | X-H torsion
[ 10763 10752 10751 10750 ] final   56.00 input  -60.55 | X-H torsion
[ 11005 11000 10999 10996 ] final   54.32 input  -57.11 | X-H torsion

> <Gold.Protein.ActiveResidues>
 VAL166  LYS551  ARG553  GLY616  TRP617  ASP618  TYR619  PRO620  LYS621  CYS622 
 ASP623  PHE694  ASN695  SER759  ASP760  ASP761  ALA762  ILE779  LEU786  VAL792 
 PHE793  MET794  SER795  GLU796  ALA797  LYS798  CYS799  TRP800  GLU811  SER814 

> <Gold.Protein.RotatedAtoms>
  152.5292  134.3084  159.9103 H   0  0  0  0  0  0  0  0  0  0  0  0  # atno 6907 bound_to 6896
  151.3033  133.4106  159.2649 H   0  0  0  0  0  0  0  0  0  0  0  0  # atno 6908 bound_to 6896
  151.0100  134.9406  159.8059 H   0  0  0  0  0  0  0  0  0  0  0  0  # atno 6909 bound_to 6896
  145.8973  140.8022  142.9761 H   0  0  0  0  0  0  0  0  0  0  0  0  # atno 7974 bound_to 7965
  154.9447  140.3058  155.5104 H   0  0  0  0  0  0  0  0  0  0  0  0  # atno 8008 bound_to 7997
  156.2993  140.2330  156.4457 H   0  0  0  0  0  0  0  0  0  0  0  0  # atno 8009 bound_to 7997
  154.8112  140.0428  157.1332 H   0  0  0  0  0  0  0  0  0  0  0  0  # atno 8010 bound_to 7997
  140.5769  143.9054  150.6758 H   0  0  0  0  0  0  0  0  0  0  0  0  # atno 10167 bound_to 10162
  156.0003  130.4707  150.4453 H   0  0  0  0  0  0  0  0  0  0  0  0  # atno 10718 bound_to 10713
  152.9825  135.5691  154.5158 H   0  0  0  0  0  0  0  0  0  0  0  0  # atno 10763 bound_to 10752
  154.4654  135.2783  155.1684 H   0  0  0  0  0  0  0  0  0  0  0  0  # atno 10764 bound_to 10752
  154.3254  135.6260  153.5580 H   0  0  0  0  0  0  0  0  0  0  0  0  # atno 10765 bound_to 10752
  140.0695  134.5489  155.9062 H   0  0  0  0  0  0  0  0  0  0  0  0  # atno 11005 bound_to 11000
  144.6733  140.1622  143.7421 LP  0  0  0  0  0  0  0  0  0  0  0  0  # atno 17320 bound_to 7965
  145.8834  139.2335  143.1592 LP  0  0  0  0  0  0  0  0  0  0  0  0  # atno 17321 bound_to 7965
  140.2544  143.3569  152.1377 LP  0  0  0  0  0  0  0  0  0  0  0  0  # atno 17342 bound_to 10162
  139.5148  144.6953  151.5647 LP  0  0  0  0  0  0  0  0  0  0  0  0  # atno 17343 bound_to 10162
  157.2491  131.0542  151.2390 LP  0  0  0  0  0  0  0  0  0  0  0  0  # atno 17370 bound_to 10713
  157.3546  130.7100  149.6462 LP  0  0  0  0  0  0  0  0  0  0  0  0  # atno 17371 bound_to 10713
  141.2006  133.6613  156.5907 LP  0  0  0  0  0  0  0  0  0  0  0  0  # atno 17394 bound_to 11000
  140.3648  134.7657  157.4558 LP  0  0  0  0  0  0  0  0  0  0  0  0  # atno 17395 bound_to 11000

$$$$
