AV-unprocessed.smi:3115|AV-procd|sdf|11860|dock7
  -GOLD-   2272017243D 1   1.00000     0.00000
 Structure written by MMmdl.
 32 33  0  0  0  0  0  0  0  0  1 V2000
  151.8641  145.4630  159.5167 C   0  0  0  0  0  0  0  0  0  0  0  0
  152.4787  144.0634  159.4111 C   0  0  2  0  0  0  0  0  0  0  0  0
  151.8074  143.2173  158.3112 C   0  0  0  0  0  0  0  0  0  0  0  0
  152.3566  141.8670  158.3119 N   0  0  0  0  0  0  0  0  0  0  0  0
  151.8818  141.0682  157.2620 C   0  0  0  0  0  0  0  0  0  0  0  0
  150.7610  141.5042  156.5238 C   0  0  0  0  0  0  0  0  0  0  0  0
  150.2894  140.6989  155.4672 C   0  0  0  0  0  0  0  0  0  0  0  0
  149.0851  141.1210  154.6518 C   0  0  0  0  0  0  0  0  0  0  0  0
  148.7153  140.1267  153.6653 N   0  0  0  0  0  0  0  0  0  0  0  0
  150.9522  139.4860  155.1934 C   0  0  0  0  0  0  0  0  0  0  0  0
  152.0624  139.1363  155.9863 C   0  0  0  0  0  0  0  0  0  0  0  0
  152.5223  139.9038  156.9973 N   0  0  0  0  0  0  0  0  0  0  0  0
  152.2569  141.2280  159.6179 C   0  0  0  0  0  0  0  0  0  0  0  0
  152.9167  142.1154  160.6867 C   0  0  0  0  0  0  0  0  0  0  0  0
  152.3186  143.4086  160.6680 O   0  0  0  0  0  0  0  0  0  0  0  0
  151.9713  146.0106  158.5800 H   0  0  0  0  0  0  0  0  0  0  0  0
  152.3514  146.0446  160.2995 H   0  0  0  0  0  0  0  0  0  0  0  0
  150.8011  145.4099  159.7539 H   0  0  0  0  0  0  0  0  0  0  0  0
  153.5440  144.1662  159.1959 H   0  0  0  0  0  0  0  0  0  0  0  0
  150.7300  143.1767  158.4778 H   0  0  0  0  0  0  0  0  0  0  0  0
  151.9660  143.6762  157.3343 H   0  0  0  0  0  0  0  0  0  0  0  0
  150.2722  142.4375  156.7638 H   0  0  0  0  0  0  0  0  0  0  0  0
  148.2351  141.3101  155.3079 H   0  0  0  0  0  0  0  0  0  0  0  0
  149.3083  142.0585  154.1419 H   0  0  0  0  0  0  0  0  0  0  0  0
  149.2069  140.3047  152.8013 H   0  0  0  0  0  0  0  0  0  0  0  0
  149.0063  139.2130  153.9828 H   0  0  0  0  0  0  0  0  0  0  0  0
  150.6199  138.8381  154.3956 H   0  0  0  0  0  0  0  0  0  0  0  0
  152.5952  138.2148  155.8043 H   0  0  0  0  0  0  0  0  0  0  0  0
  151.2082  141.0640  159.8703 H   0  0  0  0  0  0  0  0  0  0  0  0
  152.7400  140.2506  159.5903 H   0  0  0  0  0  0  0  0  0  0  0  0
  152.7826  141.6759  161.6752 H   0  0  0  0  0  0  0  0  0  0  0  0
  153.9913  142.1972  160.5163 H   0  0  0  0  0  0  0  0  0  0  0  0
  1  2  1  0  0  0  0
  1 16  1  0  0  0  0
  1 17  1  0  0  0  0
  1 18  1  0  0  0  0
  2 15  1  0  0  0  0
  2  3  1  0  0  0  0
  2 19  1  0  0  0  0
  3  4  1  0  0  0  0
  3 20  1  0  0  0  0
  3 21  1  0  0  0  0
  4  5  1  0  0  0  0
  4 13  1  0  0  0  0
  5 12  1  0  0  0  0
  5  6  2  0  0  0  0
  6  7  1  0  0  0  0
  6 22  1  0  0  0  0
  7  8  1  0  0  0  0
  7 10  2  0  0  0  0
  8  9  1  0  0  0  0
  8 23  1  0  0  0  0
  8 24  1  0  0  0  0
  9 25  1  0  0  0  0
  9 26  1  0  0  0  0
 10 11  1  0  0  0  0
 10 27  1  0  0  0  0
 11 12  2  0  0  0  0
 11 28  1  0  0  0  0
 13 14  1  0  0  0  0
 13 29  1  0  0  0  0
 13 30  1  0  0  0  0
 14 15  1  0  0  0  0
 14 31  1  0  0  0  0
 14 32  1  0  0  0  0
M  END
> <s_m_source_file>
AV-unprocessed.smi

> <i_m_source_file_index>
3115

> <i_lp_mmshare_version>
43012

> <i_f3d_flags>
0

> <s_epik_input>
W0NIM11bQ0BASF0xW0NIMl1OKFtDSDJdW0NIMl1PMSljMltjSF1jKFtDSDJdW05IMl0pW2NIXVtjSF1uMg==

> <s_epik_cmdline>
J2VwaWtfcHl0aG9uJywgJy1waCcsICc3LjAnLCAnLXRuJywgJzgnLCAnLW1hJywgJzIwMCcsICctbWV0YWxfYmluZGluZycsICctaW1hZScsICc8aW5maWxlLm1hZT4nLCAnLW9tYWUnLCAnPG91dGZpbGUubWFlPic=

> <r_lp_tautomer_probability>
1

> <r_epik_Ionization_Penalty>
1.27341

> <r_epik_Ionization_Penalty_Charging>
0

> <r_epik_Ionization_Penalty_Neutral>
1.27341

> <r_epik_State_Penalty>
2.46834

> <r_epik_Charging_Adjusted_Penalty>
2.46834

> <i_epik_Tot_Q>
0

> <i_epik_Tot_abs_Q>
0

> <r_epik_Metal_State_Penalty>
2.44319

> <b_epik_Metal_Only>
0

> <s_lp_Force_Field>
OPLS_2005

> <r_lp_Energy>
17.2418

> <b_lp_Chiralities_Consistent>
1

> <s_lp_Variant>
AV-unprocessed.smi:3115-3

> <Gold.Version>
5.8.1

> <Gold.Id.Protein>
6NUR|6NUR_protein|mol2

> <Gold.PLP.Fitness>
39.9200

> <Gold.PLP.PLP>
-36.4175

> <Gold.PLP.part.hbond>
-2.0000

> <Gold.PLP.part.metal>
0.0000

> <Gold.PLP.part.buried>
-3.1046

> <Gold.PLP.part.nonpolar>
-30.6818

> <Gold.PLP.part.repulsive>
0.0648

> <Gold.PLP.ligand.clash>
2.2325

> <Gold.PLP.ligand.torsion>
0.1825

> <Gold.PLP.Chemscore.Hbond>
2.0000

> <Gold.PLP.Chemscore.CHOScore>
0.0000

> <Gold.PLP.Chemscore.Metal>
0.0000

> <Gold.Chemscore.Hbonds>
donor molecule, donor type, donor heavy atom, donor atom, acceptor molecule, acceptor atom, score
      L1  H     9    25       P1  7957  1.00
      P1  H  7997  8010       L1    12  1.00

> <Gold.PLP.Chemscore.Internal.Correction>
0.1000

> <Gold.Rescore>
     Score         DG    S(hbond)    S(metal)    S(lipo)     H(rot)  DE(clash)    DE(int)     intcor
     18.09     -18.69       1.70        0.00      92.22       1.28       0.31       0.29       ----

> <Gold.Chemscore.Fitness>
18.0915

> <Gold.Chemscore.DG>
-18.6915

> <Gold.Chemscore.ZeroCoef>
-5.4800

> <Gold.Chemscore.Hbond>
1.7032

> <Gold.Chemscore.Metal>
0.0000

> <Gold.Chemscore.Lipo>
92.2226

> <Gold.Chemscore.Internal_Hbond>
0.0000

> <Gold.Chemscore.DEClash>
0.3106

> <Gold.Chemscore.DEInternal>
0.2893

> <Gold.Chemscore.Rot>
1.2762

> <Gold.Chemscore.Internal.Correction>
   9.000000E+99

> <Gold.Chemscore.Hbonds>
donor molecule, donor type, donor heavy atom, donor atom, acceptor molecule, acceptor atom, score
      L1  H     9    25       P1  7957  0.98
      P1  H  7997  8010       L1    12  0.30

> <Gold.Chemscore.Hbond.Weighted>
-5.6885

> <Gold.Chemscore.Metal.Weighted>
-0.0000

> <Gold.Chemscore.Lipo.Weighted>
-10.7900

> <Gold.Chemscore.Internal_Hbond.Weighted>
0.0000

> <Gold.Chemscore.DEClash.Weighted>
0.3106

> <Gold.Chemscore.DEInternal.Weighted>
0.2893

> <Gold.Chemscore.Rot.Weighted>
3.2671

> <Gold.Chemscore.Internal.Correction.Weighted>
   9.000000E+99

> <Gold.Protein.RotatedTorsions>
[ 6907 6896 6895 6894 ] final   86.13 input  -60.11 | X-H torsion
[ 7974 7965 7964 7962 ] final  -18.26 input  175.53 | X-H torsion
[ 8008 7997 7996 7995 ] final   67.20 input   59.86 | X-H torsion
[ 10167 10162 10161 10158 ] final  147.22 input  -65.29 | X-H torsion
[ 10718 10713 10712 10709 ] final  134.56 input   66.30 | X-H torsion
[ 10763 10752 10751 10750 ] final -132.49 input  -60.55 | X-H torsion
[ 11005 11000 10999 10996 ] final  106.88 input  -57.11 | X-H torsion

> <Gold.Protein.ActiveResidues>
 VAL166  LYS551  ARG553  GLY616  TRP617  ASP618  TYR619  PRO620  LYS621  CYS622 
 ASP623  PHE694  ASN695  SER759  ASP760  ASP761  ALA762  ILE779  LEU786  VAL792 
 PHE793  MET794  SER795  GLU796  ALA797  LYS798  CYS799  TRP800  GLU811  SER814 

> <Gold.Protein.RotatedAtoms>
  152.5388  134.2479  159.8887 H   0  0  0  0  0  0  0  0  0  0  0  0  # atno 6907 bound_to 6896
  151.2444  133.4376  159.2616 H   0  0  0  0  0  0  0  0  0  0  0  0  # atno 6908 bound_to 6896
  151.0597  134.9742  159.8310 H   0  0  0  0  0  0  0  0  0  0  0  0  # atno 6909 bound_to 6896
  146.1901  140.3896  142.8461 H   0  0  0  0  0  0  0  0  0  0  0  0  # atno 7974 bound_to 7965
  155.6891  140.3496  155.4886 H   0  0  0  0  0  0  0  0  0  0  0  0  # atno 8008 bound_to 7997
  155.9539  140.1124  157.0975 H   0  0  0  0  0  0  0  0  0  0  0  0  # atno 8009 bound_to 7997
  154.4128  140.1189  156.5076 H   0  0  0  0  0  0  0  0  0  0  0  0  # atno 8010 bound_to 7997
  139.4893  144.5771  151.6944 H   0  0  0  0  0  0  0  0  0  0  0  0  # atno 10167 bound_to 10162
  157.4660  131.1077  150.9862 H   0  0  0  0  0  0  0  0  0  0  0  0  # atno 10718 bound_to 10713
  154.8742  135.3796  154.4418 H   0  0  0  0  0  0  0  0  0  0  0  0  # atno 10763 bound_to 10752
  153.5102  135.7029  153.5790 H   0  0  0  0  0  0  0  0  0  0  0  0  # atno 10764 bound_to 10752
  153.4082  135.3931  155.1999 H   0  0  0  0  0  0  0  0  0  0  0  0  # atno 10765 bound_to 10752
  139.8820  134.9383  156.5735 H   0  0  0  0  0  0  0  0  0  0  0  0  # atno 11005 bound_to 11000
  144.8470  140.6944  143.6193 LP  0  0  0  0  0  0  0  0  0  0  0  0  # atno 17320 bound_to 7965
  145.3820  139.1635  143.4275 LP  0  0  0  0  0  0  0  0  0  0  0  0  # atno 17321 bound_to 7965
  140.5370  144.0640  150.6074 LP  0  0  0  0  0  0  0  0  0  0  0  0  # atno 17342 bound_to 10162
  140.3650  143.2887  152.0342 LP  0  0  0  0  0  0  0  0  0  0  0  0  # atno 17343 bound_to 10162
  157.0643  130.5838  149.5391 LP  0  0  0  0  0  0  0  0  0  0  0  0  # atno 17370 bound_to 10713
  156.0050  130.5136  150.7799 LP  0  0  0  0  0  0  0  0  0  0  0  0  # atno 17371 bound_to 10713
  140.8081  133.8451  155.8785 LP  0  0  0  0  0  0  0  0  0  0  0  0  # atno 17394 bound_to 11000
  140.9532  134.1752  157.4712 LP  0  0  0  0  0  0  0  0  0  0  0  0  # atno 17395 bound_to 11000

$$$$
