AV-unprocessed.smi:2346|AV-procd|sdf|9368|dock9
  -GOLD-   2272012593D 1   1.00000     0.00000
 Structure written by MMmdl.
 45 47  0  0  0  0  0  0  0  0  2 V2000
  147.2019  136.5892  162.4490 C   0  0  0  0  0  0  0  0  0  0  0  0
  147.6747  137.1132  161.2166 O   0  0  0  0  0  0  0  0  0  0  0  0
  147.9748  136.2294  160.2002 C   0  0  0  0  0  0  0  0  0  0  0  0
  147.6279  134.8547  160.2276 C   0  0  0  0  0  0  0  0  0  0  0  0
  147.9696  134.0083  159.1549 C   0  0  0  0  0  0  0  0  0  0  0  0
  147.6091  132.6008  159.1938 C   0  0  0  0  0  0  0  0  0  0  0  0
  147.3218  131.4806  159.2250 N   0  0  0  0  0  0  0  0  0  0  0  0
  148.6610  134.5288  158.0457 C   0  0  0  0  0  0  0  0  0  0  0  0
  149.0077  135.8913  158.0085 C   0  0  0  0  0  0  0  0  0  0  0  0
  148.6680  136.7511  159.0835 C   0  0  0  0  0  0  0  0  0  0  0  0
  148.9771  138.0954  159.1146 O   0  0  0  0  0  0  0  0  0  0  0  0
  149.2713  138.7523  157.8907 C   0  0  0  0  0  0  0  0  0  0  0  0
  150.6692  139.3721  157.9992 C   0  0  0  0  0  0  0  0  0  0  0  0
  150.6886  140.7662  157.5337 N   0  0  0  0  0  0  0  0  0  0  0  0
  150.1358  141.3424  156.4254 C   0  0  0  0  0  0  0  0  0  0  0  0
  149.3148  140.6756  155.3644 C   0  0  1  0  0  0  0  0  0  0  0  0
  148.8558  141.6925  154.3112 C   0  0  0  0  0  0  0  0  0  0  0  0
  150.0282  139.6452  154.7132 O   0  0  0  0  0  0  0  0  0  0  0  0
  150.4423  142.6706  156.4696 N   0  3  0  0  0  0  0  0  0  0  0  0
  151.1928  142.9480  157.6116 C   0  0  0  0  0  0  0  0  0  0  0  0
  151.7284  144.1433  158.0811 C   0  0  0  0  0  0  0  0  0  0  0  0
  152.4405  144.0828  159.2968 C   0  0  0  0  0  0  0  0  0  0  0  0
  152.5966  142.8685  159.9962 C   0  0  0  0  0  0  0  0  0  0  0  0
  152.0497  141.6627  159.5092 C   0  0  0  0  0  0  0  0  0  0  0  0
  151.3498  141.7303  158.3043 C   0  0  0  0  0  0  0  0  0  0  0  0
  147.0368  137.4090  163.1477 H   0  0  0  0  0  0  0  0  0  0  0  0
  147.9301  135.9144  162.9012 H   0  0  0  0  0  0  0  0  0  0  0  0
  146.2526  136.0669  162.3234 H   0  0  0  0  0  0  0  0  0  0  0  0
  147.0971  134.4297  161.0665 H   0  0  0  0  0  0  0  0  0  0  0  0
  148.9294  133.8880  157.2178 H   0  0  0  0  0  0  0  0  0  0  0  0
  149.5366  136.2524  157.1399 H   0  0  0  0  0  0  0  0  0  0  0  0
  149.2488  138.0379  157.0668 H   0  0  0  0  0  0  0  0  0  0  0  0
  148.5330  139.5305  157.6916 H   0  0  0  0  0  0  0  0  0  0  0  0
  151.0370  139.3317  159.0246 H   0  0  0  0  0  0  0  0  0  0  0  0
  151.3817  138.8042  157.4016 H   0  0  0  0  0  0  0  0  0  0  0  0
  148.4373  140.2192  155.8207 H   0  0  0  0  0  0  0  0  0  0  0  0
  148.2655  142.4889  154.7648 H   0  0  0  0  0  0  0  0  0  0  0  0
  148.2353  141.2175  153.5506 H   0  0  0  0  0  0  0  0  0  0  0  0
  149.7049  142.1552  153.8068 H   0  0  0  0  0  0  0  0  0  0  0  0
  150.4899  140.0182  153.9775 H   0  0  0  0  0  0  0  0  0  0  0  0
  151.6077  145.0749  157.5477 H   0  0  0  0  0  0  0  0  0  0  0  0
  152.8738  144.9859  159.7017 H   0  0  0  0  0  0  0  0  0  0  0  0
  153.1474  142.8614  160.9258 H   0  0  0  0  0  0  0  0  0  0  0  0
  152.1737  140.7395  160.0557 H   0  0  0  0  0  0  0  0  0  0  0  0
  150.1513  143.3361  155.7648 H   0  0  0  0  0  0  0  0  0  0  0  0
  1  2  1  0  0  0  0
  1 26  1  0  0  0  0
  1 27  1  0  0  0  0
  1 28  1  0  0  0  0
  2  3  1  0  0  0  0
  3 10  1  0  0  0  0
  3  4  2  0  0  0  0
  4  5  1  0  0  0  0
  4 29  1  0  0  0  0
  5  6  1  0  0  0  0
  5  8  2  0  0  0  0
  6  7  3  0  0  0  0
  8  9  1  0  0  0  0
  8 30  1  0  0  0  0
  9 10  2  0  0  0  0
  9 31  1  0  0  0  0
 10 11  1  0  0  0  0
 11 12  1  0  0  0  0
 12 13  1  0  0  0  0
 12 32  1  0  0  0  0
 12 33  1  0  0  0  0
 13 14  1  0  0  0  0
 13 34  1  0  0  0  0
 13 35  1  0  0  0  0
 14 25  1  0  0  0  0
 14 15  1  0  0  0  0
 15 16  1  0  0  0  0
 15 19  2  0  0  0  0
 16 17  1  0  0  0  0
 16 18  1  0  0  0  0
 16 36  1  0  0  0  0
 17 37  1  0  0  0  0
 17 38  1  0  0  0  0
 17 39  1  0  0  0  0
 18 40  1  0  0  0  0
 19 20  1  0  0  0  0
 19 45  1  0  0  0  0
 20 25  2  0  0  0  0
 20 21  1  0  0  0  0
 21 22  2  0  0  0  0
 21 41  1  0  0  0  0
 22 23  1  0  0  0  0
 22 42  1  0  0  0  0
 23 24  2  0  0  0  0
 23 43  1  0  0  0  0
 24 25  1  0  0  0  0
 24 44  1  0  0  0  0
M  CHG  1  19   1
M  END
> <s_m_source_file>
AV-unprocessed.smi

> <i_m_source_file_index>
2346

> <i_lp_mmshare_version>
43012

> <i_f3d_flags>
0

> <s_epik_input>
W0NIM11PYzFbY0hdYyhDI04pW2NIXVtjSF1jMU9bQ0gyXVtDSDJdbihjKG4yKVtDQEhdKFtDSDNdKVtPSF0pYyhjMjMpW2NIXVtjSF1bY0hdW2NIXTM=

> <s_epik_cmdline>
J2VwaWtfcHl0aG9uJywgJy1waCcsICc3LjAnLCAnLXRuJywgJzgnLCAnLW1hJywgJzIwMCcsICctbWV0YWxfYmluZGluZycsICctaW1hZScsICc8aW5maWxlLm1hZT4nLCAnLW9tYWUnLCAnPG91dGZpbGUubWFlPic=

> <r_epik_Ionization_Penalty>
1.58928

> <r_epik_Ionization_Penalty_Charging>
1.58925

> <r_epik_Ionization_Penalty_Neutral>
2.92192e-05

> <r_epik_State_Penalty>
1.68649

> <r_epik_Charging_Adjusted_Penalty>
3.27574

> <i_epik_Tot_Q>
1

> <i_epik_Tot_abs_Q>
1

> <r_epik_Metal_State_Penalty>
5.74385

> <b_epik_Metal_Only>
0

> <s_lp_Force_Field>
OPLS_2005

> <r_lp_Energy>
24.4742

> <b_lp_Chiralities_Consistent>
1

> <s_lp_Variant>
AV-unprocessed.smi:2346-4

> <Gold.Version>
5.8.1

> <Gold.Id.Protein>
6NUR|6NUR_protein|mol2

> <Gold.PLP.Fitness>
55.7369

> <Gold.PLP.PLP>
-48.2358

> <Gold.PLP.part.hbond>
-5.0000

> <Gold.PLP.part.metal>
0.0000

> <Gold.PLP.part.buried>
-4.1911

> <Gold.PLP.part.nonpolar>
-38.9566

> <Gold.PLP.part.repulsive>
0.0731

> <Gold.PLP.ligand.clash>
0.0000

> <Gold.PLP.ligand.torsion>
1.2881

> <Gold.PLP.Chemscore.Hbond>
3.3296

> <Gold.PLP.Chemscore.CHOScore>
0.0000

> <Gold.PLP.Chemscore.Metal>
0.0000

> <Gold.Chemscore.Hbonds>
donor molecule, donor type, donor heavy atom, donor atom, acceptor molecule, acceptor atom, score
      L1  H    19    45       P1  8028  1.47
      P1  H  6931  6943       L1     2  0.88
      P1  H  6934  6947       L1     2  0.86

> <Gold.PLP.Chemscore.Internal.Correction>
0.0885

> <Gold.Rescore>
     Score         DG    S(hbond)    S(metal)    S(lipo)     H(rot)  DE(clash)    DE(int)     intcor
     18.54     -19.88       2.34        0.00     114.29       2.65       0.08       1.26       ----

> <Gold.Chemscore.Fitness>
18.5362

> <Gold.Chemscore.DG>
-19.8755

> <Gold.Chemscore.ZeroCoef>
-5.4800

> <Gold.Chemscore.Hbond>
2.3352

> <Gold.Chemscore.Metal>
0.0000

> <Gold.Chemscore.Lipo>
114.2871

> <Gold.Chemscore.Internal_Hbond>
0.0000

> <Gold.Chemscore.DEClash>
0.0801

> <Gold.Chemscore.DEInternal>
1.2592

> <Gold.Chemscore.Rot>
2.6467

> <Gold.Chemscore.Internal.Correction>
   9.000000E+99

> <Gold.Chemscore.Hbonds>
donor molecule, donor type, donor heavy atom, donor atom, acceptor molecule, acceptor atom, score
      L1  H    19    45       P1  8028  0.72
      P1  H  6931  6943       L1     2  0.16
      P1  H  6934  6947       L1     2  0.72

> <Gold.Chemscore.Hbond.Weighted>
-7.7996

> <Gold.Chemscore.Metal.Weighted>
-0.0000

> <Gold.Chemscore.Lipo.Weighted>
-13.3716

> <Gold.Chemscore.Internal_Hbond.Weighted>
0.0000

> <Gold.Chemscore.DEClash.Weighted>
0.0801

> <Gold.Chemscore.DEInternal.Weighted>
1.2592

> <Gold.Chemscore.Rot.Weighted>
6.7756

> <Gold.Chemscore.Internal.Correction.Weighted>
   9.000000E+99

> <Gold.Protein.RotatedTorsions>
[ 6907 6896 6895 6894 ] final  160.99 input  -60.11 | X-H torsion
[ 7974 7965 7964 7962 ] final  -31.92 input  175.53 | X-H torsion
[ 8008 7997 7996 7995 ] final  166.94 input   59.86 | X-H torsion
[ 10167 10162 10161 10158 ] final  -53.09 input  -65.29 | X-H torsion
[ 10718 10713 10712 10709 ] final   60.62 input   66.30 | X-H torsion
[ 10763 10752 10751 10750 ] final -113.64 input  -60.55 | X-H torsion
[ 11005 11000 10999 10996 ] final -162.80 input  -57.11 | X-H torsion

> <Gold.Protein.ActiveResidues>
 VAL166  LYS551  ARG553  GLY616  TRP617  ASP618  TYR619  PRO620  LYS621  CYS622 
 ASP623  PHE694  ASN695  SER759  ASP760  ASP761  ALA762  ILE779  LEU786  VAL792 
 PHE793  MET794  SER795  GLU796  ALA797  LYS798  CYS799  TRP800  GLU811  SER814 

> <Gold.Protein.RotatedAtoms>
  151.9623  133.3699  159.4039 H   0  0  0  0  0  0  0  0  0  0  0  0  # atno 6907 bound_to 6896
  150.6962  134.4227  159.5221 H   0  0  0  0  0  0  0  0  0  0  0  0  # atno 6908 bound_to 6896
  152.1918  134.8665  160.0567 H   0  0  0  0  0  0  0  0  0  0  0  0  # atno 6909 bound_to 6896
  146.1030  140.5727  142.8812 H   0  0  0  0  0  0  0  0  0  0  0  0  # atno 7974 bound_to 7965
  156.1676  140.1630  156.8504 H   0  0  0  0  0  0  0  0  0  0  0  0  # atno 8008 bound_to 7997
  154.5223  140.0775  156.8230 H   0  0  0  0  0  0  0  0  0  0  0  0  # atno 8009 bound_to 7997
  155.3579  140.3393  155.4242 H   0  0  0  0  0  0  0  0  0  0  0  0  # atno 8010 bound_to 7997
  140.6503  143.2562  151.4742 H   0  0  0  0  0  0  0  0  0  0  0  0  # atno 10167 bound_to 10162
  157.5767  130.8949  149.9359 H   0  0  0  0  0  0  0  0  0  0  0  0  # atno 10718 bound_to 10713
  154.8405  135.4447  154.1380 H   0  0  0  0  0  0  0  0  0  0  0  0  # atno 10763 bound_to 10752
  153.2573  135.6932  153.7622 H   0  0  0  0  0  0  0  0  0  0  0  0  # atno 10764 bound_to 10752
  153.6911  135.3387  155.3178 H   0  0  0  0  0  0  0  0  0  0  0  0  # atno 10765 bound_to 10752
  140.6053  134.4905  157.5210 H   0  0  0  0  0  0  0  0  0  0  0  0  # atno 11005 bound_to 11000
  144.7448  140.5039  143.6843 LP  0  0  0  0  0  0  0  0  0  0  0  0  # atno 17320 bound_to 7965
  145.5816  139.1489  143.3232 LP  0  0  0  0  0  0  0  0  0  0  0  0  # atno 17321 bound_to 7965
  139.5718  144.1912  152.1846 LP  0  0  0  0  0  0  0  0  0  0  0  0  # atno 17342 bound_to 10162
  140.1210  144.5373  150.6863 LP  0  0  0  0  0  0  0  0  0  0  0  0  # atno 17343 bound_to 10162
  156.0812  130.3673  150.0578 LP  0  0  0  0  0  0  0  0  0  0  0  0  # atno 17370 bound_to 10713
  156.8723  130.9528  151.3608 LP  0  0  0  0  0  0  0  0  0  0  0  0  # atno 17371 bound_to 10713
  139.9215  134.8139  156.1197 LP  0  0  0  0  0  0  0  0  0  0  0  0  # atno 17394 bound_to 11000
  141.0845  133.6740  156.2406 LP  0  0  0  0  0  0  0  0  0  0  0  0  # atno 17395 bound_to 11000

$$$$
