AV-unprocessed.smi:2784|AV-procd|sdf|10731|dock7
  -GOLD-   2272015173D 1   1.00000     0.00000
 Structure written by MMmdl.
 32 33  0  0  0  0  0  0  0  0  2 V2000
  150.2262  146.1525  159.4603 C   0  0  0  0  0  0  0  0  0  0  0  0
  150.6190  145.1961  158.4889 O   0  0  0  0  0  0  0  0  0  0  0  0
  152.0192  144.9285  158.4739 C   0  0  1  0  0  0  0  0  0  0  0  0
  152.4968  144.6482  159.9035 C   0  0  0  0  0  0  0  0  0  0  0  0
  152.1448  143.1816  160.1342 C   0  0  0  0  0  0  0  0  0  0  0  0
  152.4020  142.5051  158.7860 C   0  0  0  0  0  0  0  0  0  0  0  0
  152.2964  143.6091  157.7153 C   0  0  1  0  0  0  0  0  0  0  0  0
  151.2663  143.2894  156.7287 N   0  0  0  0  0  0  0  0  0  0  0  0
  151.0263  142.0624  156.2445 C   0  0  0  0  0  0  0  0  0  0  0  0
  151.6408  141.0559  156.5991 O   0  0  0  0  0  0  0  0  0  0  0  0
  150.0466  142.0761  155.3284 N   0  0  0  0  0  0  0  0  0  0  0  0
  149.5431  140.9471  154.6424 C   0  0  0  0  0  0  0  0  0  0  0  0
  148.4003  140.9392  153.9577 N   0  3  0  0  0  0  0  0  0  0  0  0
  148.2149  139.6876  153.4248 C   0  0  0  0  0  0  0  0  0  0  0  0
  149.3011  138.9466  153.8247 C   0  0  0  0  0  0  0  0  0  0  0  0
  150.1456  139.7251  154.5907 O   0  0  0  0  0  0  0  0  0  0  0  0
  149.1480  146.3017  159.4072 H   0  0  0  0  0  0  0  0  0  0  0  0
  150.7053  147.1153  159.2788 H   0  0  0  0  0  0  0  0  0  0  0  0
  150.4685  145.8276  160.4718 H   0  0  0  0  0  0  0  0  0  0  0  0
  152.5627  145.7552  158.0125 H   0  0  0  0  0  0  0  0  0  0  0  0
  153.5793  144.7722  159.9555 H   0  0  0  0  0  0  0  0  0  0  0  0
  152.0574  145.3066  160.6528 H   0  0  0  0  0  0  0  0  0  0  0  0
  152.7216  142.7339  160.9440 H   0  0  0  0  0  0  0  0  0  0  0  0
  151.0885  143.0966  160.3930 H   0  0  0  0  0  0  0  0  0  0  0  0
  153.4072  142.0816  158.7729 H   0  0  0  0  0  0  0  0  0  0  0  0
  151.7072  141.6801  158.6219 H   0  0  0  0  0  0  0  0  0  0  0  0
  153.2639  143.6819  157.2142 H   0  0  0  0  0  0  0  0  0  0  0  0
  150.7208  144.0629  156.3776 H   0  0  0  0  0  0  0  0  0  0  0  0
  147.7498  141.7040  153.8276 H   0  0  0  0  0  0  0  0  0  0  0  0
  147.3457  139.4528  152.8271 H   0  0  0  0  0  0  0  0  0  0  0  0
  149.6067  137.9229  153.6639 H   0  0  0  0  0  0  0  0  0  0  0  0
  149.6235  142.9654  155.1081 H   0  0  0  0  0  0  0  0  0  0  0  0
  1  2  1  0  0  0  0
  1 17  1  0  0  0  0
  1 18  1  0  0  0  0
  1 19  1  0  0  0  0
  2  3  1  0  0  0  0
  3  7  1  0  0  0  0
  3  4  1  0  0  0  0
  3 20  1  0  0  0  0
  4  5  1  0  0  0  0
  4 21  1  0  0  0  0
  4 22  1  0  0  0  0
  5  6  1  0  0  0  0
  5 23  1  0  0  0  0
  5 24  1  0  0  0  0
  6  7  1  0  0  0  0
  6 25  1  0  0  0  0
  6 26  1  0  0  0  0
  7  8  1  0  0  0  0
  7 27  1  0  0  0  0
  8 28  1  0  0  0  0
  8  9  1  0  0  0  0
  9 11  1  0  0  0  0
  9 10  2  0  0  0  0
 11 12  1  0  0  0  0
 11 32  1  0  0  0  0
 12 16  1  0  0  0  0
 12 13  2  0  0  0  0
 13 29  1  0  0  0  0
 13 14  1  0  0  0  0
 14 30  1  0  0  0  0
 14 15  2  0  0  0  0
 15 31  1  0  0  0  0
 15 16  1  0  0  0  0
M  CHG  1  13   1
M  END
> <s_m_source_file>
AV-unprocessed.smi

> <i_m_source_file_index>
2784

> <i_lp_mmshare_version>
43012

> <i_f3d_flags>
0

> <s_epik_input>
W0NIM11PW0NAQEhdMVtDSDJdW0NIMl1bQ0gyXVtDQEhdMVtOSF1DKD1PKVtOSF1jMm5bY0hdW2NIXW8y

> <s_epik_cmdline>
J2VwaWtfcHl0aG9uJywgJy1waCcsICc3LjAnLCAnLXRuJywgJzgnLCAnLW1hJywgJzIwMCcsICctbWV0YWxfYmluZGluZycsICctaW1hZScsICc8aW5maWxlLm1hZT4nLCAnLW9tYWUnLCAnPG91dGZpbGUubWFlPic=

> <r_epik_Ionization_Penalty>
6.73843

> <r_epik_Ionization_Penalty_Charging>
6.66704

> <r_epik_Ionization_Penalty_Neutral>
0.0713889

> <r_epik_State_Penalty>
1.94951

> <r_epik_Charging_Adjusted_Penalty>
8.61656

> <i_epik_Tot_Q>
1

> <i_epik_Tot_abs_Q>
1

> <r_epik_Metal_State_Penalty>
1.97013

> <b_epik_Metal_Only>
0

> <s_lp_Force_Field>
OPLS_2005

> <r_lp_Energy>
28.3285

> <b_lp_Chiralities_Consistent>
1

> <s_lp_Variant>
AV-unprocessed.smi:2784-6

> <Gold.Version>
5.8.1

> <Gold.Id.Protein>
6NUR|6NUR_protein|mol2

> <Gold.PLP.Fitness>
38.5305

> <Gold.PLP.PLP>
-28.7641

> <Gold.PLP.part.hbond>
-3.0000

> <Gold.PLP.part.metal>
0.0000

> <Gold.PLP.part.buried>
1.7461

> <Gold.PLP.part.nonpolar>
-28.0276

> <Gold.PLP.part.repulsive>
0.5566

> <Gold.PLP.ligand.clash>
0.6660

> <Gold.PLP.ligand.torsion>
0.4501

> <Gold.PLP.Chemscore.Hbond>
2.7760

> <Gold.PLP.Chemscore.CHOScore>
0.9980

> <Gold.PLP.Chemscore.Metal>
0.0000

> <Gold.Chemscore.Hbonds>
donor molecule, donor type, donor heavy atom, donor atom, acceptor molecule, acceptor atom, score
      L1  H     8    28       P1  8028  0.92
      L1  H    11    32       P1  8028  1.00
      P1  H  7989  7998       L1    16  0.03
      L1  C    15    31       P1  7948  1.00

> <Gold.PLP.Chemscore.Internal.Correction>
0.0107

> <Gold.Rescore>
     Score         DG    S(hbond)    S(metal)    S(lipo)     H(rot)  DE(clash)    DE(int)     intcor
     13.72     -17.13       1.83        0.00      76.66       1.34       0.02       3.39       ----

> <Gold.Chemscore.Fitness>
13.7180

> <Gold.Chemscore.DG>
-17.1315

> <Gold.Chemscore.ZeroCoef>
-5.4800

> <Gold.Chemscore.Hbond>
1.8264

> <Gold.Chemscore.Metal>
0.0000

> <Gold.Chemscore.Lipo>
76.6588

> <Gold.Chemscore.Internal_Hbond>
0.0000

> <Gold.Chemscore.DEClash>
0.0240

> <Gold.Chemscore.DEInternal>
3.3895

> <Gold.Chemscore.Rot>
1.3351

> <Gold.Chemscore.Internal.Correction>
   9.000000E+99

> <Gold.Chemscore.Hbonds>
donor molecule, donor type, donor heavy atom, donor atom, acceptor molecule, acceptor atom, score
      L1  H     8    28       P1  8028  0.84
      L1  H    11    32       P1  8028  0.94

> <Gold.Chemscore.Hbond.Weighted>
-6.1001

> <Gold.Chemscore.Metal.Weighted>
-0.0000

> <Gold.Chemscore.Lipo.Weighted>
-8.9691

> <Gold.Chemscore.Internal_Hbond.Weighted>
0.0000

> <Gold.Chemscore.DEClash.Weighted>
0.0240

> <Gold.Chemscore.DEInternal.Weighted>
3.3895

> <Gold.Chemscore.Rot.Weighted>
3.4177

> <Gold.Chemscore.Internal.Correction.Weighted>
   9.000000E+99

> <Gold.Protein.RotatedTorsions>
[ 6907 6896 6895 6894 ] final  119.30 input  -60.11 | X-H torsion
[ 7974 7965 7964 7962 ] final -123.67 input  175.53 | X-H torsion
[ 8008 7997 7996 7995 ] final   14.85 input   59.86 | X-H torsion
[ 10167 10162 10161 10158 ] final   86.57 input  -65.29 | X-H torsion
[ 10718 10713 10712 10709 ] final   36.52 input   66.30 | X-H torsion
[ 10763 10752 10751 10750 ] final  106.69 input  -60.55 | X-H torsion
[ 11005 11000 10999 10996 ] final   99.06 input  -57.11 | X-H torsion

> <Gold.Protein.ActiveResidues>
 VAL166  LYS551  ARG553  GLY616  TRP617  ASP618  TYR619  PRO620  LYS621  CYS622 
 ASP623  PHE694  ASN695  SER759  ASP760  ASP761  ALA762  ILE779  LEU786  VAL792 
 PHE793  MET794  SER795  GLU796  ALA797  LYS798  CYS799  TRP800  GLU811  SER814 

> <Gold.Protein.RotatedAtoms>
  152.4481  133.7576  159.6728 H   0  0  0  0  0  0  0  0  0  0  0  0  # atno 6907 bound_to 6896
  150.8386  133.7962  159.3076 H   0  0  0  0  0  0  0  0  0  0  0  0  # atno 6908 bound_to 6896
  151.5594  135.1068  160.0021 H   0  0  0  0  0  0  0  0  0  0  0  0  # atno 6909 bound_to 6896
  145.0162  140.7949  143.4408 H   0  0  0  0  0  0  0  0  0  0  0  0  # atno 7974 bound_to 7965
  154.8543  140.2934  155.5579 H   0  0  0  0  0  0  0  0  0  0  0  0  # atno 8008 bound_to 7997
  156.3017  140.2490  156.3439 H   0  0  0  0  0  0  0  0  0  0  0  0  # atno 8009 bound_to 7997
  154.8987  140.0392  157.1870 H   0  0  0  0  0  0  0  0  0  0  0  0  # atno 8010 bound_to 7997
  139.8861  144.6412  150.8789 H   0  0  0  0  0  0  0  0  0  0  0  0  # atno 10167 bound_to 10162
  157.3359  130.7522  149.6878 H   0  0  0  0  0  0  0  0  0  0  0  0  # atno 10718 bound_to 10713
  153.3965  135.3868  155.1959 H   0  0  0  0  0  0  0  0  0  0  0  0  # atno 10763 bound_to 10752
  154.8725  135.3761  154.4672 H   0  0  0  0  0  0  0  0  0  0  0  0  # atno 10764 bound_to 10752
  153.5164  135.7087  153.5815 H   0  0  0  0  0  0  0  0  0  0  0  0  # atno 10765 bound_to 10752
  139.8771  134.9078  156.4549 H   0  0  0  0  0  0  0  0  0  0  0  0  # atno 11005 bound_to 11000
  145.1956  139.2278  143.5219 LP  0  0  0  0  0  0  0  0  0  0  0  0  # atno 17320 bound_to 7965
  146.3478  140.1762  142.8589 LP  0  0  0  0  0  0  0  0  0  0  0  0  # atno 17321 bound_to 7965
  140.7735  143.3546  151.1946 LP  0  0  0  0  0  0  0  0  0  0  0  0  # atno 17342 bound_to 10162
  139.7151  143.9313  152.2963 LP  0  0  0  0  0  0  0  0  0  0  0  0  # atno 17343 bound_to 10162
  155.9701  130.4182  150.4314 LP  0  0  0  0  0  0  0  0  0  0  0  0  # atno 17370 bound_to 10713
  157.2354  131.0513  151.2468 LP  0  0  0  0  0  0  0  0  0  0  0  0  # atno 17371 bound_to 10713
  140.8905  133.7851  155.9567 LP  0  0  0  0  0  0  0  0  0  0  0  0  # atno 17394 bound_to 11000
  140.8758  134.2671  157.5168 LP  0  0  0  0  0  0  0  0  0  0  0  0  # atno 17395 bound_to 11000

$$$$
