AV-unprocessed.smi:1554|AV-procd|sdf|6243|dock3
  -GOLD-   22720 6423D 1   1.00000     0.00000
 Structure written by MMmdl.
 47 49  0  0  0  0  0  0  0  0  1 V2000
  154.9150  140.7505  162.0327 C   0  0  0  0  0  0  0  0  0  0  0  0
  153.9010  141.7501  161.5046 C   0  0  0  0  0  0  0  0  0  0  0  0
  153.4480  141.6302  160.1714 C   0  0  0  0  0  0  0  0  0  0  0  0
  152.5044  142.5381  159.6426 C   0  0  0  0  0  0  0  0  0  0  0  0
  151.9281  142.6048  158.3856 N   0  0  0  0  0  0  0  0  0  0  0  0
  151.1361  143.6658  158.5102 C   0  0  0  0  0  0  0  0  0  0  0  0
  151.1324  144.2968  159.7000 N   0  0  0  0  0  0  0  0  0  0  0  0
  150.3581  145.4707  160.0629 C   0  0  0  0  0  0  0  0  0  0  0  0
  149.0370  145.1153  160.7717 C   0  0  1  0  0  0  0  0  0  0  0  0
  148.5140  146.2724  161.3943 O   0  0  0  0  0  0  0  0  0  0  0  0
  147.9884  144.5840  159.7740 C   0  0  0  0  0  0  0  0  0  0  0  0
  147.0242  143.6256  160.3181 N   0  0  0  0  0  0  0  0  0  0  0  0
  146.2445  142.9539  159.2804 C   0  0  0  0  0  0  0  0  0  0  0  0
  145.2162  141.9780  159.8772 C   0  0  0  0  0  0  0  0  0  0  0  0
  144.3681  142.6717  160.7860 O   0  0  0  0  0  0  0  0  0  0  0  0
  145.0844  143.2996  161.8453 C   0  0  2  0  0  0  0  0  0  0  0  0
  144.0754  144.0016  162.7603 C   0  0  0  0  0  0  0  0  0  0  0  0
  146.1079  144.2825  161.2444 C   0  0  0  0  0  0  0  0  0  0  0  0
  152.0262  143.5806  160.4891 C   0  0  0  0  0  0  0  0  0  0  0  0
  152.4688  143.7096  161.8174 C   0  0  0  0  0  0  0  0  0  0  0  0
  153.4074  142.7909  162.3317 C   0  0  0  0  0  0  0  0  0  0  0  0
  153.8725  142.9351  163.7700 C   0  0  0  0  0  0  0  0  0  0  0  0
  155.2584  140.0788  161.2455 H   0  0  0  0  0  0  0  0  0  0  0  0
  154.4742  140.1437  162.8238 H   0  0  0  0  0  0  0  0  0  0  0  0
  155.7881  141.2643  162.4351 H   0  0  0  0  0  0  0  0  0  0  0  0
  153.8218  140.8361  159.5420 H   0  0  0  0  0  0  0  0  0  0  0  0
  150.5234  144.0059  157.6882 H   0  0  0  0  0  0  0  0  0  0  0  0
  150.9728  146.1133  160.6948 H   0  0  0  0  0  0  0  0  0  0  0  0
  150.1540  146.0359  159.1527 H   0  0  0  0  0  0  0  0  0  0  0  0
  149.2500  144.3744  161.5414 H   0  0  0  0  0  0  0  0  0  0  0  0
  149.2346  146.7658  161.7564 H   0  0  0  0  0  0  0  0  0  0  0  0
  147.4507  145.4412  159.3656 H   0  0  0  0  0  0  0  0  0  0  0  0
  148.5011  144.1280  158.9256 H   0  0  0  0  0  0  0  0  0  0  0  0
  145.7262  143.6941  158.6690 H   0  0  0  0  0  0  0  0  0  0  0  0
  146.8977  142.3963  158.6110 H   0  0  0  0  0  0  0  0  0  0  0  0
  144.6077  141.5382  159.0868 H   0  0  0  0  0  0  0  0  0  0  0  0
  145.7170  141.1561  160.3910 H   0  0  0  0  0  0  0  0  0  0  0  0
  145.6069  142.5339  162.4215 H   0  0  0  0  0  0  0  0  0  0  0  0
  144.5769  144.4904  163.5959 H   0  0  0  0  0  0  0  0  0  0  0  0
  143.3613  143.2885  163.1725 H   0  0  0  0  0  0  0  0  0  0  0  0
  143.5122  144.7608  162.2170 H   0  0  0  0  0  0  0  0  0  0  0  0
  146.6739  144.7491  162.0517 H   0  0  0  0  0  0  0  0  0  0  0  0
  145.5791  145.0870  160.7304 H   0  0  0  0  0  0  0  0  0  0  0  0
  152.0834  144.5067  162.4360 H   0  0  0  0  0  0  0  0  0  0  0  0
  153.3511  143.7477  164.2767 H   0  0  0  0  0  0  0  0  0  0  0  0
  154.9410  143.1481  163.8058 H   0  0  0  0  0  0  0  0  0  0  0  0
  153.6824  142.0178  164.3276 H   0  0  0  0  0  0  0  0  0  0  0  0
  1  2  1  0  0  0  0
  1 23  1  0  0  0  0
  1 24  1  0  0  0  0
  1 25  1  0  0  0  0
  2 21  1  0  0  0  0
  2  3  2  0  0  0  0
  3  4  1  0  0  0  0
  3 26  1  0  0  0  0
  4 19  2  0  0  0  0
  4  5  1  0  0  0  0
  5  6  2  0  0  0  0
  6  7  1  0  0  0  0
  6 27  1  0  0  0  0
  7  8  1  0  0  0  0
  7 19  1  0  0  0  0
  8  9  1  0  0  0  0
  8 28  1  0  0  0  0
  8 29  1  0  0  0  0
  9 10  1  0  0  0  0
  9 11  1  0  0  0  0
  9 30  1  0  0  0  0
 10 31  1  0  0  0  0
 11 12  1  0  0  0  0
 11 32  1  0  0  0  0
 11 33  1  0  0  0  0
 12 18  1  0  0  0  0
 12 13  1  0  0  0  0
 13 14  1  0  0  0  0
 13 34  1  0  0  0  0
 13 35  1  0  0  0  0
 14 15  1  0  0  0  0
 14 36  1  0  0  0  0
 14 37  1  0  0  0  0
 15 16  1  0  0  0  0
 16 17  1  0  0  0  0
 16 18  1  0  0  0  0
 16 38  1  0  0  0  0
 17 39  1  0  0  0  0
 17 40  1  0  0  0  0
 17 41  1  0  0  0  0
 18 42  1  0  0  0  0
 18 43  1  0  0  0  0
 19 20  1  0  0  0  0
 20 21  2  0  0  0  0
 20 44  1  0  0  0  0
 21 22  1  0  0  0  0
 22 45  1  0  0  0  0
 22 46  1  0  0  0  0
 22 47  1  0  0  0  0
M  END
> <s_m_source_file>
AV-unprocessed.smi

> <i_m_source_file_index>
1554

> <i_lp_mmshare_version>
43012

> <i_f3d_flags>
0

> <s_epik_input>
W0NIM11jKFtjSF0xKWMoW0NIM10pW2NIXWMoYzEyKW4oW2NIXW4yKVtDSDJdW0NASF0oW09IXSlbQ0gyXU4zW0NIMl1bQ0gyXU9bQ0BASF0oW0NIM10pW0NIMl0z

> <s_epik_cmdline>
J2VwaWtfcHl0aG9uJywgJy1waCcsICc3LjAnLCAnLXRuJywgJzgnLCAnLW1hJywgJzIwMCcsICctbWV0YWxfYmluZGluZycsICctaW1hZScsICc8aW5maWxlLm1hZT4nLCAnLW9tYWUnLCAnPG91dGZpbGUubWFlPic=

> <r_epik_Ionization_Penalty>
0.345108

> <r_epik_Ionization_Penalty_Charging>
0

> <r_epik_Ionization_Penalty_Neutral>
0.345108

> <r_epik_State_Penalty>
0.314544

> <r_epik_Charging_Adjusted_Penalty>
0.314544

> <i_epik_Tot_Q>
0

> <i_epik_Tot_abs_Q>
0

> <r_epik_Metal_State_Penalty>
0.239719

> <b_epik_Metal_Only>
0

> <s_lp_Force_Field>
OPLS_2005

> <r_lp_Energy>
29.2504

> <b_lp_Chiralities_Consistent>
1

> <s_lp_Variant>
AV-unprocessed.smi:1554-4

> <Gold.Version>
5.8.1

> <Gold.Id.Protein>
6NUR|6NUR_protein|mol2

> <Gold.PLP.Fitness>
57.7576

> <Gold.PLP.PLP>
-55.8472

> <Gold.PLP.part.hbond>
-3.5628

> <Gold.PLP.part.metal>
0.0000

> <Gold.PLP.part.buried>
-3.2642

> <Gold.PLP.part.nonpolar>
-47.3273

> <Gold.PLP.part.repulsive>
0.0812

> <Gold.PLP.ligand.clash>
0.0000

> <Gold.PLP.ligand.torsion>
0.8844

> <Gold.PLP.Chemscore.Hbond>
0.4030

> <Gold.PLP.Chemscore.CHOScore>
0.8083

> <Gold.PLP.Chemscore.Metal>
0.0000

> <Gold.Chemscore.Hbonds>
donor molecule, donor type, donor heavy atom, donor atom, acceptor molecule, acceptor atom, score
      P1  H  6933  6944       L1    12  0.40
      L1  C     6    27       P1  8028  0.63

> <Gold.PLP.Chemscore.Internal.Correction>
0.0453

> <Gold.Rescore>
     Score         DG    S(hbond)    S(metal)    S(lipo)     H(rot)  DE(clash)    DE(int)     intcor
     14.03     -15.51       0.00        0.00     129.09       1.98       0.55       0.93       ----

> <Gold.Chemscore.Fitness>
14.0252

> <Gold.Chemscore.DG>
-15.5060

> <Gold.Chemscore.ZeroCoef>
-5.4800

> <Gold.Chemscore.Hbond>
0.0010

> <Gold.Chemscore.Metal>
0.0000

> <Gold.Chemscore.Lipo>
129.0913

> <Gold.Chemscore.Internal_Hbond>
0.0000

> <Gold.Chemscore.DEClash>
0.5474

> <Gold.Chemscore.DEInternal>
0.9334

> <Gold.Chemscore.Rot>
1.9848

> <Gold.Chemscore.Internal.Correction>
   9.000000E+99

> <Gold.Chemscore.Hbonds>
donor molecule, donor type, donor heavy atom, donor atom, acceptor molecule, acceptor atom, score
      P1  H  6933  6944       L1    12  0.05

> <Gold.Chemscore.Hbond.Weighted>
-0.0033

> <Gold.Chemscore.Metal.Weighted>
-0.0000

> <Gold.Chemscore.Lipo.Weighted>
-15.1037

> <Gold.Chemscore.Internal_Hbond.Weighted>
0.0000

> <Gold.Chemscore.DEClash.Weighted>
0.5474

> <Gold.Chemscore.DEInternal.Weighted>
0.9334

> <Gold.Chemscore.Rot.Weighted>
5.0810

> <Gold.Chemscore.Internal.Correction.Weighted>
   9.000000E+99

> <Gold.Protein.RotatedTorsions>
[ 6907 6896 6895 6894 ] final  125.42 input  -60.11 | X-H torsion
[ 7974 7965 7964 7962 ] final -137.83 input  175.53 | X-H torsion
[ 8008 7997 7996 7995 ] final  -63.43 input   59.86 | X-H torsion
[ 10167 10162 10161 10158 ] final  122.23 input  -65.29 | X-H torsion
[ 10718 10713 10712 10709 ] final -148.10 input   66.30 | X-H torsion
[ 10763 10752 10751 10750 ] final   60.27 input  -60.55 | X-H torsion
[ 11005 11000 10999 10996 ] final -106.93 input  -57.11 | X-H torsion

> <Gold.Protein.ActiveResidues>
 VAL166  LYS551  ARG553  GLY616  TRP617  ASP618  TYR619  PRO620  LYS621  CYS622 
 ASP623  PHE694  ASN695  SER759  ASP760  ASP761  ALA762  ILE779  LEU786  VAL792 
 PHE793  MET794  SER795  GLU796  ALA797  LYS798  CYS799  TRP800  GLU811  SER814 

> <Gold.Protein.RotatedAtoms>
  152.3993  133.6794  159.6302 H   0  0  0  0  0  0  0  0  0  0  0  0  # atno 6907 bound_to 6896
  150.7887  133.8819  159.3297 H   0  0  0  0  0  0  0  0  0  0  0  0  # atno 6908 bound_to 6896
  151.6588  135.0993  160.0227 H   0  0  0  0  0  0  0  0  0  0  0  0  # atno 6909 bound_to 6896
  144.8809  140.6506  143.5206 H   0  0  0  0  0  0  0  0  0  0  0  0  # atno 7974 bound_to 7965
  154.4554  140.0975  156.6741 H   0  0  0  0  0  0  0  0  0  0  0  0  # atno 8008 bound_to 7997
  155.5155  140.3477  155.4378 H   0  0  0  0  0  0  0  0  0  0  0  0  # atno 8009 bound_to 7997
  156.0766  140.1362  156.9752 H   0  0  0  0  0  0  0  0  0  0  0  0  # atno 8010 bound_to 7997
  139.5871  144.7011  151.3382 H   0  0  0  0  0  0  0  0  0  0  0  0  # atno 10167 bound_to 10162
  156.4160  130.8005  151.2225 H   0  0  0  0  0  0  0  0  0  0  0  0  # atno 10718 bound_to 10713
  152.9916  135.5542  154.5846 H   0  0  0  0  0  0  0  0  0  0  0  0  # atno 10763 bound_to 10752
  154.5220  135.2808  155.1256 H   0  0  0  0  0  0  0  0  0  0  0  0  # atno 10764 bound_to 10752
  154.2605  135.6382  153.5326 H   0  0  0  0  0  0  0  0  0  0  0  0  # atno 10765 bound_to 10752
  141.0979  133.8937  157.1916 H   0  0  0  0  0  0  0  0  0  0  0  0  # atno 11005 bound_to 11000
  145.3956  139.1608  143.4205 LP  0  0  0  0  0  0  0  0  0  0  0  0  # atno 17320 bound_to 7965
  146.2994  140.4049  142.8710 LP  0  0  0  0  0  0  0  0  0  0  0  0  # atno 17321 bound_to 7965
  140.7141  143.7313  150.7621 LP  0  0  0  0  0  0  0  0  0  0  0  0  # atno 17342 bound_to 10162
  140.0860  143.4923  152.2504 LP  0  0  0  0  0  0  0  0  0  0  0  0  # atno 17343 bound_to 10162
  157.7508  131.0243  150.3870 LP  0  0  0  0  0  0  0  0  0  0  0  0  # atno 17370 bound_to 10713
  156.4178  130.3947  149.6846 LP  0  0  0  0  0  0  0  0  0  0  0  0  # atno 17371 bound_to 10713
  139.9822  135.0094  156.9776 LP  0  0  0  0  0  0  0  0  0  0  0  0  # atno 17394 bound_to 11000
  140.5094  134.1018  155.7267 LP  0  0  0  0  0  0  0  0  0  0  0  0  # atno 17395 bound_to 11000

$$$$
