AV-unprocessed.smi:286|AV-procd|sdf|2173|dock8
  -GOLD-   2262021533D 1   1.00000     0.00000
 Structure written by MMmdl.
 46 48  0  0  0  0  0  0  0  0  1 V2000
  152.4553  137.6868  156.8902 O   0  0  0  0  0  0  0  0  0  0  0  0
  152.1539  138.7980  157.3295 C   0  0  0  0  0  0  0  0  0  0  0  0
  152.2325  139.1477  158.7436 C   0  0  0  0  0  0  0  0  0  0  0  0
  152.6622  138.2340  159.6304 F   0  0  0  0  0  0  0  0  0  0  0  0
  151.8780  140.3756  159.1813 C   0  0  0  0  0  0  0  0  0  0  0  0
  151.4227  141.3761  158.3376 N   0  0  0  0  0  0  0  0  0  0  0  0
  151.0181  142.7418  158.8522 C   0  0  2  0  0  0  0  0  0  0  0  0
  151.8061  143.8497  158.1277 C   0  0  0  0  0  0  0  0  0  0  0  0
  152.3647  144.6695  159.2741 C   0  0  0  0  0  0  0  0  0  0  0  0
  152.5016  143.6250  160.3716 C   0  0  0  0  0  0  0  0  0  0  0  0
  151.3222  142.8471  160.2141 O   0  0  0  0  0  0  0  0  0  0  0  0
  151.3051  141.1223  156.9537 C   0  0  0  0  0  0  0  0  0  0  0  0
  150.8760  141.9890  156.1877 O   0  0  0  0  0  0  0  0  0  0  0  0
  151.6901  139.8417  156.4916 N   0  0  0  0  0  0  0  0  0  0  0  0
  151.5538  139.5675  155.0704 C   0  0  0  0  0  0  0  0  0  0  0  0
  150.2745  138.7722  154.7204 C   0  0  2  0  0  0  0  0  0  0  0  0
  150.3883  138.2732  153.4014 O   0  0  0  0  0  0  0  0  0  0  0  0
  148.9886  139.6272  154.8355 C   0  0  0  0  0  0  0  0  0  0  0  0
  147.7669  138.9232  154.2053 C   0  0  0  0  0  0  0  0  0  0  0  0
  146.4804  139.7443  154.3884 C   0  0  0  0  0  0  0  0  0  0  0  0
  146.6408  141.1633  153.8224 C   0  0  0  0  0  0  0  0  0  0  0  0
  147.8469  141.8757  154.4529 C   0  0  0  0  0  0  0  0  0  0  0  0
  149.1371  141.0598  154.2702 C   0  0  0  0  0  0  0  0  0  0  0  0
  151.9578  140.5621  160.2411 H   0  0  0  0  0  0  0  0  0  0  0  0
  149.9366  142.8004  158.7175 H   0  0  0  0  0  0  0  0  0  0  0  0
  152.6165  143.4155  157.5402 H   0  0  0  0  0  0  0  0  0  0  0  0
  151.1563  144.4228  157.4659 H   0  0  0  0  0  0  0  0  0  0  0  0
  153.3080  145.1589  159.0306 H   0  0  0  0  0  0  0  0  0  0  0  0
  151.6475  145.4347  159.5735 H   0  0  0  0  0  0  0  0  0  0  0  0
  153.3863  143.0075  160.2106 H   0  0  0  0  0  0  0  0  0  0  0  0
  152.5630  144.0636  161.3677 H   0  0  0  0  0  0  0  0  0  0  0  0
  151.5630  140.5386  154.5722 H   0  0  0  0  0  0  0  0  0  0  0  0
  152.4627  139.0791  154.7152 H   0  0  0  0  0  0  0  0  0  0  0  0
  150.1768  137.9209  155.3951 H   0  0  0  0  0  0  0  0  0  0  0  0
  150.2472  138.9860  152.7973 H   0  0  0  0  0  0  0  0  0  0  0  0
  148.7748  139.7232  155.9012 H   0  0  0  0  0  0  0  0  0  0  0  0
  147.9379  138.7592  153.1409 H   0  0  0  0  0  0  0  0  0  0  0  0
  147.6334  137.9369  154.6508 H   0  0  0  0  0  0  0  0  0  0  0  0
  145.6467  139.2414  153.8981 H   0  0  0  0  0  0  0  0  0  0  0  0
  146.2285  139.7983  155.4481 H   0  0  0  0  0  0  0  0  0  0  0  0
  146.7694  141.1134  152.7403 H   0  0  0  0  0  0  0  0  0  0  0  0
  145.7327  141.7401  154.0001 H   0  0  0  0  0  0  0  0  0  0  0  0
  147.9670  142.8649  154.0103 H   0  0  0  0  0  0  0  0  0  0  0  0
  147.6621  142.0342  155.5159 H   0  0  0  0  0  0  0  0  0  0  0  0
  149.9583  141.5804  154.7626 H   0  0  0  0  0  0  0  0  0  0  0  0
  149.3879  141.0214  153.2096 H   0  0  0  0  0  0  0  0  0  0  0  0
  1  2  2  0  0  0  0
  2 14  1  0  0  0  0
  2  3  1  0  0  0  0
  3  4  1  0  0  0  0
  3  5  2  0  0  0  0
  5  6  1  0  0  0  0
  5 24  1  0  0  0  0
  6  7  1  0  0  0  0
  6 12  1  0  0  0  0
  7 11  1  0  0  0  0
  7  8  1  0  0  0  0
  7 25  1  0  0  0  0
  8  9  1  0  0  0  0
  8 26  1  0  0  0  0
  8 27  1  0  0  0  0
  9 10  1  0  0  0  0
  9 28  1  0  0  0  0
  9 29  1  0  0  0  0
 10 11  1  0  0  0  0
 10 30  1  0  0  0  0
 10 31  1  0  0  0  0
 12 13  2  0  0  0  0
 12 14  1  0  0  0  0
 14 15  1  0  0  0  0
 15 16  1  0  0  0  0
 15 32  1  0  0  0  0
 15 33  1  0  0  0  0
 16 17  1  0  0  0  0
 16 18  1  0  0  0  0
 16 34  1  0  0  0  0
 17 35  1  0  0  0  0
 18 23  1  0  0  0  0
 18 19  1  0  0  0  0
 18 36  1  0  0  0  0
 19 20  1  0  0  0  0
 19 37  1  0  0  0  0
 19 38  1  0  0  0  0
 20 21  1  0  0  0  0
 20 39  1  0  0  0  0
 20 40  1  0  0  0  0
 21 22  1  0  0  0  0
 21 41  1  0  0  0  0
 21 42  1  0  0  0  0
 22 23  1  0  0  0  0
 22 43  1  0  0  0  0
 22 44  1  0  0  0  0
 23 45  1  0  0  0  0
 23 46  1  0  0  0  0
M  END
> <s_m_source_file>
AV-unprocessed.smi

> <i_m_source_file_index>
286

> <i_lp_mmshare_version>
43012

> <i_f3d_flags>
0

> <s_epik_input>
TzFbQ0gyXVtDSDJdW0NIMl1bQ0BIXTFuKFtjSF1jKEYpYzI9TyljKD1PKW4yW0NIMl1bQ0BIXShbT0hdKVtDSF0zW0NIMl1bQ0gyXVtDSDJdW0NIMl1bQ0gyXTM=

> <s_epik_cmdline>
J2VwaWtfcHl0aG9uJywgJy1waCcsICc3LjAnLCAnLXRuJywgJzgnLCAnLW1hJywgJzIwMCcsICctbWV0YWxfYmluZGluZycsICctaW1hZScsICc8aW5maWxlLm1hZT4nLCAnLW9tYWUnLCAnPG91dGZpbGUubWFlPic=

> <r_lp_tautomer_probability>
1

> <r_epik_Ionization_Penalty>
3.15564e-07

> <r_epik_Ionization_Penalty_Charging>
2.06416e-08

> <r_epik_Ionization_Penalty_Neutral>
2.94923e-07

> <r_epik_State_Penalty>
-0

> <r_epik_Charging_Adjusted_Penalty>
2.06416e-08

> <i_epik_Tot_Q>
0

> <i_epik_Tot_abs_Q>
0

> <r_epik_Metal_State_Penalty>
-0

> <b_epik_Metal_Only>
0

> <s_epik_Chemistry_Notes>
This compound contains an acetal/aminal-like group ( X-CH(R)-Y where X, Y are N, S, or O) that may be acid/base labile, releasing an aldehyde.

> <s_lp_Force_Field>
OPLS_2005

> <r_lp_Energy>
41.5856

> <b_lp_Chiralities_Consistent>
1

> <s_lp_Variant>
AV-unprocessed.smi:286-1

> <Gold.Version>
5.8.1

> <Gold.Id.Protein>
6NUR|6NUR_protein|mol2

> <Gold.PLP.Fitness>
46.9896

> <Gold.PLP.PLP>
-45.2946

> <Gold.PLP.part.hbond>
-3.9043

> <Gold.PLP.part.metal>
0.0000

> <Gold.PLP.part.buried>
0.0753

> <Gold.PLP.part.nonpolar>
-41.3935

> <Gold.PLP.part.repulsive>
0.1201

> <Gold.PLP.ligand.clash>
0.0000

> <Gold.PLP.ligand.torsion>
0.6704

> <Gold.PLP.Chemscore.Hbond>
1.0000

> <Gold.PLP.Chemscore.CHOScore>
0.0000

> <Gold.PLP.Chemscore.Metal>
0.0000

> <Gold.Chemscore.Hbonds>
donor molecule, donor type, donor heavy atom, donor atom, acceptor molecule, acceptor atom, score
      L1  H    17    35       P1  7957  1.00

> <Gold.PLP.Chemscore.Internal.Correction>
0.0359

> <Gold.Rescore>
     Score         DG    S(hbond)    S(metal)    S(lipo)     H(rot)  DE(clash)    DE(int)     intcor
     10.20     -13.94       0.93        0.00      95.41       2.28       0.87       2.87       ----

> <Gold.Chemscore.Fitness>
10.1971

> <Gold.Chemscore.DG>
-13.9396

> <Gold.Chemscore.ZeroCoef>
-5.4800

> <Gold.Chemscore.Hbond>
0.9346

> <Gold.Chemscore.Metal>
0.0000

> <Gold.Chemscore.Lipo>
95.4149

> <Gold.Chemscore.Internal_Hbond>
0.0000

> <Gold.Chemscore.DEClash>
0.8732

> <Gold.Chemscore.DEInternal>
2.8693

> <Gold.Chemscore.Rot>
2.2756

> <Gold.Chemscore.Internal.Correction>
   9.000000E+99

> <Gold.Chemscore.Hbonds>
donor molecule, donor type, donor heavy atom, donor atom, acceptor molecule, acceptor atom, score
      L1  H    17    35       P1  7957  0.56

> <Gold.Chemscore.Hbond.Weighted>
-3.1215

> <Gold.Chemscore.Metal.Weighted>
-0.0000

> <Gold.Chemscore.Lipo.Weighted>
-11.1635

> <Gold.Chemscore.Internal_Hbond.Weighted>
0.0000

> <Gold.Chemscore.DEClash.Weighted>
0.8732

> <Gold.Chemscore.DEInternal.Weighted>
2.8693

> <Gold.Chemscore.Rot.Weighted>
5.8254

> <Gold.Chemscore.Internal.Correction.Weighted>
   9.000000E+99

> <Gold.Protein.RotatedTorsions>
[ 6907 6896 6895 6894 ] final  145.47 input  -60.11 | X-H torsion
[ 7974 7965 7964 7962 ] final  129.66 input  175.53 | X-H torsion
[ 8008 7997 7996 7995 ] final -138.96 input   59.86 | X-H torsion
[ 10167 10162 10161 10158 ] final -146.45 input  -65.29 | X-H torsion
[ 10718 10713 10712 10709 ] final  -87.62 input   66.30 | X-H torsion
[ 10763 10752 10751 10750 ] final  101.03 input  -60.55 | X-H torsion
[ 11005 11000 10999 10996 ] final -100.85 input  -57.11 | X-H torsion

> <Gold.Protein.ActiveResidues>
 VAL166  LYS551  ARG553  GLY616  TRP617  ASP618  TYR619  PRO620  LYS621  CYS622 
 ASP623  PHE694  ASN695  SER759  ASP760  ASP761  ALA762  ILE779  LEU786  VAL792 
 PHE793  MET794  SER795  GLU796  ALA797  LYS798  CYS799  TRP800  GLU811  SER814 

> <Gold.Protein.RotatedAtoms>
  152.1805  133.4704  159.4955 H   0  0  0  0  0  0  0  0  0  0  0  0  # atno 6907 bound_to 6896
  150.6933  134.1840  159.4268 H   0  0  0  0  0  0  0  0  0  0  0  0  # atno 6908 bound_to 6896
  151.9751  135.0057  160.0605 H   0  0  0  0  0  0  0  0  0  0  0  0  # atno 6909 bound_to 6896
  145.0263  139.4086  143.5172 H   0  0  0  0  0  0  0  0  0  0  0  0  # atno 7974 bound_to 7965
  155.4369  140.0529  157.3014 H   0  0  0  0  0  0  0  0  0  0  0  0  # atno 8008 bound_to 7997
  154.4835  140.2091  155.9666 H   0  0  0  0  0  0  0  0  0  0  0  0  # atno 8009 bound_to 7997
  156.1240  140.3183  155.8255 H   0  0  0  0  0  0  0  0  0  0  0  0  # atno 8010 bound_to 7997
  139.7712  143.8235  152.2625 H   0  0  0  0  0  0  0  0  0  0  0  0  # atno 10167 bound_to 10162
  155.9985  130.4806  150.4894 H   0  0  0  0  0  0  0  0  0  0  0  0  # atno 10718 bound_to 10713
  153.3215  135.4058  155.1420 H   0  0  0  0  0  0  0  0  0  0  0  0  # atno 10763 bound_to 10752
  154.8601  135.3588  154.5590 H   0  0  0  0  0  0  0  0  0  0  0  0  # atno 10764 bound_to 10752
  153.6024  135.7070  153.5438 H   0  0  0  0  0  0  0  0  0  0  0  0  # atno 10765 bound_to 10752
  141.1254  133.8432  157.1156 H   0  0  0  0  0  0  0  0  0  0  0  0  # atno 11005 bound_to 11000
  146.3492  139.9789  142.8698 LP  0  0  0  0  0  0  0  0  0  0  0  0  # atno 17320 bound_to 7965
  145.1829  140.9775  143.4256 LP  0  0  0  0  0  0  0  0  0  0  0  0  # atno 17321 bound_to 7965
  139.8270  144.7271  150.9500 LP  0  0  0  0  0  0  0  0  0  0  0  0  # atno 17342 bound_to 10162
  140.7814  143.4106  151.1000 LP  0  0  0  0  0  0  0  0  0  0  0  0  # atno 17343 bound_to 10162
  157.2891  131.0622  151.2146 LP  0  0  0  0  0  0  0  0  0  0  0  0  # atno 17370 bound_to 10713
  157.3165  130.6916  149.6245 LP  0  0  0  0  0  0  0  0  0  0  0  0  # atno 17371 bound_to 10713
  140.0248  134.9929  157.0664 LP  0  0  0  0  0  0  0  0  0  0  0  0  # atno 17394 bound_to 11000
  140.4381  134.1710  155.7172 LP  0  0  0  0  0  0  0  0  0  0  0  0  # atno 17395 bound_to 11000

$$$$
