AV-unprocessed.smi:72|AV-procd|sdf|718|dock10
  -GOLD-   2262017 43D 1   1.00000     0.00000
 Structure written by MMmdl.
 28 29  0  0  0  0  0  0  0  0  2 V2000
  153.7965  137.6110  156.3921 N   0  0  0  0  0  0  0  0  0  0  0  0
  152.7618  138.1445  155.9081 C   0  0  0  0  0  0  0  0  0  0  0  0
  151.9018  137.3900  155.0223 N   0  0  0  0  0  0  0  0  0  0  0  0
  150.8566  137.9888  154.5394 C   0  0  0  0  0  0  0  0  0  0  0  0
  150.5527  139.3775  154.8576 N   0  0  0  0  0  0  0  0  0  0  0  0
  149.3250  140.0642  154.2933 C   0  0  1  0  0  0  0  0  0  0  0  0
  148.7317  139.2391  153.3412 O   0  0  0  0  0  0  0  0  0  0  0  0
  147.3504  139.5555  153.2791 C   0  0  1  0  0  0  0  0  0  0  0  0
  146.5760  138.4051  152.6177 C   0  0  0  0  0  0  0  0  0  0  0  0
  147.0895  138.1505  151.3276 O   0  0  0  0  0  0  0  0  0  0  0  0
  146.9885  139.7682  154.7543 C   0  0  2  0  0  0  0  0  0  0  0  0
  145.8940  140.6567  154.8633 O   0  0  0  0  0  0  0  0  0  0  0  0
  148.2497  140.3864  155.3557 C   0  0  1  0  0  0  0  0  0  0  0  0
  148.5088  139.8370  156.6355 O   0  0  0  0  0  0  0  0  0  0  0  0
  151.3974  140.0847  155.7528 C   0  0  0  0  0  0  0  0  0  0  0  0
  151.0950  141.2418  156.0449 O   0  0  0  0  0  0  0  0  0  0  0  0
  152.4923  139.4496  156.2571 N   0  5  0  0  0  0  0  0  0  0  0  0
  149.6800  140.9543  153.7708 H   0  0  0  0  0  0  0  0  0  0  0  0
  147.2244  140.4888  152.7251 H   0  0  0  0  0  0  0  0  0  0  0  0
  146.7563  138.8125  155.2278 H   0  0  0  0  0  0  0  0  0  0  0  0
  148.1784  141.4722  155.4369 H   0  0  0  0  0  0  0  0  0  0  0  0
  154.3070  138.2404  156.9945 H   0  0  0  0  0  0  0  0  0  0  0  0
  150.1440  137.4948  153.8778 H   0  0  0  0  0  0  0  0  0  0  0  0
  146.6104  137.5018  153.2279 H   0  0  0  0  0  0  0  0  0  0  0  0
  145.5266  138.6777  152.5018 H   0  0  0  0  0  0  0  0  0  0  0  0
  147.7238  137.4527  151.3889 H   0  0  0  0  0  0  0  0  0  0  0  0
  145.6810  140.7572  155.7784 H   0  0  0  0  0  0  0  0  0  0  0  0
  148.8130  138.9489  156.5220 H   0  0  0  0  0  0  0  0  0  0  0  0
  1  2  2  0  0  0  0
  1 22  1  0  0  0  0
  2 17  1  0  0  0  0
  2  3  1  0  0  0  0
  3  4  2  0  0  0  0
  4  5  1  0  0  0  0
  4 23  1  0  0  0  0
  5  6  1  0  0  0  0
  5 15  1  0  0  0  0
  6 18  1  0  0  0  0
  6 13  1  0  0  0  0
  6  7  1  0  0  0  0
  7  8  1  0  0  0  0
  8 19  1  0  0  0  0
  8  9  1  0  0  0  0
  8 11  1  0  0  0  0
  9 10  1  0  0  0  0
  9 24  1  0  0  0  0
  9 25  1  0  0  0  0
 10 26  1  0  0  0  0
 11 20  1  0  0  0  0
 11 12  1  0  0  0  0
 11 13  1  0  0  0  0
 12 27  1  0  0  0  0
 13 21  1  0  0  0  0
 13 14  1  0  0  0  0
 14 28  1  0  0  0  0
 15 16  2  0  0  0  0
 15 17  1  0  0  0  0
M  CHG  1  17  -1
M  END
> <s_m_source_file>
AV-unprocessed.smi

> <i_m_source_file_index>
72

> <i_lp_mmshare_version>
43012

> <i_f3d_flags>
0

> <s_epik_input>
W05IMl1jMW5bY0hdbihjKD1PKW4xKVtDQEBIXTJPW0NASF0oW0NIMl1bT0hdKVtDQEBIXShbT0hdKVtDQEhdMltPSF0=

> <s_epik_cmdline>
J2VwaWtfcHl0aG9uJywgJy1waCcsICc3LjAnLCAnLXRuJywgJzgnLCAnLW1hJywgJzIwMCcsICctbWV0YWxfYmluZGluZycsICctaW1hZScsICc8aW5maWxlLm1hZT4nLCAnLW9tYWUnLCAnPG91dGZpbGUubWFlPic=

> <r_lp_tautomer_probability>
7.17554e-07

> <r_epik_Ionization_Penalty>
12.8705

> <r_epik_Ionization_Penalty_Charging>
5.64144

> <r_epik_Ionization_Penalty_Neutral>
7.22905

> <r_epik_State_Penalty>
3.30104

> <r_epik_Charging_Adjusted_Penalty>
8.94249

> <i_epik_Tot_Q>
-1

> <i_epik_Tot_abs_Q>
1

> <r_epik_Metal_State_Penalty>
0.529074

> <b_epik_Metal_Only>
1

> <s_epik_Chemistry_Notes>
This compound contains an acetal/aminal-like group ( X-CH(R)-Y where X, Y are N, S, or O) that may be acid/base labile, releasing an aldehyde.

> <s_lp_Force_Field>
OPLS_2005

> <r_lp_Energy>
37.5202

> <b_lp_Chiralities_Consistent>
1

> <s_lp_Variant>
AV-unprocessed.smi:72-56

> <Gold.Version>
5.8.1

> <Gold.Id.Protein>
6NUR|6NUR_protein|mol2

> <Gold.PLP.Fitness>
38.8506

> <Gold.PLP.PLP>
-24.4616

> <Gold.PLP.part.hbond>
-6.3509

> <Gold.PLP.part.metal>
0.0000

> <Gold.PLP.part.buried>
-3.9278

> <Gold.PLP.part.nonpolar>
-19.3769

> <Gold.PLP.part.repulsive>
4.8454

> <Gold.PLP.ligand.clash>
0.0000

> <Gold.PLP.ligand.torsion>
0.1258

> <Gold.PLP.Chemscore.Hbond>
3.7865

> <Gold.PLP.Chemscore.CHOScore>
1.0497

> <Gold.PLP.Chemscore.Metal>
0.0000

> <Gold.Chemscore.Hbonds>
donor molecule, donor type, donor heavy atom, donor atom, acceptor molecule, acceptor atom, score
      L1  H    10    26       P1  7948  1.00
      P1  H  7997  8010       L1    17  1.90
      P1  H 10752 10765       L1     3  0.74
      L1  C     4    23       P1  7948  0.78

> <Gold.PLP.Chemscore.Internal.Correction>
0.1322

> <Gold.Rescore>
     Score         DG    S(hbond)    S(metal)    S(lipo)     H(rot)  DE(clash)    DE(int)     intcor
      2.32      -4.59       2.14        0.00      19.61       4.04       1.73       0.53       ----

> <Gold.Chemscore.Fitness>
2.3244

> <Gold.Chemscore.DG>
-4.5863

> <Gold.Chemscore.ZeroCoef>
-5.4800

> <Gold.Chemscore.Hbond>
2.1424

> <Gold.Chemscore.Metal>
0.0000

> <Gold.Chemscore.Lipo>
19.6052

> <Gold.Chemscore.Internal_Hbond>
0.0000

> <Gold.Chemscore.DEClash>
1.7346

> <Gold.Chemscore.DEInternal>
0.5273

> <Gold.Chemscore.Rot>
4.0403

> <Gold.Chemscore.Internal.Correction>
   9.000000E+99

> <Gold.Chemscore.Hbonds>
donor molecule, donor type, donor heavy atom, donor atom, acceptor molecule, acceptor atom, score
      L1  H    10    26       P1  7948  1.00
      P1  H  7997  8010       L1    17  0.21
      P1  H 10752 10765       L1     3  0.42

> <Gold.Chemscore.Hbond.Weighted>
-7.1556

> <Gold.Chemscore.Metal.Weighted>
-0.0000

> <Gold.Chemscore.Lipo.Weighted>
-2.2938

> <Gold.Chemscore.Internal_Hbond.Weighted>
0.0000

> <Gold.Chemscore.DEClash.Weighted>
1.7346

> <Gold.Chemscore.DEInternal.Weighted>
0.5273

> <Gold.Chemscore.Rot.Weighted>
10.3431

> <Gold.Chemscore.Internal.Correction.Weighted>
   9.000000E+99

> <Gold.Protein.RotatedTorsions>
[ 6907 6896 6895 6894 ] final  113.47 input  -60.11 | X-H torsion
[ 7974 7965 7964 7962 ] final   85.29 input  175.53 | X-H torsion
[ 8008 7997 7996 7995 ] final   76.73 input   59.86 | X-H torsion
[ 10167 10162 10161 10158 ] final  131.25 input  -65.29 | X-H torsion
[ 10718 10713 10712 10709 ] final -146.05 input   66.30 | X-H torsion
[ 10763 10752 10751 10750 ] final  170.99 input  -60.55 | X-H torsion
[ 11005 11000 10999 10996 ] final  142.27 input  -57.11 | X-H torsion

> <Gold.Protein.ActiveResidues>
 VAL166  LYS551  ARG553  GLY616  TRP617  ASP618  TYR619  PRO620  LYS621  CYS622 
 ASP623  PHE694  ASN695  SER759  ASP760  ASP761  ALA762  ILE779  LEU786  VAL792 
 PHE793  MET794  SER795  GLU796  ALA797  LYS798  CYS799  TRP800  GLU811  SER814 

> <Gold.Protein.RotatedAtoms>
  152.4859  133.8371  159.7133 H   0  0  0  0  0  0  0  0  0  0  0  0  # atno 6907 bound_to 6896
  150.8945  133.7190  159.2902 H   0  0  0  0  0  0  0  0  0  0  0  0  # atno 6908 bound_to 6896
  151.4652  135.1045  159.9788 H   0  0  0  0  0  0  0  0  0  0  0  0  # atno 6909 bound_to 6896
  145.5875  139.2333  143.2318 H   0  0  0  0  0  0  0  0  0  0  0  0  # atno 7974 bound_to 7965
  155.8314  140.3466  155.5575 H   0  0  0  0  0  0  0  0  0  0  0  0  # atno 8008 bound_to 7997
  155.8237  140.0917  157.1853 H   0  0  0  0  0  0  0  0  0  0  0  0  # atno 8009 bound_to 7997
  154.4004  140.1425  156.3518 H   0  0  0  0  0  0  0  0  0  0  0  0  # atno 8010 bound_to 7997
  139.5393  144.6714  151.4680 H   0  0  0  0  0  0  0  0  0  0  0  0  # atno 10167 bound_to 10162
  156.3900  130.7881  151.2082 H   0  0  0  0  0  0  0  0  0  0  0  0  # atno 10718 bound_to 10713
  154.4055  135.2755  155.2070 H   0  0  0  0  0  0  0  0  0  0  0  0  # atno 10763 bound_to 10752
  154.4077  135.6029  153.5938 H   0  0  0  0  0  0  0  0  0  0  0  0  # atno 10764 bound_to 10752
  152.9831  135.5942  154.4329 H   0  0  0  0  0  0  0  0  0  0  0  0  # atno 10765 bound_to 10752
  140.0464  134.9278  157.0937 H   0  0  0  0  0  0  0  0  0  0  0  0  # atno 11005 bound_to 11000
  146.1671  140.6701  142.9250 LP  0  0  0  0  0  0  0  0  0  0  0  0  # atno 17320 bound_to 7965
  144.7366  140.4825  143.6899 LP  0  0  0  0  0  0  0  0  0  0  0  0  # atno 17321 bound_to 7965
  140.6615  143.8489  150.6893 LP  0  0  0  0  0  0  0  0  0  0  0  0  # atno 17342 bound_to 10162
  140.1885  143.4056  152.1881 LP  0  0  0  0  0  0  0  0  0  0  0  0  # atno 17343 bound_to 10162
  157.7498  131.0318  150.4199 LP  0  0  0  0  0  0  0  0  0  0  0  0  # atno 17370 bound_to 10713
  156.4459  130.4001  149.6667 LP  0  0  0  0  0  0  0  0  0  0  0  0  # atno 17371 bound_to 10713
  140.3987  134.2106  155.7164 LP  0  0  0  0  0  0  0  0  0  0  0  0  # atno 17394 bound_to 11000
  141.1909  133.8207  157.0901 LP  0  0  0  0  0  0  0  0  0  0  0  0  # atno 17395 bound_to 11000

$$$$
