AV-unprocessed.smi:1381|AV-procd|sdf|5608|dock1
  -GOLD-   22720 5213D 1   1.00000     0.00000
 Structure written by MMmdl.
 43 44  0  0  0  0  0  0  0  0  2 V2000
  150.8044  141.9353  156.2432 C   0  0  0  0  0  0  0  0  0  0  0  0
  150.3437  140.7979  155.3976 C   0  0  0  0  0  0  0  0  0  0  0  0
  149.1043  140.3442  155.0444 C   0  0  0  0  0  0  0  0  0  0  0  0
  149.3995  139.2188  154.2207 C   0  0  0  0  0  0  0  0  0  0  0  0
  148.4560  138.3716  153.5836 N   0  0  0  0  0  0  0  0  0  0  0  0
  147.1179  138.4876  153.5492 C   0  0  0  0  0  0  0  0  0  0  0  0
  146.4638  139.3820  154.0850 O   0  0  0  0  0  0  0  0  0  0  0  0
  146.5614  137.4939  152.8410 N   0  0  0  0  0  0  0  0  0  0  0  0
  145.1297  137.3273  152.6173 C   0  0  0  0  0  0  0  0  0  0  0  0
  144.8395  136.1742  151.6374 C   0  0  0  0  0  0  0  0  0  0  0  0
  144.6411  134.8760  152.3356 N   0  3  1  0  0  0  0  0  0  0  0  0
  143.9851  133.8441  151.4957 C   0  0  0  0  0  0  0  0  0  0  0  0
  144.9786  133.2246  150.4913 C   0  0  2  0  0  0  0  0  0  0  0  0
  144.3415  132.0962  149.6731 C   0  0  0  0  0  0  0  0  0  0  0  0
  146.0817  132.6820  151.2097 O   0  0  0  0  0  0  0  0  0  0  0  0
  146.8018  133.6657  151.9452 C   0  0  2  0  0  0  0  0  0  0  0  0
  147.9992  132.9801  152.6124 C   0  0  0  0  0  0  0  0  0  0  0  0
  145.8591  134.3195  152.9789 C   0  0  0  0  0  0  0  0  0  0  0  0
  150.6964  139.0104  154.0895 N   0  0  0  0  0  0  0  0  0  0  0  0
  151.3102  140.0192  154.8412 O   0  0  0  0  0  0  0  0  0  0  0  0
  149.9858  142.6260  156.4463 H   0  0  0  0  0  0  0  0  0  0  0  0
  151.5994  142.4913  155.7459 H   0  0  0  0  0  0  0  0  0  0  0  0
  151.1884  141.5750  157.1976 H   0  0  0  0  0  0  0  0  0  0  0  0
  148.1534  140.7618  155.3384 H   0  0  0  0  0  0  0  0  0  0  0  0
  148.8516  137.5843  153.0913 H   0  0  0  0  0  0  0  0  0  0  0  0
  147.1710  136.7990  152.4349 H   0  0  0  0  0  0  0  0  0  0  0  0
  144.6732  137.1369  153.5877 H   0  0  0  0  0  0  0  0  0  0  0  0
  144.6991  138.2600  152.2490 H   0  0  0  0  0  0  0  0  0  0  0  0
  143.9294  136.4157  151.0870 H   0  0  0  0  0  0  0  0  0  0  0  0
  145.6313  136.0967  150.8926 H   0  0  0  0  0  0  0  0  0  0  0  0
  143.5997  133.0644  152.1542 H   0  0  0  0  0  0  0  0  0  0  0  0
  143.1188  134.2627  150.9817 H   0  0  0  0  0  0  0  0  0  0  0  0
  145.3386  133.9881  149.7999 H   0  0  0  0  0  0  0  0  0  0  0  0
  143.4929  132.4618  149.0942 H   0  0  0  0  0  0  0  0  0  0  0  0
  143.9860  131.2918  150.3177 H   0  0  0  0  0  0  0  0  0  0  0  0
  145.0603  131.6689  148.9737 H   0  0  0  0  0  0  0  0  0  0  0  0
  147.1855  134.4179  151.2548 H   0  0  0  0  0  0  0  0  0  0  0  0
  148.5914  133.6940  153.1855 H   0  0  0  0  0  0  0  0  0  0  0  0
  148.6549  132.5288  151.8672 H   0  0  0  0  0  0  0  0  0  0  0  0
  147.6757  132.1912  153.2924 H   0  0  0  0  0  0  0  0  0  0  0  0
  146.3848  135.0822  153.5519 H   0  0  0  0  0  0  0  0  0  0  0  0
  145.5408  133.5667  153.7017 H   0  0  0  0  0  0  0  0  0  0  0  0
  143.9877  135.0775  153.0794 H   0  0  0  0  0  0  0  0  0  0  0  0
  1  2  1  0  0  0  0
  1 21  1  0  0  0  0
  1 22  1  0  0  0  0
  1 23  1  0  0  0  0
  2 20  1  0  0  0  0
  2  3  2  0  0  0  0
  3  4  1  0  0  0  0
  3 24  1  0  0  0  0
  4  5  1  0  0  0  0
  4 19  2  0  0  0  0
  5  6  1  0  0  0  0
  5 25  1  0  0  0  0
  6  7  2  0  0  0  0
  6  8  1  0  0  0  0
  8  9  1  0  0  0  0
  8 26  1  0  0  0  0
  9 10  1  0  0  0  0
  9 27  1  0  0  0  0
  9 28  1  0  0  0  0
 10 11  1  0  0  0  0
 10 29  1  0  0  0  0
 10 30  1  0  0  0  0
 11 18  1  0  0  0  0
 11 12  1  0  0  0  0
 11 43  1  0  0  0  0
 12 13  1  0  0  0  0
 12 31  1  0  0  0  0
 12 32  1  0  0  0  0
 13 14  1  0  0  0  0
 13 15  1  0  0  0  0
 13 33  1  0  0  0  0
 14 34  1  0  0  0  0
 14 35  1  0  0  0  0
 14 36  1  0  0  0  0
 15 16  1  0  0  0  0
 16 17  1  0  0  0  0
 16 18  1  0  0  0  0
 16 37  1  0  0  0  0
 17 38  1  0  0  0  0
 17 39  1  0  0  0  0
 17 40  1  0  0  0  0
 18 41  1  0  0  0  0
 18 42  1  0  0  0  0
 19 20  1  0  0  0  0
M  CHG  1  11   1
M  END
> <s_m_source_file>
AV-unprocessed.smi

> <i_m_source_file_index>
1381

> <i_lp_mmshare_version>
43012

> <i_f3d_flags>
0

> <s_epik_input>
W0NIM11jMVtjSF1jKG5vMSlbTkhdQyg9TylbTkhdW0NIMl1bQ0gyXU4yW0NIMl1bQ0BASF0oW0NIM10pT1tDQEBIXShbQ0gzXSlbQ0gyXTI=

> <s_epik_cmdline>
J2VwaWtfcHl0aG9uJywgJy1waCcsICc3LjAnLCAnLXRuJywgJzgnLCAnLW1hJywgJzIwMCcsICctbWV0YWxfYmluZGluZycsICctaW1hZScsICc8aW5maWxlLm1hZT4nLCAnLW9tYWUnLCAnPG91dGZpbGUubWFlPic=

> <r_epik_Ionization_Penalty>
0.707076

> <r_epik_Ionization_Penalty_Charging>
0.707039

> <r_epik_Ionization_Penalty_Neutral>
3.6548e-05

> <r_epik_State_Penalty>
0.730276

> <r_epik_Charging_Adjusted_Penalty>
1.43732

> <i_epik_Tot_Q>
1

> <i_epik_Tot_abs_Q>
1

> <r_epik_Metal_State_Penalty>
0.743132

> <b_epik_Metal_Only>
0

> <s_lp_Force_Field>
OPLS_2005

> <r_lp_Energy>
17.699

> <b_lp_Chiralities_Consistent>
1

> <s_lp_Variant>
AV-unprocessed.smi:1381-7

> <Gold.Version>
5.8.1

> <Gold.Id.Protein>
6NUR|6NUR_protein|mol2

> <Gold.PLP.Fitness>
39.9924

> <Gold.PLP.PLP>
-32.7826

> <Gold.PLP.part.hbond>
-4.3255

> <Gold.PLP.part.metal>
0.0000

> <Gold.PLP.part.buried>
-3.2660

> <Gold.PLP.part.nonpolar>
-26.2709

> <Gold.PLP.part.repulsive>
0.6022

> <Gold.PLP.ligand.clash>
0.0000

> <Gold.PLP.ligand.torsion>
0.3089

> <Gold.PLP.Chemscore.Hbond>
2.6000

> <Gold.PLP.Chemscore.CHOScore>
0.0000

> <Gold.PLP.Chemscore.Metal>
0.0000

> <Gold.Chemscore.Hbonds>
donor molecule, donor type, donor heavy atom, donor atom, acceptor molecule, acceptor atom, score
      L1  H     5    25       P1  7948  1.00
      L1  H     8    26       P1  7948  1.00
      P1  H  7989  7998       L1    20  0.60

> <Gold.PLP.Chemscore.Internal.Correction>
0.0276

> <Gold.Rescore>
     Score         DG    S(hbond)    S(metal)    S(lipo)     H(rot)  DE(clash)    DE(int)     intcor
     15.13     -16.61       1.96        0.00      74.25       1.61       0.05       1.42       ----

> <Gold.Chemscore.Fitness>
15.1277

> <Gold.Chemscore.DG>
-16.6071

> <Gold.Chemscore.ZeroCoef>
-5.4800

> <Gold.Chemscore.Hbond>
1.9630

> <Gold.Chemscore.Metal>
0.0000

> <Gold.Chemscore.Lipo>
74.2498

> <Gold.Chemscore.Internal_Hbond>
0.0000

> <Gold.Chemscore.DEClash>
0.0549

> <Gold.Chemscore.DEInternal>
1.4245

> <Gold.Chemscore.Rot>
1.6081

> <Gold.Chemscore.Internal.Correction>
   9.000000E+99

> <Gold.Chemscore.Hbonds>
donor molecule, donor type, donor heavy atom, donor atom, acceptor molecule, acceptor atom, score
      L1  H     5    25       P1  7948  0.99
      L1  H     8    26       P1  7948  0.95
      P1  H  7989  7998       L1    20  0.01

> <Gold.Chemscore.Hbond.Weighted>
-6.5565

> <Gold.Chemscore.Metal.Weighted>
-0.0000

> <Gold.Chemscore.Lipo.Weighted>
-8.6872

> <Gold.Chemscore.Internal_Hbond.Weighted>
0.0000

> <Gold.Chemscore.DEClash.Weighted>
0.0549

> <Gold.Chemscore.DEInternal.Weighted>
1.4245

> <Gold.Chemscore.Rot.Weighted>
4.1167

> <Gold.Chemscore.Internal.Correction.Weighted>
   9.000000E+99

> <Gold.Protein.RotatedTorsions>
[ 6907 6896 6895 6894 ] final  -86.36 input  -60.11 | X-H torsion
[ 7974 7965 7964 7962 ] final  -26.90 input  175.53 | X-H torsion
[ 8008 7997 7996 7995 ] final   76.25 input   59.86 | X-H torsion
[ 10167 10162 10161 10158 ] final   65.01 input  -65.29 | X-H torsion
[ 10718 10713 10712 10709 ] final -163.45 input   66.30 | X-H torsion
[ 10763 10752 10751 10750 ] final -125.66 input  -60.55 | X-H torsion
[ 11005 11000 10999 10996 ] final  116.08 input  -57.11 | X-H torsion

> <Gold.Protein.ActiveResidues>
 VAL166  LYS551  ARG553  GLY616  TRP617  ASP618  TYR619  PRO620  LYS621  CYS622 
 ASP623  PHE694  ASN695  SER759  ASP760  ASP761  ALA762  ILE779  LEU786  VAL792 
 PHE793  MET794  SER795  GLU796  ALA797  LYS798  CYS799  TRP800  GLU811  SER814 

> <Gold.Protein.RotatedAtoms>
  150.6867  134.3063  159.4727 H   0  0  0  0  0  0  0  0  0  0  0  0  # atno 6907 bound_to 6896
  152.0954  134.9376  160.0580 H   0  0  0  0  0  0  0  0  0  0  0  0  # atno 6908 bound_to 6896
  152.0676  133.4056  159.4482 H   0  0  0  0  0  0  0  0  0  0  0  0  # atno 6909 bound_to 6896
  146.1395  140.5080  142.8658 H   0  0  0  0  0  0  0  0  0  0  0  0  # atno 7974 bound_to 7965
  155.8247  140.3468  155.5535 H   0  0  0  0  0  0  0  0  0  0  0  0  # atno 8008 bound_to 7997
  155.8305  140.0926  157.1815 H   0  0  0  0  0  0  0  0  0  0  0  0  # atno 8009 bound_to 7997
  154.4004  140.1413  156.3596 H   0  0  0  0  0  0  0  0  0  0  0  0  # atno 8010 bound_to 7997
  140.1160  144.4775  150.6949 H   0  0  0  0  0  0  0  0  0  0  0  0  # atno 10167 bound_to 10162
  156.6249  130.8906  151.2965 H   0  0  0  0  0  0  0  0  0  0  0  0  # atno 10718 bound_to 10713
  154.8738  135.4022  154.3305 H   0  0  0  0  0  0  0  0  0  0  0  0  # atno 10763 bound_to 10752
  153.4119  135.7021  153.6358 H   0  0  0  0  0  0  0  0  0  0  0  0  # atno 10764 bound_to 10752
  153.5057  135.3718  155.2532 H   0  0  0  0  0  0  0  0  0  0  0  0  # atno 10765 bound_to 10752
  139.9030  134.9593  156.7144 H   0  0  0  0  0  0  0  0  0  0  0  0  # atno 11005 bound_to 11000
  144.7776  140.5772  143.6627 LP  0  0  0  0  0  0  0  0  0  0  0  0  # atno 17320 bound_to 7965
  145.5080  139.1480  143.3620 LP  0  0  0  0  0  0  0  0  0  0  0  0  # atno 17321 bound_to 7965
  140.6899  143.2370  151.5159 LP  0  0  0  0  0  0  0  0  0  0  0  0  # atno 17342 bound_to 10162
  139.5594  144.2194  152.1666 LP  0  0  0  0  0  0  0  0  0  0  0  0  # atno 17343 bound_to 10162
  157.7217  130.9567  150.1465 LP  0  0  0  0  0  0  0  0  0  0  0  0  # atno 17370 bound_to 10713
  156.2281  130.3679  149.8477 LP  0  0  0  0  0  0  0  0  0  0  0  0  # atno 17371 bound_to 10713
  140.7050  133.9273  155.8048 LP  0  0  0  0  0  0  0  0  0  0  0  0  # atno 17394 bound_to 11000
  141.0343  134.0712  157.3978 LP  0  0  0  0  0  0  0  0  0  0  0  0  # atno 17395 bound_to 11000

$$$$
