AV-unprocessed.smi:655|AV-procd|sdf|3216|dock7
  -GOLD-   22720 0153D 1   1.00000     0.00000
 Structure written by MMmdl.
 34 35  0  0  0  0  0  0  0  0  2 V2000
  152.6279  143.3224  161.1620 C   0  0  0  0  0  0  0  0  0  0  0  0
  152.5002  142.8214  159.7164 C   0  0  2  0  0  0  0  0  0  0  0  0
  151.4352  143.6110  158.9360 C   0  0  0  0  0  0  0  0  0  0  0  0
  151.3128  143.1150  157.4837 C   0  0  0  0  0  0  0  0  0  0  0  0
  151.0375  141.5958  157.3750 C   0  0  1  0  0  0  0  0  0  0  0  0
  149.7405  141.3772  157.8995 O   0  0  0  0  0  0  0  0  0  0  0  0
  151.0104  141.1865  155.8744 C   0  0  0  0  0  0  0  0  0  0  0  0
  151.0064  139.7326  155.6315 N   0  0  0  0  0  0  0  0  0  0  0  0
  149.8879  138.9988  156.0661 C   0  0  0  0  0  0  0  0  0  0  0  0
  149.7888  137.6679  155.8847 C   0  0  0  0  0  0  0  0  0  0  0  0
  148.3962  136.7969  156.4204 Cl  0  0  0  0  0  0  0  0  0  0  0  0
  150.8948  136.9830  155.2195 C   0  0  0  0  0  0  0  0  0  0  0  0
  150.8336  135.7690  155.0304 O   0  0  0  0  0  0  0  0  0  0  0  0
  151.9660  137.7358  154.8333 N   0  5  0  0  0  0  0  0  0  0  0  0
  152.0506  139.0876  155.0305 C   0  0  0  0  0  0  0  0  0  0  0  0
  153.0371  139.7393  154.6876 O   0  0  0  0  0  0  0  0  0  0  0  0
  152.0653  140.8042  158.2225 C   0  0  0  0  0  0  0  0  0  0  0  0
  152.1820  141.3173  159.6686 C   0  0  0  0  0  0  0  0  0  0  0  0
  151.6942  143.1943  161.7105 H   0  0  0  0  0  0  0  0  0  0  0  0
  152.8881  144.3808  161.1891 H   0  0  0  0  0  0  0  0  0  0  0  0
  153.4062  142.7782  161.6976 H   0  0  0  0  0  0  0  0  0  0  0  0
  153.4632  142.9785  159.2281 H   0  0  0  0  0  0  0  0  0  0  0  0
  150.4699  143.5272  159.4370 H   0  0  0  0  0  0  0  0  0  0  0  0
  151.6865  144.6723  158.9351 H   0  0  0  0  0  0  0  0  0  0  0  0
  150.5325  143.6780  156.9694 H   0  0  0  0  0  0  0  0  0  0  0  0
  152.2426  143.3495  156.9638 H   0  0  0  0  0  0  0  0  0  0  0  0
  149.2579  140.8374  157.2922 H   0  0  0  0  0  0  0  0  0  0  0  0
  150.1741  141.6678  155.3640 H   0  0  0  0  0  0  0  0  0  0  0  0
  151.8911  141.6009  155.3815 H   0  0  0  0  0  0  0  0  0  0  0  0
  149.1159  139.5827  156.5455 H   0  0  0  0  0  0  0  0  0  0  0  0
  151.8084  139.7446  158.2446 H   0  0  0  0  0  0  0  0  0  0  0  0
  153.0464  140.8717  157.7511 H   0  0  0  0  0  0  0  0  0  0  0  0
  152.9596  140.7564  160.1883 H   0  0  0  0  0  0  0  0  0  0  0  0
  151.2529  141.1180  160.2044 H   0  0  0  0  0  0  0  0  0  0  0  0
  1  2  1  0  0  0  0
  1 19  1  0  0  0  0
  1 20  1  0  0  0  0
  1 21  1  0  0  0  0
  2 18  1  0  0  0  0
  2  3  1  0  0  0  0
  2 22  1  0  0  0  0
  3  4  1  0  0  0  0
  3 23  1  0  0  0  0
  3 24  1  0  0  0  0
  4  5  1  0  0  0  0
  4 25  1  0  0  0  0
  4 26  1  0  0  0  0
  5  6  1  0  0  0  0
  5  7  1  0  0  0  0
  5 17  1  0  0  0  0
  6 27  1  0  0  0  0
  7  8  1  0  0  0  0
  7 28  1  0  0  0  0
  7 29  1  0  0  0  0
  8 15  1  0  0  0  0
  8  9  1  0  0  0  0
  9 10  2  0  0  0  0
  9 30  1  0  0  0  0
 10 11  1  0  0  0  0
 10 12  1  0  0  0  0
 12 13  2  0  0  0  0
 12 14  1  0  0  0  0
 14 15  1  0  0  0  0
 15 16  2  0  0  0  0
 17 18  1  0  0  0  0
 17 31  1  0  0  0  0
 17 32  1  0  0  0  0
 18 33  1  0  0  0  0
 18 34  1  0  0  0  0
M  CHG  1  14  -1
M  END
> <s_m_source_file>
AV-unprocessed.smi

> <i_m_source_file_index>
655

> <i_lp_mmshare_version>
43012

> <i_f3d_flags>
0

> <s_epik_input>
W0NIMl0xW0NIMl1bQ0BIXShbQ0gzXSlbQ0gyXVtDSDJdW0NAQF0xKFtPSF0pW0NIMl1uMltjSF1jKENsKWMoPU8pW25IXWMyPU8=

> <s_epik_cmdline>
J2VwaWtfcHl0aG9uJywgJy1waCcsICc3LjAnLCAnLXRuJywgJzgnLCAnLW1hJywgJzIwMCcsICctbWV0YWxfYmluZGluZycsICctaW1hZScsICc8aW5maWxlLm1hZT4nLCAnLW9tYWUnLCAnPG91dGZpbGUubWFlPic=

> <r_epik_Ionization_Penalty>
2.34257

> <r_epik_Ionization_Penalty_Charging>
1.00552e-07

> <r_epik_Ionization_Penalty_Neutral>
2.34257

> <r_epik_State_Penalty>
2.4963

> <r_epik_Charging_Adjusted_Penalty>
2.4963

> <i_epik_Tot_Q>
-1

> <i_epik_Tot_abs_Q>
1

> <r_epik_Metal_State_Penalty>
0.0381881

> <b_epik_Metal_Only>
0

> <s_lp_Force_Field>
OPLS_2005

> <r_lp_Energy>
26.568

> <b_lp_Chiralities_Consistent>
1

> <s_lp_Variant>
AV-unprocessed.smi:655-3

> <Gold.Version>
5.8.1

> <Gold.Id.Protein>
6NUR|6NUR_protein|mol2

> <Gold.PLP.Fitness>
39.8966

> <Gold.PLP.PLP>
-34.5615

> <Gold.PLP.part.hbond>
-3.7928

> <Gold.PLP.part.metal>
0.0000

> <Gold.PLP.part.buried>
-3.4442

> <Gold.PLP.part.nonpolar>
-27.2867

> <Gold.PLP.part.repulsive>
0.2407

> <Gold.PLP.ligand.clash>
0.0000

> <Gold.PLP.ligand.torsion>
0.1671

> <Gold.PLP.Chemscore.Hbond>
1.8710

> <Gold.PLP.Chemscore.CHOScore>
0.0000

> <Gold.PLP.Chemscore.Metal>
0.0000

> <Gold.Chemscore.Hbonds>
donor molecule, donor type, donor heavy atom, donor atom, acceptor molecule, acceptor atom, score
      P1  H  7989  7998       L1    16  0.08
      P1  H  7997  8010       L1    16  1.00
      P1  H 10752 10763       L1    13  0.46

> <Gold.PLP.Chemscore.Internal.Correction>
0.0564

> <Gold.Rescore>
     Score         DG    S(hbond)    S(metal)    S(lipo)     H(rot)  DE(clash)    DE(int)     intcor
     14.26     -14.77       1.39        0.00      79.19       1.81       0.15       0.36       ----

> <Gold.Chemscore.Fitness>
14.2598

> <Gold.Chemscore.DG>
-14.7710

> <Gold.Chemscore.ZeroCoef>
-5.4800

> <Gold.Chemscore.Hbond>
1.3946

> <Gold.Chemscore.Metal>
0.0000

> <Gold.Chemscore.Lipo>
79.1852

> <Gold.Chemscore.Internal_Hbond>
0.0000

> <Gold.Chemscore.DEClash>
0.1528

> <Gold.Chemscore.DEInternal>
0.3585

> <Gold.Chemscore.Rot>
1.8092

> <Gold.Chemscore.Internal.Correction>
   9.000000E+99

> <Gold.Chemscore.Hbonds>
donor molecule, donor type, donor heavy atom, donor atom, acceptor molecule, acceptor atom, score
      P1  H  7997  8010       L1    16  0.98
      P1  H 10752 10763       L1    13  0.06

> <Gold.Chemscore.Hbond.Weighted>
-4.6579

> <Gold.Chemscore.Metal.Weighted>
-0.0000

> <Gold.Chemscore.Lipo.Weighted>
-9.2647

> <Gold.Chemscore.Internal_Hbond.Weighted>
0.0000

> <Gold.Chemscore.DEClash.Weighted>
0.1528

> <Gold.Chemscore.DEInternal.Weighted>
0.3585

> <Gold.Chemscore.Rot.Weighted>
4.6316

> <Gold.Chemscore.Internal.Correction.Weighted>
   9.000000E+99

> <Gold.Protein.RotatedTorsions>
[ 6907 6896 6895 6894 ] final  144.73 input  -60.11 | X-H torsion
[ 7974 7965 7964 7962 ] final -163.70 input  175.53 | X-H torsion
[ 8008 7997 7996 7995 ] final   97.79 input   59.86 | X-H torsion
[ 10167 10162 10161 10158 ] final  143.94 input  -65.29 | X-H torsion
[ 10718 10713 10712 10709 ] final -102.36 input   66.30 | X-H torsion
[ 10763 10752 10751 10750 ] final   74.24 input  -60.55 | X-H torsion
[ 11005 11000 10999 10996 ] final   94.54 input  -57.11 | X-H torsion

> <Gold.Protein.ActiveResidues>
 VAL166  LYS551  ARG553  GLY616  TRP617  ASP618  TYR619  PRO620  LYS621  CYS622 
 ASP623  PHE694  ASN695  SER759  ASP760  ASP761  ALA762  ILE779  LEU786  VAL792 
 PHE793  MET794  SER795  GLU796  ALA797  LYS798  CYS799  TRP800  GLU811  SER814 

> <Gold.Protein.RotatedAtoms>
  152.1899  133.4766  159.5002 H   0  0  0  0  0  0  0  0  0  0  0  0  # atno 6907 bound_to 6896
  150.6949  134.1725  159.4227 H   0  0  0  0  0  0  0  0  0  0  0  0  # atno 6908 bound_to 6896
  151.9639  135.0109  160.0600 H   0  0  0  0  0  0  0  0  0  0  0  0  # atno 6909 bound_to 6896
  144.7318  140.3069  143.6195 H   0  0  0  0  0  0  0  0  0  0  0  0  # atno 7974 bound_to 7965
  156.0938  140.3253  155.7850 H   0  0  0  0  0  0  0  0  0  0  0  0  # atno 8008 bound_to 7997
  155.4953  140.0565  157.2965 H   0  0  0  0  0  0  0  0  0  0  0  0  # atno 8009 bound_to 7997
  154.4653  140.1986  156.0149 H   0  0  0  0  0  0  0  0  0  0  0  0  # atno 8010 bound_to 7997
  139.4958  144.6006  151.6489 H   0  0  0  0  0  0  0  0  0  0  0  0  # atno 10167 bound_to 10162
  156.0226  130.5416  150.7097 H   0  0  0  0  0  0  0  0  0  0  0  0  # atno 10718 bound_to 10713
  153.0574  135.5033  154.8013 H   0  0  0  0  0  0  0  0  0  0  0  0  # atno 10763 bound_to 10752
  154.6829  135.2971  154.9591 H   0  0  0  0  0  0  0  0  0  0  0  0  # atno 10764 bound_to 10752
  154.0371  135.6722  153.4839 H   0  0  0  0  0  0  0  0  0  0  0  0  # atno 10765 bound_to 10752
  139.8797  134.8851  156.3879 H   0  0  0  0  0  0  0  0  0  0  0  0  # atno 11005 bound_to 11000
  145.7704  139.1855  143.2216 LP  0  0  0  0  0  0  0  0  0  0  0  0  # atno 17320 bound_to 7965
  146.0915  140.7650  142.9593 LP  0  0  0  0  0  0  0  0  0  0  0  0  # atno 17321 bound_to 7965
  140.5655  144.0198  150.6190 LP  0  0  0  0  0  0  0  0  0  0  0  0  # atno 17342 bound_to 10162
  140.3298  143.3085  152.0699 LP  0  0  0  0  0  0  0  0  0  0  0  0  # atno 17343 bound_to 10162
  157.4738  131.0896  151.0612 LP  0  0  0  0  0  0  0  0  0  0  0  0  # atno 17370 bound_to 10713
  157.1065  130.6003  149.5472 LP  0  0  0  0  0  0  0  0  0  0  0  0  # atno 17371 bound_to 10713
  140.9353  133.7551  156.0077 LP  0  0  0  0  0  0  0  0  0  0  0  0  # atno 17394 bound_to 11000
  140.8283  134.3208  157.5358 LP  0  0  0  0  0  0  0  0  0  0  0  0  # atno 17395 bound_to 11000

$$$$
