AV-unprocessed.smi:1554|AV-procd|sdf|6263|dock4
  -GOLD-   22720 6453D 1   1.00000     0.00000
 Structure written by MMmdl.
 49 51  0  0  0  0  0  0  0  0  3 V2000
  152.3522  143.6417  160.1715 C   0  0  0  0  0  0  0  0  0  0  0  0
  152.0101  142.6600  159.0634 C   0  0  0  0  0  0  0  0  0  0  0  0
  151.1568  143.0892  158.0218 C   0  0  0  0  0  0  0  0  0  0  0  0
  150.8657  142.1697  157.0210 C   0  0  0  0  0  0  0  0  0  0  0  0
  150.0729  142.2819  155.8766 N   0  3  0  0  0  0  0  0  0  0  0  0
  150.0939  141.1049  155.1918 C   0  0  0  0  0  0  0  0  0  0  0  0
  150.8862  140.2418  155.8844 N   0  0  0  0  0  0  0  0  0  0  0  0
  151.2464  138.8480  155.5910 C   0  0  0  0  0  0  0  0  0  0  0  0
  150.0946  138.0535  154.9433 C   0  0  1  0  0  0  0  0  0  0  0  0
  150.0127  138.4026  153.5739 O   0  0  0  0  0  0  0  0  0  0  0  0
  150.3192  136.5321  155.0676 C   0  0  0  0  0  0  0  0  0  0  0  0
  149.2231  135.7245  154.4721 N   0  3  2  0  0  0  0  0  0  0  0  0
  147.8937  135.9781  155.0814 C   0  0  0  0  0  0  0  0  0  0  0  0
  146.8148  135.1293  154.3887 C   0  0  0  0  0  0  0  0  0  0  0  0
  147.1674  133.7539  154.4648 O   0  0  0  0  0  0  0  0  0  0  0  0
  148.3961  133.4749  153.8029 C   0  0  2  0  0  0  0  0  0  0  0  0
  148.6384  131.9624  153.8616 C   0  0  0  0  0  0  0  0  0  0  0  0
  149.5257  134.2729  154.4830 C   0  0  0  0  0  0  0  0  0  0  0  0
  151.3903  140.8626  157.0320 C   0  0  0  0  0  0  0  0  0  0  0  0
  152.2302  140.4222  158.0518 C   0  0  0  0  0  0  0  0  0  0  0  0
  152.5395  141.3434  159.0783 C   0  0  0  0  0  0  0  0  0  0  0  0
  153.4576  140.8946  160.2025 C   0  0  0  0  0  0  0  0  0  0  0  0
  151.8582  144.6022  160.0212 H   0  0  0  0  0  0  0  0  0  0  0  0
  153.4271  143.8215  160.2048 H   0  0  0  0  0  0  0  0  0  0  0  0
  152.0354  143.2527  161.1393 H   0  0  0  0  0  0  0  0  0  0  0  0
  150.7500  144.0898  158.0039 H   0  0  0  0  0  0  0  0  0  0  0  0
  149.5732  140.8934  154.2689 H   0  0  0  0  0  0  0  0  0  0  0  0
  152.1131  138.8683  154.9285 H   0  0  0  0  0  0  0  0  0  0  0  0
  151.5772  138.3752  156.5167 H   0  0  0  0  0  0  0  0  0  0  0  0
  149.1622  138.3441  155.4253 H   0  0  0  0  0  0  0  0  0  0  0  0
  149.7835  137.6344  153.0741 H   0  0  0  0  0  0  0  0  0  0  0  0
  151.2622  136.2819  154.5783 H   0  0  0  0  0  0  0  0  0  0  0  0
  150.4384  136.2503  156.1150 H   0  0  0  0  0  0  0  0  0  0  0  0
  147.9267  135.7385  156.1455 H   0  0  0  0  0  0  0  0  0  0  0  0
  147.6253  137.0305  154.9994 H   0  0  0  0  0  0  0  0  0  0  0  0
  145.8514  135.2744  154.8776 H   0  0  0  0  0  0  0  0  0  0  0  0
  146.6909  135.4296  153.3469 H   0  0  0  0  0  0  0  0  0  0  0  0
  148.3149  133.7721  152.7557 H   0  0  0  0  0  0  0  0  0  0  0  0
  149.5677  131.6934  153.3586 H   0  0  0  0  0  0  0  0  0  0  0  0
  147.8284  131.4190  153.3743 H   0  0  0  0  0  0  0  0  0  0  0  0
  148.7010  131.6116  154.8922 H   0  0  0  0  0  0  0  0  0  0  0  0
  150.4664  134.0905  153.9615 H   0  0  0  0  0  0  0  0  0  0  0  0
  149.6594  133.9369  155.5129 H   0  0  0  0  0  0  0  0  0  0  0  0
  152.6341  139.4208  158.0622 H   0  0  0  0  0  0  0  0  0  0  0  0
  153.7770  139.8604  160.0694 H   0  0  0  0  0  0  0  0  0  0  0  0
  152.9493  140.9649  161.1645 H   0  0  0  0  0  0  0  0  0  0  0  0
  154.3519  141.5173  160.2369 H   0  0  0  0  0  0  0  0  0  0  0  0
  149.1620  135.9899  153.4996 H   0  0  0  0  0  0  0  0  0  0  0  0
  149.5560  143.1004  155.5810 H   0  0  0  0  0  0  0  0  0  0  0  0
  1  2  1  0  0  0  0
  1 23  1  0  0  0  0
  1 24  1  0  0  0  0
  1 25  1  0  0  0  0
  2 21  1  0  0  0  0
  2  3  2  0  0  0  0
  3  4  1  0  0  0  0
  3 26  1  0  0  0  0
  4 19  2  0  0  0  0
  4  5  1  0  0  0  0
  5  6  2  0  0  0  0
  5 49  1  0  0  0  0
  6  7  1  0  0  0  0
  6 27  1  0  0  0  0
  7  8  1  0  0  0  0
  7 19  1  0  0  0  0
  8  9  1  0  0  0  0
  8 28  1  0  0  0  0
  8 29  1  0  0  0  0
  9 10  1  0  0  0  0
  9 11  1  0  0  0  0
  9 30  1  0  0  0  0
 10 31  1  0  0  0  0
 11 12  1  0  0  0  0
 11 32  1  0  0  0  0
 11 33  1  0  0  0  0
 12 18  1  0  0  0  0
 12 13  1  0  0  0  0
 12 48  1  0  0  0  0
 13 14  1  0  0  0  0
 13 34  1  0  0  0  0
 13 35  1  0  0  0  0
 14 15  1  0  0  0  0
 14 36  1  0  0  0  0
 14 37  1  0  0  0  0
 15 16  1  0  0  0  0
 16 17  1  0  0  0  0
 16 18  1  0  0  0  0
 16 38  1  0  0  0  0
 17 39  1  0  0  0  0
 17 40  1  0  0  0  0
 17 41  1  0  0  0  0
 18 42  1  0  0  0  0
 18 43  1  0  0  0  0
 19 20  1  0  0  0  0
 20 21  2  0  0  0  0
 20 44  1  0  0  0  0
 21 22  1  0  0  0  0
 22 45  1  0  0  0  0
 22 46  1  0  0  0  0
 22 47  1  0  0  0  0
M  CHG  1   5   1
M  CHG  1  12   1
M  END
> <s_m_source_file>
AV-unprocessed.smi

> <i_m_source_file_index>
1554

> <i_lp_mmshare_version>
43012

> <i_f3d_flags>
0

> <s_epik_input>
W0NIM11jKFtjSF0xKWMoW0NIM10pW2NIXWMoYzEyKW4oW2NIXW4yKVtDSDJdW0NASF0oW09IXSlbQ0gyXU4zW0NIMl1bQ0gyXU9bQ0BASF0oW0NIM10pW0NIMl0z

> <s_epik_cmdline>
J2VwaWtfcHl0aG9uJywgJy1waCcsICc3LjAnLCAnLXRuJywgJzgnLCAnLW1hJywgJzIwMCcsICctbWV0YWxfYmluZGluZycsICctaW1hZScsICc8aW5maWxlLm1hZT4nLCAnLW9tYWUnLCAnPG91dGZpbGUubWFlPic=

> <r_epik_Ionization_Penalty>
1.8848

> <r_epik_Ionization_Penalty_Charging>
1.88479

> <r_epik_Ionization_Penalty_Neutral>
1.42224e-05

> <r_epik_State_Penalty>
1.94551

> <r_epik_Charging_Adjusted_Penalty>
3.8303

> <i_epik_Tot_Q>
2

> <i_epik_Tot_abs_Q>
2

> <r_epik_Metal_State_Penalty>
5.95849

> <b_epik_Metal_Only>
0

> <s_lp_Force_Field>
OPLS_2005

> <r_lp_Energy>
30.4692

> <b_lp_Chiralities_Consistent>
1

> <s_lp_Variant>
AV-unprocessed.smi:1554-24

> <Gold.Version>
5.8.1

> <Gold.Id.Protein>
6NUR|6NUR_protein|mol2

> <Gold.PLP.Fitness>
58.6354

> <Gold.PLP.PLP>
-44.6070

> <Gold.PLP.part.hbond>
-4.0000

> <Gold.PLP.part.metal>
0.0000

> <Gold.PLP.part.buried>
-3.7169

> <Gold.PLP.part.nonpolar>
-36.6061

> <Gold.PLP.part.repulsive>
0.2182

> <Gold.PLP.ligand.clash>
0.0000

> <Gold.PLP.ligand.torsion>
0.5103

> <Gold.PLP.Chemscore.Hbond>
5.0000

> <Gold.PLP.Chemscore.CHOScore>
0.0000

> <Gold.PLP.Chemscore.Metal>
0.0000

> <Gold.Chemscore.Hbonds>
donor molecule, donor type, donor heavy atom, donor atom, acceptor molecule, acceptor atom, score
      L1  H     5    49       P1  8028  2.00
      L1  H    10    31       P1  7948  1.00
      L1  H    12    48       P1  7948  2.00

> <Gold.PLP.Chemscore.Internal.Correction>
0.0489

> <Gold.Rescore>
     Score         DG    S(hbond)    S(metal)    S(lipo)     H(rot)  DE(clash)    DE(int)     intcor
     22.17     -22.67       2.93        0.00     109.44       2.11       0.06       0.44       ----

> <Gold.Chemscore.Fitness>
22.1659

> <Gold.Chemscore.DG>
-22.6667

> <Gold.Chemscore.ZeroCoef>
-5.4800

> <Gold.Chemscore.Hbond>
2.9310

> <Gold.Chemscore.Metal>
0.0000

> <Gold.Chemscore.Lipo>
109.4405

> <Gold.Chemscore.Internal_Hbond>
0.0000

> <Gold.Chemscore.DEClash>
0.0630

> <Gold.Chemscore.DEInternal>
0.4379

> <Gold.Chemscore.Rot>
2.1122

> <Gold.Chemscore.Internal.Correction>
   9.000000E+99

> <Gold.Chemscore.Hbonds>
donor molecule, donor type, donor heavy atom, donor atom, acceptor molecule, acceptor atom, score
      L1  H     5    49       P1  8028  0.99
      L1  H    10    31       P1  7948  0.54
      L1  H    12    48       P1  7948  0.85

> <Gold.Chemscore.Hbond.Weighted>
-9.7895

> <Gold.Chemscore.Metal.Weighted>
-0.0000

> <Gold.Chemscore.Lipo.Weighted>
-12.8045

> <Gold.Chemscore.Internal_Hbond.Weighted>
0.0000

> <Gold.Chemscore.DEClash.Weighted>
0.0630

> <Gold.Chemscore.DEInternal.Weighted>
0.4379

> <Gold.Chemscore.Rot.Weighted>
5.4073

> <Gold.Chemscore.Internal.Correction.Weighted>
   9.000000E+99

> <Gold.Protein.RotatedTorsions>
[ 6907 6896 6895 6894 ] final  -79.74 input  -60.11 | X-H torsion
[ 7974 7965 7964 7962 ] final  154.35 input  175.53 | X-H torsion
[ 8008 7997 7996 7995 ] final   -8.97 input   59.86 | X-H torsion
[ 10167 10162 10161 10158 ] final -150.20 input  -65.29 | X-H torsion
[ 10718 10713 10712 10709 ] final   79.12 input   66.30 | X-H torsion
[ 10763 10752 10751 10750 ] final  -90.04 input  -60.55 | X-H torsion
[ 11005 11000 10999 10996 ] final   93.51 input  -57.11 | X-H torsion

> <Gold.Protein.ActiveResidues>
 VAL166  LYS551  ARG553  GLY616  TRP617  ASP618  TYR619  PRO620  LYS621  CYS622 
 ASP623  PHE694  ASN695  SER759  ASP760  ASP761  ALA762  ILE779  LEU786  VAL792 
 PHE793  MET794  SER795  GLU796  ALA797  LYS798  CYS799  TRP800  GLU811  SER814 

> <Gold.Protein.RotatedAtoms>
  150.6943  134.4075  159.5146 H   0  0  0  0  0  0  0  0  0  0  0  0  # atno 6907 bound_to 6896
  152.1838  134.8728  160.0533 H   0  0  0  0  0  0  0  0  0  0  0  0  # atno 6908 bound_to 6896
  151.9709  133.3690  159.4107 H   0  0  0  0  0  0  0  0  0  0  0  0  # atno 6909 bound_to 6896
  144.8094  139.6922  143.6148 H   0  0  0  0  0  0  0  0  0  0  0  0  # atno 7974 bound_to 7965
  154.5691  140.2367  155.8219 H   0  0  0  0  0  0  0  0  0  0  0  0  # atno 8008 bound_to 7997
  156.2092  140.3031  155.9653 H   0  0  0  0  0  0  0  0  0  0  0  0  # atno 8009 bound_to 7997
  155.2746  140.0420  157.3000 H   0  0  0  0  0  0  0  0  0  0  0  0  # atno 8010 bound_to 7997
  139.7375  143.8713  152.2553 H   0  0  0  0  0  0  0  0  0  0  0  0  # atno 10167 bound_to 10162
  157.6767  130.9900  150.1886 H   0  0  0  0  0  0  0  0  0  0  0  0  # atno 10718 bound_to 10713
  154.6616  135.5319  153.8025 H   0  0  0  0  0  0  0  0  0  0  0  0  # atno 10763 bound_to 10752
  153.0445  135.6507  154.0863 H   0  0  0  0  0  0  0  0  0  0  0  0  # atno 10764 bound_to 10752
  154.0771  135.2950  155.3277 H   0  0  0  0  0  0  0  0  0  0  0  0  # atno 10765 bound_to 10752
  139.8809  134.8794  156.3728 H   0  0  0  0  0  0  0  0  0  0  0  0  # atno 11005 bound_to 11000
  146.2391  139.5965  142.9504 LP  0  0  0  0  0  0  0  0  0  0  0  0  # atno 17320 bound_to 7965
  145.5359  141.0424  143.2357 LP  0  0  0  0  0  0  0  0  0  0  0  0  # atno 17321 bound_to 7965
  139.8654  144.7096  150.9050 LP  0  0  0  0  0  0  0  0  0  0  0  0  # atno 17342 bound_to 10162
  140.7781  143.3783  151.1523 LP  0  0  0  0  0  0  0  0  0  0  0  0  # atno 17343 bound_to 10162
  156.2603  130.3710  149.8138 LP  0  0  0  0  0  0  0  0  0  0  0  0  # atno 17370 bound_to 10713
  156.5885  130.8496  151.3402 LP  0  0  0  0  0  0  0  0  0  0  0  0  # atno 17371 bound_to 10713
  140.9452  133.7488  156.0199 LP  0  0  0  0  0  0  0  0  0  0  0  0  # atno 17394 bound_to 11000
  140.8172  134.3331  157.5393 LP  0  0  0  0  0  0  0  0  0  0  0  0  # atno 17395 bound_to 11000

$$$$
