AV-unprocessed.smi:2383|AV-procd|sdf|9461|dock2
  -GOLD-   2272013 93D 1   1.00000     0.00000
 Structure written by MMmdl.
 37 38  0  0  0  0  0  0  0  0  1 V2000
  153.5214  141.1349  160.2733 C   0  0  0  0  0  0  0  0  0  0  0  0
  152.7398  142.3017  159.7069 C   0  0  0  0  0  0  0  0  0  0  0  0
  152.8372  143.5853  160.2790 C   0  0  0  0  0  0  0  0  0  0  0  0
  152.0857  144.6257  159.7038 C   0  0  0  0  0  0  0  0  0  0  0  0
  151.2746  144.3419  158.5881 C   0  0  0  0  0  0  0  0  0  0  0  0
  151.2353  143.0265  158.0733 C   0  0  0  0  0  0  0  0  0  0  0  0
  150.3905  142.8460  156.9456 N   0  0  0  0  0  0  0  0  0  0  0  0
  150.1573  141.7172  156.2527 C   0  0  0  0  0  0  0  0  0  0  0  0
  150.6474  140.6150  156.5001 O   0  0  0  0  0  0  0  0  0  0  0  0
  149.3126  141.9393  155.2347 N   0  0  0  0  0  0  0  0  0  0  0  0
  148.8655  140.9356  154.2730 C   0  0  2  0  0  0  0  0  0  0  0  0
  147.6239  141.4359  153.5072 C   0  0  0  0  0  0  0  0  0  0  0  0
  147.0885  140.3685  152.5367 C   0  0  0  0  0  0  0  0  0  0  0  0
  146.8067  139.0271  153.2394 C   0  0  2  0  0  0  0  0  0  0  0  0
  145.6838  139.1507  154.0903 O   0  0  0  0  0  0  0  0  0  0  0  0
  148.0288  138.5419  154.0419 C   0  0  0  0  0  0  0  0  0  0  0  0
  148.5573  139.6177  155.0071 C   0  0  0  0  0  0  0  0  0  0  0  0
  151.9632  142.0297  158.6362 N   0  0  0  0  0  0  0  0  0  0  0  0
  153.9902  141.3969  161.2223 H   0  0  0  0  0  0  0  0  0  0  0  0
  154.3041  140.8321  159.5772 H   0  0  0  0  0  0  0  0  0  0  0  0
  152.8640  140.2818  160.4448 H   0  0  0  0  0  0  0  0  0  0  0  0
  153.4696  143.7707  161.1347 H   0  0  0  0  0  0  0  0  0  0  0  0
  152.1304  145.6252  160.1104 H   0  0  0  0  0  0  0  0  0  0  0  0
  150.6915  145.1301  158.1341 H   0  0  0  0  0  0  0  0  0  0  0  0
  149.9170  143.6762  156.6220 H   0  0  0  0  0  0  0  0  0  0  0  0
  148.9590  142.8759  155.1073 H   0  0  0  0  0  0  0  0  0  0  0  0
  149.6680  140.7441  153.5578 H   0  0  0  0  0  0  0  0  0  0  0  0
  146.8398  141.7111  154.2139 H   0  0  0  0  0  0  0  0  0  0  0  0
  147.8656  142.3422  152.9506 H   0  0  0  0  0  0  0  0  0  0  0  0
  146.1886  140.7316  152.0394 H   0  0  0  0  0  0  0  0  0  0  0  0
  147.8259  140.2079  151.7494 H   0  0  0  0  0  0  0  0  0  0  0  0
  146.5535  138.2785  152.4879 H   0  0  0  0  0  0  0  0  0  0  0  0
  144.9973  139.5981  153.6194 H   0  0  0  0  0  0  0  0  0  0  0  0
  147.7845  137.6318  154.5910 H   0  0  0  0  0  0  0  0  0  0  0  0
  148.8244  138.2714  153.3463 H   0  0  0  0  0  0  0  0  0  0  0  0
  149.4553  139.2500  155.5052 H   0  0  0  0  0  0  0  0  0  0  0  0
  147.8212  139.7946  155.7926 H   0  0  0  0  0  0  0  0  0  0  0  0
  1  2  1  0  0  0  0
  1 19  1  0  0  0  0
  1 20  1  0  0  0  0
  1 21  1  0  0  0  0
  2 18  1  0  0  0  0
  2  3  2  0  0  0  0
  3  4  1  0  0  0  0
  3 22  1  0  0  0  0
  4  5  2  0  0  0  0
  4 23  1  0  0  0  0
  5  6  1  0  0  0  0
  5 24  1  0  0  0  0
  6  7  1  0  0  0  0
  6 18  2  0  0  0  0
  7  8  1  0  0  0  0
  7 25  1  0  0  0  0
  8  9  2  0  0  0  0
  8 10  1  0  0  0  0
 10 11  1  0  0  0  0
 10 26  1  0  0  0  0
 11 17  1  0  0  0  0
 11 12  1  0  0  0  0
 11 27  1  0  0  0  0
 12 13  1  0  0  0  0
 12 28  1  0  0  0  0
 12 29  1  0  0  0  0
 13 14  1  0  0  0  0
 13 30  1  0  0  0  0
 13 31  1  0  0  0  0
 14 15  1  0  0  0  0
 14 16  1  0  0  0  0
 14 32  1  0  0  0  0
 15 33  1  0  0  0  0
 16 17  1  0  0  0  0
 16 34  1  0  0  0  0
 16 35  1  0  0  0  0
 17 36  1  0  0  0  0
 17 37  1  0  0  0  0
M  END
> <s_m_source_file>
AV-unprocessed.smi

> <i_m_source_file_index>
2383

> <i_lp_mmshare_version>
43012

> <i_f3d_flags>
0

> <s_epik_input>
W0NIM11jMVtjSF1bY0hdW2NIXWMobjEpW05IXUMoPU8pW05IXVtDQEBIXTJbQ0gyXVtDSDJdW0NAQEhdKFtPSF0pW0NIMl1bQ0gyXTI=

> <s_epik_cmdline>
J2VwaWtfcHl0aG9uJywgJy1waCcsICc3LjAnLCAnLXRuJywgJzgnLCAnLW1hJywgJzIwMCcsICctbWV0YWxfYmluZGluZycsICctaW1hZScsICc8aW5maWxlLm1hZT4nLCAnLW9tYWUnLCAnPG91dGZpbGUubWFlPic=

> <r_lp_tautomer_probability>
1

> <r_epik_Ionization_Penalty>
9.15533e-05

> <r_epik_Ionization_Penalty_Charging>
0

> <r_epik_Ionization_Penalty_Neutral>
9.15533e-05

> <r_epik_State_Penalty>
-0

> <r_epik_Charging_Adjusted_Penalty>
0

> <i_epik_Tot_Q>
0

> <i_epik_Tot_abs_Q>
0

> <r_epik_Metal_State_Penalty>
-0

> <b_epik_Metal_Only>
0

> <s_lp_Force_Field>
OPLS_2005

> <r_lp_Energy>
13.5371

> <b_lp_Chiralities_Consistent>
1

> <s_lp_Variant>
AV-unprocessed.smi:2383-2

> <Gold.Version>
5.8.1

> <Gold.Id.Protein>
6NUR|6NUR_protein|mol2

> <Gold.PLP.Fitness>
46.7061

> <Gold.PLP.PLP>
-38.1574

> <Gold.PLP.part.hbond>
-3.0000

> <Gold.PLP.part.metal>
0.0000

> <Gold.PLP.part.buried>
-4.3351

> <Gold.PLP.part.nonpolar>
-32.2448

> <Gold.PLP.part.repulsive>
0.2293

> <Gold.PLP.ligand.clash>
0.0000

> <Gold.PLP.ligand.torsion>
0.2270

> <Gold.PLP.Chemscore.Hbond>
3.0000

> <Gold.PLP.Chemscore.CHOScore>
0.0000

> <Gold.PLP.Chemscore.Metal>
0.0000

> <Gold.Chemscore.Hbonds>
donor molecule, donor type, donor heavy atom, donor atom, acceptor molecule, acceptor atom, score
      L1  H     7    25       P1  8028  1.00
      L1  H    10    26       P1  8028  1.00
      L1  H    15    33       P1 10175  1.00

> <Gold.PLP.Chemscore.Internal.Correction>
0.0028

> <Gold.Rescore>
     Score         DG    S(hbond)    S(metal)    S(lipo)     H(rot)  DE(clash)    DE(int)     intcor
     19.84     -22.95       2.96        0.00      96.35       1.44       0.19       2.92       ----

> <Gold.Chemscore.Fitness>
19.8414

> <Gold.Chemscore.DG>
-22.9523

> <Gold.Chemscore.ZeroCoef>
-5.4800

> <Gold.Chemscore.Hbond>
2.9599

> <Gold.Chemscore.Metal>
0.0000

> <Gold.Chemscore.Lipo>
96.3525

> <Gold.Chemscore.Internal_Hbond>
0.0000

> <Gold.Chemscore.DEClash>
0.1927

> <Gold.Chemscore.DEInternal>
2.9183

> <Gold.Chemscore.Rot>
1.4402

> <Gold.Chemscore.Internal.Correction>
   9.000000E+99

> <Gold.Chemscore.Hbonds>
donor molecule, donor type, donor heavy atom, donor atom, acceptor molecule, acceptor atom, score
      L1  H     7    25       P1  8028  1.00
      L1  H    10    26       P1  8028  0.95
      L1  H    15    33       P1 10175  0.99

> <Gold.Chemscore.Hbond.Weighted>
-9.8860

> <Gold.Chemscore.Metal.Weighted>
-0.0000

> <Gold.Chemscore.Lipo.Weighted>
-11.2732

> <Gold.Chemscore.Internal_Hbond.Weighted>
0.0000

> <Gold.Chemscore.DEClash.Weighted>
0.1927

> <Gold.Chemscore.DEInternal.Weighted>
2.9183

> <Gold.Chemscore.Rot.Weighted>
3.6869

> <Gold.Chemscore.Internal.Correction.Weighted>
   9.000000E+99

> <Gold.Protein.RotatedTorsions>
[ 6907 6896 6895 6894 ] final  -47.38 input  -60.11 | X-H torsion
[ 7974 7965 7964 7962 ] final   97.12 input  175.53 | X-H torsion
[ 8008 7997 7996 7995 ] final -100.82 input   59.86 | X-H torsion
[ 10167 10162 10161 10158 ] final   72.17 input  -65.29 | X-H torsion
[ 10718 10713 10712 10709 ] final  129.10 input   66.30 | X-H torsion
[ 10763 10752 10751 10750 ] final -113.24 input  -60.55 | X-H torsion
[ 11005 11000 10999 10996 ] final  102.03 input  -57.11 | X-H torsion

> <Gold.Protein.ActiveResidues>
 VAL166  LYS551  ARG553  GLY616  TRP617  ASP618  TYR619  PRO620  LYS621  CYS622 
 ASP623  PHE694  ASN695  SER759  ASP760  ASP761  ALA762  ILE779  LEU786  VAL792 
 PHE793  MET794  SER795  GLU796  ALA797  LYS798  CYS799  TRP800  GLU811  SER814 

> <Gold.Protein.RotatedAtoms>
  150.9014  134.8426  159.7362 H   0  0  0  0  0  0  0  0  0  0  0  0  # atno 6907 bound_to 6896
  152.4894  134.4497  159.9580 H   0  0  0  0  0  0  0  0  0  0  0  0  # atno 6908 bound_to 6896
  151.4548  133.3569  159.2836 H   0  0  0  0  0  0  0  0  0  0  0  0  # atno 6909 bound_to 6896
  145.4297  139.2312  143.3150 H   0  0  0  0  0  0  0  0  0  0  0  0  # atno 7974 bound_to 7965
  154.8339  140.0438  157.1496 H   0  0  0  0  0  0  0  0  0  0  0  0  # atno 8008 bound_to 7997
  154.9121  140.3015  155.5240 H   0  0  0  0  0  0  0  0  0  0  0  0  # atno 8009 bound_to 7997
  156.2988  140.2356  156.4162 H   0  0  0  0  0  0  0  0  0  0  0  0  # atno 8010 bound_to 7997
  140.0382  144.5411  150.7454 H   0  0  0  0  0  0  0  0  0  0  0  0  # atno 10167 bound_to 10162
  157.5185  131.1098  150.9188 H   0  0  0  0  0  0  0  0  0  0  0  0  # atno 10718 bound_to 10713
  154.8387  135.4461  154.1319 H   0  0  0  0  0  0  0  0  0  0  0  0  # atno 10763 bound_to 10752
  153.2527  135.6928  153.7668 H   0  0  0  0  0  0  0  0  0  0  0  0  # atno 10764 bound_to 10752
  153.6975  135.3377  155.3192 H   0  0  0  0  0  0  0  0  0  0  0  0  # atno 10765 bound_to 10752
  139.8775  134.9207  156.4996 H   0  0  0  0  0  0  0  0  0  0  0  0  # atno 11005 bound_to 11000
  146.2613  140.5033  142.8852 LP  0  0  0  0  0  0  0  0  0  0  0  0  # atno 17320 bound_to 7965
  144.8190  140.6518  143.6365 LP  0  0  0  0  0  0  0  0  0  0  0  0  # atno 17321 bound_to 7965
  140.7272  143.2649  151.4079 LP  0  0  0  0  0  0  0  0  0  0  0  0  # atno 17342 bound_to 10162
  139.6031  144.1253  152.2220 LP  0  0  0  0  0  0  0  0  0  0  0  0  # atno 17343 bound_to 10162
  156.9806  130.5525  149.5296 LP  0  0  0  0  0  0  0  0  0  0  0  0  # atno 17370 bound_to 10713
  156.0337  130.5426  150.8599 LP  0  0  0  0  0  0  0  0  0  0  0  0  # atno 17371 bound_to 10713
  140.8599  133.8067  155.9254 LP  0  0  0  0  0  0  0  0  0  0  0  0  # atno 17394 bound_to 11000
  140.9060  134.2320  157.5014 LP  0  0  0  0  0  0  0  0  0  0  0  0  # atno 17395 bound_to 11000

$$$$
