AV-unprocessed.smi:1415|AV-procd|sdf|5763|dock7
  -GOLD-   22720 5403D 1   1.00000     0.00000
 Structure written by MMmdl.
 40 41  0  0  0  0  0  0  0  0  1 V2000
  144.6549  136.8115  152.4632 O   0  0  0  0  0  0  0  0  0  0  0  0
  145.8521  136.5948  152.2734 C   0  0  0  0  0  0  0  0  0  0  0  0
  146.8172  137.4794  152.5636 N   0  0  0  0  0  0  0  0  0  0  0  0
  146.5901  138.8021  153.1331 C   0  0  0  0  0  0  0  0  0  0  0  0
  147.6508  139.8134  152.6585 C   0  0  0  0  0  0  0  0  0  0  0  0
  147.9996  140.7570  153.7278 N   0  0  0  0  0  0  0  0  0  0  0  0
  146.9464  141.7016  154.1365 C   0  0  0  0  0  0  0  0  0  0  0  0
  146.3718  141.4242  155.5460 C   0  0  0  0  0  0  0  0  0  0  0  0
  147.3303  140.7664  156.5586 C   0  0  0  0  0  0  0  0  0  0  0  0
  148.6861  141.4821  156.7343 C   0  0  0  0  0  0  0  0  0  0  0  0
  149.4989  141.7454  155.4445 C   0  0  0  0  0  0  0  0  0  0  0  0
  149.2245  140.7455  154.3099 C   0  0  0  0  0  0  0  0  0  0  0  0
  150.1198  139.9691  153.9759 O   0  0  0  0  0  0  0  0  0  0  0  0
  146.3661  135.4645  151.7571 N   0  0  0  0  0  0  0  0  0  0  0  0
  145.6735  134.2976  151.3367 C   0  0  0  0  0  0  0  0  0  0  0  0
  146.4941  133.2636  150.8322 C   0  0  0  0  0  0  0  0  0  0  0  0
  145.9039  132.0638  150.3896 C   0  0  0  0  0  0  0  0  0  0  0  0
  144.5062  131.9282  150.4638 C   0  0  0  0  0  0  0  0  0  0  0  0
  143.7622  133.0053  150.9796 C   0  0  0  0  0  0  0  0  0  0  0  0
  144.3260  134.1559  151.4041 N   0  0  0  0  0  0  0  0  0  0  0  0
  147.7753  137.2222  152.3759 H   0  0  0  0  0  0  0  0  0  0  0  0
  145.5981  139.1360  152.8279 H   0  0  0  0  0  0  0  0  0  0  0  0
  146.5718  138.7373  154.2225 H   0  0  0  0  0  0  0  0  0  0  0  0
  148.5480  139.2902  152.3223 H   0  0  0  0  0  0  0  0  0  0  0  0
  147.2865  140.3420  151.7771 H   0  0  0  0  0  0  0  0  0  0  0  0
  147.3413  142.7167  154.0924 H   0  0  0  0  0  0  0  0  0  0  0  0
  146.1225  141.7096  153.4226 H   0  0  0  0  0  0  0  0  0  0  0  0
  145.9879  142.3574  155.9591 H   0  0  0  0  0  0  0  0  0  0  0  0
  145.5046  140.7711  155.4424 H   0  0  0  0  0  0  0  0  0  0  0  0
  146.8337  140.7119  157.5277 H   0  0  0  0  0  0  0  0  0  0  0  0
  147.5012  139.7276  156.2720 H   0  0  0  0  0  0  0  0  0  0  0  0
  148.5207  142.4345  157.2388 H   0  0  0  0  0  0  0  0  0  0  0  0
  149.2965  140.8917  157.4185 H   0  0  0  0  0  0  0  0  0  0  0  0
  149.3097  142.7551  155.0811 H   0  0  0  0  0  0  0  0  0  0  0  0
  150.5632  141.7316  155.6834 H   0  0  0  0  0  0  0  0  0  0  0  0
  147.3695  135.4346  151.6531 H   0  0  0  0  0  0  0  0  0  0  0  0
  147.5665  133.3846  150.7822 H   0  0  0  0  0  0  0  0  0  0  0  0
  146.5135  131.2618  150.0007 H   0  0  0  0  0  0  0  0  0  0  0  0
  144.0168  131.0236  150.1347 H   0  0  0  0  0  0  0  0  0  0  0  0
  142.6869  132.9418  151.0535 H   0  0  0  0  0  0  0  0  0  0  0  0
  1  2  2  0  0  0  0
  2  3  1  0  0  0  0
  2 14  1  0  0  0  0
  3  4  1  0  0  0  0
  3 21  1  0  0  0  0
  4  5  1  0  0  0  0
  4 22  1  0  0  0  0
  4 23  1  0  0  0  0
  5  6  1  0  0  0  0
  5 24  1  0  0  0  0
  5 25  1  0  0  0  0
  6 12  1  0  0  0  0
  6  7  1  0  0  0  0
  7  8  1  0  0  0  0
  7 26  1  0  0  0  0
  7 27  1  0  0  0  0
  8  9  1  0  0  0  0
  8 28  1  0  0  0  0
  8 29  1  0  0  0  0
  9 10  1  0  0  0  0
  9 30  1  0  0  0  0
  9 31  1  0  0  0  0
 10 11  1  0  0  0  0
 10 32  1  0  0  0  0
 10 33  1  0  0  0  0
 11 12  1  0  0  0  0
 11 34  1  0  0  0  0
 11 35  1  0  0  0  0
 12 13  2  0  0  0  0
 14 15  1  0  0  0  0
 14 36  1  0  0  0  0
 15 20  1  0  0  0  0
 15 16  2  0  0  0  0
 16 17  1  0  0  0  0
 16 37  1  0  0  0  0
 17 18  2  0  0  0  0
 17 38  1  0  0  0  0
 18 19  1  0  0  0  0
 18 39  1  0  0  0  0
 19 20  2  0  0  0  0
 19 40  1  0  0  0  0
M  END
> <s_m_source_file>
AV-unprocessed.smi

> <i_m_source_file_index>
1415

> <i_lp_mmshare_version>
43012

> <i_f3d_flags>
0

> <s_epik_input>
bjFbY0hdW2NIXVtjSF1bY0hdYzFbTkhdQyg9TylbTkhdW0NIMl1bQ0gyXU4yW0NIMl1bQ0gyXVtDSDJdW0NIMl1bQ0gyXUMyPU8=

> <s_epik_cmdline>
J2VwaWtfcHl0aG9uJywgJy1waCcsICc3LjAnLCAnLXRuJywgJzgnLCAnLW1hJywgJzIwMCcsICctbWV0YWxfYmluZGluZycsICctaW1hZScsICc8aW5maWxlLm1hZT4nLCAnLW9tYWUnLCAnPG91dGZpbGUubWFlPic=

> <r_lp_tautomer_probability>
1

> <r_epik_Ionization_Penalty>
4.30218e-05

> <r_epik_Ionization_Penalty_Charging>
0

> <r_epik_Ionization_Penalty_Neutral>
4.30218e-05

> <r_epik_State_Penalty>
-0

> <r_epik_Charging_Adjusted_Penalty>
0

> <i_epik_Tot_Q>
0

> <i_epik_Tot_abs_Q>
0

> <r_epik_Metal_State_Penalty>
-0

> <b_epik_Metal_Only>
0

> <s_lp_Force_Field>
OPLS_2005

> <r_lp_Energy>
23.0834

> <b_lp_Chiralities_Consistent>
1

> <s_lp_Variant>
AV-unprocessed.smi:1415-1

> <Gold.Version>
5.8.1

> <Gold.Id.Protein>
6NUR|6NUR_protein|mol2

> <Gold.PLP.Fitness>
44.6572

> <Gold.PLP.PLP>
-33.6470

> <Gold.PLP.part.hbond>
-3.0000

> <Gold.PLP.part.metal>
0.0000

> <Gold.PLP.part.buried>
0.4579

> <Gold.PLP.part.nonpolar>
-32.7275

> <Gold.PLP.part.repulsive>
1.5120

> <Gold.PLP.ligand.clash>
0.0000

> <Gold.PLP.ligand.torsion>
0.4980

> <Gold.PLP.Chemscore.Hbond>
3.0000

> <Gold.PLP.Chemscore.CHOScore>
1.0000

> <Gold.PLP.Chemscore.Metal>
0.0000

> <Gold.Chemscore.Hbonds>
donor molecule, donor type, donor heavy atom, donor atom, acceptor molecule, acceptor atom, score
      L1  H     3    21       P1  7948  1.00
      L1  H    14    36       P1  7948  1.00
      P1  H  7989  7998       L1    13  0.94
      L1  C    19    40       P1 10186  0.53

> <Gold.PLP.Chemscore.Internal.Correction>
0.0062

> <Gold.Rescore>
     Score         DG    S(hbond)    S(metal)    S(lipo)     H(rot)  DE(clash)    DE(int)     intcor
     15.69     -18.87       2.83        0.00      68.01       1.57       1.44       1.74       ----

> <Gold.Chemscore.Fitness>
15.6885

> <Gold.Chemscore.DG>
-18.8669

> <Gold.Chemscore.ZeroCoef>
-5.4800

> <Gold.Chemscore.Hbond>
2.8316

> <Gold.Chemscore.Metal>
0.0000

> <Gold.Chemscore.Lipo>
68.0051

> <Gold.Chemscore.Internal_Hbond>
0.0000

> <Gold.Chemscore.DEClash>
1.4432

> <Gold.Chemscore.DEInternal>
1.7352

> <Gold.Chemscore.Rot>
1.5731

> <Gold.Chemscore.Internal.Correction>
   9.000000E+99

> <Gold.Chemscore.Hbonds>
donor molecule, donor type, donor heavy atom, donor atom, acceptor molecule, acceptor atom, score
      L1  H     3    21       P1  7948  0.97
      L1  H    14    36       P1  7948  0.93
      P1  H  7989  7998       L1    13  0.71

> <Gold.Chemscore.Hbond.Weighted>
-9.4574

> <Gold.Chemscore.Metal.Weighted>
-0.0000

> <Gold.Chemscore.Lipo.Weighted>
-7.9566

> <Gold.Chemscore.Internal_Hbond.Weighted>
0.0000

> <Gold.Chemscore.DEClash.Weighted>
1.4432

> <Gold.Chemscore.DEInternal.Weighted>
1.7352

> <Gold.Chemscore.Rot.Weighted>
4.0271

> <Gold.Chemscore.Internal.Correction.Weighted>
   9.000000E+99

> <Gold.Protein.RotatedTorsions>
[ 6907 6896 6895 6894 ] final   18.67 input  -60.11 | X-H torsion
[ 7974 7965 7964 7962 ] final  -76.16 input  175.53 | X-H torsion
[ 8008 7997 7996 7995 ] final   93.69 input   59.86 | X-H torsion
[ 10167 10162 10161 10158 ] final   13.29 input  -65.29 | X-H torsion
[ 10718 10713 10712 10709 ] final  -42.23 input   66.30 | X-H torsion
[ 10763 10752 10751 10750 ] final  168.30 input  -60.55 | X-H torsion
[ 11005 11000 10999 10996 ] final  165.24 input  -57.11 | X-H torsion

> <Gold.Protein.ActiveResidues>
 VAL166  LYS551  ARG553  GLY616  TRP617  ASP618  TYR619  PRO620  LYS621  CYS622 
 ASP623  PHE694  ASN695  SER759  ASP760  ASP761  ALA762  ILE779  LEU786  VAL792 
 PHE793  MET794  SER795  GLU796  ALA797  LYS798  CYS799  TRP800  GLU811  SER814 

> <Gold.Protein.RotatedAtoms>
  151.8690  135.0496  160.0476 H   0  0  0  0  0  0  0  0  0  0  0  0  # atno 6907 bound_to 6896
  152.2603  133.5287  159.5386 H   0  0  0  0  0  0  0  0  0  0  0  0  # atno 6908 bound_to 6896
  150.7114  134.0754  159.3921 H   0  0  0  0  0  0  0  0  0  0  0  0  # atno 6909 bound_to 6896
  145.6165  140.9374  143.1161 H   0  0  0  0  0  0  0  0  0  0  0  0  # atno 7974 bound_to 7965
  156.0496  140.3309  155.7336 H   0  0  0  0  0  0  0  0  0  0  0  0  # atno 8008 bound_to 7997
  155.5621  140.0620  157.2844 H   0  0  0  0  0  0  0  0  0  0  0  0  # atno 8009 bound_to 7997
  154.4430  140.1875  156.0781 H   0  0  0  0  0  0  0  0  0  0  0  0  # atno 8010 bound_to 7997
  140.6012  143.8601  150.6967 H   0  0  0  0  0  0  0  0  0  0  0  0  # atno 10167 bound_to 10162
  156.2619  130.4198  149.8533 H   0  0  0  0  0  0  0  0  0  0  0  0  # atno 10718 bound_to 10713
  154.3665  135.2753  155.2290 H   0  0  0  0  0  0  0  0  0  0  0  0  # atno 10763 bound_to 10752
  154.4456  135.5943  153.6161 H   0  0  0  0  0  0  0  0  0  0  0  0  # atno 10764 bound_to 10752
  152.9840  135.6029  154.3891 H   0  0  0  0  0  0  0  0  0  0  0  0  # atno 10765 bound_to 10752
  140.2541  134.7953  157.3530 H   0  0  0  0  0  0  0  0  0  0  0  0  # atno 11005 bound_to 11000
  144.7248  139.7910  143.7369 LP  0  0  0  0  0  0  0  0  0  0  0  0  # atno 17320 bound_to 7965
  146.1464  139.4534  143.0076 LP  0  0  0  0  0  0  0  0  0  0  0  0  # atno 17321 bound_to 7965
  140.2147  143.3856  152.1690 LP  0  0  0  0  0  0  0  0  0  0  0  0  # atno 17342 bound_to 10162
  139.5292  144.7139  151.5116 LP  0  0  0  0  0  0  0  0  0  0  0  0  # atno 17343 bound_to 10162
  156.6046  130.8561  151.3440 LP  0  0  0  0  0  0  0  0  0  0  0  0  # atno 17370 bound_to 10713
  157.7253  130.9614  150.1610 LP  0  0  0  0  0  0  0  0  0  0  0  0  # atno 17371 bound_to 10713
  140.1528  134.4827  155.7949 LP  0  0  0  0  0  0  0  0  0  0  0  0  # atno 17394 bound_to 11000
  141.2198  133.6869  156.7409 LP  0  0  0  0  0  0  0  0  0  0  0  0  # atno 17395 bound_to 11000

$$$$
