AV-unprocessed.smi:593|AV-procd|sdf|3013|dock8
  -GOLD-   2262023523D 1   1.00000     0.00000
 Structure written by MMmdl.
 40 41  0  0  0  0  0  0  0  0  3 V2000
  155.0271  138.8954  158.8860 O   0  0  0  0  0  0  0  0  0  0  0  0
  153.8507  138.9202  159.2446 C   0  0  0  0  0  0  0  0  0  0  0  0
  153.0439  137.6097  159.2598 C   0  0  0  0  0  0  0  0  0  0  0  0
  151.8827  137.5846  158.3503 N   0  0  0  0  0  0  0  0  0  0  0  0
  152.1167  137.9419  157.0078 C   0  0  0  0  0  0  0  0  0  0  0  0
  151.1345  137.9448  156.0855 C   0  0  0  0  0  0  0  0  0  0  0  0
  151.3953  138.3077  154.7099 N   0  3  0  0  0  0  0  0  0  0  0  0
  152.2186  137.6559  154.0755 O   0  0  0  0  0  0  0  0  0  0  0  0
  150.7880  139.2545  154.2185 O   0  5  0  0  0  0  0  0  0  0  0  0
  149.8035  137.5651  156.5172 C   0  0  0  0  0  0  0  0  0  0  0  0
  149.5735  137.2178  157.7987 C   0  0  0  0  0  0  0  0  0  0  0  0
  150.6451  137.2105  158.7996 C   0  0  0  0  0  0  0  0  0  0  0  0
  150.4447  136.8795  159.9681 O   0  0  0  0  0  0  0  0  0  0  0  0
  153.2312  140.0490  159.6246 N   0  0  0  0  0  0  0  0  0  0  0  0
  153.8277  141.3770  159.6266 C   0  0  0  0  0  0  0  0  0  0  0  0
  152.7544  142.4650  159.8234 C   0  0  0  0  0  0  0  0  0  0  0  0
  152.8171  143.5595  158.7331 C   0  0  0  0  0  0  0  0  0  0  0  0
  151.7523  144.6461  158.9544 C   0  0  0  0  0  0  0  0  0  0  0  0
  151.8683  145.2655  160.3552 C   0  0  0  0  0  0  0  0  0  0  0  0
  151.7976  144.1847  161.4440 C   0  0  0  0  0  0  0  0  0  0  0  0
  152.8657  143.1012  161.2236 C   0  0  0  0  0  0  0  0  0  0  0  0
  153.7216  136.7859  159.0295 H   0  0  0  0  0  0  0  0  0  0  0  0
  152.7210  137.4255  160.2854 H   0  0  0  0  0  0  0  0  0  0  0  0
  153.1420  138.2013  156.7861 H   0  0  0  0  0  0  0  0  0  0  0  0
  148.9819  137.5551  155.8160 H   0  0  0  0  0  0  0  0  0  0  0  0
  148.5745  136.9367  158.0983 H   0  0  0  0  0  0  0  0  0  0  0  0
  152.2648  139.9860  159.9101 H   0  0  0  0  0  0  0  0  0  0  0  0
  154.5653  141.4247  160.4288 H   0  0  0  0  0  0  0  0  0  0  0  0
  154.3621  141.5467  158.6901 H   0  0  0  0  0  0  0  0  0  0  0  0
  151.7777  141.9827  159.7571 H   0  0  0  0  0  0  0  0  0  0  0  0
  153.8072  144.0170  158.7292 H   0  0  0  0  0  0  0  0  0  0  0  0
  152.6764  143.1243  157.7431 H   0  0  0  0  0  0  0  0  0  0  0  0
  151.8522  145.4234  158.1962 H   0  0  0  0  0  0  0  0  0  0  0  0
  150.7587  144.2149  158.8262 H   0  0  0  0  0  0  0  0  0  0  0  0
  152.8108  145.8079  160.4390 H   0  0  0  0  0  0  0  0  0  0  0  0
  151.0749  145.9980  160.5057 H   0  0  0  0  0  0  0  0  0  0  0  0
  151.9268  144.6393  162.4264 H   0  0  0  0  0  0  0  0  0  0  0  0
  150.8072  143.7278  161.4423 H   0  0  0  0  0  0  0  0  0  0  0  0
  152.7669  142.3329  161.9911 H   0  0  0  0  0  0  0  0  0  0  0  0
  153.8570  143.5383  161.3522 H   0  0  0  0  0  0  0  0  0  0  0  0
  1  2  2  0  0  0  0
  2  3  1  0  0  0  0
  2 14  1  0  0  0  0
  3  4  1  0  0  0  0
  3 22  1  0  0  0  0
  3 23  1  0  0  0  0
  4 12  1  0  0  0  0
  4  5  1  0  0  0  0
  5  6  2  0  0  0  0
  5 24  1  0  0  0  0
  6  7  1  0  0  0  0
  6 10  1  0  0  0  0
  7  8  2  0  0  0  0
  7  9  1  0  0  0  0
 10 11  2  0  0  0  0
 10 25  1  0  0  0  0
 11 12  1  0  0  0  0
 11 26  1  0  0  0  0
 12 13  2  0  0  0  0
 14 15  1  0  0  0  0
 14 27  1  0  0  0  0
 15 16  1  0  0  0  0
 15 28  1  0  0  0  0
 15 29  1  0  0  0  0
 16 21  1  0  0  0  0
 16 17  1  0  0  0  0
 16 30  1  0  0  0  0
 17 18  1  0  0  0  0
 17 31  1  0  0  0  0
 17 32  1  0  0  0  0
 18 19  1  0  0  0  0
 18 33  1  0  0  0  0
 18 34  1  0  0  0  0
 19 20  1  0  0  0  0
 19 35  1  0  0  0  0
 19 36  1  0  0  0  0
 20 21  1  0  0  0  0
 20 37  1  0  0  0  0
 20 38  1  0  0  0  0
 21 39  1  0  0  0  0
 21 40  1  0  0  0  0
M  CHG  1   7   1
M  CHG  1   9  -1
M  END
> <s_m_source_file>
AV-unprocessed.smi

> <i_m_source_file_index>
593

> <i_lp_mmshare_version>
43012

> <i_f3d_flags>
0

> <s_epik_input>
W0NIMl0xW0NIMl1bQ0gyXVtDSDJdW0NIMl1bQ0hdMVtDSDJdW05IXUMoPU8pW0NIMl1uMltjSF1jKFtOK10oPU8pW08tXSlbY0hdW2NIXWMyPU8=

> <s_epik_cmdline>
J2VwaWtfcHl0aG9uJywgJy1waCcsICc3LjAnLCAnLXRuJywgJzgnLCAnLW1hJywgJzIwMCcsICctbWV0YWxfYmluZGluZycsICctaW1hZScsICc8aW5maWxlLm1hZT4nLCAnLW9tYWUnLCAnPG91dGZpbGUubWFlPic=

> <r_lp_tautomer_probability>
1

> <r_epik_Ionization_Penalty>
1.98738e-08

> <r_epik_Ionization_Penalty_Charging>
7.60687e-11

> <r_epik_Ionization_Penalty_Neutral>
1.97978e-08

> <r_epik_State_Penalty>
-0

> <r_epik_Charging_Adjusted_Penalty>
7.60687e-11

> <i_epik_Tot_Q>
0

> <i_epik_Tot_abs_Q>
2

> <r_epik_Metal_State_Penalty>
-0

> <b_epik_Metal_Only>
0

> <s_lp_Force_Field>
OPLS_2005

> <r_lp_Energy>
22.1176

> <b_lp_Chiralities_Consistent>
1

> <s_lp_Variant>
AV-unprocessed.smi:593-1

> <Gold.Version>
5.8.1

> <Gold.Id.Protein>
6NUR|6NUR_protein|mol2

> <Gold.PLP.Fitness>
48.3706

> <Gold.PLP.PLP>
-41.1164

> <Gold.PLP.part.hbond>
-4.5598

> <Gold.PLP.part.metal>
0.0000

> <Gold.PLP.part.buried>
-5.0213

> <Gold.PLP.part.nonpolar>
-32.1158

> <Gold.PLP.part.repulsive>
0.4493

> <Gold.PLP.ligand.clash>
0.0000

> <Gold.PLP.ligand.torsion>
1.9579

> <Gold.PLP.Chemscore.Hbond>
3.7160

> <Gold.PLP.Chemscore.CHOScore>
0.0000

> <Gold.PLP.Chemscore.Metal>
0.0000

> <Gold.Chemscore.Hbonds>
donor molecule, donor type, donor heavy atom, donor atom, acceptor molecule, acceptor atom, score
      P1  H  6896  6909       L1    13  0.95
      P1  H  7989  7998       L1     9  1.00
      P1  H  7997  8010       L1     1  1.00
      P1  H 10752 10764       L1     8  0.66

> <Gold.PLP.Chemscore.Internal.Correction>
0.0219

> <Gold.Rescore>
     Score         DG    S(hbond)    S(metal)    S(lipo)     H(rot)  DE(clash)    DE(int)     intcor
     20.77     -22.86       3.05        0.00     100.57       1.78       0.06       2.04       ----

> <Gold.Chemscore.Fitness>
20.7662

> <Gold.Chemscore.DG>
-22.8609

> <Gold.Chemscore.ZeroCoef>
-5.4800

> <Gold.Chemscore.Hbond>
3.0471

> <Gold.Chemscore.Metal>
0.0000

> <Gold.Chemscore.Lipo>
100.5658

> <Gold.Chemscore.Internal_Hbond>
0.0000

> <Gold.Chemscore.DEClash>
0.0586

> <Gold.Chemscore.DEInternal>
2.0361

> <Gold.Chemscore.Rot>
1.7823

> <Gold.Chemscore.Internal.Correction>
   9.000000E+99

> <Gold.Chemscore.Hbonds>
donor molecule, donor type, donor heavy atom, donor atom, acceptor molecule, acceptor atom, score
      P1  H  6896  6909       L1    13  0.21
      P1  H  7989  7998       L1     9  0.99
      P1  H  7997  8010       L1     1  0.78
      P1  H 10752 10764       L1     8  0.64

> <Gold.Chemscore.Hbond.Weighted>
-10.1774

> <Gold.Chemscore.Metal.Weighted>
-0.0000

> <Gold.Chemscore.Lipo.Weighted>
-11.7662

> <Gold.Chemscore.Internal_Hbond.Weighted>
0.0000

> <Gold.Chemscore.DEClash.Weighted>
0.0586

> <Gold.Chemscore.DEInternal.Weighted>
2.0361

> <Gold.Chemscore.Rot.Weighted>
4.5627

> <Gold.Chemscore.Internal.Correction.Weighted>
   9.000000E+99

> <Gold.Protein.RotatedTorsions>
[ 6907 6896 6895 6894 ] final   94.24 input  -60.11 | X-H torsion
[ 7974 7965 7964 7962 ] final  -85.64 input  175.53 | X-H torsion
[ 8008 7997 7996 7995 ] final  -11.67 input   59.86 | X-H torsion
[ 10167 10162 10161 10158 ] final  116.28 input  -65.29 | X-H torsion
[ 10718 10713 10712 10709 ] final   44.96 input   66.30 | X-H torsion
[ 10763 10752 10751 10750 ] final  -92.75 input  -60.55 | X-H torsion
[ 11005 11000 10999 10996 ] final   72.78 input  -57.11 | X-H torsion

> <Gold.Protein.ActiveResidues>
 VAL166  LYS551  ARG553  GLY616  TRP617  ASP618  TYR619  PRO620  LYS621  CYS622 
 ASP623  PHE694  ASN695  SER759  ASP760  ASP761  ALA762  ILE779  LEU786  VAL792 
 PHE793  MET794  SER795  GLU796  ALA797  LYS798  CYS799  TRP800  GLU811  SER814 

> <Gold.Protein.RotatedAtoms>
  152.5450  134.1225  159.8404 H   0  0  0  0  0  0  0  0  0  0  0  0  # atno 6907 bound_to 6896
  151.1279  133.5050  159.2607 H   0  0  0  0  0  0  0  0  0  0  0  0  # atno 6908 bound_to 6896
  151.1707  135.0326  159.8805 H   0  0  0  0  0  0  0  0  0  0  0  0  # atno 6909 bound_to 6896
  145.4906  140.9553  143.1814 H   0  0  0  0  0  0  0  0  0  0  0  0  # atno 7974 bound_to 7965
  154.5445  140.2296  155.8586 H   0  0  0  0  0  0  0  0  0  0  0  0  # atno 8008 bound_to 7997
  156.1889  140.3082  155.9255 H   0  0  0  0  0  0  0  0  0  0  0  0  # atno 8009 bound_to 7997
  155.3192  140.0439  157.3029 H   0  0  0  0  0  0  0  0  0  0  0  0  # atno 8010 bound_to 7997
  139.6258  144.7108  151.2537 H   0  0  0  0  0  0  0  0  0  0  0  0  # atno 10167 bound_to 10162
  157.4325  130.8033  149.7616 H   0  0  0  0  0  0  0  0  0  0  0  0  # atno 10718 bound_to 10713
  154.6892  135.5219  153.8369 H   0  0  0  0  0  0  0  0  0  0  0  0  # atno 10763 bound_to 10752
  153.0620  135.6571  154.0451 H   0  0  0  0  0  0  0  0  0  0  0  0  # atno 10764 bound_to 10752
  154.0328  135.2984  155.3346 H   0  0  0  0  0  0  0  0  0  0  0  0  # atno 10765 bound_to 10752
  139.9473  134.7290  156.0947 H   0  0  0  0  0  0  0  0  0  0  0  0  # atno 11005 bound_to 11000
  144.7836  139.6473  143.7143 LP  0  0  0  0  0  0  0  0  0  0  0  0  # atno 17320 bound_to 7965
  146.2286  139.5771  142.9570 LP  0  0  0  0  0  0  0  0  0  0  0  0  # atno 17321 bound_to 7965
  140.7410  143.6571  150.8197 LP  0  0  0  0  0  0  0  0  0  0  0  0  # atno 17342 bound_to 10162
  140.0189  143.5564  152.2809 LP  0  0  0  0  0  0  0  0  0  0  0  0  # atno 17343 bound_to 10162
  155.9918  130.3935  150.2968 LP  0  0  0  0  0  0  0  0  0  0  0  0  # atno 17370 bound_to 10713
  157.1126  131.0225  151.3042 LP  0  0  0  0  0  0  0  0  0  0  0  0  # atno 17371 bound_to 10713
  141.1127  133.6638  156.3018 LP  0  0  0  0  0  0  0  0  0  0  0  0  # atno 17394 bound_to 11000
  140.5803  134.5752  157.5478 LP  0  0  0  0  0  0  0  0  0  0  0  0  # atno 17395 bound_to 11000

$$$$
