AV-unprocessed.smi:618|AV-procd|sdf|3081|dock3
  -GOLD-   22720 0 03D 1   1.00000     0.00000
 Structure written by MMmdl.
 41 43  0  0  0  0  0  0  0  0  2 V2000
  150.6449  135.0928  156.0650 O   0  0  0  0  0  0  0  0  0  0  0  0
  150.2575  135.3742  154.9313 C   0  0  0  0  0  0  0  0  0  0  0  0
  149.6732  134.4902  154.1102 N   0  0  0  0  0  0  0  0  0  0  0  0
  149.4157  133.0894  154.4300 C   0  0  0  0  0  0  0  0  0  0  0  0
  148.6353  132.3786  153.3096 C   0  0  1  0  0  0  0  0  0  0  0  0
  148.2271  130.9432  153.7198 C   0  0  0  0  0  0  0  0  0  0  0  0
  147.3942  130.3714  152.6458 N   0  3  1  0  0  0  0  0  0  0  0  0
  146.8975  128.9934  152.8023 C   0  0  0  0  0  0  0  0  0  0  0  0
  145.6458  128.9218  151.9044 C   0  0  0  0  0  0  0  0  0  0  0  0
  145.4008  130.3603  151.4121 C   0  0  0  0  0  0  0  0  0  0  0  0
  146.2156  131.2015  152.3891 C   0  0  2  0  0  0  0  0  0  0  0  0
  146.6743  132.5951  151.9427 C   0  0  0  0  0  0  0  0  0  0  0  0
  147.4639  133.1430  152.9993 O   0  0  0  0  0  0  0  0  0  0  0  0
  150.3362  136.5891  154.3619 N   0  0  0  0  0  0  0  0  0  0  0  0
  150.8864  137.7823  154.9029 C   0  0  0  0  0  0  0  0  0  0  0  0
  151.7852  137.8194  155.9966 C   0  0  0  0  0  0  0  0  0  0  0  0
  152.2760  139.0658  156.4307 C   0  0  0  0  0  0  0  0  0  0  0  0
  151.8581  140.2270  155.7524 C   0  0  0  0  0  0  0  0  0  0  0  0
  151.0139  140.2053  154.6995 N   0  0  0  0  0  0  0  0  0  0  0  0
  150.5480  139.0068  154.2882 C   0  0  0  0  0  0  0  0  0  0  0  0
  149.3878  134.8085  153.1954 H   0  0  0  0  0  0  0  0  0  0  0  0
  150.3828  132.6051  154.5660 H   0  0  0  0  0  0  0  0  0  0  0  0
  148.8908  132.9977  155.3827 H   0  0  0  0  0  0  0  0  0  0  0  0
  149.2649  132.3277  152.4191 H   0  0  0  0  0  0  0  0  0  0  0  0
  149.1089  130.3198  153.8715 H   0  0  0  0  0  0  0  0  0  0  0  0
  147.6690  130.9536  154.6575 H   0  0  0  0  0  0  0  0  0  0  0  0
  147.6597  128.2675  152.5178 H   0  0  0  0  0  0  0  0  0  0  0  0
  146.6241  128.8105  153.8426 H   0  0  0  0  0  0  0  0  0  0  0  0
  145.7908  128.2426  151.0634 H   0  0  0  0  0  0  0  0  0  0  0  0
  144.7925  128.5565  152.4777 H   0  0  0  0  0  0  0  0  0  0  0  0
  145.7885  130.4777  150.3991 H   0  0  0  0  0  0  0  0  0  0  0  0
  144.3444  130.6310  151.4026 H   0  0  0  0  0  0  0  0  0  0  0  0
  145.6459  131.2961  153.3165 H   0  0  0  0  0  0  0  0  0  0  0  0
  147.2525  132.5518  151.0184 H   0  0  0  0  0  0  0  0  0  0  0  0
  145.8160  133.2426  151.7626 H   0  0  0  0  0  0  0  0  0  0  0  0
  149.8978  136.6867  153.4578 H   0  0  0  0  0  0  0  0  0  0  0  0
  152.1166  136.9237  156.4983 H   0  0  0  0  0  0  0  0  0  0  0  0
  152.9619  139.1292  157.2622 H   0  0  0  0  0  0  0  0  0  0  0  0
  152.2164  141.1981  156.0602 H   0  0  0  0  0  0  0  0  0  0  0  0
  149.8769  139.0279  153.4419 H   0  0  0  0  0  0  0  0  0  0  0  0
  147.9432  130.3829  151.7979 H   0  0  0  0  0  0  0  0  0  0  0  0
  1  2  2  0  0  0  0
  2  3  1  0  0  0  0
  2 14  1  0  0  0  0
  3  4  1  0  0  0  0
  3 21  1  0  0  0  0
  4  5  1  0  0  0  0
  4 22  1  0  0  0  0
  4 23  1  0  0  0  0
  5 13  1  0  0  0  0
  5  6  1  0  0  0  0
  5 24  1  0  0  0  0
  6  7  1  0  0  0  0
  6 25  1  0  0  0  0
  6 26  1  0  0  0  0
  7 11  1  0  0  0  0
  7  8  1  0  0  0  0
  7 41  1  0  0  0  0
  8  9  1  0  0  0  0
  8 27  1  0  0  0  0
  8 28  1  0  0  0  0
  9 10  1  0  0  0  0
  9 29  1  0  0  0  0
  9 30  1  0  0  0  0
 10 11  1  0  0  0  0
 10 31  1  0  0  0  0
 10 32  1  0  0  0  0
 11 12  1  0  0  0  0
 11 33  1  0  0  0  0
 12 13  1  0  0  0  0
 12 34  1  0  0  0  0
 12 35  1  0  0  0  0
 14 15  1  0  0  0  0
 14 36  1  0  0  0  0
 15 20  1  0  0  0  0
 15 16  2  0  0  0  0
 16 17  1  0  0  0  0
 16 37  1  0  0  0  0
 17 18  2  0  0  0  0
 17 38  1  0  0  0  0
 18 19  1  0  0  0  0
 18 39  1  0  0  0  0
 19 20  2  0  0  0  0
 20 40  1  0  0  0  0
M  CHG  1   7   1
M  END
> <s_m_source_file>
AV-unprocessed.smi

> <i_m_source_file_index>
618

> <i_lp_mmshare_version>
43012

> <i_f3d_flags>
0

> <s_epik_input>
W2NIXTFuW2NIXVtjSF1bY0hdYzFbTkhdQyg9TylbTkhdW0NIMl1bQ0BIXShbQ0gyXTIpT1tDSDJdW0NAQEhdKE4yMylbQ0gyXVtDSDJdW0NIMl0z

> <s_epik_cmdline>
J2VwaWtfcHl0aG9uJywgJy1waCcsICc3LjAnLCAnLXRuJywgJzgnLCAnLW1hJywgJzIwMCcsICctbWV0YWxfYmluZGluZycsICctaW1hZScsICc8aW5maWxlLm1hZT4nLCAnLW9tYWUnLCAnPG91dGZpbGUubWFlPic=

> <r_epik_Ionization_Penalty>
0.111044

> <r_epik_Ionization_Penalty_Charging>
0.10673

> <r_epik_Ionization_Penalty_Neutral>
0.00431361

> <r_epik_State_Penalty>
0.0978747

> <r_epik_Charging_Adjusted_Penalty>
0.204605

> <i_epik_Tot_Q>
1

> <i_epik_Tot_abs_Q>
1

> <r_epik_Metal_State_Penalty>
0.0947591

> <b_epik_Metal_Only>
0

> <s_lp_Force_Field>
OPLS_2005

> <r_lp_Energy>
39.3215

> <b_lp_Chiralities_Consistent>
1

> <s_lp_Variant>
AV-unprocessed.smi:618-8

> <Gold.Version>
5.8.1

> <Gold.Id.Protein>
6NUR|6NUR_protein|mol2

> <Gold.PLP.Fitness>
51.6503

> <Gold.PLP.PLP>
-38.5062

> <Gold.PLP.part.hbond>
-4.7860

> <Gold.PLP.part.metal>
0.0000

> <Gold.PLP.part.buried>
-5.0708

> <Gold.PLP.part.nonpolar>
-29.2727

> <Gold.PLP.part.repulsive>
0.3417

> <Gold.PLP.ligand.clash>
0.0000

> <Gold.PLP.ligand.torsion>
0.1039

> <Gold.PLP.Chemscore.Hbond>
3.4500

> <Gold.PLP.Chemscore.CHOScore>
1.0000

> <Gold.PLP.Chemscore.Metal>
0.0000

> <Gold.Chemscore.Hbonds>
donor molecule, donor type, donor heavy atom, donor atom, acceptor molecule, acceptor atom, score
      L1  H     3    21       P1  7948  0.35
      L1  H     7    41       P1 10747  1.00
      L1  H    14    36       P1  7948  1.00
      P1  H  7989  7998       L1    19  0.94
      L1  C    20    40       P1  7957  1.00

> <Gold.PLP.Chemscore.Internal.Correction>
0.0019

> <Gold.Rescore>
     Score         DG    S(hbond)    S(metal)    S(lipo)     H(rot)  DE(clash)    DE(int)     intcor
     18.75     -20.02       2.14        0.00      90.85       1.27       0.00       1.27       ----

> <Gold.Chemscore.Fitness>
18.7474

> <Gold.Chemscore.DG>
-20.0241

> <Gold.Chemscore.ZeroCoef>
-5.4800

> <Gold.Chemscore.Hbond>
2.1420

> <Gold.Chemscore.Metal>
0.0000

> <Gold.Chemscore.Lipo>
90.8520

> <Gold.Chemscore.Internal_Hbond>
0.0000

> <Gold.Chemscore.DEClash>
0.0030

> <Gold.Chemscore.DEInternal>
1.2738

> <Gold.Chemscore.Rot>
1.2656

> <Gold.Chemscore.Internal.Correction>
   9.000000E+99

> <Gold.Chemscore.Hbonds>
donor molecule, donor type, donor heavy atom, donor atom, acceptor molecule, acceptor atom, score
      L1  H     3    21       P1  7948  0.01
      L1  H     7    41       P1 10747  1.00
      L1  H    14    36       P1  7948  0.25
      P1  H  7989  7998       L1    19  0.43

> <Gold.Chemscore.Hbond.Weighted>
-7.1543

> <Gold.Chemscore.Metal.Weighted>
-0.0000

> <Gold.Chemscore.Lipo.Weighted>
-10.6297

> <Gold.Chemscore.Internal_Hbond.Weighted>
0.0000

> <Gold.Chemscore.DEClash.Weighted>
0.0030

> <Gold.Chemscore.DEInternal.Weighted>
1.2738

> <Gold.Chemscore.Rot.Weighted>
3.2399

> <Gold.Chemscore.Internal.Correction.Weighted>
   9.000000E+99

> <Gold.Protein.RotatedTorsions>
[ 6907 6896 6895 6894 ] final  -36.71 input  -60.11 | X-H torsion
[ 7974 7965 7964 7962 ] final   56.08 input  175.53 | X-H torsion
[ 8008 7997 7996 7995 ] final  -56.23 input   59.86 | X-H torsion
[ 10167 10162 10161 10158 ] final -156.28 input  -65.29 | X-H torsion
[ 10718 10713 10712 10709 ] final -169.75 input   66.30 | X-H torsion
[ 10763 10752 10751 10750 ] final  -37.03 input  -60.55 | X-H torsion
[ 11005 11000 10999 10996 ] final  -90.17 input  -57.11 | X-H torsion

> <Gold.Protein.ActiveResidues>
 VAL166  LYS551  ARG553  GLY616  TRP617  ASP618  TYR619  PRO620  LYS621  CYS622 
 ASP623  PHE694  ASN695  SER759  ASP760  ASP761  ALA762  ILE779  LEU786  VAL792 
 PHE793  MET794  SER795  GLU796  ALA797  LYS798  CYS799  TRP800  GLU811  SER814 

> <Gold.Protein.RotatedAtoms>
  151.0237  134.9488  159.8073 H   0  0  0  0  0  0  0  0  0  0  0  0  # atno 6907 bound_to 6896
  152.5331  134.2870  159.9039 H   0  0  0  0  0  0  0  0  0  0  0  0  # atno 6908 bound_to 6896
  151.2878  133.4137  159.2665 H   0  0  0  0  0  0  0  0  0  0  0  0  # atno 6909 bound_to 6896
  145.9436  139.3910  143.0348 H   0  0  0  0  0  0  0  0  0  0  0  0  # atno 7974 bound_to 7965
  154.4222  140.1134  156.5603 H   0  0  0  0  0  0  0  0  0  0  0  0  # atno 8008 bound_to 7997
  155.6318  140.3495  155.4666 H   0  0  0  0  0  0  0  0  0  0  0  0  # atno 8009 bound_to 7997
  155.9942  140.1185  157.0599 H   0  0  0  0  0  0  0  0  0  0  0  0  # atno 8010 bound_to 7997
  139.6863  143.9496  152.2362 H   0  0  0  0  0  0  0  0  0  0  0  0  # atno 10167 bound_to 10162
  156.7160  130.9252  151.3093 H   0  0  0  0  0  0  0  0  0  0  0  0  # atno 10718 bound_to 10713
  153.8896  135.6813  153.4761 H   0  0  0  0  0  0  0  0  0  0  0  0  # atno 10763 bound_to 10752
  153.1188  135.4749  154.9159 H   0  0  0  0  0  0  0  0  0  0  0  0  # atno 10764 bound_to 10752
  154.7629  135.3216  154.8296 H   0  0  0  0  0  0  0  0  0  0  0  0  # atno 10765 bound_to 10752
  141.1571  133.7675  156.9700 H   0  0  0  0  0  0  0  0  0  0  0  0  # atno 11005 bound_to 11000
  145.8266  140.9652  143.0871 LP  0  0  0  0  0  0  0  0  0  0  0  0  # atno 17320 bound_to 7965
  144.6783  140.0109  143.7484 LP  0  0  0  0  0  0  0  0  0  0  0  0  # atno 17321 bound_to 7965
  139.9300  144.6747  150.8373 LP  0  0  0  0  0  0  0  0  0  0  0  0  # atno 17342 bound_to 10162
  140.7668  143.3315  151.2399 LP  0  0  0  0  0  0  0  0  0  0  0  0  # atno 17343 bound_to 10162
  157.6917  130.9240  150.0532 LP  0  0  0  0  0  0  0  0  0  0  0  0  # atno 17370 bound_to 10713
  156.1627  130.3644  149.9276 LP  0  0  0  0  0  0  0  0  0  0  0  0  # atno 17371 bound_to 10713
  140.1136  134.9461  157.2101 LP  0  0  0  0  0  0  0  0  0  0  0  0  # atno 17394 bound_to 11000
  140.3162  134.2967  155.7256 LP  0  0  0  0  0  0  0  0  0  0  0  0  # atno 17395 bound_to 11000

$$$$
