AV-unprocessed.smi:752|AV-procd|sdf|3596|dock9
  -GOLD-   22720 0593D 1   1.00000     0.00000
 Structure written by MMmdl.
 41 42  0  0  0  0  0  0  0  0  1 V2000
  147.1501  137.7681  162.9654 C   0  0  0  0  0  0  0  0  0  0  0  0
  146.2876  137.0900  161.8957 C   0  0  0  0  0  0  0  0  0  0  0  0
  147.0946  136.5669  160.7551 C   0  0  0  0  0  0  0  0  0  0  0  0
  147.8637  137.3386  159.9830 N   0  0  0  0  0  0  0  0  0  0  0  0
  148.4994  136.6209  158.9646 C   0  0  0  0  0  0  0  0  0  0  0  0
  149.4144  137.3307  158.0078 C   0  0  0  0  0  0  0  0  0  0  0  0
  150.6486  137.8798  158.7308 C   0  0  0  0  0  0  0  0  0  0  0  0
  151.3725  137.1303  159.3874 O   0  0  0  0  0  0  0  0  0  0  0  0
  150.8683  139.1988  158.6120 N   0  0  0  0  0  0  0  0  0  0  0  0
  151.9775  139.9344  159.2130 C   0  0  0  0  0  0  0  0  0  0  0  0
  151.7773  141.4640  159.1511 C   0  0  1  0  0  0  0  0  0  0  0  0
  152.7346  142.2363  160.0875 C   0  0  0  0  0  0  0  0  0  0  0  0
  152.5376  143.7576  159.9843 C   0  0  0  0  0  0  0  0  0  0  0  0
  152.6878  144.2447  158.5360 C   0  0  0  0  0  0  0  0  0  0  0  0
  151.7232  143.4928  157.6051 C   0  0  1  0  0  0  0  0  0  0  0  0
  151.9302  143.9126  156.2728 O   0  0  0  0  0  0  0  0  0  0  0  0
  151.9322  141.9714  157.7024 C   0  0  0  0  0  0  0  0  0  0  0  0
  148.1765  135.2859  158.9629 C   0  0  0  0  0  0  0  0  0  0  0  0
  147.0735  134.8818  160.2493 S   0  0  0  0  0  0  0  0  0  0  0  0
  146.5327  138.1431  163.7816 H   0  0  0  0  0  0  0  0  0  0  0  0
  147.7012  138.6118  162.5488 H   0  0  0  0  0  0  0  0  0  0  0  0
  147.8732  137.0702  163.3883 H   0  0  0  0  0  0  0  0  0  0  0  0
  145.7262  136.2660  162.3376 H   0  0  0  0  0  0  0  0  0  0  0  0
  145.5527  137.7960  161.5083 H   0  0  0  0  0  0  0  0  0  0  0  0
  149.7196  136.6530  157.2094 H   0  0  0  0  0  0  0  0  0  0  0  0
  148.9019  138.1634  157.5244 H   0  0  0  0  0  0  0  0  0  0  0  0
  150.2177  139.7361  158.0571 H   0  0  0  0  0  0  0  0  0  0  0  0
  152.1496  139.6141  160.2420 H   0  0  0  0  0  0  0  0  0  0  0  0
  152.8775  139.6627  158.6607 H   0  0  0  0  0  0  0  0  0  0  0  0
  150.7551  141.6779  159.4678 H   0  0  0  0  0  0  0  0  0  0  0  0
  152.5803  141.9355  161.1233 H   0  0  0  0  0  0  0  0  0  0  0  0
  153.7681  141.9850  159.8447 H   0  0  0  0  0  0  0  0  0  0  0  0
  151.5481  144.0234  160.3585 H   0  0  0  0  0  0  0  0  0  0  0  0
  153.2575  144.2687  160.6241 H   0  0  0  0  0  0  0  0  0  0  0  0
  152.5008  145.3180  158.4855 H   0  0  0  0  0  0  0  0  0  0  0  0
  153.7172  144.0921  158.2078 H   0  0  0  0  0  0  0  0  0  0  0  0
  150.6949  143.7348  157.8769 H   0  0  0  0  0  0  0  0  0  0  0  0
  151.1007  144.1851  155.9110 H   0  0  0  0  0  0  0  0  0  0  0  0
  152.9244  141.7116  157.3297 H   0  0  0  0  0  0  0  0  0  0  0  0
  151.2169  141.4631  157.0543 H   0  0  0  0  0  0  0  0  0  0  0  0
  148.5214  134.5185  158.2861 H   0  0  0  0  0  0  0  0  0  0  0  0
  1  2  1  0  0  0  0
  1 20  1  0  0  0  0
  1 21  1  0  0  0  0
  1 22  1  0  0  0  0
  2  3  1  0  0  0  0
  2 23  1  0  0  0  0
  2 24  1  0  0  0  0
  3 19  1  0  0  0  0
  3  4  2  0  0  0  0
  4  5  1  0  0  0  0
  5  6  1  0  0  0  0
  5 18  2  0  0  0  0
  6  7  1  0  0  0  0
  6 25  1  0  0  0  0
  6 26  1  0  0  0  0
  7  8  2  0  0  0  0
  7  9  1  0  0  0  0
  9 10  1  0  0  0  0
  9 27  1  0  0  0  0
 10 11  1  0  0  0  0
 10 28  1  0  0  0  0
 10 29  1  0  0  0  0
 11 17  1  0  0  0  0
 11 12  1  0  0  0  0
 11 30  1  0  0  0  0
 12 13  1  0  0  0  0
 12 31  1  0  0  0  0
 12 32  1  0  0  0  0
 13 14  1  0  0  0  0
 13 33  1  0  0  0  0
 13 34  1  0  0  0  0
 14 15  1  0  0  0  0
 14 35  1  0  0  0  0
 14 36  1  0  0  0  0
 15 16  1  0  0  0  0
 15 17  1  0  0  0  0
 15 37  1  0  0  0  0
 16 38  1  0  0  0  0
 17 39  1  0  0  0  0
 17 40  1  0  0  0  0
 18 19  1  0  0  0  0
 18 41  1  0  0  0  0
M  END
> <s_m_source_file>
AV-unprocessed.smi

> <i_m_source_file_index>
752

> <i_lp_mmshare_version>
43012

> <i_f3d_flags>
0

> <s_epik_input>
W0NIM11bQ0gyXWMxbmMoW2NIXXMxKVtDSDJdQyg9TylbTkhdW0NIMl1bQ0BASF0yW0NIMl1bQ0gyXVtDSDJdW0NAQEhdKFtPSF0pW0NIMl0y

> <s_epik_cmdline>
J2VwaWtfcHl0aG9uJywgJy1waCcsICc3LjAnLCAnLXRuJywgJzgnLCAnLW1hJywgJzIwMCcsICctbWV0YWxfYmluZGluZycsICctaW1hZScsICc8aW5maWxlLm1hZT4nLCAnLW9tYWUnLCAnPG91dGZpbGUubWFlPic=

> <r_lp_tautomer_probability>
1

> <r_epik_Ionization_Penalty>
5.44903e-05

> <r_epik_Ionization_Penalty_Charging>
0

> <r_epik_Ionization_Penalty_Neutral>
5.44903e-05

> <r_epik_State_Penalty>
-0

> <r_epik_Charging_Adjusted_Penalty>
0

> <i_epik_Tot_Q>
0

> <i_epik_Tot_abs_Q>
0

> <r_epik_Metal_State_Penalty>
-0

> <b_epik_Metal_Only>
0

> <s_lp_Force_Field>
OPLS_2005

> <r_lp_Energy>
4.53549

> <b_lp_Chiralities_Consistent>
1

> <s_lp_Variant>
AV-unprocessed.smi:752-2

> <Gold.Version>
5.8.1

> <Gold.Id.Protein>
6NUR|6NUR_protein|mol2

> <Gold.PLP.Fitness>
52.1062

> <Gold.PLP.PLP>
-42.4699

> <Gold.PLP.part.hbond>
-4.0000

> <Gold.PLP.part.metal>
0.0000

> <Gold.PLP.part.buried>
-2.6310

> <Gold.PLP.part.nonpolar>
-36.0408

> <Gold.PLP.part.repulsive>
0.1818

> <Gold.PLP.ligand.clash>
0.0000

> <Gold.PLP.ligand.torsion>
0.1986

> <Gold.PLP.Chemscore.Hbond>
3.3378

> <Gold.PLP.Chemscore.CHOScore>
0.0000

> <Gold.PLP.Chemscore.Metal>
0.0000

> <Gold.Chemscore.Hbonds>
donor molecule, donor type, donor heavy atom, donor atom, acceptor molecule, acceptor atom, score
      L1  H    16    38       P1  8028  0.42
      P1  H  6896  6908       L1     8  0.98
      P1  H  6931  6943       L1     4  0.01
      P1  H  6934  6947       L1     4  0.44

> <Gold.PLP.Chemscore.Internal.Correction>
0.0203

> <Gold.Rescore>
     Score         DG    S(hbond)    S(metal)    S(lipo)     H(rot)  DE(clash)    DE(int)     intcor
     23.21     -23.76       2.94        0.00     117.79       2.08       0.29       0.26       ----

> <Gold.Chemscore.Fitness>
23.2136

> <Gold.Chemscore.DG>
-23.7615

> <Gold.Chemscore.ZeroCoef>
-5.4800

> <Gold.Chemscore.Hbond>
2.9448

> <Gold.Chemscore.Metal>
0.0000

> <Gold.Chemscore.Lipo>
117.7852

> <Gold.Chemscore.Internal_Hbond>
0.0000

> <Gold.Chemscore.DEClash>
0.2919

> <Gold.Chemscore.DEInternal>
0.2561

> <Gold.Chemscore.Rot>
2.0840

> <Gold.Chemscore.Internal.Correction>
   9.000000E+99

> <Gold.Chemscore.Hbonds>
donor molecule, donor type, donor heavy atom, donor atom, acceptor molecule, acceptor atom, score
      L1  H    16    38       P1  8028  0.41
      P1  H  6896  6908       L1     8  0.91
      P1  H  6934  6947       L1     4  0.03

> <Gold.Chemscore.Hbond.Weighted>
-9.8356

> <Gold.Chemscore.Metal.Weighted>
-0.0000

> <Gold.Chemscore.Lipo.Weighted>
-13.7809

> <Gold.Chemscore.Internal_Hbond.Weighted>
0.0000

> <Gold.Chemscore.DEClash.Weighted>
0.2919

> <Gold.Chemscore.DEInternal.Weighted>
0.2561

> <Gold.Chemscore.Rot.Weighted>
5.3350

> <Gold.Chemscore.Internal.Correction.Weighted>
   9.000000E+99

> <Gold.Protein.RotatedTorsions>
[ 6907 6896 6895 6894 ] final -128.78 input  -60.11 | X-H torsion
[ 7974 7965 7964 7962 ] final   86.23 input  175.53 | X-H torsion
[ 8008 7997 7996 7995 ] final  -79.59 input   59.86 | X-H torsion
[ 10167 10162 10161 10158 ] final   69.37 input  -65.29 | X-H torsion
[ 10718 10713 10712 10709 ] final -110.13 input   66.30 | X-H torsion
[ 10763 10752 10751 10750 ] final  -73.16 input  -60.55 | X-H torsion
[ 11005 11000 10999 10996 ] final  -20.13 input  -57.11 | X-H torsion

> <Gold.Protein.ActiveResidues>
 VAL166  LYS551  ARG553  GLY616  TRP617  ASP618  TYR619  PRO620  LYS621  CYS622 
 ASP623  PHE694  ASN695  SER759  ASP760  ASP761  ALA762  ILE779  LEU786  VAL792 
 PHE793  MET794  SER795  GLU796  ALA797  LYS798  CYS799  TRP800  GLU811  SER814 

> <Gold.Protein.RotatedAtoms>
  150.9216  133.6874  159.2830 H   0  0  0  0  0  0  0  0  0  0  0  0  # atno 6907 bound_to 6896
  151.4327  135.1010  159.9656 H   0  0  0  0  0  0  0  0  0  0  0  0  # atno 6908 bound_to 6896
  152.4982  133.8642  159.7321 H   0  0  0  0  0  0  0  0  0  0  0  0  # atno 6909 bound_to 6896
  145.5750  139.2318  143.2385 H   0  0  0  0  0  0  0  0  0  0  0  0  # atno 7974 bound_to 7965
  154.5799  140.0676  156.9089 H   0  0  0  0  0  0  0  0  0  0  0  0  # atno 8008 bound_to 7997
  155.2481  140.3349  155.4267 H   0  0  0  0  0  0  0  0  0  0  0  0  # atno 8009 bound_to 7997
  156.2182  140.1787  156.7525 H   0  0  0  0  0  0  0  0  0  0  0  0  # atno 8010 bound_to 7997
  140.0685  144.5173  150.7244 H   0  0  0  0  0  0  0  0  0  0  0  0  # atno 10167 bound_to 10162
  156.0574  130.5799  150.8195 H   0  0  0  0  0  0  0  0  0  0  0  0  # atno 10718 bound_to 10713
  154.4556  135.5906  153.6221 H   0  0  0  0  0  0  0  0  0  0  0  0  # atno 10763 bound_to 10752
  152.9818  135.6031  154.3550 H   0  0  0  0  0  0  0  0  0  0  0  0  # atno 10764 bound_to 10752
  154.3416  135.2841  155.2398 H   0  0  0  0  0  0  0  0  0  0  0  0  # atno 10765 bound_to 10752
  140.8434  133.7909  155.9886 H   0  0  0  0  0  0  0  0  0  0  0  0  # atno 11005 bound_to 11000
  146.1757  140.6576  142.9212 LP  0  0  0  0  0  0  0  0  0  0  0  0  # atno 17320 bound_to 7965
  144.7420  140.4968  143.6862 LP  0  0  0  0  0  0  0  0  0  0  0  0  # atno 17321 bound_to 7965
  140.7137  143.2526  151.4501 LP  0  0  0  0  0  0  0  0  0  0  0  0  # atno 17342 bound_to 10162
  139.5850  144.1624  152.2018 LP  0  0  0  0  0  0  0  0  0  0  0  0  # atno 17343 bound_to 10162
  157.5555  131.0945  150.9634 LP  0  0  0  0  0  0  0  0  0  0  0  0  # atno 17370 bound_to 10713
  156.9884  130.5554  149.5301 LP  0  0  0  0  0  0  0  0  0  0  0  0  # atno 17371 bound_to 10713
  140.8870  134.2542  157.5115 LP  0  0  0  0  0  0  0  0  0  0  0  0  # atno 17394 bound_to 11000
  139.8703  134.9643  156.4490 LP  0  0  0  0  0  0  0  0  0  0  0  0  # atno 17395 bound_to 11000

$$$$
