AV-unprocessed.smi:2265|AV-procd|sdf|9146|dock2
  -GOLD-   2272012353D 1   1.00000     0.00000
 Structure written by MMmdl.
 36 37  0  0  0  0  0  0  0  0  1 V2000
  146.4444  142.2786  155.2078 C   0  0  0  0  0  0  0  0  0  0  0  0
  147.0666  142.0804  153.8216 C   0  0  0  0  0  0  0  0  0  0  0  0
  148.2294  141.0786  153.8348 C   0  0  0  0  0  0  0  0  0  0  0  0
  147.7507  139.6406  153.8422 C   0  0  1  0  0  0  0  0  0  0  0  0
  146.3335  139.3176  154.2315 C   0  0  0  0  0  0  0  0  0  0  0  0
  146.7814  139.1319  152.7960 C   0  0  2  0  0  0  0  0  0  0  0  0
  146.9152  137.7798  152.3436 N   0  0  0  0  0  0  0  0  0  0  0  0
  145.9523  136.8488  152.2184 C   0  0  0  0  0  0  0  0  0  0  0  0
  144.7903  137.1018  152.5360 O   0  0  0  0  0  0  0  0  0  0  0  0
  146.3952  135.6561  151.7619 N   0  0  0  0  0  0  0  0  0  0  0  0
  145.6628  134.4821  151.5455 C   0  0  0  0  0  0  0  0  0  0  0  0
  144.4456  134.4739  151.0787 N   0  0  0  0  0  0  0  0  0  0  0  0
  143.7462  133.2846  150.8728 C   0  0  0  0  0  0  0  0  0  0  0  0
  144.3093  132.0959  151.1545 C   0  0  0  0  0  0  0  0  0  0  0  0
  145.6144  132.0241  151.6615 N   0  0  0  0  0  0  0  0  0  0  0  0
  146.1781  130.7051  151.9496 C   0  0  0  0  0  0  0  0  0  0  0  0
  146.3465  133.1516  151.8735 C   0  0  0  0  0  0  0  0  0  0  0  0
  147.5007  133.1385  152.3062 O   0  0  0  0  0  0  0  0  0  0  0  0
  145.6172  142.9876  155.1640 H   0  0  0  0  0  0  0  0  0  0  0  0
  147.1775  142.6655  155.9164 H   0  0  0  0  0  0  0  0  0  0  0  0
  146.0567  141.3395  155.6042 H   0  0  0  0  0  0  0  0  0  0  0  0
  146.2973  141.7387  153.1282 H   0  0  0  0  0  0  0  0  0  0  0  0
  147.4165  143.0423  153.4448 H   0  0  0  0  0  0  0  0  0  0  0  0
  148.8697  141.2397  152.9663 H   0  0  0  0  0  0  0  0  0  0  0  0
  148.8506  141.2390  154.7165 H   0  0  0  0  0  0  0  0  0  0  0  0
  148.5092  138.9324  154.1721 H   0  0  0  0  0  0  0  0  0  0  0  0
  146.1741  138.4282  154.8382 H   0  0  0  0  0  0  0  0  0  0  0  0
  145.6631  140.1487  154.4422 H   0  0  0  0  0  0  0  0  0  0  0  0
  146.3810  139.8634  152.0955 H   0  0  0  0  0  0  0  0  0  0  0  0
  147.8594  137.4743  152.1558 H   0  0  0  0  0  0  0  0  0  0  0  0
  147.3853  135.6075  151.5703 H   0  0  0  0  0  0  0  0  0  0  0  0
  142.7438  133.3718  150.4805 H   0  0  0  0  0  0  0  0  0  0  0  0
  143.8088  131.1493  151.0103 H   0  0  0  0  0  0  0  0  0  0  0  0
  146.5634  130.6623  152.9695 H   0  0  0  0  0  0  0  0  0  0  0  0
  146.9992  130.4864  151.2656 H   0  0  0  0  0  0  0  0  0  0  0  0
  145.4417  129.9068  151.8494 H   0  0  0  0  0  0  0  0  0  0  0  0
  1  2  1  0  0  0  0
  1 19  1  0  0  0  0
  1 20  1  0  0  0  0
  1 21  1  0  0  0  0
  2  3  1  0  0  0  0
  2 22  1  0  0  0  0
  2 23  1  0  0  0  0
  3  4  1  0  0  0  0
  3 24  1  0  0  0  0
  3 25  1  0  0  0  0
  4  6  1  0  0  0  0
  4  5  1  0  0  0  0
  4 26  1  0  0  0  0
  5  6  1  0  0  0  0
  5 27  1  0  0  0  0
  5 28  1  0  0  0  0
  6  7  1  0  0  0  0
  6 29  1  0  0  0  0
  7  8  1  0  0  0  0
  7 30  1  0  0  0  0
  8  9  2  0  0  0  0
  8 10  1  0  0  0  0
 10 11  1  0  0  0  0
 10 31  1  0  0  0  0
 11 17  1  0  0  0  0
 11 12  2  0  0  0  0
 12 13  1  0  0  0  0
 13 14  2  0  0  0  0
 13 32  1  0  0  0  0
 14 15  1  0  0  0  0
 14 33  1  0  0  0  0
 15 16  1  0  0  0  0
 15 17  1  0  0  0  0
 16 34  1  0  0  0  0
 16 35  1  0  0  0  0
 16 36  1  0  0  0  0
 17 18  2  0  0  0  0
M  END
> <s_m_source_file>
AV-unprocessed.smi

> <i_m_source_file_index>
2265

> <i_lp_mmshare_version>
43012

> <i_f3d_flags>
0

> <s_epik_input>
W0NIM11bQ0gyXVtDSDJdW0NAQEhdMVtDSDJdW0NASF0xW05IXUMoPU8pW05IXWMybltjSF1bY0hdbihbQ0gzXSljMj1P

> <s_epik_cmdline>
J2VwaWtfcHl0aG9uJywgJy1waCcsICc3LjAnLCAnLXRuJywgJzgnLCAnLW1hJywgJzIwMCcsICctbWV0YWxfYmluZGluZycsICctaW1hZScsICc8aW5maWxlLm1hZT4nLCAnLW9tYWUnLCAnPG91dGZpbGUubWFlPic=

> <r_lp_tautomer_probability>
1

> <r_epik_Ionization_Penalty>
0.000728552

> <r_epik_Ionization_Penalty_Charging>
1.67739e-07

> <r_epik_Ionization_Penalty_Neutral>
0.000728385

> <r_epik_State_Penalty>
-0

> <r_epik_Charging_Adjusted_Penalty>
1.67739e-07

> <i_epik_Tot_Q>
0

> <i_epik_Tot_abs_Q>
0

> <r_epik_Metal_State_Penalty>
-0

> <b_epik_Metal_Only>
0

> <s_lp_Force_Field>
OPLS_2005

> <r_lp_Energy>
43.0315

> <b_lp_Chiralities_Consistent>
1

> <s_lp_Variant>
AV-unprocessed.smi:2265-4

> <Gold.Version>
5.8.1

> <Gold.Id.Protein>
6NUR|6NUR_protein|mol2

> <Gold.PLP.Fitness>
39.4907

> <Gold.PLP.PLP>
-31.4237

> <Gold.PLP.part.hbond>
-2.0000

> <Gold.PLP.part.metal>
0.0000

> <Gold.PLP.part.buried>
-3.9834

> <Gold.PLP.part.nonpolar>
-25.7958

> <Gold.PLP.part.repulsive>
0.7065

> <Gold.PLP.ligand.clash>
0.0000

> <Gold.PLP.ligand.torsion>
0.7460

> <Gold.PLP.Chemscore.Hbond>
1.9920

> <Gold.PLP.Chemscore.CHOScore>
1.0000

> <Gold.PLP.Chemscore.Metal>
0.0000

> <Gold.Chemscore.Hbonds>
donor molecule, donor type, donor heavy atom, donor atom, acceptor molecule, acceptor atom, score
      L1  H     7    30       P1  7948  1.00
      L1  H    10    31       P1  7948  0.99
      L1  C    13    32       P1 10186  1.00

> <Gold.PLP.Chemscore.Internal.Correction>
0.5828

> <Gold.Rescore>
     Score         DG    S(hbond)    S(metal)    S(lipo)     H(rot)  DE(clash)    DE(int)     intcor
     14.12     -15.06       1.91        0.00      59.36       1.46       0.06       0.88       ----

> <Gold.Chemscore.Fitness>
14.1226

> <Gold.Chemscore.DG>
-15.0614

> <Gold.Chemscore.ZeroCoef>
-5.4800

> <Gold.Chemscore.Hbond>
1.9088

> <Gold.Chemscore.Metal>
0.0000

> <Gold.Chemscore.Lipo>
59.3560

> <Gold.Chemscore.Internal_Hbond>
0.0000

> <Gold.Chemscore.DEClash>
0.0624

> <Gold.Chemscore.DEInternal>
0.8764

> <Gold.Chemscore.Rot>
1.4604

> <Gold.Chemscore.Internal.Correction>
   9.000000E+99

> <Gold.Chemscore.Hbonds>
donor molecule, donor type, donor heavy atom, donor atom, acceptor molecule, acceptor atom, score
      L1  H     7    30       P1  7948  0.95
      L1  H    10    31       P1  7948  0.93

> <Gold.Chemscore.Hbond.Weighted>
-6.3755

> <Gold.Chemscore.Metal.Weighted>
-0.0000

> <Gold.Chemscore.Lipo.Weighted>
-6.9447

> <Gold.Chemscore.Internal_Hbond.Weighted>
0.0000

> <Gold.Chemscore.DEClash.Weighted>
0.0624

> <Gold.Chemscore.DEInternal.Weighted>
0.8764

> <Gold.Chemscore.Rot.Weighted>
3.7387

> <Gold.Chemscore.Internal.Correction.Weighted>
   9.000000E+99

> <Gold.Protein.RotatedTorsions>
[ 6907 6896 6895 6894 ] final   31.17 input  -60.11 | X-H torsion
[ 7974 7965 7964 7962 ] final  127.47 input  175.53 | X-H torsion
[ 8008 7997 7996 7995 ] final   97.49 input   59.86 | X-H torsion
[ 10167 10162 10161 10158 ] final   -8.06 input  -65.29 | X-H torsion
[ 10718 10713 10712 10709 ] final -101.86 input   66.30 | X-H torsion
[ 10763 10752 10751 10750 ] final  111.12 input  -60.55 | X-H torsion
[ 11005 11000 10999 10996 ] final    4.04 input  -57.11 | X-H torsion

> <Gold.Protein.ActiveResidues>
 VAL166  LYS551  ARG553  GLY616  TRP617  ASP618  TYR619  PRO620  LYS621  CYS622 
 ASP623  PHE694  ASN695  SER759  ASP760  ASP761  ALA762  ILE779  LEU786  VAL792 
 PHE793  MET794  SER795  GLU796  ALA797  LYS798  CYS799  TRP800  GLU811  SER814 

> <Gold.Protein.RotatedAtoms>
  152.0565  134.9621  160.0574 H   0  0  0  0  0  0  0  0  0  0  0  0  # atno 6907 bound_to 6896
  152.1002  133.4241  159.4591 H   0  0  0  0  0  0  0  0  0  0  0  0  # atno 6908 bound_to 6896
  150.6839  134.2689  159.4623 H   0  0  0  0  0  0  0  0  0  0  0  0  # atno 6909 bound_to 6896
  145.0502  139.3889  143.5058 H   0  0  0  0  0  0  0  0  0  0  0  0  # atno 7974 bound_to 7965
  156.0907  140.3257  155.7812 H   0  0  0  0  0  0  0  0  0  0  0  0  # atno 8008 bound_to 7997
  155.5001  140.0568  157.2957 H   0  0  0  0  0  0  0  0  0  0  0  0  # atno 8009 bound_to 7997
  154.4636  140.1978  156.0194 H   0  0  0  0  0  0  0  0  0  0  0  0  # atno 8010 bound_to 7997
  140.7048  143.6011  150.8797 H   0  0  0  0  0  0  0  0  0  0  0  0  # atno 10167 bound_to 10162
  156.0209  130.5393  150.7025 H   0  0  0  0  0  0  0  0  0  0  0  0  # atno 10718 bound_to 10713
  153.4587  135.3727  155.2326 H   0  0  0  0  0  0  0  0  0  0  0  0  # atno 10763 bound_to 10752
  154.8757  135.3903  154.3951 H   0  0  0  0  0  0  0  0  0  0  0  0  # atno 10764 bound_to 10752
  153.4521  135.7085  153.6166 H   0  0  0  0  0  0  0  0  0  0  0  0  # atno 10765 bound_to 10752
  140.5863  133.9965  155.8069 H   0  0  0  0  0  0  0  0  0  0  0  0  # atno 11005 bound_to 11000
  146.3517  140.0148  142.8664 LP  0  0  0  0  0  0  0  0  0  0  0  0  # atno 17320 bound_to 7965
  145.1537  140.9636  143.4418 LP  0  0  0  0  0  0  0  0  0  0  0  0  # atno 17321 bound_to 7965
  139.9735  143.6030  152.2966 LP  0  0  0  0  0  0  0  0  0  0  0  0  # atno 17342 bound_to 10162
  139.6625  144.7662  151.1935 LP  0  0  0  0  0  0  0  0  0  0  0  0  # atno 17343 bound_to 10162
  157.4682  131.0890  151.0672 LP  0  0  0  0  0  0  0  0  0  0  0  0  # atno 17370 bound_to 10713
  157.1140  130.6033  149.5489 LP  0  0  0  0  0  0  0  0  0  0  0  0  # atno 17371 bound_to 10713
  141.0963  133.9837  157.3154 LP  0  0  0  0  0  0  0  0  0  0  0  0  # atno 17394 bound_to 11000
  139.9294  135.0200  156.8348 LP  0  0  0  0  0  0  0  0  0  0  0  0  # atno 17395 bound_to 11000

$$$$
