AV-unprocessed.smi:2314|AV-procd|sdf|9267|dock10
  -GOLD-   2272012493D 1   1.00000     0.00000
 Structure written by MMmdl.
 37 38  0  0  0  0  0  0  0  0  1 V2000
  150.1687  142.5484  156.2808 C   0  0  0  0  0  0  0  0  0  0  0  0
  150.0784  141.1524  156.9231 C   0  0  0  0  0  0  0  0  0  0  0  0
  150.8369  141.0870  158.2580 C   0  0  0  0  0  0  0  0  0  0  0  0
  150.5363  140.0834  156.0242 N   0  0  0  0  0  0  0  0  0  0  0  0
  151.8922  140.0306  155.5016 C   0  0  0  0  0  0  0  0  0  0  0  0
  152.0058  138.6543  154.8387 C   0  0  0  0  0  0  0  0  0  0  0  0
  150.5721  138.1272  154.6664 C   0  0  2  0  0  0  0  0  0  0  0  0
  150.1448  138.2930  153.2789 N   0  0  0  0  0  0  0  0  0  0  0  0
  150.3260  139.3976  152.5407 C   0  0  0  0  0  0  0  0  0  0  0  0
  150.8376  140.4308  152.9722 O   0  0  0  0  0  0  0  0  0  0  0  0
  149.8626  139.2324  151.2910 N   0  0  0  0  0  0  0  0  0  0  0  0
  149.8976  140.1793  150.2353 C   0  0  0  0  0  0  0  0  0  0  0  0
  149.9601  141.5479  150.5699 C   0  0  0  0  0  0  0  0  0  0  0  0
  149.9719  142.4990  149.5300 C   0  0  0  0  0  0  0  0  0  0  0  0
  149.9113  142.1699  148.2224 N   0  0  0  0  0  0  0  0  0  0  0  0
  149.8247  140.8601  147.9059 C   0  0  0  0  0  0  0  0  0  0  0  0
  149.8040  139.8281  148.8660 C   0  0  0  0  0  0  0  0  0  0  0  0
  149.6640  138.5414  148.4657 F   0  0  0  0  0  0  0  0  0  0  0  0
  149.7820  139.0735  155.5689 C   0  0  0  0  0  0  0  0  0  0  0  0
  148.5959  138.8870  155.8393 O   0  0  0  0  0  0  0  0  0  0  0  0
  149.7398  143.3048  156.9386 H   0  0  0  0  0  0  0  0  0  0  0  0
  149.6181  142.5859  155.3405 H   0  0  0  0  0  0  0  0  0  0  0  0
  151.2003  142.8394  156.0810 H   0  0  0  0  0  0  0  0  0  0  0  0
  149.0220  140.9795  157.1361 H   0  0  0  0  0  0  0  0  0  0  0  0
  150.4777  141.8488  158.9504 H   0  0  0  0  0  0  0  0  0  0  0  0
  151.9060  141.2452  158.1142 H   0  0  0  0  0  0  0  0  0  0  0  0
  150.7052  140.1181  158.7412 H   0  0  0  0  0  0  0  0  0  0  0  0
  152.0315  140.8227  154.7644 H   0  0  0  0  0  0  0  0  0  0  0  0
  152.6336  140.1586  156.2913 H   0  0  0  0  0  0  0  0  0  0  0  0
  152.5651  138.6964  153.9027 H   0  0  0  0  0  0  0  0  0  0  0  0
  152.5536  137.9829  155.5016 H   0  0  0  0  0  0  0  0  0  0  0  0
  150.4847  137.0919  155.0008 H   0  0  0  0  0  0  0  0  0  0  0  0
  149.7083  137.4947  152.8414 H   0  0  0  0  0  0  0  0  0  0  0  0
  149.3483  138.3838  151.1065 H   0  0  0  0  0  0  0  0  0  0  0  0
  150.0084  141.8668  151.6007 H   0  0  0  0  0  0  0  0  0  0  0  0
  150.0288  143.5535  149.7557 H   0  0  0  0  0  0  0  0  0  0  0  0
  149.7546  140.6273  146.8538 H   0  0  0  0  0  0  0  0  0  0  0  0
  1  2  1  0  0  0  0
  1 21  1  0  0  0  0
  1 22  1  0  0  0  0
  1 23  1  0  0  0  0
  2  3  1  0  0  0  0
  2  4  1  0  0  0  0
  2 24  1  0  0  0  0
  3 25  1  0  0  0  0
  3 26  1  0  0  0  0
  3 27  1  0  0  0  0
  4 19  1  0  0  0  0
  4  5  1  0  0  0  0
  5  6  1  0  0  0  0
  5 28  1  0  0  0  0
  5 29  1  0  0  0  0
  6  7  1  0  0  0  0
  6 30  1  0  0  0  0
  6 31  1  0  0  0  0
  7  8  1  0  0  0  0
  7 19  1  0  0  0  0
  7 32  1  0  0  0  0
  8  9  1  0  0  0  0
  8 33  1  0  0  0  0
  9 10  2  0  0  0  0
  9 11  1  0  0  0  0
 11 12  1  0  0  0  0
 11 34  1  0  0  0  0
 12 17  1  0  0  0  0
 12 13  2  0  0  0  0
 13 14  1  0  0  0  0
 13 35  1  0  0  0  0
 14 15  2  0  0  0  0
 14 36  1  0  0  0  0
 15 16  1  0  0  0  0
 16 17  2  0  0  0  0
 16 37  1  0  0  0  0
 17 18  1  0  0  0  0
 19 20  2  0  0  0  0
M  END
> <s_m_source_file>
AV-unprocessed.smi

> <i_m_source_file_index>
2314

> <i_lp_mmshare_version>
43012

> <i_f3d_flags>
0

> <s_epik_input>
W0NIM11bQ0hdKFtDSDNdKU4xW0NIMl1bQ0gyXVtDQEhdKEMxPU8pW05IXUMoPU8pW05IXWMyW2NIXVtjSF1uW2NIXWMyRg==

> <s_epik_cmdline>
J2VwaWtfcHl0aG9uJywgJy1waCcsICc3LjAnLCAnLXRuJywgJzgnLCAnLW1hJywgJzIwMCcsICctbWV0YWxfYmluZGluZycsICctaW1hZScsICc8aW5maWxlLm1hZT4nLCAnLW9tYWUnLCAnPG91dGZpbGUubWFlPic=

> <r_epik_Ionization_Penalty>
0.00267735

> <r_epik_Ionization_Penalty_Charging>
0

> <r_epik_Ionization_Penalty_Neutral>
0.00267735

> <r_epik_State_Penalty>
0.00184148

> <r_epik_Charging_Adjusted_Penalty>
0.00184148

> <i_epik_Tot_Q>
0

> <i_epik_Tot_abs_Q>
0

> <r_epik_Metal_State_Penalty>
-0

> <b_epik_Metal_Only>
0

> <s_lp_Force_Field>
OPLS_2005

> <r_lp_Energy>
28.4638

> <b_lp_Chiralities_Consistent>
1

> <s_lp_Variant>
AV-unprocessed.smi:2314-2

> <Gold.Version>
5.8.1

> <Gold.Id.Protein>
6NUR|6NUR_protein|mol2

> <Gold.PLP.Fitness>
37.3196

> <Gold.PLP.PLP>
-29.8129

> <Gold.PLP.part.hbond>
-3.0776

> <Gold.PLP.part.metal>
0.0000

> <Gold.PLP.part.buried>
-4.8173

> <Gold.PLP.part.nonpolar>
-22.8853

> <Gold.PLP.part.repulsive>
0.1340

> <Gold.PLP.ligand.clash>
0.0000

> <Gold.PLP.ligand.torsion>
0.2472

> <Gold.PLP.Chemscore.Hbond>
2.6000

> <Gold.PLP.Chemscore.CHOScore>
0.0000

> <Gold.PLP.Chemscore.Metal>
0.0000

> <Gold.Chemscore.Hbonds>
donor molecule, donor type, donor heavy atom, donor atom, acceptor molecule, acceptor atom, score
      L1  H     8    33       P1  7948  1.00
      L1  H    11    34       P1  7948  0.30
      P1  H  8011  8017       L1    10  0.27

> <Gold.PLP.Chemscore.Internal.Correction>
0.2012

> <Gold.Rescore>
     Score         DG    S(hbond)    S(metal)    S(lipo)     H(rot)  DE(clash)    DE(int)     intcor
     11.86     -16.47       2.58        0.00      47.85       1.26       0.07       4.54       ----

> <Gold.Chemscore.Fitness>
11.8599

> <Gold.Chemscore.DG>
-16.4694

> <Gold.Chemscore.ZeroCoef>
-5.4800

> <Gold.Chemscore.Hbond>
2.5817

> <Gold.Chemscore.Metal>
0.0000

> <Gold.Chemscore.Lipo>
47.8531

> <Gold.Chemscore.Internal_Hbond>
0.0000

> <Gold.Chemscore.DEClash>
0.0650

> <Gold.Chemscore.DEInternal>
4.5445

> <Gold.Chemscore.Rot>
1.2626

> <Gold.Chemscore.Internal.Correction>
   9.000000E+99

> <Gold.Chemscore.Hbonds>
donor molecule, donor type, donor heavy atom, donor atom, acceptor molecule, acceptor atom, score
      L1  H     8    33       P1  7948  0.50
      L1  H    11    34       P1  7948  0.03
      P1  H  8011  8017       L1    10  0.24

> <Gold.Chemscore.Hbond.Weighted>
-8.6228

> <Gold.Chemscore.Metal.Weighted>
-0.0000

> <Gold.Chemscore.Lipo.Weighted>
-5.5988

> <Gold.Chemscore.Internal_Hbond.Weighted>
0.0000

> <Gold.Chemscore.DEClash.Weighted>
0.0650

> <Gold.Chemscore.DEInternal.Weighted>
4.5445

> <Gold.Chemscore.Rot.Weighted>
3.2322

> <Gold.Chemscore.Internal.Correction.Weighted>
   9.000000E+99

> <Gold.Protein.RotatedTorsions>
[ 6907 6896 6895 6894 ] final   97.24 input  -60.11 | X-H torsion
[ 7974 7965 7964 7962 ] final  -23.25 input  175.53 | X-H torsion
[ 8008 7997 7996 7995 ] final  173.49 input   59.86 | X-H torsion
[ 10167 10162 10161 10158 ] final  -58.04 input  -65.29 | X-H torsion
[ 10718 10713 10712 10709 ] final   99.44 input   66.30 | X-H torsion
[ 10763 10752 10751 10750 ] final   22.74 input  -60.55 | X-H torsion
[ 11005 11000 10999 10996 ] final  -87.09 input  -57.11 | X-H torsion

> <Gold.Protein.ActiveResidues>
 VAL166  LYS551  ARG553  GLY616  TRP617  ASP618  TYR619  PRO620  LYS621  CYS622 
 ASP623  PHE694  ASN695  SER759  ASP760  ASP761  ALA762  ILE779  LEU786  VAL792 
 PHE793  MET794  SER795  GLU796  ALA797  LYS798  CYS799  TRP800  GLU811  SER814 

> <Gold.Protein.RotatedAtoms>
  152.5426  134.0764  159.8216 H   0  0  0  0  0  0  0  0  0  0  0  0  # atno 6907 bound_to 6896
  151.0871  133.5337  159.2624 H   0  0  0  0  0  0  0  0  0  0  0  0  # atno 6908 bound_to 6896
  151.2142  135.0502  159.8977 H   0  0  0  0  0  0  0  0  0  0  0  0  # atno 6909 bound_to 6896
  146.1627  140.4590  142.8564 H   0  0  0  0  0  0  0  0  0  0  0  0  # atno 7974 bound_to 7965
  156.1070  140.1459  156.9390 H   0  0  0  0  0  0  0  0  0  0  0  0  # atno 8008 bound_to 7997
  154.4741  140.0900  156.7262 H   0  0  0  0  0  0  0  0  0  0  0  0  # atno 8009 bound_to 7997
  155.4662  140.3440  155.4321 H   0  0  0  0  0  0  0  0  0  0  0  0  # atno 8010 bound_to 7997
  140.6221  143.2424  151.5453 H   0  0  0  0  0  0  0  0  0  0  0  0  # atno 10167 bound_to 10162
  157.6876  131.0670  150.4949 H   0  0  0  0  0  0  0  0  0  0  0  0  # atno 10718 bound_to 10713
  153.0892  135.6642  153.9888 H   0  0  0  0  0  0  0  0  0  0  0  0  # atno 10763 bound_to 10752
  153.9489  135.2986  155.3441 H   0  0  0  0  0  0  0  0  0  0  0  0  # atno 10764 bound_to 10752
  154.7304  135.5125  153.9027 H   0  0  0  0  0  0  0  0  0  0  0  0  # atno 10765 bound_to 10752
  141.1621  133.7491  156.9256 H   0  0  0  0  0  0  0  0  0  0  0  0  # atno 11005 bound_to 11000
  144.8049  140.6282  143.6453 LP  0  0  0  0  0  0  0  0  0  0  0  0  # atno 17320 bound_to 7965
  145.4546  139.1519  143.3899 LP  0  0  0  0  0  0  0  0  0  0  0  0  # atno 17321 bound_to 7965
  139.5448  144.2550  152.1421 LP  0  0  0  0  0  0  0  0  0  0  0  0  # atno 17342 bound_to 10162
  140.1773  144.4878  150.6547 LP  0  0  0  0  0  0  0  0  0  0  0  0  # atno 17343 bound_to 10162
  156.5274  130.4176  149.6219 LP  0  0  0  0  0  0  0  0  0  0  0  0  # atno 17370 bound_to 10713
  156.3100  130.7223  151.2114 LP  0  0  0  0  0  0  0  0  0  0  0  0  # atno 17371 bound_to 10713
  140.1421  134.9286  157.2481 LP  0  0  0  0  0  0  0  0  0  0  0  0  # atno 17394 bound_to 11000
  140.2824  134.3335  155.7339 LP  0  0  0  0  0  0  0  0  0  0  0  0  # atno 17395 bound_to 11000

$$$$
