AV-unprocessed.smi:1278|AV-procd|sdf|5347|dock4
  -GOLD-   22720 4483D 1   1.00000     0.00000
 Structure written by MMmdl.
 39 40  0  0  0  0  0  0  0  0  2 V2000
  146.6521  131.7359  149.5628 C   0  0  0  0  0  0  0  0  0  0  0  0
  146.8879  132.7544  150.6874 C   0  0  2  0  0  0  0  0  0  0  0  0
  146.4984  132.1766  152.0585 C   0  0  0  0  0  0  0  0  0  0  0  0
  146.7159  133.2235  153.1579 C   0  0  0  0  0  0  0  0  0  0  0  0
  145.9605  134.5225  152.8362 C   0  0  0  0  0  0  0  0  0  0  0  0
  146.3604  135.0614  151.5106 N   0  3  2  0  0  0  0  0  0  0  0  0
  145.7412  136.3823  151.2364 C   0  0  0  0  0  0  0  0  0  0  0  0
  145.5725  137.2307  152.5119 C   0  0  0  0  0  0  0  0  0  0  0  0
  144.2395  137.8176  152.5915 N   0  0  0  0  0  0  0  0  0  0  0  0
  143.1054  137.1173  152.7397 C   0  0  0  0  0  0  0  0  0  0  0  0
  143.0784  135.8892  152.8278 O   0  0  0  0  0  0  0  0  0  0  0  0
  142.0311  137.9250  152.7797 N   0  0  0  0  0  0  0  0  0  0  0  0
  140.6686  137.5624  152.9476 C   0  0  0  0  0  0  0  0  0  0  0  0
  140.2562  136.4317  153.5325 N   0  0  0  0  0  0  0  0  0  0  0  0
  138.8628  136.3374  153.5674 C   0  0  0  0  0  0  0  0  0  0  0  0
  138.2252  137.4133  153.0012 C   0  0  0  0  0  0  0  0  0  0  0  0
  139.3566  138.5938  152.3963 S   0  0  0  0  0  0  0  0  0  0  0  0
  146.1264  134.0699  150.4257 C   0  0  0  0  0  0  0  0  0  0  0  0
  145.5975  131.4704  149.4821 H   0  0  0  0  0  0  0  0  0  0  0  0
  147.2134  130.8181  149.7402 H   0  0  0  0  0  0  0  0  0  0  0  0
  146.9695  132.1341  148.5986 H   0  0  0  0  0  0  0  0  0  0  0  0
  147.9553  132.9803  150.7065 H   0  0  0  0  0  0  0  0  0  0  0  0
  145.4522  131.8672  152.0494 H   0  0  0  0  0  0  0  0  0  0  0  0
  147.0858  131.2837  152.2755 H   0  0  0  0  0  0  0  0  0  0  0  0
  146.3844  132.8284  154.1188 H   0  0  0  0  0  0  0  0  0  0  0  0
  147.7815  133.4338  153.2610 H   0  0  0  0  0  0  0  0  0  0  0  0
  144.8835  134.3471  152.8490 H   0  0  0  0  0  0  0  0  0  0  0  0
  146.1718  135.2578  153.6134 H   0  0  0  0  0  0  0  0  0  0  0  0
  146.3300  136.9096  150.4840 H   0  0  0  0  0  0  0  0  0  0  0  0
  144.7518  136.2344  150.8008 H   0  0  0  0  0  0  0  0  0  0  0  0
  145.7221  136.6081  153.3943 H   0  0  0  0  0  0  0  0  0  0  0  0
  146.3146  138.0276  152.5666 H   0  0  0  0  0  0  0  0  0  0  0  0
  144.1759  138.8234  152.5246 H   0  0  0  0  0  0  0  0  0  0  0  0
  142.2067  138.9145  152.6860 H   0  0  0  0  0  0  0  0  0  0  0  0
  138.4068  135.4674  154.0164 H   0  0  0  0  0  0  0  0  0  0  0  0
  137.1629  137.5816  152.9040 H   0  0  0  0  0  0  0  0  0  0  0  0
  146.4490  134.4799  149.4690 H   0  0  0  0  0  0  0  0  0  0  0  0
  145.0562  133.8750  150.3374 H   0  0  0  0  0  0  0  0  0  0  0  0
  147.3571  135.2164  151.5596 H   0  0  0  0  0  0  0  0  0  0  0  0
  1  2  1  0  0  0  0
  1 19  1  0  0  0  0
  1 20  1  0  0  0  0
  1 21  1  0  0  0  0
  2 18  1  0  0  0  0
  2  3  1  0  0  0  0
  2 22  1  0  0  0  0
  3  4  1  0  0  0  0
  3 23  1  0  0  0  0
  3 24  1  0  0  0  0
  4  5  1  0  0  0  0
  4 25  1  0  0  0  0
  4 26  1  0  0  0  0
  5  6  1  0  0  0  0
  5 27  1  0  0  0  0
  5 28  1  0  0  0  0
  6  7  1  0  0  0  0
  6 18  1  0  0  0  0
  6 39  1  0  0  0  0
  7  8  1  0  0  0  0
  7 29  1  0  0  0  0
  7 30  1  0  0  0  0
  8  9  1  0  0  0  0
  8 31  1  0  0  0  0
  8 32  1  0  0  0  0
  9 10  1  0  0  0  0
  9 33  1  0  0  0  0
 10 11  2  0  0  0  0
 10 12  1  0  0  0  0
 12 13  1  0  0  0  0
 12 34  1  0  0  0  0
 13 17  1  0  0  0  0
 13 14  2  0  0  0  0
 14 15  1  0  0  0  0
 15 16  2  0  0  0  0
 15 35  1  0  0  0  0
 16 17  1  0  0  0  0
 16 36  1  0  0  0  0
 18 37  1  0  0  0  0
 18 38  1  0  0  0  0
M  CHG  1   6   1
M  END
> <s_m_source_file>
AV-unprocessed.smi

> <i_m_source_file_index>
1278

> <i_lp_mmshare_version>
43012

> <i_f3d_flags>
0

> <s_epik_input>
W0NIM11bQ0BASF0xW0NIMl1bQ0gyXVtDSDJdTihbQ0gyXTEpW0NIMl1bQ0gyXVtOSF1DKD1PKVtOSF1jMm5bY0hdW2NIXXMy

> <s_epik_cmdline>
J2VwaWtfcHl0aG9uJywgJy1waCcsICc3LjAnLCAnLXRuJywgJzgnLCAnLW1hJywgJzIwMCcsICctbWV0YWxfYmluZGluZycsICctaW1hZScsICc8aW5maWxlLm1hZT4nLCAnLW9tYWUnLCAnPG91dGZpbGUubWFlPic=

> <r_lp_tautomer_probability>
0.999

> <r_epik_Ionization_Penalty>
0.00222194

> <r_epik_Ionization_Penalty_Charging>
0.00208169

> <r_epik_Ionization_Penalty_Neutral>
0.000140251

> <r_epik_State_Penalty>
0.00142585

> <r_epik_Charging_Adjusted_Penalty>
0.00350754

> <i_epik_Tot_Q>
1

> <i_epik_Tot_abs_Q>
1

> <r_epik_Metal_State_Penalty>
0.0570424

> <b_epik_Metal_Only>
0

> <s_lp_Force_Field>
OPLS_2005

> <r_lp_Energy>
14.0127

> <b_lp_Chiralities_Consistent>
1

> <s_lp_Variant>
AV-unprocessed.smi:1278-1

> <Gold.Version>
5.8.1

> <Gold.Id.Protein>
6NUR|6NUR_protein|mol2

> <Gold.PLP.Fitness>
43.1275

> <Gold.PLP.PLP>
-29.8460

> <Gold.PLP.part.hbond>
-4.0000

> <Gold.PLP.part.metal>
0.0000

> <Gold.PLP.part.buried>
2.2247

> <Gold.PLP.part.nonpolar>
-28.4964

> <Gold.PLP.part.repulsive>
0.2616

> <Gold.PLP.ligand.clash>
0.0000

> <Gold.PLP.ligand.torsion>
0.7046

> <Gold.PLP.Chemscore.Hbond>
3.9600

> <Gold.PLP.Chemscore.CHOScore>
0.9284

> <Gold.PLP.Chemscore.Metal>
0.0000

> <Gold.Chemscore.Hbonds>
donor molecule, donor type, donor heavy atom, donor atom, acceptor molecule, acceptor atom, score
      L1  H     6    39       P1  7948  2.00
      L1  H     9    33       P1 10175  1.00
      L1  H    12    34       P1 10175  0.87

> <Gold.PLP.Chemscore.Internal.Correction>
0.0255

> <Gold.Rescore>
     Score         DG    S(hbond)    S(metal)    S(lipo)     H(rot)  DE(clash)    DE(int)     intcor
     16.06     -18.87       2.79        0.00      69.70       1.60       1.10       1.71       ----

> <Gold.Chemscore.Fitness>
16.0584

> <Gold.Chemscore.DG>
-18.8710

> <Gold.Chemscore.ZeroCoef>
-5.4800

> <Gold.Chemscore.Hbond>
2.7940

> <Gold.Chemscore.Metal>
0.0000

> <Gold.Chemscore.Lipo>
69.7043

> <Gold.Chemscore.Internal_Hbond>
0.0000

> <Gold.Chemscore.DEClash>
1.0985

> <Gold.Chemscore.DEInternal>
1.7140

> <Gold.Chemscore.Rot>
1.6001

> <Gold.Chemscore.Internal.Correction>
   9.000000E+99

> <Gold.Chemscore.Hbonds>
donor molecule, donor type, donor heavy atom, donor atom, acceptor molecule, acceptor atom, score
      L1  H     6    39       P1  7948  0.87
      L1  H     9    33       P1 10175  1.00
      L1  H    12    34       P1 10175  0.78

> <Gold.Chemscore.Hbond.Weighted>
-9.3318

> <Gold.Chemscore.Metal.Weighted>
-0.0000

> <Gold.Chemscore.Lipo.Weighted>
-8.1554

> <Gold.Chemscore.Internal_Hbond.Weighted>
0.0000

> <Gold.Chemscore.DEClash.Weighted>
1.0985

> <Gold.Chemscore.DEInternal.Weighted>
1.7140

> <Gold.Chemscore.Rot.Weighted>
4.0963

> <Gold.Chemscore.Internal.Correction.Weighted>
   9.000000E+99

> <Gold.Protein.RotatedTorsions>
[ 6907 6896 6895 6894 ] final -175.85 input  -60.11 | X-H torsion
[ 7974 7965 7964 7962 ] final   40.18 input  175.53 | X-H torsion
[ 8008 7997 7996 7995 ] final -166.33 input   59.86 | X-H torsion
[ 10167 10162 10161 10158 ] final -115.22 input  -65.29 | X-H torsion
[ 10718 10713 10712 10709 ] final   20.36 input   66.30 | X-H torsion
[ 10763 10752 10751 10750 ] final -159.40 input  -60.55 | X-H torsion
[ 11005 11000 10999 10996 ] final  -67.98 input  -57.11 | X-H torsion

> <Gold.Protein.ActiveResidues>
 VAL166  LYS551  ARG553  GLY616  TRP617  ASP618  TYR619  PRO620  LYS621  CYS622 
 ASP623  PHE694  ASN695  SER759  ASP760  ASP761  ALA762  ILE779  LEU786  VAL792 
 PHE793  MET794  SER795  GLU796  ALA797  LYS798  CYS799  TRP800  GLU811  SER814 

> <Gold.Protein.RotatedAtoms>
  151.5953  133.3362  159.3035 H   0  0  0  0  0  0  0  0  0  0  0  0  # atno 6907 bound_to 6896
  150.8238  134.7462  159.6806 H   0  0  0  0  0  0  0  0  0  0  0  0  # atno 6908 bound_to 6896
  152.4329  134.5749  159.9983 H   0  0  0  0  0  0  0  0  0  0  0  0  # atno 6909 bound_to 6896
  146.0925  139.5563  142.9466 H   0  0  0  0  0  0  0  0  0  0  0  0  # atno 7974 bound_to 7965
  155.8623  140.0980  157.1605 H   0  0  0  0  0  0  0  0  0  0  0  0  # atno 8008 bound_to 7997
  154.3991  140.1362  156.4039 H   0  0  0  0  0  0  0  0  0  0  0  0  # atno 8009 bound_to 7997
  155.7842  140.3457  155.5316 H   0  0  0  0  0  0  0  0  0  0  0  0  # atno 8010 bound_to 7997
  140.0924  143.4687  152.1862 H   0  0  0  0  0  0  0  0  0  0  0  0  # atno 10167 bound_to 10162
  157.1234  130.6559  149.5930 H   0  0  0  0  0  0  0  0  0  0  0  0  # atno 10718 bound_to 10713
  154.7478  135.3084  154.8613 H   0  0  0  0  0  0  0  0  0  0  0  0  # atno 10763 bound_to 10752
  153.9409  135.6775  153.4748 H   0  0  0  0  0  0  0  0  0  0  0  0  # atno 10764 bound_to 10752
  153.1074  135.4882  154.8902 H   0  0  0  0  0  0  0  0  0  0  0  0  # atno 10765 bound_to 10752
  141.1521  133.6730  156.6375 H   0  0  0  0  0  0  0  0  0  0  0  0  # atno 11005 bound_to 11000
  145.6011  141.0355  143.2018 LP  0  0  0  0  0  0  0  0  0  0  0  0  # atno 17320 bound_to 7965
  144.7371  139.7555  143.7325 LP  0  0  0  0  0  0  0  0  0  0  0  0  # atno 17321 bound_to 7965
  139.5717  144.7466  151.3873 LP  0  0  0  0  0  0  0  0  0  0  0  0  # atno 17342 bound_to 10162
  140.7021  143.7605  150.7421 LP  0  0  0  0  0  0  0  0  0  0  0  0  # atno 17343 bound_to 10162
  155.9823  130.4836  150.6876 LP  0  0  0  0  0  0  0  0  0  0  0  0  # atno 17370 bound_to 10713
  157.4456  131.0866  151.0898 LP  0  0  0  0  0  0  0  0  0  0  0  0  # atno 17371 bound_to 10713
  140.3419  134.7842  157.4403 LP  0  0  0  0  0  0  0  0  0  0  0  0  # atno 17394 bound_to 11000
  140.0931  134.5574  155.8424 LP  0  0  0  0  0  0  0  0  0  0  0  0  # atno 17395 bound_to 11000

$$$$
