AV-unprocessed.smi:524|AV-procd|sdf|2806|dock6
  -GOLD-   2262023283D 1   1.00000     0.00000
 Structure written by MMmdl.
 42 44  0  0  0  0  0  0  0  0  2 V2000
  147.6986  141.5695  153.7185 C   0  0  0  0  0  0  0  0  0  0  0  0
  149.0676  141.7314  154.0408 O   0  0  0  0  0  0  0  0  0  0  0  0
  149.3657  141.3420  155.3717 C   0  0  0  0  0  0  0  0  0  0  0  0
  150.7070  141.9545  155.7975 C   0  0  0  0  0  0  0  0  0  0  0  0
  151.3928  141.1320  156.7936 N   0  0  0  0  0  0  0  0  0  0  0  0
  151.8608  141.4891  158.0229 C   0  0  0  0  0  0  0  0  0  0  0  0
  151.7028  142.7732  158.5510 N   0  0  0  0  0  0  0  0  0  0  0  0
  150.5282  143.6071  158.2958 C   0  0  0  0  0  0  0  0  0  0  0  0
  149.9649  144.2077  159.5966 C   0  0  0  0  0  0  0  0  0  0  0  0
  151.0368  145.0270  160.3282 C   0  0  0  0  0  0  0  0  0  0  0  0
  152.3079  144.1854  160.5041 C   0  0  0  0  0  0  0  0  0  0  0  0
  152.7525  143.5968  159.1529 C   0  0  0  0  0  0  0  0  0  0  0  0
  152.5178  140.5221  158.6673 N   0  0  0  0  0  0  0  0  0  0  0  0
  152.4409  139.4515  157.7914 C   0  0  0  0  0  0  0  0  0  0  0  0
  151.7783  139.7936  156.6545 C   0  0  0  0  0  0  0  0  0  0  0  0
  151.5711  138.8699  155.5160 C   0  0  0  0  0  0  0  0  0  0  0  0
  150.9897  139.2362  154.4967 O   0  0  0  0  0  0  0  0  0  0  0  0
  152.0971  137.6270  155.7551 N   0  5  0  0  0  0  0  0  0  0  0  0
  152.7667  137.2361  156.8946 C   0  0  0  0  0  0  0  0  0  0  0  0
  153.2116  136.0954  157.0282 O   0  0  0  0  0  0  0  0  0  0  0  0
  152.9519  138.1306  157.9157 N   0  0  0  0  0  0  0  0  0  0  0  0
  153.6692  137.7460  159.1346 C   0  0  0  0  0  0  0  0  0  0  0  0
  147.5281  141.8745  152.6861 H   0  0  0  0  0  0  0  0  0  0  0  0
  147.0677  142.1856  154.3605 H   0  0  0  0  0  0  0  0  0  0  0  0
  147.3905  140.5280  153.8174 H   0  0  0  0  0  0  0  0  0  0  0  0
  148.5766  141.6811  156.0444 H   0  0  0  0  0  0  0  0  0  0  0  0
  149.4093  140.2541  155.4422 H   0  0  0  0  0  0  0  0  0  0  0  0
  151.3310  142.0964  154.9224 H   0  0  0  0  0  0  0  0  0  0  0  0
  150.5621  142.9571  156.1965 H   0  0  0  0  0  0  0  0  0  0  0  0
  150.7938  144.3996  157.5950 H   0  0  0  0  0  0  0  0  0  0  0  0
  149.7554  143.0101  157.8105 H   0  0  0  0  0  0  0  0  0  0  0  0
  149.1009  144.8349  159.3759 H   0  0  0  0  0  0  0  0  0  0  0  0
  149.6088  143.4064  160.2448 H   0  0  0  0  0  0  0  0  0  0  0  0
  151.2690  145.9230  159.7511 H   0  0  0  0  0  0  0  0  0  0  0  0
  150.6648  145.3639  161.2960 H   0  0  0  0  0  0  0  0  0  0  0  0
  153.1055  144.7966  160.9269 H   0  0  0  0  0  0  0  0  0  0  0  0
  152.1189  143.3825  161.2172 H   0  0  0  0  0  0  0  0  0  0  0  0
  153.6727  143.0239  159.2622 H   0  0  0  0  0  0  0  0  0  0  0  0
  152.9961  144.4067  158.4641 H   0  0  0  0  0  0  0  0  0  0  0  0
  153.1919  136.8861  159.6069 H   0  0  0  0  0  0  0  0  0  0  0  0
  153.7003  138.5451  159.8748 H   0  0  0  0  0  0  0  0  0  0  0  0
  154.7000  137.4778  158.8998 H   0  0  0  0  0  0  0  0  0  0  0  0
  1  2  1  0  0  0  0
  1 23  1  0  0  0  0
  1 24  1  0  0  0  0
  1 25  1  0  0  0  0
  2  3  1  0  0  0  0
  3  4  1  0  0  0  0
  3 26  1  0  0  0  0
  3 27  1  0  0  0  0
  4  5  1  0  0  0  0
  4 28  1  0  0  0  0
  4 29  1  0  0  0  0
  5 15  1  0  0  0  0
  5  6  1  0  0  0  0
  6  7  1  0  0  0  0
  6 13  2  0  0  0  0
  7 12  1  0  0  0  0
  7  8  1  0  0  0  0
  8  9  1  0  0  0  0
  8 30  1  0  0  0  0
  8 31  1  0  0  0  0
  9 10  1  0  0  0  0
  9 32  1  0  0  0  0
  9 33  1  0  0  0  0
 10 11  1  0  0  0  0
 10 34  1  0  0  0  0
 10 35  1  0  0  0  0
 11 12  1  0  0  0  0
 11 36  1  0  0  0  0
 11 37  1  0  0  0  0
 12 38  1  0  0  0  0
 12 39  1  0  0  0  0
 13 14  1  0  0  0  0
 14 21  1  0  0  0  0
 14 15  2  0  0  0  0
 15 16  1  0  0  0  0
 16 17  2  0  0  0  0
 16 18  1  0  0  0  0
 18 19  1  0  0  0  0
 19 20  2  0  0  0  0
 19 21  1  0  0  0  0
 21 22  1  0  0  0  0
 22 40  1  0  0  0  0
 22 41  1  0  0  0  0
 22 42  1  0  0  0  0
M  CHG  1  18  -1
M  END
> <s_m_source_file>
AV-unprocessed.smi

> <i_m_source_file_index>
524

> <i_lp_mmshare_version>
43012

> <i_f3d_flags>
0

> <s_epik_input>
W0NIM11uMWMoPU8pW25IXWMoPU8pYyhjMTIpbihbQ0gyXVtDSDJdT1tDSDNdKWMobjIpTjNbQ0gyXVtDSDJdW0NIMl1bQ0gyXVtDSDJdMw==

> <s_epik_cmdline>
J2VwaWtfcHl0aG9uJywgJy1waCcsICc3LjAnLCAnLXRuJywgJzgnLCAnLW1hJywgJzIwMCcsICctbWV0YWxfYmluZGluZycsICctaW1hZScsICc8aW5maWxlLm1hZT4nLCAnLW9tYWUnLCAnPG91dGZpbGUubWFlPic=

> <r_lp_tautomer_probability>
1

> <r_epik_Ionization_Penalty>
5.09461

> <r_epik_Ionization_Penalty_Charging>
0.078064

> <r_epik_Ionization_Penalty_Neutral>
5.01654

> <r_epik_State_Penalty>
5.01281

> <r_epik_Charging_Adjusted_Penalty>
5.09087

> <i_epik_Tot_Q>
-1

> <i_epik_Tot_abs_Q>
1

> <r_epik_Metal_State_Penalty>
1.12909

> <b_epik_Metal_Only>
1

> <s_lp_Force_Field>
OPLS_2005

> <r_lp_Energy>
41.0117

> <b_lp_Chiralities_Consistent>
1

> <s_lp_Variant>
AV-unprocessed.smi:524-2

> <Gold.Version>
5.8.1

> <Gold.Id.Protein>
6NUR|6NUR_protein|mol2

> <Gold.PLP.Fitness>
45.7854

> <Gold.PLP.PLP>
-39.4958

> <Gold.PLP.part.hbond>
-3.6277

> <Gold.PLP.part.metal>
0.0000

> <Gold.PLP.part.buried>
-7.2753

> <Gold.PLP.part.nonpolar>
-29.5120

> <Gold.PLP.part.repulsive>
0.3367

> <Gold.PLP.ligand.clash>
0.0000

> <Gold.PLP.ligand.torsion>
0.9110

> <Gold.PLP.Chemscore.Hbond>
2.5760

> <Gold.PLP.Chemscore.CHOScore>
0.0000

> <Gold.PLP.Chemscore.Metal>
0.0000

> <Gold.Chemscore.Hbonds>
donor molecule, donor type, donor heavy atom, donor atom, acceptor molecule, acceptor atom, score
      P1  H  7989  7998       L1    17  1.00
      P1  H  8011  8017       L1     2  0.56
      P1  H 10752 10764       L1    20  1.00

> <Gold.PLP.Chemscore.Internal.Correction>
0.3836

> <Gold.Rescore>
     Score         DG    S(hbond)    S(metal)    S(lipo)     H(rot)  DE(clash)    DE(int)     intcor
     15.13     -18.40       2.09        0.00      82.82       1.46       0.12       3.14       ----

> <Gold.Chemscore.Fitness>
15.1318

> <Gold.Chemscore.DG>
-18.3956

> <Gold.Chemscore.ZeroCoef>
-5.4800

> <Gold.Chemscore.Hbond>
2.0877

> <Gold.Chemscore.Metal>
0.0000

> <Gold.Chemscore.Lipo>
82.8228

> <Gold.Chemscore.Internal_Hbond>
0.0000

> <Gold.Chemscore.DEClash>
0.1212

> <Gold.Chemscore.DEInternal>
3.1426

> <Gold.Chemscore.Rot>
1.4639

> <Gold.Chemscore.Internal.Correction>
   9.000000E+99

> <Gold.Chemscore.Hbonds>
donor molecule, donor type, donor heavy atom, donor atom, acceptor molecule, acceptor atom, score
      P1  H  7989  7998       L1    17  0.93
      P1  H  8011  8017       L1     2  0.19
      P1  H 10752 10764       L1    20  0.82

> <Gold.Chemscore.Hbond.Weighted>
-6.9728

> <Gold.Chemscore.Metal.Weighted>
-0.0000

> <Gold.Chemscore.Lipo.Weighted>
-9.6903

> <Gold.Chemscore.Internal_Hbond.Weighted>
0.0000

> <Gold.Chemscore.DEClash.Weighted>
0.1212

> <Gold.Chemscore.DEInternal.Weighted>
3.1426

> <Gold.Chemscore.Rot.Weighted>
3.7475

> <Gold.Chemscore.Internal.Correction.Weighted>
   9.000000E+99

> <Gold.Protein.RotatedTorsions>
[ 6907 6896 6895 6894 ] final -125.27 input  -60.11 | X-H torsion
[ 7974 7965 7964 7962 ] final  143.06 input  175.53 | X-H torsion
[ 8008 7997 7996 7995 ] final   78.72 input   59.86 | X-H torsion
[ 10167 10162 10161 10158 ] final   85.72 input  -65.29 | X-H torsion
[ 10718 10713 10712 10709 ] final  111.80 input   66.30 | X-H torsion
[ 10763 10752 10751 10750 ] final    8.80 input  -60.55 | X-H torsion
[ 11005 11000 10999 10996 ] final  140.18 input  -57.11 | X-H torsion

> <Gold.Protein.ActiveResidues>
 VAL166  LYS551  ARG553  GLY616  TRP617  ASP618  TYR619  PRO620  LYS621  CYS622 
 ASP623  PHE694  ASN695  SER759  ASP760  ASP761  ALA762  ILE779  LEU786  VAL792 
 PHE793  MET794  SER795  GLU796  ALA797  LYS798  CYS799  TRP800  GLU811  SER814 

> <Gold.Protein.RotatedAtoms>
  150.8851  133.7319  159.2920 H   0  0  0  0  0  0  0  0  0  0  0  0  # atno 6907 bound_to 6896
  151.4887  135.1055  159.9807 H   0  0  0  0  0  0  0  0  0  0  0  0  # atno 6908 bound_to 6896
  152.4785  133.8149  159.7078 H   0  0  0  0  0  0  0  0  0  0  0  0  # atno 6909 bound_to 6896
  144.8954  139.5499  143.5779 H   0  0  0  0  0  0  0  0  0  0  0  0  # atno 7974 bound_to 7965
  155.8596  140.3454  155.5747 H   0  0  0  0  0  0  0  0  0  0  0  0  # atno 8008 bound_to 7997
  155.7948  140.0876  157.2009 H   0  0  0  0  0  0  0  0  0  0  0  0  # atno 8009 bound_to 7997
  154.4011  140.1476  156.3192 H   0  0  0  0  0  0  0  0  0  0  0  0  # atno 8010 bound_to 7997
  139.8949  144.6364  150.8699 H   0  0  0  0  0  0  0  0  0  0  0  0  # atno 10167 bound_to 10162
  157.6426  131.0957  150.6802 H   0  0  0  0  0  0  0  0  0  0  0  0  # atno 10718 bound_to 10713
  153.2211  135.6881  153.7999 H   0  0  0  0  0  0  0  0  0  0  0  0  # atno 10763 bound_to 10752
  153.7198  135.3269  155.3265 H   0  0  0  0  0  0  0  0  0  0  0  0  # atno 10764 bound_to 10752
  154.8270  135.4610  154.1058 H   0  0  0  0  0  0  0  0  0  0  0  0  # atno 10765 bound_to 10752
  140.0309  134.9352  157.0660 H   0  0  0  0  0  0  0  0  0  0  0  0  # atno 11005 bound_to 11000
  146.3078  139.7640  142.9043 LP  0  0  0  0  0  0  0  0  0  0  0  0  # atno 17320 bound_to 7965
  145.3710  141.0342  143.3231 LP  0  0  0  0  0  0  0  0  0  0  0  0  # atno 17321 bound_to 7965
  140.7719  143.3481  151.2069 LP  0  0  0  0  0  0  0  0  0  0  0  0  # atno 17342 bound_to 10162
  139.7077  143.9428  152.2934 LP  0  0  0  0  0  0  0  0  0  0  0  0  # atno 17343 bound_to 10162
  156.7124  130.4656  149.5544 LP  0  0  0  0  0  0  0  0  0  0  0  0  # atno 17370 bound_to 10713
  156.1721  130.6444  151.0850 LP  0  0  0  0  0  0  0  0  0  0  0  0  # atno 17371 bound_to 10713
  140.4228  134.1863  155.7165 LP  0  0  0  0  0  0  0  0  0  0  0  0  # atno 17394 bound_to 11000
  141.1830  133.8373  157.1189 LP  0  0  0  0  0  0  0  0  0  0  0  0  # atno 17395 bound_to 11000

$$$$
