AV-unprocessed.smi:3056|AV-procd|sdf|11656|dock4
  -GOLD-   2272017 53D 1   1.00000     0.00000
 Structure written by MMmdl.
 47 48  0  0  0  0  0  0  0  0  1 V2000
  148.3547  127.1250  151.0938 C   0  0  0  0  0  0  0  0  0  0  0  0
  148.1518  128.2504  152.0669 C   0  0  0  0  0  0  0  0  0  0  0  0
  146.9761  129.0242  152.2787 C   0  0  0  0  0  0  0  0  0  0  0  0
  147.1322  129.9525  153.2080 N   0  0  0  0  0  0  0  0  0  0  0  0
  148.4031  129.7971  153.6381 N   0  0  0  0  0  0  0  0  0  0  0  0
  148.9339  130.7020  154.6541 C   0  0  1  0  0  0  0  0  0  0  0  0
  148.8561  132.1727  154.1922 C   0  0  0  0  0  0  0  0  0  0  0  0
  148.2935  130.4364  156.0436 C   0  0  1  0  0  0  0  0  0  0  0  0
  148.7745  129.1111  156.6679 C   0  0  0  0  0  0  0  0  0  0  0  0
  148.5603  131.5748  156.9194 N   0  0  0  0  0  0  0  0  0  0  0  0
  147.9025  131.4994  158.2299 C   0  0  0  0  0  0  0  0  0  0  0  0
  148.1846  132.7581  159.0589 C   0  0  0  0  0  0  0  0  0  0  0  0
  148.8107  133.6709  158.5200 O   0  0  0  0  0  0  0  0  0  0  0  0
  147.7608  132.8286  160.3450 N   0  0  0  0  0  0  0  0  0  0  0  0
  146.9049  131.8130  160.9617 C   0  0  0  0  0  0  0  0  0  0  0  0
  145.5224  132.4463  161.2066 C   0  0  0  0  0  0  0  0  0  0  0  0
  145.6577  133.6115  162.0204 O   0  0  0  0  0  0  0  0  0  0  0  0
  146.5264  134.5984  161.4634 C   0  0  1  0  0  0  0  0  0  0  0  0
  146.5714  135.8008  162.4115 C   0  0  0  0  0  0  0  0  0  0  0  0
  147.9182  133.9702  161.2504 C   0  0  0  0  0  0  0  0  0  0  0  0
  149.0441  128.7823  152.9531 C   0  0  0  0  0  0  0  0  0  0  0  0
  147.6269  127.1548  150.2828 H   0  0  0  0  0  0  0  0  0  0  0  0
  148.2572  126.1532  151.5779 H   0  0  0  0  0  0  0  0  0  0  0  0
  149.3441  127.1600  150.6376 H   0  0  0  0  0  0  0  0  0  0  0  0
  146.0207  128.9433  151.7814 H   0  0  0  0  0  0  0  0  0  0  0  0
  149.9972  130.4716  154.7444 H   0  0  0  0  0  0  0  0  0  0  0  0
  149.4001  132.8323  154.8680 H   0  0  0  0  0  0  0  0  0  0  0  0
  147.8280  132.5316  154.1398 H   0  0  0  0  0  0  0  0  0  0  0  0
  149.2990  132.2937  153.2033 H   0  0  0  0  0  0  0  0  0  0  0  0
  147.2141  130.3690  155.8976 H   0  0  0  0  0  0  0  0  0  0  0  0
  148.7075  128.2953  155.9476 H   0  0  0  0  0  0  0  0  0  0  0  0
  148.1661  128.8226  157.5247 H   0  0  0  0  0  0  0  0  0  0  0  0
  149.8103  129.1740  157.0030 H   0  0  0  0  0  0  0  0  0  0  0  0
  148.2757  132.4118  156.4305 H   0  0  0  0  0  0  0  0  0  0  0  0
  146.8250  131.4006  158.0889 H   0  0  0  0  0  0  0  0  0  0  0  0
  148.2293  130.6223  158.7875 H   0  0  0  0  0  0  0  0  0  0  0  0
  146.7996  130.9163  160.3498 H   0  0  0  0  0  0  0  0  0  0  0  0
  147.3443  131.4862  161.9052 H   0  0  0  0  0  0  0  0  0  0  0  0
  145.0445  132.7089  160.2614 H   0  0  0  0  0  0  0  0  0  0  0  0
  144.8657  131.7371  161.7106 H   0  0  0  0  0  0  0  0  0  0  0  0
  146.1191  134.9282  160.5059 H   0  0  0  0  0  0  0  0  0  0  0  0
  147.2128  136.5878  162.0139 H   0  0  0  0  0  0  0  0  0  0  0  0
  146.9557  135.5171  163.3917 H   0  0  0  0  0  0  0  0  0  0  0  0
  145.5763  136.2233  162.5524 H   0  0  0  0  0  0  0  0  0  0  0  0
  148.3245  133.6230  162.2016 H   0  0  0  0  0  0  0  0  0  0  0  0
  148.6210  134.7197  160.8909 H   0  0  0  0  0  0  0  0  0  0  0  0
  150.0756  128.5260  153.1451 H   0  0  0  0  0  0  0  0  0  0  0  0
  1  2  1  0  0  0  0
  1 22  1  0  0  0  0
  1 23  1  0  0  0  0
  1 24  1  0  0  0  0
  2 21  2  0  0  0  0
  2  3  1  0  0  0  0
  3  4  2  0  0  0  0
  3 25  1  0  0  0  0
  4  5  1  0  0  0  0
  5  6  1  0  0  0  0
  5 21  1  0  0  0  0
  6  7  1  0  0  0  0
  6  8  1  0  0  0  0
  6 26  1  0  0  0  0
  7 27  1  0  0  0  0
  7 28  1  0  0  0  0
  7 29  1  0  0  0  0
  8  9  1  0  0  0  0
  8 10  1  0  0  0  0
  8 30  1  0  0  0  0
  9 31  1  0  0  0  0
  9 32  1  0  0  0  0
  9 33  1  0  0  0  0
 10 11  1  0  0  0  0
 10 34  1  0  0  0  0
 11 12  1  0  0  0  0
 11 35  1  0  0  0  0
 11 36  1  0  0  0  0
 12 13  2  0  0  0  0
 12 14  1  0  0  0  0
 14 20  1  0  0  0  0
 14 15  1  0  0  0  0
 15 16  1  0  0  0  0
 15 37  1  0  0  0  0
 15 38  1  0  0  0  0
 16 17  1  0  0  0  0
 16 39  1  0  0  0  0
 16 40  1  0  0  0  0
 17 18  1  0  0  0  0
 18 19  1  0  0  0  0
 18 20  1  0  0  0  0
 18 41  1  0  0  0  0
 19 42  1  0  0  0  0
 19 43  1  0  0  0  0
 19 44  1  0  0  0  0
 20 45  1  0  0  0  0
 20 46  1  0  0  0  0
 21 47  1  0  0  0  0
M  END
> <s_m_source_file>
AV-unprocessed.smi

> <i_m_source_file_index>
3056

> <i_lp_mmshare_version>
43012

> <i_f3d_flags>
0

> <s_epik_input>
W0NIM11jMVtjSF1ubihbY0hdMSlbQ0BIXShbQ0gzXSlbQ0BIXShbQ0gzXSlbTkhdW0NIMl1DKD1PKU4yW0NIMl1bQ0gyXU9bQ0BASF0oW0NIM10pW0NIMl0y

> <s_epik_cmdline>
J2VwaWtfcHl0aG9uJywgJy1waCcsICc3LjAnLCAnLXRuJywgJzgnLCAnLW1hJywgJzIwMCcsICctbWV0YWxfYmluZGluZycsICctaW1hZScsICc8aW5maWxlLm1hZT4nLCAnLW9tYWUnLCAnPG91dGZpbGUubWFlPic=

> <r_lp_tautomer_probability>
1

> <r_epik_Ionization_Penalty>
0.667689

> <r_epik_Ionization_Penalty_Charging>
0

> <r_epik_Ionization_Penalty_Neutral>
0.667689

> <r_epik_State_Penalty>
0.684601

> <r_epik_Charging_Adjusted_Penalty>
0.684601

> <i_epik_Tot_Q>
0

> <i_epik_Tot_abs_Q>
0

> <r_epik_Metal_State_Penalty>
0.681448

> <b_epik_Metal_Only>
0

> <s_lp_Force_Field>
OPLS_2005

> <r_lp_Energy>
30.7947

> <b_lp_Chiralities_Consistent>
1

> <s_lp_Variant>
AV-unprocessed.smi:3056-12

> <Gold.Version>
5.8.1

> <Gold.Id.Protein>
6NUR|6NUR_protein|mol2

> <Gold.PLP.Fitness>
36.4732

> <Gold.PLP.PLP>
-31.1386

> <Gold.PLP.part.hbond>
-1.0000

> <Gold.PLP.part.metal>
0.0000

> <Gold.PLP.part.buried>
-4.0735

> <Gold.PLP.part.nonpolar>
-24.7792

> <Gold.PLP.part.repulsive>
0.1552

> <Gold.PLP.ligand.clash>
0.0000

> <Gold.PLP.ligand.torsion>
0.4269

> <Gold.PLP.Chemscore.Hbond>
1.0000

> <Gold.PLP.Chemscore.CHOScore>
1.0000

> <Gold.PLP.Chemscore.Metal>
0.0000

> <Gold.Chemscore.Hbonds>
donor molecule, donor type, donor heavy atom, donor atom, acceptor molecule, acceptor atom, score
      P1  H  6896  6908       L1    13  0.83
      L1  C    21    47       P1 10737  0.94

> <Gold.PLP.Chemscore.Internal.Correction>
0.1884

> <Gold.Rescore>
     Score         DG    S(hbond)    S(metal)    S(lipo)     H(rot)  DE(clash)    DE(int)     intcor
     13.35     -13.78       1.00        0.00      79.17       1.68       0.03       0.40       ----

> <Gold.Chemscore.Fitness>
13.3460

> <Gold.Chemscore.DG>
-13.7767

> <Gold.Chemscore.ZeroCoef>
-5.4800

> <Gold.Chemscore.Hbond>
0.9978

> <Gold.Chemscore.Metal>
0.0000

> <Gold.Chemscore.Lipo>
79.1725

> <Gold.Chemscore.Internal_Hbond>
0.0000

> <Gold.Chemscore.DEClash>
0.0287

> <Gold.Chemscore.DEInternal>
0.4020

> <Gold.Chemscore.Rot>
1.6793

> <Gold.Chemscore.Internal.Correction>
   9.000000E+99

> <Gold.Chemscore.Hbonds>
donor molecule, donor type, donor heavy atom, donor atom, acceptor molecule, acceptor atom, score
      P1  H  6896  6908       L1    13  0.64

> <Gold.Chemscore.Hbond.Weighted>
-3.3326

> <Gold.Chemscore.Metal.Weighted>
-0.0000

> <Gold.Chemscore.Lipo.Weighted>
-9.2632

> <Gold.Chemscore.Internal_Hbond.Weighted>
0.0000

> <Gold.Chemscore.DEClash.Weighted>
0.0287

> <Gold.Chemscore.DEInternal.Weighted>
0.4020

> <Gold.Chemscore.Rot.Weighted>
4.2990

> <Gold.Chemscore.Internal.Correction.Weighted>
   9.000000E+99

> <Gold.Protein.RotatedTorsions>
[ 6907 6896 6895 6894 ] final  121.47 input  -60.11 | X-H torsion
[ 7974 7965 7964 7962 ] final    9.65 input  175.53 | X-H torsion
[ 8008 7997 7996 7995 ] final   -1.49 input   59.86 | X-H torsion
[ 10167 10162 10161 10158 ] final  135.91 input  -65.29 | X-H torsion
[ 10718 10713 10712 10709 ] final  167.77 input   66.30 | X-H torsion
[ 10763 10752 10751 10750 ] final  115.31 input  -60.55 | X-H torsion
[ 11005 11000 10999 10996 ] final -150.41 input  -57.11 | X-H torsion

> <Gold.Protein.ActiveResidues>
 VAL166  LYS551  ARG553  GLY616  TRP617  ASP618  TYR619  PRO620  LYS621  CYS622 
 ASP623  PHE694  ASN695  SER759  ASP760  ASP761  ALA762  ILE779  LEU786  VAL792 
 PHE793  MET794  SER795  GLU796  ALA797  LYS798  CYS799  TRP800  GLU811  SER814 

> <Gold.Protein.RotatedAtoms>
  152.4319  133.7293  159.6577 H   0  0  0  0  0  0  0  0  0  0  0  0  # atno 6907 bound_to 6896
  150.8199  133.8260  159.3149 H   0  0  0  0  0  0  0  0  0  0  0  0  # atno 6908 bound_to 6896
  151.5945  135.1053  160.0098 H   0  0  0  0  0  0  0  0  0  0  0  0  # atno 6909 bound_to 6896
  146.2400  139.9752  142.8442 H   0  0  0  0  0  0  0  0  0  0  0  0  # atno 7974 bound_to 7965
  154.6463  140.2558  155.7265 H   0  0  0  0  0  0  0  0  0  0  0  0  # atno 8008 bound_to 7997
  156.2553  140.2877  156.0798 H   0  0  0  0  0  0  0  0  0  0  0  0  # atno 8009 bound_to 7997
  155.1520  140.0382  157.2813 H   0  0  0  0  0  0  0  0  0  0  0  0  # atno 8010 bound_to 7997
  139.5199  144.6492  151.5351 H   0  0  0  0  0  0  0  0  0  0  0  0  # atno 10167 bound_to 10162
  157.0467  131.0302  151.2695 H   0  0  0  0  0  0  0  0  0  0  0  0  # atno 10718 bound_to 10713
  153.5203  135.3599  155.2628 H   0  0  0  0  0  0  0  0  0  0  0  0  # atno 10763 bound_to 10752
  154.8735  135.4044  154.3268 H   0  0  0  0  0  0  0  0  0  0  0  0  # atno 10764 bound_to 10752
  153.3937  135.7072  153.6543 H   0  0  0  0  0  0  0  0  0  0  0  0  # atno 10765 bound_to 10752
  140.7405  134.3519  157.5148 H   0  0  0  0  0  0  0  0  0  0  0  0  # atno 11005 bound_to 11000
  145.1643  140.9689  143.4359 LP  0  0  0  0  0  0  0  0  0  0  0  0  # atno 17320 bound_to 7965
  145.0087  139.3530  143.6131 LP  0  0  0  0  0  0  0  0  0  0  0  0  # atno 17321 bound_to 7965
  140.6290  143.9113  150.6589 LP  0  0  0  0  0  0  0  0  0  0  0  0  # atno 17342 bound_to 10162
  140.2411  143.3663  152.1486 LP  0  0  0  0  0  0  0  0  0  0  0  0  # atno 17343 bound_to 10162
  157.5062  130.7910  149.7657 LP  0  0  0  0  0  0  0  0  0  0  0  0  # atno 17370 bound_to 10713
  156.0021  130.3875  150.2568 LP  0  0  0  0  0  0  0  0  0  0  0  0  # atno 17371 bound_to 10713
  139.8807  134.9078  156.2952 LP  0  0  0  0  0  0  0  0  0  0  0  0  # atno 17394 bound_to 11000
  140.9841  133.7249  156.0715 LP  0  0  0  0  0  0  0  0  0  0  0  0  # atno 17395 bound_to 11000

$$$$
