AV-unprocessed.smi:1295|AV-procd|sdf|5409|dock8
  -GOLD-   22720 4563D 1   1.00000     0.00000
 Structure written by MMmdl.
 42 43  0  0  0  0  0  0  0  0  2 V2000
  150.9201  134.7602  155.2258 C   0  0  0  0  0  0  0  0  0  0  0  0
  151.1405  136.2530  155.3430 C   0  0  0  0  0  0  0  0  0  0  0  0
  150.1964  137.0519  155.0194 N   0  0  0  0  0  0  0  0  0  0  0  0
  150.3953  138.4385  155.1310 C   0  0  0  0  0  0  0  0  0  0  0  0
  149.2211  139.3121  154.7241 C   0  0  0  0  0  0  0  0  0  0  0  0
  151.5781  138.9478  155.5806 C   0  0  0  0  0  0  0  0  0  0  0  0
  151.8417  140.4467  155.7200 C   0  0  0  0  0  0  0  0  0  0  0  0
  151.1919  141.1234  156.9286 C   0  0  0  0  0  0  0  0  0  0  0  0
  149.9688  141.1095  157.0656 O   0  0  0  0  0  0  0  0  0  0  0  0
  152.0288  141.7157  157.7948 N   0  0  0  0  0  0  0  0  0  0  0  0
  151.6420  142.4596  158.9924 C   0  0  2  0  0  0  0  0  0  0  0  0
  150.8798  143.7262  158.5557 C   0  0  0  0  0  0  0  0  0  0  0  0
  150.4948  144.6032  159.7556 C   0  0  0  0  0  0  0  0  0  0  0  0
  151.7312  144.9689  160.5872 C   0  0  0  0  0  0  0  0  0  0  0  0
  152.4789  143.7075  161.0433 C   0  0  0  0  0  0  0  0  0  0  0  0
  152.8826  142.8140  159.8527 C   0  0  1  0  0  0  0  0  0  0  0  0
  153.6384  141.5687  160.3502 C   0  0  0  0  0  0  0  0  0  0  0  0
  152.6400  137.9929  155.9451 C   0  0  0  0  0  0  0  0  0  0  0  0
  153.7227  138.3977  156.3664 O   0  0  0  0  0  0  0  0  0  0  0  0
  152.3725  136.6637  155.7998 N   0  5  0  0  0  0  0  0  0  0  0  0
  149.8689  134.5310  155.0459 H   0  0  0  0  0  0  0  0  0  0  0  0
  151.2252  134.2571  156.1439 H   0  0  0  0  0  0  0  0  0  0  0  0
  151.5062  134.3580  154.3994 H   0  0  0  0  0  0  0  0  0  0  0  0
  149.4903  139.9454  153.8787 H   0  0  0  0  0  0  0  0  0  0  0  0
  148.9106  139.9496  155.5522 H   0  0  0  0  0  0  0  0  0  0  0  0
  148.3627  138.7070  154.4294 H   0  0  0  0  0  0  0  0  0  0  0  0
  152.9117  140.6533  155.7509 H   0  0  0  0  0  0  0  0  0  0  0  0
  151.4942  140.9374  154.8102 H   0  0  0  0  0  0  0  0  0  0  0  0
  153.0172  141.6667  157.5953 H   0  0  0  0  0  0  0  0  0  0  0  0
  150.9627  141.8608  159.6021 H   0  0  0  0  0  0  0  0  0  0  0  0
  151.4942  144.3093  157.8679 H   0  0  0  0  0  0  0  0  0  0  0  0
  149.9807  143.4474  158.0043 H   0  0  0  0  0  0  0  0  0  0  0  0
  149.9976  145.5096  159.4094 H   0  0  0  0  0  0  0  0  0  0  0  0
  149.7752  144.0735  160.3813 H   0  0  0  0  0  0  0  0  0  0  0  0
  152.3987  145.5985  159.9973 H   0  0  0  0  0  0  0  0  0  0  0  0
  151.4345  145.5593  161.4546 H   0  0  0  0  0  0  0  0  0  0  0  0
  153.3649  143.9970  161.6093 H   0  0  0  0  0  0  0  0  0  0  0  0
  151.8476  143.1414  161.7297 H   0  0  0  0  0  0  0  0  0  0  0  0
  153.5723  143.3876  159.2314 H   0  0  0  0  0  0  0  0  0  0  0  0
  152.9886  140.9229  160.9414 H   0  0  0  0  0  0  0  0  0  0  0  0
  154.4866  141.8483  160.9754 H   0  0  0  0  0  0  0  0  0  0  0  0
  154.0311  140.9776  159.5228 H   0  0  0  0  0  0  0  0  0  0  0  0
  1  2  1  0  0  0  0
  1 21  1  0  0  0  0
  1 22  1  0  0  0  0
  1 23  1  0  0  0  0
  2 20  1  0  0  0  0
  2  3  2  0  0  0  0
  3  4  1  0  0  0  0
  4  5  1  0  0  0  0
  4  6  2  0  0  0  0
  5 24  1  0  0  0  0
  5 25  1  0  0  0  0
  5 26  1  0  0  0  0
  6  7  1  0  0  0  0
  6 18  1  0  0  0  0
  7  8  1  0  0  0  0
  7 27  1  0  0  0  0
  7 28  1  0  0  0  0
  8  9  2  0  0  0  0
  8 10  1  0  0  0  0
 10 11  1  0  0  0  0
 10 29  1  0  0  0  0
 11 16  1  0  0  0  0
 11 12  1  0  0  0  0
 11 30  1  0  0  0  0
 12 13  1  0  0  0  0
 12 31  1  0  0  0  0
 12 32  1  0  0  0  0
 13 14  1  0  0  0  0
 13 33  1  0  0  0  0
 13 34  1  0  0  0  0
 14 15  1  0  0  0  0
 14 35  1  0  0  0  0
 14 36  1  0  0  0  0
 15 16  1  0  0  0  0
 15 37  1  0  0  0  0
 15 38  1  0  0  0  0
 16 17  1  0  0  0  0
 16 39  1  0  0  0  0
 17 40  1  0  0  0  0
 17 41  1  0  0  0  0
 17 42  1  0  0  0  0
 18 19  2  0  0  0  0
 18 20  1  0  0  0  0
M  CHG  1  20  -1
M  END
> <s_m_source_file>
AV-unprocessed.smi

> <i_m_source_file_index>
1295

> <i_lp_mmshare_version>
43012

> <i_f3d_flags>
0

> <s_epik_input>
W0NIM11jMW5jKFtDSDNdKWMoYyg9TylbbkhdMSlbQ0gyXUMoPU8pW05IXVtDQEBIXTJbQ0gyXVtDSDJdW0NIMl1bQ0gyXVtDQEhdMltDSDNd

> <s_epik_cmdline>
J2VwaWtfcHl0aG9uJywgJy1waCcsICc3LjAnLCAnLXRuJywgJzgnLCAnLW1hJywgJzIwMCcsICctbWV0YWxfYmluZGluZycsICctaW1hZScsICc8aW5maWxlLm1hZT4nLCAnLW9tYWUnLCAnPG91dGZpbGUubWFlPic=

> <r_lp_tautomer_probability>
0.839158

> <r_epik_Ionization_Penalty>
6.67742

> <r_epik_Ionization_Penalty_Charging>
7.78154e-08

> <r_epik_Ionization_Penalty_Neutral>
6.67742

> <r_epik_State_Penalty>
4.51991

> <r_epik_Charging_Adjusted_Penalty>
4.51991

> <i_epik_Tot_Q>
-1

> <i_epik_Tot_abs_Q>
1

> <r_epik_Metal_State_Penalty>
0.853272

> <b_epik_Metal_Only>
1

> <s_lp_Force_Field>
OPLS_2005

> <r_lp_Energy>
15.3241

> <b_lp_Chiralities_Consistent>
1

> <s_lp_Variant>
AV-unprocessed.smi:1295-9

> <Gold.Version>
5.8.1

> <Gold.Id.Protein>
6NUR|6NUR_protein|mol2

> <Gold.PLP.Fitness>
47.9933

> <Gold.PLP.PLP>
-40.0716

> <Gold.PLP.part.hbond>
-2.0000

> <Gold.PLP.part.metal>
0.0000

> <Gold.PLP.part.buried>
-3.5602

> <Gold.PLP.part.nonpolar>
-34.7421

> <Gold.PLP.part.repulsive>
0.3775

> <Gold.PLP.ligand.clash>
0.0000

> <Gold.PLP.ligand.torsion>
0.2657

> <Gold.PLP.Chemscore.Hbond>
2.8160

> <Gold.PLP.Chemscore.CHOScore>
0.0000

> <Gold.PLP.Chemscore.Metal>
0.0000

> <Gold.Chemscore.Hbonds>
donor molecule, donor type, donor heavy atom, donor atom, acceptor molecule, acceptor atom, score
      P1  H  7997  8009       L1    19  0.69
      P1  H 10752 10764       L1    20  0.65

> <Gold.PLP.Chemscore.Internal.Correction>
0.0052

> <Gold.Rescore>
     Score         DG    S(hbond)    S(metal)    S(lipo)     H(rot)  DE(clash)    DE(int)     intcor
     16.22     -17.69       1.07        0.00     105.44       1.45       0.17       1.30       ----

> <Gold.Chemscore.Fitness>
16.2184

> <Gold.Chemscore.DG>
-17.6895

> <Gold.Chemscore.ZeroCoef>
-5.4800

> <Gold.Chemscore.Hbond>
1.0696

> <Gold.Chemscore.Metal>
0.0000

> <Gold.Chemscore.Lipo>
105.4374

> <Gold.Chemscore.Internal_Hbond>
0.0000

> <Gold.Chemscore.DEClash>
0.1746

> <Gold.Chemscore.DEInternal>
1.2965

> <Gold.Chemscore.Rot>
1.4450

> <Gold.Chemscore.Internal.Correction>
   9.000000E+99

> <Gold.Chemscore.Hbonds>
donor molecule, donor type, donor heavy atom, donor atom, acceptor molecule, acceptor atom, score
      P1  H  7997  8009       L1    19  0.70
      P1  H 10752 10764       L1    20  0.01

> <Gold.Chemscore.Hbond.Weighted>
-3.5726

> <Gold.Chemscore.Metal.Weighted>
-0.0000

> <Gold.Chemscore.Lipo.Weighted>
-12.3362

> <Gold.Chemscore.Internal_Hbond.Weighted>
0.0000

> <Gold.Chemscore.DEClash.Weighted>
0.1746

> <Gold.Chemscore.DEInternal.Weighted>
1.2965

> <Gold.Chemscore.Rot.Weighted>
3.6992

> <Gold.Chemscore.Internal.Correction.Weighted>
   9.000000E+99

> <Gold.Protein.RotatedTorsions>
[ 6907 6896 6895 6894 ] final  -98.70 input  -60.11 | X-H torsion
[ 7974 7965 7964 7962 ] final  138.40 input  175.53 | X-H torsion
[ 8008 7997 7996 7995 ] final -173.77 input   59.86 | X-H torsion
[ 10167 10162 10161 10158 ] final  114.30 input  -65.29 | X-H torsion
[ 10718 10713 10712 10709 ] final -113.46 input   66.30 | X-H torsion
[ 10763 10752 10751 10750 ] final  -46.08 input  -60.55 | X-H torsion
[ 11005 11000 10999 10996 ] final   11.76 input  -57.11 | X-H torsion

> <Gold.Protein.ActiveResidues>
 VAL166  LYS551  ARG553  GLY616  TRP617  ASP618  TYR619  PRO620  LYS621  CYS622 
 ASP623  PHE694  ASN695  SER759  ASP760  ASP761  ALA762  ILE779  LEU786  VAL792 
 PHE793  MET794  SER795  GLU796  ALA797  LYS798  CYS799  TRP800  GLU811  SER814 

> <Gold.Protein.RotatedAtoms>
  150.7055  134.1154  159.4015 H   0  0  0  0  0  0  0  0  0  0  0  0  # atno 6907 bound_to 6896
  151.9141  135.0324  160.0526 H   0  0  0  0  0  0  0  0  0  0  0  0  # atno 6908 bound_to 6896
  152.2311  133.5024  159.5253 H   0  0  0  0  0  0  0  0  0  0  0  0  # atno 6909 bound_to 6896
  144.9376  139.4970  143.5587 H   0  0  0  0  0  0  0  0  0  0  0  0  # atno 7974 bound_to 7965
  155.9617  140.1145  157.0890 H   0  0  0  0  0  0  0  0  0  0  0  0  # atno 8008 bound_to 7997
  154.4133  140.1180  156.5254 H   0  0  0  0  0  0  0  0  0  0  0  0  # atno 8009 bound_to 7997
  155.6712  140.3473  155.4821 H   0  0  0  0  0  0  0  0  0  0  0  0  # atno 8010 bound_to 7997
  139.6398  144.7123  151.2260 H   0  0  0  0  0  0  0  0  0  0  0  0  # atno 10167 bound_to 10162
  156.0768  130.5974  150.8645 H   0  0  0  0  0  0  0  0  0  0  0  0  # atno 10718 bound_to 10713
  154.0391  135.6646  153.4788 H   0  0  0  0  0  0  0  0  0  0  0  0  # atno 10763 bound_to 10752
  153.0509  135.5085  154.7859 H   0  0  0  0  0  0  0  0  0  0  0  0  # atno 10764 bound_to 10752
  154.6829  135.3048  154.9553 H   0  0  0  0  0  0  0  0  0  0  0  0  # atno 10765 bound_to 10752
  140.4996  134.0759  155.7790 H   0  0  0  0  0  0  0  0  0  0  0  0  # atno 11005 bound_to 11000
  146.3273  139.8372  142.8897 LP  0  0  0  0  0  0  0  0  0  0  0  0  # atno 17320 bound_to 7965
  145.3042  141.0202  143.3591 LP  0  0  0  0  0  0  0  0  0  0  0  0  # atno 17321 bound_to 7965
  140.7485  143.6332  150.8404 LP  0  0  0  0  0  0  0  0  0  0  0  0  # atno 17342 bound_to 10162
  139.9968  143.5788  152.2890 LP  0  0  0  0  0  0  0  0  0  0  0  0  # atno 17343 bound_to 10162
  157.5867  131.0945  150.9184 LP  0  0  0  0  0  0  0  0  0  0  0  0  # atno 17370 bound_to 10713
  156.9369  130.5370  149.5279 LP  0  0  0  0  0  0  0  0  0  0  0  0  # atno 17371 bound_to 10713
  141.1442  133.9084  157.2254 LP  0  0  0  0  0  0  0  0  0  0  0  0  # atno 17394 bound_to 11000
  139.9721  135.0125  156.9538 LP  0  0  0  0  0  0  0  0  0  0  0  0  # atno 17395 bound_to 11000

$$$$
