AV-unprocessed.smi:597|AV-procd|sdf|3020|dock5
  -GOLD-   2262023533D 1   1.00000     0.00000
 Structure written by MMmdl.
 37 38  0  0  0  0  0  0  0  0  3 V2000
  153.5051  139.7373  158.6934 O   0  0  0  0  0  0  0  0  0  0  0  0
  154.1159  139.9390  159.7439 C   0  0  0  0  0  0  0  0  0  0  0  0
  155.2392  138.9955  160.1976 C   0  0  0  0  0  0  0  0  0  0  0  0
  154.9542  138.3186  161.4743 N   0  0  0  0  0  0  0  0  0  0  0  0
  155.5204  138.8796  162.6362 C   0  0  0  0  0  0  0  0  0  0  0  0
  155.3325  138.3402  163.8566 C   0  0  0  0  0  0  0  0  0  0  0  0
  155.9259  138.9267  165.0382 N   0  3  0  0  0  0  0  0  0  0  0  0
  156.5046  140.0035  164.9335 O   0  0  0  0  0  0  0  0  0  0  0  0
  155.8353  138.3317  166.1081 O   0  5  0  0  0  0  0  0  0  0  0  0
  154.5150  137.1458  163.9469 C   0  0  0  0  0  0  0  0  0  0  0  0
  153.9744  136.6020  162.8388 C   0  0  0  0  0  0  0  0  0  0  0  0
  154.1846  137.1878  161.5109 C   0  0  0  0  0  0  0  0  0  0  0  0
  153.6986  136.6922  160.4941 O   0  0  0  0  0  0  0  0  0  0  0  0
  153.8688  140.9839  160.5483 N   0  0  0  0  0  0  0  0  0  0  0  0
  152.8537  142.0070  160.3161 C   0  0  0  0  0  0  0  0  0  0  0  0
  153.1570  142.7953  159.0243 C   0  0  0  0  0  0  0  0  0  0  0  0
  152.1414  143.9285  158.8049 C   0  0  0  0  0  0  0  0  0  0  0  0
  152.0783  144.8658  160.0210 C   0  0  0  0  0  0  0  0  0  0  0  0
  151.7704  144.0839  161.3077 C   0  0  0  0  0  0  0  0  0  0  0  0
  152.7885  142.9537  161.5297 C   0  0  0  0  0  0  0  0  0  0  0  0
  155.4075  138.2626  159.4072 H   0  0  0  0  0  0  0  0  0  0  0  0
  156.1733  139.5563  160.2680 H   0  0  0  0  0  0  0  0  0  0  0  0
  156.1170  139.7635  162.4616 H   0  0  0  0  0  0  0  0  0  0  0  0
  154.3308  136.6782  164.9031 H   0  0  0  0  0  0  0  0  0  0  0  0
  153.3697  135.7116  162.9288 H   0  0  0  0  0  0  0  0  0  0  0  0
  154.4217  141.0755  161.3882 H   0  0  0  0  0  0  0  0  0  0  0  0
  151.8809  141.5219  160.2135 H   0  0  0  0  0  0  0  0  0  0  0  0
  154.1621  143.2167  159.0763 H   0  0  0  0  0  0  0  0  0  0  0  0
  153.1468  142.1274  158.1622 H   0  0  0  0  0  0  0  0  0  0  0  0
  152.4052  144.4957  157.9118 H   0  0  0  0  0  0  0  0  0  0  0  0
  151.1544  143.5023  158.6202 H   0  0  0  0  0  0  0  0  0  0  0  0
  153.0295  145.3885  160.1294 H   0  0  0  0  0  0  0  0  0  0  0  0
  151.3202  145.6328  159.8612 H   0  0  0  0  0  0  0  0  0  0  0  0
  151.7734  144.7597  162.1632 H   0  0  0  0  0  0  0  0  0  0  0  0
  150.7656  143.6637  161.2488 H   0  0  0  0  0  0  0  0  0  0  0  0
  152.5238  142.3942  162.4278 H   0  0  0  0  0  0  0  0  0  0  0  0
  153.7725  143.3873  161.7145 H   0  0  0  0  0  0  0  0  0  0  0  0
  1  2  2  0  0  0  0
  2  3  1  0  0  0  0
  2 14  1  0  0  0  0
  3  4  1  0  0  0  0
  3 21  1  0  0  0  0
  3 22  1  0  0  0  0
  4 12  1  0  0  0  0
  4  5  1  0  0  0  0
  5  6  2  0  0  0  0
  5 23  1  0  0  0  0
  6  7  1  0  0  0  0
  6 10  1  0  0  0  0
  7  8  2  0  0  0  0
  7  9  1  0  0  0  0
 10 11  2  0  0  0  0
 10 24  1  0  0  0  0
 11 12  1  0  0  0  0
 11 25  1  0  0  0  0
 12 13  2  0  0  0  0
 14 15  1  0  0  0  0
 14 26  1  0  0  0  0
 15 20  1  0  0  0  0
 15 16  1  0  0  0  0
 15 27  1  0  0  0  0
 16 17  1  0  0  0  0
 16 28  1  0  0  0  0
 16 29  1  0  0  0  0
 17 18  1  0  0  0  0
 17 30  1  0  0  0  0
 17 31  1  0  0  0  0
 18 19  1  0  0  0  0
 18 32  1  0  0  0  0
 18 33  1  0  0  0  0
 19 20  1  0  0  0  0
 19 34  1  0  0  0  0
 19 35  1  0  0  0  0
 20 36  1  0  0  0  0
 20 37  1  0  0  0  0
M  CHG  1   7   1
M  CHG  1   9  -1
M  END
> <s_m_source_file>
AV-unprocessed.smi

> <i_m_source_file_index>
597

> <i_lp_mmshare_version>
43012

> <i_f3d_flags>
0

> <s_epik_input>
W0NIMl0xW0NIMl1bQ0gyXVtDSDJdW0NIMl1bQ0hdMVtOSF1DKD1PKVtDSDJdbjJbY0hdYyhbTitdKD1PKVtPLV0pW2NIXVtjSF1jMj1P

> <s_epik_cmdline>
J2VwaWtfcHl0aG9uJywgJy1waCcsICc3LjAnLCAnLXRuJywgJzgnLCAnLW1hJywgJzIwMCcsICctbWV0YWxfYmluZGluZycsICctaW1hZScsICc8aW5maWxlLm1hZT4nLCAnLW9tYWUnLCAnPG91dGZpbGUubWFlPic=

> <r_lp_tautomer_probability>
1

> <r_epik_Ionization_Penalty>
1.91289e-08

> <r_epik_Ionization_Penalty_Charging>
8.20451e-11

> <r_epik_Ionization_Penalty_Neutral>
1.90469e-08

> <r_epik_State_Penalty>
-0

> <r_epik_Charging_Adjusted_Penalty>
8.20451e-11

> <i_epik_Tot_Q>
0

> <i_epik_Tot_abs_Q>
2

> <r_epik_Metal_State_Penalty>
-0

> <b_epik_Metal_Only>
0

> <s_lp_Force_Field>
OPLS_2005

> <r_lp_Energy>
19.9817

> <b_lp_Chiralities_Consistent>
1

> <s_lp_Variant>
AV-unprocessed.smi:597-1

> <Gold.Version>
5.8.1

> <Gold.Id.Protein>
6NUR|6NUR_protein|mol2

> <Gold.PLP.Fitness>
46.9551

> <Gold.PLP.PLP>
-44.0454

> <Gold.PLP.part.hbond>
-1.4007

> <Gold.PLP.part.metal>
0.0000

> <Gold.PLP.part.buried>
-6.1094

> <Gold.PLP.part.nonpolar>
-35.4985

> <Gold.PLP.part.repulsive>
0.1415

> <Gold.PLP.ligand.clash>
0.0000

> <Gold.PLP.ligand.torsion>
0.3685

> <Gold.PLP.Chemscore.Hbond>
1.2113

> <Gold.PLP.Chemscore.CHOScore>
0.0000

> <Gold.PLP.Chemscore.Metal>
0.0000

> <Gold.Chemscore.Hbonds>
donor molecule, donor type, donor heavy atom, donor atom, acceptor molecule, acceptor atom, score
      P1  H  6896  6907       L1    13  0.21
      P1  H  7997  8010       L1     1  1.00

> <Gold.PLP.Chemscore.Internal.Correction>
0.0129

> <Gold.Rescore>
     Score         DG    S(hbond)    S(metal)    S(lipo)     H(rot)  DE(clash)    DE(int)     intcor
     17.52     -17.99       1.27        0.00     104.98       1.56       0.12       0.35       ----

> <Gold.Chemscore.Fitness>
17.5177

> <Gold.Chemscore.DG>
-17.9861

> <Gold.Chemscore.ZeroCoef>
-5.4800

> <Gold.Chemscore.Hbond>
1.2662

> <Gold.Chemscore.Metal>
0.0000

> <Gold.Chemscore.Lipo>
104.9754

> <Gold.Chemscore.Internal_Hbond>
0.0000

> <Gold.Chemscore.DEClash>
0.1208

> <Gold.Chemscore.DEInternal>
0.3476

> <Gold.Chemscore.Rot>
1.5646

> <Gold.Chemscore.Internal.Correction>
   9.000000E+99

> <Gold.Chemscore.Hbonds>
donor molecule, donor type, donor heavy atom, donor atom, acceptor molecule, acceptor atom, score
      P1  H  6896  6907       L1    13  0.23
      P1  H  7997  8010       L1     1  0.58

> <Gold.Chemscore.Hbond.Weighted>
-4.2293

> <Gold.Chemscore.Metal.Weighted>
-0.0000

> <Gold.Chemscore.Lipo.Weighted>
-12.2821

> <Gold.Chemscore.Internal_Hbond.Weighted>
0.0000

> <Gold.Chemscore.DEClash.Weighted>
0.1208

> <Gold.Chemscore.DEInternal.Weighted>
0.3476

> <Gold.Chemscore.Rot.Weighted>
4.0053

> <Gold.Chemscore.Internal.Correction.Weighted>
   9.000000E+99

> <Gold.Protein.RotatedTorsions>
[ 6907 6896 6895 6894 ] final   35.25 input  -60.11 | X-H torsion
[ 7974 7965 7964 7962 ] final  131.97 input  175.53 | X-H torsion
[ 8008 7997 7996 7995 ] final   19.58 input   59.86 | X-H torsion
[ 10167 10162 10161 10158 ] final  102.98 input  -65.29 | X-H torsion
[ 10718 10713 10712 10709 ] final  -71.70 input   66.30 | X-H torsion
[ 10763 10752 10751 10750 ] final   35.13 input  -60.55 | X-H torsion
[ 11005 11000 10999 10996 ] final   72.59 input  -57.11 | X-H torsion

> <Gold.Protein.ActiveResidues>
 VAL166  LYS551  ARG553  GLY616  TRP617  ASP618  TYR619  PRO620  LYS621  CYS622 
 ASP623  PHE694  ASN695  SER759  ASP760  ASP761  ALA762  ILE779  LEU786  VAL792 
 PHE793  MET794  SER795  GLU796  ALA797  LYS798  CYS799  TRP800  GLU811  SER814 

> <Gold.Protein.RotatedAtoms>
  152.1136  134.9257  160.0565 H   0  0  0  0  0  0  0  0  0  0  0  0  # atno 6907 bound_to 6896
  152.0425  133.3978  159.4351 H   0  0  0  0  0  0  0  0  0  0  0  0  # atno 6908 bound_to 6896
  150.6845  134.3320  159.4874 H   0  0  0  0  0  0  0  0  0  0  0  0  # atno 6909 bound_to 6896
  145.0018  139.4305  143.5288 H   0  0  0  0  0  0  0  0  0  0  0  0  # atno 7974 bound_to 7965
  154.9228  140.3029  155.5207 H   0  0  0  0  0  0  0  0  0  0  0  0  # atno 8008 bound_to 7997
  156.3009  140.2368  156.4216 H   0  0  0  0  0  0  0  0  0  0  0  0  # atno 8009 bound_to 7997
  154.8314  140.0418  157.1468 H   0  0  0  0  0  0  0  0  0  0  0  0  # atno 8010 bound_to 7997
  139.7302  144.7037  151.0733 H   0  0  0  0  0  0  0  0  0  0  0  0  # atno 10167 bound_to 10162
  156.0351  130.4357  150.2483 H   0  0  0  0  0  0  0  0  0  0  0  0  # atno 10718 bound_to 10713
  153.0133  135.6341  154.1778 H   0  0  0  0  0  0  0  0  0  0  0  0  # atno 10763 bound_to 10752
  154.1518  135.2828  155.3135 H   0  0  0  0  0  0  0  0  0  0  0  0  # atno 10764 bound_to 10752
  154.6047  135.5576  153.7472 H   0  0  0  0  0  0  0  0  0  0  0  0  # atno 10765 bound_to 10752
  139.9483  134.7273  156.0925 H   0  0  0  0  0  0  0  0  0  0  0  0  # atno 11005 bound_to 11000
  146.3453  139.9410  142.8741 LP  0  0  0  0  0  0  0  0  0  0  0  0  # atno 17320 bound_to 7965
  145.2143  140.9909  143.4082 LP  0  0  0  0  0  0  0  0  0  0  0  0  # atno 17321 bound_to 7965
  140.7770  143.5053  150.9720 LP  0  0  0  0  0  0  0  0  0  0  0  0  # atno 17342 bound_to 10162
  139.8741  143.7155  152.3163 LP  0  0  0  0  0  0  0  0  0  0  0  0  # atno 17343 bound_to 10162
  157.0582  131.0082  151.3231 LP  0  0  0  0  0  0  0  0  0  0  0  0  # atno 17370 bound_to 10713
  157.5090  130.7926  149.7684 LP  0  0  0  0  0  0  0  0  0  0  0  0  # atno 17371 bound_to 10713
  141.1139  133.6634  156.3047 LP  0  0  0  0  0  0  0  0  0  0  0  0  # atno 17394 bound_to 11000
  140.5781  134.5773  157.5473 LP  0  0  0  0  0  0  0  0  0  0  0  0  # atno 17395 bound_to 11000

$$$$
