AV-unprocessed.smi:1605|AV-procd|sdf|6453|dock10
  -GOLD-   22720 7103D 1   1.00000     0.00000
 Structure written by MMmdl.
 51 53  0  0  0  0  0  0  0  0  2 V2000
  146.1326  134.5034  151.6676 C   0  0  0  0  0  0  0  0  0  0  0  0
  145.8863  135.3449  152.7837 O   0  0  0  0  0  0  0  0  0  0  0  0
  144.8446  136.2942  152.5863 C   0  0  2  0  0  0  0  0  0  0  0  0
  145.2254  137.1725  151.3847 C   0  0  0  0  0  0  0  0  0  0  0  0
  146.4397  138.0661  151.6946 C   0  0  0  0  0  0  0  0  0  0  0  0
  146.1987  138.9047  152.8969 N   0  3  2  0  0  0  0  0  0  0  0  0
  147.2962  139.8772  153.1382 C   0  0  0  0  0  0  0  0  0  0  0  0
  147.0441  140.7492  154.3839 C   0  0  2  0  0  0  0  0  0  0  0  0
  145.8480  141.4817  154.1954 O   0  0  0  0  0  0  0  0  0  0  0  0
  148.2033  141.7288  154.6489 C   0  0  0  0  0  0  0  0  0  0  0  0
  149.4111  141.0463  155.0767 N   0  0  0  0  0  0  0  0  0  0  0  0
  150.0194  140.0061  154.4745 C   0  0  0  0  0  0  0  0  0  0  0  0
  151.1281  139.5388  155.0409 N   0  0  0  0  0  0  0  0  0  0  0  0
  151.2518  140.3697  156.1415 C   0  0  0  0  0  0  0  0  0  0  0  0
  152.2280  140.4039  157.1610 C   0  0  0  0  0  0  0  0  0  0  0  0
  152.1530  141.3537  158.2049 C   0  0  0  0  0  0  0  0  0  0  0  0
  153.2251  141.3554  159.2804 C   0  0  0  0  0  0  0  0  0  0  0  0
  151.0876  142.2891  158.2396 C   0  0  0  0  0  0  0  0  0  0  0  0
  150.9847  143.3163  159.3532 C   0  0  0  0  0  0  0  0  0  0  0  0
  150.1053  142.2706  157.2275 C   0  0  0  0  0  0  0  0  0  0  0  0
  150.1915  141.3210  156.1942 C   0  0  0  0  0  0  0  0  0  0  0  0
  145.8772  138.0719  154.0867 C   0  0  0  0  0  0  0  0  0  0  0  0
  144.6468  137.1860  153.8268 C   0  0  0  0  0  0  0  0  0  0  0  0
  146.9643  133.8367  151.8948 H   0  0  0  0  0  0  0  0  0  0  0  0
  146.4035  135.0849  150.7856 H   0  0  0  0  0  0  0  0  0  0  0  0
  145.2696  133.8831  151.4270 H   0  0  0  0  0  0  0  0  0  0  0  0
  143.9157  135.7717  152.3507 H   0  0  0  0  0  0  0  0  0  0  0  0
  145.4331  136.5469  150.5157 H   0  0  0  0  0  0  0  0  0  0  0  0
  144.3765  137.8011  151.1123 H   0  0  0  0  0  0  0  0  0  0  0  0
  147.3312  137.4557  151.8472 H   0  0  0  0  0  0  0  0  0  0  0  0
  146.6380  138.7055  150.8335 H   0  0  0  0  0  0  0  0  0  0  0  0
  148.2388  139.3360  153.2326 H   0  0  0  0  0  0  0  0  0  0  0  0
  147.4107  140.5339  152.2743 H   0  0  0  0  0  0  0  0  0  0  0  0
  146.9176  140.1203  155.2642 H   0  0  0  0  0  0  0  0  0  0  0  0
  145.2549  140.9653  153.6708 H   0  0  0  0  0  0  0  0  0  0  0  0
  148.4372  142.2903  153.7435 H   0  0  0  0  0  0  0  0  0  0  0  0
  147.9246  142.4618  155.4077 H   0  0  0  0  0  0  0  0  0  0  0  0
  149.6295  139.5702  153.5662 H   0  0  0  0  0  0  0  0  0  0  0  0
  153.0390  139.6911  157.1345 H   0  0  0  0  0  0  0  0  0  0  0  0
  153.7431  142.3145  159.3019 H   0  0  0  0  0  0  0  0  0  0  0  0
  153.9684  140.5777  159.1028 H   0  0  0  0  0  0  0  0  0  0  0  0
  152.7838  141.1777  160.2613 H   0  0  0  0  0  0  0  0  0  0  0  0
  150.0977  143.9402  159.2386 H   0  0  0  0  0  0  0  0  0  0  0  0
  151.8571  143.9702  159.3514 H   0  0  0  0  0  0  0  0  0  0  0  0
  150.9229  142.8233  160.3236 H   0  0  0  0  0  0  0  0  0  0  0  0
  149.2898  142.9785  157.2412 H   0  0  0  0  0  0  0  0  0  0  0  0
  146.7379  137.4526  154.3444 H   0  0  0  0  0  0  0  0  0  0  0  0
  145.6771  138.7031  154.9515 H   0  0  0  0  0  0  0  0  0  0  0  0
  143.7757  137.8241  153.6732 H   0  0  0  0  0  0  0  0  0  0  0  0
  144.4234  136.5869  154.7091 H   0  0  0  0  0  0  0  0  0  0  0  0
  145.3776  139.4570  152.6927 H   0  0  0  0  0  0  0  0  0  0  0  0
  1  2  1  0  0  0  0
  1 24  1  0  0  0  0
  1 25  1  0  0  0  0
  1 26  1  0  0  0  0
  2  3  1  0  0  0  0
  3 23  1  0  0  0  0
  3  4  1  0  0  0  0
  3 27  1  0  0  0  0
  4  5  1  0  0  0  0
  4 28  1  0  0  0  0
  4 29  1  0  0  0  0
  5  6  1  0  0  0  0
  5 30  1  0  0  0  0
  5 31  1  0  0  0  0
  6  7  1  0  0  0  0
  6 22  1  0  0  0  0
  6 51  1  0  0  0  0
  7  8  1  0  0  0  0
  7 32  1  0  0  0  0
  7 33  1  0  0  0  0
  8  9  1  0  0  0  0
  8 10  1  0  0  0  0
  8 34  1  0  0  0  0
  9 35  1  0  0  0  0
 10 11  1  0  0  0  0
 10 36  1  0  0  0  0
 10 37  1  0  0  0  0
 11 21  1  0  0  0  0
 11 12  1  0  0  0  0
 12 13  2  0  0  0  0
 12 38  1  0  0  0  0
 13 14  1  0  0  0  0
 14 21  2  0  0  0  0
 14 15  1  0  0  0  0
 15 16  2  0  0  0  0
 15 39  1  0  0  0  0
 16 17  1  0  0  0  0
 16 18  1  0  0  0  0
 17 40  1  0  0  0  0
 17 41  1  0  0  0  0
 17 42  1  0  0  0  0
 18 19  1  0  0  0  0
 18 20  2  0  0  0  0
 19 43  1  0  0  0  0
 19 44  1  0  0  0  0
 19 45  1  0  0  0  0
 20 21  1  0  0  0  0
 20 46  1  0  0  0  0
 22 23  1  0  0  0  0
 22 47  1  0  0  0  0
 22 48  1  0  0  0  0
 23 49  1  0  0  0  0
 23 50  1  0  0  0  0
M  CHG  1   6   1
M  END
> <s_m_source_file>
AV-unprocessed.smi

> <i_m_source_file_index>
1605

> <i_lp_mmshare_version>
43012

> <i_f3d_flags>
0

> <s_epik_input>
W0NIM11PW0NIXTFbQ0gyXVtDSDJdTihbQ0gyXVtDSDJdMSlbQ0gyXVtDQEhdKFtPSF0pW0NIMl1uKFtjSF1uMiljKGMyMylbY0hdYyhbQ0gzXSljKFtjSF0zKVtDSDNd

> <s_epik_cmdline>
J2VwaWtfcHl0aG9uJywgJy1waCcsICc3LjAnLCAnLXRuJywgJzgnLCAnLW1hJywgJzIwMCcsICctbWV0YWxfYmluZGluZycsICctaW1hZScsICc8aW5maWxlLm1hZT4nLCAnLW9tYWUnLCAnPG91dGZpbGUubWFlPic=

> <r_epik_Ionization_Penalty>
0.110943

> <r_epik_Ionization_Penalty_Charging>
0.0229283

> <r_epik_Ionization_Penalty_Neutral>
0.0880146

> <r_epik_State_Penalty>
0.0947554

> <r_epik_Charging_Adjusted_Penalty>
0.117684

> <i_epik_Tot_Q>
1

> <i_epik_Tot_abs_Q>
1

> <r_epik_Metal_State_Penalty>
0.0192456

> <b_epik_Metal_Only>
0

> <s_lp_Force_Field>
OPLS_2005

> <r_lp_Energy>
23.6879

> <b_lp_Chiralities_Consistent>
1

> <s_lp_Variant>
AV-unprocessed.smi:1605-3

> <Gold.Version>
5.8.1

> <Gold.Id.Protein>
6NUR|6NUR_protein|mol2

> <Gold.PLP.Fitness>
46.8512

> <Gold.PLP.PLP>
-35.0323

> <Gold.PLP.part.hbond>
-2.6053

> <Gold.PLP.part.metal>
0.0000

> <Gold.PLP.part.buried>
6.1237

> <Gold.PLP.part.nonpolar>
-38.3812

> <Gold.PLP.part.repulsive>
0.1437

> <Gold.PLP.ligand.clash>
0.0000

> <Gold.PLP.ligand.torsion>
0.1292

> <Gold.PLP.Chemscore.Hbond>
3.0000

> <Gold.PLP.Chemscore.CHOScore>
1.0000

> <Gold.PLP.Chemscore.Metal>
0.0000

> <Gold.Chemscore.Hbonds>
donor molecule, donor type, donor heavy atom, donor atom, acceptor molecule, acceptor atom, score
      L1  H     6    51       P1 10175  2.00
      L1  H     9    35       P1 10175  1.00
      L1  C    12    38       P1  7957  1.00

> <Gold.PLP.Chemscore.Internal.Correction>
0.0774

> <Gold.Rescore>
     Score         DG    S(hbond)    S(metal)    S(lipo)     H(rot)  DE(clash)    DE(int)     intcor
     15.40     -17.99       1.91        0.00     100.93       2.22       1.64       0.96       ----

> <Gold.Chemscore.Fitness>
15.4012

> <Gold.Chemscore.DG>
-17.9937

> <Gold.Chemscore.ZeroCoef>
-5.4800

> <Gold.Chemscore.Hbond>
1.9101

> <Gold.Chemscore.Metal>
0.0000

> <Gold.Chemscore.Lipo>
100.9342

> <Gold.Chemscore.Internal_Hbond>
0.0000

> <Gold.Chemscore.DEClash>
1.6361

> <Gold.Chemscore.DEInternal>
0.9564

> <Gold.Chemscore.Rot>
2.2169

> <Gold.Chemscore.Internal.Correction>
   9.000000E+99

> <Gold.Chemscore.Hbonds>
donor molecule, donor type, donor heavy atom, donor atom, acceptor molecule, acceptor atom, score
      L1  H     6    51       P1 10175  0.97
      L1  H     9    35       P1 10175  0.73

> <Gold.Chemscore.Hbond.Weighted>
-6.3797

> <Gold.Chemscore.Metal.Weighted>
-0.0000

> <Gold.Chemscore.Lipo.Weighted>
-11.8093

> <Gold.Chemscore.Internal_Hbond.Weighted>
0.0000

> <Gold.Chemscore.DEClash.Weighted>
1.6361

> <Gold.Chemscore.DEInternal.Weighted>
0.9564

> <Gold.Chemscore.Rot.Weighted>
5.6753

> <Gold.Chemscore.Internal.Correction.Weighted>
   9.000000E+99

> <Gold.Protein.RotatedTorsions>
[ 6907 6896 6895 6894 ] final   74.33 input  -60.11 | X-H torsion
[ 7974 7965 7964 7962 ] final  -93.37 input  175.53 | X-H torsion
[ 8008 7997 7996 7995 ] final  -53.03 input   59.86 | X-H torsion
[ 10167 10162 10161 10158 ] final  -46.43 input  -65.29 | X-H torsion
[ 10718 10713 10712 10709 ] final   58.75 input   66.30 | X-H torsion
[ 10763 10752 10751 10750 ] final  -82.12 input  -60.55 | X-H torsion
[ 11005 11000 10999 10996 ] final -127.89 input  -57.11 | X-H torsion

> <Gold.Protein.ActiveResidues>
 VAL166  LYS551  ARG553  GLY616  TRP617  ASP618  TYR619  PRO620  LYS621  CYS622 
 ASP623  PHE694  ASN695  SER759  ASP760  ASP761  ALA762  ILE779  LEU786  VAL792 
 PHE793  MET794  SER795  GLU796  ALA797  LYS798  CYS799  TRP800  GLU811  SER814 

> <Gold.Protein.RotatedAtoms>
  152.4970  134.4288  159.9504 H   0  0  0  0  0  0  0  0  0  0  0  0  # atno 6907 bound_to 6896
  151.4265  133.3677  159.2771 H   0  0  0  0  0  0  0  0  0  0  0  0  # atno 6908 bound_to 6896
  150.9185  134.8626  159.7533 H   0  0  0  0  0  0  0  0  0  0  0  0  # atno 6909 bound_to 6896
  145.3875  140.9524  143.2359 H   0  0  0  0  0  0  0  0  0  0  0  0  # atno 7974 bound_to 7965
  154.4122  140.1209  156.5088 H   0  0  0  0  0  0  0  0  0  0  0  0  # atno 8008 bound_to 7997
  155.6820  140.3496  155.4839 H   0  0  0  0  0  0  0  0  0  0  0  0  # atno 8009 bound_to 7997
  155.9543  140.1111  157.0940 H   0  0  0  0  0  0  0  0  0  0  0  0  # atno 8010 bound_to 7997
  140.6818  143.2831  151.3781 H   0  0  0  0  0  0  0  0  0  0  0  0  # atno 10167 bound_to 10162
  157.5621  130.8843  149.9128 H   0  0  0  0  0  0  0  0  0  0  0  0  # atno 10718 bound_to 10713
  154.5719  135.5602  153.7103 H   0  0  0  0  0  0  0  0  0  0  0  0  # atno 10763 bound_to 10752
  153.0051  135.6299  154.2102 H   0  0  0  0  0  0  0  0  0  0  0  0  # atno 10764 bound_to 10752
  154.2042  135.2876  155.2960 H   0  0  0  0  0  0  0  0  0  0  0  0  # atno 10765 bound_to 10752
  140.9562  134.0999  157.4014 H   0  0  0  0  0  0  0  0  0  0  0  0  # atno 11005 bound_to 11000
  144.8464  139.5391  143.6877 LP  0  0  0  0  0  0  0  0  0  0  0  0  # atno 17320 bound_to 7965
  146.2813  139.6885  142.9227 LP  0  0  0  0  0  0  0  0  0  0  0  0  # atno 17321 bound_to 7965
  139.6146  144.1030  152.2332 LP  0  0  0  0  0  0  0  0  0  0  0  0  # atno 17342 bound_to 10162
  140.0455  144.5974  150.7377 LP  0  0  0  0  0  0  0  0  0  0  0  0  # atno 17343 bound_to 10162
  156.0673  130.3690  150.0852 LP  0  0  0  0  0  0  0  0  0  0  0  0  # atno 17370 bound_to 10713
  156.9014  130.9621  151.3576 LP  0  0  0  0  0  0  0  0  0  0  0  0  # atno 17371 bound_to 10713
  139.8863  135.0080  156.6488 LP  0  0  0  0  0  0  0  0  0  0  0  0  # atno 17394 bound_to 11000
  140.7533  133.8879  155.8363 LP  0  0  0  0  0  0  0  0  0  0  0  0  # atno 17395 bound_to 11000

$$$$
