AV-unprocessed.smi:1569|AV-procd|sdf|6311|dock4
  -GOLD-   22720 6513D 1   1.00000     0.00000
 Structure written by MMmdl.
 33 34  0  0  0  0  0  0  0  0  1 V2000
  154.1748  140.7227  160.8412 C   0  0  0  0  0  0  0  0  0  0  0  0
  153.3270  141.9369  161.0050 C   0  0  0  0  0  0  0  0  0  0  0  0
  152.7209  142.5573  159.9896 N   0  0  0  0  0  0  0  0  0  0  0  0
  152.0065  143.6874  160.3990 C   0  0  0  0  0  0  0  0  0  0  0  0
  151.2976  144.5364  159.3831 C   0  0  0  0  0  0  0  0  0  0  0  0
  149.9750  143.9257  158.8773 C   0  0  0  0  0  0  0  0  0  0  0  0
  150.1296  143.2645  157.5826 N   0  0  0  0  0  0  0  0  0  0  0  0
  150.7548  142.0943  157.3779 C   0  0  0  0  0  0  0  0  0  0  0  0
  151.2213  141.4099  158.2898 O   0  0  0  0  0  0  0  0  0  0  0  0
  150.8754  141.6440  155.9167 C   0  0  0  0  0  0  0  0  0  0  0  0
  150.5895  140.2176  155.7413 N   0  0  0  0  0  0  0  0  0  0  0  0
  149.2123  139.7607  155.8947 C   0  0  0  0  0  0  0  0  0  0  0  0
  149.1390  138.0853  155.2136 S   0  0  0  0  0  0  0  0  0  0  0  0
  150.9291  137.8937  155.2622 C   0  0  0  0  0  0  0  0  0  0  0  0
  151.5089  139.2880  155.4279 C   0  0  0  0  0  0  0  0  0  0  0  0
  152.7107  139.5045  155.2766 O   0  0  0  0  0  0  0  0  0  0  0  0
  152.0627  143.9011  161.7543 C   0  0  0  0  0  0  0  0  0  0  0  0
  153.0349  142.7024  162.5614 S   0  0  0  0  0  0  0  0  0  0  0  0
  153.9894  140.2524  159.8750 H   0  0  0  0  0  0  0  0  0  0  0  0
  153.9528  140.0020  161.6283 H   0  0  0  0  0  0  0  0  0  0  0  0
  155.2284  140.9959  160.9021 H   0  0  0  0  0  0  0  0  0  0  0  0
  151.0973  145.5239  159.8002 H   0  0  0  0  0  0  0  0  0  0  0  0
  151.9546  144.7079  158.5298 H   0  0  0  0  0  0  0  0  0  0  0  0
  149.5823  143.2285  159.6193 H   0  0  0  0  0  0  0  0  0  0  0  0
  149.2246  144.7100  158.7758 H   0  0  0  0  0  0  0  0  0  0  0  0
  149.7685  143.7540  156.7768 H   0  0  0  0  0  0  0  0  0  0  0  0
  150.2086  142.2513  155.3026 H   0  0  0  0  0  0  0  0  0  0  0  0
  151.8868  141.8463  155.5604 H   0  0  0  0  0  0  0  0  0  0  0  0
  148.9432  139.7437  156.9511 H   0  0  0  0  0  0  0  0  0  0  0  0
  148.5140  140.4119  155.3692 H   0  0  0  0  0  0  0  0  0  0  0  0
  151.2150  137.2737  156.1120 H   0  0  0  0  0  0  0  0  0  0  0  0
  151.2890  137.4218  154.3476 H   0  0  0  0  0  0  0  0  0  0  0  0
  151.6045  144.6967  162.3224 H   0  0  0  0  0  0  0  0  0  0  0  0
  1  2  1  0  0  0  0
  1 19  1  0  0  0  0
  1 20  1  0  0  0  0
  1 21  1  0  0  0  0
  2 18  1  0  0  0  0
  2  3  2  0  0  0  0
  3  4  1  0  0  0  0
  4  5  1  0  0  0  0
  4 17  2  0  0  0  0
  5  6  1  0  0  0  0
  5 22  1  0  0  0  0
  5 23  1  0  0  0  0
  6  7  1  0  0  0  0
  6 24  1  0  0  0  0
  6 25  1  0  0  0  0
  7  8  1  0  0  0  0
  7 26  1  0  0  0  0
  8  9  2  0  0  0  0
  8 10  1  0  0  0  0
 10 11  1  0  0  0  0
 10 27  1  0  0  0  0
 10 28  1  0  0  0  0
 11 15  1  0  0  0  0
 11 12  1  0  0  0  0
 12 13  1  0  0  0  0
 12 29  1  0  0  0  0
 12 30  1  0  0  0  0
 13 14  1  0  0  0  0
 14 15  1  0  0  0  0
 14 31  1  0  0  0  0
 14 32  1  0  0  0  0
 15 16  2  0  0  0  0
 17 18  1  0  0  0  0
 17 33  1  0  0  0  0
M  END
> <s_m_source_file>
AV-unprocessed.smi

> <i_m_source_file_index>
1569

> <i_lp_mmshare_version>
43012

> <i_f3d_flags>
0

> <s_epik_input>
W0NIM11jMW5jKFtjSF1zMSlbQ0gyXVtDSDJdW05IXUMoPU8pW0NIMl1OMltDSDJdU1tDSDJdQzI9Tw==

> <s_epik_cmdline>
J2VwaWtfcHl0aG9uJywgJy1waCcsICc3LjAnLCAnLXRuJywgJzgnLCAnLW1hJywgJzIwMCcsICctbWV0YWxfYmluZGluZycsICctaW1hZScsICc8aW5maWxlLm1hZT4nLCAnLW9tYWUnLCAnPG91dGZpbGUubWFlPic=

> <r_epik_Ionization_Penalty>
0.00098942

> <r_epik_Ionization_Penalty_Charging>
0

> <r_epik_Ionization_Penalty_Neutral>
0.00098942

> <r_epik_State_Penalty>
0.00064447

> <r_epik_Charging_Adjusted_Penalty>
0.00064447

> <i_epik_Tot_Q>
0

> <i_epik_Tot_abs_Q>
0

> <r_epik_Metal_State_Penalty>
-0

> <b_epik_Metal_Only>
0

> <s_epik_Chemistry_Notes>
This compound contains an acetal/aminal-like group ( X-CH(R)-Y where X, Y are N, S, or O) that may be acid/base labile, releasing an aldehyde.

> <s_lp_Force_Field>
OPLS_2005

> <r_lp_Energy>
2.37506

> <b_lp_Chiralities_Consistent>
1

> <s_lp_Variant>
AV-unprocessed.smi:1569-1

> <Gold.Version>
5.8.1

> <Gold.Id.Protein>
6NUR|6NUR_protein|mol2

> <Gold.PLP.Fitness>
47.2908

> <Gold.PLP.PLP>
-43.0554

> <Gold.PLP.part.hbond>
-3.0000

> <Gold.PLP.part.metal>
0.0000

> <Gold.PLP.part.buried>
-6.0891

> <Gold.PLP.part.nonpolar>
-33.8500

> <Gold.PLP.part.repulsive>
0.0352

> <Gold.PLP.ligand.clash>
0.0000

> <Gold.PLP.ligand.torsion>
0.8898

> <Gold.PLP.Chemscore.Hbond>
2.0000

> <Gold.PLP.Chemscore.CHOScore>
0.0000

> <Gold.PLP.Chemscore.Metal>
0.0000

> <Gold.Chemscore.Hbonds>
donor molecule, donor type, donor heavy atom, donor atom, acceptor molecule, acceptor atom, score
      L1  H     7    26       P1  8028  1.00
      P1  H  7997  8009       L1    16  1.00

> <Gold.PLP.Chemscore.Internal.Correction>
0.0150

> <Gold.Rescore>
     Score         DG    S(hbond)    S(metal)    S(lipo)     H(rot)  DE(clash)    DE(int)     intcor
     16.11     -18.55       2.00        0.00      96.78       1.92       0.03       2.41       ----

> <Gold.Chemscore.Fitness>
16.1118

> <Gold.Chemscore.DG>
-18.5476

> <Gold.Chemscore.ZeroCoef>
-5.4800

> <Gold.Chemscore.Hbond>
1.9951

> <Gold.Chemscore.Metal>
0.0000

> <Gold.Chemscore.Lipo>
96.7789

> <Gold.Chemscore.Internal_Hbond>
0.0000

> <Gold.Chemscore.DEClash>
0.0275

> <Gold.Chemscore.DEInternal>
2.4084

> <Gold.Chemscore.Rot>
1.9215

> <Gold.Chemscore.Internal.Correction>
   9.000000E+99

> <Gold.Chemscore.Hbonds>
donor molecule, donor type, donor heavy atom, donor atom, acceptor molecule, acceptor atom, score
      L1  H     7    26       P1  8028  0.99
      P1  H  7997  8009       L1    16  0.98

> <Gold.Chemscore.Hbond.Weighted>
-6.6635

> <Gold.Chemscore.Metal.Weighted>
-0.0000

> <Gold.Chemscore.Lipo.Weighted>
-11.3231

> <Gold.Chemscore.Internal_Hbond.Weighted>
0.0000

> <Gold.Chemscore.DEClash.Weighted>
0.0275

> <Gold.Chemscore.DEInternal.Weighted>
2.4084

> <Gold.Chemscore.Rot.Weighted>
4.9190

> <Gold.Chemscore.Internal.Correction.Weighted>
   9.000000E+99

> <Gold.Protein.RotatedTorsions>
[ 6907 6896 6895 6894 ] final  -37.72 input  -60.11 | X-H torsion
[ 7974 7965 7964 7962 ] final  163.17 input  175.53 | X-H torsion
[ 8008 7997 7996 7995 ] final -132.66 input   59.86 | X-H torsion
[ 10167 10162 10161 10158 ] final  136.08 input  -65.29 | X-H torsion
[ 10718 10713 10712 10709 ] final -161.63 input   66.30 | X-H torsion
[ 10763 10752 10751 10750 ] final   -9.28 input  -60.55 | X-H torsion
[ 11005 11000 10999 10996 ] final  -52.18 input  -57.11 | X-H torsion

> <Gold.Protein.ActiveResidues>
 VAL166  LYS551  ARG553  GLY616  TRP617  ASP618  TYR619  PRO620  LYS621  CYS622 
 ASP623  PHE694  ASN695  SER759  ASP760  ASP761  ALA762  ILE779  LEU786  VAL792 
 PHE793  MET794  SER795  GLU796  ALA797  LYS798  CYS799  TRP800  GLU811  SER814 

> <Gold.Protein.RotatedAtoms>
  151.0113  134.9399  159.8008 H   0  0  0  0  0  0  0  0  0  0  0  0  # atno 6907 bound_to 6896
  152.5303  134.3025  159.9093 H   0  0  0  0  0  0  0  0  0  0  0  0  # atno 6908 bound_to 6896
  151.3031  133.4072  159.2675 H   0  0  0  0  0  0  0  0  0  0  0  0  # atno 6909 bound_to 6896
  144.7602  139.8144  143.6335 H   0  0  0  0  0  0  0  0  0  0  0  0  # atno 7974 bound_to 7965
  155.3325  140.0468  157.3043 H   0  0  0  0  0  0  0  0  0  0  0  0  # atno 8008 bound_to 7997
  154.5320  140.2260  155.8753 H   0  0  0  0  0  0  0  0  0  0  0  0  # atno 8009 bound_to 7997
  156.1798  140.3076  155.9133 H   0  0  0  0  0  0  0  0  0  0  0  0  # atno 8010 bound_to 7997
  139.5193  144.6483  151.5376 H   0  0  0  0  0  0  0  0  0  0  0  0  # atno 10167 bound_to 10162
  156.5990  130.8802  151.2909 H   0  0  0  0  0  0  0  0  0  0  0  0  # atno 10718 bound_to 10713
  153.4526  135.7015  153.6100 H   0  0  0  0  0  0  0  0  0  0  0  0  # atno 10763 bound_to 10752
  153.4428  135.3776  155.2238 H   0  0  0  0  0  0  0  0  0  0  0  0  # atno 10764 bound_to 10752
  154.8728  135.3978  154.3940 H   0  0  0  0  0  0  0  0  0  0  0  0  # atno 10765 bound_to 10752
  141.0911  133.6632  156.3986 H   0  0  0  0  0  0  0  0  0  0  0  0  # atno 11005 bound_to 11000
  146.1657  139.4787  142.9960 LP  0  0  0  0  0  0  0  0  0  0  0  0  # atno 17320 bound_to 7965
  145.6644  141.0232  143.1691 LP  0  0  0  0  0  0  0  0  0  0  0  0  # atno 17321 bound_to 7965
  140.6277  143.9136  150.6579 LP  0  0  0  0  0  0  0  0  0  0  0  0  # atno 17342 bound_to 10162
  140.2430  143.3649  152.1470 LP  0  0  0  0  0  0  0  0  0  0  0  0  # atno 17343 bound_to 10162
  157.7284  130.9657  150.1743 LP  0  0  0  0  0  0  0  0  0  0  0  0  # atno 17370 bound_to 10713
  156.2485  130.3698  149.8258 LP  0  0  0  0  0  0  0  0  0  0  0  0  # atno 17371 bound_to 10713
  140.5251  134.6267  157.5331 LP  0  0  0  0  0  0  0  0  0  0  0  0  # atno 17394 bound_to 11000
  139.9737  134.7251  155.9992 LP  0  0  0  0  0  0  0  0  0  0  0  0  # atno 17395 bound_to 11000

$$$$
