AV-unprocessed.smi:2051|AV-procd|sdf|8327|dock3
  -GOLD-   2272010593D 1   1.00000     0.00000
 Structure written by MMmdl.
 33 34  0  0  0  0  0  0  0  0  1 V2000
  152.4862  139.8822  157.2351 O   0  0  0  0  0  0  0  0  0  0  0  0
  151.3353  140.3152  157.3135 C   0  0  0  0  0  0  0  0  0  0  0  0
  150.8522  141.0643  158.5643 C   0  0  0  0  0  0  0  0  0  0  0  0
  151.4533  142.3994  158.7226 N   0  0  0  0  0  0  0  0  0  0  0  0
  151.3395  143.2855  157.6328 C   0  0  0  0  0  0  0  0  0  0  0  0
  151.8526  144.5255  157.6688 C   0  0  0  0  0  0  0  0  0  0  0  0
  152.5373  144.9461  158.8682 C   0  0  0  0  0  0  0  0  0  0  0  0
  152.6545  144.1054  159.9154 C   0  0  0  0  0  0  0  0  0  0  0  0
  152.0979  142.7478  159.8790 C   0  0  0  0  0  0  0  0  0  0  0  0
  152.2047  141.9721  160.8292 O   0  0  0  0  0  0  0  0  0  0  0  0
  150.4337  140.1825  156.3295 N   0  0  0  0  0  0  0  0  0  0  0  0
  150.6726  139.5193  155.0528 C   0  0  0  0  0  0  0  0  0  0  0  0
  149.5892  139.8667  154.0178 C   0  0  1  0  0  0  0  0  0  0  0  0
  148.3044  139.0518  154.1689 C   0  0  0  0  0  0  0  0  0  0  0  0
  147.2187  139.9759  153.6344 C   0  0  0  0  0  0  0  0  0  0  0  0
  147.9281  141.3182  153.4419 C   0  0  0  0  0  0  0  0  0  0  0  0
  149.1298  141.1986  154.1879 O   0  0  0  0  0  0  0  0  0  0  0  0
  149.7652  141.1413  158.5163 H   0  0  0  0  0  0  0  0  0  0  0  0
  151.0543  140.4530  159.4459 H   0  0  0  0  0  0  0  0  0  0  0  0
  150.8191  142.8915  156.7718 H   0  0  0  0  0  0  0  0  0  0  0  0
  151.7587  145.1892  156.8220 H   0  0  0  0  0  0  0  0  0  0  0  0
  152.9580  145.9390  158.9258 H   0  0  0  0  0  0  0  0  0  0  0  0
  153.1705  144.4371  160.8043 H   0  0  0  0  0  0  0  0  0  0  0  0
  149.5141  140.5742  156.4726 H   0  0  0  0  0  0  0  0  0  0  0  0
  151.6584  139.7940  154.6741 H   0  0  0  0  0  0  0  0  0  0  0  0
  150.6957  138.4429  155.2255 H   0  0  0  0  0  0  0  0  0  0  0  0
  149.9744  139.7521  153.0026 H   0  0  0  0  0  0  0  0  0  0  0  0
  148.3527  138.1020  153.6357 H   0  0  0  0  0  0  0  0  0  0  0  0
  148.1107  138.8350  155.2203 H   0  0  0  0  0  0  0  0  0  0  0  0
  146.7994  139.6150  152.6947 H   0  0  0  0  0  0  0  0  0  0  0  0
  146.4038  140.0609  154.3544 H   0  0  0  0  0  0  0  0  0  0  0  0
  148.1732  141.4756  152.3903 H   0  0  0  0  0  0  0  0  0  0  0  0
  147.3297  142.1635  153.7822 H   0  0  0  0  0  0  0  0  0  0  0  0
  1  2  2  0  0  0  0
  2  3  1  0  0  0  0
  2 11  1  0  0  0  0
  3  4  1  0  0  0  0
  3 18  1  0  0  0  0
  3 19  1  0  0  0  0
  4  9  1  0  0  0  0
  4  5  1  0  0  0  0
  5  6  2  0  0  0  0
  5 20  1  0  0  0  0
  6  7  1  0  0  0  0
  6 21  1  0  0  0  0
  7  8  2  0  0  0  0
  7 22  1  0  0  0  0
  8  9  1  0  0  0  0
  8 23  1  0  0  0  0
  9 10  2  0  0  0  0
 11 12  1  0  0  0  0
 11 24  1  0  0  0  0
 12 13  1  0  0  0  0
 12 25  1  0  0  0  0
 12 26  1  0  0  0  0
 13 17  1  0  0  0  0
 13 14  1  0  0  0  0
 13 27  1  0  0  0  0
 14 15  1  0  0  0  0
 14 28  1  0  0  0  0
 14 29  1  0  0  0  0
 15 16  1  0  0  0  0
 15 30  1  0  0  0  0
 15 31  1  0  0  0  0
 16 17  1  0  0  0  0
 16 32  1  0  0  0  0
 16 33  1  0  0  0  0
M  END
> <s_m_source_file>
AV-unprocessed.smi

> <i_m_source_file_index>
2051

> <i_lp_mmshare_version>
43012

> <i_f3d_flags>
0

> <s_epik_input>
TzFbQ0gyXVtDSDJdW0NIMl1bQ0BIXTFbQ0gyXVtOSF1DKD1PKVtDSDJdbjJbY0hdW2NIXVtjSF1bY0hdYzI9Tw==

> <s_epik_cmdline>
J2VwaWtfcHl0aG9uJywgJy1waCcsICc3LjAnLCAnLXRuJywgJzgnLCAnLW1hJywgJzIwMCcsICctbWV0YWxfYmluZGluZycsICctaW1hZScsICc8aW5maWxlLm1hZT4nLCAnLW9tYWUnLCAnPG91dGZpbGUubWFlPic=

> <r_lp_tautomer_probability>
1

> <r_epik_Ionization_Penalty>
3.94187e-07

> <r_epik_Ionization_Penalty_Charging>
3.67328e-07

> <r_epik_Ionization_Penalty_Neutral>
2.6859e-08

> <r_epik_State_Penalty>
-0

> <r_epik_Charging_Adjusted_Penalty>
3.67328e-07

> <i_epik_Tot_Q>
0

> <i_epik_Tot_abs_Q>
0

> <r_epik_Metal_State_Penalty>
-0

> <b_epik_Metal_Only>
0

> <s_lp_Force_Field>
OPLS_2005

> <r_lp_Energy>
26.6962

> <b_lp_Chiralities_Consistent>
1

> <s_lp_Variant>
AV-unprocessed.smi:2051-2

> <Gold.Version>
5.8.1

> <Gold.Id.Protein>
6NUR|6NUR_protein|mol2

> <Gold.PLP.Fitness>
38.9950

> <Gold.PLP.PLP>
-35.7998

> <Gold.PLP.part.hbond>
-1.8733

> <Gold.PLP.part.metal>
0.0000

> <Gold.PLP.part.buried>
-0.9611

> <Gold.PLP.part.nonpolar>
-31.9072

> <Gold.PLP.part.repulsive>
0.2389

> <Gold.PLP.ligand.clash>
0.0000

> <Gold.PLP.ligand.torsion>
0.4889

> <Gold.PLP.Chemscore.Hbond>
1.0311

> <Gold.PLP.Chemscore.CHOScore>
0.3531

> <Gold.PLP.Chemscore.Metal>
0.0000

> <Gold.Chemscore.Hbonds>
donor molecule, donor type, donor heavy atom, donor atom, acceptor molecule, acceptor atom, score
      P1  H  7997  8010       L1     1  1.00
      L1  C     5    20       P1  8028  0.09

> <Gold.PLP.Chemscore.Internal.Correction>
0.0202

> <Gold.Rescore>
     Score         DG    S(hbond)    S(metal)    S(lipo)     H(rot)  DE(clash)    DE(int)     intcor
     13.90     -14.85       0.97        0.00      89.33       1.69       0.59       0.36       ----

> <Gold.Chemscore.Fitness>
13.8982

> <Gold.Chemscore.DG>
-14.8491

> <Gold.Chemscore.ZeroCoef>
-5.4800

> <Gold.Chemscore.Hbond>
0.9740

> <Gold.Chemscore.Metal>
0.0000

> <Gold.Chemscore.Lipo>
89.3295

> <Gold.Chemscore.Internal_Hbond>
0.0000

> <Gold.Chemscore.DEClash>
0.5915

> <Gold.Chemscore.DEInternal>
0.3594

> <Gold.Chemscore.Rot>
1.6936

> <Gold.Chemscore.Internal.Correction>
   9.000000E+99

> <Gold.Chemscore.Hbonds>
donor molecule, donor type, donor heavy atom, donor atom, acceptor molecule, acceptor atom, score
      P1  H  7997  8010       L1     1  0.96

> <Gold.Chemscore.Hbond.Weighted>
-3.2533

> <Gold.Chemscore.Metal.Weighted>
-0.0000

> <Gold.Chemscore.Lipo.Weighted>
-10.4516

> <Gold.Chemscore.Internal_Hbond.Weighted>
0.0000

> <Gold.Chemscore.DEClash.Weighted>
0.5915

> <Gold.Chemscore.DEInternal.Weighted>
0.3594

> <Gold.Chemscore.Rot.Weighted>
4.3357

> <Gold.Chemscore.Internal.Correction.Weighted>
   9.000000E+99

> <Gold.Protein.RotatedTorsions>
[ 6907 6896 6895 6894 ] final   79.63 input  -60.11 | X-H torsion
[ 7974 7965 7964 7962 ] final  115.56 input  175.53 | X-H torsion
[ 8008 7997 7996 7995 ] final   54.88 input   59.86 | X-H torsion
[ 10167 10162 10161 10158 ] final  -62.97 input  -65.29 | X-H torsion
[ 10718 10713 10712 10709 ] final -100.19 input   66.30 | X-H torsion
[ 10763 10752 10751 10750 ] final  -89.08 input  -60.55 | X-H torsion
[ 11005 11000 10999 10996 ] final -156.75 input  -57.11 | X-H torsion

> <Gold.Protein.ActiveResidues>
 VAL166  LYS551  ARG553  GLY616  TRP617  ASP618  TYR619  PRO620  LYS621  CYS622 
 ASP623  PHE694  ASN695  SER759  ASP760  ASP761  ALA762  ILE779  LEU786  VAL792 
 PHE793  MET794  SER795  GLU796  ALA797  LYS798  CYS799  TRP800  GLU811  SER814 

> <Gold.Protein.RotatedAtoms>
  152.5205  134.3482  159.9241 H   0  0  0  0  0  0  0  0  0  0  0  0  # atno 6907 bound_to 6896
  151.3432  133.3948  159.2681 H   0  0  0  0  0  0  0  0  0  0  0  0  # atno 6908 bound_to 6896
  150.9786  134.9164  159.7889 H   0  0  0  0  0  0  0  0  0  0  0  0  # atno 6909 bound_to 6896
  145.1905  139.3003  143.4371 H   0  0  0  0  0  0  0  0  0  0  0  0  # atno 7974 bound_to 7965
  155.4919  140.3472  155.4356 H   0  0  0  0  0  0  0  0  0  0  0  0  # atno 8008 bound_to 7997
  156.0971  140.1425  156.9545 H   0  0  0  0  0  0  0  0  0  0  0  0  # atno 8009 bound_to 7997
  154.4670  140.0914  156.7024 H   0  0  0  0  0  0  0  0  0  0  0  0  # atno 8010 bound_to 7997
  140.5902  143.2340  151.6155 H   0  0  0  0  0  0  0  0  0  0  0  0  # atno 10167 bound_to 10162
  156.0156  130.5316  150.6780 H   0  0  0  0  0  0  0  0  0  0  0  0  # atno 10718 bound_to 10713
  154.6515  135.5354  153.7907 H   0  0  0  0  0  0  0  0  0  0  0  0  # atno 10763 bound_to 10752
  153.0389  135.6483  154.1010 H   0  0  0  0  0  0  0  0  0  0  0  0  # atno 10764 bound_to 10752
  154.0927  135.2939  155.3248 H   0  0  0  0  0  0  0  0  0  0  0  0  # atno 10765 bound_to 10752
  140.6721  134.4236  157.5231 H   0  0  0  0  0  0  0  0  0  0  0  0  # atno 11005 bound_to 11000
  146.3437  140.2115  142.8590 LP  0  0  0  0  0  0  0  0  0  0  0  0  # atno 17320 bound_to 7965
  145.0046  140.8662  143.5261 LP  0  0  0  0  0  0  0  0  0  0  0  0  # atno 17321 bound_to 7965
  139.5223  144.3167  152.0946 LP  0  0  0  0  0  0  0  0  0  0  0  0  # atno 17342 bound_to 10162
  140.2331  144.4348  150.6292 LP  0  0  0  0  0  0  0  0  0  0  0  0  # atno 17343 bound_to 10162
  157.4489  131.0870  151.0867 LP  0  0  0  0  0  0  0  0  0  0  0  0  # atno 17370 bound_to 10713
  157.1388  130.6134  149.5549 LP  0  0  0  0  0  0  0  0  0  0  0  0  # atno 17371 bound_to 10713
  139.8978  134.8628  156.2028 LP  0  0  0  0  0  0  0  0  0  0  0  0  # atno 17394 bound_to 11000
  141.0384  133.6951  156.1553 LP  0  0  0  0  0  0  0  0  0  0  0  0  # atno 17395 bound_to 11000

$$$$
