AV-unprocessed.smi:2857|AV-procd|sdf|10997|dock4
  -GOLD-   2272015453D 1   1.00000     0.00000
 Structure written by MMmdl.
 44 46  0  0  0  0  0  0  0  0  1 V2000
  154.1712  140.8917  161.6253 C   0  0  0  0  0  0  0  0  0  0  0  0
  153.2940  142.0327  161.1523 C   0  0  0  0  0  0  0  0  0  0  0  0
  153.0228  143.1221  162.0025 C   0  0  0  0  0  0  0  0  0  0  0  0
  152.2087  144.1774  161.5538 C   0  0  0  0  0  0  0  0  0  0  0  0
  151.6614  144.1513  160.2543 C   0  0  0  0  0  0  0  0  0  0  0  0
  150.7841  145.2980  159.7880 C   0  0  0  0  0  0  0  0  0  0  0  0
  151.9242  143.0627  159.3905 C   0  0  0  0  0  0  0  0  0  0  0  0
  151.3569  143.0989  158.1332 O   0  0  0  0  0  0  0  0  0  0  0  0
  151.3193  141.9018  157.3680 C   0  0  0  0  0  0  0  0  0  0  0  0
  149.9337  141.7817  156.7153 C   0  0  2  0  0  0  0  0  0  0  0  0
  149.0166  141.3367  157.6958 O   0  0  0  0  0  0  0  0  0  0  0  0
  149.9376  140.7897  155.5352 C   0  0  0  0  0  0  0  0  0  0  0  0
  150.8198  139.6546  155.7629 N   0  0  0  0  0  0  0  0  0  0  0  0
  151.9893  139.5711  155.0772 N   0  0  0  0  0  0  0  0  0  0  0  0
  152.5661  138.4409  155.4803 C   0  0  0  0  0  0  0  0  0  0  0  0
  151.7785  137.7553  156.4452 C   0  0  0  0  0  0  0  0  0  0  0  0
  151.9161  136.5123  157.1976 C   0  0  0  0  0  0  0  0  0  0  0  0
  150.9673  136.1831  158.0172 N   0  0  0  0  0  0  0  0  0  0  0  0
  149.8366  136.9911  158.1830 N   0  0  0  0  0  0  0  0  0  0  0  0
  148.8570  136.4833  159.1406 C   0  0  0  0  0  0  0  0  0  0  0  0
  149.6131  138.1720  157.5309 C   0  0  0  0  0  0  0  0  0  0  0  0
  148.6124  138.8697  157.6950 O   0  0  0  0  0  0  0  0  0  0  0  0
  150.6938  138.5561  156.5908 C   0  0  0  0  0  0  0  0  0  0  0  0
  152.7472  142.0041  159.8535 C   0  0  0  0  0  0  0  0  0  0  0  0
  154.4742  141.0255  162.6642 H   0  0  0  0  0  0  0  0  0  0  0  0
  155.0712  140.8296  161.0132 H   0  0  0  0  0  0  0  0  0  0  0  0
  153.6360  139.9451  161.5469 H   0  0  0  0  0  0  0  0  0  0  0  0
  153.4369  143.1536  162.9998 H   0  0  0  0  0  0  0  0  0  0  0  0
  152.0055  145.0084  162.2136 H   0  0  0  0  0  0  0  0  0  0  0  0
  149.7675  144.9466  159.6112 H   0  0  0  0  0  0  0  0  0  0  0  0
  151.1693  145.7186  158.8589 H   0  0  0  0  0  0  0  0  0  0  0  0
  150.7437  146.0970  160.5284 H   0  0  0  0  0  0  0  0  0  0  0  0
  152.0807  141.9671  156.5890 H   0  0  0  0  0  0  0  0  0  0  0  0
  151.5383  141.0236  157.9785 H   0  0  0  0  0  0  0  0  0  0  0  0
  149.6155  142.7603  156.3531 H   0  0  0  0  0  0  0  0  0  0  0  0
  148.1552  141.3103  157.3076 H   0  0  0  0  0  0  0  0  0  0  0  0
  148.9295  140.4057  155.3714 H   0  0  0  0  0  0  0  0  0  0  0  0
  150.2213  141.2885  154.6092 H   0  0  0  0  0  0  0  0  0  0  0  0
  153.5219  138.1606  155.0628 H   0  0  0  0  0  0  0  0  0  0  0  0
  152.7954  135.8814  157.0691 H   0  0  0  0  0  0  0  0  0  0  0  0
  147.8864  136.3446  158.6617 H   0  0  0  0  0  0  0  0  0  0  0  0
  148.7328  137.1826  159.9685 H   0  0  0  0  0  0  0  0  0  0  0  0
  149.1567  135.5222  159.5619 H   0  0  0  0  0  0  0  0  0  0  0  0
  152.9754  141.1553  159.2270 H   0  0  0  0  0  0  0  0  0  0  0  0
  1  2  1  0  0  0  0
  1 25  1  0  0  0  0
  1 26  1  0  0  0  0
  1 27  1  0  0  0  0
  2 24  1  0  0  0  0
  2  3  2  0  0  0  0
  3  4  1  0  0  0  0
  3 28  1  0  0  0  0
  4  5  2  0  0  0  0
  4 29  1  0  0  0  0
  5  6  1  0  0  0  0
  5  7  1  0  0  0  0
  6 30  1  0  0  0  0
  6 31  1  0  0  0  0
  6 32  1  0  0  0  0
  7  8  1  0  0  0  0
  7 24  2  0  0  0  0
  8  9  1  0  0  0  0
  9 10  1  0  0  0  0
  9 33  1  0  0  0  0
  9 34  1  0  0  0  0
 10 11  1  0  0  0  0
 10 12  1  0  0  0  0
 10 35  1  0  0  0  0
 11 36  1  0  0  0  0
 12 13  1  0  0  0  0
 12 37  1  0  0  0  0
 12 38  1  0  0  0  0
 13 23  1  0  0  0  0
 13 14  1  0  0  0  0
 14 15  2  0  0  0  0
 15 16  1  0  0  0  0
 15 39  1  0  0  0  0
 16 23  2  0  0  0  0
 16 17  1  0  0  0  0
 17 18  2  0  0  0  0
 17 40  1  0  0  0  0
 18 19  1  0  0  0  0
 19 20  1  0  0  0  0
 19 21  1  0  0  0  0
 20 41  1  0  0  0  0
 20 42  1  0  0  0  0
 20 43  1  0  0  0  0
 21 22  2  0  0  0  0
 21 23  1  0  0  0  0
 24 44  1  0  0  0  0
M  END
> <s_m_source_file>
AV-unprocessed.smi

> <i_m_source_file_index>
2857

> <i_lp_mmshare_version>
43012

> <i_f3d_flags>
0

> <s_epik_input>
W0NIM11jMVtjSF1bY0hdYyhbQ0gzXSljKFtjSF0xKU9bQ0gyXVtDQEhdKFtPSF0pW0NIMl1uKG5bY0hdMiljKGMyMyljKD1PKW4oW0NIM10pbltjSF0z

> <s_epik_cmdline>
J2VwaWtfcHl0aG9uJywgJy1waCcsICc3LjAnLCAnLXRuJywgJzgnLCAnLW1hJywgJzIwMCcsICctbWV0YWxfYmluZGluZycsICctaW1hZScsICc8aW5maWxlLm1hZT4nLCAnLW9tYWUnLCAnPG91dGZpbGUubWFlPic=

> <r_lp_tautomer_probability>
1

> <r_epik_Ionization_Penalty>
2.24607e-06

> <r_epik_Ionization_Penalty_Charging>
1.42095e-10

> <r_epik_Ionization_Penalty_Neutral>
2.24593e-06

> <r_epik_State_Penalty>
-0

> <r_epik_Charging_Adjusted_Penalty>
1.42095e-10

> <i_epik_Tot_Q>
0

> <i_epik_Tot_abs_Q>
0

> <r_epik_Metal_State_Penalty>
-0

> <b_epik_Metal_Only>
0

> <s_lp_Force_Field>
OPLS_2005

> <r_lp_Energy>
31.8826

> <b_lp_Chiralities_Consistent>
1

> <s_lp_Variant>
AV-unprocessed.smi:2857-1

> <Gold.Version>
5.8.1

> <Gold.Id.Protein>
6NUR|6NUR_protein|mol2

> <Gold.PLP.Fitness>
49.3419

> <Gold.PLP.PLP>
-47.7567

> <Gold.PLP.part.hbond>
-2.0000

> <Gold.PLP.part.metal>
0.0000

> <Gold.PLP.part.buried>
-8.0512

> <Gold.PLP.part.nonpolar>
-38.7152

> <Gold.PLP.part.repulsive>
0.1073

> <Gold.PLP.ligand.clash>
0.0071

> <Gold.PLP.ligand.torsion>
1.0673

> <Gold.PLP.Chemscore.Hbond>
1.2192

> <Gold.PLP.Chemscore.CHOScore>
0.0000

> <Gold.PLP.Chemscore.Metal>
0.0000

> <Gold.Chemscore.Hbonds>
donor molecule, donor type, donor heavy atom, donor atom, acceptor molecule, acceptor atom, score
      P1  H  6896  6907       L1    18  0.43
      P1  H  7989  7998       L1    14  0.86

> <Gold.PLP.Chemscore.Internal.Correction>
0.0694

> <Gold.Rescore>
     Score         DG    S(hbond)    S(metal)    S(lipo)     H(rot)  DE(clash)    DE(int)     intcor
     15.34     -18.28       0.95        0.00     133.02       2.32       0.04       2.89       ----

> <Gold.Chemscore.Fitness>
15.3413

> <Gold.Chemscore.DG>
-18.2767

> <Gold.Chemscore.ZeroCoef>
-5.4800

> <Gold.Chemscore.Hbond>
0.9527

> <Gold.Chemscore.Metal>
0.0000

> <Gold.Chemscore.Lipo>
133.0187

> <Gold.Chemscore.Internal_Hbond>
0.0000

> <Gold.Chemscore.DEClash>
0.0435

> <Gold.Chemscore.DEInternal>
2.8919

> <Gold.Chemscore.Rot>
2.3236

> <Gold.Chemscore.Internal.Correction>
   9.000000E+99

> <Gold.Chemscore.Hbonds>
donor molecule, donor type, donor heavy atom, donor atom, acceptor molecule, acceptor atom, score
      P1  H  6896  6907       L1    18  0.20
      P1  H  7989  7998       L1    14  0.28

> <Gold.Chemscore.Hbond.Weighted>
-3.1819

> <Gold.Chemscore.Metal.Weighted>
-0.0000

> <Gold.Chemscore.Lipo.Weighted>
-15.5632

> <Gold.Chemscore.Internal_Hbond.Weighted>
0.0000

> <Gold.Chemscore.DEClash.Weighted>
0.0435

> <Gold.Chemscore.DEInternal.Weighted>
2.8919

> <Gold.Chemscore.Rot.Weighted>
5.9484

> <Gold.Chemscore.Internal.Correction.Weighted>
   9.000000E+99

> <Gold.Protein.RotatedTorsions>
[ 6907 6896 6895 6894 ] final  -49.35 input  -60.11 | X-H torsion
[ 7974 7965 7964 7962 ] final  120.04 input  175.53 | X-H torsion
[ 8008 7997 7996 7995 ] final   83.68 input   59.86 | X-H torsion
[ 10167 10162 10161 10158 ] final   97.37 input  -65.29 | X-H torsion
[ 10718 10713 10712 10709 ] final   15.44 input   66.30 | X-H torsion
[ 10763 10752 10751 10750 ] final   64.07 input  -60.55 | X-H torsion
[ 11005 11000 10999 10996 ] final   54.18 input  -57.11 | X-H torsion

> <Gold.Protein.ActiveResidues>
 VAL166  LYS551  ARG553  GLY616  TRP617  ASP618  TYR619  PRO620  LYS621  CYS622 
 ASP623  PHE694  ASN695  SER759  ASP760  ASP761  ALA762  ILE779  LEU786  VAL792 
 PHE793  MET794  SER795  GLU796  ALA797  LYS798  CYS799  TRP800  GLU811  SER814 

> <Gold.Protein.RotatedAtoms>
  150.8814  134.8205  159.7227 H   0  0  0  0  0  0  0  0  0  0  0  0  # atno 6907 bound_to 6896
  152.4780  134.4790  159.9669 H   0  0  0  0  0  0  0  0  0  0  0  0  # atno 6908 bound_to 6896
  151.4865  133.3496  159.2882 H   0  0  0  0  0  0  0  0  0  0  0  0  # atno 6909 bound_to 6896
  145.1359  139.3298  143.4641 H   0  0  0  0  0  0  0  0  0  0  0  0  # atno 7974 bound_to 7965
  155.9271  140.3417  155.6219 H   0  0  0  0  0  0  0  0  0  0  0  0  # atno 8008 bound_to 7997
  155.7203  140.0782  157.2352 H   0  0  0  0  0  0  0  0  0  0  0  0  # atno 8009 bound_to 7997
  154.4079  140.1606  156.2382 H   0  0  0  0  0  0  0  0  0  0  0  0  # atno 8010 bound_to 7997
  139.7807  144.6889  151.0026 H   0  0  0  0  0  0  0  0  0  0  0  0  # atno 10167 bound_to 10162
  157.0536  130.6280  149.5772 H   0  0  0  0  0  0  0  0  0  0  0  0  # atno 10718 bound_to 10713
  153.0041  135.5406  154.6452 H   0  0  0  0  0  0  0  0  0  0  0  0  # atno 10763 bound_to 10752
  154.5697  135.2840  155.0841 H   0  0  0  0  0  0  0  0  0  0  0  0  # atno 10764 bound_to 10752
  154.2012  135.6483  153.5140 H   0  0  0  0  0  0  0  0  0  0  0  0  # atno 10765 bound_to 10752
  140.0707  134.5474  155.9050 H   0  0  0  0  0  0  0  0  0  0  0  0  # atno 11005 bound_to 11000
  146.3510  140.1377  142.8595 LP  0  0  0  0  0  0  0  0  0  0  0  0  # atno 17320 bound_to 7965
  145.0584  140.9070  143.4953 LP  0  0  0  0  0  0  0  0  0  0  0  0  # atno 17321 bound_to 7965
  140.7818  143.4486  151.0446 LP  0  0  0  0  0  0  0  0  0  0  0  0  # atno 17342 bound_to 10162
  139.8167  143.7877  152.3174 LP  0  0  0  0  0  0  0  0  0  0  0  0  # atno 17343 bound_to 10162
  156.0000  130.5077  150.7627 LP  0  0  0  0  0  0  0  0  0  0  0  0  # atno 17370 bound_to 10713
  157.5010  131.0918  151.0314 LP  0  0  0  0  0  0  0  0  0  0  0  0  # atno 17371 bound_to 10713
  141.2010  133.6616  156.5930 LP  0  0  0  0  0  0  0  0  0  0  0  0  # atno 17394 bound_to 11000
  140.3631  134.7670  157.4548 LP  0  0  0  0  0  0  0  0  0  0  0  0  # atno 17395 bound_to 11000

$$$$
