AV-unprocessed.smi:1840|AV-procd|sdf|7491|dock1
  -GOLD-   22720 9193D 1   1.00000     0.00000
 Structure written by MMmdl.
 43 44  0  0  0  0  0  0  0  0  1 V2000
  151.0291  137.6017  155.4697 C   0  0  0  0  0  0  0  0  0  0  0  0
  149.6977  138.2918  155.1433 C   0  0  1  0  0  0  0  0  0  0  0  0
  149.9220  139.6345  154.4132 C   0  0  0  0  0  0  0  0  0  0  0  0
  148.6813  140.3385  154.1379 N   0  0  0  0  0  0  0  0  0  0  0  0
  148.3697  141.6578  154.3939 C   0  0  0  0  0  0  0  0  0  0  0  0
  147.1022  141.8725  153.9342 C   0  0  0  0  0  0  0  0  0  0  0  0
  146.7137  140.6068  153.4132 C   0  0  0  0  0  0  0  0  0  0  0  0
  147.6594  139.6897  153.5398 N   0  0  0  0  0  0  0  0  0  0  0  0
  148.8819  137.3942  154.3265 N   0  0  0  0  0  0  0  0  0  0  0  0
  147.7082  136.8604  154.6946 C   0  0  0  0  0  0  0  0  0  0  0  0
  147.2093  136.9844  155.8132 O   0  0  0  0  0  0  0  0  0  0  0  0
  147.1200  136.2151  153.6789 N   0  0  0  0  0  0  0  0  0  0  0  0
  145.7837  135.6198  153.7144 C   0  0  1  0  0  0  0  0  0  0  0  0
  144.8681  136.2440  152.6360 C   0  0  0  0  0  0  0  0  0  0  0  0
  145.2999  135.8517  151.2131 C   0  0  0  0  0  0  0  0  0  0  0  0
  145.3661  134.3253  151.0572 C   0  0  0  0  0  0  0  0  0  0  0  0
  146.2827  133.6917  152.1166 C   0  0  0  0  0  0  0  0  0  0  0  0
  145.8559  134.0816  153.5479 C   0  0  1  0  0  0  0  0  0  0  0  0
  146.7449  133.4072  154.6071 C   0  0  0  0  0  0  0  0  0  0  0  0
  151.6529  138.2342  156.1018 H   0  0  0  0  0  0  0  0  0  0  0  0
  151.5936  137.3764  154.5642 H   0  0  0  0  0  0  0  0  0  0  0  0
  150.8649  136.6648  156.0032 H   0  0  0  0  0  0  0  0  0  0  0  0
  149.1963  138.4898  156.0925 H   0  0  0  0  0  0  0  0  0  0  0  0
  150.5565  140.2880  155.0139 H   0  0  0  0  0  0  0  0  0  0  0  0
  150.4470  139.4739  153.4706 H   0  0  0  0  0  0  0  0  0  0  0  0
  149.0722  142.3291  154.8653 H   0  0  0  0  0  0  0  0  0  0  0  0
  146.5399  142.7938  153.9624 H   0  0  0  0  0  0  0  0  0  0  0  0
  145.7789  140.3293  152.9487 H   0  0  0  0  0  0  0  0  0  0  0  0
  149.2030  137.2238  153.3848 H   0  0  0  0  0  0  0  0  0  0  0  0
  147.6108  136.1692  152.7981 H   0  0  0  0  0  0  0  0  0  0  0  0
  145.3511  135.8317  154.6941 H   0  0  0  0  0  0  0  0  0  0  0  0
  143.8435  135.9085  152.8015 H   0  0  0  0  0  0  0  0  0  0  0  0
  144.8438  137.3304  152.7297 H   0  0  0  0  0  0  0  0  0  0  0  0
  144.6027  136.2693  150.4862 H   0  0  0  0  0  0  0  0  0  0  0  0
  146.2742  136.2878  150.9887 H   0  0  0  0  0  0  0  0  0  0  0  0
  144.3629  133.9064  151.1462 H   0  0  0  0  0  0  0  0  0  0  0  0
  145.7200  134.0689  150.0582 H   0  0  0  0  0  0  0  0  0  0  0  0
  146.2657  132.6069  152.0068 H   0  0  0  0  0  0  0  0  0  0  0  0
  147.3134  134.0002  151.9372 H   0  0  0  0  0  0  0  0  0  0  0  0
  144.8459  133.6968  153.6983 H   0  0  0  0  0  0  0  0  0  0  0  0
  147.7916  133.6931  154.4998 H   0  0  0  0  0  0  0  0  0  0  0  0
  146.6919  132.3212  154.5263 H   0  0  0  0  0  0  0  0  0  0  0  0
  146.4269  133.6772  155.6144 H   0  0  0  0  0  0  0  0  0  0  0  0
  1  2  1  0  0  0  0
  1 20  1  0  0  0  0
  1 21  1  0  0  0  0
  1 22  1  0  0  0  0
  2  3  1  0  0  0  0
  2  9  1  0  0  0  0
  2 23  1  0  0  0  0
  3  4  1  0  0  0  0
  3 24  1  0  0  0  0
  3 25  1  0  0  0  0
  4  8  1  0  0  0  0
  4  5  1  0  0  0  0
  5  6  2  0  0  0  0
  5 26  1  0  0  0  0
  6  7  1  0  0  0  0
  6 27  1  0  0  0  0
  7  8  2  0  0  0  0
  7 28  1  0  0  0  0
  9 10  1  0  0  0  0
  9 29  1  0  0  0  0
 10 11  2  0  0  0  0
 10 12  1  0  0  0  0
 12 13  1  0  0  0  0
 12 30  1  0  0  0  0
 13 18  1  0  0  0  0
 13 14  1  0  0  0  0
 13 31  1  0  0  0  0
 14 15  1  0  0  0  0
 14 32  1  0  0  0  0
 14 33  1  0  0  0  0
 15 16  1  0  0  0  0
 15 34  1  0  0  0  0
 15 35  1  0  0  0  0
 16 17  1  0  0  0  0
 16 36  1  0  0  0  0
 16 37  1  0  0  0  0
 17 18  1  0  0  0  0
 17 38  1  0  0  0  0
 17 39  1  0  0  0  0
 18 19  1  0  0  0  0
 18 40  1  0  0  0  0
 19 41  1  0  0  0  0
 19 42  1  0  0  0  0
 19 43  1  0  0  0  0
M  END
> <s_m_source_file>
AV-unprocessed.smi

> <i_m_source_file_index>
1840

> <i_lp_mmshare_version>
43012

> <i_f3d_flags>
0

> <s_epik_input>
bjFbY0hdW2NIXVtjSF1uMVtDSDJdW0NAQEhdKFtDSDNdKVtOSF1DKD1PKVtOSF1bQ0BASF0yW0NIMl1bQ0gyXVtDSDJdW0NIMl1bQ0BIXTJbQ0gzXQ==

> <s_epik_cmdline>
J2VwaWtfcHl0aG9uJywgJy1waCcsICc3LjAnLCAnLXRuJywgJzgnLCAnLW1hJywgJzIwMCcsICctbWV0YWxfYmluZGluZycsICctaW1hZScsICc8aW5maWxlLm1hZT4nLCAnLW9tYWUnLCAnPG91dGZpbGUubWFlPic=

> <r_lp_tautomer_probability>
1

> <r_epik_Ionization_Penalty>
7.38659e-05

> <r_epik_Ionization_Penalty_Charging>
0

> <r_epik_Ionization_Penalty_Neutral>
7.38659e-05

> <r_epik_State_Penalty>
-0

> <r_epik_Charging_Adjusted_Penalty>
0

> <i_epik_Tot_Q>
0

> <i_epik_Tot_abs_Q>
0

> <r_epik_Metal_State_Penalty>
-0

> <b_epik_Metal_Only>
0

> <s_lp_Force_Field>
OPLS_2005

> <r_lp_Energy>
6.83703

> <b_lp_Chiralities_Consistent>
1

> <s_lp_Variant>
AV-unprocessed.smi:1840-4

> <Gold.Version>
5.8.1

> <Gold.Id.Protein>
6NUR|6NUR_protein|mol2

> <Gold.PLP.Fitness>
39.8177

> <Gold.PLP.PLP>
-28.3401

> <Gold.PLP.part.hbond>
-2.0000

> <Gold.PLP.part.metal>
0.0000

> <Gold.PLP.part.buried>
-1.3479

> <Gold.PLP.part.nonpolar>
-24.6900

> <Gold.PLP.part.repulsive>
0.8908

> <Gold.PLP.ligand.clash>
0.0000

> <Gold.PLP.ligand.torsion>
0.1163

> <Gold.PLP.Chemscore.Hbond>
1.9120

> <Gold.PLP.Chemscore.CHOScore>
1.9783

> <Gold.PLP.Chemscore.Metal>
0.0000

> <Gold.Chemscore.Hbonds>
donor molecule, donor type, donor heavy atom, donor atom, acceptor molecule, acceptor atom, score
      L1  H     9    29       P1  7948  0.93
      L1  H    12    30       P1  7948  1.00
      L1  C     5    26       P1  8028  1.00
      L1  C     7    28       P1 10175  1.00

> <Gold.PLP.Chemscore.Internal.Correction>
0.0391

> <Gold.Rescore>
     Score         DG    S(hbond)    S(metal)    S(lipo)     H(rot)  DE(clash)    DE(int)     intcor
     15.13     -15.19       1.89        0.00      63.28       1.56       0.01       0.06       ----

> <Gold.Chemscore.Fitness>
15.1280

> <Gold.Chemscore.DG>
-15.1947

> <Gold.Chemscore.ZeroCoef>
-5.4800

> <Gold.Chemscore.Hbond>
1.8857

> <Gold.Chemscore.Metal>
0.0000

> <Gold.Chemscore.Lipo>
63.2828

> <Gold.Chemscore.Internal_Hbond>
0.0000

> <Gold.Chemscore.DEClash>
0.0100

> <Gold.Chemscore.DEInternal>
0.0567

> <Gold.Chemscore.Rot>
1.5576

> <Gold.Chemscore.Internal.Correction>
   9.000000E+99

> <Gold.Chemscore.Hbonds>
donor molecule, donor type, donor heavy atom, donor atom, acceptor molecule, acceptor atom, score
      L1  H     9    29       P1  7948  0.90
      L1  H    12    30       P1  7948  0.97

> <Gold.Chemscore.Hbond.Weighted>
-6.2981

> <Gold.Chemscore.Metal.Weighted>
-0.0000

> <Gold.Chemscore.Lipo.Weighted>
-7.4041

> <Gold.Chemscore.Internal_Hbond.Weighted>
0.0000

> <Gold.Chemscore.DEClash.Weighted>
0.0100

> <Gold.Chemscore.DEInternal.Weighted>
0.0567

> <Gold.Chemscore.Rot.Weighted>
3.9875

> <Gold.Chemscore.Internal.Correction.Weighted>
   9.000000E+99

> <Gold.Protein.RotatedTorsions>
[ 6907 6896 6895 6894 ] final -156.09 input  -60.11 | X-H torsion
[ 7974 7965 7964 7962 ] final    5.40 input  175.53 | X-H torsion
[ 8008 7997 7996 7995 ] final -153.33 input   59.86 | X-H torsion
[ 10167 10162 10161 10158 ] final  -72.85 input  -65.29 | X-H torsion
[ 10718 10713 10712 10709 ] final   23.16 input   66.30 | X-H torsion
[ 10763 10752 10751 10750 ] final   69.05 input  -60.55 | X-H torsion
[ 11005 11000 10999 10996 ] final  -92.67 input  -57.11 | X-H torsion

> <Gold.Protein.ActiveResidues>
 VAL166  LYS551  ARG553  GLY616  TRP617  ASP618  TYR619  PRO620  LYS621  CYS622 
 ASP623  PHE694  ASN695  SER759  ASP760  ASP761  ALA762  ILE779  LEU786  VAL792 
 PHE793  MET794  SER795  GLU796  ALA797  LYS798  CYS799  TRP800  GLU811  SER814 

> <Gold.Protein.RotatedAtoms>
  151.2823  133.4204  159.2627 H   0  0  0  0  0  0  0  0  0  0  0  0  # atno 6907 bound_to 6896
  151.0349  134.9566  159.8141 H   0  0  0  0  0  0  0  0  0  0  0  0  # atno 6908 bound_to 6896
  152.5353  134.2783  159.9050 H   0  0  0  0  0  0  0  0  0  0  0  0  # atno 6909 bound_to 6896
  146.2440  140.0389  142.8383 H   0  0  0  0  0  0  0  0  0  0  0  0  # atno 7974 bound_to 7965
  155.6692  140.0731  157.2526 H   0  0  0  0  0  0  0  0  0  0  0  0  # atno 8008 bound_to 7997
  154.4127  140.1702  156.1911 H   0  0  0  0  0  0  0  0  0  0  0  0  # atno 8009 bound_to 7997
  155.9631  140.3368  155.6511 H   0  0  0  0  0  0  0  0  0  0  0  0  # atno 8010 bound_to 7997
  140.5159  143.2338  151.7514 H   0  0  0  0  0  0  0  0  0  0  0  0  # atno 10167 bound_to 10162
  157.1623  130.6722  149.6048 H   0  0  0  0  0  0  0  0  0  0  0  0  # atno 10718 bound_to 10713
  153.0267  135.5225  154.7229 H   0  0  0  0  0  0  0  0  0  0  0  0  # atno 10763 bound_to 10752
  154.6279  135.2896  155.0253 H   0  0  0  0  0  0  0  0  0  0  0  0  # atno 10764 bound_to 10752
  154.1216  135.6607  153.4956 H   0  0  0  0  0  0  0  0  0  0  0  0  # atno 10765 bound_to 10752
  141.1516  133.7836  157.0052 H   0  0  0  0  0  0  0  0  0  0  0  0  # atno 11005 bound_to 11000
  145.1087  140.9391  143.4669 LP  0  0  0  0  0  0  0  0  0  0  0  0  # atno 17320 bound_to 7965
  145.0598  139.3114  143.5886 LP  0  0  0  0  0  0  0  0  0  0  0  0  # atno 17321 bound_to 7965
  139.4909  144.4325  151.9856 LP  0  0  0  0  0  0  0  0  0  0  0  0  # atno 17342 bound_to 10162
  140.3419  144.3193  150.5965 LP  0  0  0  0  0  0  0  0  0  0  0  0  # atno 17343 bound_to 10162
  155.9752  130.4707  150.6440 LP  0  0  0  0  0  0  0  0  0  0  0  0  # atno 17370 bound_to 10713
  157.4121  131.0825  151.1211 LP  0  0  0  0  0  0  0  0  0  0  0  0  # atno 17371 bound_to 10713
  140.0914  134.9590  157.1781 LP  0  0  0  0  0  0  0  0  0  0  0  0  # atno 17394 bound_to 11000
  140.3441  134.2671  155.7207 LP  0  0  0  0  0  0  0  0  0  0  0  0  # atno 17395 bound_to 11000

$$$$
