AV-unprocessed.smi:1817|AV-procd|sdf|7373|dock2
  -GOLD-   22720 9 43D 1   1.00000     0.00000
 Structure written by MMmdl.
 42 43  0  0  0  0  0  0  0  0  1 V2000
  153.6299  142.2662  160.3864 C   0  0  0  0  0  0  0  0  0  0  0  0
  152.4776  142.7989  159.5230 C   0  0  0  0  0  0  0  0  0  0  0  0
  151.7823  141.7853  158.7323 N   0  0  0  0  0  0  0  0  0  0  0  0
  152.7321  140.9426  158.0130 C   0  0  0  0  0  0  0  0  0  0  0  0
  152.0200  139.8505  157.1947 C   0  0  0  0  0  0  0  0  0  0  0  0
  151.0878  140.4078  156.2016 N   0  0  0  0  0  0  0  0  0  0  0  0
  150.3917  139.3595  155.4189 C   0  0  1  0  0  0  0  0  0  0  0  0
  149.1779  139.9093  154.6274 C   0  0  0  0  0  0  0  0  0  0  0  0
  151.3283  138.6016  154.4369 C   0  0  0  0  0  0  0  0  0  0  0  0
  150.7753  137.3183  154.0104 N   0  0  0  0  0  0  0  0  0  0  0  0
  151.2677  136.1102  154.3198 C   0  0  0  0  0  0  0  0  0  0  0  0
  152.2737  135.9379  155.0076 O   0  0  0  0  0  0  0  0  0  0  0  0
  150.5209  135.1334  153.7798 N   0  0  0  0  0  0  0  0  0  0  0  0
  150.7004  133.7322  153.8937 C   0  0  0  0  0  0  0  0  0  0  0  0
  151.6527  133.2866  154.7216 N   0  0  0  0  0  0  0  0  0  0  0  0
  151.7236  131.8988  154.7349 N   0  0  0  0  0  0  0  0  0  0  0  0
  150.8206  131.3519  153.9155 C   0  0  0  0  0  0  0  0  0  0  0  0
  149.7921  132.4768  153.0462 S   0  0  0  0  0  0  0  0  0  0  0  0
  150.1529  141.2833  156.9260 C   0  0  0  0  0  0  0  0  0  0  0  0
  150.8726  142.3688  157.7477 C   0  0  0  0  0  0  0  0  0  0  0  0
  154.1638  143.0895  160.8613 H   0  0  0  0  0  0  0  0  0  0  0  0
  154.3487  141.7106  159.7835 H   0  0  0  0  0  0  0  0  0  0  0  0
  153.2754  141.6100  161.1810 H   0  0  0  0  0  0  0  0  0  0  0  0
  151.7653  143.3317  160.1545 H   0  0  0  0  0  0  0  0  0  0  0  0
  152.8953  143.5460  158.8467 H   0  0  0  0  0  0  0  0  0  0  0  0
  153.3488  141.5529  157.3508 H   0  0  0  0  0  0  0  0  0  0  0  0
  153.4123  140.4684  158.7216 H   0  0  0  0  0  0  0  0  0  0  0  0
  152.8009  139.2711  156.7073 H   0  0  0  0  0  0  0  0  0  0  0  0
  151.4915  139.1718  157.8661 H   0  0  0  0  0  0  0  0  0  0  0  0
  150.0040  138.6203  156.1219 H   0  0  0  0  0  0  0  0  0  0  0  0
  148.6929  139.1424  154.0247 H   0  0  0  0  0  0  0  0  0  0  0  0
  149.4776  140.7125  153.9539 H   0  0  0  0  0  0  0  0  0  0  0  0
  148.3942  140.2906  155.2800 H   0  0  0  0  0  0  0  0  0  0  0  0
  151.5694  139.2414  153.5863 H   0  0  0  0  0  0  0  0  0  0  0  0
  152.2760  138.3455  154.9059 H   0  0  0  0  0  0  0  0  0  0  0  0
  149.9460  137.3561  153.4361 H   0  0  0  0  0  0  0  0  0  0  0  0
  149.7252  135.4247  153.2312 H   0  0  0  0  0  0  0  0  0  0  0  0
  150.7596  130.2777  153.8229 H   0  0  0  0  0  0  0  0  0  0  0  0
  149.4961  141.8011  156.2295 H   0  0  0  0  0  0  0  0  0  0  0  0
  149.5143  140.6888  157.5811 H   0  0  0  0  0  0  0  0  0  0  0  0
  150.1201  142.9787  158.2461 H   0  0  0  0  0  0  0  0  0  0  0  0
  151.4204  143.0335  157.0777 H   0  0  0  0  0  0  0  0  0  0  0  0
  1  2  1  0  0  0  0
  1 21  1  0  0  0  0
  1 22  1  0  0  0  0
  1 23  1  0  0  0  0
  2  3  1  0  0  0  0
  2 24  1  0  0  0  0
  2 25  1  0  0  0  0
  3 20  1  0  0  0  0
  3  4  1  0  0  0  0
  4  5  1  0  0  0  0
  4 26  1  0  0  0  0
  4 27  1  0  0  0  0
  5  6  1  0  0  0  0
  5 28  1  0  0  0  0
  5 29  1  0  0  0  0
  6  7  1  0  0  0  0
  6 19  1  0  0  0  0
  7  8  1  0  0  0  0
  7  9  1  0  0  0  0
  7 30  1  0  0  0  0
  8 31  1  0  0  0  0
  8 32  1  0  0  0  0
  8 33  1  0  0  0  0
  9 10  1  0  0  0  0
  9 34  1  0  0  0  0
  9 35  1  0  0  0  0
 10 11  1  0  0  0  0
 10 36  1  0  0  0  0
 11 12  2  0  0  0  0
 11 13  1  0  0  0  0
 13 14  1  0  0  0  0
 13 37  1  0  0  0  0
 14 18  1  0  0  0  0
 14 15  2  0  0  0  0
 15 16  1  0  0  0  0
 16 17  2  0  0  0  0
 17 18  1  0  0  0  0
 17 38  1  0  0  0  0
 19 20  1  0  0  0  0
 19 39  1  0  0  0  0
 19 40  1  0  0  0  0
 20 41  1  0  0  0  0
 20 42  1  0  0  0  0
M  END
> <s_m_source_file>
AV-unprocessed.smi

> <i_m_source_file_index>
1817

> <i_lp_mmshare_version>
43012

> <i_f3d_flags>
0

> <s_epik_input>
W0NIM11bQ0gyXU4xW0NIMl1bQ0gyXU4oW0NIMl1bQ0gyXTEpW0NASF0oW0NIM10pW0NIMl1bTkhdQyg9TylbTkhdYzJubltjSF1zMg==

> <s_epik_cmdline>
J2VwaWtfcHl0aG9uJywgJy1waCcsICc3LjAnLCAnLXRuJywgJzgnLCAnLW1hJywgJzIwMCcsICctbWV0YWxfYmluZGluZycsICctaW1hZScsICc8aW5maWxlLm1hZT4nLCAnLW9tYWUnLCAnPG91dGZpbGUubWFlPic=

> <r_lp_tautomer_probability>
1

> <r_epik_Ionization_Penalty>
2.44129

> <r_epik_Ionization_Penalty_Charging>
0

> <r_epik_Ionization_Penalty_Neutral>
2.44129

> <r_epik_State_Penalty>
1.7682

> <r_epik_Charging_Adjusted_Penalty>
1.7682

> <i_epik_Tot_Q>
0

> <i_epik_Tot_abs_Q>
0

> <r_epik_Metal_State_Penalty>
2.10306

> <b_epik_Metal_Only>
0

> <s_lp_Force_Field>
OPLS_2005

> <r_lp_Energy>
39.3002

> <b_lp_Chiralities_Consistent>
1

> <s_lp_Variant>
AV-unprocessed.smi:1817-6

> <Gold.Version>
5.8.1

> <Gold.Id.Protein>
6NUR|6NUR_protein|mol2

> <Gold.PLP.Fitness>
44.4944

> <Gold.PLP.PLP>
-37.2289

> <Gold.PLP.part.hbond>
-4.9890

> <Gold.PLP.part.metal>
0.0000

> <Gold.PLP.part.buried>
-1.2360

> <Gold.PLP.part.nonpolar>
-30.7455

> <Gold.PLP.part.repulsive>
0.2123

> <Gold.PLP.ligand.clash>
0.0000

> <Gold.PLP.ligand.torsion>
0.3832

> <Gold.PLP.Chemscore.Hbond>
2.6630

> <Gold.PLP.Chemscore.CHOScore>
0.0000

> <Gold.PLP.Chemscore.Metal>
0.0000

> <Gold.Chemscore.Hbonds>
donor molecule, donor type, donor heavy atom, donor atom, acceptor molecule, acceptor atom, score
      L1  H    10    36       P1  7948  0.59
      L1  H    13    37       P1  7948  0.30

> <Gold.PLP.Chemscore.Internal.Correction>
0.0429

> <Gold.Rescore>
     Score         DG    S(hbond)    S(metal)    S(lipo)     H(rot)  DE(clash)    DE(int)     intcor
     14.62     -16.86       2.00        0.00      81.28       1.87       0.43       1.82       ----

> <Gold.Chemscore.Fitness>
14.6189

> <Gold.Chemscore.DG>
-16.8636

> <Gold.Chemscore.ZeroCoef>
-5.4800

> <Gold.Chemscore.Hbond>
1.9967

> <Gold.Chemscore.Metal>
0.0000

> <Gold.Chemscore.Lipo>
81.2839

> <Gold.Chemscore.Internal_Hbond>
0.0000

> <Gold.Chemscore.DEClash>
0.4254

> <Gold.Chemscore.DEInternal>
1.8194

> <Gold.Chemscore.Rot>
1.8733

> <Gold.Chemscore.Internal.Correction>
   9.000000E+99

> <Gold.Chemscore.Hbonds>
donor molecule, donor type, donor heavy atom, donor atom, acceptor molecule, acceptor atom, score
      L1  H    10    36       P1  7948  0.26

> <Gold.Chemscore.Hbond.Weighted>
-6.6691

> <Gold.Chemscore.Metal.Weighted>
-0.0000

> <Gold.Chemscore.Lipo.Weighted>
-9.5102

> <Gold.Chemscore.Internal_Hbond.Weighted>
0.0000

> <Gold.Chemscore.DEClash.Weighted>
0.4254

> <Gold.Chemscore.DEInternal.Weighted>
1.8194

> <Gold.Chemscore.Rot.Weighted>
4.7957

> <Gold.Chemscore.Internal.Correction.Weighted>
   9.000000E+99

> <Gold.Protein.RotatedTorsions>
[ 6907 6896 6895 6894 ] final   43.69 input  -60.11 | X-H torsion
[ 7974 7965 7964 7962 ] final   86.59 input  175.53 | X-H torsion
[ 8008 7997 7996 7995 ] final -160.52 input   59.86 | X-H torsion
[ 10167 10162 10161 10158 ] final  -51.15 input  -65.29 | X-H torsion
[ 10718 10713 10712 10709 ] final  -48.10 input   66.30 | X-H torsion
[ 10763 10752 10751 10750 ] final  -29.55 input  -60.55 | X-H torsion
[ 11005 11000 10999 10996 ] final   26.97 input  -57.11 | X-H torsion

> <Gold.Protein.ActiveResidues>
 VAL166  LYS551  ARG553  GLY616  TRP617  ASP618  TYR619  PRO620  LYS621  CYS622 
 ASP623  PHE694  ASN695  SER759  ASP760  ASP761  ALA762  ILE779  LEU786  VAL792 
 PHE793  MET794  SER795  GLU796  ALA797  LYS798  CYS799  TRP800  GLU811  SER814 

> <Gold.Protein.RotatedAtoms>
  152.2233  134.8392  160.0482 H   0  0  0  0  0  0  0  0  0  0  0  0  # atno 6907 bound_to 6896
  151.9167  133.3570  159.3891 H   0  0  0  0  0  0  0  0  0  0  0  0  # atno 6908 bound_to 6896
  150.7006  134.4602  159.5421 H   0  0  0  0  0  0  0  0  0  0  0  0  # atno 6909 bound_to 6896
  145.5702  139.2313  143.2410 H   0  0  0  0  0  0  0  0  0  0  0  0  # atno 7974 bound_to 7965
  155.7787  140.0862  157.2070 H   0  0  0  0  0  0  0  0  0  0  0  0  # atno 8008 bound_to 7997
  154.3991  140.1512  156.3084 H   0  0  0  0  0  0  0  0  0  0  0  0  # atno 8009 bound_to 7997
  155.8675  140.3427  155.5801 H   0  0  0  0  0  0  0  0  0  0  0  0  # atno 8010 bound_to 7997
  140.6603  143.2630  151.4462 H   0  0  0  0  0  0  0  0  0  0  0  0  # atno 10167 bound_to 10162
  156.2020  130.4156  149.9228 H   0  0  0  0  0  0  0  0  0  0  0  0  # atno 10718 bound_to 10713
  153.7664  135.6915  153.4915 H   0  0  0  0  0  0  0  0  0  0  0  0  # atno 10763 bound_to 10752
  153.1903  135.4473  155.0140 H   0  0  0  0  0  0  0  0  0  0  0  0  # atno 10764 bound_to 10752
  154.8134  135.3387  154.7177 H   0  0  0  0  0  0  0  0  0  0  0  0  # atno 10765 bound_to 10752
  140.3313  134.2434  155.7702 H   0  0  0  0  0  0  0  0  0  0  0  0  # atno 11005 bound_to 11000
  146.1790  140.6528  142.9198 LP  0  0  0  0  0  0  0  0  0  0  0  0  # atno 17320 bound_to 7965
  144.7441  140.5022  143.6848 LP  0  0  0  0  0  0  0  0  0  0  0  0  # atno 17321 bound_to 7965
  139.5835  144.1657  152.1998 LP  0  0  0  0  0  0  0  0  0  0  0  0  # atno 17342 bound_to 10162
  140.0990  144.5556  150.7002 LP  0  0  0  0  0  0  0  0  0  0  0  0  # atno 17343 bound_to 10162
  156.6935  130.8905  151.3591 LP  0  0  0  0  0  0  0  0  0  0  0  0  # atno 17370 bound_to 10713
  157.6991  130.9313  150.0731 LP  0  0  0  0  0  0  0  0  0  0  0  0  # atno 17371 bound_to 10713
  141.2062  133.7838  157.0188 LP  0  0  0  0  0  0  0  0  0  0  0  0  # atno 17394 bound_to 11000
  140.0858  134.9622  157.1697 LP  0  0  0  0  0  0  0  0  0  0  0  0  # atno 17395 bound_to 11000

$$$$
