AV-unprocessed.smi:1512|AV-procd|sdf|6103|dock2
  -GOLD-   22720 6233D 1   1.00000     0.00000
 Structure written by MMmdl.
 44 46  0  0  0  0  0  0  0  0  3 V2000
  146.7394  134.6792  154.6887 C   0  0  0  0  0  0  0  0  0  0  0  0
  146.0582  134.9162  153.3300 C   0  0  1  0  0  0  0  0  0  0  0  0
  146.4707  136.2075  152.7911 N   0  0  0  0  0  0  0  0  0  0  0  0
  145.9843  137.4084  153.1467 C   0  0  0  0  0  0  0  0  0  0  0  0
  145.1330  137.5508  154.0234 O   0  0  0  0  0  0  0  0  0  0  0  0
  146.5130  138.6501  152.4074 C   0  0  0  0  0  0  0  0  0  0  0  0
  147.3819  139.5256  153.2168 N   0  0  0  0  0  0  0  0  0  0  0  0
  147.0113  140.8810  153.2977 C   0  0  0  0  0  0  0  0  0  0  0  0
  147.7329  141.7733  153.9902 C   0  0  0  0  0  0  0  0  0  0  0  0
  148.9250  141.3141  154.6601 C   0  0  0  0  0  0  0  0  0  0  0  0
  149.3058  140.0174  154.5918 C   0  0  0  0  0  0  0  0  0  0  0  0
  150.5208  139.6296  155.2715 N   0  3  0  0  0  0  0  0  0  0  0  0
  151.4590  140.4198  155.3063 O   0  0  0  0  0  0  0  0  0  0  0  0
  150.5661  138.5258  155.8064 O   0  5  0  0  0  0  0  0  0  0  0  0
  148.5007  139.0348  153.8361 C   0  0  0  0  0  0  0  0  0  0  0  0
  148.8028  137.8430  153.7558 O   0  0  0  0  0  0  0  0  0  0  0  0
  146.4009  133.8060  152.3092 C   0  0  1  0  0  0  0  0  0  0  0  0
  145.6984  132.4530  152.5597 C   0  0  0  0  0  0  0  0  0  0  0  0
  145.1075  132.1090  151.1795 C   0  0  1  0  0  0  0  0  0  0  0  0
  143.8913  133.0150  150.9133 C   0  0  0  0  0  0  0  0  0  0  0  0
  144.5425  134.3842  150.6461 C   0  0  0  0  0  0  0  0  0  0  0  0
  146.0459  134.0890  150.8269 C   0  0  2  0  0  0  0  0  0  0  0  0
  146.1471  132.6899  150.2278 C   0  0  0  0  0  0  0  0  0  0  0  0
  146.4366  133.7264  155.1230 H   0  0  0  0  0  0  0  0  0  0  0  0
  146.4770  135.4592  155.4042 H   0  0  0  0  0  0  0  0  0  0  0  0
  147.8256  134.6701  154.5923 H   0  0  0  0  0  0  0  0  0  0  0  0
  144.9793  134.9267  153.4906 H   0  0  0  0  0  0  0  0  0  0  0  0
  147.1702  136.1842  152.0637 H   0  0  0  0  0  0  0  0  0  0  0  0
  147.0514  138.3103  151.5215 H   0  0  0  0  0  0  0  0  0  0  0  0
  145.6602  139.2073  152.0160 H   0  0  0  0  0  0  0  0  0  0  0  0
  146.1126  141.1456  152.7591 H   0  0  0  0  0  0  0  0  0  0  0  0
  147.4343  142.8100  154.0388 H   0  0  0  0  0  0  0  0  0  0  0  0
  149.5206  142.0299  155.2081 H   0  0  0  0  0  0  0  0  0  0  0  0
  147.4794  133.6398  152.3528 H   0  0  0  0  0  0  0  0  0  0  0  0
  146.4220  131.7004  152.8755 H   0  0  0  0  0  0  0  0  0  0  0  0
  144.9244  132.5081  153.3263 H   0  0  0  0  0  0  0  0  0  0  0  0
  144.8986  131.0473  151.0453 H   0  0  0  0  0  0  0  0  0  0  0  0
  143.3372  132.6770  150.0367 H   0  0  0  0  0  0  0  0  0  0  0  0
  143.2007  133.0395  151.7571 H   0  0  0  0  0  0  0  0  0  0  0  0
  144.3392  134.7047  149.6235 H   0  0  0  0  0  0  0  0  0  0  0  0
  144.1711  135.1657  151.3080 H   0  0  0  0  0  0  0  0  0  0  0  0
  146.6943  134.8281  150.3545 H   0  0  0  0  0  0  0  0  0  0  0  0
  147.1352  132.2393  150.3374 H   0  0  0  0  0  0  0  0  0  0  0  0
  145.8476  132.6433  149.1791 H   0  0  0  0  0  0  0  0  0  0  0  0
  1  2  1  0  0  0  0
  1 24  1  0  0  0  0
  1 25  1  0  0  0  0
  1 26  1  0  0  0  0
  2  3  1  0  0  0  0
  2 17  1  0  0  0  0
  2 27  1  0  0  0  0
  3  4  1  0  0  0  0
  3 28  1  0  0  0  0
  4  5  2  0  0  0  0
  4  6  1  0  0  0  0
  6  7  1  0  0  0  0
  6 29  1  0  0  0  0
  6 30  1  0  0  0  0
  7 15  1  0  0  0  0
  7  8  1  0  0  0  0
  8  9  2  0  0  0  0
  8 31  1  0  0  0  0
  9 10  1  0  0  0  0
  9 32  1  0  0  0  0
 10 11  2  0  0  0  0
 10 33  1  0  0  0  0
 11 12  1  0  0  0  0
 11 15  1  0  0  0  0
 12 13  2  0  0  0  0
 12 14  1  0  0  0  0
 15 16  2  0  0  0  0
 17 22  1  0  0  0  0
 17 18  1  0  0  0  0
 17 34  1  0  0  0  0
 18 19  1  0  0  0  0
 18 35  1  0  0  0  0
 18 36  1  0  0  0  0
 19 23  1  0  0  0  0
 19 20  1  0  0  0  0
 19 37  1  0  0  0  0
 20 21  1  0  0  0  0
 20 38  1  0  0  0  0
 20 39  1  0  0  0  0
 21 22  1  0  0  0  0
 21 40  1  0  0  0  0
 21 41  1  0  0  0  0
 22 23  1  0  0  0  0
 22 42  1  0  0  0  0
 23 43  1  0  0  0  0
 23 44  1  0  0  0  0
M  CHG  1  12   1
M  CHG  1  14  -1
M  END
> <s_m_source_file>
AV-unprocessed.smi

> <i_m_source_file_index>
1512

> <i_lp_mmshare_version>
43012

> <i_f3d_flags>
0

> <s_epik_input>
W0NIMl0xW0NIMl1bQ0BIXShbQ0gyXTIpW0NAQEhdKFtDSDJdW0NAQEhdMTIpW0NASF0oW0NIM10pW05IXUMoPU8pW0NIMl1uM1tjSF1bY0hdW2NIXWMoW04rXSg9TylbTy1dKWMzPU8=

> <s_epik_cmdline>
J2VwaWtfcHl0aG9uJywgJy1waCcsICc3LjAnLCAnLXRuJywgJzgnLCAnLW1hJywgJzIwMCcsICctbWV0YWxfYmluZGluZycsICctaW1hZScsICc8aW5maWxlLm1hZT4nLCAnLW9tYWUnLCAnPG91dGZpbGUubWFlPic=

> <r_lp_tautomer_probability>
1

> <r_epik_Ionization_Penalty>
2.17697e-08

> <r_epik_Ionization_Penalty_Charging>
1.42735e-10

> <r_epik_Ionization_Penalty_Neutral>
2.16269e-08

> <r_epik_State_Penalty>
-0

> <r_epik_Charging_Adjusted_Penalty>
1.42735e-10

> <i_epik_Tot_Q>
0

> <i_epik_Tot_abs_Q>
2

> <r_epik_Metal_State_Penalty>
-0

> <b_epik_Metal_Only>
0

> <s_lp_Force_Field>
OPLS_2005

> <r_lp_Energy>
64.3313

> <b_lp_Chiralities_Consistent>
1

> <s_lp_Variant>
AV-unprocessed.smi:1512-4

> <Gold.Version>
5.8.1

> <Gold.Id.Protein>
6NUR|6NUR_protein|mol2

> <Gold.PLP.Fitness>
42.6670

> <Gold.PLP.PLP>
-37.3095

> <Gold.PLP.part.hbond>
-2.0000

> <Gold.PLP.part.metal>
0.0000

> <Gold.PLP.part.buried>
-4.3362

> <Gold.PLP.part.nonpolar>
-35.6920

> <Gold.PLP.part.repulsive>
4.5100

> <Gold.PLP.ligand.clash>
0.0000

> <Gold.PLP.ligand.torsion>
1.1561

> <Gold.PLP.Chemscore.Hbond>
1.7280

> <Gold.PLP.Chemscore.CHOScore>
0.8087

> <Gold.PLP.Chemscore.Metal>
0.0000

> <Gold.Chemscore.Hbonds>
donor molecule, donor type, donor heavy atom, donor atom, acceptor molecule, acceptor atom, score
      L1  H     3    28       P1  7948  0.83
      P1  H  7989  7998       L1    13  0.90
      L1  C     8    31       P1 10175  0.81

> <Gold.PLP.Chemscore.Internal.Correction>
0.0598

> <Gold.Rescore>
     Score         DG    S(hbond)    S(metal)    S(lipo)     H(rot)  DE(clash)    DE(int)     intcor
     10.00     -16.46       1.54        0.00      88.12       1.75       1.69       4.77       ----

> <Gold.Chemscore.Fitness>
9.9973

> <Gold.Chemscore.DG>
-16.4599

> <Gold.Chemscore.ZeroCoef>
-5.4800

> <Gold.Chemscore.Hbond>
1.5400

> <Gold.Chemscore.Metal>
0.0000

> <Gold.Chemscore.Lipo>
88.1171

> <Gold.Chemscore.Internal_Hbond>
0.0000

> <Gold.Chemscore.DEClash>
1.6887

> <Gold.Chemscore.DEInternal>
4.7739

> <Gold.Chemscore.Rot>
1.7474

> <Gold.Chemscore.Internal.Correction>
   9.000000E+99

> <Gold.Chemscore.Hbonds>
donor molecule, donor type, donor heavy atom, donor atom, acceptor molecule, acceptor atom, score
      L1  H     3    28       P1  7948  0.83
      P1  H  7989  7998       L1    13  0.31

> <Gold.Chemscore.Hbond.Weighted>
-5.1435

> <Gold.Chemscore.Metal.Weighted>
-0.0000

> <Gold.Chemscore.Lipo.Weighted>
-10.3097

> <Gold.Chemscore.Internal_Hbond.Weighted>
0.0000

> <Gold.Chemscore.DEClash.Weighted>
1.6887

> <Gold.Chemscore.DEInternal.Weighted>
4.7739

> <Gold.Chemscore.Rot.Weighted>
4.4733

> <Gold.Chemscore.Internal.Correction.Weighted>
   9.000000E+99

> <Gold.Protein.RotatedTorsions>
[ 6907 6896 6895 6894 ] final  -42.77 input  -60.11 | X-H torsion
[ 7974 7965 7964 7962 ] final  -33.78 input  175.53 | X-H torsion
[ 8008 7997 7996 7995 ] final  -80.48 input   59.86 | X-H torsion
[ 10167 10162 10161 10158 ] final -105.01 input  -65.29 | X-H torsion
[ 10718 10713 10712 10709 ] final   92.55 input   66.30 | X-H torsion
[ 10763 10752 10751 10750 ] final  -40.27 input  -60.55 | X-H torsion
[ 11005 11000 10999 10996 ] final -149.17 input  -57.11 | X-H torsion

> <Gold.Protein.ActiveResidues>
 VAL166  LYS551  ARG553  GLY616  TRP617  ASP618  TYR619  PRO620  LYS621  CYS622 
 ASP623  PHE694  ASN695  SER759  ASP760  ASP761  ALA762  ILE779  LEU786  VAL792 
 PHE793  MET794  SER795  GLU796  ALA797  LYS798  CYS799  TRP800  GLU811  SER814 

> <Gold.Protein.RotatedAtoms>
  150.9515  134.8914  159.7674 H   0  0  0  0  0  0  0  0  0  0  0  0  # atno 6907 bound_to 6896
  152.5121  134.3800  159.9358 H   0  0  0  0  0  0  0  0  0  0  0  0  # atno 6908 bound_to 6896
  151.3816  133.3779  159.2745 H   0  0  0  0  0  0  0  0  0  0  0  0  # atno 6909 bound_to 6896
  146.0883  140.5959  142.8876 H   0  0  0  0  0  0  0  0  0  0  0  0  # atno 7974 bound_to 7965
  154.5887  140.0662  156.9208 H   0  0  0  0  0  0  0  0  0  0  0  0  # atno 8008 bound_to 7997
  155.2333  140.3339  155.4282 H   0  0  0  0  0  0  0  0  0  0  0  0  # atno 8009 bound_to 7997
  156.2241  140.1811  156.7391 H   0  0  0  0  0  0  0  0  0  0  0  0  # atno 8010 bound_to 7997
  140.2031  143.3803  152.1113 H   0  0  0  0  0  0  0  0  0  0  0  0  # atno 10167 bound_to 10162
  157.6958  131.0447  150.3899 H   0  0  0  0  0  0  0  0  0  0  0  0  # atno 10718 bound_to 10713
  153.9433  135.6759  153.4744 H   0  0  0  0  0  0  0  0  0  0  0  0  # atno 10763 bound_to 10752
  153.0921  135.4869  154.8706 H   0  0  0  0  0  0  0  0  0  0  0  0  # atno 10764 bound_to 10752
  154.7365  135.3150  154.8760 H   0  0  0  0  0  0  0  0  0  0  0  0  # atno 10765 bound_to 10752
  140.7536  134.3379  157.5120 H   0  0  0  0  0  0  0  0  0  0  0  0  # atno 11005 bound_to 11000
  144.7341  140.4758  143.6916 LP  0  0  0  0  0  0  0  0  0  0  0  0  # atno 17320 bound_to 7965
  145.6088  139.1511  143.3087 LP  0  0  0  0  0  0  0  0  0  0  0  0  # atno 17321 bound_to 7965
  139.5209  144.7039  151.5412 LP  0  0  0  0  0  0  0  0  0  0  0  0  # atno 17342 bound_to 10162
  140.6376  143.8953  150.6662 LP  0  0  0  0  0  0  0  0  0  0  0  0  # atno 17343 bound_to 10162
  156.4303  130.3971  149.6764 LP  0  0  0  0  0  0  0  0  0  0  0  0  # atno 17370 bound_to 10713
  156.3984  130.7662  151.2668 LP  0  0  0  0  0  0  0  0  0  0  0  0  # atno 17371 bound_to 10713
  139.8783  134.9157  156.3138 LP  0  0  0  0  0  0  0  0  0  0  0  0  # atno 17394 bound_to 11000
  140.9728  133.7316  156.0559 LP  0  0  0  0  0  0  0  0  0  0  0  0  # atno 17395 bound_to 11000

$$$$
