AV-unprocessed.smi:285|AV-procd|sdf|2170|dock9
  -GOLD-   2262021533D 1   1.00000     0.00000
 Structure written by MMmdl.
 31 33  0  0  0  0  0  0  0  0  1 V2000
  150.1678  138.3974  153.3880 N   0  0  0  0  0  0  0  0  0  0  0  0
  150.4481  138.3046  154.6954 C   0  0  0  0  0  0  0  0  0  0  0  0
  150.5134  137.0731  155.2530 N   0  0  0  0  0  0  0  0  0  0  0  0
  150.7870  136.9530  156.5561 C   0  0  0  0  0  0  0  0  0  0  0  0
  151.0201  137.9146  157.4533 N   0  0  0  0  0  0  0  0  0  0  0  0
  150.9579  139.1573  156.8901 C   0  0  0  0  0  0  0  0  0  0  0  0
  150.6762  139.4350  155.5200 C   0  0  0  0  0  0  0  0  0  0  0  0
  150.6872  140.8061  155.2960 N   0  0  0  0  0  0  0  0  0  0  0  0
  150.9606  141.2876  156.4763 C   0  0  0  0  0  0  0  0  0  0  0  0
  151.0804  143.1696  156.7440 Br  0  0  0  0  0  0  0  0  0  0  0  0
  151.1410  140.3836  157.4988 N   0  0  0  0  0  0  0  0  0  0  0  0
  151.4577  140.6405  158.9378 C   0  0  1  0  0  0  0  0  0  0  0  0
  152.8039  140.0302  159.3156 C   0  0  0  0  0  0  0  0  0  0  0  0
  153.2647  141.0096  160.3712 C   0  0  1  0  0  0  0  0  0  0  0  0
  154.6677  140.9589  160.5283 O   0  0  0  0  0  0  0  0  0  0  0  0
  152.7881  142.3436  159.7853 C   0  0  2  0  0  0  0  0  0  0  0  0
  152.5579  143.4281  160.8491 C   0  0  0  0  0  0  0  0  0  0  0  0
  151.6288  142.9781  161.8116 O   0  0  0  0  0  0  0  0  0  0  0  0
  151.5535  142.0185  159.1433 O   0  0  0  0  0  0  0  0  0  0  0  0
  150.1116  139.3052  152.9489 H   0  0  0  0  0  0  0  0  0  0  0  0
  150.0123  137.5604  152.8450 H   0  0  0  0  0  0  0  0  0  0  0  0
  150.8239  135.9422  156.9348 H   0  0  0  0  0  0  0  0  0  0  0  0
  150.6221  140.2413  159.5122 H   0  0  0  0  0  0  0  0  0  0  0  0
  152.6902  139.0069  159.6745 H   0  0  0  0  0  0  0  0  0  0  0  0
  153.4743  140.0384  158.4541 H   0  0  0  0  0  0  0  0  0  0  0  0
  152.7683  140.8010  161.3203 H   0  0  0  0  0  0  0  0  0  0  0  0
  155.0549  140.7381  159.6947 H   0  0  0  0  0  0  0  0  0  0  0  0
  153.4979  142.6806  159.0273 H   0  0  0  0  0  0  0  0  0  0  0  0
  153.4932  143.7192  161.3283 H   0  0  0  0  0  0  0  0  0  0  0  0
  152.1390  144.3225  160.3870 H   0  0  0  0  0  0  0  0  0  0  0  0
  151.3561  143.7164  162.3348 H   0  0  0  0  0  0  0  0  0  0  0  0
  1  2  1  0  0  0  0
  1 20  1  0  0  0  0
  1 21  1  0  0  0  0
  2  7  1  0  0  0  0
  2  3  2  0  0  0  0
  3  4  1  0  0  0  0
  4  5  2  0  0  0  0
  4 22  1  0  0  0  0
  5  6  1  0  0  0  0
  6 11  1  0  0  0  0
  6  7  2  0  0  0  0
  7  8  1  0  0  0  0
  8  9  2  0  0  0  0
  9 10  1  0  0  0  0
  9 11  1  0  0  0  0
 11 12  1  0  0  0  0
 12 19  1  0  0  0  0
 12 13  1  0  0  0  0
 12 23  1  0  0  0  0
 13 14  1  0  0  0  0
 13 24  1  0  0  0  0
 13 25  1  0  0  0  0
 14 15  1  0  0  0  0
 14 16  1  0  0  0  0
 14 26  1  0  0  0  0
 15 27  1  0  0  0  0
 16 17  1  0  0  0  0
 16 19  1  0  0  0  0
 16 28  1  0  0  0  0
 17 18  1  0  0  0  0
 17 29  1  0  0  0  0
 17 30  1  0  0  0  0
 18 31  1  0  0  0  0
M  END
> <s_m_source_file>
AV-unprocessed.smi

> <i_m_source_file_index>
285

> <i_lp_mmshare_version>
43012

> <i_f3d_flags>
0

> <s_epik_input>
bjFbY0hdbmMoW05IMl0pYyhjMTIpbmMoQnIpbjJbQ0BASF0zW0NIMl1bQ0BASF0oW09IXSlbQ0BIXShPMylbQ0gyXVtPSF0=

> <s_epik_cmdline>
J2VwaWtfcHl0aG9uJywgJy1waCcsICc3LjAnLCAnLXRuJywgJzgnLCAnLW1hJywgJzIwMCcsICctbWV0YWxfYmluZGluZycsICctaW1hZScsICc8aW5maWxlLm1hZT4nLCAnLW9tYWUnLCAnPG91dGZpbGUubWFlPic=

> <r_lp_tautomer_probability>
1

> <r_epik_Ionization_Penalty>
0.000103242

> <r_epik_Ionization_Penalty_Charging>
0

> <r_epik_Ionization_Penalty_Neutral>
0.000103242

> <r_epik_State_Penalty>
-0

> <r_epik_Charging_Adjusted_Penalty>
0

> <i_epik_Tot_Q>
0

> <i_epik_Tot_abs_Q>
0

> <r_epik_Metal_State_Penalty>
-0

> <b_epik_Metal_Only>
0

> <s_epik_Chemistry_Notes>
This compound contains an acetal/aminal-like group ( X-CH(R)-Y where X, Y are N, S, or O) that may be acid/base labile, releasing an aldehyde.

> <s_lp_Force_Field>
OPLS_2005

> <r_lp_Energy>
32.6465

> <b_lp_Chiralities_Consistent>
1

> <s_lp_Variant>
AV-unprocessed.smi:285-6

> <Gold.Version>
5.8.1

> <Gold.Id.Protein>
6NUR|6NUR_protein|mol2

> <Gold.PLP.Fitness>
41.6680

> <Gold.PLP.PLP>
-32.5549

> <Gold.PLP.part.hbond>
-5.3458

> <Gold.PLP.part.metal>
0.0000

> <Gold.PLP.part.buried>
-3.3301

> <Gold.PLP.part.nonpolar>
-24.1877

> <Gold.PLP.part.repulsive>
0.2763

> <Gold.PLP.ligand.clash>
0.0000

> <Gold.PLP.ligand.torsion>
0.0084

> <Gold.PLP.Chemscore.Hbond>
3.0404

> <Gold.PLP.Chemscore.CHOScore>
0.0000

> <Gold.PLP.Chemscore.Metal>
0.0000

> <Gold.Chemscore.Hbonds>
donor molecule, donor type, donor heavy atom, donor atom, acceptor molecule, acceptor atom, score
      L1  H     1    20       P1  7957  0.74
      L1  H     1    21       P1  7948  0.85
      P1  H  6933  6945       L1    18  0.58
      P1  H  7989  7998       L1     8  0.83

> <Gold.PLP.Chemscore.Internal.Correction>
0.0086

> <Gold.Rescore>
     Score         DG    S(hbond)    S(metal)    S(lipo)     H(rot)  DE(clash)    DE(int)     intcor
      9.91     -12.92       2.65        0.00      54.99       3.06       1.42       1.58       ----

> <Gold.Chemscore.Fitness>
9.9142

> <Gold.Chemscore.DG>
-12.9165

> <Gold.Chemscore.ZeroCoef>
-5.4800

> <Gold.Chemscore.Hbond>
2.6461

> <Gold.Chemscore.Metal>
0.0000

> <Gold.Chemscore.Lipo>
54.9904

> <Gold.Chemscore.Internal_Hbond>
0.0000

> <Gold.Chemscore.DEClash>
1.4189

> <Gold.Chemscore.DEInternal>
1.5834

> <Gold.Chemscore.Rot>
3.0607

> <Gold.Chemscore.Internal.Correction>
   9.000000E+99

> <Gold.Chemscore.Hbonds>
donor molecule, donor type, donor heavy atom, donor atom, acceptor molecule, acceptor atom, score
      L1  H     1    20       P1  7957  0.67
      L1  H     1    21       P1  7948  0.14
      P1  H  6933  6945       L1    18  0.09
      P1  H  7989  7998       L1     8  0.23

> <Gold.Chemscore.Hbond.Weighted>
-8.8380

> <Gold.Chemscore.Metal.Weighted>
-0.0000

> <Gold.Chemscore.Lipo.Weighted>
-6.4339

> <Gold.Chemscore.Internal_Hbond.Weighted>
0.0000

> <Gold.Chemscore.DEClash.Weighted>
1.4189

> <Gold.Chemscore.DEInternal.Weighted>
1.5834

> <Gold.Chemscore.Rot.Weighted>
7.8354

> <Gold.Chemscore.Internal.Correction.Weighted>
   9.000000E+99

> <Gold.Protein.RotatedTorsions>
[ 6907 6896 6895 6894 ] final -134.99 input  -60.11 | X-H torsion
[ 7974 7965 7964 7962 ] final  -15.94 input  175.53 | X-H torsion
[ 8008 7997 7996 7995 ] final  -95.70 input   59.86 | X-H torsion
[ 10167 10162 10161 10158 ] final   48.21 input  -65.29 | X-H torsion
[ 10718 10713 10712 10709 ] final    3.48 input   66.30 | X-H torsion
[ 10763 10752 10751 10750 ] final  122.64 input  -60.55 | X-H torsion
[ 11005 11000 10999 10996 ] final -121.73 input  -57.11 | X-H torsion

> <Gold.Protein.ActiveResidues>
 VAL166  LYS551  ARG553  GLY616  TRP617  ASP618  TYR619  PRO620  LYS621  CYS622 
 ASP623  PHE694  ASN695  SER759  ASP760  ASP761  ALA762  ILE779  LEU786  VAL792 
 PHE793  MET794  SER795  GLU796  ALA797  LYS798  CYS799  TRP800  GLU811  SER814 

> <Gold.Protein.RotatedAtoms>
  150.9925  133.6135  159.2706 H   0  0  0  0  0  0  0  0  0  0  0  0  # atno 6907 bound_to 6896
  151.3351  135.0850  159.9361 H   0  0  0  0  0  0  0  0  0  0  0  0  # atno 6908 bound_to 6896
  152.5250  133.9547  159.7743 H   0  0  0  0  0  0  0  0  0  0  0  0  # atno 6909 bound_to 6896
  146.2010  140.3565  142.8423 H   0  0  0  0  0  0  0  0  0  0  0  0  # atno 7974 bound_to 7965
  154.7647  140.0478  157.1003 H   0  0  0  0  0  0  0  0  0  0  0  0  # atno 8008 bound_to 7997
  154.9894  140.3111  155.4893 H   0  0  0  0  0  0  0  0  0  0  0  0  # atno 8009 bound_to 7997
  156.2910  140.2221  156.4998 H   0  0  0  0  0  0  0  0  0  0  0  0  # atno 8010 bound_to 7997
  140.2956  144.2994  150.6230 H   0  0  0  0  0  0  0  0  0  0  0  0  # atno 10167 bound_to 10162
  156.8784  130.5645  149.5654 H   0  0  0  0  0  0  0  0  0  0  0  0  # atno 10718 bound_to 10713
  153.6329  135.3393  155.3047 H   0  0  0  0  0  0  0  0  0  0  0  0  # atno 10763 bound_to 10752
  154.8576  135.4300  154.2087 H   0  0  0  0  0  0  0  0  0  0  0  0  # atno 10764 bound_to 10752
  153.2987  135.7023  153.7297 H   0  0  0  0  0  0  0  0  0  0  0  0  # atno 10765 bound_to 10752
  141.0048  134.0350  157.3491 H   0  0  0  0  0  0  0  0  0  0  0  0  # atno 11005 bound_to 11000
  144.8683  140.7237  143.6063 LP  0  0  0  0  0  0  0  0  0  0  0  0  # atno 17320 bound_to 7965
  145.3484  139.1713  143.4448 LP  0  0  0  0  0  0  0  0  0  0  0  0  # atno 17321 bound_to 7965
  140.5695  143.2182  151.7625 LP  0  0  0  0  0  0  0  0  0  0  0  0  # atno 17342 bound_to 10162
  139.4927  144.4237  151.9949 LP  0  0  0  0  0  0  0  0  0  0  0  0  # atno 17343 bound_to 10162
  156.0690  130.5727  150.9345 LP  0  0  0  0  0  0  0  0  0  0  0  0  # atno 17370 bound_to 10713
  157.6155  131.0933  150.8719 LP  0  0  0  0  0  0  0  0  0  0  0  0  # atno 17371 bound_to 10713
  139.9057  135.0179  156.7476 LP  0  0  0  0  0  0  0  0  0  0  0  0  # atno 17394 bound_to 11000
  140.6830  133.9457  155.7921 LP  0  0  0  0  0  0  0  0  0  0  0  0  # atno 17395 bound_to 11000

$$$$
