AV-unprocessed.smi:2010|AV-procd|sdf|8152|dock7
  -GOLD-   2272010393D 1   1.00000     0.00000
 Structure written by MMmdl.
 40 41  0  0  0  0  0  0  0  0  2 V2000
  152.6995  144.5030  158.3461 C   0  0  0  0  0  0  0  0  0  0  0  0
  151.8612  143.2315  158.5385 C   0  0  0  0  0  0  0  0  0  0  0  0
  152.7287  142.0456  158.9880 C   0  0  0  0  0  0  0  0  0  0  0  0
  151.8925  140.7637  159.1562 C   0  0  0  0  0  0  0  0  0  0  0  0
  151.1259  140.4437  157.9334 N   0  0  0  0  0  0  0  0  0  0  0  0
  151.7690  139.2839  156.8017 S   0  0  0  0  0  0  0  0  0  0  0  0
  151.8959  139.9938  155.5183 O   0  0  0  0  0  0  0  0  0  0  0  0
  152.9972  138.7449  157.4081 O   0  0  0  0  0  0  0  0  0  0  0  0
  150.5310  138.2392  156.8472 N   0  5  0  0  0  0  0  0  0  0  0  0
  150.0698  137.5867  155.6316 C   0  0  1  0  0  0  0  0  0  0  0  0
  150.4185  136.0926  155.7169 C   0  0  0  0  0  0  0  0  0  0  0  0
  148.5536  137.8492  155.4103 C   0  0  0  0  0  0  0  0  0  0  0  0
  148.1999  139.2198  155.0452 N   0  0  0  0  0  0  0  0  0  0  0  0
  147.0104  139.6985  154.5295 C   0  0  0  0  0  0  0  0  0  0  0  0
  147.1577  141.0414  154.3320 C   0  0  0  0  0  0  0  0  0  0  0  0
  148.4948  141.2979  154.7436 C   0  0  0  0  0  0  0  0  0  0  0  0
  149.1199  140.2074  155.1539 N   0  0  0  0  0  0  0  0  0  0  0  0
  150.2895  141.5576  157.4396 C   0  0  0  0  0  0  0  0  0  0  0  0
  151.1081  142.8490  157.2543 C   0  0  0  0  0  0  0  0  0  0  0  0
  153.4588  144.3626  157.5761 H   0  0  0  0  0  0  0  0  0  0  0  0
  153.2086  144.7810  159.2692 H   0  0  0  0  0  0  0  0  0  0  0  0
  152.0735  145.3442  158.0477 H   0  0  0  0  0  0  0  0  0  0  0  0
  151.1253  143.4303  159.3187 H   0  0  0  0  0  0  0  0  0  0  0  0
  153.5277  141.8773  158.2662 H   0  0  0  0  0  0  0  0  0  0  0  0
  153.2208  142.2818  159.9318 H   0  0  0  0  0  0  0  0  0  0  0  0
  152.5361  139.9280  159.4291 H   0  0  0  0  0  0  0  0  0  0  0  0
  151.1892  140.8924  159.9794 H   0  0  0  0  0  0  0  0  0  0  0  0
  150.5949  137.9811  154.7609 H   0  0  0  0  0  0  0  0  0  0  0  0
  150.0605  135.5577  154.8372 H   0  0  0  0  0  0  0  0  0  0  0  0
  149.9789  135.6216  156.5967 H   0  0  0  0  0  0  0  0  0  0  0  0
  151.4977  135.9461  155.7722 H   0  0  0  0  0  0  0  0  0  0  0  0
  148.1569  137.1731  154.6524 H   0  0  0  0  0  0  0  0  0  0  0  0
  148.0137  137.6058  156.3259 H   0  0  0  0  0  0  0  0  0  0  0  0
  146.1648  139.0493  154.3568 H   0  0  0  0  0  0  0  0  0  0  0  0
  146.4229  141.7341  153.9505 H   0  0  0  0  0  0  0  0  0  0  0  0
  149.0284  142.2367  154.7516 H   0  0  0  0  0  0  0  0  0  0  0  0
  149.8043  141.2796  156.5044 H   0  0  0  0  0  0  0  0  0  0  0  0
  149.4909  141.7331  158.1605 H   0  0  0  0  0  0  0  0  0  0  0  0
  150.4410  143.6597  156.9609 H   0  0  0  0  0  0  0  0  0  0  0  0
  151.8133  142.7271  156.4319 H   0  0  0  0  0  0  0  0  0  0  0  0
  1  2  1  0  0  0  0
  1 20  1  0  0  0  0
  1 21  1  0  0  0  0
  1 22  1  0  0  0  0
  2 19  1  0  0  0  0
  2  3  1  0  0  0  0
  2 23  1  0  0  0  0
  3  4  1  0  0  0  0
  3 24  1  0  0  0  0
  3 25  1  0  0  0  0
  4  5  1  0  0  0  0
  4 26  1  0  0  0  0
  4 27  1  0  0  0  0
  5  6  1  0  0  0  0
  5 18  1  0  0  0  0
  6  7  2  0  0  0  0
  6  8  2  0  0  0  0
  6  9  1  0  0  0  0
  9 10  1  0  0  0  0
 10 11  1  0  0  0  0
 10 12  1  0  0  0  0
 10 28  1  0  0  0  0
 11 29  1  0  0  0  0
 11 30  1  0  0  0  0
 11 31  1  0  0  0  0
 12 13  1  0  0  0  0
 12 32  1  0  0  0  0
 12 33  1  0  0  0  0
 13 17  1  0  0  0  0
 13 14  1  0  0  0  0
 14 15  2  0  0  0  0
 14 34  1  0  0  0  0
 15 16  1  0  0  0  0
 15 35  1  0  0  0  0
 16 17  2  0  0  0  0
 16 36  1  0  0  0  0
 18 19  1  0  0  0  0
 18 37  1  0  0  0  0
 18 38  1  0  0  0  0
 19 39  1  0  0  0  0
 19 40  1  0  0  0  0
M  CHG  1   9  -1
M  END
> <s_m_source_file>
AV-unprocessed.smi

> <i_m_source_file_index>
2010

> <i_lp_mmshare_version>
43012

> <i_f3d_flags>
0

> <s_epik_input>
W0NIM11bQ0hdMVtDSDJdW0NIMl1OKFtDSDJdW0NIMl0xKVMoPU8pKD1PKVtOSF1bQ0BIXShbQ0gzXSlbQ0gyXW4yW2NIXVtjSF1bY0hdbjI=

> <s_epik_cmdline>
J2VwaWtfcHl0aG9uJywgJy1waCcsICc3LjAnLCAnLXRuJywgJzgnLCAnLW1hJywgJzIwMCcsICctbWV0YWxfYmluZGluZycsICctaW1hZScsICc8aW5maWxlLm1hZT4nLCAnLW9tYWUnLCAnPG91dGZpbGUubWFlPic=

> <r_lp_tautomer_probability>
1

> <r_epik_Ionization_Penalty>
1.75622

> <r_epik_Ionization_Penalty_Charging>
1.7562

> <r_epik_Ionization_Penalty_Neutral>
2.39925e-05

> <r_epik_State_Penalty>
1.86645

> <r_epik_Charging_Adjusted_Penalty>
3.62264

> <i_epik_Tot_Q>
-1

> <i_epik_Tot_abs_Q>
1

> <r_epik_Metal_State_Penalty>
0.460135

> <b_epik_Metal_Only>
0

> <s_lp_Force_Field>
OPLS_2005

> <r_lp_Energy>
3.33366

> <b_lp_Chiralities_Consistent>
1

> <s_lp_Variant>
AV-unprocessed.smi:2010-4

> <Gold.Version>
5.8.1

> <Gold.Id.Protein>
6NUR|6NUR_protein|mol2

> <Gold.PLP.Fitness>
43.2575

> <Gold.PLP.PLP>
-36.0130

> <Gold.PLP.part.hbond>
-2.2746

> <Gold.PLP.part.metal>
0.0000

> <Gold.PLP.part.buried>
-2.6291

> <Gold.PLP.part.nonpolar>
-31.1937

> <Gold.PLP.part.repulsive>
0.1262

> <Gold.PLP.ligand.clash>
0.0000

> <Gold.PLP.ligand.torsion>
1.9208

> <Gold.PLP.Chemscore.Hbond>
1.6560

> <Gold.PLP.Chemscore.CHOScore>
1.0000

> <Gold.PLP.Chemscore.Metal>
0.0000

> <Gold.Chemscore.Hbonds>
donor molecule, donor type, donor heavy atom, donor atom, acceptor molecule, acceptor atom, score
      P1  H  7989  7998       L1     7  0.49
      P1  H  7997  8008       L1     8  0.96
      L1  C    16    36       P1  8028  0.74

> <Gold.PLP.Chemscore.Internal.Correction>
3.1181

> <Gold.Rescore>
     Score         DG    S(hbond)    S(metal)    S(lipo)     H(rot)  DE(clash)    DE(int)     intcor
     15.38     -17.52       1.52        0.00      89.42       1.37       0.19       1.95       ----

> <Gold.Chemscore.Fitness>
15.3831

> <Gold.Chemscore.DG>
-17.5172

> <Gold.Chemscore.ZeroCoef>
-5.4800

> <Gold.Chemscore.Hbond>
1.5180

> <Gold.Chemscore.Metal>
0.0000

> <Gold.Chemscore.Lipo>
89.4172

> <Gold.Chemscore.Internal_Hbond>
0.0000

> <Gold.Chemscore.DEClash>
0.1878

> <Gold.Chemscore.DEInternal>
1.9464

> <Gold.Chemscore.Rot>
1.3652

> <Gold.Chemscore.Internal.Correction>
   9.000000E+99

> <Gold.Chemscore.Hbonds>
donor molecule, donor type, donor heavy atom, donor atom, acceptor molecule, acceptor atom, score
      P1  H  7989  7998       L1     7  0.48
      P1  H  7997  8008       L1     8  0.31

> <Gold.Chemscore.Hbond.Weighted>
-5.0703

> <Gold.Chemscore.Metal.Weighted>
-0.0000

> <Gold.Chemscore.Lipo.Weighted>
-10.4618

> <Gold.Chemscore.Internal_Hbond.Weighted>
0.0000

> <Gold.Chemscore.DEClash.Weighted>
0.1878

> <Gold.Chemscore.DEInternal.Weighted>
1.9464

> <Gold.Chemscore.Rot.Weighted>
3.4948

> <Gold.Chemscore.Internal.Correction.Weighted>
   9.000000E+99

> <Gold.Protein.RotatedTorsions>
[ 6907 6896 6895 6894 ] final  -37.76 input  -60.11 | X-H torsion
[ 7974 7965 7964 7962 ] final  159.64 input  175.53 | X-H torsion
[ 8008 7997 7996 7995 ] final  -63.84 input   59.86 | X-H torsion
[ 10167 10162 10161 10158 ] final -133.13 input  -65.29 | X-H torsion
[ 10718 10713 10712 10709 ] final   94.47 input   66.30 | X-H torsion
[ 10763 10752 10751 10750 ] final  -86.80 input  -60.55 | X-H torsion
[ 11005 11000 10999 10996 ] final  -99.80 input  -57.11 | X-H torsion

> <Gold.Protein.ActiveResidues>
 VAL166  LYS551  ARG553  GLY616  TRP617  ASP618  TYR619  PRO620  LYS621  CYS622 
 ASP623  PHE694  ASN695  SER759  ASP760  ASP761  ALA762  ILE779  LEU786  VAL792 
 PHE793  MET794  SER795  GLU796  ALA797  LYS798  CYS799  TRP800  GLU811  SER814 

> <Gold.Protein.RotatedAtoms>
  151.0108  134.9395  159.8005 H   0  0  0  0  0  0  0  0  0  0  0  0  # atno 6907 bound_to 6896
  152.5302  134.3031  159.9096 H   0  0  0  0  0  0  0  0  0  0  0  0  # atno 6908 bound_to 6896
  151.3037  133.4069  159.2676 H   0  0  0  0  0  0  0  0  0  0  0  0  # atno 6909 bound_to 6896
  144.7779  139.7645  143.6271 H   0  0  0  0  0  0  0  0  0  0  0  0  # atno 7974 bound_to 7965
  154.4577  140.0966  156.6804 H   0  0  0  0  0  0  0  0  0  0  0  0  # atno 8008 bound_to 7997
  155.5089  140.3476  155.4366 H   0  0  0  0  0  0  0  0  0  0  0  0  # atno 8009 bound_to 7997
  156.0809  140.1373  156.9702 H   0  0  0  0  0  0  0  0  0  0  0  0  # atno 8010 bound_to 7997
  139.9014  143.6603  152.2594 H   0  0  0  0  0  0  0  0  0  0  0  0  # atno 10167 bound_to 10162
  157.6947  131.0513  150.4191 H   0  0  0  0  0  0  0  0  0  0  0  0  # atno 10718 bound_to 10713
  154.6265  135.5436  153.7632 H   0  0  0  0  0  0  0  0  0  0  0  0  # atno 10763 bound_to 10752
  153.0263  135.6425  154.1364 H   0  0  0  0  0  0  0  0  0  0  0  0  # atno 10764 bound_to 10752
  154.1296  135.2915  155.3168 H   0  0  0  0  0  0  0  0  0  0  0  0  # atno 10765 bound_to 10752
  141.1295  133.8349  157.1019 H   0  0  0  0  0  0  0  0  0  0  0  0  # atno 11005 bound_to 11000
  146.1970  139.5243  142.9768 LP  0  0  0  0  0  0  0  0  0  0  0  0  # atno 17320 bound_to 7965
  145.6132  141.0336  143.1955 LP  0  0  0  0  0  0  0  0  0  0  0  0  # atno 17321 bound_to 7965
  139.7022  144.7633  151.1254 LP  0  0  0  0  0  0  0  0  0  0  0  0  # atno 17342 bound_to 10162
  140.7706  143.5443  150.9277 LP  0  0  0  0  0  0  0  0  0  0  0  0  # atno 17343 bound_to 10162
  156.4567  130.4023  149.6601 LP  0  0  0  0  0  0  0  0  0  0  0  0  # atno 17370 bound_to 10713
  156.3731  130.7541  151.2526 LP  0  0  0  0  0  0  0  0  0  0  0  0  # atno 17371 bound_to 10713
  140.0328  134.9893  157.0814 LP  0  0  0  0  0  0  0  0  0  0  0  0  # atno 17394 bound_to 11000
  140.4257  134.1833  155.7166 LP  0  0  0  0  0  0  0  0  0  0  0  0  # atno 17395 bound_to 11000

$$$$
