AV-unprocessed.smi:1748|AV-procd|sdf|7038|dock2
  -GOLD-   22720 8253D 1   1.00000     0.00000
 Structure written by MMmdl.
 40 41  0  0  0  0  0  0  0  0  2 V2000
  147.8682  138.6174  153.1649 C   0  0  0  0  0  0  0  0  0  0  0  0
  147.5323  137.3456  152.4899 N   0  3  1  0  0  0  0  0  0  0  0  0
  146.8157  136.4018  153.3840 C   0  0  0  0  0  0  0  0  0  0  0  0
  146.5958  135.0440  152.6953 C   0  0  0  0  0  0  0  0  0  0  0  0
  145.8765  135.2110  151.3456 C   0  0  0  0  0  0  0  0  0  0  0  0
  146.6092  136.2272  150.4506 C   0  0  2  0  0  0  0  0  0  0  0  0
  147.8852  135.6683  150.0031 N   0  0  0  0  0  0  0  0  0  0  0  0
  148.2019  135.3767  148.7335 C   0  0  0  0  0  0  0  0  0  0  0  0
  147.4368  135.5657  147.7883 O   0  0  0  0  0  0  0  0  0  0  0  0
  149.4533  134.8899  148.6498 N   0  0  0  0  0  0  0  0  0  0  0  0
  150.1636  134.4641  147.5151 C   0  0  0  0  0  0  0  0  0  0  0  0
  151.1606  135.1662  146.9156 C   0  0  0  0  0  0  0  0  0  0  0  0
  151.8487  134.6719  145.7341 C   0  0  0  0  0  0  0  0  0  0  0  0
  153.0197  135.4204  145.1166 C   0  0  0  0  0  0  0  0  0  0  0  0
  154.1294  134.6812  145.1431 F   0  0  0  0  0  0  0  0  0  0  0  0
  152.7487  135.7152  143.8459 F   0  0  0  0  0  0  0  0  0  0  0  0
  153.2598  136.5598  145.7659 F   0  0  0  0  0  0  0  0  0  0  0  0
  151.4505  133.4753  145.2646 C   0  0  0  0  0  0  0  0  0  0  0  0
  150.4101  132.7590  145.8608 N   0  0  0  0  0  0  0  0  0  0  0  0
  149.7346  133.1713  146.9567 C   0  0  0  0  0  0  0  0  0  0  0  0
  148.8300  132.4815  147.4261 O   0  0  0  0  0  0  0  0  0  0  0  0
  146.8027  137.5567  151.2144 C   0  0  0  0  0  0  0  0  0  0  0  0
  150.1584  131.8773  145.4374 H   0  0  0  0  0  0  0  0  0  0  0  0
  146.9658  139.1563  153.4567 H   0  0  0  0  0  0  0  0  0  0  0  0
  148.4530  139.2598  152.5056 H   0  0  0  0  0  0  0  0  0  0  0  0
  148.4622  138.4327  154.0605 H   0  0  0  0  0  0  0  0  0  0  0  0
  147.3904  136.2562  154.2995 H   0  0  0  0  0  0  0  0  0  0  0  0
  145.8571  136.8338  153.6764 H   0  0  0  0  0  0  0  0  0  0  0  0
  147.5572  134.5515  152.5437 H   0  0  0  0  0  0  0  0  0  0  0  0
  146.0166  134.3877  153.3457 H   0  0  0  0  0  0  0  0  0  0  0  0
  145.7892  134.2480  150.8405 H   0  0  0  0  0  0  0  0  0  0  0  0
  144.8570  135.5565  151.5230 H   0  0  0  0  0  0  0  0  0  0  0  0
  145.9930  136.4111  149.5686 H   0  0  0  0  0  0  0  0  0  0  0  0
  148.5728  135.4762  150.7173 H   0  0  0  0  0  0  0  0  0  0  0  0
  149.9840  134.8619  149.5085 H   0  0  0  0  0  0  0  0  0  0  0  0
  151.4589  136.1320  147.2895 H   0  0  0  0  0  0  0  0  0  0  0  0
  151.8935  132.9791  144.4137 H   0  0  0  0  0  0  0  0  0  0  0  0
  145.8321  138.0088  151.4247 H   0  0  0  0  0  0  0  0  0  0  0  0
  147.3461  138.2716  150.5952 H   0  0  0  0  0  0  0  0  0  0  0  0
  148.4108  136.9086  152.2498 H   0  0  0  0  0  0  0  0  0  0  0  0
  1  2  1  0  0  0  0
  1 24  1  0  0  0  0
  1 25  1  0  0  0  0
  1 26  1  0  0  0  0
  2 22  1  0  0  0  0
  2  3  1  0  0  0  0
  2 40  1  0  0  0  0
  3  4  1  0  0  0  0
  3 27  1  0  0  0  0
  3 28  1  0  0  0  0
  4  5  1  0  0  0  0
  4 29  1  0  0  0  0
  4 30  1  0  0  0  0
  5  6  1  0  0  0  0
  5 31  1  0  0  0  0
  5 32  1  0  0  0  0
  6  7  1  0  0  0  0
  6 22  1  0  0  0  0
  6 33  1  0  0  0  0
  7  8  1  0  0  0  0
  7 34  1  0  0  0  0
  8  9  2  0  0  0  0
  8 10  1  0  0  0  0
 10 11  1  0  0  0  0
 10 35  1  0  0  0  0
 11 20  1  0  0  0  0
 11 12  2  0  0  0  0
 12 13  1  0  0  0  0
 12 36  1  0  0  0  0
 13 14  1  0  0  0  0
 13 18  2  0  0  0  0
 14 15  1  0  0  0  0
 14 16  1  0  0  0  0
 14 17  1  0  0  0  0
 18 19  1  0  0  0  0
 18 37  1  0  0  0  0
 19 23  1  0  0  0  0
 19 20  1  0  0  0  0
 20 21  2  0  0  0  0
 22 38  1  0  0  0  0
 22 39  1  0  0  0  0
M  CHG  1   2   1
M  END
> <s_m_source_file>
AV-unprocessed.smi

> <i_m_source_file_index>
1748

> <i_lp_mmshare_version>
43012

> <i_f3d_flags>
0

> <s_epik_input>
W0NIM11OMVtDSDJdW0NIMl1bQ0gyXVtDQEhdKFtDSDJdMSlbTkhdQyg9TylbTkhdYzJbY0hdYyhDKEYpKEYpRilbY0hdW25IXWMyPU8=

> <s_epik_cmdline>
J2VwaWtfcHl0aG9uJywgJy1waCcsICc3LjAnLCAnLXRuJywgJzgnLCAnLW1hJywgJzIwMCcsICctbWV0YWxfYmluZGluZycsICctaW1hZScsICc8aW5maWxlLm1hZT4nLCAnLW9tYWUnLCAnPG91dGZpbGUubWFlPic=

> <r_lp_tautomer_probability>
1

> <r_epik_Ionization_Penalty>
0.00746315

> <r_epik_Ionization_Penalty_Charging>
0.00744398

> <r_epik_Ionization_Penalty_Neutral>
1.91704e-05

> <r_epik_State_Penalty>
-0

> <r_epik_Charging_Adjusted_Penalty>
0.00744398

> <i_epik_Tot_Q>
1

> <i_epik_Tot_abs_Q>
1

> <r_epik_Metal_State_Penalty>
0.379332

> <b_epik_Metal_Only>
0

> <s_lp_Force_Field>
OPLS_2005

> <r_lp_Energy>
33.9877

> <b_lp_Chiralities_Consistent>
1

> <s_lp_Variant>
AV-unprocessed.smi:1748-3

> <Gold.Version>
5.8.1

> <Gold.Id.Protein>
6NUR|6NUR_protein|mol2

> <Gold.PLP.Fitness>
41.5401

> <Gold.PLP.PLP>
-34.0328

> <Gold.PLP.part.hbond>
-2.0000

> <Gold.PLP.part.metal>
0.0000

> <Gold.PLP.part.buried>
-2.2406

> <Gold.PLP.part.nonpolar>
-29.3910

> <Gold.PLP.part.repulsive>
0.0313

> <Gold.PLP.ligand.clash>
0.0000

> <Gold.PLP.ligand.torsion>
0.7278

> <Gold.PLP.Chemscore.Hbond>
2.9750

> <Gold.PLP.Chemscore.CHOScore>
0.0000

> <Gold.PLP.Chemscore.Metal>
0.0000

> <Gold.PLP.Chemscore.Internal.Correction>
0.0379

> <Gold.Rescore>
     Score         DG    S(hbond)    S(metal)    S(lipo)     H(rot)  DE(clash)    DE(int)     intcor
     15.06     -16.26       1.97        0.00      57.66       1.00       0.47       0.73       ----

> <Gold.Chemscore.Fitness>
15.0641

> <Gold.Chemscore.DG>
-16.2598

> <Gold.Chemscore.ZeroCoef>
-5.4800

> <Gold.Chemscore.Hbond>
1.9741

> <Gold.Chemscore.Metal>
0.0000

> <Gold.Chemscore.Lipo>
57.6601

> <Gold.Chemscore.Internal_Hbond>
0.0000

> <Gold.Chemscore.DEClash>
0.4663

> <Gold.Chemscore.DEInternal>
0.7294

> <Gold.Chemscore.Rot>
1.0000

> <Gold.Chemscore.Internal.Correction>
   9.000000E+99

> <Gold.Chemscore.Hbond.Weighted>
-6.5936

> <Gold.Chemscore.Metal.Weighted>
-0.0000

> <Gold.Chemscore.Lipo.Weighted>
-6.7462

> <Gold.Chemscore.Internal_Hbond.Weighted>
0.0000

> <Gold.Chemscore.DEClash.Weighted>
0.4663

> <Gold.Chemscore.DEInternal.Weighted>
0.7294

> <Gold.Chemscore.Rot.Weighted>
2.5600

> <Gold.Chemscore.Internal.Correction.Weighted>
   9.000000E+99

> <Gold.Protein.RotatedTorsions>
[ 6907 6896 6895 6894 ] final -138.28 input  -60.11 | X-H torsion
[ 7974 7965 7964 7962 ] final   68.98 input  175.53 | X-H torsion
[ 8008 7997 7996 7995 ] final -127.08 input   59.86 | X-H torsion
[ 10167 10162 10161 10158 ] final   96.68 input  -65.29 | X-H torsion
[ 10718 10713 10712 10709 ] final -106.88 input   66.30 | X-H torsion
[ 10763 10752 10751 10750 ] final  176.33 input  -60.55 | X-H torsion
[ 11005 11000 10999 10996 ] final   -9.66 input  -57.11 | X-H torsion

> <Gold.Protein.ActiveResidues>
 VAL166  LYS551  ARG553  GLY616  TRP617  ASP618  TYR619  PRO620  LYS621  CYS622 
 ASP623  PHE694  ASN695  SER759  ASP760  ASP761  ALA762  ILE779  LEU786  VAL792 
 PHE793  MET794  SER795  GLU796  ALA797  LYS798  CYS799  TRP800  GLU811  SER814 

> <Gold.Protein.RotatedAtoms>
  151.0330  133.5773  159.2658 H   0  0  0  0  0  0  0  0  0  0  0  0  # atno 6907 bound_to 6896
  151.2848  135.0723  159.9192 H   0  0  0  0  0  0  0  0  0  0  0  0  # atno 6908 bound_to 6896
  152.5349  134.0039  159.7961 H   0  0  0  0  0  0  0  0  0  0  0  0  # atno 6909 bound_to 6896
  145.7959  139.2957  143.1183 H   0  0  0  0  0  0  0  0  0  0  0  0  # atno 7974 bound_to 7965
  155.2402  140.0428  157.2974 H   0  0  0  0  0  0  0  0  0  0  0  0  # atno 8008 bound_to 7997
  154.5833  140.2406  155.7993 H   0  0  0  0  0  0  0  0  0  0  0  0  # atno 8009 bound_to 7997
  156.2208  140.2970  155.9956 H   0  0  0  0  0  0  0  0  0  0  0  0  # atno 8010 bound_to 7997
  139.7871  144.6866  150.9942 H   0  0  0  0  0  0  0  0  0  0  0  0  # atno 10167 bound_to 10162
  156.0410  130.5634  150.7742 H   0  0  0  0  0  0  0  0  0  0  0  0  # atno 10718 bound_to 10713
  154.4797  135.2774  155.1580 H   0  0  0  0  0  0  0  0  0  0  0  0  # atno 10763 bound_to 10752
  154.3295  135.6193  153.5548 H   0  0  0  0  0  0  0  0  0  0  0  0  # atno 10764 bound_to 10752
  152.9874  135.5762  154.5195 H   0  0  0  0  0  0  0  0  0  0  0  0  # atno 10765 bound_to 10752
  140.7365  133.8706  155.8934 H   0  0  0  0  0  0  0  0  0  0  0  0  # atno 11005 bound_to 11000
  145.9928  140.8588  143.0058 LP  0  0  0  0  0  0  0  0  0  0  0  0  # atno 17320 bound_to 7965
  144.6775  140.2240  143.7363 LP  0  0  0  0  0  0  0  0  0  0  0  0  # atno 17321 bound_to 7965
  140.7820  143.4420  151.0538 LP  0  0  0  0  0  0  0  0  0  0  0  0  # atno 17342 bound_to 10162
  139.8098  143.7966  152.3170 LP  0  0  0  0  0  0  0  0  0  0  0  0  # atno 17343 bound_to 10162
  157.5228  131.0932  151.0057 LP  0  0  0  0  0  0  0  0  0  0  0  0  # atno 17370 bound_to 10713
  157.0383  130.5739  149.5352 LP  0  0  0  0  0  0  0  0  0  0  0  0  # atno 17371 bound_to 10713
  140.9875  134.1323  157.4439 LP  0  0  0  0  0  0  0  0  0  0  0  0  # atno 17394 bound_to 11000
  139.8815  135.0030  156.6160 LP  0  0  0  0  0  0  0  0  0  0  0  0  # atno 17395 bound_to 11000

$$$$
