AV-unprocessed.smi:1913|AV-procd|sdf|7752|dock2
  -GOLD-   22720 9493D 1   1.00000     0.00000
 Structure written by MMmdl.
 40 42  0  0  0  0  0  0  0  0  1 V2000
  154.9130  139.3880  160.6525 C   0  0  0  0  0  0  0  0  0  0  0  0
  153.7698  139.5886  159.8341 O   0  0  0  0  0  0  0  0  0  0  0  0
  153.1693  140.8290  159.8518 C   0  0  0  0  0  0  0  0  0  0  0  0
  153.6319  141.9266  160.6143 C   0  0  0  0  0  0  0  0  0  0  0  0
  152.9628  143.1630  160.5628 C   0  0  0  0  0  0  0  0  0  0  0  0
  151.8159  143.3352  159.7493 C   0  0  0  0  0  0  0  0  0  0  0  0
  151.1411  144.5340  159.6405 O   0  0  0  0  0  0  0  0  0  0  0  0
  151.6394  145.6554  160.3545 C   0  0  0  0  0  0  0  0  0  0  0  0
  151.3426  142.2345  158.9931 C   0  0  0  0  0  0  0  0  0  0  0  0
  150.1324  142.3873  158.0715 C   0  0  2  0  0  0  0  0  0  0  0  0
  148.9715  142.8015  158.7643 O   0  0  0  0  0  0  0  0  0  0  0  0
  149.8009  141.0805  157.3214 C   0  0  0  0  0  0  0  0  0  0  0  0
  149.1188  141.3264  156.0632 N   0  0  0  0  0  0  0  0  0  0  0  0
  149.6314  141.1945  154.8249 C   0  0  0  0  0  0  0  0  0  0  0  0
  148.8214  141.4435  153.7998 N   0  0  0  0  0  0  0  0  0  0  0  0
  147.6452  141.7783  154.4484 C   0  0  0  0  0  0  0  0  0  0  0  0
  146.3826  142.1421  153.9281 C   0  0  0  0  0  0  0  0  0  0  0  0
  145.3105  142.4378  154.7958 C   0  0  0  0  0  0  0  0  0  0  0  0
  145.4838  142.3760  156.1936 C   0  0  0  0  0  0  0  0  0  0  0  0
  146.7330  142.0179  156.7353 C   0  0  0  0  0  0  0  0  0  0  0  0
  147.7995  141.7212  155.8663 C   0  0  0  0  0  0  0  0  0  0  0  0
  152.0245  140.9986  159.0505 C   0  0  0  0  0  0  0  0  0  0  0  0
  155.2800  138.3711  160.5135 H   0  0  0  0  0  0  0  0  0  0  0  0
  154.6747  139.5105  161.7100 H   0  0  0  0  0  0  0  0  0  0  0  0
  155.7208  140.0698  160.3823 H   0  0  0  0  0  0  0  0  0  0  0  0
  154.5032  141.8484  161.2463 H   0  0  0  0  0  0  0  0  0  0  0  0
  153.3570  143.9713  161.1591 H   0  0  0  0  0  0  0  0  0  0  0  0
  151.0612  146.5379  160.0818 H   0  0  0  0  0  0  0  0  0  0  0  0
  152.6824  145.8560  160.1042 H   0  0  0  0  0  0  0  0  0  0  0  0
  151.5433  145.5166  161.4320 H   0  0  0  0  0  0  0  0  0  0  0  0
  150.3286  143.1735  157.3423 H   0  0  0  0  0  0  0  0  0  0  0  0
  149.1486  142.7656  159.6919 H   0  0  0  0  0  0  0  0  0  0  0  0
  150.7055  140.5026  157.1275 H   0  0  0  0  0  0  0  0  0  0  0  0
  149.1541  140.4496  157.9330 H   0  0  0  0  0  0  0  0  0  0  0  0
  150.6552  140.8878  154.6673 H   0  0  0  0  0  0  0  0  0  0  0  0
  146.2376  142.1916  152.8591 H   0  0  0  0  0  0  0  0  0  0  0  0
  144.3495  142.7127  154.3864 H   0  0  0  0  0  0  0  0  0  0  0  0
  144.6563  142.6023  156.8499 H   0  0  0  0  0  0  0  0  0  0  0  0
  146.8682  141.9626  157.8053 H   0  0  0  0  0  0  0  0  0  0  0  0
  151.6769  140.1646  158.4584 H   0  0  0  0  0  0  0  0  0  0  0  0
  1  2  1  0  0  0  0
  1 23  1  0  0  0  0
  1 24  1  0  0  0  0
  1 25  1  0  0  0  0
  2  3  1  0  0  0  0
  3 22  1  0  0  0  0
  3  4  2  0  0  0  0
  4  5  1  0  0  0  0
  4 26  1  0  0  0  0
  5  6  2  0  0  0  0
  5 27  1  0  0  0  0
  6  7  1  0  0  0  0
  6  9  1  0  0  0  0
  7  8  1  0  0  0  0
  8 28  1  0  0  0  0
  8 29  1  0  0  0  0
  8 30  1  0  0  0  0
  9 10  1  0  0  0  0
  9 22  2  0  0  0  0
 10 11  1  0  0  0  0
 10 12  1  0  0  0  0
 10 31  1  0  0  0  0
 11 32  1  0  0  0  0
 12 13  1  0  0  0  0
 12 33  1  0  0  0  0
 12 34  1  0  0  0  0
 13 21  1  0  0  0  0
 13 14  1  0  0  0  0
 14 15  2  0  0  0  0
 14 35  1  0  0  0  0
 15 16  1  0  0  0  0
 16 21  2  0  0  0  0
 16 17  1  0  0  0  0
 17 18  2  0  0  0  0
 17 36  1  0  0  0  0
 18 19  1  0  0  0  0
 18 37  1  0  0  0  0
 19 20  2  0  0  0  0
 19 38  1  0  0  0  0
 20 21  1  0  0  0  0
 20 39  1  0  0  0  0
 22 40  1  0  0  0  0
M  END
> <s_m_source_file>
AV-unprocessed.smi

> <i_m_source_file_index>
1913

> <i_lp_mmshare_version>
43012

> <i_f3d_flags>
0

> <s_epik_input>
W0NIM11PYzFbY0hdW2NIXWMoT1tDSDNdKWMoW2NIXTEpW0NASF0oW09IXSlbQ0gyXW4oW2NIXW4yKWMoYzIzKVtjSF1bY0hdW2NIXVtjSF0z

> <s_epik_cmdline>
J2VwaWtfcHl0aG9uJywgJy1waCcsICc3LjAnLCAnLXRuJywgJzgnLCAnLW1hJywgJzIwMCcsICctbWV0YWxfYmluZGluZycsICctaW1hZScsICc8aW5maWxlLm1hZT4nLCAnLW9tYWUnLCAnPG91dGZpbGUubWFlPic=

> <r_lp_tautomer_probability>
1

> <r_epik_Ionization_Penalty>
0.0696512

> <r_epik_Ionization_Penalty_Charging>
0

> <r_epik_Ionization_Penalty_Neutral>
0.0696512

> <r_epik_State_Penalty>
0.0610247

> <r_epik_Charging_Adjusted_Penalty>
0.0610247

> <i_epik_Tot_Q>
0

> <i_epik_Tot_abs_Q>
0

> <r_epik_Metal_State_Penalty>
6.42746e-05

> <b_epik_Metal_Only>
0

> <s_lp_Force_Field>
OPLS_2005

> <r_lp_Energy>
18.1997

> <b_lp_Chiralities_Consistent>
1

> <s_lp_Variant>
AV-unprocessed.smi:1913-1

> <Gold.Version>
5.8.1

> <Gold.Id.Protein>
6NUR|6NUR_protein|mol2

> <Gold.PLP.Fitness>
46.7833

> <Gold.PLP.PLP>
-45.1410

> <Gold.PLP.part.hbond>
-1.2305

> <Gold.PLP.part.metal>
0.0000

> <Gold.PLP.part.buried>
-6.0198

> <Gold.PLP.part.nonpolar>
-38.5614

> <Gold.PLP.part.repulsive>
1.1250

> <Gold.PLP.ligand.clash>
0.0000

> <Gold.PLP.ligand.torsion>
0.4289

> <Gold.PLP.Chemscore.Hbond>
0.8160

> <Gold.PLP.Chemscore.CHOScore>
0.0000

> <Gold.PLP.Chemscore.Metal>
0.0000

> <Gold.Chemscore.Hbonds>
donor molecule, donor type, donor heavy atom, donor atom, acceptor molecule, acceptor atom, score
      P1  H  8011  8017       L1    15  0.75

> <Gold.PLP.Chemscore.Internal.Correction>
0.0521

> <Gold.Rescore>
     Score         DG    S(hbond)    S(metal)    S(lipo)     H(rot)  DE(clash)    DE(int)     intcor
     14.08     -14.84       0.65        0.00     112.46       2.33       0.25       0.51       ----

> <Gold.Chemscore.Fitness>
14.0846

> <Gold.Chemscore.DG>
-14.8373

> <Gold.Chemscore.ZeroCoef>
-5.4800

> <Gold.Chemscore.Hbond>
0.6497

> <Gold.Chemscore.Metal>
0.0000

> <Gold.Chemscore.Lipo>
112.4608

> <Gold.Chemscore.Internal_Hbond>
0.0000

> <Gold.Chemscore.DEClash>
0.2458

> <Gold.Chemscore.DEInternal>
0.5068

> <Gold.Chemscore.Rot>
2.3323

> <Gold.Chemscore.Internal.Correction>
   9.000000E+99

> <Gold.Chemscore.Hbonds>
donor molecule, donor type, donor heavy atom, donor atom, acceptor molecule, acceptor atom, score
      P1  H  8011  8017       L1    15  0.55

> <Gold.Chemscore.Hbond.Weighted>
-2.1702

> <Gold.Chemscore.Metal.Weighted>
-0.0000

> <Gold.Chemscore.Lipo.Weighted>
-13.1579

> <Gold.Chemscore.Internal_Hbond.Weighted>
0.0000

> <Gold.Chemscore.DEClash.Weighted>
0.2458

> <Gold.Chemscore.DEInternal.Weighted>
0.5068

> <Gold.Chemscore.Rot.Weighted>
5.9708

> <Gold.Chemscore.Internal.Correction.Weighted>
   9.000000E+99

> <Gold.Protein.RotatedTorsions>
[ 6907 6896 6895 6894 ] final   32.38 input  -60.11 | X-H torsion
[ 7974 7965 7964 7962 ] final  173.12 input  175.53 | X-H torsion
[ 8008 7997 7996 7995 ] final -101.56 input   59.86 | X-H torsion
[ 10167 10162 10161 10158 ] final  -66.34 input  -65.29 | X-H torsion
[ 10718 10713 10712 10709 ] final -115.50 input   66.30 | X-H torsion
[ 10763 10752 10751 10750 ] final  -35.49 input  -60.55 | X-H torsion
[ 11005 11000 10999 10996 ] final   45.91 input  -57.11 | X-H torsion

> <Gold.Protein.ActiveResidues>
 VAL166  LYS551  ARG553  GLY616  TRP617  ASP618  TYR619  PRO620  LYS621  CYS622 
 ASP623  PHE694  ASN695  SER759  ASP760  ASP761  ALA762  ILE779  LEU786  VAL792 
 PHE793  MET794  SER795  GLU796  ALA797  LYS798  CYS799  TRP800  GLU811  SER814 

> <Gold.Protein.RotatedAtoms>
  152.0737  134.9517  160.0574 H   0  0  0  0  0  0  0  0  0  0  0  0  # atno 6907 bound_to 6896
  152.0833  133.4159  159.4519 H   0  0  0  0  0  0  0  0  0  0  0  0  # atno 6908 bound_to 6896
  150.6836  134.2876  159.4697 H   0  0  0  0  0  0  0  0  0  0  0  0  # atno 6909 bound_to 6896
  144.7251  139.9600  143.6434 H   0  0  0  0  0  0  0  0  0  0  0  0  # atno 7974 bound_to 7965
  154.8443  140.0433  157.1562 H   0  0  0  0  0  0  0  0  0  0  0  0  # atno 8008 bound_to 7997
  154.9013  140.3000  155.5296 H   0  0  0  0  0  0  0  0  0  0  0  0  # atno 8009 bound_to 7997
  156.2993  140.2375  156.4041 H   0  0  0  0  0  0  0  0  0  0  0  0  # atno 8010 bound_to 7997
  140.5664  143.2315  151.6626 H   0  0  0  0  0  0  0  0  0  0  0  0  # atno 10167 bound_to 10162
  156.0900  130.6084  150.8914 H   0  0  0  0  0  0  0  0  0  0  0  0  # atno 10718 bound_to 10713
  153.8641  135.6837  153.4780 H   0  0  0  0  0  0  0  0  0  0  0  0  # atno 10763 bound_to 10752
  153.1325  135.4692  154.9368 H   0  0  0  0  0  0  0  0  0  0  0  0  # atno 10764 bound_to 10752
  154.7745  135.3249  154.8071 H   0  0  0  0  0  0  0  0  0  0  0  0  # atno 10765 bound_to 10752
  140.1417  134.4575  155.8445 H   0  0  0  0  0  0  0  0  0  0  0  0  # atno 11005 bound_to 11000
  146.0644  139.3636  143.0561 LP  0  0  0  0  0  0  0  0  0  0  0  0  # atno 17320 bound_to 7965
  145.8050  140.9753  143.0979 LP  0  0  0  0  0  0  0  0  0  0  0  0  # atno 17321 bound_to 7965
  139.5095  144.3574  152.0595 LP  0  0  0  0  0  0  0  0  0  0  0  0  # atno 17342 bound_to 10162
  140.2706  144.3968  150.6152 LP  0  0  0  0  0  0  0  0  0  0  0  0  # atno 17343 bound_to 10162
  157.6046  131.0939  150.8901 LP  0  0  0  0  0  0  0  0  0  0  0  0  # atno 17370 bound_to 10713
  156.9052  130.5261  149.5281 LP  0  0  0  0  0  0  0  0  0  0  0  0  # atno 17371 bound_to 10713
  141.2187  133.6836  156.7258 LP  0  0  0  0  0  0  0  0  0  0  0  0  # atno 17394 bound_to 11000
  140.2714  134.8389  157.3851 LP  0  0  0  0  0  0  0  0  0  0  0  0  # atno 17395 bound_to 11000

$$$$
