AV-unprocessed.smi:91|AV-procd|sdf|839|dock7
  -GOLD-   2262017273D 1   1.00000     0.00000
 Structure written by MMmdl.
 60 63  0  0  0  0  0  0  0  0  1 V2000
  145.6932  134.4439  159.1828 C   0  0  0  0  0  0  0  0  0  0  0  0
  146.8482  134.5079  158.3653 O   0  0  0  0  0  0  0  0  0  0  0  0
  147.9491  133.8050  158.9198 C   0  0  0  0  0  0  0  0  0  0  0  0
  149.1280  133.8203  157.9373 C   0  0  2  0  0  0  0  0  0  0  0  0
  149.7571  135.2168  157.7766 C   0  0  0  0  0  0  0  0  0  0  0  0
  150.7794  135.1821  156.7419 N   0  0  0  0  0  0  0  0  0  0  0  0
  151.4961  136.3225  156.6585 C   0  0  0  0  0  0  0  0  0  0  0  0
  151.8469  136.8215  155.4439 N   0  0  0  0  0  0  0  0  0  0  0  0
  152.5555  137.9524  155.3679 C   0  0  0  0  0  0  0  0  0  0  0  0
  153.0068  138.7235  156.3605 N   0  0  0  0  0  0  0  0  0  0  0  0
  152.6533  138.2212  157.5788 C   0  0  0  0  0  0  0  0  0  0  0  0
  151.9016  137.0371  157.8150 C   0  0  0  0  0  0  0  0  0  0  0  0
  151.7353  136.8394  159.1797 N   0  0  0  0  0  0  0  0  0  0  0  0
  152.3602  137.8495  159.7224 C   0  0  0  0  0  0  0  0  0  0  0  0
  152.9453  138.7243  158.8345 N   0  0  0  0  0  0  0  0  0  0  0  0
  153.7022  139.9192  159.1662 C   0  0  0  0  0  0  0  0  0  0  0  0
  153.6900  140.2523  160.6790 C   0  0  1  0  0  0  0  0  0  0  0  0
  155.1106  140.4341  161.2680 C   0  0  0  0  0  0  0  0  0  0  0  0
  156.0062  140.9585  160.3093 O   0  0  0  0  0  0  0  0  0  0  0  0
  152.7696  141.4606  160.9877 C   0  0  1  0  0  0  0  0  0  0  0  0
  153.3425  142.4655  161.9717 C   0  0  0  0  0  0  0  0  0  0  0  0
  152.4712  143.6901  161.7181 C   0  0  0  0  0  0  0  0  0  0  0  0
  152.1631  143.6555  160.3296 O   0  0  0  0  0  0  0  0  0  0  0  0
  152.4837  142.3758  159.7917 C   0  0  0  0  0  0  0  0  0  0  0  0
  150.2616  134.7006  155.4674 C   0  0  0  0  0  0  0  0  0  0  0  0
  149.6365  133.2968  155.6244 C   0  0  0  0  0  0  0  0  0  0  0  0
  148.8519  132.9324  154.3547 C   0  0  0  0  0  0  0  0  0  0  0  0
  150.7058  132.2156  155.8885 C   0  0  0  0  0  0  0  0  0  0  0  0
  148.6661  133.3290  156.6774 O   0  0  0  0  0  0  0  0  0  0  0  0
  144.8812  134.9993  158.7135 H   0  0  0  0  0  0  0  0  0  0  0  0
  145.8791  134.8833  160.1637 H   0  0  0  0  0  0  0  0  0  0  0  0
  145.3618  133.4135  159.3175 H   0  0  0  0  0  0  0  0  0  0  0  0
  148.2466  134.2739  159.8590 H   0  0  0  0  0  0  0  0  0  0  0  0
  147.6664  132.7754  159.1449 H   0  0  0  0  0  0  0  0  0  0  0  0
  149.8818  133.1354  158.3259 H   0  0  0  0  0  0  0  0  0  0  0  0
  148.9951  135.9480  157.5032 H   0  0  0  0  0  0  0  0  0  0  0  0
  150.1927  135.5430  158.7222 H   0  0  0  0  0  0  0  0  0  0  0  0
  152.7966  138.2861  154.3695 H   0  0  0  0  0  0  0  0  0  0  0  0
  152.4169  137.9832  160.7930 H   0  0  0  0  0  0  0  0  0  0  0  0
  154.7268  139.7902  158.8159 H   0  0  0  0  0  0  0  0  0  0  0  0
  153.2838  140.7441  158.5895 H   0  0  0  0  0  0  0  0  0  0  0  0
  153.2610  139.3864  161.1854 H   0  0  0  0  0  0  0  0  0  0  0  0
  155.0912  141.1036  162.1276 H   0  0  0  0  0  0  0  0  0  0  0  0
  155.5076  139.4886  161.6376 H   0  0  0  0  0  0  0  0  0  0  0  0
  155.5067  141.4231  159.6545 H   0  0  0  0  0  0  0  0  0  0  0  0
  151.8177  141.1022  161.3833 H   0  0  0  0  0  0  0  0  0  0  0  0
  153.2972  142.1304  163.0082 H   0  0  0  0  0  0  0  0  0  0  0  0
  154.3820  142.6905  161.7288 H   0  0  0  0  0  0  0  0  0  0  0  0
  151.5406  143.6168  162.2827 H   0  0  0  0  0  0  0  0  0  0  0  0
  152.9650  144.6214  161.9961 H   0  0  0  0  0  0  0  0  0  0  0  0
  153.3699  142.4843  159.1650 H   0  0  0  0  0  0  0  0  0  0  0  0
  151.6730  142.0011  159.1661 H   0  0  0  0  0  0  0  0  0  0  0  0
  149.5069  135.4000  155.1038 H   0  0  0  0  0  0  0  0  0  0  0  0
  151.0605  134.6791  154.7243 H   0  0  0  0  0  0  0  0  0  0  0  0
  149.5032  132.9021  153.4806 H   0  0  0  0  0  0  0  0  0  0  0  0
  148.0637  133.6592  154.1550 H   0  0  0  0  0  0  0  0  0  0  0  0
  148.3789  131.9545  154.4500 H   0  0  0  0  0  0  0  0  0  0  0  0
  151.3761  132.1149  155.0344 H   0  0  0  0  0  0  0  0  0  0  0  0
  150.2459  131.2426  156.0621 H   0  0  0  0  0  0  0  0  0  0  0  0
  151.3286  132.4457  156.7525 H   0  0  0  0  0  0  0  0  0  0  0  0
  1  2  1  0  0  0  0
  1 30  1  0  0  0  0
  1 31  1  0  0  0  0
  1 32  1  0  0  0  0
  2  3  1  0  0  0  0
  3  4  1  0  0  0  0
  3 33  1  0  0  0  0
  3 34  1  0  0  0  0
  4 29  1  0  0  0  0
  4  5  1  0  0  0  0
  4 35  1  0  0  0  0
  5  6  1  0  0  0  0
  5 36  1  0  0  0  0
  5 37  1  0  0  0  0
  6  7  1  0  0  0  0
  6 25  1  0  0  0  0
  7 12  1  0  0  0  0
  7  8  2  0  0  0  0
  8  9  1  0  0  0  0
  9 10  2  0  0  0  0
  9 38  1  0  0  0  0
 10 11  1  0  0  0  0
 11 15  1  0  0  0  0
 11 12  2  0  0  0  0
 12 13  1  0  0  0  0
 13 14  2  0  0  0  0
 14 15  1  0  0  0  0
 14 39  1  0  0  0  0
 15 16  1  0  0  0  0
 16 17  1  0  0  0  0
 16 40  1  0  0  0  0
 16 41  1  0  0  0  0
 17 18  1  0  0  0  0
 17 20  1  0  0  0  0
 17 42  1  0  0  0  0
 18 19  1  0  0  0  0
 18 43  1  0  0  0  0
 18 44  1  0  0  0  0
 19 45  1  0  0  0  0
 20 24  1  0  0  0  0
 20 21  1  0  0  0  0
 20 46  1  0  0  0  0
 21 22  1  0  0  0  0
 21 47  1  0  0  0  0
 21 48  1  0  0  0  0
 22 23  1  0  0  0  0
 22 49  1  0  0  0  0
 22 50  1  0  0  0  0
 23 24  1  0  0  0  0
 24 51  1  0  0  0  0
 24 52  1  0  0  0  0
 25 26  1  0  0  0  0
 25 53  1  0  0  0  0
 25 54  1  0  0  0  0
 26 27  1  0  0  0  0
 26 28  1  0  0  0  0
 26 29  1  0  0  0  0
 27 55  1  0  0  0  0
 27 56  1  0  0  0  0
 27 57  1  0  0  0  0
 28 58  1  0  0  0  0
 28 59  1  0  0  0  0
 28 60  1  0  0  0  0
M  END
> <s_m_source_file>
AV-unprocessed.smi

> <i_m_source_file_index>
91

> <i_lp_mmshare_version>
43012

> <i_f3d_flags>
0

> <s_epik_input>
W0NIM11PW0NIMl1bQ0BASF0oTzEpW0NIMl1OKFtDSDJdQzEoW0NIM10pW0NIM10pYyhuW2NIXW4yKWMoYzIzKW5bY0hdbjNbQ0gyXVtDQEhdKFtDSDJdW09IXSlbQ0BASF00W0NIMl1bQ0gyXU9bQ0gyXTQ=

> <s_epik_cmdline>
J2VwaWtfcHl0aG9uJywgJy1waCcsICc3LjAnLCAnLXRuJywgJzgnLCAnLW1hJywgJzIwMCcsICctbWV0YWxfYmluZGluZycsICctaW1hZScsICc8aW5maWxlLm1hZT4nLCAnLW9tYWUnLCAnPG91dGZpbGUubWFlPic=

> <r_lp_tautomer_probability>
1

> <r_epik_Ionization_Penalty>
8.63591e-05

> <r_epik_Ionization_Penalty_Charging>
0

> <r_epik_Ionization_Penalty_Neutral>
8.63591e-05

> <r_epik_State_Penalty>
-0

> <r_epik_Charging_Adjusted_Penalty>
0

> <i_epik_Tot_Q>
0

> <i_epik_Tot_abs_Q>
0

> <r_epik_Metal_State_Penalty>
-0

> <b_epik_Metal_Only>
0

> <s_lp_Force_Field>
OPLS_2005

> <r_lp_Energy>
46.8468

> <b_lp_Chiralities_Consistent>
1

> <s_lp_Variant>
AV-unprocessed.smi:91-7

> <Gold.Version>
5.8.1

> <Gold.Id.Protein>
6NUR|6NUR_protein|mol2

> <Gold.PLP.Fitness>
46.5968

> <Gold.PLP.PLP>
-43.2399

> <Gold.PLP.part.hbond>
-4.0000

> <Gold.PLP.part.metal>
0.0000

> <Gold.PLP.part.buried>
-6.6968

> <Gold.PLP.part.nonpolar>
-34.1909

> <Gold.PLP.part.repulsive>
0.1453

> <Gold.PLP.ligand.clash>
0.0000

> <Gold.PLP.ligand.torsion>
2.8095

> <Gold.PLP.Chemscore.Hbond>
2.8331

> <Gold.PLP.Chemscore.CHOScore>
0.0000

> <Gold.PLP.Chemscore.Metal>
0.0000

> <Gold.Chemscore.Hbonds>
donor molecule, donor type, donor heavy atom, donor atom, acceptor molecule, acceptor atom, score
      P1  H  6896  6909       L1    13  0.99
      P1  H  7997  8008       L1    10  1.00
      P1  H 10752 10764       L1     8  0.90

> <Gold.PLP.Chemscore.Internal.Correction>
0.4767

> <Gold.Rescore>
     Score         DG    S(hbond)    S(metal)    S(lipo)     H(rot)  DE(clash)    DE(int)     intcor
     11.71     -17.49       2.37        0.00     101.37       3.03       1.47       4.31       ----

> <Gold.Chemscore.Fitness>
11.7143

> <Gold.Chemscore.DG>
-17.4875

> <Gold.Chemscore.ZeroCoef>
-5.4800

> <Gold.Chemscore.Hbond>
2.3653

> <Gold.Chemscore.Metal>
0.0000

> <Gold.Chemscore.Lipo>
101.3707

> <Gold.Chemscore.Internal_Hbond>
0.0000

> <Gold.Chemscore.DEClash>
1.4658

> <Gold.Chemscore.DEInternal>
4.3075

> <Gold.Chemscore.Rot>
3.0284

> <Gold.Chemscore.Internal.Correction>
   9.000000E+99

> <Gold.Chemscore.Hbonds>
donor molecule, donor type, donor heavy atom, donor atom, acceptor molecule, acceptor atom, score
      P1  H  6896  6909       L1    13  0.93
      P1  H  7997  8008       L1    10  0.67
      P1  H 10752 10764       L1     8  0.23

> <Gold.Chemscore.Hbond.Weighted>
-7.9000

> <Gold.Chemscore.Metal.Weighted>
-0.0000

> <Gold.Chemscore.Lipo.Weighted>
-11.8604

> <Gold.Chemscore.Internal_Hbond.Weighted>
0.0000

> <Gold.Chemscore.DEClash.Weighted>
1.4658

> <Gold.Chemscore.DEInternal.Weighted>
4.3075

> <Gold.Chemscore.Rot.Weighted>
7.7528

> <Gold.Chemscore.Internal.Correction.Weighted>
   9.000000E+99

> <Gold.Protein.RotatedTorsions>
[ 6907 6896 6895 6894 ] final  107.73 input  -60.11 | X-H torsion
[ 7974 7965 7964 7962 ] final  -70.06 input  175.53 | X-H torsion
[ 8008 7997 7996 7995 ] final  -60.39 input   59.86 | X-H torsion
[ 10167 10162 10161 10158 ] final  163.50 input  -65.29 | X-H torsion
[ 10718 10713 10712 10709 ] final -144.12 input   66.30 | X-H torsion
[ 10763 10752 10751 10750 ] final  -69.67 input  -60.55 | X-H torsion
[ 11005 11000 10999 10996 ] final  149.49 input  -57.11 | X-H torsion

> <Gold.Protein.ActiveResidues>
 VAL166  LYS551  ARG553  GLY616  TRP617  ASP618  TYR619  PRO620  LYS621  CYS622 
 ASP623  PHE694  ASN695  SER759  ASP760  ASP761  ALA762  ILE779  LEU786  VAL792 
 PHE793  MET794  SER795  GLU796  ALA797  LYS798  CYS799  TRP800  GLU811  SER814 

> <Gold.Protein.RotatedAtoms>
  152.5142  133.9192  159.7525 H   0  0  0  0  0  0  0  0  0  0  0  0  # atno 6907 bound_to 6896
  150.9568  133.6480  159.2768 H   0  0  0  0  0  0  0  0  0  0  0  0  # atno 6908 bound_to 6896
  151.3740  135.0933  159.9527 H   0  0  0  0  0  0  0  0  0  0  0  0  # atno 6909 bound_to 6896
  145.6958  140.9136  143.0757 H   0  0  0  0  0  0  0  0  0  0  0  0  # atno 7974 bound_to 7965
  154.4396  140.1041  156.6265 H   0  0  0  0  0  0  0  0  0  0  0  0  # atno 8008 bound_to 7997
  155.5651  140.3488  155.4482 H   0  0  0  0  0  0  0  0  0  0  0  0  # atno 8009 bound_to 7997
  156.0431  140.1286  157.0123 H   0  0  0  0  0  0  0  0  0  0  0  0  # atno 8010 bound_to 7997
  139.4875  144.4331  151.9046 H   0  0  0  0  0  0  0  0  0  0  0  0  # atno 10167 bound_to 10162
  156.3662  130.7764  151.1939 H   0  0  0  0  0  0  0  0  0  0  0  0  # atno 10718 bound_to 10713
  154.4067  135.6018  153.5929 H   0  0  0  0  0  0  0  0  0  0  0  0  # atno 10763 bound_to 10752
  152.9789  135.5919  154.4119 H   0  0  0  0  0  0  0  0  0  0  0  0  # atno 10764 bound_to 10752
  154.3925  135.2842  155.2124 H   0  0  0  0  0  0  0  0  0  0  0  0  # atno 10765 bound_to 10752
  140.1049  134.8960  157.1851 H   0  0  0  0  0  0  0  0  0  0  0  0  # atno 11005 bound_to 11000
  144.6983  139.8882  143.7451 LP  0  0  0  0  0  0  0  0  0  0  0  0  # atno 17320 bound_to 7965
  146.0842  139.3830  143.0446 LP  0  0  0  0  0  0  0  0  0  0  0  0  # atno 17321 bound_to 7965
  140.3779  144.2773  150.5912 LP  0  0  0  0  0  0  0  0  0  0  0  0  # atno 17342 bound_to 10162
  140.5260  143.2254  151.8314 LP  0  0  0  0  0  0  0  0  0  0  0  0  # atno 17343 bound_to 10162
  157.7479  131.0385  150.4508 LP  0  0  0  0  0  0  0  0  0  0  0  0  # atno 17370 bound_to 10713
  156.4727  130.4056  149.6508 LP  0  0  0  0  0  0  0  0  0  0  0  0  # atno 17371 bound_to 10713
  140.3169  134.2960  155.7254 LP  0  0  0  0  0  0  0  0  0  0  0  0  # atno 17394 bound_to 11000
  141.2115  133.7685  156.9856 LP  0  0  0  0  0  0  0  0  0  0  0  0  # atno 17395 bound_to 11000

$$$$
