AV-unprocessed.smi:798|AV-procd|sdf|3783|dock8
  -GOLD-   22720 1213D 1   1.00000     0.00000
 Structure written by MMmdl.
 33 35  0  0  0  0  0  0  0  0  2 V2000
  153.2353  138.4390  155.6900 O   0  0  0  0  0  0  0  0  0  0  0  0
  152.0671  138.1358  155.4368 C   0  0  0  0  0  0  0  0  0  0  0  0
  151.6339  136.9503  154.9511 N   0  5  0  0  0  0  0  0  0  0  0  0
  150.8934  136.1388  155.7239 C   0  0  0  0  0  0  0  0  0  0  0  0
  150.9744  136.1527  157.0641 N   0  0  0  0  0  0  0  0  0  0  0  0
  150.1285  135.2347  157.6720 N   0  0  0  0  0  0  0  0  0  0  0  0
  149.4352  134.5414  156.7692 C   0  0  0  0  0  0  0  0  0  0  0  0
  149.7534  134.9456  155.0955 S   0  0  0  0  0  0  0  0  0  0  0  0
  151.0856  139.0282  155.6317 N   0  0  0  0  0  0  0  0  0  0  0  0
  151.2436  140.3911  156.1436 C   0  0  2  0  0  0  0  0  0  0  0  0
  151.1274  140.3975  157.6833 C   0  0  1  0  0  0  0  0  0  0  0  0
  151.6761  141.7303  158.2243 C   0  0  0  0  0  0  0  0  0  0  0  0
  150.5882  142.7354  157.7998 C   0  0  0  0  0  0  0  0  0  0  0  0
  149.5591  141.8436  157.0766 C   0  0  2  0  0  0  0  0  0  0  0  0
  149.6293  140.5674  157.9054 C   0  0  0  0  0  0  0  0  0  0  0  0
  150.1342  141.3976  155.7094 C   0  0  2  0  0  0  0  0  0  0  0  0
  149.0584  140.8525  154.7420 C   0  0  0  0  0  0  0  0  0  0  0  0
  149.4207  141.1100  153.4013 O   0  0  0  0  0  0  0  0  0  0  0  0
  148.7346  133.7854  157.0909 H   0  0  0  0  0  0  0  0  0  0  0  0
  150.1461  138.7344  155.4084 H   0  0  0  0  0  0  0  0  0  0  0  0
  152.2284  140.7631  155.8540 H   0  0  0  0  0  0  0  0  0  0  0  0
  151.5692  139.5246  158.1657 H   0  0  0  0  0  0  0  0  0  0  0  0
  151.7665  141.7002  159.3108 H   0  0  0  0  0  0  0  0  0  0  0  0
  152.6564  141.9760  157.8143 H   0  0  0  0  0  0  0  0  0  0  0  0
  150.1428  143.2077  158.6763 H   0  0  0  0  0  0  0  0  0  0  0  0
  150.9780  143.5262  157.1579 H   0  0  0  0  0  0  0  0  0  0  0  0
  148.5691  142.2968  157.0188 H   0  0  0  0  0  0  0  0  0  0  0  0
  149.0340  139.7481  157.5001 H   0  0  0  0  0  0  0  0  0  0  0  0
  149.3615  140.7161  158.9530 H   0  0  0  0  0  0  0  0  0  0  0  0
  150.6070  142.2495  155.2177 H   0  0  0  0  0  0  0  0  0  0  0  0
  148.9573  139.7729  154.8517 H   0  0  0  0  0  0  0  0  0  0  0  0
  148.0806  141.2925  154.9388 H   0  0  0  0  0  0  0  0  0  0  0  0
  149.2173  140.3444  152.8861 H   0  0  0  0  0  0  0  0  0  0  0  0
  1  2  2  0  0  0  0
  2  3  1  0  0  0  0
  2  9  1  0  0  0  0
  3  4  1  0  0  0  0
  4  8  1  0  0  0  0
  4  5  2  0  0  0  0
  5  6  1  0  0  0  0
  6  7  2  0  0  0  0
  7  8  1  0  0  0  0
  7 19  1  0  0  0  0
  9 10  1  0  0  0  0
  9 20  1  0  0  0  0
 10 16  1  0  0  0  0
 10 11  1  0  0  0  0
 10 21  1  0  0  0  0
 11 15  1  0  0  0  0
 11 12  1  0  0  0  0
 11 22  1  0  0  0  0
 12 13  1  0  0  0  0
 12 23  1  0  0  0  0
 12 24  1  0  0  0  0
 13 14  1  0  0  0  0
 13 25  1  0  0  0  0
 13 26  1  0  0  0  0
 14 15  1  0  0  0  0
 14 16  1  0  0  0  0
 14 27  1  0  0  0  0
 15 28  1  0  0  0  0
 15 29  1  0  0  0  0
 16 17  1  0  0  0  0
 16 30  1  0  0  0  0
 17 18  1  0  0  0  0
 17 31  1  0  0  0  0
 17 32  1  0  0  0  0
 18 33  1  0  0  0  0
M  CHG  1   3  -1
M  END
> <s_m_source_file>
AV-unprocessed.smi

> <i_m_source_file_index>
798

> <i_lp_mmshare_version>
43012

> <i_f3d_flags>
0

> <s_epik_input>
W0NIMl0xW0NIMl1bQ0BASF0oW0NIMl0yKVtDQEBIXShbQ0gyXVtPSF0pW0NAQEhdKFtDQEhdMTIpW05IXUMoPU8pW05IXWMzbm5bY0hdczM=

> <s_epik_cmdline>
J2VwaWtfcHl0aG9uJywgJy1waCcsICc3LjAnLCAnLXRuJywgJzgnLCAnLW1hJywgJzIwMCcsICctbWV0YWxfYmluZGluZycsICctaW1hZScsICc8aW5maWxlLm1hZT4nLCAnLW9tYWUnLCAnPG91dGZpbGUubWFlPic=

> <r_lp_tautomer_probability>
1

> <r_epik_Ionization_Penalty>
4.53732

> <r_epik_Ionization_Penalty_Charging>
4.48632

> <r_epik_Ionization_Penalty_Neutral>
0.0510007

> <r_epik_State_Penalty>
4.48602

> <r_epik_Charging_Adjusted_Penalty>
8.97234

> <i_epik_Tot_Q>
-1

> <i_epik_Tot_abs_Q>
1

> <r_epik_Metal_State_Penalty>
0.812492

> <b_epik_Metal_Only>
1

> <s_lp_Force_Field>
OPLS_2005

> <r_lp_Energy>
47.4456

> <b_lp_Chiralities_Consistent>
1

> <s_lp_Variant>
AV-unprocessed.smi:798-15

> <Gold.Version>
5.8.1

> <Gold.Id.Protein>
6NUR|6NUR_protein|mol2

> <Gold.PLP.Fitness>
42.2189

> <Gold.PLP.PLP>
-29.7811

> <Gold.PLP.part.hbond>
-5.8055

> <Gold.PLP.part.metal>
0.0000

> <Gold.PLP.part.buried>
-5.8832

> <Gold.PLP.part.nonpolar>
-19.9388

> <Gold.PLP.part.repulsive>
0.2080

> <Gold.PLP.ligand.clash>
0.0000

> <Gold.PLP.ligand.torsion>
1.5714

> <Gold.PLP.Chemscore.Hbond>
5.1866

> <Gold.PLP.Chemscore.CHOScore>
0.0000

> <Gold.PLP.Chemscore.Metal>
0.0000

> <Gold.Chemscore.Hbonds>
donor molecule, donor type, donor heavy atom, donor atom, acceptor molecule, acceptor atom, score
      L1  H    18    33       P1  7957  0.54
      P1  H  6896  6909       L1     6  0.75
      P1  H  7989  7998       L1    18  0.11
      P1  H  7997  8009       L1     1  0.80
      P1  H  8011  8017       L1    18  1.00
      P1  H 10752 10764       L1     3  1.95

> <Gold.PLP.Chemscore.Internal.Correction>
0.0210

> <Gold.Rescore>
     Score         DG    S(hbond)    S(metal)    S(lipo)     H(rot)  DE(clash)    DE(int)     intcor
     16.95     -18.60       3.39        0.00      57.48       1.92       0.06       1.60       ----

> <Gold.Chemscore.Fitness>
16.9482

> <Gold.Chemscore.DG>
-18.6026

> <Gold.Chemscore.ZeroCoef>
-5.4800

> <Gold.Chemscore.Hbond>
3.3874

> <Gold.Chemscore.Metal>
0.0000

> <Gold.Chemscore.Lipo>
57.4846

> <Gold.Chemscore.Internal_Hbond>
0.0000

> <Gold.Chemscore.DEClash>
0.0558

> <Gold.Chemscore.DEInternal>
1.5987

> <Gold.Chemscore.Rot>
1.9207

> <Gold.Chemscore.Internal.Correction>
   9.000000E+99

> <Gold.Chemscore.Hbonds>
donor molecule, donor type, donor heavy atom, donor atom, acceptor molecule, acceptor atom, score
      L1  H    18    33       P1  7957  0.56
      P1  H  6896  6909       L1     6  0.66
      P1  H  7989  7998       L1    18  0.01
      P1  H  7997  8009       L1     1  0.75
      P1  H  8011  8017       L1    18  0.69
      P1  H 10752 10764       L1     3  0.23

> <Gold.Chemscore.Hbond.Weighted>
-11.3138

> <Gold.Chemscore.Metal.Weighted>
-0.0000

> <Gold.Chemscore.Lipo.Weighted>
-6.7257

> <Gold.Chemscore.Internal_Hbond.Weighted>
0.0000

> <Gold.Chemscore.DEClash.Weighted>
0.0558

> <Gold.Chemscore.DEInternal.Weighted>
1.5987

> <Gold.Chemscore.Rot.Weighted>
4.9169

> <Gold.Chemscore.Internal.Correction.Weighted>
   9.000000E+99

> <Gold.Protein.RotatedTorsions>
[ 6907 6896 6895 6894 ] final   37.44 input  -60.11 | X-H torsion
[ 7974 7965 7964 7962 ] final -178.30 input  175.53 | X-H torsion
[ 8008 7997 7996 7995 ] final -154.24 input   59.86 | X-H torsion
[ 10167 10162 10161 10158 ] final -102.35 input  -65.29 | X-H torsion
[ 10718 10713 10712 10709 ] final  -72.08 input   66.30 | X-H torsion
[ 10763 10752 10751 10750 ] final  -80.56 input  -60.55 | X-H torsion
[ 11005 11000 10999 10996 ] final   16.32 input  -57.11 | X-H torsion

> <Gold.Protein.ActiveResidues>
 VAL166  LYS551  ARG553  GLY616  TRP617  ASP618  TYR619  PRO620  LYS621  CYS622 
 ASP623  PHE694  ASN695  SER759  ASP760  ASP761  ALA762  ILE779  LEU786  VAL792 
 PHE793  MET794  SER795  GLU796  ALA797  LYS798  CYS799  TRP800  GLU811  SER814 

> <Gold.Protein.RotatedAtoms>
  152.1432  134.9046  160.0552 H   0  0  0  0  0  0  0  0  0  0  0  0  # atno 6907 bound_to 6896
  152.0106  133.3855  159.4226 H   0  0  0  0  0  0  0  0  0  0  0  0  # atno 6908 bound_to 6896
  150.6867  134.3657  159.5013 H   0  0  0  0  0  0  0  0  0  0  0  0  # atno 6909 bound_to 6896
  144.7130  140.0890  143.6422 H   0  0  0  0  0  0  0  0  0  0  0  0  # atno 7974 bound_to 7965
  155.6832  140.0747  157.2476 H   0  0  0  0  0  0  0  0  0  0  0  0  # atno 8008 bound_to 7997
  154.4101  140.1678  156.2058 H   0  0  0  0  0  0  0  0  0  0  0  0  # atno 8009 bound_to 7997
  155.9516  140.3377  155.6416 H   0  0  0  0  0  0  0  0  0  0  0  0  # atno 8010 bound_to 7997
  140.2316  143.3602  152.0881 H   0  0  0  0  0  0  0  0  0  0  0  0  # atno 10167 bound_to 10162
  156.0335  130.4365  150.2539 H   0  0  0  0  0  0  0  0  0  0  0  0  # atno 10718 bound_to 10713
  154.5527  135.5657  153.6936 H   0  0  0  0  0  0  0  0  0  0  0  0  # atno 10763 bound_to 10752
  152.9994  135.6254  154.2352 H   0  0  0  0  0  0  0  0  0  0  0  0  # atno 10764 bound_to 10752
  154.2288  135.2866  155.2877 H   0  0  0  0  0  0  0  0  0  0  0  0  # atno 10765 bound_to 10752
  140.4485  134.1249  155.7699 H   0  0  0  0  0  0  0  0  0  0  0  0  # atno 11005 bound_to 11000
  145.9637  139.2819  143.1140 LP  0  0  0  0  0  0  0  0  0  0  0  0  # atno 17320 bound_to 7965
  145.9193  140.9126  143.0413 LP  0  0  0  0  0  0  0  0  0  0  0  0  # atno 17321 bound_to 7965
  139.5108  144.6890  151.5811 LP  0  0  0  0  0  0  0  0  0  0  0  0  # atno 17342 bound_to 10162
  140.6180  143.9311  150.6504 LP  0  0  0  0  0  0  0  0  0  0  0  0  # atno 17343 bound_to 10162
  157.0640  131.0098  151.3213 LP  0  0  0  0  0  0  0  0  0  0  0  0  # atno 17370 bound_to 10713
  157.5049  130.7902  149.7643 LP  0  0  0  0  0  0  0  0  0  0  0  0  # atno 17371 bound_to 10713
  141.1675  133.8675  157.1672 LP  0  0  0  0  0  0  0  0  0  0  0  0  # atno 17394 bound_to 11000
  140.0023  135.0023  157.0216 LP  0  0  0  0  0  0  0  0  0  0  0  0  # atno 17395 bound_to 11000

$$$$
