AV-unprocessed.smi:573|AV-procd|sdf|2972|dock1
  -GOLD-   2262023473D 1   1.00000     0.00000
 Structure written by MMmdl.
 44 46  0  0  0  0  0  0  0  0  1 V2000
  155.5029  140.4881  164.7866 C   0  0  0  0  0  0  0  0  0  0  0  0
  155.4501  141.9838  165.1329 C   0  0  1  0  0  0  0  0  0  0  0  0
  156.6655  142.5717  164.7203 O   0  0  0  0  0  0  0  0  0  0  0  0
  154.2978  142.7349  164.4436 C   0  0  0  0  0  0  0  0  0  0  0  0
  154.0977  142.3028  163.0723 N   0  0  0  0  0  0  0  0  0  0  0  0
  153.3603  142.8359  162.0216 C   0  0  0  0  0  0  0  0  0  0  0  0
  152.6357  143.9500  162.1092 N   0  0  0  0  0  0  0  0  0  0  0  0
  152.1022  144.0527  160.8383 C   0  0  0  0  0  0  0  0  0  0  0  0
  151.2373  145.0226  160.2823 C   0  0  0  0  0  0  0  0  0  0  0  0
  150.8160  144.9181  158.9405 C   0  0  0  0  0  0  0  0  0  0  0  0
  151.2506  143.8443  158.1369 C   0  0  0  0  0  0  0  0  0  0  0  0
  152.1120  142.8662  158.6702 C   0  0  0  0  0  0  0  0  0  0  0  0
  152.5324  142.9758  160.0093 C   0  0  0  0  0  0  0  0  0  0  0  0
  153.3568  142.2051  160.8240 N   0  0  0  0  0  0  0  0  0  0  0  0
  154.0487  140.9794  160.4511 C   0  0  0  0  0  0  0  0  0  0  0  0
  153.1036  139.9727  159.7748 C   0  0  2  0  0  0  0  0  0  0  0  0
  153.5007  138.5140  160.0690 C   0  0  0  0  0  0  0  0  0  0  0  0
  152.5734  137.5458  159.3254 C   0  0  0  0  0  0  0  0  0  0  0  0
  152.5415  137.9019  157.8351 C   0  0  0  0  0  0  0  0  0  0  0  0
  152.2029  139.3894  157.6466 C   0  0  0  0  0  0  0  0  0  0  0  0
  153.1319  140.1939  158.3657 O   0  0  0  0  0  0  0  0  0  0  0  0
  154.6122  139.9679  165.1389 H   0  0  0  0  0  0  0  0  0  0  0  0
  156.3638  140.0079  165.2527 H   0  0  0  0  0  0  0  0  0  0  0  0
  155.5756  140.3319  163.7098 H   0  0  0  0  0  0  0  0  0  0  0  0
  155.3745  142.1058  166.2143 H   0  0  0  0  0  0  0  0  0  0  0  0
  156.4762  143.4133  164.3347 H   0  0  0  0  0  0  0  0  0  0  0  0
  153.3656  142.5598  164.9815 H   0  0  0  0  0  0  0  0  0  0  0  0
  154.4744  143.8111  164.4641 H   0  0  0  0  0  0  0  0  0  0  0  0
  154.6159  141.4696  162.8345 H   0  0  0  0  0  0  0  0  0  0  0  0
  150.8967  145.8477  160.8900 H   0  0  0  0  0  0  0  0  0  0  0  0
  150.1549  145.6650  158.5263 H   0  0  0  0  0  0  0  0  0  0  0  0
  150.9216  143.7711  157.1107 H   0  0  0  0  0  0  0  0  0  0  0  0
  152.4435  142.0406  158.0581 H   0  0  0  0  0  0  0  0  0  0  0  0
  154.8711  141.2335  159.7818 H   0  0  0  0  0  0  0  0  0  0  0  0
  154.5034  140.5428  161.3411 H   0  0  0  0  0  0  0  0  0  0  0  0
  152.0893  140.1489  160.1382 H   0  0  0  0  0  0  0  0  0  0  0  0
  154.5319  138.3430  159.7573 H   0  0  0  0  0  0  0  0  0  0  0  0
  153.4612  138.3189  161.1412 H   0  0  0  0  0  0  0  0  0  0  0  0
  152.9054  136.5165  159.4645 H   0  0  0  0  0  0  0  0  0  0  0  0
  151.5666  137.6099  159.7402 H   0  0  0  0  0  0  0  0  0  0  0  0
  153.5135  137.6913  157.3873 H   0  0  0  0  0  0  0  0  0  0  0  0
  151.8142  137.2794  157.3133 H   0  0  0  0  0  0  0  0  0  0  0  0
  152.2541  139.6545  156.5905 H   0  0  0  0  0  0  0  0  0  0  0  0
  151.1863  139.6036  157.9796 H   0  0  0  0  0  0  0  0  0  0  0  0
  1  2  1  0  0  0  0
  1 22  1  0  0  0  0
  1 23  1  0  0  0  0
  1 24  1  0  0  0  0
  2  3  1  0  0  0  0
  2  4  1  0  0  0  0
  2 25  1  0  0  0  0
  3 26  1  0  0  0  0
  4  5  1  0  0  0  0
  4 27  1  0  0  0  0
  4 28  1  0  0  0  0
  5  6  1  0  0  0  0
  5 29  1  0  0  0  0
  6 14  1  0  0  0  0
  6  7  2  0  0  0  0
  7  8  1  0  0  0  0
  8 13  2  0  0  0  0
  8  9  1  0  0  0  0
  9 10  2  0  0  0  0
  9 30  1  0  0  0  0
 10 11  1  0  0  0  0
 10 31  1  0  0  0  0
 11 12  2  0  0  0  0
 11 32  1  0  0  0  0
 12 13  1  0  0  0  0
 12 33  1  0  0  0  0
 13 14  1  0  0  0  0
 14 15  1  0  0  0  0
 15 16  1  0  0  0  0
 15 34  1  0  0  0  0
 15 35  1  0  0  0  0
 16 21  1  0  0  0  0
 16 17  1  0  0  0  0
 16 36  1  0  0  0  0
 17 18  1  0  0  0  0
 17 37  1  0  0  0  0
 17 38  1  0  0  0  0
 18 19  1  0  0  0  0
 18 39  1  0  0  0  0
 18 40  1  0  0  0  0
 19 20  1  0  0  0  0
 19 41  1  0  0  0  0
 19 42  1  0  0  0  0
 20 21  1  0  0  0  0
 20 43  1  0  0  0  0
 20 44  1  0  0  0  0
M  END
> <s_m_source_file>
AV-unprocessed.smi

> <i_m_source_file_index>
573

> <i_lp_mmshare_version>
43012

> <i_f3d_flags>
0

> <s_epik_input>
W0NIM11bQ0BIXShbT0hdKVtDSDJdW05IXWMobjEpbihjKGMxMilbY0hdW2NIXVtjSF1bY0hdMilbQ0gyXVtDQEBIXTNbQ0gyXVtDSDJdW0NIMl1bQ0gyXU8z

> <s_epik_cmdline>
J2VwaWtfcHl0aG9uJywgJy1waCcsICc3LjAnLCAnLXRuJywgJzgnLCAnLW1hJywgJzIwMCcsICctbWV0YWxfYmluZGluZycsICctaW1hZScsICc8aW5maWxlLm1hZT4nLCAnLW9tYWUnLCAnPG91dGZpbGUubWFlPic=

> <r_epik_Ionization_Penalty>
1.30635

> <r_epik_Ionization_Penalty_Charging>
0

> <r_epik_Ionization_Penalty_Neutral>
1.30635

> <r_epik_State_Penalty>
1.38073

> <r_epik_Charging_Adjusted_Penalty>
1.38073

> <i_epik_Tot_Q>
0

> <i_epik_Tot_abs_Q>
0

> <r_epik_Metal_State_Penalty>
0.00547412

> <b_epik_Metal_Only>
0

> <s_lp_Force_Field>
OPLS_2005

> <r_lp_Energy>
6.58613

> <b_lp_Chiralities_Consistent>
1

> <s_lp_Variant>
AV-unprocessed.smi:573-6

> <Gold.Version>
5.8.1

> <Gold.Id.Protein>
6NUR|6NUR_protein|mol2

> <Gold.PLP.Fitness>
48.2218

> <Gold.PLP.PLP>
-47.1320

> <Gold.PLP.part.hbond>
-3.0000

> <Gold.PLP.part.metal>
0.0000

> <Gold.PLP.part.buried>
-4.6454

> <Gold.PLP.part.nonpolar>
-39.4985

> <Gold.PLP.part.repulsive>
0.2074

> <Gold.PLP.ligand.clash>
0.0000

> <Gold.PLP.ligand.torsion>
0.7551

> <Gold.PLP.Chemscore.Hbond>
0.8480

> <Gold.PLP.Chemscore.CHOScore>
0.0000

> <Gold.PLP.Chemscore.Metal>
0.0000

> <Gold.Chemscore.Hbonds>
donor molecule, donor type, donor heavy atom, donor atom, acceptor molecule, acceptor atom, score
      P1  H  7997  8008       L1    21  0.85

> <Gold.PLP.Chemscore.Internal.Correction>
0.0560

> <Gold.Rescore>
     Score         DG    S(hbond)    S(metal)    S(lipo)     H(rot)  DE(clash)    DE(int)     intcor
     13.20     -15.34       0.22        0.00     122.20       2.02       0.29       1.85       ----

> <Gold.Chemscore.Fitness>
13.1967

> <Gold.Chemscore.DG>
-15.3359

> <Gold.Chemscore.ZeroCoef>
-5.4800

> <Gold.Chemscore.Hbond>
0.2204

> <Gold.Chemscore.Metal>
0.0000

> <Gold.Chemscore.Lipo>
122.1972

> <Gold.Chemscore.Internal_Hbond>
0.0000

> <Gold.Chemscore.DEClash>
0.2918

> <Gold.Chemscore.DEInternal>
1.8474

> <Gold.Chemscore.Rot>
2.0224

> <Gold.Chemscore.Internal.Correction>
   9.000000E+99

> <Gold.Chemscore.Hbonds>
donor molecule, donor type, donor heavy atom, donor atom, acceptor molecule, acceptor atom, score
      P1  H  7997  8008       L1    21  0.23

> <Gold.Chemscore.Hbond.Weighted>
-0.7362

> <Gold.Chemscore.Metal.Weighted>
-0.0000

> <Gold.Chemscore.Lipo.Weighted>
-14.2971

> <Gold.Chemscore.Internal_Hbond.Weighted>
0.0000

> <Gold.Chemscore.DEClash.Weighted>
0.2918

> <Gold.Chemscore.DEInternal.Weighted>
1.8474

> <Gold.Chemscore.Rot.Weighted>
5.1773

> <Gold.Chemscore.Internal.Correction.Weighted>
   9.000000E+99

> <Gold.Protein.RotatedTorsions>
[ 6907 6896 6895 6894 ] final  115.59 input  -60.11 | X-H torsion
[ 7974 7965 7964 7962 ] final -102.49 input  175.53 | X-H torsion
[ 8008 7997 7996 7995 ] final -100.42 input   59.86 | X-H torsion
[ 10167 10162 10161 10158 ] final -122.42 input  -65.29 | X-H torsion
[ 10718 10713 10712 10709 ] final   21.67 input   66.30 | X-H torsion
[ 10763 10752 10751 10750 ] final   33.42 input  -60.55 | X-H torsion
[ 11005 11000 10999 10996 ] final -169.62 input  -57.11 | X-H torsion

> <Gold.Protein.ActiveResidues>
 VAL166  LYS551  ARG553  GLY616  TRP617  ASP618  TYR619  PRO620  LYS621  CYS622 
 ASP623  PHE694  ASN695  SER759  ASP760  ASP761  ALA762  ILE779  LEU786  VAL792 
 PHE793  MET794  SER795  GLU796  ALA797  LYS798  CYS799  TRP800  GLU811  SER814 

> <Gold.Protein.RotatedAtoms>
  152.4731  133.8076  159.6986 H   0  0  0  0  0  0  0  0  0  0  0  0  # atno 6907 bound_to 6896
  150.8732  133.7466  159.2961 H   0  0  0  0  0  0  0  0  0  0  0  0  # atno 6908 bound_to 6896
  151.4994  135.1064  159.9877 H   0  0  0  0  0  0  0  0  0  0  0  0  # atno 6909 bound_to 6896
  145.2681  140.9290  143.3002 H   0  0  0  0  0  0  0  0  0  0  0  0  # atno 7974 bound_to 7965
  154.8284  140.0441  157.1460 H   0  0  0  0  0  0  0  0  0  0  0  0  # atno 8008 bound_to 7997
  154.9180  140.3023  155.5211 H   0  0  0  0  0  0  0  0  0  0  0  0  # atno 8009 bound_to 7997
  156.2985  140.2346  156.4227 H   0  0  0  0  0  0  0  0  0  0  0  0  # atno 8010 bound_to 7997
  140.0145  143.5408  152.2248 H   0  0  0  0  0  0  0  0  0  0  0  0  # atno 10167 bound_to 10162
  157.1417  130.6635  149.5983 H   0  0  0  0  0  0  0  0  0  0  0  0  # atno 10718 bound_to 10713
  153.0213  135.6387  154.1508 H   0  0  0  0  0  0  0  0  0  0  0  0  # atno 10763 bound_to 10752
  154.1243  135.2844  155.3202 H   0  0  0  0  0  0  0  0  0  0  0  0  # atno 10764 bound_to 10752
  154.6241  135.5515  153.7669 H   0  0  0  0  0  0  0  0  0  0  0  0  # atno 10765 bound_to 10752
  140.5287  134.5638  157.5068 H   0  0  0  0  0  0  0  0  0  0  0  0  # atno 11005 bound_to 11000
  144.9359  139.4244  143.6472 LP  0  0  0  0  0  0  0  0  0  0  0  0  # atno 17320 bound_to 7965
  146.3255  139.8294  142.8911 LP  0  0  0  0  0  0  0  0  0  0  0  0  # atno 17321 bound_to 7965
  139.6182  144.7624  151.2799 LP  0  0  0  0  0  0  0  0  0  0  0  0  # atno 17342 bound_to 10162
  140.7368  143.6697  150.8092 LP  0  0  0  0  0  0  0  0  0  0  0  0  # atno 17343 bound_to 10162
  155.9787  130.4775  150.6673 LP  0  0  0  0  0  0  0  0  0  0  0  0  # atno 17370 bound_to 10713
  157.4301  131.0848  151.1047 LP  0  0  0  0  0  0  0  0  0  0  0  0  # atno 17371 bound_to 10713
  139.9566  134.7524  156.0328 LP  0  0  0  0  0  0  0  0  0  0  0  0  # atno 17394 bound_to 11000
  141.1293  133.6590  156.3422 LP  0  0  0  0  0  0  0  0  0  0  0  0  # atno 17395 bound_to 11000

$$$$
