AV-unprocessed.smi:185|AV-procd|sdf|1465|dock1
  -GOLD-   2262019273D 1   1.00000     0.00000
 Structure written by MMmdl.
 53 56  0  0  0  0  0  0  0  0  1 V2000
  149.9096  140.5386  155.6061 C   0  0  0  0  0  0  0  0  0  0  0  0
  150.2676  140.5222  157.0224 N   0  0  0  0  0  0  0  0  0  0  0  0
  151.2085  141.5467  157.4731 C   0  0  0  0  0  0  0  0  0  0  0  0
  151.3427  141.5973  159.0077 C   0  0  0  0  0  0  0  0  0  0  0  0
  151.5506  142.9634  159.4763 N   0  0  0  0  0  0  0  0  0  0  0  0
  151.5245  144.0822  158.5494 C   0  0  0  0  0  0  0  0  0  0  0  0
  151.9986  145.2914  159.3691 C   0  0  0  0  0  0  0  0  0  0  0  0
  151.9640  144.8439  160.8347 C   0  0  0  0  0  0  0  0  0  0  0  0
  151.7940  143.3373  160.7384 C   0  0  0  0  0  0  0  0  0  0  0  0
  151.8778  142.5922  161.7143 O   0  0  0  0  0  0  0  0  0  0  0  0
  150.2869  139.3199  157.6668 C   0  0  0  0  0  0  0  0  0  0  0  0
  151.4218  138.9353  158.3126 N   0  0  0  0  0  0  0  0  0  0  0  0
  151.4668  137.7866  158.9922 C   0  0  0  0  0  0  0  0  0  0  0  0
  150.5044  136.8802  159.1604 N   0  0  0  0  0  0  0  0  0  0  0  0
  149.3650  137.2448  158.5071 C   0  0  0  0  0  0  0  0  0  0  0  0
  149.1740  138.4270  157.7338 C   0  0  0  0  0  0  0  0  0  0  0  0
  147.8898  138.4252  157.1990 N   0  0  0  0  0  0  0  0  0  0  0  0
  147.3473  137.3299  157.6522 C   0  0  0  0  0  0  0  0  0  0  0  0
  148.1585  136.5684  158.4602 N   0  0  0  0  0  0  0  0  0  0  0  0
  147.8067  135.3164  159.1122 C   0  0  0  0  0  0  0  0  0  0  0  0
  147.1849  135.4971  160.5203 C   0  0  0  0  0  0  0  0  0  0  0  0
  146.0250  136.2994  160.3823 O   0  0  0  0  0  0  0  0  0  0  0  0
  146.7722  134.1560  161.1674 C   0  0  0  0  0  0  0  0  0  0  0  0
  146.3559  134.3258  162.6393 C   0  0  0  0  0  0  0  0  0  0  0  0
  147.3953  134.9620  163.3727 O   0  0  0  0  0  0  0  0  0  0  0  0
  147.6699  136.2776  162.9070 C   0  0  0  0  0  0  0  0  0  0  0  0
  148.1720  136.2278  161.4528 C   0  0  0  0  0  0  0  0  0  0  0  0
  148.9695  140.0123  155.4362 H   0  0  0  0  0  0  0  0  0  0  0  0
  150.6875  140.0683  155.0031 H   0  0  0  0  0  0  0  0  0  0  0  0
  149.7815  141.5620  155.2528 H   0  0  0  0  0  0  0  0  0  0  0  0
  152.1870  141.3372  157.0400 H   0  0  0  0  0  0  0  0  0  0  0  0
  150.9345  142.5199  157.0736 H   0  0  0  0  0  0  0  0  0  0  0  0
  150.4447  141.2047  159.4872 H   0  0  0  0  0  0  0  0  0  0  0  0
  152.1657  140.9603  159.3343 H   0  0  0  0  0  0  0  0  0  0  0  0
  152.1693  143.9025  157.6883 H   0  0  0  0  0  0  0  0  0  0  0  0
  150.5051  144.2272  158.1894 H   0  0  0  0  0  0  0  0  0  0  0  0
  153.0183  145.5580  159.0879 H   0  0  0  0  0  0  0  0  0  0  0  0
  151.3718  146.1668  159.1950 H   0  0  0  0  0  0  0  0  0  0  0  0
  152.8762  145.1096  161.3697 H   0  0  0  0  0  0  0  0  0  0  0  0
  151.1104  145.2714  161.3615 H   0  0  0  0  0  0  0  0  0  0  0  0
  152.4064  137.5662  159.4767 H   0  0  0  0  0  0  0  0  0  0  0  0
  146.3301  137.0525  157.4174 H   0  0  0  0  0  0  0  0  0  0  0  0
  147.1084  134.7876  158.4621 H   0  0  0  0  0  0  0  0  0  0  0  0
  148.7002  134.6926  159.1668 H   0  0  0  0  0  0  0  0  0  0  0  0
  145.6824  136.4839  161.2434 H   0  0  0  0  0  0  0  0  0  0  0  0
  145.9575  133.6886  160.6125 H   0  0  0  0  0  0  0  0  0  0  0  0
  147.6125  133.4620  161.1223 H   0  0  0  0  0  0  0  0  0  0  0  0
  145.4321  134.9004  162.7224 H   0  0  0  0  0  0  0  0  0  0  0  0
  146.1598  133.3503  163.0845 H   0  0  0  0  0  0  0  0  0  0  0  0
  146.7793  136.9017  162.9958 H   0  0  0  0  0  0  0  0  0  0  0  0
  148.4309  136.7233  163.5478 H   0  0  0  0  0  0  0  0  0  0  0  0
  149.1321  135.7099  161.4388 H   0  0  0  0  0  0  0  0  0  0  0  0
  148.3654  137.2381  161.0894 H   0  0  0  0  0  0  0  0  0  0  0  0
  1  2  1  0  0  0  0
  1 28  1  0  0  0  0
  1 29  1  0  0  0  0
  1 30  1  0  0  0  0
  2  3  1  0  0  0  0
  2 11  1  0  0  0  0
  3  4  1  0  0  0  0
  3 31  1  0  0  0  0
  3 32  1  0  0  0  0
  4  5  1  0  0  0  0
  4 33  1  0  0  0  0
  4 34  1  0  0  0  0
  5  9  1  0  0  0  0
  5  6  1  0  0  0  0
  6  7  1  0  0  0  0
  6 35  1  0  0  0  0
  6 36  1  0  0  0  0
  7  8  1  0  0  0  0
  7 37  1  0  0  0  0
  7 38  1  0  0  0  0
  8  9  1  0  0  0  0
  8 39  1  0  0  0  0
  8 40  1  0  0  0  0
  9 10  2  0  0  0  0
 11 16  1  0  0  0  0
 11 12  2  0  0  0  0
 12 13  1  0  0  0  0
 13 14  2  0  0  0  0
 13 41  1  0  0  0  0
 14 15  1  0  0  0  0
 15 19  1  0  0  0  0
 15 16  2  0  0  0  0
 16 17  1  0  0  0  0
 17 18  2  0  0  0  0
 18 19  1  0  0  0  0
 18 42  1  0  0  0  0
 19 20  1  0  0  0  0
 20 21  1  0  0  0  0
 20 43  1  0  0  0  0
 20 44  1  0  0  0  0
 21 27  1  0  0  0  0
 21 22  1  0  0  0  0
 21 23  1  0  0  0  0
 22 45  1  0  0  0  0
 23 24  1  0  0  0  0
 23 46  1  0  0  0  0
 23 47  1  0  0  0  0
 24 25  1  0  0  0  0
 24 48  1  0  0  0  0
 24 49  1  0  0  0  0
 25 26  1  0  0  0  0
 26 27  1  0  0  0  0
 26 50  1  0  0  0  0
 26 51  1  0  0  0  0
 27 52  1  0  0  0  0
 27 53  1  0  0  0  0
M  END
> <s_m_source_file>
AV-unprocessed.smi

> <i_m_source_file_index>
185

> <i_lp_mmshare_version>
43012

> <i_f3d_flags>
0

> <s_epik_input>
Tz1DMVtDSDJdW0NIMl1bQ0gyXU4xW0NIMl1bQ0gyXU4oW0NIM10pYyhuW2NIXW4yKWMoYzIzKW5bY0hdbjNbQ0gyXUM0KFtPSF0pW0NIMl1bQ0gyXU9bQ0gyXVtDSDJdNA==

> <s_epik_cmdline>
J2VwaWtfcHl0aG9uJywgJy1waCcsICc3LjAnLCAnLXRuJywgJzgnLCAnLW1hJywgJzIwMCcsICctbWV0YWxfYmluZGluZycsICctaW1hZScsICc8aW5maWxlLm1hZT4nLCAnLW9tYWUnLCAnPG91dGZpbGUubWFlPic=

> <r_lp_tautomer_probability>
1

> <r_epik_Ionization_Penalty>
0.00150291

> <r_epik_Ionization_Penalty_Charging>
0

> <r_epik_Ionization_Penalty_Neutral>
0.00150291

> <r_epik_State_Penalty>
0.000836254

> <r_epik_Charging_Adjusted_Penalty>
0.000836254

> <i_epik_Tot_Q>
0

> <i_epik_Tot_abs_Q>
0

> <r_epik_Metal_State_Penalty>
-0

> <b_epik_Metal_Only>
0

> <s_lp_Force_Field>
OPLS_2005

> <r_lp_Energy>
31.6945

> <b_lp_Chiralities_Consistent>
1

> <s_lp_Variant>
AV-unprocessed.smi:185-1

> <Gold.Version>
5.8.1

> <Gold.Id.Protein>
6NUR|6NUR_protein|mol2

> <Gold.PLP.Fitness>
54.2078

> <Gold.PLP.PLP>
-51.9379

> <Gold.PLP.part.hbond>
-2.3826

> <Gold.PLP.part.metal>
0.0000

> <Gold.PLP.part.buried>
-7.7979

> <Gold.PLP.part.nonpolar>
-41.4206

> <Gold.PLP.part.repulsive>
0.1419

> <Gold.PLP.ligand.clash>
0.0000

> <Gold.PLP.ligand.torsion>
1.4486

> <Gold.PLP.Chemscore.Hbond>
1.4914

> <Gold.PLP.Chemscore.CHOScore>
0.0000

> <Gold.PLP.Chemscore.Metal>
0.0000

> <Gold.Chemscore.Hbonds>
donor molecule, donor type, donor heavy atom, donor atom, acceptor molecule, acceptor atom, score
      P1  H  6896  6907       L1    14  1.00
      P1  H  6933  6945       L1    10  0.66

> <Gold.PLP.Chemscore.Internal.Correction>
0.6928

> <Gold.Rescore>
     Score         DG    S(hbond)    S(metal)    S(lipo)     H(rot)  DE(clash)    DE(int)     intcor
     13.29     -16.45       1.70        0.00     104.91       2.73       0.19       2.97       ----

> <Gold.Chemscore.Fitness>
13.2870

> <Gold.Chemscore.DG>
-16.4502

> <Gold.Chemscore.ZeroCoef>
-5.4800

> <Gold.Chemscore.Hbond>
1.7031

> <Gold.Chemscore.Metal>
0.0000

> <Gold.Chemscore.Lipo>
104.9139

> <Gold.Chemscore.Internal_Hbond>
0.0000

> <Gold.Chemscore.DEClash>
0.1910

> <Gold.Chemscore.DEInternal>
2.9722

> <Gold.Chemscore.Rot>
2.7318

> <Gold.Chemscore.Internal.Correction>
   9.000000E+99

> <Gold.Chemscore.Hbonds>
donor molecule, donor type, donor heavy atom, donor atom, acceptor molecule, acceptor atom, score
      P1  H  6896  6907       L1    14  0.80
      P1  H  6933  6945       L1    10  0.52

> <Gold.Chemscore.Hbond.Weighted>
-5.6885

> <Gold.Chemscore.Metal.Weighted>
-0.0000

> <Gold.Chemscore.Lipo.Weighted>
-12.2749

> <Gold.Chemscore.Internal_Hbond.Weighted>
0.0000

> <Gold.Chemscore.DEClash.Weighted>
0.1910

> <Gold.Chemscore.DEInternal.Weighted>
2.9722

> <Gold.Chemscore.Rot.Weighted>
6.9933

> <Gold.Chemscore.Internal.Correction.Weighted>
   9.000000E+99

> <Gold.Protein.RotatedTorsions>
[ 6907 6896 6895 6894 ] final  -22.99 input  -60.11 | X-H torsion
[ 7974 7965 7964 7962 ] final -128.12 input  175.53 | X-H torsion
[ 8008 7997 7996 7995 ] final  -13.32 input   59.86 | X-H torsion
[ 10167 10162 10161 10158 ] final -173.16 input  -65.29 | X-H torsion
[ 10718 10713 10712 10709 ] final -130.52 input   66.30 | X-H torsion
[ 10763 10752 10751 10750 ] final -120.13 input  -60.55 | X-H torsion
[ 11005 11000 10999 10996 ] final -141.45 input  -57.11 | X-H torsion

> <Gold.Protein.ActiveResidues>
 VAL166  LYS551  ARG553  GLY616  TRP617  ASP618  TYR619  PRO620  LYS621  CYS622 
 ASP623  PHE694  ASN695  SER759  ASP760  ASP761  ALA762  ILE779  LEU786  VAL792 
 PHE793  MET794  SER795  GLU796  ALA797  LYS798  CYS799  TRP800  GLU811  SER814 

> <Gold.Protein.RotatedAtoms>
  151.2106  135.0479  159.8909 H   0  0  0  0  0  0  0  0  0  0  0  0  # atno 6907 bound_to 6896
  152.5425  134.0750  159.8220 H   0  0  0  0  0  0  0  0  0  0  0  0  # atno 6908 bound_to 6896
  151.0902  133.5274  159.2647 H   0  0  0  0  0  0  0  0  0  0  0  0  # atno 6909 bound_to 6896
  144.9702  140.7538  143.4675 H   0  0  0  0  0  0  0  0  0  0  0  0  # atno 7974 bound_to 7965
  154.5302  140.2252  155.8818 H   0  0  0  0  0  0  0  0  0  0  0  0  # atno 8008 bound_to 7997
  156.1756  140.3112  155.9016 H   0  0  0  0  0  0  0  0  0  0  0  0  # atno 8009 bound_to 7997
  155.3467  140.0453  157.3036 H   0  0  0  0  0  0  0  0  0  0  0  0  # atno 8010 bound_to 7997
  139.5703  144.1656  152.1374 H   0  0  0  0  0  0  0  0  0  0  0  0  # atno 10167 bound_to 10162
  156.2152  130.6944  151.0695 H   0  0  0  0  0  0  0  0  0  0  0  0  # atno 10718 bound_to 10713
  154.8636  135.4214  154.2410 H   0  0  0  0  0  0  0  0  0  0  0  0  # atno 10763 bound_to 10752
  153.3375  135.6992  153.6901 H   0  0  0  0  0  0  0  0  0  0  0  0  # atno 10764 bound_to 10752
  153.5892  135.3558  155.2877 H   0  0  0  0  0  0  0  0  0  0  0  0  # atno 10765 bound_to 10752
  140.8323  134.2502  157.4851 H   0  0  0  0  0  0  0  0  0  0  0  0  # atno 11005 bound_to 11000
  145.2570  139.2008  143.4912 LP  0  0  0  0  0  0  0  0  0  0  0  0  # atno 17320 bound_to 7965
  146.3380  140.2493  142.8598 LP  0  0  0  0  0  0  0  0  0  0  0  0  # atno 17321 bound_to 7965
  140.1188  144.5392  150.6876 LP  0  0  0  0  0  0  0  0  0  0  0  0  # atno 17342 bound_to 10162
  140.6988  143.2421  151.4925 LP  0  0  0  0  0  0  0  0  0  0  0  0  # atno 17343 bound_to 10162
  157.7059  131.0756  150.6666 LP  0  0  0  0  0  0  0  0  0  0  0  0  # atno 17370 bound_to 10713
  156.6727  130.4544  149.5652 LP  0  0  0  0  0  0  0  0  0  0  0  0  # atno 17371 bound_to 10713
  139.8704  134.9592  156.4325 LP  0  0  0  0  0  0  0  0  0  0  0  0  # atno 17394 bound_to 11000
  140.8985  133.7796  155.9653 LP  0  0  0  0  0  0  0  0  0  0  0  0  # atno 17395 bound_to 11000

$$$$
