AV-unprocessed.smi:1055|AV-procd|sdf|4625|dock4
  -GOLD-   22720 3123D 1   1.00000     0.00000
 Structure written by MMmdl.
 52 53  0  0  0  0  0  0  0  0  3 V2000
  143.4046  145.0779  155.6976 C   0  0  0  0  0  0  0  0  0  0  0  0
  143.9535  143.9163  156.0895 C   0  0  0  0  0  0  0  0  0  0  0  0
  144.8923  143.8320  157.2783 C   0  0  0  0  0  0  0  0  0  0  0  0
  143.6774  142.6081  155.3651 C   0  0  0  0  0  0  0  0  0  0  0  0
  144.9140  142.0224  154.7897 N   0  3  2  0  0  0  0  0  0  0  0  0
  145.6356  141.1675  155.7660 C   0  0  0  0  0  0  0  0  0  0  0  0
  146.8243  140.4470  155.1044 C   0  0  0  0  0  0  0  0  0  0  0  0
  147.7896  141.4289  154.4181 C   0  0  2  0  0  0  0  0  0  0  0  0
  148.5520  142.1830  155.4135 N   0  0  0  0  0  0  0  0  0  0  0  0
  149.3786  141.6448  156.3221 C   0  0  0  0  0  0  0  0  0  0  0  0
  149.6082  140.4384  156.3977 O   0  0  0  0  0  0  0  0  0  0  0  0
  149.9232  142.5900  157.1081 N   0  0  0  0  0  0  0  0  0  0  0  0
  150.8137  142.4235  158.2039 C   0  0  0  0  0  0  0  0  0  0  0  0
  151.5400  141.2173  158.2856 C   0  0  0  0  0  0  0  0  0  0  0  0
  152.4470  141.0134  159.3458 C   0  0  0  0  0  0  0  0  0  0  0  0
  152.6326  142.0254  160.3193 C   0  0  0  0  0  0  0  0  0  0  0  0
  153.5231  141.8976  161.4073 N   0  0  0  0  0  0  0  0  0  0  0  0
  154.6129  140.9303  161.3425 C   0  0  0  0  0  0  0  0  0  0  0  0
  153.3615  142.7464  162.5802 C   0  0  0  0  0  0  0  0  0  0  0  0
  151.9213  143.1720  160.1915 N   0  3  0  0  0  0  0  0  0  0  0  0
  151.0413  143.4081  159.1947 C   0  0  0  0  0  0  0  0  0  0  0  0
  147.0052  142.3587  153.4711 C   0  0  0  0  0  0  0  0  0  0  0  0
  145.8148  143.0334  154.1754 C   0  0  0  0  0  0  0  0  0  0  0  0
  143.6117  146.0007  156.2201 H   0  0  0  0  0  0  0  0  0  0  0  0
  142.7391  145.1258  154.8480 H   0  0  0  0  0  0  0  0  0  0  0  0
  145.8590  143.4329  156.9700 H   0  0  0  0  0  0  0  0  0  0  0  0
  144.4806  143.1794  158.0485 H   0  0  0  0  0  0  0  0  0  0  0  0
  145.0585  144.8138  157.7231 H   0  0  0  0  0  0  0  0  0  0  0  0
  143.2046  141.8873  156.0344 H   0  0  0  0  0  0  0  0  0  0  0  0
  142.9588  142.8171  154.5714 H   0  0  0  0  0  0  0  0  0  0  0  0
  145.9777  141.7776  156.6035 H   0  0  0  0  0  0  0  0  0  0  0  0
  144.9524  140.4233  156.1769 H   0  0  0  0  0  0  0  0  0  0  0  0
  147.3564  139.8446  155.8417 H   0  0  0  0  0  0  0  0  0  0  0  0
  146.4426  139.7456  154.3610 H   0  0  0  0  0  0  0  0  0  0  0  0
  148.4962  140.8432  153.8270 H   0  0  0  0  0  0  0  0  0  0  0  0
  148.4241  143.1843  155.4229 H   0  0  0  0  0  0  0  0  0  0  0  0
  149.6993  143.5459  156.8738 H   0  0  0  0  0  0  0  0  0  0  0  0
  151.4029  140.4451  157.5426 H   0  0  0  0  0  0  0  0  0  0  0  0
  152.9882  140.0803  159.3926 H   0  0  0  0  0  0  0  0  0  0  0  0
  154.2242  139.9224  161.1927 H   0  0  0  0  0  0  0  0  0  0  0  0
  155.1970  140.9276  162.2631 H   0  0  0  0  0  0  0  0  0  0  0  0
  155.2870  141.1688  160.5195 H   0  0  0  0  0  0  0  0  0  0  0  0
  152.3885  142.5789  163.0430 H   0  0  0  0  0  0  0  0  0  0  0  0
  153.4415  143.7988  162.3065 H   0  0  0  0  0  0  0  0  0  0  0  0
  154.1262  142.5386  163.3288 H   0  0  0  0  0  0  0  0  0  0  0  0
  150.5703  144.3786  159.2299 H   0  0  0  0  0  0  0  0  0  0  0  0
  147.6634  143.1145  153.0412 H   0  0  0  0  0  0  0  0  0  0  0  0
  146.6315  141.7744  152.6292 H   0  0  0  0  0  0  0  0  0  0  0  0
  145.2689  143.6312  153.4454 H   0  0  0  0  0  0  0  0  0  0  0  0
  146.1695  143.7229  154.9429 H   0  0  0  0  0  0  0  0  0  0  0  0
  144.6140  141.4087  154.0453 H   0  0  0  0  0  0  0  0  0  0  0  0
  152.0604  143.9037  160.8886 H   0  0  0  0  0  0  0  0  0  0  0  0
  1  2  2  0  0  0  0
  1 24  1  0  0  0  0
  1 25  1  0  0  0  0
  2  3  1  0  0  0  0
  2  4  1  0  0  0  0
  3 26  1  0  0  0  0
  3 27  1  0  0  0  0
  3 28  1  0  0  0  0
  4  5  1  0  0  0  0
  4 29  1  0  0  0  0
  4 30  1  0  0  0  0
  5 23  1  0  0  0  0
  5  6  1  0  0  0  0
  5 51  1  0  0  0  0
  6  7  1  0  0  0  0
  6 31  1  0  0  0  0
  6 32  1  0  0  0  0
  7  8  1  0  0  0  0
  7 33  1  0  0  0  0
  7 34  1  0  0  0  0
  8  9  1  0  0  0  0
  8 22  1  0  0  0  0
  8 35  1  0  0  0  0
  9 10  1  0  0  0  0
  9 36  1  0  0  0  0
 10 11  2  0  0  0  0
 10 12  1  0  0  0  0
 12 13  1  0  0  0  0
 12 37  1  0  0  0  0
 13 21  1  0  0  0  0
 13 14  2  0  0  0  0
 14 15  1  0  0  0  0
 14 38  1  0  0  0  0
 15 16  2  0  0  0  0
 15 39  1  0  0  0  0
 16 17  1  0  0  0  0
 16 20  1  0  0  0  0
 17 18  1  0  0  0  0
 17 19  1  0  0  0  0
 18 40  1  0  0  0  0
 18 41  1  0  0  0  0
 18 42  1  0  0  0  0
 19 43  1  0  0  0  0
 19 44  1  0  0  0  0
 19 45  1  0  0  0  0
 20 21  2  0  0  0  0
 20 52  1  0  0  0  0
 21 46  1  0  0  0  0
 22 23  1  0  0  0  0
 22 47  1  0  0  0  0
 22 48  1  0  0  0  0
 23 49  1  0  0  0  0
 23 50  1  0  0  0  0
M  CHG  1   5   1
M  CHG  1  20   1
M  END
> <s_m_source_file>
AV-unprocessed.smi

> <i_m_source_file_index>
1055

> <i_lp_mmshare_version>
43012

> <i_f3d_flags>
0

> <s_epik_input>
W0NIMl09QyhbQ0gzXSlbQ0gyXU4xW0NIMl1bQ0gyXVtDSF0oW0NIMl1bQ0gyXTEpW05IXUMoPU8pW05IXWMyW2NIXVtjSF1jKE4oW0NIM10pW0NIM10pbltjSF0y

> <s_epik_cmdline>
J2VwaWtfcHl0aG9uJywgJy1waCcsICc3LjAnLCAnLXRuJywgJzgnLCAnLW1hJywgJzIwMCcsICctbWV0YWxfYmluZGluZycsICctaW1hZScsICc8aW5maWxlLm1hZT4nLCAnLW9tYWUnLCAnPG91dGZpbGUubWFlPic=

> <r_lp_tautomer_probability>
0.999994

> <r_epik_Ionization_Penalty>
0.344238

> <r_epik_Ionization_Penalty_Charging>
0.344219

> <r_epik_Ionization_Penalty_Neutral>
1.87459e-05

> <r_epik_State_Penalty>
0.320654

> <r_epik_Charging_Adjusted_Penalty>
0.664873

> <i_epik_Tot_Q>
2

> <i_epik_Tot_abs_Q>
2

> <r_epik_Metal_State_Penalty>
0.58246

> <b_epik_Metal_Only>
0

> <s_lp_Force_Field>
OPLS_2005

> <r_lp_Energy>
26.4869

> <b_lp_Chiralities_Consistent>
1

> <s_lp_Variant>
AV-unprocessed.smi:1055-2

> <Gold.Version>
5.8.1

> <Gold.Id.Protein>
6NUR|6NUR_protein|mol2

> <Gold.PLP.Fitness>
52.7748

> <Gold.PLP.PLP>
-41.7816

> <Gold.PLP.part.hbond>
-3.0000

> <Gold.PLP.part.metal>
0.0000

> <Gold.PLP.part.buried>
-7.2572

> <Gold.PLP.part.nonpolar>
-32.2447

> <Gold.PLP.part.repulsive>
0.2543

> <Gold.PLP.ligand.clash>
0.0000

> <Gold.PLP.ligand.torsion>
0.5186

> <Gold.PLP.Chemscore.Hbond>
3.9920

> <Gold.PLP.Chemscore.CHOScore>
0.0000

> <Gold.PLP.Chemscore.Metal>
0.0000

> <Gold.Chemscore.Hbonds>
donor molecule, donor type, donor heavy atom, donor atom, acceptor molecule, acceptor atom, score
      L1  H     5    51       P1 10175  2.00
      L1  H     9    36       P1  8028  1.00
      L1  H    12    37       P1  8028  0.96

> <Gold.PLP.Chemscore.Internal.Correction>
0.0544

> <Gold.Rescore>
     Score         DG    S(hbond)    S(metal)    S(lipo)     H(rot)  DE(clash)    DE(int)     intcor
     17.89     -21.31       2.74        0.00      86.45       1.35       1.51       1.92       ----

> <Gold.Chemscore.Fitness>
17.8851

> <Gold.Chemscore.DG>
-21.3142

> <Gold.Chemscore.ZeroCoef>
-5.4800

> <Gold.Chemscore.Hbond>
2.7443

> <Gold.Chemscore.Metal>
0.0000

> <Gold.Chemscore.Lipo>
86.4546

> <Gold.Chemscore.Internal_Hbond>
0.0000

> <Gold.Chemscore.DEClash>
1.5092

> <Gold.Chemscore.DEInternal>
1.9199

> <Gold.Chemscore.Rot>
1.3465

> <Gold.Chemscore.Internal.Correction>
   9.000000E+99

> <Gold.Chemscore.Hbonds>
donor molecule, donor type, donor heavy atom, donor atom, acceptor molecule, acceptor atom, score
      L1  H     5    51       P1 10175  0.37
      L1  H     9    36       P1  8028  0.96
      L1  H    12    37       P1  8028  0.91

> <Gold.Chemscore.Hbond.Weighted>
-9.1660

> <Gold.Chemscore.Metal.Weighted>
-0.0000

> <Gold.Chemscore.Lipo.Weighted>
-10.1152

> <Gold.Chemscore.Internal_Hbond.Weighted>
0.0000

> <Gold.Chemscore.DEClash.Weighted>
1.5092

> <Gold.Chemscore.DEInternal.Weighted>
1.9199

> <Gold.Chemscore.Rot.Weighted>
3.4470

> <Gold.Chemscore.Internal.Correction.Weighted>
   9.000000E+99

> <Gold.Protein.RotatedTorsions>
[ 6907 6896 6895 6894 ] final  142.95 input  -60.11 | X-H torsion
[ 7974 7965 7964 7962 ] final  127.41 input  175.53 | X-H torsion
[ 8008 7997 7996 7995 ] final   65.92 input   59.86 | X-H torsion
[ 10167 10162 10161 10158 ] final  -80.41 input  -65.29 | X-H torsion
[ 10718 10713 10712 10709 ] final -128.42 input   66.30 | X-H torsion
[ 10763 10752 10751 10750 ] final   90.60 input  -60.55 | X-H torsion
[ 11005 11000 10999 10996 ] final  116.24 input  -57.11 | X-H torsion

> <Gold.Protein.ActiveResidues>
 VAL166  LYS551  ARG553  GLY616  TRP617  ASP618  TYR619  PRO620  LYS621  CYS622 
 ASP623  PHE694  ASN695  SER759  ASP760  ASP761  ALA762  ILE779  LEU786  VAL792 
 PHE793  MET794  SER795  GLU796  ALA797  LYS798  CYS799  TRP800  GLU811  SER814 

> <Gold.Protein.RotatedAtoms>
  152.2124  133.4921  159.5117 H   0  0  0  0  0  0  0  0  0  0  0  0  # atno 6907 bound_to 6896
  150.6993  134.1450  159.4128 H   0  0  0  0  0  0  0  0  0  0  0  0  # atno 6908 bound_to 6896
  151.9369  135.0231  160.0584 H   0  0  0  0  0  0  0  0  0  0  0  0  # atno 6909 bound_to 6896
  145.0509  139.3884  143.5054 H   0  0  0  0  0  0  0  0  0  0  0  0  # atno 7974 bound_to 7965
  155.6692  140.3497  155.4812 H   0  0  0  0  0  0  0  0  0  0  0  0  # atno 8008 bound_to 7997
  155.9702  140.1154  157.0841 H   0  0  0  0  0  0  0  0  0  0  0  0  # atno 8009 bound_to 7997
  154.4164  140.1158  156.5283 H   0  0  0  0  0  0  0  0  0  0  0  0  # atno 8010 bound_to 7997
  140.4506  143.2484  151.8495 H   0  0  0  0  0  0  0  0  0  0  0  0  # atno 10167 bound_to 10162
  156.1949  130.6819  151.0469 H   0  0  0  0  0  0  0  0  0  0  0  0  # atno 10718 bound_to 10713
  153.1992  135.4428  155.0246 H   0  0  0  0  0  0  0  0  0  0  0  0  # atno 10763 bound_to 10752
  154.8137  135.3305  154.7238 H   0  0  0  0  0  0  0  0  0  0  0  0  # atno 10764 bound_to 10752
  153.7684  135.6986  153.4967 H   0  0  0  0  0  0  0  0  0  0  0  0  # atno 10765 bound_to 10752
  139.9035  134.9595  156.7168 H   0  0  0  0  0  0  0  0  0  0  0  0  # atno 11005 bound_to 11000
  146.3518  140.0158  142.8663 LP  0  0  0  0  0  0  0  0  0  0  0  0  # atno 17320 bound_to 7965
  145.1529  140.9632  143.4422 LP  0  0  0  0  0  0  0  0  0  0  0  0  # atno 17321 bound_to 7965
  139.4796  144.5125  151.8913 LP  0  0  0  0  0  0  0  0  0  0  0  0  # atno 17342 bound_to 10162
  140.4212  144.2241  150.5887 LP  0  0  0  0  0  0  0  0  0  0  0  0  # atno 17343 bound_to 10162
  157.6951  131.0796  150.6991 LP  0  0  0  0  0  0  0  0  0  0  0  0  # atno 17370 bound_to 10713
  156.7048  130.4634  149.5563 LP  0  0  0  0  0  0  0  0  0  0  0  0  # atno 17371 bound_to 10713
  140.7032  133.9288  155.8037 LP  0  0  0  0  0  0  0  0  0  0  0  0  # atno 17394 bound_to 11000
  141.0356  134.0694  157.3963 LP  0  0  0  0  0  0  0  0  0  0  0  0  # atno 17395 bound_to 11000

$$$$
