AV-unprocessed.smi:1208|AV-procd|sdf|5064|dock2
  -GOLD-   22720 4103D 1   1.00000     0.00000
 Structure written by MMmdl.
 35 36  0  0  0  0  0  0  0  0  2 V2000
  153.0241  138.9494  158.3306 C   0  0  0  0  0  0  0  0  0  0  0  0
  151.8257  139.8943  158.1453 C   0  0  1  0  0  0  0  0  0  0  0  0
  150.5783  139.1388  158.1030 N   0  0  0  0  0  0  0  0  0  0  0  0
  150.2739  138.0526  158.8303 C   0  0  0  0  0  0  0  0  0  0  0  0
  151.0121  137.6022  159.7061 O   0  0  0  0  0  0  0  0  0  0  0  0
  148.9494  137.3373  158.5107 C   0  0  0  0  0  0  0  0  0  0  0  0
  148.4286  136.5055  159.6097 N   0  0  0  0  0  0  0  0  0  0  0  0
  147.9536  137.2696  160.7596 N   0  5  0  0  0  0  0  0  0  0  0  0
  147.4070  136.6088  161.8145 C   0  0  0  0  0  0  0  0  0  0  0  0
  146.9690  137.1849  162.8074 O   0  0  0  0  0  0  0  0  0  0  0  0
  147.3431  135.1579  161.7546 C   0  0  0  0  0  0  0  0  0  0  0  0
  147.8004  134.4771  160.6854 C   0  0  0  0  0  0  0  0  0  0  0  0
  148.3797  135.1449  159.5263 C   0  0  0  0  0  0  0  0  0  0  0  0
  148.7824  134.5299  158.5390 O   0  0  0  0  0  0  0  0  0  0  0  0
  151.7510  140.9671  159.2532 C   0  0  1  0  0  0  0  0  0  0  0  0
  153.0582  141.7438  159.4916 C   0  0  0  0  0  0  0  0  0  0  0  0
  152.5797  143.1630  159.7105 C   0  0  0  0  0  0  0  0  0  0  0  0
  151.3693  143.2224  158.7907 C   0  0  0  0  0  0  0  0  0  0  0  0
  150.7596  141.9479  158.9408 O   0  0  0  0  0  0  0  0  0  0  0  0
  153.9611  139.5058  158.3558 H   0  0  0  0  0  0  0  0  0  0  0  0
  153.0912  138.2318  157.5124 H   0  0  0  0  0  0  0  0  0  0  0  0
  152.9465  138.3859  159.2610 H   0  0  0  0  0  0  0  0  0  0  0  0
  151.9503  140.4146  157.1940 H   0  0  0  0  0  0  0  0  0  0  0  0
  149.8948  139.4397  157.4219 H   0  0  0  0  0  0  0  0  0  0  0  0
  148.2048  138.0832  158.2276 H   0  0  0  0  0  0  0  0  0  0  0  0
  149.1036  136.7289  157.6180 H   0  0  0  0  0  0  0  0  0  0  0  0
  146.9204  134.6137  162.5861 H   0  0  0  0  0  0  0  0  0  0  0  0
  147.7330  133.3996  160.6836 H   0  0  0  0  0  0  0  0  0  0  0  0
  151.4482  140.4981  160.1903 H   0  0  0  0  0  0  0  0  0  0  0  0
  153.6271  141.3568  160.3372 H   0  0  0  0  0  0  0  0  0  0  0  0
  153.7098  141.7147  158.6178 H   0  0  0  0  0  0  0  0  0  0  0  0
  152.2717  143.3030  160.7474 H   0  0  0  0  0  0  0  0  0  0  0  0
  153.3346  143.9118  159.4689 H   0  0  0  0  0  0  0  0  0  0  0  0
  150.6832  144.0308  159.0424 H   0  0  0  0  0  0  0  0  0  0  0  0
  151.6805  143.3475  157.7534 H   0  0  0  0  0  0  0  0  0  0  0  0
  1  2  1  0  0  0  0
  1 20  1  0  0  0  0
  1 21  1  0  0  0  0
  1 22  1  0  0  0  0
  2  3  1  0  0  0  0
  2 15  1  0  0  0  0
  2 23  1  0  0  0  0
  3  4  1  0  0  0  0
  3 24  1  0  0  0  0
  4  5  2  0  0  0  0
  4  6  1  0  0  0  0
  6 25  1  0  0  0  0
  6 26  1  0  0  0  0
  6  7  1  0  0  0  0
  7  8  1  0  0  0  0
  7 13  1  0  0  0  0
  8  9  1  0  0  0  0
  9 10  2  0  0  0  0
  9 11  1  0  0  0  0
 11 27  1  0  0  0  0
 11 12  2  0  0  0  0
 12 28  1  0  0  0  0
 12 13  1  0  0  0  0
 13 14  2  0  0  0  0
 15 19  1  0  0  0  0
 15 16  1  0  0  0  0
 15 29  1  0  0  0  0
 16 17  1  0  0  0  0
 16 30  1  0  0  0  0
 16 31  1  0  0  0  0
 17 18  1  0  0  0  0
 17 32  1  0  0  0  0
 17 33  1  0  0  0  0
 18 19  1  0  0  0  0
 18 34  1  0  0  0  0
 18 35  1  0  0  0  0
M  CHG  1   8  -1
M  END
> <s_m_source_file>
AV-unprocessed.smi

> <i_m_source_file_index>
1208

> <i_lp_mmshare_version>
43012

> <i_f3d_flags>
0

> <s_epik_input>
TzFbQ0gyXVtDSDJdW0NIMl1bQ0BIXTFbQ0BIXShbQ0gzXSlbTkhdQyg9TylbQ0gyXW4yW25IXWMoPU8pW2NIXVtjSF1jMj1P

> <s_epik_cmdline>
J2VwaWtfcHl0aG9uJywgJy1waCcsICc3LjAnLCAnLXRuJywgJzgnLCAnLW1hJywgJzIwMCcsICctbWV0YWxfYmluZGluZycsICctaW1hZScsICc8aW5maWxlLm1hZT4nLCAnLW9tYWUnLCAnPG91dGZpbGUubWFlPic=

> <r_lp_tautomer_probability>
1

> <r_epik_Ionization_Penalty>
0.0975494

> <r_epik_Ionization_Penalty_Charging>
0.0975494

> <r_epik_Ionization_Penalty_Neutral>
2.30132e-08

> <r_epik_State_Penalty>
0.034345

> <r_epik_Charging_Adjusted_Penalty>
0.131894

> <i_epik_Tot_Q>
-1

> <i_epik_Tot_abs_Q>
1

> <r_epik_Metal_State_Penalty>
0.034345

> <b_epik_Metal_Only>
0

> <s_lp_Force_Field>
OPLS_2005

> <r_lp_Energy>
31.4648

> <b_lp_Chiralities_Consistent>
1

> <s_lp_Variant>
AV-unprocessed.smi:1208-4

> <Gold.Version>
5.8.1

> <Gold.Id.Protein>
6NUR|6NUR_protein|mol2

> <Gold.PLP.Fitness>
41.9214

> <Gold.PLP.PLP>
-32.2425

> <Gold.PLP.part.hbond>
-4.3021

> <Gold.PLP.part.metal>
0.0000

> <Gold.PLP.part.buried>
-3.5999

> <Gold.PLP.part.nonpolar>
-24.7481

> <Gold.PLP.part.repulsive>
0.1218

> <Gold.PLP.ligand.clash>
0.0000

> <Gold.PLP.ligand.torsion>
0.7909

> <Gold.PLP.Chemscore.Hbond>
3.7472

> <Gold.PLP.Chemscore.CHOScore>
0.0000

> <Gold.PLP.Chemscore.Metal>
0.0000

> <Gold.Chemscore.Hbonds>
donor molecule, donor type, donor heavy atom, donor atom, acceptor molecule, acceptor atom, score
      P1  H  6896  6907       L1    14  0.59
      P1  H  6931  6943       L1     8  0.90
      P1  H  6934  6947       L1     8  1.54

> <Gold.PLP.Chemscore.Internal.Correction>
0.0190

> <Gold.Rescore>
     Score         DG    S(hbond)    S(metal)    S(lipo)     H(rot)  DE(clash)    DE(int)     intcor
     11.25     -13.64       1.73        0.00      63.93       1.99       0.12       2.28       ----

> <Gold.Chemscore.Fitness>
11.2454

> <Gold.Chemscore.DG>
-13.6411

> <Gold.Chemscore.ZeroCoef>
-5.4800

> <Gold.Chemscore.Hbond>
1.7324

> <Gold.Chemscore.Metal>
0.0000

> <Gold.Chemscore.Lipo>
63.9283

> <Gold.Chemscore.Internal_Hbond>
0.0000

> <Gold.Chemscore.DEClash>
0.1158

> <Gold.Chemscore.DEInternal>
2.2799

> <Gold.Chemscore.Rot>
1.9940

> <Gold.Chemscore.Internal.Correction>
   9.000000E+99

> <Gold.Chemscore.Hbonds>
donor molecule, donor type, donor heavy atom, donor atom, acceptor molecule, acceptor atom, score
      P1  H  6896  6907       L1    14  0.11
      P1  H  6931  6943       L1     8  0.03
      P1  H  6934  6947       L1     8  0.30

> <Gold.Chemscore.Hbond.Weighted>
-5.7862

> <Gold.Chemscore.Metal.Weighted>
-0.0000

> <Gold.Chemscore.Lipo.Weighted>
-7.4796

> <Gold.Chemscore.Internal_Hbond.Weighted>
0.0000

> <Gold.Chemscore.DEClash.Weighted>
0.1158

> <Gold.Chemscore.DEInternal.Weighted>
2.2799

> <Gold.Chemscore.Rot.Weighted>
5.1047

> <Gold.Chemscore.Internal.Correction.Weighted>
   9.000000E+99

> <Gold.Protein.RotatedTorsions>
[ 6907 6896 6895 6894 ] final -111.90 input  -60.11 | X-H torsion
[ 7974 7965 7964 7962 ] final   16.31 input  175.53 | X-H torsion
[ 8008 7997 7996 7995 ] final -119.59 input   59.86 | X-H torsion
[ 10167 10162 10161 10158 ] final -173.76 input  -65.29 | X-H torsion
[ 10718 10713 10712 10709 ] final -112.21 input   66.30 | X-H torsion
[ 10763 10752 10751 10750 ] final -167.52 input  -60.55 | X-H torsion
[ 11005 11000 10999 10996 ] final  131.71 input  -57.11 | X-H torsion

> <Gold.Protein.ActiveResidues>
 VAL166  LYS551  ARG553  GLY616  TRP617  ASP618  TYR619  PRO620  LYS621  CYS622 
 ASP623  PHE694  ASN695  SER759  ASP760  ASP761  ALA762  ILE779  LEU786  VAL792 
 PHE793  MET794  SER795  GLU796  ALA797  LYS798  CYS799  TRP800  GLU811  SER814 

> <Gold.Protein.RotatedAtoms>
  150.7721  133.9168  159.3385 H   0  0  0  0  0  0  0  0  0  0  0  0  # atno 6907 bound_to 6896
  151.7052  135.0921  160.0267 H   0  0  0  0  0  0  0  0  0  0  0  0  # atno 6908 bound_to 6896
  152.3743  133.6422  159.6147 H   0  0  0  0  0  0  0  0  0  0  0  0  # atno 6909 bound_to 6896
  146.2253  139.8767  142.8578 H   0  0  0  0  0  0  0  0  0  0  0  0  # atno 7974 bound_to 7965
  155.1181  140.0398  157.2742 H   0  0  0  0  0  0  0  0  0  0  0  0  # atno 8008 bound_to 7997
  154.6634  140.2596  155.7058 H   0  0  0  0  0  0  0  0  0  0  0  0  # atno 8009 bound_to 7997
  156.2629  140.2812  156.1115 H   0  0  0  0  0  0  0  0  0  0  0  0  # atno 8010 bound_to 7997
  139.5671  144.1731  152.1328 H   0  0  0  0  0  0  0  0  0  0  0  0  # atno 10167 bound_to 10162
  156.0692  130.5908  150.8478 H   0  0  0  0  0  0  0  0  0  0  0  0  # atno 10718 bound_to 10713
  154.6723  135.2941  154.9725 H   0  0  0  0  0  0  0  0  0  0  0  0  # atno 10763 bound_to 10752
  154.0748  135.6613  153.4833 H   0  0  0  0  0  0  0  0  0  0  0  0  # atno 10764 bound_to 10752
  153.0494  135.5183  154.7725 H   0  0  0  0  0  0  0  0  0  0  0  0  # atno 10765 bound_to 10752
  139.9747  134.9567  156.9478 H   0  0  0  0  0  0  0  0  0  0  0  0  # atno 11005 bound_to 11000
  145.2554  141.0058  143.3857 LP  0  0  0  0  0  0  0  0  0  0  0  0  # atno 17320 bound_to 7965
  144.9341  139.4264  143.6481 LP  0  0  0  0  0  0  0  0  0  0  0  0  # atno 17321 bound_to 7965
  140.1256  144.5335  150.6835 LP  0  0  0  0  0  0  0  0  0  0  0  0  # atno 17342 bound_to 10162
  140.6954  143.2401  151.5014 LP  0  0  0  0  0  0  0  0  0  0  0  0  # atno 17343 bound_to 10162
  157.5753  131.0946  150.9355 LP  0  0  0  0  0  0  0  0  0  0  0  0  # atno 17370 bound_to 10713
  156.9563  130.5438  149.5284 LP  0  0  0  0  0  0  0  0  0  0  0  0  # atno 17371 bound_to 10713
  140.5220  134.0898  155.7294 LP  0  0  0  0  0  0  0  0  0  0  0  0  # atno 17394 bound_to 11000
  141.1424  133.9114  157.2294 LP  0  0  0  0  0  0  0  0  0  0  0  0  # atno 17395 bound_to 11000

$$$$
