AV-unprocessed.smi:848|AV-procd|sdf|3942|dock3
  -GOLD-   22720 1413D 1   1.00000     0.00000
 Structure written by MMmdl.
 47 49  0  0  0  0  0  0  0  0  2 V2000
  148.3188  132.7275  158.0032 C   0  0  0  0  0  0  0  0  0  0  0  0
  148.2604  133.8752  158.9902 C   0  0  0  0  0  0  0  0  0  0  0  0
  147.5908  133.7210  160.2204 C   0  0  0  0  0  0  0  0  0  0  0  0
  147.5377  134.7913  161.1341 C   0  0  0  0  0  0  0  0  0  0  0  0
  146.8156  134.6209  162.4548 C   0  0  0  0  0  0  0  0  0  0  0  0
  148.1549  136.0171  160.8118 C   0  0  0  0  0  0  0  0  0  0  0  0
  148.8295  136.1880  159.5858 C   0  0  0  0  0  0  0  0  0  0  0  0
  149.4052  137.4195  159.3577 O   0  0  0  0  0  0  0  0  0  0  0  0
  150.0201  137.6555  158.0981 C   0  0  0  0  0  0  0  0  0  0  0  0
  151.0945  138.7407  158.2713 C   0  0  1  0  0  0  0  0  0  0  0  0
  152.2303  138.1517  158.8731 O   0  0  0  0  0  0  0  0  0  0  0  0
  151.5003  139.3699  156.9232 C   0  0  0  0  0  0  0  0  0  0  0  0
  151.1003  140.7827  156.8049 N   0  0  0  0  0  0  0  0  0  0  0  0
  150.2855  141.3919  155.8948 C   0  0  0  0  0  0  0  0  0  0  0  0
  149.5708  140.7472  154.7528 C   0  0  0  0  0  0  0  0  0  0  0  0
  150.4536  140.1109  153.8559 O   0  0  0  0  0  0  0  0  0  0  0  0
  150.2316  142.7137  156.2221 N   0  3  0  0  0  0  0  0  0  0  0  0
  151.0178  142.9547  157.3488 C   0  0  0  0  0  0  0  0  0  0  0  0
  151.2723  144.1319  158.0461 C   0  0  0  0  0  0  0  0  0  0  0  0
  152.1236  144.0326  159.1661 C   0  0  0  0  0  0  0  0  0  0  0  0
  152.6844  142.7988  159.5545 C   0  0  0  0  0  0  0  0  0  0  0  0
  152.4196  141.6125  158.8390 C   0  0  0  0  0  0  0  0  0  0  0  0
  151.5785  141.7186  157.7310 C   0  0  0  0  0  0  0  0  0  0  0  0
  148.8761  135.1034  158.6738 C   0  0  0  0  0  0  0  0  0  0  0  0
  147.9524  131.8019  158.4480 H   0  0  0  0  0  0  0  0  0  0  0  0
  149.3446  132.5612  157.6733 H   0  0  0  0  0  0  0  0  0  0  0  0
  147.7082  132.9520  157.1286 H   0  0  0  0  0  0  0  0  0  0  0  0
  147.1163  132.7818  160.4656 H   0  0  0  0  0  0  0  0  0  0  0  0
  147.0347  135.4440  163.1358 H   0  0  0  0  0  0  0  0  0  0  0  0
  147.1202  133.6919  162.9380 H   0  0  0  0  0  0  0  0  0  0  0  0
  145.7381  134.5877  162.2935 H   0  0  0  0  0  0  0  0  0  0  0  0
  148.1129  136.8398  161.5107 H   0  0  0  0  0  0  0  0  0  0  0  0
  150.4537  136.7447  157.6805 H   0  0  0  0  0  0  0  0  0  0  0  0
  149.2555  138.0099  157.4047 H   0  0  0  0  0  0  0  0  0  0  0  0
  150.7164  139.5243  158.9283 H   0  0  0  0  0  0  0  0  0  0  0  0
  152.8778  138.8270  159.0092 H   0  0  0  0  0  0  0  0  0  0  0  0
  152.5732  139.2816  156.7522 H   0  0  0  0  0  0  0  0  0  0  0  0
  151.0233  138.8307  156.1046 H   0  0  0  0  0  0  0  0  0  0  0  0
  148.8653  140.0095  155.1364 H   0  0  0  0  0  0  0  0  0  0  0  0
  148.9888  141.4951  154.2143 H   0  0  0  0  0  0  0  0  0  0  0  0
  150.0121  139.9978  153.0279 H   0  0  0  0  0  0  0  0  0  0  0  0
  150.8420  145.0780  157.7519 H   0  0  0  0  0  0  0  0  0  0  0  0
  152.3487  144.9199  159.7401 H   0  0  0  0  0  0  0  0  0  0  0  0
  153.3296  142.7605  160.4202 H   0  0  0  0  0  0  0  0  0  0  0  0
  152.8486  140.6721  159.1517 H   0  0  0  0  0  0  0  0  0  0  0  0
  149.3794  135.1907  157.7228 H   0  0  0  0  0  0  0  0  0  0  0  0
  149.6897  143.3989  155.7115 H   0  0  0  0  0  0  0  0  0  0  0  0
  1  2  1  0  0  0  0
  1 25  1  0  0  0  0
  1 26  1  0  0  0  0
  1 27  1  0  0  0  0
  2 24  1  0  0  0  0
  2  3  2  0  0  0  0
  3  4  1  0  0  0  0
  3 28  1  0  0  0  0
  4  5  1  0  0  0  0
  4  6  2  0  0  0  0
  5 29  1  0  0  0  0
  5 30  1  0  0  0  0
  5 31  1  0  0  0  0
  6  7  1  0  0  0  0
  6 32  1  0  0  0  0
  7  8  1  0  0  0  0
  7 24  2  0  0  0  0
  8  9  1  0  0  0  0
  9 10  1  0  0  0  0
  9 33  1  0  0  0  0
  9 34  1  0  0  0  0
 10 11  1  0  0  0  0
 10 12  1  0  0  0  0
 10 35  1  0  0  0  0
 11 36  1  0  0  0  0
 12 13  1  0  0  0  0
 12 37  1  0  0  0  0
 12 38  1  0  0  0  0
 13 23  1  0  0  0  0
 13 14  1  0  0  0  0
 14 15  1  0  0  0  0
 14 17  2  0  0  0  0
 15 16  1  0  0  0  0
 15 39  1  0  0  0  0
 15 40  1  0  0  0  0
 16 41  1  0  0  0  0
 17 18  1  0  0  0  0
 17 47  1  0  0  0  0
 18 23  2  0  0  0  0
 18 19  1  0  0  0  0
 19 20  2  0  0  0  0
 19 42  1  0  0  0  0
 20 21  1  0  0  0  0
 20 43  1  0  0  0  0
 21 22  2  0  0  0  0
 21 44  1  0  0  0  0
 22 23  1  0  0  0  0
 22 45  1  0  0  0  0
 24 46  1  0  0  0  0
M  CHG  1  17   1
M  END
> <s_m_source_file>
AV-unprocessed.smi

> <i_m_source_file_index>
848

> <i_lp_mmshare_version>
43012

> <i_f3d_flags>
0

> <s_epik_input>
W0NIM11jMVtjSF1jKFtDSDNdKVtjSF1jKFtjSF0xKU9bQ0gyXVtDQEhdKFtPSF0pW0NIMl1uKGMobjIpW0NIMl1bT0hdKWMoYzIzKVtjSF1bY0hdW2NIXVtjSF0z

> <s_epik_cmdline>
J2VwaWtfcHl0aG9uJywgJy1waCcsICc3LjAnLCAnLXRuJywgJzgnLCAnLW1hJywgJzIwMCcsICctbWV0YWxfYmluZGluZycsICctaW1hZScsICc8aW5maWxlLm1hZT4nLCAnLW9tYWUnLCAnPG91dGZpbGUubWFlPic=

> <r_lp_tautomer_probability>
1

> <r_epik_Ionization_Penalty>
1.43292

> <r_epik_Ionization_Penalty_Charging>
1.43206

> <r_epik_Ionization_Penalty_Neutral>
0.000858184

> <r_epik_State_Penalty>
1.51673

> <r_epik_Charging_Adjusted_Penalty>
2.94879

> <i_epik_Tot_Q>
1

> <i_epik_Tot_abs_Q>
1

> <r_epik_Metal_State_Penalty>
5.56186

> <b_epik_Metal_Only>
0

> <s_lp_Force_Field>
OPLS_2005

> <r_lp_Energy>
19.6511

> <b_lp_Chiralities_Consistent>
1

> <s_lp_Variant>
AV-unprocessed.smi:848-4

> <Gold.Version>
5.8.1

> <Gold.Id.Protein>
6NUR|6NUR_protein|mol2

> <Gold.PLP.Fitness>
59.9420

> <Gold.PLP.PLP>
-49.9888

> <Gold.PLP.part.hbond>
-3.8360

> <Gold.PLP.part.metal>
0.0000

> <Gold.PLP.part.buried>
-5.8628

> <Gold.PLP.part.nonpolar>
-40.5758

> <Gold.PLP.part.repulsive>
0.0994

> <Gold.PLP.ligand.clash>
0.0000

> <Gold.PLP.ligand.torsion>
1.0334

> <Gold.PLP.Chemscore.Hbond>
3.9967

> <Gold.PLP.Chemscore.CHOScore>
0.0000

> <Gold.PLP.Chemscore.Metal>
0.0000

> <Gold.Chemscore.Hbonds>
donor molecule, donor type, donor heavy atom, donor atom, acceptor molecule, acceptor atom, score
      L1  H    16    41       P1  7957  1.00
      L1  H    17    47       P1  8028  2.00
      P1  H  7989  7998       L1    16  0.73

> <Gold.PLP.Chemscore.Internal.Correction>
0.0299

> <Gold.Rescore>
     Score         DG    S(hbond)    S(metal)    S(lipo)     H(rot)  DE(clash)    DE(int)     intcor
     20.09     -21.14       2.50        0.00     129.07       3.05       0.01       1.04       ----

> <Gold.Chemscore.Fitness>
20.0918

> <Gold.Chemscore.DG>
-21.1419

> <Gold.Chemscore.ZeroCoef>
-5.4800

> <Gold.Chemscore.Hbond>
2.5038

> <Gold.Chemscore.Metal>
0.0000

> <Gold.Chemscore.Lipo>
129.0677

> <Gold.Chemscore.Internal_Hbond>
0.0000

> <Gold.Chemscore.DEClash>
0.0086

> <Gold.Chemscore.DEInternal>
1.0416

> <Gold.Chemscore.Rot>
3.0476

> <Gold.Chemscore.Internal.Correction>
   9.000000E+99

> <Gold.Chemscore.Hbonds>
donor molecule, donor type, donor heavy atom, donor atom, acceptor molecule, acceptor atom, score
      L1  H    16    41       P1  7957  0.99
      L1  H    17    47       P1  8028  0.90
      P1  H  7989  7998       L1    16  0.22

> <Gold.Chemscore.Hbond.Weighted>
-8.3627

> <Gold.Chemscore.Metal.Weighted>
-0.0000

> <Gold.Chemscore.Lipo.Weighted>
-15.1009

> <Gold.Chemscore.Internal_Hbond.Weighted>
0.0000

> <Gold.Chemscore.DEClash.Weighted>
0.0086

> <Gold.Chemscore.DEInternal.Weighted>
1.0416

> <Gold.Chemscore.Rot.Weighted>
7.8018

> <Gold.Chemscore.Internal.Correction.Weighted>
   9.000000E+99

> <Gold.Protein.RotatedTorsions>
[ 6907 6896 6895 6894 ] final   81.92 input  -60.11 | X-H torsion
[ 7974 7965 7964 7962 ] final   31.74 input  175.53 | X-H torsion
[ 8008 7997 7996 7995 ] final   93.74 input   59.86 | X-H torsion
[ 10167 10162 10161 10158 ] final   19.04 input  -65.29 | X-H torsion
[ 10718 10713 10712 10709 ] final   84.89 input   66.30 | X-H torsion
[ 10763 10752 10751 10750 ] final   49.62 input  -60.55 | X-H torsion
[ 11005 11000 10999 10996 ] final  177.29 input  -57.11 | X-H torsion

> <Gold.Protein.ActiveResidues>
 VAL166  LYS551  ARG553  GLY616  TRP617  ASP618  TYR619  PRO620  LYS621  CYS622 
 ASP623  PHE694  ASN695  SER759  ASP760  ASP761  ALA762  ILE779  LEU786  VAL792 
 PHE793  MET794  SER795  GLU796  ALA797  LYS798  CYS799  TRP800  GLU811  SER814 

> <Gold.Protein.RotatedAtoms>
  152.5283  134.3130  159.9120 H   0  0  0  0  0  0  0  0  0  0  0  0  # atno 6907 bound_to 6896
  151.3079  133.4087  159.2652 H   0  0  0  0  0  0  0  0  0  0  0  0  # atno 6908 bound_to 6896
  151.0063  134.9378  159.8039 H   0  0  0  0  0  0  0  0  0  0  0  0  # atno 6909 bound_to 6896
  146.1531  139.6617  142.9085 H   0  0  0  0  0  0  0  0  0  0  0  0  # atno 7974 bound_to 7965
  156.0501  140.3309  155.7341 H   0  0  0  0  0  0  0  0  0  0  0  0  # atno 8008 bound_to 7997
  155.5614  140.0619  157.2845 H   0  0  0  0  0  0  0  0  0  0  0  0  # atno 8009 bound_to 7997
  154.4432  140.1877  156.0775 H   0  0  0  0  0  0  0  0  0  0  0  0  # atno 8010 bound_to 7997
  140.5609  143.9339  150.6642 H   0  0  0  0  0  0  0  0  0  0  0  0  # atno 10167 bound_to 10162
  157.6906  131.0152  150.2740 H   0  0  0  0  0  0  0  0  0  0  0  0  # atno 10718 bound_to 10713
  152.9786  135.5906  154.4119 H   0  0  0  0  0  0  0  0  0  0  0  0  # atno 10763 bound_to 10752
  154.3753  135.2767  155.2245 H   0  0  0  0  0  0  0  0  0  0  0  0  # atno 10764 bound_to 10752
  154.4182  135.6065  153.6048 H   0  0  0  0  0  0  0  0  0  0  0  0  # atno 10765 bound_to 10752
  140.3824  134.6934  157.4459 H   0  0  0  0  0  0  0  0  0  0  0  0  # atno 11005 bound_to 11000
  145.4775  141.0437  143.2664 LP  0  0  0  0  0  0  0  0  0  0  0  0  # atno 17320 bound_to 7965
  144.7929  139.6293  143.7105 LP  0  0  0  0  0  0  0  0  0  0  0  0  # atno 17321 bound_to 7965
  140.2789  143.3403  152.1169 LP  0  0  0  0  0  0  0  0  0  0  0  0  # atno 17342 bound_to 10162
  139.5070  144.6823  151.5976 LP  0  0  0  0  0  0  0  0  0  0  0  0  # atno 17343 bound_to 10162
  156.3298  130.3798  149.7501 LP  0  0  0  0  0  0  0  0  0  0  0  0  # atno 17370 bound_to 10713
  156.5044  130.8143  151.3145 LP  0  0  0  0  0  0  0  0  0  0  0  0  # atno 17371 bound_to 10713
  140.0468  134.6188  155.8911 LP  0  0  0  0  0  0  0  0  0  0  0  0  # atno 17394 bound_to 11000
  141.1919  133.6573  156.5476 LP  0  0  0  0  0  0  0  0  0  0  0  0  # atno 17395 bound_to 11000

$$$$
