AV-unprocessed.smi:2047|AV-procd|sdf|8318|dock5
  -GOLD-   2272010583D 1   1.00000     0.00000
 Structure written by MMmdl.
 43 45  0  0  0  0  0  0  0  0  2 V2000
  149.9633  134.3039  155.8183 O   0  0  0  0  0  0  0  0  0  0  0  0
  149.5547  134.8326  154.7850 C   0  0  0  0  0  0  0  0  0  0  0  0
  148.9867  134.1847  153.7538 N   0  0  0  0  0  0  0  0  0  0  0  0
  148.7077  132.7933  153.6224 C   0  0  0  0  0  0  0  0  0  0  0  0
  149.5115  131.7859  154.2163 C   0  0  0  0  0  0  0  0  0  0  0  0
  149.1612  130.4301  154.0611 C   0  0  0  0  0  0  0  0  0  0  0  0
  148.0084  130.0999  153.3253 C   0  0  0  0  0  0  0  0  0  0  0  0
  147.2557  131.0811  152.7857 N   0  3  0  0  0  0  0  0  0  0  0  0
  147.5489  132.3995  152.9046 C   0  0  0  0  0  0  0  0  0  0  0  0
  146.7001  133.3424  152.2992 N   0  0  0  0  0  0  0  0  0  0  0  0
  145.3652  133.4484  152.8643 C   0  0  0  0  0  0  0  0  0  0  0  0
  144.5438  134.2161  151.8255 C   0  0  0  0  0  0  0  0  0  0  0  0
  145.2991  134.0231  150.5046 C   0  0  0  0  0  0  0  0  0  0  0  0
  146.5189  133.1719  150.8674 C   0  0  0  0  0  0  0  0  0  0  0  0
  149.6393  136.1485  154.5445 N   0  0  0  0  0  0  0  0  0  0  0  0
  150.2000  137.1330  155.4656 C   0  0  1  0  0  0  0  0  0  0  0  0
  151.5642  136.6710  156.0104 C   0  0  0  0  0  0  0  0  0  0  0  0
  152.2612  137.8681  156.6684 C   0  0  0  0  0  0  0  0  0  0  0  0
  151.7064  139.3506  155.7437 S   0  0  0  0  0  0  0  0  0  0  0  0
  151.0876  140.2957  156.6852 O   0  0  0  0  0  0  0  0  0  0  0  0
  152.7689  139.7840  154.8237 O   0  0  0  0  0  0  0  0  0  0  0  0
  150.3985  138.4971  154.7850 C   0  0  0  0  0  0  0  0  0  0  0  0
  148.7827  134.7445  152.9388 H   0  0  0  0  0  0  0  0  0  0  0  0
  150.3848  132.0257  154.8027 H   0  0  0  0  0  0  0  0  0  0  0  0
  149.7674  129.6543  154.5061 H   0  0  0  0  0  0  0  0  0  0  0  0
  147.6645  129.0895  153.1580 H   0  0  0  0  0  0  0  0  0  0  0  0
  144.9335  132.4598  153.0252 H   0  0  0  0  0  0  0  0  0  0  0  0
  145.3856  133.9680  153.8228 H   0  0  0  0  0  0  0  0  0  0  0  0
  143.5176  133.8508  151.7753 H   0  0  0  0  0  0  0  0  0  0  0  0
  144.5067  135.2762  152.0796 H   0  0  0  0  0  0  0  0  0  0  0  0
  144.6862  133.5393  149.7436 H   0  0  0  0  0  0  0  0  0  0  0  0
  145.6137  134.9904  150.1108 H   0  0  0  0  0  0  0  0  0  0  0  0
  147.4067  133.4877  150.3184 H   0  0  0  0  0  0  0  0  0  0  0  0
  146.3298  132.1244  150.6286 H   0  0  0  0  0  0  0  0  0  0  0  0
  149.2873  136.4984  153.6651 H   0  0  0  0  0  0  0  0  0  0  0  0
  149.5291  137.2624  156.3172 H   0  0  0  0  0  0  0  0  0  0  0  0
  151.4628  135.8370  156.7057 H   0  0  0  0  0  0  0  0  0  0  0  0
  152.1826  136.3216  155.1823 H   0  0  0  0  0  0  0  0  0  0  0  0
  151.9408  137.9798  157.7046 H   0  0  0  0  0  0  0  0  0  0  0  0
  153.3485  137.7939  156.6464 H   0  0  0  0  0  0  0  0  0  0  0  0
  150.7599  138.3808  153.7627 H   0  0  0  0  0  0  0  0  0  0  0  0
  149.4911  139.1014  154.7667 H   0  0  0  0  0  0  0  0  0  0  0  0
  146.4225  130.8153  152.2606 H   0  0  0  0  0  0  0  0  0  0  0  0
  1  2  2  0  0  0  0
  2  3  1  0  0  0  0
  2 15  1  0  0  0  0
  3  4  1  0  0  0  0
  3 23  1  0  0  0  0
  4  9  1  0  0  0  0
  4  5  2  0  0  0  0
  5  6  1  0  0  0  0
  5 24  1  0  0  0  0
  6  7  2  0  0  0  0
  6 25  1  0  0  0  0
  7  8  1  0  0  0  0
  7 26  1  0  0  0  0
  8  9  2  0  0  0  0
  8 43  1  0  0  0  0
  9 10  1  0  0  0  0
 10 14  1  0  0  0  0
 10 11  1  0  0  0  0
 11 12  1  0  0  0  0
 11 27  1  0  0  0  0
 11 28  1  0  0  0  0
 12 13  1  0  0  0  0
 12 29  1  0  0  0  0
 12 30  1  0  0  0  0
 13 14  1  0  0  0  0
 13 31  1  0  0  0  0
 13 32  1  0  0  0  0
 14 33  1  0  0  0  0
 14 34  1  0  0  0  0
 15 16  1  0  0  0  0
 15 35  1  0  0  0  0
 16 22  1  0  0  0  0
 16 17  1  0  0  0  0
 16 36  1  0  0  0  0
 17 18  1  0  0  0  0
 17 37  1  0  0  0  0
 17 38  1  0  0  0  0
 18 19  1  0  0  0  0
 18 39  1  0  0  0  0
 18 40  1  0  0  0  0
 19 20  2  0  0  0  0
 19 21  2  0  0  0  0
 19 22  1  0  0  0  0
 22 41  1  0  0  0  0
 22 42  1  0  0  0  0
M  CHG  1   8   1
M  END
> <s_m_source_file>
AV-unprocessed.smi

> <i_m_source_file_index>
2047

> <i_lp_mmshare_version>
43012

> <i_f3d_flags>
0

> <s_epik_input>
Tz1TMSg9TylbQ0gyXVtDSDJdW0NASF0oW0NIMl0xKVtOSF1DKD1PKVtOSF1jMltjSF1bY0hdW2NIXW5jMk4zW0NIMl1bQ0gyXVtDSDJdW0NIMl0z

> <s_epik_cmdline>
J2VwaWtfcHl0aG9uJywgJy1waCcsICc3LjAnLCAnLXRuJywgJzgnLCAnLW1hJywgJzIwMCcsICctbWV0YWxfYmluZGluZycsICctaW1hZScsICc8aW5maWxlLm1hZT4nLCAnLW9tYWUnLCAnPG91dGZpbGUubWFlPic=

> <r_lp_tautomer_probability>
0.999994

> <r_epik_Ionization_Penalty>
1.20225

> <r_epik_Ionization_Penalty_Charging>
1.20223

> <r_epik_Ionization_Penalty_Neutral>
2.10783e-05

> <r_epik_State_Penalty>
1.26794

> <r_epik_Charging_Adjusted_Penalty>
2.47017

> <i_epik_Tot_Q>
1

> <i_epik_Tot_abs_Q>
1

> <r_epik_Metal_State_Penalty>
1.34322

> <b_epik_Metal_Only>
0

> <s_lp_Force_Field>
OPLS_2005

> <r_lp_Energy>
42.594

> <b_lp_Chiralities_Consistent>
1

> <s_lp_Variant>
AV-unprocessed.smi:2047-4

> <Gold.Version>
5.8.1

> <Gold.Id.Protein>
6NUR|6NUR_protein|mol2

> <Gold.PLP.Fitness>
42.8678

> <Gold.PLP.PLP>
-33.7118

> <Gold.PLP.part.hbond>
-4.8994

> <Gold.PLP.part.metal>
0.0000

> <Gold.PLP.part.buried>
-2.7161

> <Gold.PLP.part.nonpolar>
-26.3572

> <Gold.PLP.part.repulsive>
0.2266

> <Gold.PLP.ligand.clash>
0.0000

> <Gold.PLP.ligand.torsion>
0.3916

> <Gold.PLP.Chemscore.Hbond>
3.3060

> <Gold.PLP.Chemscore.CHOScore>
0.0000

> <Gold.PLP.Chemscore.Metal>
0.0000

> <Gold.Chemscore.Hbonds>
donor molecule, donor type, donor heavy atom, donor atom, acceptor molecule, acceptor atom, score
      L1  H     3    23       P1  7948  0.85
      L1  H    15    35       P1  7948  0.98
      P1  H  7989  7998       L1    21  0.48
      P1  H  7997  8008       L1    21  0.99

> <Gold.PLP.Chemscore.Internal.Correction>
0.0211

> <Gold.Rescore>
     Score         DG    S(hbond)    S(metal)    S(lipo)     H(rot)  DE(clash)    DE(int)     intcor
     15.08     -17.63       2.47        0.00      60.81       1.26       0.03       2.52       ----

> <Gold.Chemscore.Fitness>
15.0763

> <Gold.Chemscore.DG>
-17.6324

> <Gold.Chemscore.ZeroCoef>
-5.4800

> <Gold.Chemscore.Hbond>
2.4732

> <Gold.Chemscore.Metal>
0.0000

> <Gold.Chemscore.Lipo>
60.8124

> <Gold.Chemscore.Internal_Hbond>
0.0000

> <Gold.Chemscore.DEClash>
0.0323

> <Gold.Chemscore.DEInternal>
2.5239

> <Gold.Chemscore.Rot>
1.2590

> <Gold.Chemscore.Internal.Correction>
   9.000000E+99

> <Gold.Chemscore.Hbonds>
donor molecule, donor type, donor heavy atom, donor atom, acceptor molecule, acceptor atom, score
      L1  H     3    23       P1  7948  0.14
      L1  H    15    35       P1  7948  0.87
      P1  H  7989  7998       L1    21  0.14
      P1  H  7997  8008       L1    21  0.69

> <Gold.Chemscore.Hbond.Weighted>
-8.2604

> <Gold.Chemscore.Metal.Weighted>
-0.0000

> <Gold.Chemscore.Lipo.Weighted>
-7.1151

> <Gold.Chemscore.Internal_Hbond.Weighted>
0.0000

> <Gold.Chemscore.DEClash.Weighted>
0.0323

> <Gold.Chemscore.DEInternal.Weighted>
2.5239

> <Gold.Chemscore.Rot.Weighted>
3.2231

> <Gold.Chemscore.Internal.Correction.Weighted>
   9.000000E+99

> <Gold.Protein.RotatedTorsions>
[ 6907 6896 6895 6894 ] final   15.77 input  -60.11 | X-H torsion
[ 7974 7965 7964 7962 ] final   -6.16 input  175.53 | X-H torsion
[ 8008 7997 7996 7995 ] final  -14.32 input   59.86 | X-H torsion
[ 10167 10162 10161 10158 ] final  135.35 input  -65.29 | X-H torsion
[ 10718 10713 10712 10709 ] final -135.55 input   66.30 | X-H torsion
[ 10763 10752 10751 10750 ] final  136.49 input  -60.55 | X-H torsion
[ 11005 11000 10999 10996 ] final -110.04 input  -57.11 | X-H torsion

> <Gold.Protein.ActiveResidues>
 VAL166  LYS551  ARG553  GLY616  TRP617  ASP618  TYR619  PRO620  LYS621  CYS622 
 ASP623  PHE694  ASN695  SER759  ASP760  ASP761  ALA762  ILE779  LEU786  VAL792 
 PHE793  MET794  SER795  GLU796  ALA797  LYS798  CYS799  TRP800  GLU811  SER814 

> <Gold.Protein.RotatedAtoms>
  151.8233  135.0645  160.0427 H   0  0  0  0  0  0  0  0  0  0  0  0  # atno 6907 bound_to 6896
  152.2935  133.5580  159.5581 H   0  0  0  0  0  0  0  0  0  0  0  0  # atno 6908 bound_to 6896
  150.7240  134.0311  159.3776 H   0  0  0  0  0  0  0  0  0  0  0  0  # atno 6909 bound_to 6896
  146.2337  140.2129  142.8335 H   0  0  0  0  0  0  0  0  0  0  0  0  # atno 7974 bound_to 7965
  154.5220  140.2226  155.8959 H   0  0  0  0  0  0  0  0  0  0  0  0  # atno 8008 bound_to 7997
  156.1672  140.3129  155.8874 H   0  0  0  0  0  0  0  0  0  0  0  0  # atno 8009 bound_to 7997
  155.3632  140.0462  157.3037 H   0  0  0  0  0  0  0  0  0  0  0  0  # atno 8010 bound_to 7997
  139.5221  144.6521  151.5270 H   0  0  0  0  0  0  0  0  0  0  0  0  # atno 10167 bound_to 10162
  156.2674  130.7245  151.1200 H   0  0  0  0  0  0  0  0  0  0  0  0  # atno 10718 bound_to 10713
  153.8573  135.3072  155.3436 H   0  0  0  0  0  0  0  0  0  0  0  0  # atno 10763 bound_to 10752
  154.7864  135.4807  153.9959 H   0  0  0  0  0  0  0  0  0  0  0  0  # atno 10764 bound_to 10752
  153.1482  135.6838  153.9016 H   0  0  0  0  0  0  0  0  0  0  0  0  # atno 10765 bound_to 10752
  141.0814  133.9213  157.2280 H   0  0  0  0  0  0  0  0  0  0  0  0  # atno 11005 bound_to 11000
  144.9692  140.8352  143.5465 LP  0  0  0  0  0  0  0  0  0  0  0  0  # atno 17320 bound_to 7965
  145.2109  139.2205  143.5143 LP  0  0  0  0  0  0  0  0  0  0  0  0  # atno 17321 bound_to 7965
  140.6331  143.9037  150.6623 LP  0  0  0  0  0  0  0  0  0  0  0  0  # atno 17342 bound_to 10162
  140.2347  143.3708  152.1536 LP  0  0  0  0  0  0  0  0  0  0  0  0  # atno 17343 bound_to 10162
  157.7272  131.0641  150.5876 LP  0  0  0  0  0  0  0  0  0  0  0  0  # atno 17370 bound_to 10713
  156.5969  130.4344  149.5913 LP  0  0  0  0  0  0  0  0  0  0  0  0  # atno 17371 bound_to 10713
  139.9628  135.0150  156.9308 LP  0  0  0  0  0  0  0  0  0  0  0  0  # atno 17394 bound_to 11000
  140.5460  134.0674  155.7355 LP  0  0  0  0  0  0  0  0  0  0  0  0  # atno 17395 bound_to 11000

$$$$
