AV-unprocessed.smi:2758|AV-procd|sdf|10623|dock4
  -GOLD-   2272015 73D 1   1.00000     0.00000
 Structure written by MMmdl.
 32 33  0  0  0  0  0  0  0  0  1 V2000
  147.3602  141.8596  153.7143 C   0  0  0  0  0  0  0  0  0  0  0  0
  148.7555  141.6752  153.8770 O   0  0  0  0  0  0  0  0  0  0  0  0
  149.0660  140.5503  154.6830 C   0  0  0  0  0  0  0  0  0  0  0  0
  149.3991  141.0223  156.1077 C   0  0  2  0  0  0  0  0  0  0  0  0
  148.3795  141.9027  156.5394 O   0  0  0  0  0  0  0  0  0  0  0  0
  150.7574  141.7514  156.1659 C   0  0  0  0  0  0  0  0  0  0  0  0
  151.3071  141.8241  157.5137 N   0  0  0  0  0  0  0  0  0  0  0  0
  151.7127  140.8004  158.3044 C   0  0  0  0  0  0  0  0  0  0  0  0
  151.6437  139.3768  157.8506 C   0  0  0  0  0  0  0  0  0  0  0  0
  152.1814  141.1420  159.5048 N   0  0  0  0  0  0  0  0  0  0  0  0
  152.0729  142.5194  159.4912 C   0  0  0  0  0  0  0  0  0  0  0  0
  152.4084  143.4767  160.4754 C   0  0  0  0  0  0  0  0  0  0  0  0
  152.2080  144.8512  160.2318 C   0  0  0  0  0  0  0  0  0  0  0  0
  151.6699  145.2875  159.0038 C   0  0  0  0  0  0  0  0  0  0  0  0
  151.3284  144.3505  158.0097 C   0  0  0  0  0  0  0  0  0  0  0  0
  151.5307  142.9794  158.2573 C   0  0  0  0  0  0  0  0  0  0  0  0
  149.4254  140.1629  156.7779 H   0  0  0  0  0  0  0  0  0  0  0  0
  147.1766  142.7315  153.0864 H   0  0  0  0  0  0  0  0  0  0  0  0
  146.8690  142.0265  154.6738 H   0  0  0  0  0  0  0  0  0  0  0  0
  146.9024  140.9954  153.2313 H   0  0  0  0  0  0  0  0  0  0  0  0
  148.1898  139.9003  154.7083 H   0  0  0  0  0  0  0  0  0  0  0  0
  149.8859  139.9682  154.2579 H   0  0  0  0  0  0  0  0  0  0  0  0
  148.6363  142.7871  156.3286 H   0  0  0  0  0  0  0  0  0  0  0  0
  151.4817  141.2535  155.5206 H   0  0  0  0  0  0  0  0  0  0  0  0
  150.6581  142.7654  155.7767 H   0  0  0  0  0  0  0  0  0  0  0  0
  151.9800  138.7068  158.6425 H   0  0  0  0  0  0  0  0  0  0  0  0
  152.2834  139.2271  156.9808 H   0  0  0  0  0  0  0  0  0  0  0  0
  150.6206  139.1087  157.5889 H   0  0  0  0  0  0  0  0  0  0  0  0
  152.8204  143.1527  161.4196 H   0  0  0  0  0  0  0  0  0  0  0  0
  152.4677  145.5742  160.9911 H   0  0  0  0  0  0  0  0  0  0  0  0
  151.5186  146.3421  158.8258 H   0  0  0  0  0  0  0  0  0  0  0  0
  150.9142  144.6820  157.0695 H   0  0  0  0  0  0  0  0  0  0  0  0
  1  2  1  0  0  0  0
  1 18  1  0  0  0  0
  1 19  1  0  0  0  0
  1 20  1  0  0  0  0
  2  3  1  0  0  0  0
  3  4  1  0  0  0  0
  3 21  1  0  0  0  0
  3 22  1  0  0  0  0
  4 17  1  0  0  0  0
  4  5  1  0  0  0  0
  4  6  1  0  0  0  0
  5 23  1  0  0  0  0
  6  7  1  0  0  0  0
  6 24  1  0  0  0  0
  6 25  1  0  0  0  0
  7 16  1  0  0  0  0
  7  8  1  0  0  0  0
  8  9  1  0  0  0  0
  8 10  2  0  0  0  0
  9 26  1  0  0  0  0
  9 27  1  0  0  0  0
  9 28  1  0  0  0  0
 10 11  1  0  0  0  0
 11 16  2  0  0  0  0
 11 12  1  0  0  0  0
 12 13  2  0  0  0  0
 12 29  1  0  0  0  0
 13 14  1  0  0  0  0
 13 30  1  0  0  0  0
 14 15  2  0  0  0  0
 14 31  1  0  0  0  0
 15 16  1  0  0  0  0
 15 32  1  0  0  0  0
M  END
> <s_m_source_file>
AV-unprocessed.smi

> <i_m_source_file_index>
2758

> <i_lp_mmshare_version>
43012

> <i_f3d_flags>
0

> <s_epik_input>
W0NIM11PW0NIMl1bQ0BASF0oW09IXSlbQ0gyXW4oYyhuMSlbQ0gzXSljKGMxMilbY0hdW2NIXVtjSF1bY0hdMg==

> <s_epik_cmdline>
J2VwaWtfcHl0aG9uJywgJy1waCcsICc3LjAnLCAnLXRuJywgJzgnLCAnLW1hJywgJzIwMCcsICctbWV0YWxfYmluZGluZycsICctaW1hZScsICc8aW5maWxlLm1hZT4nLCAnLW9tYWUnLCAnPG91dGZpbGUubWFlPic=

> <r_epik_Ionization_Penalty>
0.126985

> <r_epik_Ionization_Penalty_Charging>
0

> <r_epik_Ionization_Penalty_Neutral>
0.126985

> <r_epik_State_Penalty>
0.116428

> <r_epik_Charging_Adjusted_Penalty>
0.116428

> <i_epik_Tot_Q>
0

> <i_epik_Tot_abs_Q>
0

> <r_epik_Metal_State_Penalty>
0.000128642

> <b_epik_Metal_Only>
0

> <s_lp_Force_Field>
OPLS_2005

> <r_lp_Energy>
9.16729

> <b_lp_Chiralities_Consistent>
1

> <s_lp_Variant>
AV-unprocessed.smi:2758-2

> <Gold.Version>
5.8.1

> <Gold.Id.Protein>
6NUR|6NUR_protein|mol2

> <Gold.PLP.Fitness>
42.8097

> <Gold.PLP.PLP>
-39.0553

> <Gold.PLP.part.hbond>
-2.0000

> <Gold.PLP.part.metal>
0.0000

> <Gold.PLP.part.buried>
-6.5961

> <Gold.PLP.part.nonpolar>
-31.0268

> <Gold.PLP.part.repulsive>
0.1897

> <Gold.PLP.ligand.clash>
0.0000

> <Gold.PLP.ligand.torsion>
0.5272

> <Gold.PLP.Chemscore.Hbond>
1.5920

> <Gold.PLP.Chemscore.CHOScore>
0.0000

> <Gold.PLP.Chemscore.Metal>
0.0000

> <Gold.Chemscore.Hbonds>
donor molecule, donor type, donor heavy atom, donor atom, acceptor molecule, acceptor atom, score
      L1  H     5    23       P1  8028  0.94
      P1  H  8011  8017       L1     2  0.61

> <Gold.PLP.Chemscore.Internal.Correction>
0.0329

> <Gold.Rescore>
     Score         DG    S(hbond)    S(metal)    S(lipo)     H(rot)  DE(clash)    DE(int)     intcor
     14.95     -16.73       1.42        0.00     100.66       2.05       0.17       1.62       ----

> <Gold.Chemscore.Fitness>
14.9529

> <Gold.Chemscore.DG>
-16.7347

> <Gold.Chemscore.ZeroCoef>
-5.4800

> <Gold.Chemscore.Hbond>
1.4158

> <Gold.Chemscore.Metal>
0.0000

> <Gold.Chemscore.Lipo>
100.6599

> <Gold.Chemscore.Internal_Hbond>
0.0000

> <Gold.Chemscore.DEClash>
0.1665

> <Gold.Chemscore.DEInternal>
1.6153

> <Gold.Chemscore.Rot>
2.0513

> <Gold.Chemscore.Internal.Correction>
   9.000000E+99

> <Gold.Chemscore.Hbonds>
donor molecule, donor type, donor heavy atom, donor atom, acceptor molecule, acceptor atom, score
      L1  H     5    23       P1  8028  0.87
      P1  H  8011  8017       L1     2  0.47

> <Gold.Chemscore.Hbond.Weighted>
-4.7289

> <Gold.Chemscore.Metal.Weighted>
-0.0000

> <Gold.Chemscore.Lipo.Weighted>
-11.7772

> <Gold.Chemscore.Internal_Hbond.Weighted>
0.0000

> <Gold.Chemscore.DEClash.Weighted>
0.1665

> <Gold.Chemscore.DEInternal.Weighted>
1.6153

> <Gold.Chemscore.Rot.Weighted>
5.2514

> <Gold.Chemscore.Internal.Correction.Weighted>
   9.000000E+99

> <Gold.Protein.RotatedTorsions>
[ 6907 6896 6895 6894 ] final   65.29 input  -60.11 | X-H torsion
[ 7974 7965 7964 7962 ] final   83.38 input  175.53 | X-H torsion
[ 8008 7997 7996 7995 ] final  -19.72 input   59.86 | X-H torsion
[ 10167 10162 10161 10158 ] final -100.83 input  -65.29 | X-H torsion
[ 10718 10713 10712 10709 ] final -134.31 input   66.30 | X-H torsion
[ 10763 10752 10751 10750 ] final  114.88 input  -60.55 | X-H torsion
[ 11005 11000 10999 10996 ] final -161.26 input  -57.11 | X-H torsion

> <Gold.Protein.ActiveResidues>
 VAL166  LYS551  ARG553  GLY616  TRP617  ASP618  TYR619  PRO620  LYS621  CYS622 
 ASP623  PHE694  ASN695  SER759  ASP760  ASP761  ALA762  ILE779  LEU786  VAL792 
 PHE793  MET794  SER795  GLU796  ALA797  LYS798  CYS799  TRP800  GLU811  SER814 

> <Gold.Protein.RotatedAtoms>
  152.4396  134.5617  159.9895 H   0  0  0  0  0  0  0  0  0  0  0  0  # atno 6907 bound_to 6896
  151.5718  133.3383  159.2999 H   0  0  0  0  0  0  0  0  0  0  0  0  # atno 6908 bound_to 6896
  150.8300  134.7582  159.6909 H   0  0  0  0  0  0  0  0  0  0  0  0  # atno 6909 bound_to 6896
  145.6127  139.2371  143.2183 H   0  0  0  0  0  0  0  0  0  0  0  0  # atno 7974 bound_to 7965
  154.4818  140.2081  155.9747 H   0  0  0  0  0  0  0  0  0  0  0  0  # atno 8008 bound_to 7997
  156.1176  140.3219  155.8131 H   0  0  0  0  0  0  0  0  0  0  0  0  # atno 8009 bound_to 7997
  155.4525  140.0518  157.2990 H   0  0  0  0  0  0  0  0  0  0  0  0  # atno 8010 bound_to 7997
  140.2477  143.3494  152.0743 H   0  0  0  0  0  0  0  0  0  0  0  0  # atno 10167 bound_to 10162
  156.2541  130.7171  151.1081 H   0  0  0  0  0  0  0  0  0  0  0  0  # atno 10718 bound_to 10713
  153.5138  135.3612  155.2599 H   0  0  0  0  0  0  0  0  0  0  0  0  # atno 10763 bound_to 10752
  154.8740  135.4029  154.3338 H   0  0  0  0  0  0  0  0  0  0  0  0  # atno 10764 bound_to 10752
  153.3996  135.7074  153.6502 H   0  0  0  0  0  0  0  0  0  0  0  0  # atno 10765 bound_to 10752
  140.6224  134.4737  157.5224 H   0  0  0  0  0  0  0  0  0  0  0  0  # atno 11005 bound_to 11000
  146.1492  140.6949  142.9330 LP  0  0  0  0  0  0  0  0  0  0  0  0  # atno 17320 bound_to 7965
  144.7263  140.4535  143.6970 LP  0  0  0  0  0  0  0  0  0  0  0  0  # atno 17321 bound_to 7965
  139.5056  144.6798  151.6036 LP  0  0  0  0  0  0  0  0  0  0  0  0  # atno 17342 bound_to 10162
  140.6065  143.9515  150.6422 LP  0  0  0  0  0  0  0  0  0  0  0  0  # atno 17343 bound_to 10162
  157.7226  131.0672  150.6072 LP  0  0  0  0  0  0  0  0  0  0  0  0  # atno 17370 bound_to 10713
  156.6154  130.4391  149.5842 LP  0  0  0  0  0  0  0  0  0  0  0  0  # atno 17371 bound_to 10713
  139.9148  134.8269  156.1403 LP  0  0  0  0  0  0  0  0  0  0  0  0  # atno 17394 bound_to 11000
  141.0733  133.6787  156.2185 LP  0  0  0  0  0  0  0  0  0  0  0  0  # atno 17395 bound_to 11000

$$$$
