AV-unprocessed.smi:702|AV-procd|sdf|3416|dock5
  -GOLD-   22720 0403D 1   1.00000     0.00000
 Structure written by MMmdl.
 50 52  0  0  0  0  0  0  0  0  2 V2000
  146.2256  137.0587  155.5563 C   0  0  0  0  0  0  0  0  0  0  0  0
  146.5583  137.7946  154.2384 C   0  0  2  0  0  0  0  0  0  0  0  0
  146.7039  136.7924  153.1777 N   0  0  0  0  0  0  0  0  0  0  0  0
  145.8107  135.8532  152.8320 C   0  0  0  0  0  0  0  0  0  0  0  0
  144.7174  135.7247  153.3794 O   0  0  0  0  0  0  0  0  0  0  0  0
  146.2755  135.0982  151.8210 N   0  0  0  0  0  0  0  0  0  0  0  0
  145.6545  134.0185  151.1323 C   0  0  0  0  0  0  0  0  0  0  0  0
  146.4990  133.0153  150.6127 C   0  0  0  0  0  0  0  0  0  0  0  0
  145.9249  131.9326  149.9174 C   0  0  0  0  0  0  0  0  0  0  0  0
  144.5974  131.8021  149.7156 N   0  0  0  0  0  0  0  0  0  0  0  0
  143.7894  132.7638  150.2086 C   0  0  0  0  0  0  0  0  0  0  0  0
  144.2602  133.8876  150.9174 C   0  0  0  0  0  0  0  0  0  0  0  0
  147.8011  138.7643  154.2733 C   0  0  0  0  0  0  0  0  0  0  0  0
  149.0828  137.9573  154.2938 N   0  3  0  0  0  0  0  0  0  0  0  0
  150.3441  138.7559  154.2452 C   0  0  0  0  0  0  0  0  0  0  0  0
  151.5553  137.8339  154.0327 C   0  0  0  0  0  0  0  0  0  0  0  0
  151.6247  136.8944  155.0953 O   0  0  0  0  0  0  0  0  0  0  0  0
  150.4696  136.0697  155.1428 C   0  0  0  0  0  0  0  0  0  0  0  0
  149.2174  136.9334  155.3736 C   0  0  0  0  0  0  0  0  0  0  0  0
  147.7988  139.7599  153.0753 C   0  0  0  0  0  0  0  0  0  0  0  0
  147.3772  141.1211  153.6318 C   0  0  0  0  0  0  0  0  0  0  0  0
  147.9299  141.1187  155.0518 C   0  0  0  0  0  0  0  0  0  0  0  0
  147.6810  139.6879  155.5295 C   0  0  0  0  0  0  0  0  0  0  0  0
  146.0371  137.7505  156.3760 H   0  0  0  0  0  0  0  0  0  0  0  0
  147.0063  136.3712  155.8775 H   0  0  0  0  0  0  0  0  0  0  0  0
  145.3176  136.4662  155.4386 H   0  0  0  0  0  0  0  0  0  0  0  0
  145.6556  138.3716  154.0512 H   0  0  0  0  0  0  0  0  0  0  0  0
  147.5760  136.8111  152.6689 H   0  0  0  0  0  0  0  0  0  0  0  0
  147.2100  135.3163  151.5077 H   0  0  0  0  0  0  0  0  0  0  0  0
  147.5703  133.0677  150.7427 H   0  0  0  0  0  0  0  0  0  0  0  0
  146.5499  131.1510  149.5114 H   0  0  0  0  0  0  0  0  0  0  0  0
  142.7320  132.6359  150.0301 H   0  0  0  0  0  0  0  0  0  0  0  0
  143.5430  134.6113  151.2688 H   0  0  0  0  0  0  0  0  0  0  0  0
  150.3467  139.4902  153.4455 H   0  0  0  0  0  0  0  0  0  0  0  0
  150.4791  139.3140  155.1719 H   0  0  0  0  0  0  0  0  0  0  0  0
  151.4923  137.3189  153.0726 H   0  0  0  0  0  0  0  0  0  0  0  0
  152.4751  138.4189  154.0205 H   0  0  0  0  0  0  0  0  0  0  0  0
  150.3803  135.4931  154.2205 H   0  0  0  0  0  0  0  0  0  0  0  0
  150.5847  135.3523  155.9554 H   0  0  0  0  0  0  0  0  0  0  0  0
  149.2849  137.4166  156.3484 H   0  0  0  0  0  0  0  0  0  0  0  0
  148.3706  136.2546  155.4244 H   0  0  0  0  0  0  0  0  0  0  0  0
  148.7952  139.8856  152.6548 H   0  0  0  0  0  0  0  0  0  0  0  0
  147.1686  139.4368  152.2468 H   0  0  0  0  0  0  0  0  0  0  0  0
  147.7558  141.9523  153.0362 H   0  0  0  0  0  0  0  0  0  0  0  0
  146.2896  141.1983  153.6568 H   0  0  0  0  0  0  0  0  0  0  0  0
  148.9994  141.3311  155.0352 H   0  0  0  0  0  0  0  0  0  0  0  0
  147.4516  141.8630  155.6890 H   0  0  0  0  0  0  0  0  0  0  0  0
  146.6751  139.6696  155.9423 H   0  0  0  0  0  0  0  0  0  0  0  0
  148.3038  139.3974  156.3737 H   0  0  0  0  0  0  0  0  0  0  0  0
  149.0629  137.4305  153.4321 H   0  0  0  0  0  0  0  0  0  0  0  0
  1  2  1  0  0  0  0
  1 24  1  0  0  0  0
  1 25  1  0  0  0  0
  1 26  1  0  0  0  0
  2  3  1  0  0  0  0
  2 13  1  0  0  0  0
  2 27  1  0  0  0  0
  3  4  1  0  0  0  0
  3 28  1  0  0  0  0
  4  5  2  0  0  0  0
  4  6  1  0  0  0  0
  6  7  1  0  0  0  0
  6 29  1  0  0  0  0
  7 12  1  0  0  0  0
  7  8  2  0  0  0  0
  8  9  1  0  0  0  0
  8 30  1  0  0  0  0
  9 10  2  0  0  0  0
  9 31  1  0  0  0  0
 10 11  1  0  0  0  0
 11 12  2  0  0  0  0
 11 32  1  0  0  0  0
 12 33  1  0  0  0  0
 13 23  1  0  0  0  0
 13 14  1  0  0  0  0
 13 20  1  0  0  0  0
 14 19  1  0  0  0  0
 14 15  1  0  0  0  0
 14 50  1  0  0  0  0
 15 16  1  0  0  0  0
 15 34  1  0  0  0  0
 15 35  1  0  0  0  0
 16 17  1  0  0  0  0
 16 36  1  0  0  0  0
 16 37  1  0  0  0  0
 17 18  1  0  0  0  0
 18 19  1  0  0  0  0
 18 38  1  0  0  0  0
 18 39  1  0  0  0  0
 19 40  1  0  0  0  0
 19 41  1  0  0  0  0
 20 21  1  0  0  0  0
 20 42  1  0  0  0  0
 20 43  1  0  0  0  0
 21 22  1  0  0  0  0
 21 44  1  0  0  0  0
 21 45  1  0  0  0  0
 22 23  1  0  0  0  0
 22 46  1  0  0  0  0
 22 47  1  0  0  0  0
 23 48  1  0  0  0  0
 23 49  1  0  0  0  0
M  CHG  1  14   1
M  END
> <s_m_source_file>
AV-unprocessed.smi

> <i_m_source_file_index>
702

> <i_lp_mmshare_version>
43012

> <i_f3d_flags>
0

> <s_epik_input>
W0NIMl0xW0NIMl1PW0NIMl1bQ0gyXU4xQzIoW0NIMl1bQ0gyXVtDSDJdW0NIMl0yKVtDQEhdKFtDSDNdKVtOSF1DKD1PKVtOSF1jM1tjSF1bY0hdbltjSF1bY0hdMw==

> <s_epik_cmdline>
J2VwaWtfcHl0aG9uJywgJy1waCcsICc3LjAnLCAnLXRuJywgJzgnLCAnLW1hJywgJzIwMCcsICctbWV0YWxfYmluZGluZycsICctaW1hZScsICc8aW5maWxlLm1hZT4nLCAnLW9tYWUnLCAnPG91dGZpbGUubWFlPic=

> <r_epik_Ionization_Penalty>
0.42559

> <r_epik_Ionization_Penalty_Charging>
0.324387

> <r_epik_Ionization_Penalty_Neutral>
0.101203

> <r_epik_State_Penalty>
0.407162

> <r_epik_Charging_Adjusted_Penalty>
0.731549

> <i_epik_Tot_Q>
1

> <i_epik_Tot_abs_Q>
1

> <r_epik_Metal_State_Penalty>
0.398289

> <b_epik_Metal_Only>
0

> <s_lp_Force_Field>
OPLS_2005

> <r_lp_Energy>
61.5271

> <b_lp_Chiralities_Consistent>
1

> <s_lp_Variant>
AV-unprocessed.smi:702-1

> <Gold.Version>
5.8.1

> <Gold.Id.Protein>
6NUR|6NUR_protein|mol2

> <Gold.PLP.Fitness>
54.3612

> <Gold.PLP.PLP>
-34.4718

> <Gold.PLP.part.hbond>
-4.9332

> <Gold.PLP.part.metal>
0.0000

> <Gold.PLP.part.buried>
-2.3002

> <Gold.PLP.part.nonpolar>
-28.3364

> <Gold.PLP.part.repulsive>
0.3714

> <Gold.PLP.ligand.clash>
0.0000

> <Gold.PLP.ligand.torsion>
0.4852

> <Gold.PLP.Chemscore.Hbond>
5.0780

> <Gold.PLP.Chemscore.CHOScore>
1.8186

> <Gold.PLP.Chemscore.Metal>
0.0000

> <Gold.Chemscore.Hbonds>
donor molecule, donor type, donor heavy atom, donor atom, acceptor molecule, acceptor atom, score
      L1  H     3    28       P1  7948  1.00
      L1  H     6    29       P1  7948  1.00
      L1  H    14    50       P1  7948  2.00
      P1  H 10752 10765       L1    17  1.00
      P1  H 10785 10796       L1    10  0.08
      L1  C     9    31       P1 10747  0.83
      L1  C    11    32       P1 10186  0.97

> <Gold.PLP.Chemscore.Internal.Correction>
0.1698

> <Gold.Rescore>
     Score         DG    S(hbond)    S(metal)    S(lipo)     H(rot)  DE(clash)    DE(int)     intcor
     20.16     -23.41       3.02        0.00      98.63       1.45       1.70       1.55       ----

> <Gold.Chemscore.Fitness>
20.1556

> <Gold.Chemscore.DG>
-23.4102

> <Gold.Chemscore.ZeroCoef>
-5.4800

> <Gold.Chemscore.Hbond>
3.0248

> <Gold.Chemscore.Metal>
0.0000

> <Gold.Chemscore.Lipo>
98.6331

> <Gold.Chemscore.Internal_Hbond>
0.0000

> <Gold.Chemscore.DEClash>
1.7019

> <Gold.Chemscore.DEInternal>
1.5527

> <Gold.Chemscore.Rot>
1.4504

> <Gold.Chemscore.Internal.Correction>
   9.000000E+99

> <Gold.Chemscore.Hbonds>
donor molecule, donor type, donor heavy atom, donor atom, acceptor molecule, acceptor atom, score
      L1  H     3    28       P1  7948  0.99
      L1  H     6    29       P1  7948  0.87
      L1  H    14    50       P1  7948  0.99
      P1  H 10752 10765       L1    17  0.07
      P1  H 10785 10796       L1    10  0.06

> <Gold.Chemscore.Hbond.Weighted>
-10.1030

> <Gold.Chemscore.Metal.Weighted>
-0.0000

> <Gold.Chemscore.Lipo.Weighted>
-11.5401

> <Gold.Chemscore.Internal_Hbond.Weighted>
0.0000

> <Gold.Chemscore.DEClash.Weighted>
1.7019

> <Gold.Chemscore.DEInternal.Weighted>
1.5527

> <Gold.Chemscore.Rot.Weighted>
3.7129

> <Gold.Chemscore.Internal.Correction.Weighted>
   9.000000E+99

> <Gold.Protein.RotatedTorsions>
[ 6907 6896 6895 6894 ] final  -23.97 input  -60.11 | X-H torsion
[ 7974 7965 7964 7962 ] final  118.23 input  175.53 | X-H torsion
[ 8008 7997 7996 7995 ] final -176.21 input   59.86 | X-H torsion
[ 10167 10162 10161 10158 ] final   62.86 input  -65.29 | X-H torsion
[ 10718 10713 10712 10709 ] final  -68.63 input   66.30 | X-H torsion
[ 10763 10752 10751 10750 ] final  165.75 input  -60.55 | X-H torsion
[ 11005 11000 10999 10996 ] final  -84.23 input  -57.11 | X-H torsion

> <Gold.Protein.ActiveResidues>
 VAL166  LYS551  ARG553  GLY616  TRP617  ASP618  TYR619  PRO620  LYS621  CYS622 
 ASP623  PHE694  ASN695  SER759  ASP760  ASP761  ALA762  ILE779  LEU786  VAL792 
 PHE793  MET794  SER795  GLU796  ALA797  LYS798  CYS799  TRP800  GLU811  SER814 

> <Gold.Protein.RotatedAtoms>
  151.1963  135.0424  159.8853 H   0  0  0  0  0  0  0  0  0  0  0  0  # atno 6907 bound_to 6896
  152.5436  134.0900  159.8283 H   0  0  0  0  0  0  0  0  0  0  0  0  # atno 6908 bound_to 6896
  151.1035  133.5178  159.2641 H   0  0  0  0  0  0  0  0  0  0  0  0  # atno 6909 bound_to 6896
  145.1577  139.3173  143.4533 H   0  0  0  0  0  0  0  0  0  0  0  0  # atno 7974 bound_to 7965
  155.9921  140.1203  157.0628 H   0  0  0  0  0  0  0  0  0  0  0  0  # atno 8008 bound_to 7997
  154.4215  140.1123  156.5648 H   0  0  0  0  0  0  0  0  0  0  0  0  # atno 8009 bound_to 7997
  155.6329  140.3473  155.4691 H   0  0  0  0  0  0  0  0  0  0  0  0  # atno 8010 bound_to 7997
  140.1393  144.4569  150.6820 H   0  0  0  0  0  0  0  0  0  0  0  0  # atno 10167 bound_to 10162
  156.0495  130.4298  150.2029 H   0  0  0  0  0  0  0  0  0  0  0  0  # atno 10718 bound_to 10713
  154.3287  135.2755  155.2483 H   0  0  0  0  0  0  0  0  0  0  0  0  # atno 10763 bound_to 10752
  154.4804  135.5860  153.6389 H   0  0  0  0  0  0  0  0  0  0  0  0  # atno 10764 bound_to 10752
  152.9869  135.6110  154.3478 H   0  0  0  0  0  0  0  0  0  0  0  0  # atno 10765 bound_to 10752
  141.1652  133.7335  156.8838 H   0  0  0  0  0  0  0  0  0  0  0  0  # atno 11005 bound_to 11000
  146.3486  140.1676  142.8590 LP  0  0  0  0  0  0  0  0  0  0  0  0  # atno 17320 bound_to 7965
  145.0363  140.8911  143.5079 LP  0  0  0  0  0  0  0  0  0  0  0  0  # atno 17321 bound_to 7965
  140.6770  143.2309  151.5482 LP  0  0  0  0  0  0  0  0  0  0  0  0  # atno 17342 bound_to 10162
  139.5480  144.2470  152.1478 LP  0  0  0  0  0  0  0  0  0  0  0  0  # atno 17343 bound_to 10162
  157.0114  130.9952  151.3365 LP  0  0  0  0  0  0  0  0  0  0  0  0  # atno 17370 bound_to 10713
  157.5407  130.8118  149.8026 LP  0  0  0  0  0  0  0  0  0  0  0  0  # atno 17371 bound_to 10713
  140.1697  134.9109  157.2817 LP  0  0  0  0  0  0  0  0  0  0  0  0  # atno 17394 bound_to 11000
  140.2517  134.3676  155.7440 LP  0  0  0  0  0  0  0  0  0  0  0  0  # atno 17395 bound_to 11000

$$$$
