AV-unprocessed.smi:286|AV-procd|sdf|2175|dock3
  -GOLD-   2262021533D 1   1.00000     0.00000
 Structure written by MMmdl.
 46 48  0  0  0  0  0  0  0  0  1 V2000
  152.6052  136.8815  160.0846 O   0  0  0  0  0  0  0  0  0  0  0  0
  152.7650  138.1021  160.1403 C   0  0  0  0  0  0  0  0  0  0  0  0
  152.2593  139.0239  159.1297 C   0  0  0  0  0  0  0  0  0  0  0  0
  151.5436  138.5501  158.0957 F   0  0  0  0  0  0  0  0  0  0  0  0
  152.4966  140.3505  159.2159 C   0  0  0  0  0  0  0  0  0  0  0  0
  153.2316  140.9255  160.2370 N   0  0  0  0  0  0  0  0  0  0  0  0
  153.4120  142.4281  160.2500 C   0  0  2  0  0  0  0  0  0  0  0  0
  152.6842  143.1297  161.4066 C   0  0  0  0  0  0  0  0  0  0  0  0
  152.2663  144.4264  160.7474 C   0  0  0  0  0  0  0  0  0  0  0  0
  151.9728  143.9779  159.3197 C   0  0  0  0  0  0  0  0  0  0  0  0
  152.9319  142.9591  159.0487 O   0  0  0  0  0  0  0  0  0  0  0  0
  153.7255  140.1121  161.2845 C   0  0  0  0  0  0  0  0  0  0  0  0
  154.3557  140.5959  162.2261 O   0  0  0  0  0  0  0  0  0  0  0  0
  153.4712  138.7221  161.2004 N   0  0  0  0  0  0  0  0  0  0  0  0
  154.0092  137.8646  162.2444 C   0  0  0  0  0  0  0  0  0  0  0  0
  154.8338  136.6770  161.6846 C   0  0  1  0  0  0  0  0  0  0  0  0
  156.1572  137.1555  161.5317 O   0  0  0  0  0  0  0  0  0  0  0  0
  154.8632  135.4309  162.6123 C   0  0  0  0  0  0  0  0  0  0  0  0
  154.6864  134.1109  161.8182 C   0  0  0  0  0  0  0  0  0  0  0  0
  154.7007  132.8729  162.7295 C   0  0  0  0  0  0  0  0  0  0  0  0
  153.6216  132.9701  163.8146 C   0  0  0  0  0  0  0  0  0  0  0  0
  153.7858  134.2619  164.6249 C   0  0  0  0  0  0  0  0  0  0  0  0
  153.7737  135.4992  163.7126 C   0  0  0  0  0  0  0  0  0  0  0  0
  152.0943  140.9855  158.4401 H   0  0  0  0  0  0  0  0  0  0  0  0
  154.4881  142.6023  160.2864 H   0  0  0  0  0  0  0  0  0  0  0  0
  151.8113  142.5665  161.7340 H   0  0  0  0  0  0  0  0  0  0  0  0
  153.3493  143.2688  162.2591 H   0  0  0  0  0  0  0  0  0  0  0  0
  151.4105  144.8974  161.2316 H   0  0  0  0  0  0  0  0  0  0  0  0
  153.0963  145.1339  160.7540 H   0  0  0  0  0  0  0  0  0  0  0  0
  150.9684  143.5601  159.2479 H   0  0  0  0  0  0  0  0  0  0  0  0
  152.0482  144.7945  158.6013 H   0  0  0  0  0  0  0  0  0  0  0  0
  154.5785  138.4794  162.9443 H   0  0  0  0  0  0  0  0  0  0  0  0
  153.1563  137.5451  162.8409 H   0  0  0  0  0  0  0  0  0  0  0  0
  154.4616  136.3773  160.7037 H   0  0  0  0  0  0  0  0  0  0  0  0
  156.5716  137.1684  162.3813 H   0  0  0  0  0  0  0  0  0  0  0  0
  155.8380  135.3978  163.1017 H   0  0  0  0  0  0  0  0  0  0  0  0
  153.7486  134.1408  161.2618 H   0  0  0  0  0  0  0  0  0  0  0  0
  155.4777  133.9963  161.0772 H   0  0  0  0  0  0  0  0  0  0  0  0
  154.5488  131.9716  162.1350 H   0  0  0  0  0  0  0  0  0  0  0  0
  155.6817  132.7737  163.1959 H   0  0  0  0  0  0  0  0  0  0  0  0
  152.6335  132.9491  163.3531 H   0  0  0  0  0  0  0  0  0  0  0  0
  153.6755  132.1043  164.4751 H   0  0  0  0  0  0  0  0  0  0  0  0
  152.9887  134.3389  165.3649 H   0  0  0  0  0  0  0  0  0  0  0  0
  154.7226  134.2282  165.1824 H   0  0  0  0  0  0  0  0  0  0  0  0
  153.9000  136.3787  164.3407 H   0  0  0  0  0  0  0  0  0  0  0  0
  152.7911  135.5973  163.2488 H   0  0  0  0  0  0  0  0  0  0  0  0
  1  2  2  0  0  0  0
  2 14  1  0  0  0  0
  2  3  1  0  0  0  0
  3  4  1  0  0  0  0
  3  5  2  0  0  0  0
  5  6  1  0  0  0  0
  5 24  1  0  0  0  0
  6  7  1  0  0  0  0
  6 12  1  0  0  0  0
  7 11  1  0  0  0  0
  7  8  1  0  0  0  0
  7 25  1  0  0  0  0
  8  9  1  0  0  0  0
  8 26  1  0  0  0  0
  8 27  1  0  0  0  0
  9 10  1  0  0  0  0
  9 28  1  0  0  0  0
  9 29  1  0  0  0  0
 10 11  1  0  0  0  0
 10 30  1  0  0  0  0
 10 31  1  0  0  0  0
 12 13  2  0  0  0  0
 12 14  1  0  0  0  0
 14 15  1  0  0  0  0
 15 16  1  0  0  0  0
 15 32  1  0  0  0  0
 15 33  1  0  0  0  0
 16 17  1  0  0  0  0
 16 18  1  0  0  0  0
 16 34  1  0  0  0  0
 17 35  1  0  0  0  0
 18 23  1  0  0  0  0
 18 19  1  0  0  0  0
 18 36  1  0  0  0  0
 19 20  1  0  0  0  0
 19 37  1  0  0  0  0
 19 38  1  0  0  0  0
 20 21  1  0  0  0  0
 20 39  1  0  0  0  0
 20 40  1  0  0  0  0
 21 22  1  0  0  0  0
 21 41  1  0  0  0  0
 21 42  1  0  0  0  0
 22 23  1  0  0  0  0
 22 43  1  0  0  0  0
 22 44  1  0  0  0  0
 23 45  1  0  0  0  0
 23 46  1  0  0  0  0
M  END
> <s_m_source_file>
AV-unprocessed.smi

> <i_m_source_file_index>
286

> <i_lp_mmshare_version>
43012

> <i_f3d_flags>
0

> <s_epik_input>
TzFbQ0gyXVtDSDJdW0NIMl1bQ0BIXTFuKFtjSF1jKEYpYzI9TyljKD1PKW4yW0NIMl1bQ0BIXShbT0hdKVtDSF0zW0NIMl1bQ0gyXVtDSDJdW0NIMl1bQ0gyXTM=

> <s_epik_cmdline>
J2VwaWtfcHl0aG9uJywgJy1waCcsICc3LjAnLCAnLXRuJywgJzgnLCAnLW1hJywgJzIwMCcsICctbWV0YWxfYmluZGluZycsICctaW1hZScsICc8aW5maWxlLm1hZT4nLCAnLW9tYWUnLCAnPG91dGZpbGUubWFlPic=

> <r_lp_tautomer_probability>
1

> <r_epik_Ionization_Penalty>
3.15564e-07

> <r_epik_Ionization_Penalty_Charging>
2.06416e-08

> <r_epik_Ionization_Penalty_Neutral>
2.94923e-07

> <r_epik_State_Penalty>
-0

> <r_epik_Charging_Adjusted_Penalty>
2.06416e-08

> <i_epik_Tot_Q>
0

> <i_epik_Tot_abs_Q>
0

> <r_epik_Metal_State_Penalty>
-0

> <b_epik_Metal_Only>
0

> <s_epik_Chemistry_Notes>
This compound contains an acetal/aminal-like group ( X-CH(R)-Y where X, Y are N, S, or O) that may be acid/base labile, releasing an aldehyde.

> <s_lp_Force_Field>
OPLS_2005

> <r_lp_Energy>
37.1896

> <b_lp_Chiralities_Consistent>
1

> <s_lp_Variant>
AV-unprocessed.smi:286-3

> <Gold.Version>
5.8.1

> <Gold.Id.Protein>
6NUR|6NUR_protein|mol2

> <Gold.PLP.Fitness>
42.6861

> <Gold.PLP.PLP>
-43.1542

> <Gold.PLP.part.hbond>
-1.1726

> <Gold.PLP.part.metal>
0.0000

> <Gold.PLP.part.buried>
-6.3597

> <Gold.PLP.part.nonpolar>
-35.8945

> <Gold.PLP.part.repulsive>
0.0000

> <Gold.PLP.ligand.clash>
0.0000

> <Gold.PLP.ligand.torsion>
1.7578

> <Gold.PLP.Chemscore.Hbond>
1.0000

> <Gold.PLP.Chemscore.CHOScore>
0.0000

> <Gold.PLP.Chemscore.Metal>
0.0000

> <Gold.Chemscore.Hbonds>
donor molecule, donor type, donor heavy atom, donor atom, acceptor molecule, acceptor atom, score
      P1  H  6896  6908       L1     1  1.00

> <Gold.PLP.Chemscore.Internal.Correction>
0.0476

> <Gold.Rescore>
     Score         DG    S(hbond)    S(metal)    S(lipo)     H(rot)  DE(clash)    DE(int)     intcor
     11.62     -14.77       0.99        0.00     100.82       2.28       0.09       3.05       ----

> <Gold.Chemscore.Fitness>
11.6233

> <Gold.Chemscore.DG>
-14.7692

> <Gold.Chemscore.ZeroCoef>
-5.4800

> <Gold.Chemscore.Hbond>
0.9937

> <Gold.Chemscore.Metal>
0.0000

> <Gold.Chemscore.Lipo>
100.8165

> <Gold.Chemscore.Internal_Hbond>
0.0000

> <Gold.Chemscore.DEClash>
0.0929

> <Gold.Chemscore.DEInternal>
3.0530

> <Gold.Chemscore.Rot>
2.2756

> <Gold.Chemscore.Internal.Correction>
   9.000000E+99

> <Gold.Chemscore.Hbonds>
donor molecule, donor type, donor heavy atom, donor atom, acceptor molecule, acceptor atom, score
      P1  H  6896  6908       L1     1  1.00

> <Gold.Chemscore.Hbond.Weighted>
-3.3191

> <Gold.Chemscore.Metal.Weighted>
-0.0000

> <Gold.Chemscore.Lipo.Weighted>
-11.7955

> <Gold.Chemscore.Internal_Hbond.Weighted>
0.0000

> <Gold.Chemscore.DEClash.Weighted>
0.0929

> <Gold.Chemscore.DEInternal.Weighted>
3.0530

> <Gold.Chemscore.Rot.Weighted>
5.8254

> <Gold.Chemscore.Internal.Correction.Weighted>
   9.000000E+99

> <Gold.Protein.RotatedTorsions>
[ 6907 6896 6895 6894 ] final  -95.37 input  -60.11 | X-H torsion
[ 7974 7965 7964 7962 ] final  153.28 input  175.53 | X-H torsion
[ 8008 7997 7996 7995 ] final   62.34 input   59.86 | X-H torsion
[ 10167 10162 10161 10158 ] final  -93.81 input  -65.29 | X-H torsion
[ 10718 10713 10712 10709 ] final  -24.82 input   66.30 | X-H torsion
[ 10763 10752 10751 10750 ] final   89.58 input  -60.55 | X-H torsion
[ 11005 11000 10999 10996 ] final   -0.17 input  -57.11 | X-H torsion

> <Gold.Protein.ActiveResidues>
 VAL166  LYS551  ARG553  GLY616  TRP617  ASP618  TYR619  PRO620  LYS621  CYS622 
 ASP623  PHE694  ASN695  SER759  ASP760  ASP761  ALA762  ILE779  LEU786  VAL792 
 PHE793  MET794  SER795  GLU796  ALA797  LYS798  CYS799  TRP800  GLU811  SER814 

> <Gold.Protein.RotatedAtoms>
  150.6962  134.1668  159.4196 H   0  0  0  0  0  0  0  0  0  0  0  0  # atno 6907 bound_to 6896
  151.9647  135.0104  160.0559 H   0  0  0  0  0  0  0  0  0  0  0  0  # atno 6908 bound_to 6896
  152.1895  133.4728  159.5037 H   0  0  0  0  0  0  0  0  0  0  0  0  # atno 6909 bound_to 6896
  144.8165  139.6780  143.6119 H   0  0  0  0  0  0  0  0  0  0  0  0  # atno 7974 bound_to 7965
  155.6127  140.3495  155.4627 H   0  0  0  0  0  0  0  0  0  0  0  0  # atno 8008 bound_to 7997
  156.0141  140.1239  157.0448 H   0  0  0  0  0  0  0  0  0  0  0  0  # atno 8009 bound_to 7997
  154.4291  140.1075  156.5858 H   0  0  0  0  0  0  0  0  0  0  0  0  # atno 8010 bound_to 7997
  140.3209  143.3050  152.0048 H   0  0  0  0  0  0  0  0  0  0  0  0  # atno 10167 bound_to 10162
  156.4725  130.4527  149.6860 H   0  0  0  0  0  0  0  0  0  0  0  0  # atno 10718 bound_to 10713
  153.1886  135.4465  155.0120 H   0  0  0  0  0  0  0  0  0  0  0  0  # atno 10763 bound_to 10752
  154.8076  135.3281  154.7393 H   0  0  0  0  0  0  0  0  0  0  0  0  # atno 10764 bound_to 10752
  153.7849  135.6974  153.4937 H   0  0  0  0  0  0  0  0  0  0  0  0  # atno 10765 bound_to 10752
  140.6333  133.9556  155.8286 H   0  0  0  0  0  0  0  0  0  0  0  0  # atno 11005 bound_to 11000
  146.2468  139.6116  142.9454 LP  0  0  0  0  0  0  0  0  0  0  0  0  # atno 17320 bound_to 7965
  145.5203  141.0432  143.2439 LP  0  0  0  0  0  0  0  0  0  0  0  0  # atno 17321 bound_to 7965
  139.4874  144.6312  151.7066 LP  0  0  0  0  0  0  0  0  0  0  0  0  # atno 17342 bound_to 10162
  140.5485  144.0464  150.6117 LP  0  0  0  0  0  0  0  0  0  0  0  0  # atno 17343 bound_to 10162
  156.3604  130.7478  151.2449 LP  0  0  0  0  0  0  0  0  0  0  0  0  # atno 17370 bound_to 10713
  157.7490  131.0352  150.4352 LP  0  0  0  0  0  0  0  0  0  0  0  0  # atno 17371 bound_to 10713
  141.0660  134.0276  157.3593 LP  0  0  0  0  0  0  0  0  0  0  0  0  # atno 17394 bound_to 11000
  139.9108  135.0189  156.7682 LP  0  0  0  0  0  0  0  0  0  0  0  0  # atno 17395 bound_to 11000

$$$$
