AV-unprocessed.smi:1027|AV-procd|sdf|4469|dock10
  -GOLD-   22720 2443D 1   1.00000     0.00000
 Structure written by MMmdl.
 35 36  0  0  0  0  0  0  0  0  1 V2000
  146.0415  133.8957  152.1289 C   0  0  0  0  0  0  0  0  0  0  0  0
  144.9999  135.0221  152.0017 C   0  0  0  0  0  0  0  0  0  0  0  0
  145.0634  135.6165  150.5811 C   0  0  0  0  0  0  0  0  0  0  0  0
  145.1617  136.1023  153.1056 C   0  0  2  0  0  0  0  0  0  0  0  0
  144.1953  137.2885  152.9440 C   0  0  0  0  0  0  0  0  0  0  0  0
  146.5253  136.6343  153.1152 N   0  0  0  0  0  0  0  0  0  0  0  0
  146.9782  137.6344  153.8867 C   0  0  0  0  0  0  0  0  0  0  0  0
  146.2849  138.2262  154.7144 O   0  0  0  0  0  0  0  0  0  0  0  0
  148.2729  137.8927  153.6321 N   0  0  0  0  0  0  0  0  0  0  0  0
  149.1097  138.8702  154.2324 C   0  0  0  0  0  0  0  0  0  0  0  0
  150.4404  138.9069  154.0793 N   0  0  0  0  0  0  0  0  0  0  0  0
  151.0128  139.9615  154.7765 N   0  0  0  0  0  0  0  0  0  0  0  0
  150.1025  140.6888  155.4349 C   0  0  0  0  0  0  0  0  0  0  0  0
  150.4771  141.8720  156.2634 C   0  0  0  0  0  0  0  0  0  0  0  0
  151.4500  141.7342  157.4120 C   0  0  0  0  0  0  0  0  0  0  0  0
  149.9971  142.0220  157.6907 C   0  0  0  0  0  0  0  0  0  0  0  0
  148.4407  140.1398  155.2427 S   0  0  0  0  0  0  0  0  0  0  0  0
  147.0574  134.2899  152.0923 H   0  0  0  0  0  0  0  0  0  0  0  0
  145.9384  133.1726  151.3193 H   0  0  0  0  0  0  0  0  0  0  0  0
  145.9286  133.3413  153.0600 H   0  0  0  0  0  0  0  0  0  0  0  0
  144.0145  134.5678  152.1154 H   0  0  0  0  0  0  0  0  0  0  0  0
  146.0054  136.1403  150.4145 H   0  0  0  0  0  0  0  0  0  0  0  0
  144.2529  136.3218  150.3983 H   0  0  0  0  0  0  0  0  0  0  0  0
  144.9791  134.8364  149.8241 H   0  0  0  0  0  0  0  0  0  0  0  0
  144.9428  135.6372  154.0686 H   0  0  0  0  0  0  0  0  0  0  0  0
  143.1562  136.9835  153.0644 H   0  0  0  0  0  0  0  0  0  0  0  0
  144.2978  137.7548  151.9636 H   0  0  0  0  0  0  0  0  0  0  0  0
  144.3873  138.0542  153.6967 H   0  0  0  0  0  0  0  0  0  0  0  0
  147.1747  136.2091  152.4700 H   0  0  0  0  0  0  0  0  0  0  0  0
  148.7089  137.3321  152.9149 H   0  0  0  0  0  0  0  0  0  0  0  0
  150.5368  142.7684  155.6496 H   0  0  0  0  0  0  0  0  0  0  0  0
  151.8182  140.7372  157.6460 H   0  0  0  0  0  0  0  0  0  0  0  0
  152.1624  142.5423  157.5645 H   0  0  0  0  0  0  0  0  0  0  0  0
  149.7393  143.0231  158.0298 H   0  0  0  0  0  0  0  0  0  0  0  0
  149.4058  141.2176  158.1236 H   0  0  0  0  0  0  0  0  0  0  0  0
  1  2  1  0  0  0  0
  1 18  1  0  0  0  0
  1 19  1  0  0  0  0
  1 20  1  0  0  0  0
  2  3  1  0  0  0  0
  2  4  1  0  0  0  0
  2 21  1  0  0  0  0
  3 22  1  0  0  0  0
  3 23  1  0  0  0  0
  3 24  1  0  0  0  0
  4  5  1  0  0  0  0
  4  6  1  0  0  0  0
  4 25  1  0  0  0  0
  5 26  1  0  0  0  0
  5 27  1  0  0  0  0
  5 28  1  0  0  0  0
  6  7  1  0  0  0  0
  6 29  1  0  0  0  0
  7  8  2  0  0  0  0
  7  9  1  0  0  0  0
  9 10  1  0  0  0  0
  9 30  1  0  0  0  0
 10 17  1  0  0  0  0
 10 11  2  0  0  0  0
 11 12  1  0  0  0  0
 12 13  2  0  0  0  0
 13 14  1  0  0  0  0
 13 17  1  0  0  0  0
 14 16  1  0  0  0  0
 14 15  1  0  0  0  0
 14 31  1  0  0  0  0
 15 16  1  0  0  0  0
 15 32  1  0  0  0  0
 15 33  1  0  0  0  0
 16 34  1  0  0  0  0
 16 35  1  0  0  0  0
M  END
> <s_m_source_file>
AV-unprocessed.smi

> <i_m_source_file_index>
1027

> <i_lp_mmshare_version>
43012

> <i_f3d_flags>
0

> <s_epik_input>
W0NIM11bQ0hdKFtDSDNdKVtDQEhdKFtDSDNdKVtOSF1DKD1PKVtOSF1jMW5uYyhzMSlbQ0hdMltDSDJdW0NIMl0y

> <s_epik_cmdline>
J2VwaWtfcHl0aG9uJywgJy1waCcsICc3LjAnLCAnLXRuJywgJzgnLCAnLW1hJywgJzIwMCcsICctbWV0YWxfYmluZGluZycsICctaW1hZScsICc8aW5maWxlLm1hZT4nLCAnLW9tYWUnLCAnPG91dGZpbGUubWFlPic=

> <r_lp_tautomer_probability>
1

> <r_epik_Ionization_Penalty>
0.000943246

> <r_epik_Ionization_Penalty_Charging>
0

> <r_epik_Ionization_Penalty_Neutral>
0.000943246

> <r_epik_State_Penalty>
-0

> <r_epik_Charging_Adjusted_Penalty>
0

> <i_epik_Tot_Q>
0

> <i_epik_Tot_abs_Q>
0

> <r_epik_Metal_State_Penalty>
0.281646

> <b_epik_Metal_Only>
0

> <s_lp_Force_Field>
OPLS_2005

> <r_lp_Energy>
3.85842

> <b_lp_Chiralities_Consistent>
1

> <s_lp_Variant>
AV-unprocessed.smi:1027-1

> <Gold.Version>
5.8.1

> <Gold.Id.Protein>
6NUR|6NUR_protein|mol2

> <Gold.PLP.Fitness>
32.0769

> <Gold.PLP.PLP>
-23.6136

> <Gold.PLP.part.hbond>
-2.9764

> <Gold.PLP.part.metal>
0.0000

> <Gold.PLP.part.buried>
-3.6562

> <Gold.PLP.part.nonpolar>
-18.4342

> <Gold.PLP.part.repulsive>
0.3821

> <Gold.PLP.ligand.clash>
0.0000

> <Gold.PLP.ligand.torsion>
0.2088

> <Gold.PLP.Chemscore.Hbond>
2.9120

> <Gold.PLP.Chemscore.CHOScore>
0.0000

> <Gold.PLP.Chemscore.Metal>
0.0000

> <Gold.Chemscore.Hbonds>
donor molecule, donor type, donor heavy atom, donor atom, acceptor molecule, acceptor atom, score
      L1  H     6    29       P1  7948  0.91
      L1  H     9    30       P1  7948  0.99
      P1  H  7989  7998       L1    12  1.00

> <Gold.PLP.Chemscore.Internal.Correction>
0.1450

> <Gold.Rescore>
     Score         DG    S(hbond)    S(metal)    S(lipo)     H(rot)  DE(clash)    DE(int)     intcor
     12.68     -15.62       2.23        0.00      53.41       1.39       0.25       2.70       ----

> <Gold.Chemscore.Fitness>
12.6763

> <Gold.Chemscore.DG>
-15.6220

> <Gold.Chemscore.ZeroCoef>
-5.4800

> <Gold.Chemscore.Hbond>
2.2303

> <Gold.Chemscore.Metal>
0.0000

> <Gold.Chemscore.Lipo>
53.4068

> <Gold.Chemscore.Internal_Hbond>
0.0000

> <Gold.Chemscore.DEClash>
0.2486

> <Gold.Chemscore.DEInternal>
2.6971

> <Gold.Chemscore.Rot>
1.3890

> <Gold.Chemscore.Internal.Correction>
   9.000000E+99

> <Gold.Chemscore.Hbonds>
donor molecule, donor type, donor heavy atom, donor atom, acceptor molecule, acceptor atom, score
      L1  H     6    29       P1  7948  0.88
      L1  H     9    30       P1  7948  0.92
      P1  H  7989  7998       L1    12  0.18

> <Gold.Chemscore.Hbond.Weighted>
-7.4493

> <Gold.Chemscore.Metal.Weighted>
-0.0000

> <Gold.Chemscore.Lipo.Weighted>
-6.2486

> <Gold.Chemscore.Internal_Hbond.Weighted>
0.0000

> <Gold.Chemscore.DEClash.Weighted>
0.2486

> <Gold.Chemscore.DEInternal.Weighted>
2.6971

> <Gold.Chemscore.Rot.Weighted>
3.5559

> <Gold.Chemscore.Internal.Correction.Weighted>
   9.000000E+99

> <Gold.Protein.RotatedTorsions>
[ 6907 6896 6895 6894 ] final  128.94 input  -60.11 | X-H torsion
[ 7974 7965 7964 7962 ] final -161.88 input  175.53 | X-H torsion
[ 8008 7997 7996 7995 ] final -124.97 input   59.86 | X-H torsion
[ 10167 10162 10161 10158 ] final  119.63 input  -65.29 | X-H torsion
[ 10718 10713 10712 10709 ] final  112.01 input   66.30 | X-H torsion
[ 10763 10752 10751 10750 ] final   54.36 input  -60.55 | X-H torsion
[ 11005 11000 10999 10996 ] final    2.14 input  -57.11 | X-H torsion

> <Gold.Protein.ActiveResidues>
 VAL166  LYS551  ARG553  GLY616  TRP617  ASP618  TYR619  PRO620  LYS621  CYS622 
 ASP623  PHE694  ASN695  SER759  ASP760  ASP761  ALA762  ILE779  LEU786  VAL792 
 PHE793  MET794  SER795  GLU796  ALA797  LYS798  CYS799  TRP800  GLU811  SER814 

> <Gold.Protein.RotatedAtoms>
  152.3671  133.6371  159.6058 H   0  0  0  0  0  0  0  0  0  0  0  0  # atno 6907 bound_to 6896
  150.7642  133.9330  159.3441 H   0  0  0  0  0  0  0  0  0  0  0  0  # atno 6908 bound_to 6896
  151.7158  135.0905  160.0327 H   0  0  0  0  0  0  0  0  0  0  0  0  # atno 6909 bound_to 6896
  144.7376  140.3333  143.6149 H   0  0  0  0  0  0  0  0  0  0  0  0  # atno 7974 bound_to 7965
  155.2056  140.0417  157.2925 H   0  0  0  0  0  0  0  0  0  0  0  0  # atno 8008 bound_to 7997
  154.6045  140.2461  155.7720 H   0  0  0  0  0  0  0  0  0  0  0  0  # atno 8009 bound_to 7997
  156.2342  140.2927  156.0277 H   0  0  0  0  0  0  0  0  0  0  0  0  # atno 8010 bound_to 7997
  139.6033  144.7063  151.3011 H   0  0  0  0  0  0  0  0  0  0  0  0  # atno 10167 bound_to 10162
  157.6415  131.0960  150.6833 H   0  0  0  0  0  0  0  0  0  0  0  0  # atno 10718 bound_to 10713
  152.9804  135.5747  154.4892 H   0  0  0  0  0  0  0  0  0  0  0  0  # atno 10763 bound_to 10752
  154.4429  135.2776  155.1837 H   0  0  0  0  0  0  0  0  0  0  0  0  # atno 10764 bound_to 10752
  154.3497  135.6211  153.5690 H   0  0  0  0  0  0  0  0  0  0  0  0  # atno 10765 bound_to 10752
  140.6076  133.9778  155.8162 H   0  0  0  0  0  0  0  0  0  0  0  0  # atno 11005 bound_to 11000
  145.7449  139.1775  143.2354 LP  0  0  0  0  0  0  0  0  0  0  0  0  # atno 17320 bound_to 7965
  146.1105  140.7434  142.9505 LP  0  0  0  0  0  0  0  0  0  0  0  0  # atno 17321 bound_to 7965
  140.7266  143.6985  150.7864 LP  0  0  0  0  0  0  0  0  0  0  0  0  # atno 17342 bound_to 10162
  140.0566  143.5197  152.2648 LP  0  0  0  0  0  0  0  0  0  0  0  0  # atno 17343 bound_to 10162
  156.7156  130.4665  149.5536 LP  0  0  0  0  0  0  0  0  0  0  0  0  # atno 17370 bound_to 10713
  156.1700  130.6431  151.0826 LP  0  0  0  0  0  0  0  0  0  0  0  0  # atno 17371 bound_to 10713
  141.0830  134.0034  157.3357 LP  0  0  0  0  0  0  0  0  0  0  0  0  # atno 17394 bound_to 11000
  139.9205  135.0200  156.8047 LP  0  0  0  0  0  0  0  0  0  0  0  0  # atno 17395 bound_to 11000

$$$$
