AV-unprocessed.smi:2867|AV-procd|sdf|11023|dock7
  -GOLD-   2272015483D 1   1.00000     0.00000
 Structure written by MMmdl.
 40 42  0  0  0  0  0  0  0  0  1 V2000
  149.1297  140.5545  155.3800 C   0  0  0  0  0  0  0  0  0  0  0  0
  150.0213  141.5903  155.7532 O   0  0  0  0  0  0  0  0  0  0  0  0
  151.1839  141.0970  156.3949 C   0  0  0  0  0  0  0  0  0  0  0  0
  150.8656  140.8409  157.8724 C   0  0  0  0  0  0  0  0  0  0  0  0
  151.9852  140.2105  158.5532 N   0  0  0  0  0  0  0  0  0  0  0  0
  152.7550  140.7325  159.5419 C   0  0  0  0  0  0  0  0  0  0  0  0
  152.5803  142.0693  160.0915 C   0  0  0  0  0  0  0  0  0  0  0  0
  152.7311  142.2970  161.4757 C   0  0  0  0  0  0  0  0  0  0  0  0
  152.5632  143.5935  162.0001 C   0  0  0  0  0  0  0  0  0  0  0  0
  152.2402  144.6638  161.1435 C   0  0  0  0  0  0  0  0  0  0  0  0
  152.0828  144.4377  159.7621 C   0  0  0  0  0  0  0  0  0  0  0  0
  151.7708  145.4665  158.9389 F   0  0  0  0  0  0  0  0  0  0  0  0
  152.2506  143.1419  159.2367 C   0  0  0  0  0  0  0  0  0  0  0  0
  153.7012  139.9158  160.0102 N   0  0  0  0  0  0  0  0  0  0  0  0
  153.5287  138.7695  159.2601 C   0  0  0  0  0  0  0  0  0  0  0  0
  154.2236  137.5398  159.2890 C   0  0  0  0  0  0  0  0  0  0  0  0
  153.8483  136.4972  158.4155 C   0  0  0  0  0  0  0  0  0  0  0  0
  154.7363  134.9461  158.4684 S   0  0  0  0  0  0  0  0  0  0  0  0
  156.3216  135.4616  158.8894 N   0  0  0  0  0  0  0  0  0  0  0  0
  154.2215  134.1291  159.5783 O   0  0  0  0  0  0  0  0  0  0  0  0
  154.7982  134.4057  157.1016 O   0  0  0  0  0  0  0  0  0  0  0  0
  152.7832  136.6610  157.5049 C   0  0  0  0  0  0  0  0  0  0  0  0
  152.0819  137.8812  157.4642 C   0  0  0  0  0  0  0  0  0  0  0  0
  152.4578  138.9211  158.3361 C   0  0  0  0  0  0  0  0  0  0  0  0
  148.2505  140.9833  154.8994 H   0  0  0  0  0  0  0  0  0  0  0  0
  148.7949  139.9886  156.2506 H   0  0  0  0  0  0  0  0  0  0  0  0
  149.5980  139.8669  154.6743 H   0  0  0  0  0  0  0  0  0  0  0  0
  151.5105  140.1730  155.9145 H   0  0  0  0  0  0  0  0  0  0  0  0
  151.9961  141.8207  156.3063 H   0  0  0  0  0  0  0  0  0  0  0  0
  150.6310  141.7792  158.3756 H   0  0  0  0  0  0  0  0  0  0  0  0
  149.9807  140.2123  157.9692 H   0  0  0  0  0  0  0  0  0  0  0  0
  152.9780  141.4789  162.1367 H   0  0  0  0  0  0  0  0  0  0  0  0
  152.6819  143.7671  163.0595 H   0  0  0  0  0  0  0  0  0  0  0  0
  152.1117  145.6576  161.5461 H   0  0  0  0  0  0  0  0  0  0  0  0
  152.1307  142.9729  158.1763 H   0  0  0  0  0  0  0  0  0  0  0  0
  155.0385  137.4025  159.9843 H   0  0  0  0  0  0  0  0  0  0  0  0
  156.6804  134.9389  159.6878 H   0  0  0  0  0  0  0  0  0  0  0  0
  156.3485  136.4660  159.0636 H   0  0  0  0  0  0  0  0  0  0  0  0
  152.4995  135.8567  156.8419 H   0  0  0  0  0  0  0  0  0  0  0  0
  151.2631  138.0143  156.7727 H   0  0  0  0  0  0  0  0  0  0  0  0
  1  2  1  0  0  0  0
  1 25  1  0  0  0  0
  1 26  1  0  0  0  0
  1 27  1  0  0  0  0
  2  3  1  0  0  0  0
  3  4  1  0  0  0  0
  3 28  1  0  0  0  0
  3 29  1  0  0  0  0
  4  5  1  0  0  0  0
  4 30  1  0  0  0  0
  4 31  1  0  0  0  0
  5 24  1  0  0  0  0
  5  6  1  0  0  0  0
  6  7  1  0  0  0  0
  6 14  2  0  0  0  0
  7 13  1  0  0  0  0
  7  8  2  0  0  0  0
  8  9  1  0  0  0  0
  8 32  1  0  0  0  0
  9 10  2  0  0  0  0
  9 33  1  0  0  0  0
 10 11  1  0  0  0  0
 10 34  1  0  0  0  0
 11 12  1  0  0  0  0
 11 13  2  0  0  0  0
 13 35  1  0  0  0  0
 14 15  1  0  0  0  0
 15 24  2  0  0  0  0
 15 16  1  0  0  0  0
 16 17  2  0  0  0  0
 16 36  1  0  0  0  0
 17 18  1  0  0  0  0
 17 22  1  0  0  0  0
 18 19  1  0  0  0  0
 18 20  2  0  0  0  0
 18 21  2  0  0  0  0
 19 37  1  0  0  0  0
 19 38  1  0  0  0  0
 22 23  2  0  0  0  0
 22 39  1  0  0  0  0
 23 24  1  0  0  0  0
 23 40  1  0  0  0  0
M  END
> <s_m_source_file>
AV-unprocessed.smi

> <i_m_source_file_index>
2867

> <i_lp_mmshare_version>
43012

> <i_f3d_flags>
0

> <s_epik_input>
W05IMl1TKD1PKSg9TyljKFtjSF0xKVtjSF1bY0hdYyhjMTIpbihbQ0gyXVtDSDJdT1tDSDNdKWMobjIpLWMzW2NIXVtjSF1bY0hdYyhGKVtjSF0z

> <s_epik_cmdline>
J2VwaWtfcHl0aG9uJywgJy1waCcsICc3LjAnLCAnLXRuJywgJzgnLCAnLW1hJywgJzIwMCcsICctbWV0YWxfYmluZGluZycsICctaW1hZScsICc8aW5maWxlLm1hZT4nLCAnLW9tYWUnLCAnPG91dGZpbGUubWFlPic=

> <r_epik_Ionization_Penalty>
0.0786023

> <r_epik_Ionization_Penalty_Charging>
0

> <r_epik_Ionization_Penalty_Neutral>
0.0786023

> <r_epik_State_Penalty>
0.0592545

> <r_epik_Charging_Adjusted_Penalty>
0.0592545

> <i_epik_Tot_Q>
0

> <i_epik_Tot_abs_Q>
0

> <r_epik_Metal_State_Penalty>
0.300641

> <b_epik_Metal_Only>
0

> <s_lp_Force_Field>
OPLS_2005

> <r_lp_Energy>
19.4946

> <b_lp_Chiralities_Consistent>
1

> <s_lp_Variant>
AV-unprocessed.smi:2867-1

> <Gold.Version>
5.8.1

> <Gold.Id.Protein>
6NUR|6NUR_protein|mol2

> <Gold.PLP.Fitness>
49.6327

> <Gold.PLP.PLP>
-44.5971

> <Gold.PLP.part.hbond>
-2.0110

> <Gold.PLP.part.metal>
0.0000

> <Gold.PLP.part.buried>
-5.5895

> <Gold.PLP.part.nonpolar>
-36.1656

> <Gold.PLP.part.repulsive>
0.0964

> <Gold.PLP.ligand.clash>
0.0000

> <Gold.PLP.ligand.torsion>
1.9397

> <Gold.PLP.Chemscore.Hbond>
1.9600

> <Gold.PLP.Chemscore.CHOScore>
0.0000

> <Gold.PLP.Chemscore.Metal>
0.0000

> <Gold.Chemscore.Hbonds>
donor molecule, donor type, donor heavy atom, donor atom, acceptor molecule, acceptor atom, score
      P1  H  6896  6909       L1    20  1.00
      P1  H 10752 10765       L1    21  0.94

> <Gold.PLP.Chemscore.Internal.Correction>
3.0349

> <Gold.Rescore>
     Score         DG    S(hbond)    S(metal)    S(lipo)     H(rot)  DE(clash)    DE(int)     intcor
     18.28     -21.33       1.88        0.00     113.45       1.45       0.23       2.81       ----

> <Gold.Chemscore.Fitness>
18.2806

> <Gold.Chemscore.DG>
-21.3276

> <Gold.Chemscore.ZeroCoef>
-5.4800

> <Gold.Chemscore.Hbond>
1.8843

> <Gold.Chemscore.Metal>
0.0000

> <Gold.Chemscore.Lipo>
113.4490

> <Gold.Chemscore.Internal_Hbond>
0.0000

> <Gold.Chemscore.DEClash>
0.2326

> <Gold.Chemscore.DEInternal>
2.8144

> <Gold.Chemscore.Rot>
1.4530

> <Gold.Chemscore.Internal.Correction>
   9.000000E+99

> <Gold.Chemscore.Hbonds>
donor molecule, donor type, donor heavy atom, donor atom, acceptor molecule, acceptor atom, score
      P1  H  6896  6909       L1    20  0.96
      P1  H 10752 10765       L1    21  0.85

> <Gold.Chemscore.Hbond.Weighted>
-6.2937

> <Gold.Chemscore.Metal.Weighted>
-0.0000

> <Gold.Chemscore.Lipo.Weighted>
-13.2735

> <Gold.Chemscore.Internal_Hbond.Weighted>
0.0000

> <Gold.Chemscore.DEClash.Weighted>
0.2326

> <Gold.Chemscore.DEInternal.Weighted>
2.8144

> <Gold.Chemscore.Rot.Weighted>
3.7196

> <Gold.Chemscore.Internal.Correction.Weighted>
   9.000000E+99

> <Gold.Protein.RotatedTorsions>
[ 6907 6896 6895 6894 ] final -132.71 input  -60.11 | X-H torsion
[ 7974 7965 7964 7962 ] final -177.68 input  175.53 | X-H torsion
[ 8008 7997 7996 7995 ] final  -56.84 input   59.86 | X-H torsion
[ 10167 10162 10161 10158 ] final -169.26 input  -65.29 | X-H torsion
[ 10718 10713 10712 10709 ] final  -28.84 input   66.30 | X-H torsion
[ 10763 10752 10751 10750 ] final  -85.75 input  -60.55 | X-H torsion
[ 11005 11000 10999 10996 ] final  167.91 input  -57.11 | X-H torsion

> <Gold.Protein.ActiveResidues>
 VAL166  LYS551  ARG553  GLY616  TRP617  ASP618  TYR619  PRO620  LYS621  CYS622 
 ASP623  PHE694  ASN695  SER759  ASP760  ASP761  ALA762  ILE779  LEU786  VAL792 
 PHE793  MET794  SER795  GLU796  ALA797  LYS798  CYS799  TRP800  GLU811  SER814 

> <Gold.Protein.RotatedAtoms>
  150.9655  133.6399  159.2746 H   0  0  0  0  0  0  0  0  0  0  0  0  # atno 6907 bound_to 6896
  151.3706  135.0920  159.9474 H   0  0  0  0  0  0  0  0  0  0  0  0  # atno 6908 bound_to 6896
  152.5164  133.9210  159.7589 H   0  0  0  0  0  0  0  0  0  0  0  0  # atno 6909 bound_to 6896
  144.7128  140.0983  143.6418 H   0  0  0  0  0  0  0  0  0  0  0  0  # atno 7974 bound_to 7965
  154.4245  140.1120  156.5702 H   0  0  0  0  0  0  0  0  0  0  0  0  # atno 8008 bound_to 7997
  155.6220  140.3495  155.4636 H   0  0  0  0  0  0  0  0  0  0  0  0  # atno 8009 bound_to 7997
  156.0016  140.1200  157.0531 H   0  0  0  0  0  0  0  0  0  0  0  0  # atno 8010 bound_to 7997
  139.5934  144.1165  152.1661 H   0  0  0  0  0  0  0  0  0  0  0  0  # atno 10167 bound_to 10162
  156.4201  130.4424  149.7190 H   0  0  0  0  0  0  0  0  0  0  0  0  # atno 10718 bound_to 10713
  154.6146  135.5474  153.7510 H   0  0  0  0  0  0  0  0  0  0  0  0  # atno 10763 bound_to 10752
  153.0210  135.6398  154.1529 H   0  0  0  0  0  0  0  0  0  0  0  0  # atno 10764 bound_to 10752
  154.1465  135.2905  155.3127 H   0  0  0  0  0  0  0  0  0  0  0  0  # atno 10765 bound_to 10752
  140.2817  134.7745  157.3763 H   0  0  0  0  0  0  0  0  0  0  0  0  # atno 11005 bound_to 11000
  145.9560  139.2767  143.1184 LP  0  0  0  0  0  0  0  0  0  0  0  0  # atno 17320 bound_to 7965
  145.9272  140.9074  143.0375 LP  0  0  0  0  0  0  0  0  0  0  0  0  # atno 17321 bound_to 7965
  140.0744  144.5752  150.7168 LP  0  0  0  0  0  0  0  0  0  0  0  0  # atno 17342 bound_to 10162
  140.7192  143.2572  151.4335 LP  0  0  0  0  0  0  0  0  0  0  0  0  # atno 17343 bound_to 10162
  156.4134  130.7733  151.2747 LP  0  0  0  0  0  0  0  0  0  0  0  0  # atno 17370 bound_to 10713
  157.7508  131.0204  150.3709 LP  0  0  0  0  0  0  0  0  0  0  0  0  # atno 17371 bound_to 10713
  140.1277  134.5136  155.8131 LP  0  0  0  0  0  0  0  0  0  0  0  0  # atno 17394 bound_to 11000
  141.2161  133.6779  156.6983 LP  0  0  0  0  0  0  0  0  0  0  0  0  # atno 17395 bound_to 11000

$$$$
