AV-unprocessed.smi:903|AV-procd|sdf|4096|dock1
  -GOLD-   22720 1583D 1   1.00000     0.00000
 Structure written by MMmdl.
 28 29  0  0  0  0  0  0  0  0  2 V2000
  151.9150  137.3033  154.7631 O   0  0  0  0  0  0  0  0  0  0  0  0
  152.5795  138.1680  155.3739 C   0  0  0  0  0  0  0  0  0  0  0  0
  153.8146  138.0356  155.5359 O   0  5  0  0  0  0  0  0  0  0  0  0
  151.9070  139.4030  155.9359 C   0  0  0  0  0  0  0  0  0  0  0  0
  152.4491  139.8783  157.0854 N   0  0  0  0  0  0  0  0  0  0  0  0
  151.9285  140.9787  157.6766 C   0  0  0  0  0  0  0  0  0  0  0  0
  152.4988  141.4429  158.8440 O   0  0  0  0  0  0  0  0  0  0  0  0
  151.9410  142.6021  159.4560 C   0  0  0  0  0  0  0  0  0  0  0  0
  152.7603  142.9438  160.7062 C   0  0  1  0  0  0  0  0  0  0  0  0
  151.9721  143.7171  161.7607 C   0  0  0  0  0  0  0  0  0  0  0  0
  152.7607  143.4108  163.0134 C   0  0  0  0  0  0  0  0  0  0  0  0
  153.1594  141.9541  162.7900 C   0  0  0  0  0  0  0  0  0  0  0  0
  153.1694  141.7554  161.3779 O   0  0  0  0  0  0  0  0  0  0  0  0
  150.8256  141.6674  157.1437 C   0  0  0  0  0  0  0  0  0  0  0  0
  150.2513  141.1902  155.9535 C   0  0  0  0  0  0  0  0  0  0  0  0
  150.7860  140.0455  155.3287 C   0  0  0  0  0  0  0  0  0  0  0  0
  150.0236  139.5183  153.8653 Cl  0  0  0  0  0  0  0  0  0  0  0  0
  151.9869  143.4371  158.7547 H   0  0  0  0  0  0  0  0  0  0  0  0
  150.8946  142.4443  159.7233 H   0  0  0  0  0  0  0  0  0  0  0  0
  153.6495  143.5156  160.4353 H   0  0  0  0  0  0  0  0  0  0  0  0
  151.9064  144.7838  161.5458 H   0  0  0  0  0  0  0  0  0  0  0  0
  150.9590  143.3221  161.8508 H   0  0  0  0  0  0  0  0  0  0  0  0
  153.6501  144.0410  163.0569 H   0  0  0  0  0  0  0  0  0  0  0  0
  152.1895  143.5618  163.9297 H   0  0  0  0  0  0  0  0  0  0  0  0
  154.1300  141.7224  163.2291 H   0  0  0  0  0  0  0  0  0  0  0  0
  152.4209  141.2820  163.2279 H   0  0  0  0  0  0  0  0  0  0  0  0
  150.4295  142.5432  157.6359 H   0  0  0  0  0  0  0  0  0  0  0  0
  149.4037  141.7013  155.5212 H   0  0  0  0  0  0  0  0  0  0  0  0
  1  2  2  0  0  0  0
  2  3  1  0  0  0  0
  2  4  1  0  0  0  0
  4 16  1  0  0  0  0
  4  5  2  0  0  0  0
  5  6  1  0  0  0  0
  6  7  1  0  0  0  0
  6 14  2  0  0  0  0
  7  8  1  0  0  0  0
  8  9  1  0  0  0  0
  8 18  1  0  0  0  0
  8 19  1  0  0  0  0
  9 13  1  0  0  0  0
  9 10  1  0  0  0  0
  9 20  1  0  0  0  0
 10 11  1  0  0  0  0
 10 21  1  0  0  0  0
 10 22  1  0  0  0  0
 11 12  1  0  0  0  0
 11 23  1  0  0  0  0
 11 24  1  0  0  0  0
 12 13  1  0  0  0  0
 12 25  1  0  0  0  0
 12 26  1  0  0  0  0
 14 15  1  0  0  0  0
 14 27  1  0  0  0  0
 15 16  2  0  0  0  0
 15 28  1  0  0  0  0
 16 17  1  0  0  0  0
M  CHG  1   3  -1
M  END
> <s_m_source_file>
AV-unprocessed.smi

> <i_m_source_file_index>
903

> <i_lp_mmshare_version>
43012

> <i_f3d_flags>
0

> <s_epik_input>
Tz1DKFtPSF0pYzFuYyhbY0hdW2NIXWMxQ2wpT1tDSDJdW0NAQEhdMltDSDJdW0NIMl1bQ0gyXU8y

> <s_epik_cmdline>
J2VwaWtfcHl0aG9uJywgJy1waCcsICc3LjAnLCAnLXRuJywgJzgnLCAnLW1hJywgJzIwMCcsICctbWV0YWxfYmluZGluZycsICctaW1hZScsICc8aW5maWxlLm1hZT4nLCAnLW9tYWUnLCAnPG91dGZpbGUubWFlPic=

> <r_lp_tautomer_probability>
1

> <r_epik_Ionization_Penalty>
1.22588e-05

> <r_epik_Ionization_Penalty_Charging>
1.01343e-05

> <r_epik_Ionization_Penalty_Neutral>
2.12445e-06

> <r_epik_State_Penalty>
-0

> <r_epik_Charging_Adjusted_Penalty>
1.01343e-05

> <i_epik_Tot_Q>
-1

> <i_epik_Tot_abs_Q>
1

> <r_epik_Metal_State_Penalty>
-0

> <b_epik_Metal_Only>
0

> <s_lp_Force_Field>
OPLS_2005

> <r_lp_Energy>
26.0246

> <b_lp_Chiralities_Consistent>
1

> <s_lp_Variant>
AV-unprocessed.smi:903-2

> <Gold.Version>
5.8.1

> <Gold.Id.Protein>
6NUR|6NUR_protein|mol2

> <Gold.PLP.Fitness>
45.8255

> <Gold.PLP.PLP>
-38.9112

> <Gold.PLP.part.hbond>
-3.9302

> <Gold.PLP.part.metal>
0.0000

> <Gold.PLP.part.buried>
-3.6064

> <Gold.PLP.part.nonpolar>
-31.1092

> <Gold.PLP.part.repulsive>
0.1181

> <Gold.PLP.ligand.clash>
0.6485

> <Gold.PLP.ligand.torsion>
0.7062

> <Gold.PLP.Chemscore.Hbond>
2.9840

> <Gold.PLP.Chemscore.CHOScore>
0.0000

> <Gold.PLP.Chemscore.Metal>
0.0000

> <Gold.Chemscore.Hbonds>
donor molecule, donor type, donor heavy atom, donor atom, acceptor molecule, acceptor atom, score
      P1  H  7997  8009       L1     5  1.00
      P1  H 10752 10765       L1     1  1.86

> <Gold.PLP.Chemscore.Internal.Correction>
0.0233

> <Gold.Rescore>
     Score         DG    S(hbond)    S(metal)    S(lipo)     H(rot)  DE(clash)    DE(int)     intcor
     16.75     -17.89       1.69        0.00      90.76       1.51       0.13       1.01       ----

> <Gold.Chemscore.Fitness>
16.7540

> <Gold.Chemscore.DG>
-17.8860

> <Gold.Chemscore.ZeroCoef>
-5.4800

> <Gold.Chemscore.Hbond>
1.6919

> <Gold.Chemscore.Metal>
0.0000

> <Gold.Chemscore.Lipo>
90.7616

> <Gold.Chemscore.Internal_Hbond>
0.0000

> <Gold.Chemscore.DEClash>
0.1268

> <Gold.Chemscore.DEInternal>
1.0052

> <Gold.Chemscore.Rot>
1.5094

> <Gold.Chemscore.Internal.Correction>
   9.000000E+99

> <Gold.Chemscore.Hbonds>
donor molecule, donor type, donor heavy atom, donor atom, acceptor molecule, acceptor atom, score
      P1  H  7997  8009       L1     5  0.29
      P1  H 10752 10765       L1     1  0.70

> <Gold.Chemscore.Hbond.Weighted>
-5.6509

> <Gold.Chemscore.Metal.Weighted>
-0.0000

> <Gold.Chemscore.Lipo.Weighted>
-10.6191

> <Gold.Chemscore.Internal_Hbond.Weighted>
0.0000

> <Gold.Chemscore.DEClash.Weighted>
0.1268

> <Gold.Chemscore.DEInternal.Weighted>
1.0052

> <Gold.Chemscore.Rot.Weighted>
3.8641

> <Gold.Chemscore.Internal.Correction.Weighted>
   9.000000E+99

> <Gold.Protein.RotatedTorsions>
[ 6907 6896 6895 6894 ] final  161.24 input  -60.11 | X-H torsion
[ 7974 7965 7964 7962 ] final  117.18 input  175.53 | X-H torsion
[ 8008 7997 7996 7995 ] final -175.19 input   59.86 | X-H torsion
[ 10167 10162 10161 10158 ] final  -80.93 input  -65.29 | X-H torsion
[ 10718 10713 10712 10709 ] final   39.98 input   66.30 | X-H torsion
[ 10763 10752 10751 10750 ] final  176.49 input  -60.55 | X-H torsion
[ 11005 11000 10999 10996 ] final -133.33 input  -57.11 | X-H torsion

> <Gold.Protein.ActiveResidues>
 VAL166  LYS551  ARG553  GLY616  TRP617  ASP618  TYR619  PRO620  LYS621  CYS622 
 ASP623  PHE694  ASN695  SER759  ASP760  ASP761  ALA762  ILE779  LEU786  VAL792 
 PHE793  MET794  SER795  GLU796  ALA797  LYS798  CYS799  TRP800  GLU811  SER814 

> <Gold.Protein.RotatedAtoms>
  151.9585  133.3688  159.4026 H   0  0  0  0  0  0  0  0  0  0  0  0  # atno 6907 bound_to 6896
  150.6968  134.4265  159.5238 H   0  0  0  0  0  0  0  0  0  0  0  0  # atno 6908 bound_to 6896
  152.1950  134.8638  160.0564 H   0  0  0  0  0  0  0  0  0  0  0  0  # atno 6909 bound_to 6896
  145.1705  139.3104  143.4470 H   0  0  0  0  0  0  0  0  0  0  0  0  # atno 7974 bound_to 7965
  155.9795  140.1179  157.0739 H   0  0  0  0  0  0  0  0  0  0  0  0  # atno 8008 bound_to 7997
  154.4179  140.1147  156.5484 H   0  0  0  0  0  0  0  0  0  0  0  0  # atno 8009 bound_to 7997
  155.6489  140.3473  155.4743 H   0  0  0  0  0  0  0  0  0  0  0  0  # atno 8010 bound_to 7997
  140.4459  143.2499  151.8560 H   0  0  0  0  0  0  0  0  0  0  0  0  # atno 10167 bound_to 10162
  157.3769  130.7732  149.7162 H   0  0  0  0  0  0  0  0  0  0  0  0  # atno 10718 bound_to 10713
  154.4819  135.2775  155.1564 H   0  0  0  0  0  0  0  0  0  0  0  0  # atno 10763 bound_to 10752
  154.3271  135.6197  153.5538 H   0  0  0  0  0  0  0  0  0  0  0  0  # atno 10764 bound_to 10752
  152.9876  135.5756  154.5221 H   0  0  0  0  0  0  0  0  0  0  0  0  # atno 10765 bound_to 10752
  140.9090  134.1592  157.4403 H   0  0  0  0  0  0  0  0  0  0  0  0  # atno 11005 bound_to 11000
  146.3469  140.1848  142.8589 LP  0  0  0  0  0  0  0  0  0  0  0  0  # atno 17320 bound_to 7965
  145.0238  140.8815  143.5151 LP  0  0  0  0  0  0  0  0  0  0  0  0  # atno 17321 bound_to 7965
  139.4793  144.5176  151.8846 LP  0  0  0  0  0  0  0  0  0  0  0  0  # atno 17342 bound_to 10162
  140.4265  144.2174  150.5887 LP  0  0  0  0  0  0  0  0  0  0  0  0  # atno 17343 bound_to 10162
  155.9767  130.4072  150.3760 LP  0  0  0  0  0  0  0  0  0  0  0  0  # atno 17370 bound_to 10713
  157.1859  131.0403  151.2725 LP  0  0  0  0  0  0  0  0  0  0  0  0  # atno 17371 bound_to 10713
  139.8754  134.9928  156.5615 LP  0  0  0  0  0  0  0  0  0  0  0  0  # atno 17394 bound_to 11000
  140.8134  133.8411  155.8830 LP  0  0  0  0  0  0  0  0  0  0  0  0  # atno 17395 bound_to 11000

$$$$
