AV-unprocessed.smi:2880|AV-procd|sdf|11053|dock3
  -GOLD-   2272015523D 1   1.00000     0.00000
 Structure written by MMmdl.
 47 48  0  0  0  0  0  0  0  0  1 V2000
  152.0431  145.6504  159.5426 C   0  0  0  0  0  0  0  0  0  0  0  0
  151.2287  144.4208  159.9895 C   0  0  0  0  0  0  0  0  0  0  0  0
  151.9474  143.7668  161.1937 C   0  0  0  0  0  0  0  0  0  0  0  0
  149.8231  144.8630  160.4411 C   0  0  0  0  0  0  0  0  0  0  0  0
  151.0971  143.4989  158.8532 N   0  0  0  0  0  0  0  0  0  0  0  0
  151.6723  143.6105  157.5983 C   0  0  0  0  0  0  0  0  0  0  0  0
  151.2878  142.5298  156.8571 C   0  0  0  0  0  0  0  0  0  0  0  0
  150.4654  141.7979  157.7543 C   0  0  0  0  0  0  0  0  0  0  0  0
  149.8572  140.5818  157.3512 N   0  0  0  0  0  0  0  0  0  0  0  0
  149.8026  140.0631  156.1126 C   0  0  0  0  0  0  0  0  0  0  0  0
  150.2716  140.5890  155.1028 O   0  0  0  0  0  0  0  0  0  0  0  0
  149.1698  138.8805  156.1142 N   0  0  0  0  0  0  0  0  0  0  0  0
  148.9465  138.0163  154.9525 C   0  0  2  0  0  0  0  0  0  0  0  0
  147.5893  137.2960  155.0850 C   0  0  0  0  0  0  0  0  0  0  0  0
  147.5980  136.2377  156.2011 C   0  0  0  0  0  0  0  0  0  0  0  0
  148.7427  135.2333  156.0042 C   0  0  0  0  0  0  0  0  0  0  0  0
  150.1002  135.9457  155.8948 C   0  0  0  0  0  0  0  0  0  0  0  0
  150.1050  136.9990  154.7660 C   0  0  2  0  0  0  0  0  0  0  0  0
  151.4947  137.6571  154.6297 C   0  0  0  0  0  0  0  0  0  0  0  0
  152.3719  136.8330  153.8913 O   0  0  0  0  0  0  0  0  0  0  0  0
  150.3511  142.3712  158.9425 N   0  0  0  0  0  0  0  0  0  0  0  0
  152.1726  146.3589  160.3612 H   0  0  0  0  0  0  0  0  0  0  0  0
  151.5552  146.1843  158.7265 H   0  0  0  0  0  0  0  0  0  0  0  0
  153.0367  145.3616  159.1980 H   0  0  0  0  0  0  0  0  0  0  0  0
  152.9579  143.4474  160.9352 H   0  0  0  0  0  0  0  0  0  0  0  0
  151.4050  142.8946  161.5611 H   0  0  0  0  0  0  0  0  0  0  0  0
  152.0349  144.4650  162.0268 H   0  0  0  0  0  0  0  0  0  0  0  0
  149.8760  145.5415  161.2933 H   0  0  0  0  0  0  0  0  0  0  0  0
  149.2175  144.0067  160.7407 H   0  0  0  0  0  0  0  0  0  0  0  0
  149.2866  145.3829  159.6468 H   0  0  0  0  0  0  0  0  0  0  0  0
  152.3050  144.4460  157.3374 H   0  0  0  0  0  0  0  0  0  0  0  0
  151.5539  142.3019  155.8358 H   0  0  0  0  0  0  0  0  0  0  0  0
  149.4294  140.0415  158.0883 H   0  0  0  0  0  0  0  0  0  0  0  0
  148.8195  138.5384  156.9967 H   0  0  0  0  0  0  0  0  0  0  0  0
  148.8916  138.6298  154.0518 H   0  0  0  0  0  0  0  0  0  0  0  0
  146.7932  138.0201  155.2627 H   0  0  0  0  0  0  0  0  0  0  0  0
  147.3496  136.8106  154.1379 H   0  0  0  0  0  0  0  0  0  0  0  0
  147.6991  136.7239  157.1722 H   0  0  0  0  0  0  0  0  0  0  0  0
  146.6431  135.7118  156.2195 H   0  0  0  0  0  0  0  0  0  0  0  0
  148.7607  134.5236  156.8318 H   0  0  0  0  0  0  0  0  0  0  0  0
  148.5640  134.6489  155.1008 H   0  0  0  0  0  0  0  0  0  0  0  0
  150.3433  136.4185  156.8473 H   0  0  0  0  0  0  0  0  0  0  0  0
  150.8800  135.2051  155.7142 H   0  0  0  0  0  0  0  0  0  0  0  0
  149.9154  136.4617  153.8350 H   0  0  0  0  0  0  0  0  0  0  0  0
  151.4294  138.6351  154.1524 H   0  0  0  0  0  0  0  0  0  0  0  0
  151.9340  137.8165  155.6147 H   0  0  0  0  0  0  0  0  0  0  0  0
  151.9431  136.5797  153.0881 H   0  0  0  0  0  0  0  0  0  0  0  0
  1  2  1  0  0  0  0
  1 22  1  0  0  0  0
  1 23  1  0  0  0  0
  1 24  1  0  0  0  0
  2  3  1  0  0  0  0
  2  4  1  0  0  0  0
  2  5  1  0  0  0  0
  3 25  1  0  0  0  0
  3 26  1  0  0  0  0
  3 27  1  0  0  0  0
  4 28  1  0  0  0  0
  4 29  1  0  0  0  0
  4 30  1  0  0  0  0
  5 21  1  0  0  0  0
  5  6  1  0  0  0  0
  6  7  2  0  0  0  0
  6 31  1  0  0  0  0
  7  8  1  0  0  0  0
  7 32  1  0  0  0  0
  8  9  1  0  0  0  0
  8 21  2  0  0  0  0
  9 10  1  0  0  0  0
  9 33  1  0  0  0  0
 10 11  2  0  0  0  0
 10 12  1  0  0  0  0
 12 13  1  0  0  0  0
 12 34  1  0  0  0  0
 13 18  1  0  0  0  0
 13 14  1  0  0  0  0
 13 35  1  0  0  0  0
 14 15  1  0  0  0  0
 14 36  1  0  0  0  0
 14 37  1  0  0  0  0
 15 16  1  0  0  0  0
 15 38  1  0  0  0  0
 15 39  1  0  0  0  0
 16 17  1  0  0  0  0
 16 40  1  0  0  0  0
 16 41  1  0  0  0  0
 17 18  1  0  0  0  0
 17 42  1  0  0  0  0
 17 43  1  0  0  0  0
 18 19  1  0  0  0  0
 18 44  1  0  0  0  0
 19 20  1  0  0  0  0
 19 45  1  0  0  0  0
 19 46  1  0  0  0  0
 20 47  1  0  0  0  0
M  END
> <s_m_source_file>
AV-unprocessed.smi

> <i_m_source_file_index>
2880

> <i_lp_mmshare_version>
43012

> <i_f3d_flags>
0

> <s_epik_input>
W0NIM11DKFtDSDNdKShbQ0gzXSluMVtjSF1bY0hdYyhuMSlbTkhdQyg9TylbTkhdW0NAQEhdMltDSDJdW0NIMl1bQ0gyXVtDSDJdW0NASF0yW0NIMl1bT0hd

> <s_epik_cmdline>
J2VwaWtfcHl0aG9uJywgJy1waCcsICc3LjAnLCAnLXRuJywgJzgnLCAnLW1hJywgJzIwMCcsICctbWV0YWxfYmluZGluZycsICctaW1hZScsICc8aW5maWxlLm1hZT4nLCAnLW9tYWUnLCAnPG91dGZpbGUubWFlPic=

> <r_lp_tautomer_probability>
1

> <r_epik_Ionization_Penalty>
3.89283e-05

> <r_epik_Ionization_Penalty_Charging>
0

> <r_epik_Ionization_Penalty_Neutral>
3.89283e-05

> <r_epik_State_Penalty>
-0

> <r_epik_Charging_Adjusted_Penalty>
0

> <i_epik_Tot_Q>
0

> <i_epik_Tot_abs_Q>
0

> <r_epik_Metal_State_Penalty>
-0

> <b_epik_Metal_Only>
0

> <s_lp_Force_Field>
OPLS_2005

> <r_lp_Energy>
20.6401

> <b_lp_Chiralities_Consistent>
1

> <s_lp_Variant>
AV-unprocessed.smi:2880-3

> <Gold.Version>
5.8.1

> <Gold.Id.Protein>
6NUR|6NUR_protein|mol2

> <Gold.PLP.Fitness>
41.7529

> <Gold.PLP.PLP>
-34.9821

> <Gold.PLP.part.hbond>
-3.3162

> <Gold.PLP.part.metal>
0.0000

> <Gold.PLP.part.buried>
-3.6254

> <Gold.PLP.part.nonpolar>
-28.6958

> <Gold.PLP.part.repulsive>
0.2038

> <Gold.PLP.ligand.clash>
0.0000

> <Gold.PLP.ligand.torsion>
0.6970

> <Gold.PLP.Chemscore.Hbond>
2.7120

> <Gold.PLP.Chemscore.CHOScore>
0.0000

> <Gold.PLP.Chemscore.Metal>
0.0000

> <Gold.Chemscore.Hbonds>
donor molecule, donor type, donor heavy atom, donor atom, acceptor molecule, acceptor atom, score
      L1  H    20    47       P1  7949  1.00
      P1  H  7989  7998       L1    11  0.72
      P1  H 10752 10765       L1    20  0.36

> <Gold.PLP.Chemscore.Internal.Correction>
0.0287

> <Gold.Rescore>
     Score         DG    S(hbond)    S(metal)    S(lipo)     H(rot)  DE(clash)    DE(int)     intcor
     17.19     -19.71       2.55        0.00      91.97       1.97       0.50       2.02       ----

> <Gold.Chemscore.Fitness>
17.1940

> <Gold.Chemscore.DG>
-19.7098

> <Gold.Chemscore.ZeroCoef>
-5.4800

> <Gold.Chemscore.Hbond>
2.5464

> <Gold.Chemscore.Metal>
0.0000

> <Gold.Chemscore.Lipo>
91.9727

> <Gold.Chemscore.Internal_Hbond>
0.0000

> <Gold.Chemscore.DEClash>
0.4980

> <Gold.Chemscore.DEInternal>
2.0178

> <Gold.Chemscore.Rot>
1.9672

> <Gold.Chemscore.Internal.Correction>
   9.000000E+99

> <Gold.Chemscore.Hbonds>
donor molecule, donor type, donor heavy atom, donor atom, acceptor molecule, acceptor atom, score
      L1  H    20    47       P1  7949  1.00
      P1  H  7989  7998       L1    11  0.69
      P1  H 10752 10765       L1    20  0.06

> <Gold.Chemscore.Hbond.Weighted>
-8.5051

> <Gold.Chemscore.Metal.Weighted>
-0.0000

> <Gold.Chemscore.Lipo.Weighted>
-10.7608

> <Gold.Chemscore.Internal_Hbond.Weighted>
0.0000

> <Gold.Chemscore.DEClash.Weighted>
0.4980

> <Gold.Chemscore.DEInternal.Weighted>
2.0178

> <Gold.Chemscore.Rot.Weighted>
5.0360

> <Gold.Chemscore.Internal.Correction.Weighted>
   9.000000E+99

> <Gold.Protein.RotatedTorsions>
[ 6907 6896 6895 6894 ] final   17.45 input  -60.11 | X-H torsion
[ 7974 7965 7964 7962 ] final  -73.30 input  175.53 | X-H torsion
[ 8008 7997 7996 7995 ] final   18.72 input   59.86 | X-H torsion
[ 10167 10162 10161 10158 ] final -129.83 input  -65.29 | X-H torsion
[ 10718 10713 10712 10709 ] final  -95.82 input   66.30 | X-H torsion
[ 10763 10752 10751 10750 ] final  149.00 input  -60.55 | X-H torsion
[ 11005 11000 10999 10996 ] final   49.22 input  -57.11 | X-H torsion

> <Gold.Protein.ActiveResidues>
 VAL166  LYS551  ARG553  GLY616  TRP617  ASP618  TYR619  PRO620  LYS621  CYS622 
 ASP623  PHE694  ASN695  SER759  ASP760  ASP761  ALA762  ILE779  LEU786  VAL792 
 PHE793  MET794  SER795  GLU796  ALA797  LYS798  CYS799  TRP800  GLU811  SER814 

> <Gold.Protein.RotatedAtoms>
  151.8498  135.0561  160.0457 H   0  0  0  0  0  0  0  0  0  0  0  0  # atno 6907 bound_to 6896
  152.2745  133.5408  159.5468 H   0  0  0  0  0  0  0  0  0  0  0  0  # atno 6908 bound_to 6896
  150.7164  134.0567  159.3859 H   0  0  0  0  0  0  0  0  0  0  0  0  # atno 6909 bound_to 6896
  145.6539  140.9274  143.0970 H   0  0  0  0  0  0  0  0  0  0  0  0  # atno 7974 bound_to 7965
  154.9101  140.3013  155.5271 H   0  0  0  0  0  0  0  0  0  0  0  0  # atno 8008 bound_to 7997
  156.3015  140.2390  156.4075 H   0  0  0  0  0  0  0  0  0  0  0  0  # atno 8009 bound_to 7997
  154.8434  140.0412  157.1545 H   0  0  0  0  0  0  0  0  0  0  0  0  # atno 8010 bound_to 7997
  139.9356  143.6221  152.2518 H   0  0  0  0  0  0  0  0  0  0  0  0  # atno 10167 bound_to 10162
  156.0050  130.5125  150.6134 H   0  0  0  0  0  0  0  0  0  0  0  0  # atno 10718 bound_to 10713
  154.0639  135.2872  155.3320 H   0  0  0  0  0  0  0  0  0  0  0  0  # atno 10763 bound_to 10752
  154.6790  135.5270  153.8241 H   0  0  0  0  0  0  0  0  0  0  0  0  # atno 10764 bound_to 10752
  153.0511  135.6577  154.0826 H   0  0  0  0  0  0  0  0  0  0  0  0  # atno 10765 bound_to 10752
  140.1122  134.4939  155.8668 H   0  0  0  0  0  0  0  0  0  0  0  0  # atno 11005 bound_to 11000
  144.7113  139.8362  143.7413 LP  0  0  0  0  0  0  0  0  0  0  0  0  # atno 17320 bound_to 7965
  146.1181  139.4195  143.0245 LP  0  0  0  0  0  0  0  0  0  0  0  0  # atno 17321 bound_to 7965
  139.6746  144.7659  151.1720 LP  0  0  0  0  0  0  0  0  0  0  0  0  # atno 17342 bound_to 10162
  140.7625  143.5814  150.8891 LP  0  0  0  0  0  0  0  0  0  0  0  0  # atno 17343 bound_to 10162
  157.3962  131.0803  151.1349 LP  0  0  0  0  0  0  0  0  0  0  0  0  # atno 17370 bound_to 10713
  157.2025  130.6401  149.5744 LP  0  0  0  0  0  0  0  0  0  0  0  0  # atno 17371 bound_to 10713
  141.2133  133.6731  156.6728 LP  0  0  0  0  0  0  0  0  0  0  0  0  # atno 17394 bound_to 11000
  140.3075  134.8113  157.4149 LP  0  0  0  0  0  0  0  0  0  0  0  0  # atno 17395 bound_to 11000

$$$$
