AV-unprocessed.smi:2668|AV-procd|sdf|10340|dock1
  -GOLD-   2272014363D 1   1.00000     0.00000
 Structure written by MMmdl.
 53 54  0  0  0  0  0  0  0  0  2 V2000
  152.9730  141.9368  160.3942 C   0  0  0  0  0  0  0  0  0  0  0  0
  151.9966  142.5124  159.4362 N   0  3  0  0  0  0  0  0  0  0  0  0
  152.2942  143.9468  159.1988 C   0  0  0  0  0  0  0  0  0  0  0  0
  151.8467  141.7147  158.1781 C   0  0  0  0  0  0  0  0  0  0  0  0
  150.9095  142.3981  157.1601 C   0  0  0  0  0  0  0  0  0  0  0  0
  150.6791  141.5311  155.9108 C   0  0  0  0  0  0  0  0  0  0  0  0
  150.0830  140.2365  156.2731 N   0  0  0  0  0  0  0  0  0  0  0  0
  149.5776  139.4391  155.1218 C   0  0  0  0  0  0  0  0  0  0  0  0
  148.5461  140.2761  154.3225 C   0  0  0  0  0  0  0  0  0  0  0  0
  150.7217  139.0159  154.1703 C   0  0  0  0  0  0  0  0  0  0  0  0
  148.8468  138.1590  155.6209 C   0  0  0  0  0  0  0  0  0  0  0  0
  148.3069  137.3611  154.5231 N   0  0  0  0  0  0  0  0  0  0  0  0
  147.0471  136.9136  154.4544 C   0  0  0  0  0  0  0  0  0  0  0  0
  146.2053  137.1229  155.3276 O   0  0  0  0  0  0  0  0  0  0  0  0
  146.8340  136.2389  153.3116 N   0  0  0  0  0  0  0  0  0  0  0  0
  145.6387  135.6166  152.8600 C   0  0  0  0  0  0  0  0  0  0  0  0
  144.4309  135.5769  153.5982 C   0  0  0  0  0  0  0  0  0  0  0  0
  143.3186  134.9130  153.0457 C   0  0  0  0  0  0  0  0  0  0  0  0
  143.4556  134.3079  151.7815 C   0  0  0  0  0  0  0  0  0  0  0  0
  144.6039  134.3259  151.0730 N   0  0  0  0  0  0  0  0  0  0  0  0
  145.6664  134.9631  151.6096 C   0  0  0  0  0  0  0  0  0  0  0  0
  151.0374  139.5256  157.1374 C   0  0  0  0  0  0  0  0  0  0  0  0
  151.2799  140.3037  158.4410 C   0  0  0  0  0  0  0  0  0  0  0  0
  153.9472  141.7969  159.9240 H   0  0  0  0  0  0  0  0  0  0  0  0
  152.6340  140.9793  160.7873 H   0  0  0  0  0  0  0  0  0  0  0  0
  153.1067  142.5896  161.2575 H   0  0  0  0  0  0  0  0  0  0  0  0
  153.1891  144.0654  158.5866 H   0  0  0  0  0  0  0  0  0  0  0  0
  152.4578  144.4723  160.1401 H   0  0  0  0  0  0  0  0  0  0  0  0
  151.4658  144.4559  158.7077 H   0  0  0  0  0  0  0  0  0  0  0  0
  152.8335  141.6104  157.7238 H   0  0  0  0  0  0  0  0  0  0  0  0
  149.9501  142.6254  157.6276 H   0  0  0  0  0  0  0  0  0  0  0  0
  151.3266  143.3472  156.8257 H   0  0  0  0  0  0  0  0  0  0  0  0
  150.0294  142.0965  155.2468 H   0  0  0  0  0  0  0  0  0  0  0  0
  151.6219  141.3836  155.3829 H   0  0  0  0  0  0  0  0  0  0  0  0
  148.0042  139.6538  153.6092 H   0  0  0  0  0  0  0  0  0  0  0  0
  149.0119  141.0648  153.7322 H   0  0  0  0  0  0  0  0  0  0  0  0
  147.8049  140.7390  154.9751 H   0  0  0  0  0  0  0  0  0  0  0  0
  150.3300  138.4368  153.3334 H   0  0  0  0  0  0  0  0  0  0  0  0
  151.4614  138.3880  154.6663 H   0  0  0  0  0  0  0  0  0  0  0  0
  151.2427  139.8715  153.7411 H   0  0  0  0  0  0  0  0  0  0  0  0
  149.5415  137.5299  156.1793 H   0  0  0  0  0  0  0  0  0  0  0  0
  148.0603  138.4040  156.3355 H   0  0  0  0  0  0  0  0  0  0  0  0
  148.9352  137.1521  153.7611 H   0  0  0  0  0  0  0  0  0  0  0  0
  147.6041  136.2180  152.6593 H   0  0  0  0  0  0  0  0  0  0  0  0
  144.3380  136.0261  154.5747 H   0  0  0  0  0  0  0  0  0  0  0  0
  142.3823  134.8652  153.5819 H   0  0  0  0  0  0  0  0  0  0  0  0
  142.6218  133.7908  151.3301 H   0  0  0  0  0  0  0  0  0  0  0  0
  146.5685  134.9559  151.0154 H   0  0  0  0  0  0  0  0  0  0  0  0
  150.6646  138.5445  157.4213 H   0  0  0  0  0  0  0  0  0  0  0  0
  151.9822  139.3680  156.6163 H   0  0  0  0  0  0  0  0  0  0  0  0
  151.9679  139.7159  159.0475 H   0  0  0  0  0  0  0  0  0  0  0  0
  150.3467  140.3716  159.0026 H   0  0  0  0  0  0  0  0  0  0  0  0
  151.1006  142.4859  159.9021 H   0  0  0  0  0  0  0  0  0  0  0  0
  1  2  1  0  0  0  0
  1 24  1  0  0  0  0
  1 25  1  0  0  0  0
  1 26  1  0  0  0  0
  2  3  1  0  0  0  0
  2  4  1  0  0  0  0
  2 53  1  0  0  0  0
  3 27  1  0  0  0  0
  3 28  1  0  0  0  0
  3 29  1  0  0  0  0
  4 23  1  0  0  0  0
  4  5  1  0  0  0  0
  4 30  1  0  0  0  0
  5  6  1  0  0  0  0
  5 31  1  0  0  0  0
  5 32  1  0  0  0  0
  6  7  1  0  0  0  0
  6 33  1  0  0  0  0
  6 34  1  0  0  0  0
  7  8  1  0  0  0  0
  7 22  1  0  0  0  0
  8  9  1  0  0  0  0
  8 10  1  0  0  0  0
  8 11  1  0  0  0  0
  9 35  1  0  0  0  0
  9 36  1  0  0  0  0
  9 37  1  0  0  0  0
 10 38  1  0  0  0  0
 10 39  1  0  0  0  0
 10 40  1  0  0  0  0
 11 12  1  0  0  0  0
 11 41  1  0  0  0  0
 11 42  1  0  0  0  0
 12 13  1  0  0  0  0
 12 43  1  0  0  0  0
 13 14  2  0  0  0  0
 13 15  1  0  0  0  0
 15 16  1  0  0  0  0
 15 44  1  0  0  0  0
 16 21  1  0  0  0  0
 16 17  2  0  0  0  0
 17 18  1  0  0  0  0
 17 45  1  0  0  0  0
 18 19  2  0  0  0  0
 18 46  1  0  0  0  0
 19 20  1  0  0  0  0
 19 47  1  0  0  0  0
 20 21  2  0  0  0  0
 21 48  1  0  0  0  0
 22 23  1  0  0  0  0
 22 49  1  0  0  0  0
 22 50  1  0  0  0  0
 23 51  1  0  0  0  0
 23 52  1  0  0  0  0
M  CHG  1   2   1
M  END
> <s_m_source_file>
AV-unprocessed.smi

> <i_m_source_file_index>
2668

> <i_lp_mmshare_version>
43012

> <i_f3d_flags>
0

> <s_epik_input>
W0NIM11OKFtDSDNdKVtDSF0xW0NIMl1bQ0gyXU4oW0NIMl1bQ0gyXTEpQyhbQ0gzXSkoW0NIM10pW0NIMl1bTkhdQyg9TylbTkhdYzJbY0hdW2NIXVtjSF1uW2NIXTI=

> <s_epik_cmdline>
J2VwaWtfcHl0aG9uJywgJy1waCcsICc3LjAnLCAnLXRuJywgJzgnLCAnLW1hJywgJzIwMCcsICctbWV0YWxfYmluZGluZycsICctaW1hZScsICc8aW5maWxlLm1hZT4nLCAnLW9tYWUnLCAnPG91dGZpbGUubWFlPic=

> <r_epik_Ionization_Penalty>
0.934314

> <r_epik_Ionization_Penalty_Charging>
0.000670549

> <r_epik_Ionization_Penalty_Neutral>
0.933644

> <r_epik_State_Penalty>
1.01912

> <r_epik_Charging_Adjusted_Penalty>
1.01979

> <i_epik_Tot_Q>
1

> <i_epik_Tot_abs_Q>
1

> <r_epik_Metal_State_Penalty>
1.01854

> <b_epik_Metal_Only>
0

> <s_lp_Force_Field>
OPLS_2005

> <r_lp_Energy>
39.6452

> <b_lp_Chiralities_Consistent>
1

> <s_lp_Variant>
AV-unprocessed.smi:2668-3

> <Gold.Version>
5.8.1

> <Gold.Id.Protein>
6NUR|6NUR_protein|mol2

> <Gold.PLP.Fitness>
44.6408

> <Gold.PLP.PLP>
-35.5396

> <Gold.PLP.part.hbond>
-1.9965

> <Gold.PLP.part.metal>
0.0000

> <Gold.PLP.part.buried>
-5.2722

> <Gold.PLP.part.nonpolar>
-28.5221

> <Gold.PLP.part.repulsive>
0.2664

> <Gold.PLP.ligand.clash>
0.0000

> <Gold.PLP.ligand.torsion>
0.1349

> <Gold.PLP.Chemscore.Hbond>
1.6940

> <Gold.PLP.Chemscore.CHOScore>
1.3901

> <Gold.PLP.Chemscore.Metal>
0.0000

> <Gold.Chemscore.Hbonds>
donor molecule, donor type, donor heavy atom, donor atom, acceptor molecule, acceptor atom, score
      L1  H    12    43       P1  7948  0.69
      L1  H    15    44       P1  7948  1.00
      L1  C    19    47       P1 10186  1.00
      L1  C    21    48       P1  7948  0.33

> <Gold.PLP.Chemscore.Internal.Correction>
0.1187

> <Gold.Rescore>
     Score         DG    S(hbond)    S(metal)    S(lipo)     H(rot)  DE(clash)    DE(int)     intcor
     17.85     -19.22       1.94        0.00      98.29       1.65       0.06       1.31       ----

> <Gold.Chemscore.Fitness>
17.8516

> <Gold.Chemscore.DG>
-19.2215

> <Gold.Chemscore.ZeroCoef>
-5.4800

> <Gold.Chemscore.Hbond>
1.9352

> <Gold.Chemscore.Metal>
0.0000

> <Gold.Chemscore.Lipo>
98.2896

> <Gold.Chemscore.Internal_Hbond>
0.0000

> <Gold.Chemscore.DEClash>
0.0604

> <Gold.Chemscore.DEInternal>
1.3095

> <Gold.Chemscore.Rot>
1.6492

> <Gold.Chemscore.Internal.Correction>
   9.000000E+99

> <Gold.Chemscore.Hbonds>
donor molecule, donor type, donor heavy atom, donor atom, acceptor molecule, acceptor atom, score
      L1  H    12    43       P1  7948  0.68
      L1  H    15    44       P1  7948  0.96

> <Gold.Chemscore.Hbond.Weighted>
-6.4637

> <Gold.Chemscore.Metal.Weighted>
-0.0000

> <Gold.Chemscore.Lipo.Weighted>
-11.4999

> <Gold.Chemscore.Internal_Hbond.Weighted>
0.0000

> <Gold.Chemscore.DEClash.Weighted>
0.0604

> <Gold.Chemscore.DEInternal.Weighted>
1.3095

> <Gold.Chemscore.Rot.Weighted>
4.2220

> <Gold.Chemscore.Internal.Correction.Weighted>
   9.000000E+99

> <Gold.Protein.RotatedTorsions>
[ 6907 6896 6895 6894 ] final  -35.09 input  -60.11 | X-H torsion
[ 7974 7965 7964 7962 ] final -106.91 input  175.53 | X-H torsion
[ 8008 7997 7996 7995 ] final  -65.24 input   59.86 | X-H torsion
[ 10167 10162 10161 10158 ] final  177.10 input  -65.29 | X-H torsion
[ 10718 10713 10712 10709 ] final   94.03 input   66.30 | X-H torsion
[ 10763 10752 10751 10750 ] final   95.05 input  -60.55 | X-H torsion
[ 11005 11000 10999 10996 ] final  -98.12 input  -57.11 | X-H torsion

> <Gold.Protein.ActiveResidues>
 VAL166  LYS551  ARG553  GLY616  TRP617  ASP618  TYR619  PRO620  LYS621  CYS622 
 ASP623  PHE694  ASN695  SER759  ASP760  ASP761  ALA762  ILE779  LEU786  VAL792 
 PHE793  MET794  SER795  GLU796  ALA797  LYS798  CYS799  TRP800  GLU811  SER814 

> <Gold.Protein.RotatedAtoms>
  151.0443  134.9629  159.8177 H   0  0  0  0  0  0  0  0  0  0  0  0  # atno 6907 bound_to 6896
  152.5369  134.2619  159.8948 H   0  0  0  0  0  0  0  0  0  0  0  0  # atno 6908 bound_to 6896
  151.2632  133.4249  159.2651 H   0  0  0  0  0  0  0  0  0  0  0  0  # atno 6909 bound_to 6896
  145.2120  140.9100  143.3309 H   0  0  0  0  0  0  0  0  0  0  0  0  # atno 7974 bound_to 7965
  154.4660  140.0937  156.7020 H   0  0  0  0  0  0  0  0  0  0  0  0  # atno 8008 bound_to 7997
  155.4858  140.3469  155.4328 H   0  0  0  0  0  0  0  0  0  0  0  0  # atno 8009 bound_to 7997
  156.0956  140.1408  156.9524 H   0  0  0  0  0  0  0  0  0  0  0  0  # atno 8010 bound_to 7997
  139.5240  144.2837  152.0524 H   0  0  0  0  0  0  0  0  0  0  0  0  # atno 10167 bound_to 10162
  157.6951  131.0498  150.4124 H   0  0  0  0  0  0  0  0  0  0  0  0  # atno 10718 bound_to 10713
  153.2487  135.4268  155.0775 H   0  0  0  0  0  0  0  0  0  0  0  0  # atno 10763 bound_to 10752
  154.8372  135.3420  154.6544 H   0  0  0  0  0  0  0  0  0  0  0  0  # atno 10764 bound_to 10752
  153.6966  135.7031  153.5131 H   0  0  0  0  0  0  0  0  0  0  0  0  # atno 10765 bound_to 10752
  141.1356  133.8221  157.0797 H   0  0  0  0  0  0  0  0  0  0  0  0  # atno 11005 bound_to 11000
  144.9847  139.3748  143.6244 LP  0  0  0  0  0  0  0  0  0  0  0  0  # atno 17320 bound_to 7965
  146.3395  139.9003  142.8795 LP  0  0  0  0  0  0  0  0  0  0  0  0  # atno 17321 bound_to 7965
  140.2291  144.4387  150.6308 LP  0  0  0  0  0  0  0  0  0  0  0  0  # atno 17342 bound_to 10162
  140.6367  143.2196  151.6379 LP  0  0  0  0  0  0  0  0  0  0  0  0  # atno 17343 bound_to 10162
  156.4507  130.4011  149.6638 LP  0  0  0  0  0  0  0  0  0  0  0  0  # atno 17370 bound_to 10713
  156.3789  130.7568  151.2559 LP  0  0  0  0  0  0  0  0  0  0  0  0  # atno 17371 bound_to 10713
  140.0459  134.9830  157.1048 LP  0  0  0  0  0  0  0  0  0  0  0  0  # atno 17394 bound_to 11000
  140.4063  134.2029  155.7163 LP  0  0  0  0  0  0  0  0  0  0  0  0  # atno 17395 bound_to 11000

$$$$
