AV-unprocessed.smi:1|AV-procd|sdf|23|dock3
  -GOLD-   2262015133D 1   1.00000     0.00000
 Structure written by MMmdl.
 56 61  0  0  0  0  0  0  0  0  2 V2000
  153.0754  140.1164  158.3284 O   0  0  0  0  0  0  0  0  0  0  0  0
  152.3963  141.0570  157.9112 C   0  0  0  0  0  0  0  0  0  0  0  0
  151.7610  141.1612  156.7168 N   0  5  0  0  0  0  0  0  0  0  0  0
  151.0009  140.1494  156.2726 C   0  0  0  0  0  0  0  0  0  0  0  0
  150.6524  140.0721  154.9627 N   0  0  0  0  0  0  0  0  0  0  0  0
  149.8825  139.0681  154.5261 C   0  0  0  0  0  0  0  0  0  0  0  0
  149.3508  138.0548  155.2170 N   0  0  0  0  0  0  0  0  0  0  0  0
  149.6903  138.1265  156.5375 C   0  0  0  0  0  0  0  0  0  0  0  0
  150.5022  139.1342  157.1333 C   0  0  0  0  0  0  0  0  0  0  0  0
  150.6475  138.9090  158.4948 N   0  0  0  0  0  0  0  0  0  0  0  0
  149.9328  137.7985  158.6615 C   0  0  0  0  0  0  0  0  0  0  0  0
  149.3339  137.2783  157.5723 N   0  0  0  0  0  0  0  0  0  0  0  0
  148.4804  136.0606  157.4969 C   0  0  2  0  0  0  0  0  0  0  0  0
  148.9955  135.2086  156.5272 O   0  0  0  0  0  0  0  0  0  0  0  0
  147.9387  134.4577  155.9330 C   0  0  2  0  0  0  0  0  0  0  0  0
  148.1163  134.5107  154.4108 C   0  0  0  0  0  0  0  0  0  0  0  0
  147.4381  133.4124  153.8234 O   0  0  0  0  0  0  0  0  0  0  0  0
  148.0956  132.2626  153.5801 C   0  0  0  0  0  0  0  0  0  0  0  0
  149.2798  132.0791  153.8692 O   0  0  0  0  0  0  0  0  0  0  0  0
  147.2379  131.2331  152.9247 C   0  0  0  0  0  0  0  0  0  0  0  0
  147.5461  129.8631  153.0943 C   0  0  0  0  0  0  0  0  0  0  0  0
  146.7535  128.8687  152.4882 C   0  0  0  0  0  0  0  0  0  0  0  0
  145.6432  129.2325  151.7042 C   0  0  0  0  0  0  0  0  0  0  0  0
  145.3267  130.5919  151.5267 C   0  0  0  0  0  0  0  0  0  0  0  0
  146.1178  131.5875  152.1325 C   0  0  0  0  0  0  0  0  0  0  0  0
  146.6248  135.0931  156.4164 C   0  0  1  0  0  0  0  0  0  0  0  0
  146.0315  134.2784  157.4140 O   0  0  0  0  0  0  0  0  0  0  0  0
  145.5198  135.2549  158.6699 S   0  0  0  0  0  0  0  0  0  0  0  0
  144.0612  135.4136  158.5682 O   0  0  0  0  0  0  0  0  0  0  0  0
  146.1842  134.8037  159.9022 O   0  0  0  0  0  0  0  0  0  0  0  0
  146.2352  136.6828  158.1808 O   0  0  0  0  0  0  0  0  0  0  0  0
  147.0601  136.4102  157.0630 C   0  0  1  0  0  0  0  0  0  0  0  0
  152.2667  142.2918  158.7618 C   0  0  0  0  0  0  0  0  0  0  0  0
  151.8676  143.5116  158.1697 C   0  0  0  0  0  0  0  0  0  0  0  0
  151.7683  144.6845  158.9434 C   0  0  0  0  0  0  0  0  0  0  0  0
  152.0776  144.6522  160.3160 C   0  0  0  0  0  0  0  0  0  0  0  0
  152.4894  143.4465  160.9140 C   0  0  0  0  0  0  0  0  0  0  0  0
  152.5877  142.2729  160.1413 C   0  0  0  0  0  0  0  0  0  0  0  0
  149.6575  139.0804  153.4701 H   0  0  0  0  0  0  0  0  0  0  0  0
  149.8334  137.3400  159.6344 H   0  0  0  0  0  0  0  0  0  0  0  0
  148.5393  135.5908  158.4799 H   0  0  0  0  0  0  0  0  0  0  0  0
  148.0139  133.4247  156.2757 H   0  0  0  0  0  0  0  0  0  0  0  0
  147.7344  135.4523  154.0133 H   0  0  0  0  0  0  0  0  0  0  0  0
  149.1765  134.4537  154.1608 H   0  0  0  0  0  0  0  0  0  0  0  0
  148.3933  129.5593  153.6925 H   0  0  0  0  0  0  0  0  0  0  0  0
  146.9977  127.8257  152.6259 H   0  0  0  0  0  0  0  0  0  0  0  0
  145.0351  128.4700  151.2401 H   0  0  0  0  0  0  0  0  0  0  0  0
  144.4748  130.8725  150.9249 H   0  0  0  0  0  0  0  0  0  0  0  0
  145.8464  132.6212  151.9750 H   0  0  0  0  0  0  0  0  0  0  0  0
  145.9015  135.2511  155.6154 H   0  0  0  0  0  0  0  0  0  0  0  0
  147.0614  137.2242  156.3376 H   0  0  0  0  0  0  0  0  0  0  0  0
  151.6297  143.5537  157.1165 H   0  0  0  0  0  0  0  0  0  0  0  0
  151.4563  145.6097  158.4819 H   0  0  0  0  0  0  0  0  0  0  0  0
  152.0030  145.5520  160.9085 H   0  0  0  0  0  0  0  0  0  0  0  0
  152.7337  143.4208  161.9657 H   0  0  0  0  0  0  0  0  0  0  0  0
  152.9168  141.3601  160.6171 H   0  0  0  0  0  0  0  0  0  0  0  0
  1  2  2  0  0  0  0
  2  3  1  0  0  0  0
  2 33  1  0  0  0  0
  3  4  1  0  0  0  0
  4  9  1  0  0  0  0
  4  5  2  0  0  0  0
  5  6  1  0  0  0  0
  6  7  2  0  0  0  0
  6 39  1  0  0  0  0
  7  8  1  0  0  0  0
  8 12  1  0  0  0  0
  8  9  2  0  0  0  0
  9 10  1  0  0  0  0
 10 11  2  0  0  0  0
 11 12  1  0  0  0  0
 11 40  1  0  0  0  0
 12 13  1  0  0  0  0
 13 32  1  0  0  0  0
 13 14  1  0  0  0  0
 13 41  1  0  0  0  0
 14 15  1  0  0  0  0
 15 16  1  0  0  0  0
 15 26  1  0  0  0  0
 15 42  1  0  0  0  0
 16 17  1  0  0  0  0
 16 43  1  0  0  0  0
 16 44  1  0  0  0  0
 17 18  1  0  0  0  0
 18 19  2  0  0  0  0
 18 20  1  0  0  0  0
 20 25  1  0  0  0  0
 20 21  2  0  0  0  0
 21 22  1  0  0  0  0
 21 45  1  0  0  0  0
 22 23  2  0  0  0  0
 22 46  1  0  0  0  0
 23 24  1  0  0  0  0
 23 47  1  0  0  0  0
 24 25  2  0  0  0  0
 24 48  1  0  0  0  0
 25 49  1  0  0  0  0
 26 32  1  0  0  0  0
 26 27  1  0  0  0  0
 26 50  1  0  0  0  0
 27 28  1  0  0  0  0
 28 29  2  0  0  0  0
 28 30  2  0  0  0  0
 28 31  1  0  0  0  0
 31 32  1  0  0  0  0
 32 51  1  0  0  0  0
 33 38  1  0  0  0  0
 33 34  2  0  0  0  0
 34 35  1  0  0  0  0
 34 52  1  0  0  0  0
 35 36  2  0  0  0  0
 35 53  1  0  0  0  0
 36 37  1  0  0  0  0
 36 54  1  0  0  0  0
 37 38  2  0  0  0  0
 37 55  1  0  0  0  0
 38 56  1  0  0  0  0
M  CHG  1   3  -1
M  END
> <s_m_source_file>
AV-unprocessed.smi

> <i_m_source_file_index>
1

> <i_lp_mmshare_version>
43012

> <i_f3d_flags>
0

> <s_epik_input>
W2NIXTFbY0hdW2NIXVtjSF1bY0hdYzFDKD1PKVtOSF1jKG5bY0hdbjIpYyhjMjMpbltjSF1uM1tDQEBIXShbQ0BIXShbQ0BIXTQ1KU9TKE81KSg9Tyk9TylPW0NASF00W0NIMl1PQyg9TyljNltjSF1bY0hdW2NIXVtjSF1bY0hdNg==

> <s_epik_cmdline>
J2VwaWtfcHl0aG9uJywgJy1waCcsICc3LjAnLCAnLXRuJywgJzgnLCAnLW1hJywgJzIwMCcsICctbWV0YWxfYmluZGluZycsICctaW1hZScsICc8aW5maWxlLm1hZT4nLCAnLW9tYWUnLCAnPG91dGZpbGUubWFlPic=

> <r_lp_tautomer_probability>
1

> <r_epik_Ionization_Penalty>
4.39121

> <r_epik_Ionization_Penalty_Charging>
3.39398

> <r_epik_Ionization_Penalty_Neutral>
0.997232

> <r_epik_State_Penalty>
3.39839

> <r_epik_Charging_Adjusted_Penalty>
6.79237

> <i_epik_Tot_Q>
-1

> <i_epik_Tot_abs_Q>
1

> <r_epik_Metal_State_Penalty>
0.497663

> <b_epik_Metal_Only>
1

> <s_epik_Chemistry_Notes>
This compound has an ester and may undergo hydrolysis at high or low pH. This compound contains an acetal/aminal-like group ( X-CH(R)-Y where X, Y are N, S, or O) that may be acid/base labile, releasing an aldehyde.

> <s_lp_Force_Field>
OPLS_2005

> <r_lp_Energy>
40.5787

> <b_lp_Chiralities_Consistent>
1

> <s_lp_Variant>
AV-unprocessed.smi:1-23

> <Gold.Version>
5.8.1

> <Gold.Id.Protein>
6NUR|6NUR_protein|mol2

> <Gold.PLP.Fitness>
55.2723

> <Gold.PLP.PLP>
-48.5292

> <Gold.PLP.part.hbond>
-2.0000

> <Gold.PLP.part.metal>
0.0000

> <Gold.PLP.part.buried>
-5.5726

> <Gold.PLP.part.nonpolar>
-39.9899

> <Gold.PLP.part.repulsive>
0.3260

> <Gold.PLP.ligand.clash>
0.0000

> <Gold.PLP.ligand.torsion>
1.3963

> <Gold.PLP.Chemscore.Hbond>
1.9833

> <Gold.PLP.Chemscore.CHOScore>
0.9950

> <Gold.PLP.Chemscore.Metal>
0.0000

> <Gold.Chemscore.Hbonds>
donor molecule, donor type, donor heavy atom, donor atom, acceptor molecule, acceptor atom, score
      P1  H  7989  7998       L1     5  1.00
      P1  H  7997  8008       L1     1  0.98
      L1  C     6    39       P1  7957  1.00

> <Gold.PLP.Chemscore.Internal.Correction>
0.6006

> <Gold.Rescore>
     Score         DG    S(hbond)    S(metal)    S(lipo)     H(rot)  DE(clash)    DE(int)     intcor
     14.82     -20.31       1.66        0.00     125.52       2.11       0.60       4.89       ----

> <Gold.Chemscore.Fitness>
14.8227

> <Gold.Chemscore.DG>
-20.3063

> <Gold.Chemscore.ZeroCoef>
-5.4800

> <Gold.Chemscore.Hbond>
1.6622

> <Gold.Chemscore.Metal>
0.0000

> <Gold.Chemscore.Lipo>
125.5163

> <Gold.Chemscore.Internal_Hbond>
0.0000

> <Gold.Chemscore.DEClash>
0.5975

> <Gold.Chemscore.DEInternal>
4.8861

> <Gold.Chemscore.Rot>
2.1136

> <Gold.Chemscore.Internal.Correction>
   9.000000E+99

> <Gold.Chemscore.Hbonds>
donor molecule, donor type, donor heavy atom, donor atom, acceptor molecule, acceptor atom, score
      P1  H  7989  7998       L1     5  0.78
      P1  H  7997  8008       L1     1  0.45

> <Gold.Chemscore.Hbond.Weighted>
-5.5517

> <Gold.Chemscore.Metal.Weighted>
-0.0000

> <Gold.Chemscore.Lipo.Weighted>
-14.6854

> <Gold.Chemscore.Internal_Hbond.Weighted>
0.0000

> <Gold.Chemscore.DEClash.Weighted>
0.5975

> <Gold.Chemscore.DEInternal.Weighted>
4.8861

> <Gold.Chemscore.Rot.Weighted>
5.4107

> <Gold.Chemscore.Internal.Correction.Weighted>
   9.000000E+99

> <Gold.Protein.RotatedTorsions>
[ 6907 6896 6895 6894 ] final   -0.10 input  -60.11 | X-H torsion
[ 7974 7965 7964 7962 ] final -146.41 input  175.53 | X-H torsion
[ 8008 7997 7996 7995 ] final  -91.74 input   59.86 | X-H torsion
[ 10167 10162 10161 10158 ] final  -44.05 input  -65.29 | X-H torsion
[ 10718 10713 10712 10709 ] final   81.87 input   66.30 | X-H torsion
[ 10763 10752 10751 10750 ] final -114.01 input  -60.55 | X-H torsion
[ 11005 11000 10999 10996 ] final  107.40 input  -57.11 | X-H torsion

> <Gold.Protein.ActiveResidues>
 VAL166  LYS551  ARG553  GLY616  TRP617  ASP618  TYR619  PRO620  LYS621  CYS622 
 ASP623  PHE694  ASN695  SER759  ASP760  ASP761  ALA762  ILE779  LEU786  VAL792 
 PHE793  MET794  SER795  GLU796  ALA797  LYS798  CYS799  TRP800  GLU811  SER814 

> <Gold.Protein.RotatedAtoms>
  151.5677  135.1063  159.9987 H   0  0  0  0  0  0  0  0  0  0  0  0  # atno 6907 bound_to 6896
  152.4416  133.7454  159.6675 H   0  0  0  0  0  0  0  0  0  0  0  0  # atno 6908 bound_to 6896
  150.8323  133.8002  159.3117 H   0  0  0  0  0  0  0  0  0  0  0  0  # atno 6909 bound_to 6896
  144.8161  140.5460  143.5609 H   0  0  0  0  0  0  0  0  0  0  0  0  # atno 7974 bound_to 7965
  154.7144  140.0516  157.0581 H   0  0  0  0  0  0  0  0  0  0  0  0  # atno 8008 bound_to 7997
  155.0511  140.3179  155.4673 H   0  0  0  0  0  0  0  0  0  0  0  0  # atno 8009 bound_to 7997
  156.2799  140.2115  156.5636 H   0  0  0  0  0  0  0  0  0  0  0  0  # atno 8010 bound_to 7997
  140.6911  143.2950  151.3439 H   0  0  0  0  0  0  0  0  0  0  0  0  # atno 10167 bound_to 10162
  157.6843  131.0023  150.2290 H   0  0  0  0  0  0  0  0  0  0  0  0  # atno 10718 bound_to 10713
  154.8422  135.4433  154.1439 H   0  0  0  0  0  0  0  0  0  0  0  0  # atno 10763 bound_to 10752
  153.2617  135.6937  153.7577 H   0  0  0  0  0  0  0  0  0  0  0  0  # atno 10764 bound_to 10752
  153.6851  135.3396  155.3163 H   0  0  0  0  0  0  0  0  0  0  0  0  # atno 10765 bound_to 10752
  139.8827  134.9399  156.5813 H   0  0  0  0  0  0  0  0  0  0  0  0  # atno 11005 bound_to 11000
  145.5210  139.1476  143.3552 LP  0  0  0  0  0  0  0  0  0  0  0  0  # atno 17320 bound_to 7965
  146.2465  140.5351  142.8912 LP  0  0  0  0  0  0  0  0  0  0  0  0  # atno 17321 bound_to 7965
  139.6316  144.0711  152.2481 LP  0  0  0  0  0  0  0  0  0  0  0  0  # atno 17342 bound_to 10162
  140.0187  144.6169  150.7585 LP  0  0  0  0  0  0  0  0  0  0  0  0  # atno 17343 bound_to 10162
  156.2926  130.3747  149.7826 LP  0  0  0  0  0  0  0  0  0  0  0  0  # atno 17370 bound_to 10713
  156.5481  130.8330  151.3291 LP  0  0  0  0  0  0  0  0  0  0  0  0  # atno 17371 bound_to 10713
  140.8024  133.8494  155.8738 LP  0  0  0  0  0  0  0  0  0  0  0  0  # atno 17394 bound_to 11000
  140.9580  134.1693  157.4676 LP  0  0  0  0  0  0  0  0  0  0  0  0  # atno 17395 bound_to 11000

$$$$
