AV-unprocessed.smi:1007|AV-procd|sdf|4399|dock5
  -GOLD-   22720 2333D 1   1.00000     0.00000
 Structure written by MMmdl.
 56 58  0  0  0  0  0  0  0  0  2 V2000
  142.3758  145.4229  155.6393 C   0  0  0  0  0  0  0  0  0  0  0  0
  142.6222  144.7252  156.8479 O   0  0  0  0  0  0  0  0  0  0  0  0
  142.6742  143.3209  156.6636 C   0  0  0  0  0  0  0  0  0  0  0  0
  143.6969  143.0109  155.5602 C   0  0  0  0  0  0  0  0  0  0  0  0
  144.9093  143.8355  155.5901 N   0  0  0  0  0  0  0  0  0  0  0  0
  145.7502  143.5628  156.7552 C   0  0  0  0  0  0  0  0  0  0  0  0
  146.4676  142.1996  156.6827 C   0  0  0  0  0  0  0  0  0  0  0  0
  147.2878  142.1073  155.4472 N   0  3  0  0  0  0  0  0  0  0  0  0
  148.0459  140.8327  155.3735 C   0  0  0  0  0  0  0  0  0  0  0  0
  149.4006  140.9727  154.6441 C   0  0  1  0  0  0  0  0  0  0  0  0
  149.1618  141.4565  153.3363 O   0  0  0  0  0  0  0  0  0  0  0  0
  150.3872  141.9199  155.3631 C   0  0  0  0  0  0  0  0  0  0  0  0
  151.0024  141.3360  156.5445 N   0  0  0  0  0  0  0  0  0  0  0  0
  151.3046  140.0383  156.7457 C   0  0  0  0  0  0  0  0  0  0  0  0
  151.8783  139.7182  157.9017 N   0  0  0  0  0  0  0  0  0  0  0  0
  151.9507  140.9502  158.5282 C   0  0  0  0  0  0  0  0  0  0  0  0
  152.4644  141.3064  159.7942 C   0  0  0  0  0  0  0  0  0  0  0  0
  152.4380  142.6483  160.2360 C   0  0  0  0  0  0  0  0  0  0  0  0
  153.0032  142.9868  161.6043 C   0  0  0  0  0  0  0  0  0  0  0  0
  151.8899  143.6587  159.4060 C   0  0  0  0  0  0  0  0  0  0  0  0
  151.8522  145.1076  159.8581 C   0  0  0  0  0  0  0  0  0  0  0  0
  151.3698  143.3200  158.1395 C   0  0  0  0  0  0  0  0  0  0  0  0
  151.4056  141.9818  157.7090 C   0  0  0  0  0  0  0  0  0  0  0  0
  146.4569  142.3821  154.2441 C   0  0  0  0  0  0  0  0  0  0  0  0
  145.7398  143.7403  154.3870 C   0  0  0  0  0  0  0  0  0  0  0  0
  142.3421  146.4946  155.8352 H   0  0  0  0  0  0  0  0  0  0  0  0
  141.4201  145.1307  155.2021 H   0  0  0  0  0  0  0  0  0  0  0  0
  143.1656  145.2388  154.9097 H   0  0  0  0  0  0  0  0  0  0  0  0
  142.9559  142.8436  157.6025 H   0  0  0  0  0  0  0  0  0  0  0  0
  141.6899  142.9451  156.3794 H   0  0  0  0  0  0  0  0  0  0  0  0
  143.9866  141.9651  155.6707 H   0  0  0  0  0  0  0  0  0  0  0  0
  143.2071  143.0796  154.5894 H   0  0  0  0  0  0  0  0  0  0  0  0
  146.4994  144.3508  156.8446 H   0  0  0  0  0  0  0  0  0  0  0  0
  145.1522  143.6190  157.6656 H   0  0  0  0  0  0  0  0  0  0  0  0
  147.1107  142.0882  157.5564 H   0  0  0  0  0  0  0  0  0  0  0  0
  145.7506  141.3782  156.7154 H   0  0  0  0  0  0  0  0  0  0  0  0
  148.2275  140.4721  156.3870 H   0  0  0  0  0  0  0  0  0  0  0  0
  147.4266  140.0781  154.8865 H   0  0  0  0  0  0  0  0  0  0  0  0
  149.8855  140.0016  154.5547 H   0  0  0  0  0  0  0  0  0  0  0  0
  149.1567  140.7233  152.7391 H   0  0  0  0  0  0  0  0  0  0  0  0
  151.1807  142.2172  154.6765 H   0  0  0  0  0  0  0  0  0  0  0  0
  149.8804  142.8401  155.6575 H   0  0  0  0  0  0  0  0  0  0  0  0
  151.0987  139.2872  155.9972 H   0  0  0  0  0  0  0  0  0  0  0  0
  152.8815  140.5363  160.4265 H   0  0  0  0  0  0  0  0  0  0  0  0
  152.2476  143.4717  162.2225 H   0  0  0  0  0  0  0  0  0  0  0  0
  153.8568  143.6582  161.5089 H   0  0  0  0  0  0  0  0  0  0  0  0
  153.3382  142.0916  162.1287 H   0  0  0  0  0  0  0  0  0  0  0  0
  151.4392  145.7556  159.0844 H   0  0  0  0  0  0  0  0  0  0  0  0
  152.8566  145.4629  160.0891 H   0  0  0  0  0  0  0  0  0  0  0  0
  151.2332  145.2130  160.7493 H   0  0  0  0  0  0  0  0  0  0  0  0
  150.9481  144.0809  157.5000 H   0  0  0  0  0  0  0  0  0  0  0  0
  147.0822  142.4113  153.3531 H   0  0  0  0  0  0  0  0  0  0  0  0
  145.7375  141.5767  154.0927 H   0  0  0  0  0  0  0  0  0  0  0  0
  145.1479  143.9452  153.4959 H   0  0  0  0  0  0  0  0  0  0  0  0
  146.4930  144.5289  154.4178 H   0  0  0  0  0  0  0  0  0  0  0  0
  147.9743  142.8460  155.5095 H   0  0  0  0  0  0  0  0  0  0  0  0
  1  2  1  0  0  0  0
  1 26  1  0  0  0  0
  1 27  1  0  0  0  0
  1 28  1  0  0  0  0
  2  3  1  0  0  0  0
  3  4  1  0  0  0  0
  3 29  1  0  0  0  0
  3 30  1  0  0  0  0
  4  5  1  0  0  0  0
  4 31  1  0  0  0  0
  4 32  1  0  0  0  0
  5 25  1  0  0  0  0
  5  6  1  0  0  0  0
  6  7  1  0  0  0  0
  6 33  1  0  0  0  0
  6 34  1  0  0  0  0
  7  8  1  0  0  0  0
  7 35  1  0  0  0  0
  7 36  1  0  0  0  0
  8  9  1  0  0  0  0
  8 24  1  0  0  0  0
  8 56  1  0  0  0  0
  9 10  1  0  0  0  0
  9 37  1  0  0  0  0
  9 38  1  0  0  0  0
 10 11  1  0  0  0  0
 10 12  1  0  0  0  0
 10 39  1  0  0  0  0
 11 40  1  0  0  0  0
 12 13  1  0  0  0  0
 12 41  1  0  0  0  0
 12 42  1  0  0  0  0
 13 23  1  0  0  0  0
 13 14  1  0  0  0  0
 14 15  2  0  0  0  0
 14 43  1  0  0  0  0
 15 16  1  0  0  0  0
 16 23  2  0  0  0  0
 16 17  1  0  0  0  0
 17 18  2  0  0  0  0
 17 44  1  0  0  0  0
 18 19  1  0  0  0  0
 18 20  1  0  0  0  0
 19 45  1  0  0  0  0
 19 46  1  0  0  0  0
 19 47  1  0  0  0  0
 20 21  1  0  0  0  0
 20 22  2  0  0  0  0
 21 48  1  0  0  0  0
 21 49  1  0  0  0  0
 21 50  1  0  0  0  0
 22 23  1  0  0  0  0
 22 51  1  0  0  0  0
 24 25  1  0  0  0  0
 24 52  1  0  0  0  0
 24 53  1  0  0  0  0
 25 54  1  0  0  0  0
 25 55  1  0  0  0  0
M  CHG  1   8   1
M  END
> <s_m_source_file>
AV-unprocessed.smi

> <i_m_source_file_index>
1007

> <i_lp_mmshare_version>
43012

> <i_f3d_flags>
0

> <s_epik_input>
W0NIM11PW0NIMl1bQ0gyXU4xW0NIMl1bQ0gyXU4oW0NIMl1bQ0gyXTEpW0NIMl1bQ0BIXShbT0hdKVtDSDJdbihbY0hdbjIpYyhjMjMpW2NIXWMoW0NIM10pYyhbY0hdMylbQ0gzXQ==

> <s_epik_cmdline>
J2VwaWtfcHl0aG9uJywgJy1waCcsICc3LjAnLCAnLXRuJywgJzgnLCAnLW1hJywgJzIwMCcsICctbWV0YWxfYmluZGluZycsICctaW1hZScsICc8aW5maWxlLm1hZT4nLCAnLW9tYWUnLCAnPG91dGZpbGUubWFlPic=

> <r_epik_Ionization_Penalty>
0.102698

> <r_epik_Ionization_Penalty_Charging>
0.00226046

> <r_epik_Ionization_Penalty_Neutral>
0.100438

> <r_epik_State_Penalty>
0.191223

> <r_epik_Charging_Adjusted_Penalty>
0.193484

> <i_epik_Tot_Q>
1

> <i_epik_Tot_abs_Q>
1

> <r_epik_Metal_State_Penalty>
0.102154

> <b_epik_Metal_Only>
0

> <s_lp_Force_Field>
OPLS_2005

> <r_lp_Energy>
31.116

> <b_lp_Chiralities_Consistent>
1

> <s_lp_Variant>
AV-unprocessed.smi:1007-2

> <Gold.Version>
5.8.1

> <Gold.Id.Protein>
6NUR|6NUR_protein|mol2

> <Gold.PLP.Fitness>
55.8023

> <Gold.PLP.PLP>
-46.8346

> <Gold.PLP.part.hbond>
-3.6851

> <Gold.PLP.part.metal>
0.0000

> <Gold.PLP.part.buried>
-3.7838

> <Gold.PLP.part.nonpolar>
-36.9780

> <Gold.PLP.part.repulsive>
0.2258

> <Gold.PLP.ligand.clash>
0.0128

> <Gold.PLP.ligand.torsion>
1.0150

> <Gold.PLP.Chemscore.Hbond>
3.5923

> <Gold.PLP.Chemscore.CHOScore>
0.0000

> <Gold.PLP.Chemscore.Metal>
0.0000

> <Gold.Chemscore.Hbonds>
donor molecule, donor type, donor heavy atom, donor atom, acceptor molecule, acceptor atom, score
      L1  H     8    56       P1  8028  1.82
      L1  H    11    40       P1  7957  0.96
      P1  H  8011  8017       L1    11  0.66

> <Gold.PLP.Chemscore.Internal.Correction>
0.2336

> <Gold.Rescore>
     Score         DG    S(hbond)    S(metal)    S(lipo)     H(rot)  DE(clash)    DE(int)     intcor
     16.66     -20.75       1.90        0.00     132.24       2.56       1.92       2.17       ----

> <Gold.Chemscore.Fitness>
16.6589

> <Gold.Chemscore.DG>
-20.7483

> <Gold.Chemscore.ZeroCoef>
-5.4800

> <Gold.Chemscore.Hbond>
1.9006

> <Gold.Chemscore.Metal>
0.0000

> <Gold.Chemscore.Lipo>
132.2436

> <Gold.Chemscore.Internal_Hbond>
0.0000

> <Gold.Chemscore.DEClash>
1.9208

> <Gold.Chemscore.DEInternal>
2.1685

> <Gold.Chemscore.Rot>
2.5594

> <Gold.Chemscore.Internal.Correction>
   9.000000E+99

> <Gold.Chemscore.Hbonds>
donor molecule, donor type, donor heavy atom, donor atom, acceptor molecule, acceptor atom, score
      L1  H     8    56       P1  8028  0.74
      L1  H    11    40       P1  7957  0.92
      P1  H  8011  8017       L1    11  0.06

> <Gold.Chemscore.Hbond.Weighted>
-6.3480

> <Gold.Chemscore.Metal.Weighted>
-0.0000

> <Gold.Chemscore.Lipo.Weighted>
-15.4725

> <Gold.Chemscore.Internal_Hbond.Weighted>
0.0000

> <Gold.Chemscore.DEClash.Weighted>
1.9208

> <Gold.Chemscore.DEInternal.Weighted>
2.1685

> <Gold.Chemscore.Rot.Weighted>
6.5522

> <Gold.Chemscore.Internal.Correction.Weighted>
   9.000000E+99

> <Gold.Protein.RotatedTorsions>
[ 6907 6896 6895 6894 ] final -150.41 input  -60.11 | X-H torsion
[ 7974 7965 7964 7962 ] final -100.06 input  175.53 | X-H torsion
[ 8008 7997 7996 7995 ] final -165.73 input   59.86 | X-H torsion
[ 10167 10162 10161 10158 ] final  -49.40 input  -65.29 | X-H torsion
[ 10718 10713 10712 10709 ] final -113.13 input   66.30 | X-H torsion
[ 10763 10752 10751 10750 ] final   13.10 input  -60.55 | X-H torsion
[ 11005 11000 10999 10996 ] final  -51.05 input  -57.11 | X-H torsion

> <Gold.Protein.ActiveResidues>
 VAL166  LYS551  ARG553  GLY616  TRP617  ASP618  TYR619  PRO620  LYS621  CYS622 
 ASP623  PHE694  ASN695  SER759  ASP760  ASP761  ALA762  ILE779  LEU786  VAL792 
 PHE793  MET794  SER795  GLU796  ALA797  LYS798  CYS799  TRP800  GLU811  SER814 

> <Gold.Protein.RotatedAtoms>
  151.1982  133.4626  159.2595 H   0  0  0  0  0  0  0  0  0  0  0  0  # atno 6907 bound_to 6896
  151.1096  135.0019  159.8497 H   0  0  0  0  0  0  0  0  0  0  0  0  # atno 6908 bound_to 6896
  152.5449  134.1902  159.8724 H   0  0  0  0  0  0  0  0  0  0  0  0  # atno 6909 bound_to 6896
  145.2995  140.9373  143.2831 H   0  0  0  0  0  0  0  0  0  0  0  0  # atno 7974 bound_to 7965
  155.8539  140.0967  157.1657 H   0  0  0  0  0  0  0  0  0  0  0  0  # atno 8008 bound_to 7997
  154.3987  140.1378  156.3940 H   0  0  0  0  0  0  0  0  0  0  0  0  # atno 8009 bound_to 7997
  155.7931  140.3455  155.5363 H   0  0  0  0  0  0  0  0  0  0  0  0  # atno 8010 bound_to 7997
  140.6687  143.2699  151.4210 H   0  0  0  0  0  0  0  0  0  0  0  0  # atno 10167 bound_to 10162
  156.0747  130.5956  150.8600 H   0  0  0  0  0  0  0  0  0  0  0  0  # atno 10718 bound_to 10713
  153.1755  135.6819  153.8549 H   0  0  0  0  0  0  0  0  0  0  0  0  # atno 10763 bound_to 10752
  153.7899  135.3170  155.3378 H   0  0  0  0  0  0  0  0  0  0  0  0  # atno 10764 bound_to 10752
  154.8026  135.4768  154.0406 H   0  0  0  0  0  0  0  0  0  0  0  0  # atno 10765 bound_to 10752
  141.0850  133.6644  156.3820 H   0  0  0  0  0  0  0  0  0  0  0  0  # atno 11005 bound_to 11000
  144.9105  139.4534  143.6589 LP  0  0  0  0  0  0  0  0  0  0  0  0  # atno 17320 bound_to 7965
  146.3157  139.7911  142.8985 LP  0  0  0  0  0  0  0  0  0  0  0  0  # atno 17321 bound_to 7965
  139.5945  144.1426  152.2128 LP  0  0  0  0  0  0  0  0  0  0  0  0  # atno 17342 bound_to 10162
  140.0791  144.5715  150.7135 LP  0  0  0  0  0  0  0  0  0  0  0  0  # atno 17343 bound_to 10162
  157.5837  131.0946  150.9231 LP  0  0  0  0  0  0  0  0  0  0  0  0  # atno 17370 bound_to 10713
  156.9421  130.5388  149.5280 LP  0  0  0  0  0  0  0  0  0  0  0  0  # atno 17371 bound_to 10713
  140.5384  134.6144  157.5372 LP  0  0  0  0  0  0  0  0  0  0  0  0  # atno 17394 bound_to 11000
  139.9667  134.7361  156.0124 LP  0  0  0  0  0  0  0  0  0  0  0  0  # atno 17395 bound_to 11000

$$$$
