AV-unprocessed.smi:1901|AV-procd|sdf|7717|dock8
  -GOLD-   22720 9453D 1   1.00000     0.00000
 Structure written by MMmdl.
 28 29  0  0  0  0  0  0  0  0  1 V2000
  150.9686  141.0280  155.6223 O   0  0  0  0  0  0  0  0  0  0  0  0
  150.1698  141.9480  155.8004 C   0  0  0  0  0  0  0  0  0  0  0  0
  150.4231  143.0082  156.5814 N   0  0  0  0  0  0  0  0  0  0  0  0
  151.6582  143.2376  157.3249 C   0  0  0  0  0  0  0  0  0  0  0  0
  151.3832  143.6533  158.7823 C   0  0  1  0  0  0  0  0  0  0  0  0
  152.5621  143.4445  159.7101 C   0  0  0  0  0  0  0  0  0  0  0  0
  152.1924  144.3275  160.8982 C   0  0  0  0  0  0  0  0  0  0  0  0
  151.4232  145.4006  160.3628 O   0  0  0  0  0  0  0  0  0  0  0  0
  151.1116  145.1437  158.9969 C   0  0  0  0  0  0  0  0  0  0  0  0
  148.9462  142.0324  155.2495 N   0  0  0  0  0  0  0  0  0  0  0  0
  148.3227  141.1260  154.3526 C   0  0  0  0  0  0  0  0  0  0  0  0
  148.7270  139.8666  154.1489 N   0  0  0  0  0  0  0  0  0  0  0  0
  147.9289  139.2045  153.2125 C   0  0  0  0  0  0  0  0  0  0  0  0
  146.9148  139.9805  152.7087 C   0  0  0  0  0  0  0  0  0  0  0  0
  146.9216  141.5833  153.3949 S   0  0  0  0  0  0  0  0  0  0  0  0
  149.7064  143.7138  156.6687 H   0  0  0  0  0  0  0  0  0  0  0  0
  152.2246  142.3062  157.3146 H   0  0  0  0  0  0  0  0  0  0  0  0
  152.2833  143.9785  156.8232 H   0  0  0  0  0  0  0  0  0  0  0  0
  150.5366  143.0831  159.1686 H   0  0  0  0  0  0  0  0  0  0  0  0
  152.7103  142.4005  159.9882 H   0  0  0  0  0  0  0  0  0  0  0  0
  153.4804  143.8082  159.2466 H   0  0  0  0  0  0  0  0  0  0  0  0
  151.5706  143.7754  161.6041 H   0  0  0  0  0  0  0  0  0  0  0  0
  153.0695  144.6921  161.4331 H   0  0  0  0  0  0  0  0  0  0  0  0
  151.7719  145.7500  158.3754 H   0  0  0  0  0  0  0  0  0  0  0  0
  150.0827  145.4203  158.7660 H   0  0  0  0  0  0  0  0  0  0  0  0
  148.3987  142.8439  155.4947 H   0  0  0  0  0  0  0  0  0  0  0  0
  148.1543  138.1783  152.9626 H   0  0  0  0  0  0  0  0  0  0  0  0
  146.1673  139.7072  151.9791 H   0  0  0  0  0  0  0  0  0  0  0  0
  1  2  2  0  0  0  0
  2  3  1  0  0  0  0
  2 10  1  0  0  0  0
  3  4  1  0  0  0  0
  3 16  1  0  0  0  0
  4  5  1  0  0  0  0
  4 17  1  0  0  0  0
  4 18  1  0  0  0  0
  5  9  1  0  0  0  0
  5  6  1  0  0  0  0
  5 19  1  0  0  0  0
  6  7  1  0  0  0  0
  6 20  1  0  0  0  0
  6 21  1  0  0  0  0
  7  8  1  0  0  0  0
  7 22  1  0  0  0  0
  7 23  1  0  0  0  0
  8  9  1  0  0  0  0
  9 24  1  0  0  0  0
  9 25  1  0  0  0  0
 10 11  1  0  0  0  0
 10 26  1  0  0  0  0
 11 15  1  0  0  0  0
 11 12  2  0  0  0  0
 12 13  1  0  0  0  0
 13 14  2  0  0  0  0
 13 27  1  0  0  0  0
 14 15  1  0  0  0  0
 14 28  1  0  0  0  0
M  END
> <s_m_source_file>
AV-unprocessed.smi

> <i_m_source_file_index>
1901

> <i_lp_mmshare_version>
43012

> <i_f3d_flags>
0

> <s_epik_input>
czFbY0hdW2NIXW5jMVtOSF1DKD1PKVtOSF1bQ0gyXVtDQEBIXTJbQ0gyXVtDSDJdT1tDSDJdMg==

> <s_epik_cmdline>
J2VwaWtfcHl0aG9uJywgJy1waCcsICc3LjAnLCAnLXRuJywgJzgnLCAnLW1hJywgJzIwMCcsICctbWV0YWxfYmluZGluZycsICctaW1hZScsICc8aW5maWxlLm1hZT4nLCAnLW9tYWUnLCAnPG91dGZpbGUubWFlPic=

> <r_lp_tautomer_probability>
0.999

> <r_epik_Ionization_Penalty>
0.000365592

> <r_epik_Ionization_Penalty_Charging>
0

> <r_epik_Ionization_Penalty_Neutral>
0.000365592

> <r_epik_State_Penalty>
0.000177984

> <r_epik_Charging_Adjusted_Penalty>
0.000177984

> <i_epik_Tot_Q>
0

> <i_epik_Tot_abs_Q>
0

> <r_epik_Metal_State_Penalty>
0.00682492

> <b_epik_Metal_Only>
0

> <s_lp_Force_Field>
OPLS_2005

> <r_lp_Energy>
17.1136

> <b_lp_Chiralities_Consistent>
1

> <s_lp_Variant>
AV-unprocessed.smi:1901-2

> <Gold.Version>
5.8.1

> <Gold.Id.Protein>
6NUR|6NUR_protein|mol2

> <Gold.PLP.Fitness>
40.6841

> <Gold.PLP.PLP>
-30.8200

> <Gold.PLP.part.hbond>
-2.0000

> <Gold.PLP.part.metal>
0.0000

> <Gold.PLP.part.buried>
-5.6123

> <Gold.PLP.part.nonpolar>
-23.5021

> <Gold.PLP.part.repulsive>
0.5308

> <Gold.PLP.ligand.clash>
0.0000

> <Gold.PLP.ligand.torsion>
0.3607

> <Gold.PLP.Chemscore.Hbond>
1.7600

> <Gold.PLP.Chemscore.CHOScore>
1.7663

> <Gold.PLP.Chemscore.Metal>
0.0000

> <Gold.Chemscore.Hbonds>
donor molecule, donor type, donor heavy atom, donor atom, acceptor molecule, acceptor atom, score
      L1  H     3    16       P1  8028  0.75
      L1  H    10    26       P1  8028  0.64
      P1  H  7989  7998       L1     1  0.36
      L1  C    13    27       P1  7948  1.00
      L1  C    14    28       P1 10175  0.56

> <Gold.PLP.Chemscore.Internal.Correction>
0.0067

> <Gold.Rescore>
     Score         DG    S(hbond)    S(metal)    S(lipo)     H(rot)  DE(clash)    DE(int)     intcor
     14.24     -16.87       1.61        0.00      80.14       1.32       1.21       1.42       ----

> <Gold.Chemscore.Fitness>
14.2378

> <Gold.Chemscore.DG>
-16.8729

> <Gold.Chemscore.ZeroCoef>
-5.4800

> <Gold.Chemscore.Hbond>
1.6126

> <Gold.Chemscore.Metal>
0.0000

> <Gold.Chemscore.Lipo>
80.1425

> <Gold.Chemscore.Internal_Hbond>
0.0000

> <Gold.Chemscore.DEClash>
1.2102

> <Gold.Chemscore.DEInternal>
1.4249

> <Gold.Chemscore.Rot>
1.3163

> <Gold.Chemscore.Internal.Correction>
   9.000000E+99

> <Gold.Chemscore.Hbonds>
donor molecule, donor type, donor heavy atom, donor atom, acceptor molecule, acceptor atom, score
      L1  H     3    16       P1  8028  0.75
      L1  H    10    26       P1  8028  0.63
      P1  H  7989  7998       L1     1  0.30

> <Gold.Chemscore.Hbond.Weighted>
-5.3861

> <Gold.Chemscore.Metal.Weighted>
-0.0000

> <Gold.Chemscore.Lipo.Weighted>
-9.3767

> <Gold.Chemscore.Internal_Hbond.Weighted>
0.0000

> <Gold.Chemscore.DEClash.Weighted>
1.2102

> <Gold.Chemscore.DEInternal.Weighted>
1.4249

> <Gold.Chemscore.Rot.Weighted>
3.3698

> <Gold.Chemscore.Internal.Correction.Weighted>
   9.000000E+99

> <Gold.Protein.RotatedTorsions>
[ 6907 6896 6895 6894 ] final  -48.48 input  -60.11 | X-H torsion
[ 7974 7965 7964 7962 ] final  -88.71 input  175.53 | X-H torsion
[ 8008 7997 7996 7995 ] final  -34.88 input   59.86 | X-H torsion
[ 10167 10162 10161 10158 ] final  127.43 input  -65.29 | X-H torsion
[ 10718 10713 10712 10709 ] final -165.67 input   66.30 | X-H torsion
[ 10763 10752 10751 10750 ] final   -5.99 input  -60.55 | X-H torsion
[ 11005 11000 10999 10996 ] final    4.53 input  -57.11 | X-H torsion

> <Gold.Protein.ActiveResidues>
 VAL166  LYS551  ARG553  GLY616  TRP617  ASP618  TYR619  PRO620  LYS621  CYS622 
 ASP623  PHE694  ASN695  SER759  ASP760  ASP761  ALA762  ILE779  LEU786  VAL792 
 PHE793  MET794  SER795  GLU796  ALA797  LYS798  CYS799  TRP800  GLU811  SER814 

> <Gold.Protein.RotatedAtoms>
  150.8901  134.8303  159.7286 H   0  0  0  0  0  0  0  0  0  0  0  0  # atno 6907 bound_to 6896
  152.4831  134.4662  159.9631 H   0  0  0  0  0  0  0  0  0  0  0  0  # atno 6908 bound_to 6896
  151.4725  133.3526  159.2861 H   0  0  0  0  0  0  0  0  0  0  0  0  # atno 6909 bound_to 6896
  145.4495  140.9560  143.2030 H   0  0  0  0  0  0  0  0  0  0  0  0  # atno 7974 bound_to 7965
  154.4109  140.1672  156.2121 H   0  0  0  0  0  0  0  0  0  0  0  0  # atno 8008 bound_to 7997
  155.9435  140.3406  155.6324 H   0  0  0  0  0  0  0  0  0  0  0  0  # atno 8009 bound_to 7997
  155.6959  140.0739  157.2420 H   0  0  0  0  0  0  0  0  0  0  0  0  # atno 8010 bound_to 7997
  139.5579  144.6861  151.4129 H   0  0  0  0  0  0  0  0  0  0  0  0  # atno 10167 bound_to 10162
  156.6568  130.9030  151.3022 H   0  0  0  0  0  0  0  0  0  0  0  0  # atno 10718 bound_to 10713
  153.4062  135.7006  153.6391 H   0  0  0  0  0  0  0  0  0  0  0  0  # atno 10763 bound_to 10752
  153.4904  135.3674  155.2489 H   0  0  0  0  0  0  0  0  0  0  0  0  # atno 10764 bound_to 10752
  154.8714  135.4087  154.3406 H   0  0  0  0  0  0  0  0  0  0  0  0  # atno 10765 bound_to 10752
  140.5809  134.0014  155.8047 H   0  0  0  0  0  0  0  0  0  0  0  0  # atno 11005 bound_to 11000
  144.8070  139.6032  143.7046 LP  0  0  0  0  0  0  0  0  0  0  0  0  # atno 17320 bound_to 7965
  146.2512  139.6203  142.9426 LP  0  0  0  0  0  0  0  0  0  0  0  0  # atno 17321 bound_to 7965
  140.6855  143.7985  150.7179 LP  0  0  0  0  0  0  0  0  0  0  0  0  # atno 17342 bound_to 10162
  140.1451  143.4407  152.2168 LP  0  0  0  0  0  0  0  0  0  0  0  0  # atno 17343 bound_to 10162
  157.7123  130.9455  150.1131 LP  0  0  0  0  0  0  0  0  0  0  0  0  # atno 17370 bound_to 10713
  156.2042  130.3662  149.8750 LP  0  0  0  0  0  0  0  0  0  0  0  0  # atno 17371 bound_to 10713
  141.0997  133.9788  157.3100 LP  0  0  0  0  0  0  0  0  0  0  0  0  # atno 17394 bound_to 11000
  139.9318  135.0199  156.8425 LP  0  0  0  0  0  0  0  0  0  0  0  0  # atno 17395 bound_to 11000

$$$$
