AV-unprocessed.smi:2279|AV-procd|sdf|9184|dock6
  -GOLD-   2272012403D 1   1.00000     0.00000
 Structure written by MMmdl.
 58 60  0  0  0  0  0  0  0  0  3 V2000
  151.7796  144.3050  161.1747 C   0  0  0  0  0  0  0  0  0  0  0  0
  152.2828  143.1009  160.4066 C   0  0  0  0  0  0  0  0  0  0  0  0
  153.3755  142.3483  160.8779 C   0  0  0  0  0  0  0  0  0  0  0  0
  153.7975  141.2409  160.1167 C   0  0  0  0  0  0  0  0  0  0  0  0
  154.9617  140.3840  160.5673 C   0  0  0  0  0  0  0  0  0  0  0  0
  153.2065  140.8739  158.9596 N   0  0  0  0  0  0  0  0  0  0  0  0
  152.1530  141.5910  158.4960 C   0  0  0  0  0  0  0  0  0  0  0  0
  151.4555  141.2784  157.2986 N   0  0  0  0  0  0  0  0  0  0  0  0
  150.1880  141.5895  156.9740 C   0  0  0  0  0  0  0  0  0  0  0  0
  149.3837  142.1598  157.7117 O   0  0  0  0  0  0  0  0  0  0  0  0
  149.8874  141.1827  155.7314 N   0  0  0  0  0  0  0  0  0  0  0  0
  148.5867  141.3485  155.0886 C   0  0  2  0  0  0  0  0  0  0  0  0
  147.4645  140.7830  155.9808 C   0  0  0  0  0  0  0  0  0  0  0  0
  146.1035  140.8110  155.2556 C   0  0  0  0  0  0  0  0  0  0  0  0
  146.1465  140.0948  153.9470 N   0  3  2  0  0  0  0  0  0  0  0  0
  146.1940  138.5951  154.0462 C   0  0  2  0  0  0  0  0  0  0  0  0
  147.4650  138.0774  154.7672 C   0  0  0  0  0  0  0  0  0  0  0  0
  147.5470  136.5414  154.7891 C   0  0  0  0  0  0  0  0  0  0  0  0
  147.4884  135.9821  153.4192 N   0  3  1  0  0  0  0  0  0  0  0  0
  147.6842  134.5162  153.3995 C   0  0  0  0  0  0  0  0  0  0  0  0
  146.2514  136.3979  152.7189 C   0  0  0  0  0  0  0  0  0  0  0  0
  146.1417  137.9307  152.6476 C   0  0  0  0  0  0  0  0  0  0  0  0
  147.1822  140.7237  153.0774 C   0  0  0  0  0  0  0  0  0  0  0  0
  148.5818  140.6529  153.7167 C   0  0  0  0  0  0  0  0  0  0  0  0
  151.6632  142.7132  159.2013 C   0  0  0  0  0  0  0  0  0  0  0  0
  152.2727  144.3907  162.1434 H   0  0  0  0  0  0  0  0  0  0  0  0
  150.7060  144.2251  161.3460 H   0  0  0  0  0  0  0  0  0  0  0  0
  151.9718  145.2183  160.6113 H   0  0  0  0  0  0  0  0  0  0  0  0
  153.8761  142.6121  161.7982 H   0  0  0  0  0  0  0  0  0  0  0  0
  155.2768  140.6457  161.5779 H   0  0  0  0  0  0  0  0  0  0  0  0
  155.8117  140.5194  159.8980 H   0  0  0  0  0  0  0  0  0  0  0  0
  154.6834  139.3298  160.5620 H   0  0  0  0  0  0  0  0  0  0  0  0
  151.9855  140.7651  156.6101 H   0  0  0  0  0  0  0  0  0  0  0  0
  150.6091  140.7247  155.1943 H   0  0  0  0  0  0  0  0  0  0  0  0
  148.3965  142.4107  154.9211 H   0  0  0  0  0  0  0  0  0  0  0  0
  147.7045  139.7649  156.2883 H   0  0  0  0  0  0  0  0  0  0  0  0
  147.3968  141.3651  156.9008 H   0  0  0  0  0  0  0  0  0  0  0  0
  145.3164  140.4355  155.9055 H   0  0  0  0  0  0  0  0  0  0  0  0
  145.8311  141.8497  155.0620 H   0  0  0  0  0  0  0  0  0  0  0  0
  145.3319  138.2547  154.6201 H   0  0  0  0  0  0  0  0  0  0  0  0
  148.3568  138.4832  154.2869 H   0  0  0  0  0  0  0  0  0  0  0  0
  147.4864  138.4086  155.8048 H   0  0  0  0  0  0  0  0  0  0  0  0
  148.4779  136.2346  155.2680 H   0  0  0  0  0  0  0  0  0  0  0  0
  146.7324  136.1304  155.3881 H   0  0  0  0  0  0  0  0  0  0  0  0
  146.8841  134.0063  153.9378 H   0  0  0  0  0  0  0  0  0  0  0  0
  148.6339  134.2482  153.8640 H   0  0  0  0  0  0  0  0  0  0  0  0
  147.6996  134.1429  152.3749 H   0  0  0  0  0  0  0  0  0  0  0  0
  146.2500  135.9865  151.7086 H   0  0  0  0  0  0  0  0  0  0  0  0
  145.3821  135.9821  153.2310 H   0  0  0  0  0  0  0  0  0  0  0  0
  145.2100  138.1609  152.1342 H   0  0  0  0  0  0  0  0  0  0  0  0
  146.9449  138.3238  152.0223 H   0  0  0  0  0  0  0  0  0  0  0  0
  147.1846  140.3091  152.0712 H   0  0  0  0  0  0  0  0  0  0  0  0
  146.9131  141.7717  152.9363 H   0  0  0  0  0  0  0  0  0  0  0  0
  149.3092  141.1306  153.0592 H   0  0  0  0  0  0  0  0  0  0  0  0
  148.8961  139.6133  153.8163 H   0  0  0  0  0  0  0  0  0  0  0  0
  150.8221  143.2757  158.8220 H   0  0  0  0  0  0  0  0  0  0  0  0
  145.2652  140.2971  153.4960 H   0  0  0  0  0  0  0  0  0  0  0  0
  148.2632  136.3793  152.9068 H   0  0  0  0  0  0  0  0  0  0  0  0
  1  2  1  0  0  0  0
  1 26  1  0  0  0  0
  1 27  1  0  0  0  0
  1 28  1  0  0  0  0
  2 25  1  0  0  0  0
  2  3  2  0  0  0  0
  3  4  1  0  0  0  0
  3 29  1  0  0  0  0
  4  5  1  0  0  0  0
  4  6  2  0  0  0  0
  5 30  1  0  0  0  0
  5 31  1  0  0  0  0
  5 32  1  0  0  0  0
  6  7  1  0  0  0  0
  7  8  1  0  0  0  0
  7 25  2  0  0  0  0
  8  9  1  0  0  0  0
  8 33  1  0  0  0  0
  9 10  2  0  0  0  0
  9 11  1  0  0  0  0
 11 12  1  0  0  0  0
 11 34  1  0  0  0  0
 12 24  1  0  0  0  0
 12 13  1  0  0  0  0
 12 35  1  0  0  0  0
 13 14  1  0  0  0  0
 13 36  1  0  0  0  0
 13 37  1  0  0  0  0
 14 15  1  0  0  0  0
 14 38  1  0  0  0  0
 14 39  1  0  0  0  0
 15 16  1  0  0  0  0
 15 23  1  0  0  0  0
 15 57  1  0  0  0  0
 16 22  1  0  0  0  0
 16 17  1  0  0  0  0
 16 40  1  0  0  0  0
 17 18  1  0  0  0  0
 17 41  1  0  0  0  0
 17 42  1  0  0  0  0
 18 19  1  0  0  0  0
 18 43  1  0  0  0  0
 18 44  1  0  0  0  0
 19 20  1  0  0  0  0
 19 21  1  0  0  0  0
 19 58  1  0  0  0  0
 20 45  1  0  0  0  0
 20 46  1  0  0  0  0
 20 47  1  0  0  0  0
 21 22  1  0  0  0  0
 21 48  1  0  0  0  0
 21 49  1  0  0  0  0
 22 50  1  0  0  0  0
 22 51  1  0  0  0  0
 23 24  1  0  0  0  0
 23 52  1  0  0  0  0
 23 53  1  0  0  0  0
 24 54  1  0  0  0  0
 24 55  1  0  0  0  0
 25 56  1  0  0  0  0
M  CHG  1  15   1
M  CHG  1  19   1
M  END
> <s_m_source_file>
AV-unprocessed.smi

> <i_m_source_file_index>
2279

> <i_lp_mmshare_version>
43012

> <i_f3d_flags>
0

> <s_epik_input>
W0NIM11jMVtjSF1jKFtDSDNdKW5jKFtjSF0xKVtOSF1DKD1PKVtOSF1bQ0hdMltDSDJdW0NIMl1OKFtDSDJdW0NIMl0yKVtDSF0zW0NIMl1bQ0gyXU4oW0NIM10pW0NIMl1bQ0gyXTM=

> <s_epik_cmdline>
J2VwaWtfcHl0aG9uJywgJy1waCcsICc3LjAnLCAnLXRuJywgJzgnLCAnLW1hJywgJzIwMCcsICctbWV0YWxfYmluZGluZycsICctaW1hZScsICc8aW5maWxlLm1hZT4nLCAnLW9tYWUnLCAnPG91dGZpbGUubWFlPic=

> <r_epik_Ionization_Penalty>
0.180973

> <r_epik_Ionization_Penalty_Charging>
0.180787

> <r_epik_Ionization_Penalty_Neutral>
0.000186186

> <r_epik_State_Penalty>
0.153592

> <r_epik_Charging_Adjusted_Penalty>
0.334379

> <i_epik_Tot_Q>
2

> <i_epik_Tot_abs_Q>
2

> <r_epik_Metal_State_Penalty>
0.153604

> <b_epik_Metal_Only>
0

> <s_lp_Force_Field>
OPLS_2005

> <r_lp_Energy>
44.6219

> <b_lp_Chiralities_Consistent>
1

> <s_lp_Variant>
AV-unprocessed.smi:2279-2

> <Gold.Version>
5.8.1

> <Gold.Id.Protein>
6NUR|6NUR_protein|mol2

> <Gold.PLP.Fitness>
48.6100

> <Gold.PLP.PLP>
-38.1717

> <Gold.PLP.part.hbond>
-2.0000

> <Gold.PLP.part.metal>
0.0000

> <Gold.PLP.part.buried>
-2.6900

> <Gold.PLP.part.nonpolar>
-33.8701

> <Gold.PLP.part.repulsive>
0.3329

> <Gold.PLP.ligand.clash>
1.2370

> <Gold.PLP.ligand.torsion>
0.1884

> <Gold.PLP.Chemscore.Hbond>
4.0000

> <Gold.PLP.Chemscore.CHOScore>
0.0000

> <Gold.PLP.Chemscore.Metal>
0.0000

> <Gold.Chemscore.Hbonds>
donor molecule, donor type, donor heavy atom, donor atom, acceptor molecule, acceptor atom, score
      L1  H    15    57       P1 10175  2.00
      L1  H    19    58       P1  7948  0.55

> <Gold.PLP.Chemscore.Internal.Correction>
0.0520

> <Gold.Rescore>
     Score         DG    S(hbond)    S(metal)    S(lipo)     H(rot)  DE(clash)    DE(int)     intcor
     15.63     -21.55       2.00        0.00     106.83       1.21       0.98       4.94       ----

> <Gold.Chemscore.Fitness>
15.6300

> <Gold.Chemscore.DG>
-21.5519

> <Gold.Chemscore.ZeroCoef>
-5.4800

> <Gold.Chemscore.Hbond>
1.9968

> <Gold.Chemscore.Metal>
0.0000

> <Gold.Chemscore.Lipo>
106.8291

> <Gold.Chemscore.Internal_Hbond>
0.0000

> <Gold.Chemscore.DEClash>
0.9797

> <Gold.Chemscore.DEInternal>
4.9422

> <Gold.Chemscore.Rot>
1.2095

> <Gold.Chemscore.Internal.Correction>
   9.000000E+99

> <Gold.Chemscore.Hbonds>
donor molecule, donor type, donor heavy atom, donor atom, acceptor molecule, acceptor atom, score
      L1  H    15    57       P1 10175  1.00
      L1  H    19    58       P1  7948  0.27

> <Gold.Chemscore.Hbond.Weighted>
-6.6691

> <Gold.Chemscore.Metal.Weighted>
-0.0000

> <Gold.Chemscore.Lipo.Weighted>
-12.4990

> <Gold.Chemscore.Internal_Hbond.Weighted>
0.0000

> <Gold.Chemscore.DEClash.Weighted>
0.9797

> <Gold.Chemscore.DEInternal.Weighted>
4.9422

> <Gold.Chemscore.Rot.Weighted>
3.0963

> <Gold.Chemscore.Internal.Correction.Weighted>
   9.000000E+99

> <Gold.Protein.RotatedTorsions>
[ 6907 6896 6895 6894 ] final  -50.31 input  -60.11 | X-H torsion
[ 7974 7965 7964 7962 ] final -160.22 input  175.53 | X-H torsion
[ 8008 7997 7996 7995 ] final  -53.19 input   59.86 | X-H torsion
[ 10167 10162 10161 10158 ] final  137.92 input  -65.29 | X-H torsion
[ 10718 10713 10712 10709 ] final   71.46 input   66.30 | X-H torsion
[ 10763 10752 10751 10750 ] final -141.06 input  -60.55 | X-H torsion
[ 11005 11000 10999 10996 ] final  130.15 input  -57.11 | X-H torsion

> <Gold.Protein.ActiveResidues>
 VAL166  LYS551  ARG553  GLY616  TRP617  ASP618  TYR619  PRO620  LYS621  CYS622 
 ASP623  PHE694  ASN695  SER759  ASP760  ASP761  ALA762  ILE779  LEU786  VAL792 
 PHE793  MET794  SER795  GLU796  ALA797  LYS798  CYS799  TRP800  GLU811  SER814 

> <Gold.Protein.RotatedAtoms>
  150.8720  134.8095  159.7161 H   0  0  0  0  0  0  0  0  0  0  0  0  # atno 6907 bound_to 6896
  152.4721  134.4932  159.9711 H   0  0  0  0  0  0  0  0  0  0  0  0  # atno 6908 bound_to 6896
  151.5019  133.3464  159.2906 H   0  0  0  0  0  0  0  0  0  0  0  0  # atno 6909 bound_to 6896
  144.7435  140.3573  143.6103 H   0  0  0  0  0  0  0  0  0  0  0  0  # atno 7974 bound_to 7965
  154.4126  140.1206  156.5113 H   0  0  0  0  0  0  0  0  0  0  0  0  # atno 8008 bound_to 7997
  155.6796  140.3496  155.4830 H   0  0  0  0  0  0  0  0  0  0  0  0  # atno 8009 bound_to 7997
  155.9563  140.1114  157.0924 H   0  0  0  0  0  0  0  0  0  0  0  0  # atno 8010 bound_to 7997
  139.5128  144.6383  151.5638 H   0  0  0  0  0  0  0  0  0  0  0  0  # atno 10167 bound_to 10162
  157.6453  130.9529  150.0793 H   0  0  0  0  0  0  0  0  0  0  0  0  # atno 10718 bound_to 10713
  154.8558  135.3535  154.5808 H   0  0  0  0  0  0  0  0  0  0  0  0  # atno 10763 bound_to 10752
  153.6419  135.6998  153.5243 H   0  0  0  0  0  0  0  0  0  0  0  0  # atno 10764 bound_to 10752
  153.2964  135.4219  155.1172 H   0  0  0  0  0  0  0  0  0  0  0  0  # atno 10765 bound_to 10752
  139.9655  134.9591  156.9251 H   0  0  0  0  0  0  0  0  0  0  0  0  # atno 11005 bound_to 11000
  145.7214  139.1711  143.2482 LP  0  0  0  0  0  0  0  0  0  0  0  0  # atno 17320 bound_to 7965
  146.1274  140.7230  142.9428 LP  0  0  0  0  0  0  0  0  0  0  0  0  # atno 17321 bound_to 7965
  140.6140  143.9383  150.6474 LP  0  0  0  0  0  0  0  0  0  0  0  0  # atno 17342 bound_to 10162
  140.2635  143.3507  152.1302 LP  0  0  0  0  0  0  0  0  0  0  0  0  # atno 17343 bound_to 10162
  156.1774  130.3648  149.9082 LP  0  0  0  0  0  0  0  0  0  0  0  0  # atno 17370 bound_to 10713
  156.7043  130.8945  151.3603 LP  0  0  0  0  0  0  0  0  0  0  0  0  # atno 17371 bound_to 10713
  140.5405  134.0724  155.7340 LP  0  0  0  0  0  0  0  0  0  0  0  0  # atno 17394 bound_to 11000
  141.1335  133.9262  157.2485 LP  0  0  0  0  0  0  0  0  0  0  0  0  # atno 17395 bound_to 11000

$$$$
