AV-unprocessed.smi:2822|AV-procd|sdf|10874|dock4
  -GOLD-   2272015313D 1   1.00000     0.00000
 Structure written by MMmdl.
 40 42  0  0  0  0  0  0  0  0  2 V2000
  145.3453  135.8393  150.8056 Cl  0  0  0  0  0  0  0  0  0  0  0  0
  145.2909  134.1190  150.9736 C   0  0  0  0  0  0  0  0  0  0  0  0
  144.2177  133.3953  150.4142 C   0  0  0  0  0  0  0  0  0  0  0  0
  144.0987  132.0541  150.5036 N   0  0  0  0  0  0  0  0  0  0  0  0
  145.0636  131.3801  151.1632 C   0  0  0  0  0  0  0  0  0  0  0  0
  146.1781  132.0045  151.7586 C   0  0  0  0  0  0  0  0  0  0  0  0
  146.3000  133.4110  151.6660 C   0  0  0  0  0  0  0  0  0  0  0  0
  147.3743  134.1143  152.2313 N   0  0  0  0  0  0  0  0  0  0  0  0
  148.2877  133.4701  153.1619 C   0  0  0  0  0  0  0  0  0  0  0  0
  148.0244  133.9232  154.6117 C   0  0  2  0  0  0  0  0  0  0  0  0
  147.5757  135.3929  154.7156 C   0  0  0  0  0  0  0  0  0  0  0  0
  148.6959  136.3218  154.4361 N   0  3  1  0  0  0  0  0  0  0  0  0
  148.2709  137.7436  154.4960 C   0  0  0  0  0  0  0  0  0  0  0  0
  149.4247  138.6861  154.1197 C   0  0  0  0  0  0  0  0  0  0  0  0
  150.6438  138.4395  155.0165 C   0  0  0  0  0  0  0  0  0  0  0  0
  151.0488  136.9609  154.9550 C   0  0  0  0  0  0  0  0  0  0  0  0
  149.8657  136.0374  155.3110 C   0  0  2  0  0  0  0  0  0  0  0  0
  150.2666  134.5549  155.1905 C   0  0  0  0  0  0  0  0  0  0  0  0
  149.1511  133.7132  155.4635 O   0  0  0  0  0  0  0  0  0  0  0  0
  143.4312  133.9085  149.8807 H   0  0  0  0  0  0  0  0  0  0  0  0
  144.9451  130.3080  151.2187 H   0  0  0  0  0  0  0  0  0  0  0  0
  146.9129  131.3989  152.2670 H   0  0  0  0  0  0  0  0  0  0  0  0
  147.3987  135.1214  152.1482 H   0  0  0  0  0  0  0  0  0  0  0  0
  148.2138  132.3869  153.0692 H   0  0  0  0  0  0  0  0  0  0  0  0
  149.3063  133.7391  152.8797 H   0  0  0  0  0  0  0  0  0  0  0  0
  147.2161  133.3052  155.0051 H   0  0  0  0  0  0  0  0  0  0  0  0
  146.7526  135.5837  154.0258 H   0  0  0  0  0  0  0  0  0  0  0  0
  147.1957  135.5862  155.7203 H   0  0  0  0  0  0  0  0  0  0  0  0
  147.4338  137.9029  153.8153 H   0  0  0  0  0  0  0  0  0  0  0  0
  147.9115  137.9758  155.5000 H   0  0  0  0  0  0  0  0  0  0  0  0
  149.6990  138.5340  153.0749 H   0  0  0  0  0  0  0  0  0  0  0  0
  149.1017  139.7238  154.2076 H   0  0  0  0  0  0  0  0  0  0  0  0
  151.4756  139.0718  154.7044 H   0  0  0  0  0  0  0  0  0  0  0  0
  150.4087  138.7160  156.0451 H   0  0  0  0  0  0  0  0  0  0  0  0
  151.4119  136.7283  153.9527 H   0  0  0  0  0  0  0  0  0  0  0  0
  151.8829  136.7803  155.6342 H   0  0  0  0  0  0  0  0  0  0  0  0
  149.5696  136.2311  156.3438 H   0  0  0  0  0  0  0  0  0  0  0  0
  150.6815  134.3360  154.2064 H   0  0  0  0  0  0  0  0  0  0  0  0
  151.0519  134.3230  155.9103 H   0  0  0  0  0  0  0  0  0  0  0  0
  148.9926  136.1455  153.4868 H   0  0  0  0  0  0  0  0  0  0  0  0
  1  2  1  0  0  0  0
  2  7  1  0  0  0  0
  2  3  2  0  0  0  0
  3  4  1  0  0  0  0
  3 20  1  0  0  0  0
  4  5  2  0  0  0  0
  5  6  1  0  0  0  0
  5 21  1  0  0  0  0
  6  7  2  0  0  0  0
  6 22  1  0  0  0  0
  7  8  1  0  0  0  0
  8  9  1  0  0  0  0
  8 23  1  0  0  0  0
  9 10  1  0  0  0  0
  9 24  1  0  0  0  0
  9 25  1  0  0  0  0
 10 19  1  0  0  0  0
 10 11  1  0  0  0  0
 10 26  1  0  0  0  0
 11 12  1  0  0  0  0
 11 27  1  0  0  0  0
 11 28  1  0  0  0  0
 12 17  1  0  0  0  0
 12 13  1  0  0  0  0
 12 40  1  0  0  0  0
 13 14  1  0  0  0  0
 13 29  1  0  0  0  0
 13 30  1  0  0  0  0
 14 15  1  0  0  0  0
 14 31  1  0  0  0  0
 14 32  1  0  0  0  0
 15 16  1  0  0  0  0
 15 33  1  0  0  0  0
 15 34  1  0  0  0  0
 16 17  1  0  0  0  0
 16 35  1  0  0  0  0
 16 36  1  0  0  0  0
 17 18  1  0  0  0  0
 17 37  1  0  0  0  0
 18 19  1  0  0  0  0
 18 38  1  0  0  0  0
 18 39  1  0  0  0  0
M  CHG  1  12   1
M  END
> <s_m_source_file>
AV-unprocessed.smi

> <i_m_source_file_index>
2822

> <i_lp_mmshare_version>
43012

> <i_f3d_flags>
0

> <s_epik_input>
Q2xjMVtjSF1uW2NIXVtjSF1jMVtOSF1bQ0gyXVtDQEhdKFtDSDJdMilPW0NIMl1bQ0BASF0oTjIzKVtDSDJdW0NIMl1bQ0gyXVtDSDJdMw==

> <s_epik_cmdline>
J2VwaWtfcHl0aG9uJywgJy1waCcsICc3LjAnLCAnLXRuJywgJzgnLCAnLW1hJywgJzIwMCcsICctbWV0YWxfYmluZGluZycsICctaW1hZScsICc8aW5maWxlLm1hZT4nLCAnLW9tYWUnLCAnPG91dGZpbGUubWFlPic=

> <r_lp_tautomer_probability>
0.999999

> <r_epik_Ionization_Penalty>
0.88937

> <r_epik_Ionization_Penalty_Charging>
0.0803403

> <r_epik_Ionization_Penalty_Neutral>
0.80903

> <r_epik_State_Penalty>
0.931884

> <r_epik_Charging_Adjusted_Penalty>
1.01222

> <i_epik_Tot_Q>
1

> <i_epik_Tot_abs_Q>
1

> <r_epik_Metal_State_Penalty>
0.0782275

> <b_epik_Metal_Only>
0

> <s_lp_Force_Field>
OPLS_2005

> <r_lp_Energy>
31.959

> <b_lp_Chiralities_Consistent>
1

> <s_lp_Variant>
AV-unprocessed.smi:2822-15

> <Gold.Version>
5.8.1

> <Gold.Id.Protein>
6NUR|6NUR_protein|mol2

> <Gold.PLP.Fitness>
41.3318

> <Gold.PLP.PLP>
-31.4394

> <Gold.PLP.part.hbond>
-2.0000

> <Gold.PLP.part.metal>
0.0000

> <Gold.PLP.part.buried>
-2.9911

> <Gold.PLP.part.nonpolar>
-26.3016

> <Gold.PLP.part.repulsive>
0.2170

> <Gold.PLP.ligand.clash>
0.0000

> <Gold.PLP.ligand.torsion>
0.3732

> <Gold.PLP.Chemscore.Hbond>
2.5440

> <Gold.PLP.Chemscore.CHOScore>
1.0000

> <Gold.PLP.Chemscore.Metal>
0.0000

> <Gold.Chemscore.Hbonds>
donor molecule, donor type, donor heavy atom, donor atom, acceptor molecule, acceptor atom, score
      L1  H     8    23       P1  7948  0.53
      L1  H    12    40       P1  7948  2.00
      L1  C     3    20       P1 10186  1.00

> <Gold.PLP.Chemscore.Internal.Correction>
0.0068

> <Gold.Rescore>
     Score         DG    S(hbond)    S(metal)    S(lipo)     H(rot)  DE(clash)    DE(int)     intcor
     17.19     -17.69       1.59        0.00      84.54       1.17       0.08       0.42       ----

> <Gold.Chemscore.Fitness>
17.1942

> <Gold.Chemscore.DG>
-17.6934

> <Gold.Chemscore.ZeroCoef>
-5.4800

> <Gold.Chemscore.Hbond>
1.5914

> <Gold.Chemscore.Metal>
0.0000

> <Gold.Chemscore.Lipo>
84.5424

> <Gold.Chemscore.Internal_Hbond>
0.0000

> <Gold.Chemscore.DEClash>
0.0825

> <Gold.Chemscore.DEInternal>
0.4166

> <Gold.Chemscore.Rot>
1.1693

> <Gold.Chemscore.Internal.Correction>
   9.000000E+99

> <Gold.Chemscore.Hbonds>
donor molecule, donor type, donor heavy atom, donor atom, acceptor molecule, acceptor atom, score
      L1  H     8    23       P1  7948  0.51
      L1  H    12    40       P1  7948  0.96

> <Gold.Chemscore.Hbond.Weighted>
-5.3153

> <Gold.Chemscore.Metal.Weighted>
-0.0000

> <Gold.Chemscore.Lipo.Weighted>
-9.8915

> <Gold.Chemscore.Internal_Hbond.Weighted>
0.0000

> <Gold.Chemscore.DEClash.Weighted>
0.0825

> <Gold.Chemscore.DEInternal.Weighted>
0.4166

> <Gold.Chemscore.Rot.Weighted>
2.9934

> <Gold.Chemscore.Internal.Correction.Weighted>
   9.000000E+99

> <Gold.Protein.RotatedTorsions>
[ 6907 6896 6895 6894 ] final   54.86 input  -60.11 | X-H torsion
[ 7974 7965 7964 7962 ] final  136.54 input  175.53 | X-H torsion
[ 8008 7997 7996 7995 ] final -103.33 input   59.86 | X-H torsion
[ 10167 10162 10161 10158 ] final  -53.60 input  -65.29 | X-H torsion
[ 10718 10713 10712 10709 ] final  142.28 input   66.30 | X-H torsion
[ 10763 10752 10751 10750 ] final  -74.82 input  -60.55 | X-H torsion
[ 11005 11000 10999 10996 ] final  179.13 input  -57.11 | X-H torsion

> <Gold.Protein.ActiveResidues>
 VAL166  LYS551  ARG553  GLY616  TRP617  ASP618  TYR619  PRO620  LYS621  CYS622 
 ASP623  PHE694  ASN695  SER759  ASP760  ASP761  ALA762  ILE779  LEU786  VAL792 
 PHE793  MET794  SER795  GLU796  ALA797  LYS798  CYS799  TRP800  GLU811  SER814 

> <Gold.Protein.RotatedAtoms>
  152.3481  134.7043  160.0244 H   0  0  0  0  0  0  0  0  0  0  0  0  # atno 6907 bound_to 6896
  151.7406  133.3316  159.3373 H   0  0  0  0  0  0  0  0  0  0  0  0  # atno 6908 bound_to 6896
  150.7522  134.6214  159.6183 H   0  0  0  0  0  0  0  0  0  0  0  0  # atno 6909 bound_to 6896
  144.9554  139.4770  143.5505 H   0  0  0  0  0  0  0  0  0  0  0  0  # atno 7974 bound_to 7965
  154.8694  140.0423  157.1715 H   0  0  0  0  0  0  0  0  0  0  0  0  # atno 8008 bound_to 7997
  154.8755  140.2964  155.5435 H   0  0  0  0  0  0  0  0  0  0  0  0  # atno 8009 bound_to 7997
  156.2999  140.2421  156.3750 H   0  0  0  0  0  0  0  0  0  0  0  0  # atno 8010 bound_to 7997
  140.6476  143.2545  151.4816 H   0  0  0  0  0  0  0  0  0  0  0  0  # atno 10167 bound_to 10162
  157.3824  131.0994  151.0726 H   0  0  0  0  0  0  0  0  0  0  0  0  # atno 10718 bound_to 10713
  154.4783  135.5851  153.6371 H   0  0  0  0  0  0  0  0  0  0  0  0  # atno 10763 bound_to 10752
  152.9844  135.6083  154.3279 H   0  0  0  0  0  0  0  0  0  0  0  0  # atno 10764 bound_to 10752
  154.3168  135.2844  155.2518 H   0  0  0  0  0  0  0  0  0  0  0  0  # atno 10765 bound_to 10752
  140.4028  134.6762  157.4571 H   0  0  0  0  0  0  0  0  0  0  0  0  # atno 11005 bound_to 11000
  146.3335  139.8669  142.8846 LP  0  0  0  0  0  0  0  0  0  0  0  0  # atno 17320 bound_to 7965
  145.2779  141.0129  143.3734 LP  0  0  0  0  0  0  0  0  0  0  0  0  # atno 17321 bound_to 7965
  139.5688  144.1979  152.1805 LP  0  0  0  0  0  0  0  0  0  0  0  0  # atno 17342 bound_to 10162
  140.1269  144.5324  150.6827 LP  0  0  0  0  0  0  0  0  0  0  0  0  # atno 17343 bound_to 10162
  157.1790  130.6301  149.5665 LP  0  0  0  0  0  0  0  0  0  0  0  0  # atno 17370 bound_to 10713
  155.9779  130.4760  150.6620 LP  0  0  0  0  0  0  0  0  0  0  0  0  # atno 17371 bound_to 10713
  140.0324  134.6387  155.9089 LP  0  0  0  0  0  0  0  0  0  0  0  0  # atno 17394 bound_to 11000
  141.1850  133.6554  156.5181 LP  0  0  0  0  0  0  0  0  0  0  0  0  # atno 17395 bound_to 11000

$$$$
