AV-unprocessed.smi:534|AV-procd|sdf|2856|dock3
  -GOLD-   2262023343D 1   1.00000     0.00000
 Structure written by MMmdl.
 40 41  0  0  0  0  0  0  0  0  1 V2000
  148.9075  141.4378  154.6642 C   0  0  0  0  0  0  0  0  0  0  0  0
  149.9247  140.4537  154.7163 O   0  0  0  0  0  0  0  0  0  0  0  0
  150.2253  140.0513  156.0427 C   0  0  0  0  0  0  0  0  0  0  0  0
  151.1311  141.0995  156.7006 C   0  0  0  0  0  0  0  0  0  0  0  0
  152.0520  140.4873  157.6392 N   0  0  0  0  0  0  0  0  0  0  0  0
  152.5469  140.9185  158.8635 C   0  0  0  0  0  0  0  0  0  0  0  0
  152.2109  142.0668  159.4569 N   0  0  0  0  0  0  0  0  0  0  0  0
  152.9295  142.0191  160.6435 C   0  0  0  0  0  0  0  0  0  0  0  0
  153.6522  140.8723  160.7266 C   0  0  0  0  0  0  0  0  0  0  0  0
  154.4854  140.5451  161.8895 C   0  0  0  0  0  0  0  0  0  0  0  0
  155.1351  139.5062  161.9861 O   0  0  0  0  0  0  0  0  0  0  0  0
  154.4577  141.5032  162.8476 N   0  0  0  0  0  0  0  0  0  0  0  0
  153.7567  142.6783  162.8287 C   0  0  0  0  0  0  0  0  0  0  0  0
  153.8255  143.4502  163.7850 O   0  0  0  0  0  0  0  0  0  0  0  0
  152.9905  142.9465  161.7228 N   0  0  0  0  0  0  0  0  0  0  0  0
  152.2123  144.1846  161.6520 C   0  0  0  0  0  0  0  0  0  0  0  0
  153.4145  140.1451  159.5617 N   0  0  0  0  0  0  0  0  0  0  0  0
  153.9465  138.8377  159.1911 C   0  0  0  0  0  0  0  0  0  0  0  0
  153.3684  137.7184  160.0693 C   0  0  0  0  0  0  0  0  0  0  0  0
  153.1338  136.5655  159.2763 O   0  0  0  0  0  0  0  0  0  0  0  0
  152.3851  136.8467  158.1079 C   0  0  0  0  0  0  0  0  0  0  0  0
  155.0135  141.3281  163.6721 H   0  0  0  0  0  0  0  0  0  0  0  0
  148.7066  141.7019  153.6261 H   0  0  0  0  0  0  0  0  0  0  0  0
  149.2109  142.3445  155.1892 H   0  0  0  0  0  0  0  0  0  0  0  0
  147.9795  141.0706  155.1044 H   0  0  0  0  0  0  0  0  0  0  0  0
  149.3121  139.9189  156.6261 H   0  0  0  0  0  0  0  0  0  0  0  0
  150.7386  139.0892  156.0175 H   0  0  0  0  0  0  0  0  0  0  0  0
  151.7191  141.6088  155.9372 H   0  0  0  0  0  0  0  0  0  0  0  0
  150.5360  141.8606  157.2060 H   0  0  0  0  0  0  0  0  0  0  0  0
  152.2555  139.5212  157.4279 H   0  0  0  0  0  0  0  0  0  0  0  0
  152.8399  145.0522  161.8611 H   0  0  0  0  0  0  0  0  0  0  0  0
  151.4029  144.1645  162.3831 H   0  0  0  0  0  0  0  0  0  0  0  0
  151.7663  144.3415  160.6697 H   0  0  0  0  0  0  0  0  0  0  0  0
  153.7253  138.6422  158.1416 H   0  0  0  0  0  0  0  0  0  0  0  0
  155.0333  138.8587  159.2625 H   0  0  0  0  0  0  0  0  0  0  0  0
  154.0643  137.4806  160.8749 H   0  0  0  0  0  0  0  0  0  0  0  0
  152.4371  138.0515  160.5302 H   0  0  0  0  0  0  0  0  0  0  0  0
  152.2291  135.9265  157.5449 H   0  0  0  0  0  0  0  0  0  0  0  0
  152.9121  137.5502  157.4624 H   0  0  0  0  0  0  0  0  0  0  0  0
  151.4072  137.2613  158.3554 H   0  0  0  0  0  0  0  0  0  0  0  0
  1  2  1  0  0  0  0
  1 23  1  0  0  0  0
  1 24  1  0  0  0  0
  1 25  1  0  0  0  0
  2  3  1  0  0  0  0
  3  4  1  0  0  0  0
  3 26  1  0  0  0  0
  3 27  1  0  0  0  0
  4  5  1  0  0  0  0
  4 28  1  0  0  0  0
  4 29  1  0  0  0  0
  5  6  1  0  0  0  0
  5 30  1  0  0  0  0
  6 17  1  0  0  0  0
  6  7  2  0  0  0  0
  7  8  1  0  0  0  0
  8 15  1  0  0  0  0
  8  9  2  0  0  0  0
  9 10  1  0  0  0  0
  9 17  1  0  0  0  0
 10 11  2  0  0  0  0
 10 12  1  0  0  0  0
 12 22  1  0  0  0  0
 12 13  1  0  0  0  0
 13 14  2  0  0  0  0
 13 15  1  0  0  0  0
 15 16  1  0  0  0  0
 16 31  1  0  0  0  0
 16 32  1  0  0  0  0
 16 33  1  0  0  0  0
 17 18  1  0  0  0  0
 18 19  1  0  0  0  0
 18 34  1  0  0  0  0
 18 35  1  0  0  0  0
 19 20  1  0  0  0  0
 19 36  1  0  0  0  0
 19 37  1  0  0  0  0
 20 21  1  0  0  0  0
 21 38  1  0  0  0  0
 21 39  1  0  0  0  0
 21 40  1  0  0  0  0
M  END
> <s_m_source_file>
AV-unprocessed.smi

> <i_m_source_file_index>
534

> <i_lp_mmshare_version>
43012

> <i_f3d_flags>
0

> <s_epik_input>
W0NIM11PW0NIMl1bQ0gyXVtOSF1jKG4xKW4oW0NIMl1bQ0gyXU9bQ0gzXSljKGMxMiljKD1PKVtuSF1jKD1PKW4yW0NIM10=

> <s_epik_cmdline>
J2VwaWtfcHl0aG9uJywgJy1waCcsICc3LjAnLCAnLXRuJywgJzgnLCAnLW1hJywgJzIwMCcsICctbWV0YWxfYmluZGluZycsICctaW1hZScsICc8aW5maWxlLm1hZT4nLCAnLW9tYWUnLCAnPG91dGZpbGUubWFlPic=

> <r_lp_tautomer_probability>
1

> <r_epik_Ionization_Penalty>
6.5127e-05

> <r_epik_Ionization_Penalty_Charging>
2.86033e-05

> <r_epik_Ionization_Penalty_Neutral>
3.65237e-05

> <r_epik_State_Penalty>
-0

> <r_epik_Charging_Adjusted_Penalty>
2.86033e-05

> <i_epik_Tot_Q>
0

> <i_epik_Tot_abs_Q>
0

> <r_epik_Metal_State_Penalty>
0.0266758

> <b_epik_Metal_Only>
0

> <s_lp_Force_Field>
OPLS_2005

> <r_lp_Energy>
20.7104

> <b_lp_Chiralities_Consistent>
1

> <s_lp_Variant>
AV-unprocessed.smi:534-1

> <Gold.Version>
5.8.1

> <Gold.Id.Protein>
6NUR|6NUR_protein|mol2

> <Gold.PLP.Fitness>
44.2464

> <Gold.PLP.PLP>
-40.1488

> <Gold.PLP.part.hbond>
-3.0000

> <Gold.PLP.part.metal>
0.0000

> <Gold.PLP.part.buried>
-4.2717

> <Gold.PLP.part.nonpolar>
-31.1861

> <Gold.PLP.part.repulsive>
0.3242

> <Gold.PLP.ligand.clash>
0.0000

> <Gold.PLP.ligand.torsion>
0.8476

> <Gold.PLP.Chemscore.Hbond>
1.9185

> <Gold.PLP.Chemscore.CHOScore>
0.0000

> <Gold.PLP.Chemscore.Metal>
0.0000

> <Gold.Chemscore.Hbonds>
donor molecule, donor type, donor heavy atom, donor atom, acceptor molecule, acceptor atom, score
      P1  H  6896  6909       L1    20  1.00
      P1  H  7989  7998       L1     2  0.68

> <Gold.PLP.Chemscore.Internal.Correction>
0.0374

> <Gold.Rescore>
     Score         DG    S(hbond)    S(metal)    S(lipo)     H(rot)  DE(clash)    DE(int)     intcor
      9.98     -11.09       1.57        0.00      56.67       2.45       0.21       0.91       ----

> <Gold.Chemscore.Fitness>
9.9782

> <Gold.Chemscore.DG>
-11.0905

> <Gold.Chemscore.ZeroCoef>
-5.4800

> <Gold.Chemscore.Hbond>
1.5701

> <Gold.Chemscore.Metal>
0.0000

> <Gold.Chemscore.Lipo>
56.6681

> <Gold.Chemscore.Internal_Hbond>
0.0000

> <Gold.Chemscore.DEClash>
0.2066

> <Gold.Chemscore.DEInternal>
0.9057

> <Gold.Chemscore.Rot>
2.4468

> <Gold.Chemscore.Internal.Correction>
   9.000000E+99

> <Gold.Chemscore.Hbonds>
donor molecule, donor type, donor heavy atom, donor atom, acceptor molecule, acceptor atom, score
      P1  H  6896  6909       L1    20  0.35
      P1  H  7989  7998       L1     2  0.53

> <Gold.Chemscore.Hbond.Weighted>
-5.2442

> <Gold.Chemscore.Metal.Weighted>
-0.0000

> <Gold.Chemscore.Lipo.Weighted>
-6.6302

> <Gold.Chemscore.Internal_Hbond.Weighted>
0.0000

> <Gold.Chemscore.DEClash.Weighted>
0.2066

> <Gold.Chemscore.DEInternal.Weighted>
0.9057

> <Gold.Chemscore.Rot.Weighted>
6.2638

> <Gold.Chemscore.Internal.Correction.Weighted>
   9.000000E+99

> <Gold.Protein.RotatedTorsions>
[ 6907 6896 6895 6894 ] final  160.43 input  -60.11 | X-H torsion
[ 7974 7965 7964 7962 ] final   91.25 input  175.53 | X-H torsion
[ 8008 7997 7996 7995 ] final  104.24 input   59.86 | X-H torsion
[ 10167 10162 10161 10158 ] final   -4.41 input  -65.29 | X-H torsion
[ 10718 10713 10712 10709 ] final  106.18 input   66.30 | X-H torsion
[ 10763 10752 10751 10750 ] final   74.29 input  -60.55 | X-H torsion
[ 11005 11000 10999 10996 ] final -116.52 input  -57.11 | X-H torsion

> <Gold.Protein.ActiveResidues>
 VAL166  LYS551  ARG553  GLY616  TRP617  ASP618  TYR619  PRO620  LYS621  CYS622 
 ASP623  PHE694  ASN695  SER759  ASP760  ASP761  ALA762  ILE779  LEU786  VAL792 
 PHE793  MET794  SER795  GLU796  ALA797  LYS798  CYS799  TRP800  GLU811  SER814 

> <Gold.Protein.RotatedAtoms>
  151.9707  133.3725  159.4069 H   0  0  0  0  0  0  0  0  0  0  0  0  # atno 6907 bound_to 6896
  150.6949  134.4143  159.5185 H   0  0  0  0  0  0  0  0  0  0  0  0  # atno 6908 bound_to 6896
  152.1847  134.8724  160.0574 H   0  0  0  0  0  0  0  0  0  0  0  0  # atno 6909 bound_to 6896
  145.5081  139.2276  143.2739 H   0  0  0  0  0  0  0  0  0  0  0  0  # atno 7974 bound_to 7965
  156.1556  140.3151  155.8720 H   0  0  0  0  0  0  0  0  0  0  0  0  # atno 8008 bound_to 7997
  155.3886  140.0492  157.3058 H   0  0  0  0  0  0  0  0  0  0  0  0  # atno 8009 bound_to 7997
  154.5098  140.2160  155.9190 H   0  0  0  0  0  0  0  0  0  0  0  0  # atno 8010 bound_to 7997
  140.6926  143.6426  150.8421 H   0  0  0  0  0  0  0  0  0  0  0  0  # atno 10167 bound_to 10162
  157.6678  131.0845  150.5968 H   0  0  0  0  0  0  0  0  0  0  0  0  # atno 10718 bound_to 10713
  153.0577  135.5031  154.8020 H   0  0  0  0  0  0  0  0  0  0  0  0  # atno 10763 bound_to 10752
  154.6833  135.2972  154.9584 H   0  0  0  0  0  0  0  0  0  0  0  0  # atno 10764 bound_to 10752
  154.0363  135.6723  153.4838 H   0  0  0  0  0  0  0  0  0  0  0  0  # atno 10765 bound_to 10752
  141.0416  133.9826  157.2985 H   0  0  0  0  0  0  0  0  0  0  0  0  # atno 11005 bound_to 11000
  146.2184  140.5887  142.9028 LP  0  0  0  0  0  0  0  0  0  0  0  0  # atno 17320 bound_to 7965
  144.7742  140.5704  143.6649 LP  0  0  0  0  0  0  0  0  0  0  0  0  # atno 17321 bound_to 7965
  140.0141  143.5611  152.2827 LP  0  0  0  0  0  0  0  0  0  0  0  0  # atno 17342 bound_to 10162
  139.6346  144.7648  151.2465 LP  0  0  0  0  0  0  0  0  0  0  0  0  # atno 17343 bound_to 10162
  156.6269  130.4421  149.5801 LP  0  0  0  0  0  0  0  0  0  0  0  0  # atno 17370 bound_to 10713
  156.2312  130.6795  151.1465 LP  0  0  0  0  0  0  0  0  0  0  0  0  # atno 17371 bound_to 10713
  139.9280  135.0201  156.8303 LP  0  0  0  0  0  0  0  0  0  0  0  0  # atno 17394 bound_to 11000
  140.6223  133.9982  155.7624 LP  0  0  0  0  0  0  0  0  0  0  0  0  # atno 17395 bound_to 11000

$$$$
