AV-unprocessed.smi:1072|AV-procd|sdf|4687|dock8
  -GOLD-   22720 3203D 1   1.00000     0.00000
 Structure written by MMmdl.
 45 46  0  0  0  0  0  0  0  0  2 V2000
  143.7758  143.5065  156.1073 C   0  0  0  0  0  0  0  0  0  0  0  0
  145.0931  142.9572  156.6117 C   0  0  0  0  0  0  0  0  0  0  0  0
  145.9030  142.4165  155.7833 N   0  0  0  0  0  0  0  0  0  0  0  0
  147.1282  141.9073  156.2462 C   0  0  0  0  0  0  0  0  0  0  0  0
  148.0274  141.2811  155.1944 C   0  0  0  0  0  0  0  0  0  0  0  0
  147.4706  141.9817  157.5644 C   0  0  0  0  0  0  0  0  0  0  0  0
  148.7908  141.4423  158.1152 C   0  0  0  0  0  0  0  0  0  0  0  0
  150.0441  142.2402  157.7480 C   0  0  0  0  0  0  0  0  0  0  0  0
  150.4967  142.1940  156.6046 O   0  0  0  0  0  0  0  0  0  0  0  0
  150.5893  142.9627  158.7424 N   0  0  0  0  0  0  0  0  0  0  0  0
  151.7886  143.8123  158.7094 C   0  0  1  0  0  0  0  0  0  0  0  0
  151.9287  144.4645  157.3168 C   0  0  0  0  0  0  0  0  0  0  0  0
  151.7506  144.9010  159.8142 C   0  0  0  0  0  0  0  0  0  0  0  0
  151.7543  144.3088  161.2350 C   0  0  0  0  0  0  0  0  0  0  0  0
  152.9761  143.4005  161.4624 C   0  0  1  0  0  0  0  0  0  0  0  0
  152.9747  142.7999  162.8753 C   0  0  0  0  0  0  0  0  0  0  0  0
  153.0387  142.3046  160.3826 C   0  0  0  0  0  0  0  0  0  0  0  0
  153.0146  142.9019  158.9620 C   0  0  0  0  0  0  0  0  0  0  0  0
  146.5110  142.6160  158.4859 C   0  0  0  0  0  0  0  0  0  0  0  0
  146.7755  142.7210  159.6830 O   0  0  0  0  0  0  0  0  0  0  0  0
  145.3393  143.0756  157.9611 N   0  5  0  0  0  0  0  0  0  0  0  0
  143.7644  143.5605  155.0179 H   0  0  0  0  0  0  0  0  0  0  0  0
  143.6062  144.5101  156.4988 H   0  0  0  0  0  0  0  0  0  0  0  0
  142.9539  142.8665  156.4289 H   0  0  0  0  0  0  0  0  0  0  0  0
  148.1777  140.2216  155.4018 H   0  0  0  0  0  0  0  0  0  0  0  0
  148.9994  141.7741  155.1761 H   0  0  0  0  0  0  0  0  0  0  0  0
  147.5904  141.3689  154.1991 H   0  0  0  0  0  0  0  0  0  0  0  0
  148.7518  141.3516  159.2009 H   0  0  0  0  0  0  0  0  0  0  0  0
  148.9123  140.4190  157.7586 H   0  0  0  0  0  0  0  0  0  0  0  0
  150.1182  142.9178  159.6343 H   0  0  0  0  0  0  0  0  0  0  0  0
  152.8621  145.0220  157.2343 H   0  0  0  0  0  0  0  0  0  0  0  0
  151.1209  145.1663  157.1093 H   0  0  0  0  0  0  0  0  0  0  0  0
  151.9248  143.7140  156.5254 H   0  0  0  0  0  0  0  0  0  0  0  0
  152.6206  145.5500  159.7069 H   0  0  0  0  0  0  0  0  0  0  0  0
  150.8865  145.5542  159.6929 H   0  0  0  0  0  0  0  0  0  0  0  0
  151.7544  145.1197  161.9641 H   0  0  0  0  0  0  0  0  0  0  0  0
  150.8344  143.7478  161.4043 H   0  0  0  0  0  0  0  0  0  0  0  0
  153.8727  144.0148  161.3670 H   0  0  0  0  0  0  0  0  0  0  0  0
  152.0989  142.1712  163.0383 H   0  0  0  0  0  0  0  0  0  0  0  0
  152.9681  143.5825  163.6344 H   0  0  0  0  0  0  0  0  0  0  0  0
  153.8607  142.1868  163.0426 H   0  0  0  0  0  0  0  0  0  0  0  0
  153.9452  141.7116  160.5099 H   0  0  0  0  0  0  0  0  0  0  0  0
  152.2045  141.6130  160.5082 H   0  0  0  0  0  0  0  0  0  0  0  0
  153.0418  142.0952  158.2281 H   0  0  0  0  0  0  0  0  0  0  0  0
  153.9312  143.4740  158.8106 H   0  0  0  0  0  0  0  0  0  0  0  0
  1  2  1  0  0  0  0
  1 22  1  0  0  0  0
  1 23  1  0  0  0  0
  1 24  1  0  0  0  0
  2 21  1  0  0  0  0
  2  3  2  0  0  0  0
  3  4  1  0  0  0  0
  4  5  1  0  0  0  0
  4  6  2  0  0  0  0
  5 25  1  0  0  0  0
  5 26  1  0  0  0  0
  5 27  1  0  0  0  0
  6  7  1  0  0  0  0
  6 19  1  0  0  0  0
  7  8  1  0  0  0  0
  7 28  1  0  0  0  0
  7 29  1  0  0  0  0
  8  9  2  0  0  0  0
  8 10  1  0  0  0  0
 10 11  1  0  0  0  0
 10 30  1  0  0  0  0
 11 18  1  0  0  0  0
 11 12  1  0  0  0  0
 11 13  1  0  0  0  0
 12 31  1  0  0  0  0
 12 32  1  0  0  0  0
 12 33  1  0  0  0  0
 13 14  1  0  0  0  0
 13 34  1  0  0  0  0
 13 35  1  0  0  0  0
 14 15  1  0  0  0  0
 14 36  1  0  0  0  0
 14 37  1  0  0  0  0
 15 16  1  0  0  0  0
 15 17  1  0  0  0  0
 15 38  1  0  0  0  0
 16 39  1  0  0  0  0
 16 40  1  0  0  0  0
 16 41  1  0  0  0  0
 17 18  1  0  0  0  0
 17 42  1  0  0  0  0
 17 43  1  0  0  0  0
 18 44  1  0  0  0  0
 18 45  1  0  0  0  0
 19 20  2  0  0  0  0
 19 21  1  0  0  0  0
M  CHG  1  21  -1
M  END
> <s_m_source_file>
AV-unprocessed.smi

> <i_m_source_file_index>
1072

> <i_lp_mmshare_version>
43012

> <i_f3d_flags>
0

> <s_epik_input>
W0NIM11jMW5jKFtDSDNdKWMoYyg9TylbbkhdMSlbQ0gyXUMoPU8pW05IXVtDQEBdMihbQ0gzXSlbQ0gyXVtDSDJdW0NAQEhdKFtDSDNdKVtDSDJdW0NIMl0y

> <s_epik_cmdline>
J2VwaWtfcHl0aG9uJywgJy1waCcsICc3LjAnLCAnLXRuJywgJzgnLCAnLW1hJywgJzIwMCcsICctbWV0YWxfYmluZGluZycsICctaW1hZScsICc8aW5maWxlLm1hZT4nLCAnLW9tYWUnLCAnPG91dGZpbGUubWFlPic=

> <r_lp_tautomer_probability>
0.839158

> <r_epik_Ionization_Penalty>
6.73882

> <r_epik_Ionization_Penalty_Charging>
8.02239e-08

> <r_epik_Ionization_Penalty_Neutral>
6.73882

> <r_epik_State_Penalty>
4.55873

> <r_epik_Charging_Adjusted_Penalty>
4.55873

> <i_epik_Tot_Q>
-1

> <i_epik_Tot_abs_Q>
1

> <r_epik_Metal_State_Penalty>
0.872514

> <b_epik_Metal_Only>
1

> <s_lp_Force_Field>
OPLS_2005

> <r_lp_Energy>
14.8033

> <b_lp_Chiralities_Consistent>
1

> <s_lp_Variant>
AV-unprocessed.smi:1072-5

> <Gold.Version>
5.8.1

> <Gold.Id.Protein>
6NUR|6NUR_protein|mol2

> <Gold.PLP.Fitness>
42.8504

> <Gold.PLP.PLP>
-41.1802

> <Gold.PLP.part.hbond>
-1.5705

> <Gold.PLP.part.metal>
0.0000

> <Gold.PLP.part.buried>
-7.2526

> <Gold.PLP.part.nonpolar>
-33.1678

> <Gold.PLP.part.repulsive>
1.0614

> <Gold.PLP.ligand.clash>
0.0000

> <Gold.PLP.ligand.torsion>
0.8028

> <Gold.PLP.Chemscore.Hbond>
1.0904

> <Gold.PLP.Chemscore.CHOScore>
0.0000

> <Gold.PLP.Chemscore.Metal>
0.0000

> <Gold.Chemscore.Hbonds>
donor molecule, donor type, donor heavy atom, donor atom, acceptor molecule, acceptor atom, score
      P1  H  6934  6946       L1    20  0.76

> <Gold.PLP.Chemscore.Internal.Correction>
0.0047

> <Gold.Rescore>
     Score         DG    S(hbond)    S(metal)    S(lipo)     H(rot)  DE(clash)    DE(int)     intcor
     16.36     -18.58       1.28        0.00     106.74       1.43       0.06       2.15       ----

> <Gold.Chemscore.Fitness>
16.3639

> <Gold.Chemscore.DG>
-18.5758

> <Gold.Chemscore.ZeroCoef>
-5.4800

> <Gold.Chemscore.Hbond>
1.2809

> <Gold.Chemscore.Metal>
0.0000

> <Gold.Chemscore.Lipo>
106.7380

> <Gold.Chemscore.Internal_Hbond>
0.0000

> <Gold.Chemscore.DEClash>
0.0577

> <Gold.Chemscore.DEInternal>
2.1542

> <Gold.Chemscore.Rot>
1.4339

> <Gold.Chemscore.Internal.Correction>
   9.000000E+99

> <Gold.Chemscore.Hbonds>
donor molecule, donor type, donor heavy atom, donor atom, acceptor molecule, acceptor atom, score
      P1  H  6933  6944       L1    20  0.02
      P1  H  6934  6946       L1    20  0.62

> <Gold.Chemscore.Hbond.Weighted>
-4.2782

> <Gold.Chemscore.Metal.Weighted>
-0.0000

> <Gold.Chemscore.Lipo.Weighted>
-12.4883

> <Gold.Chemscore.Internal_Hbond.Weighted>
0.0000

> <Gold.Chemscore.DEClash.Weighted>
0.0577

> <Gold.Chemscore.DEInternal.Weighted>
2.1542

> <Gold.Chemscore.Rot.Weighted>
3.6708

> <Gold.Chemscore.Internal.Correction.Weighted>
   9.000000E+99

> <Gold.Protein.RotatedTorsions>
[ 6907 6896 6895 6894 ] final  113.89 input  -60.11 | X-H torsion
[ 7974 7965 7964 7962 ] final -120.09 input  175.53 | X-H torsion
[ 8008 7997 7996 7995 ] final   44.73 input   59.86 | X-H torsion
[ 10167 10162 10161 10158 ] final  -90.30 input  -65.29 | X-H torsion
[ 10718 10713 10712 10709 ] final -161.49 input   66.30 | X-H torsion
[ 10763 10752 10751 10750 ] final  143.88 input  -60.55 | X-H torsion
[ 11005 11000 10999 10996 ] final    9.83 input  -57.11 | X-H torsion

> <Gold.Protein.ActiveResidues>
 VAL166  LYS551  ARG553  GLY616  TRP617  ASP618  TYR619  PRO620  LYS621  CYS622 
 ASP623  PHE694  ASN695  SER759  ASP760  ASP761  ALA762  ILE779  LEU786  VAL792 
 PHE793  MET794  SER795  GLU796  ALA797  LYS798  CYS799  TRP800  GLU811  SER814 

> <Gold.Protein.RotatedAtoms>
  152.4834  133.8312  159.7103 H   0  0  0  0  0  0  0  0  0  0  0  0  # atno 6907 bound_to 6896
  150.8902  133.7244  159.2913 H   0  0  0  0  0  0  0  0  0  0  0  0  # atno 6908 bound_to 6896
  151.4720  135.1050  159.9806 H   0  0  0  0  0  0  0  0  0  0  0  0  # atno 6909 bound_to 6896
  145.0552  140.8249  143.4185 H   0  0  0  0  0  0  0  0  0  0  0  0  # atno 7974 bound_to 7965
  155.3241  140.3398  155.4240 H   0  0  0  0  0  0  0  0  0  0  0  0  # atno 8008 bound_to 7997
  156.1894  140.1692  156.8158 H   0  0  0  0  0  0  0  0  0  0  0  0  # atno 8009 bound_to 7997
  154.5424  140.0722  156.8516 H   0  0  0  0  0  0  0  0  0  0  0  0  # atno 8010 bound_to 7997
  140.3562  143.2865  151.9668 H   0  0  0  0  0  0  0  0  0  0  0  0  # atno 10167 bound_to 10162
  156.5970  130.8794  151.2904 H   0  0  0  0  0  0  0  0  0  0  0  0  # atno 10718 bound_to 10713
  153.9796  135.2942  155.3421 H   0  0  0  0  0  0  0  0  0  0  0  0  # atno 10763 bound_to 10752
  154.7276  135.5082  153.8915 H   0  0  0  0  0  0  0  0  0  0  0  0  # atno 10764 bound_to 10752
  153.0861  135.6693  154.0061 H   0  0  0  0  0  0  0  0  0  0  0  0  # atno 10765 bound_to 10752
  140.5214  134.0555  155.7846 H   0  0  0  0  0  0  0  0  0  0  0  0  # atno 11005 bound_to 11000
  145.1477  139.2533  143.5457 LP  0  0  0  0  0  0  0  0  0  0  0  0  # atno 17320 bound_to 7965
  146.3521  140.1171  142.8601 LP  0  0  0  0  0  0  0  0  0  0  0  0  # atno 17321 bound_to 7965
  139.4820  144.6032  151.7567 LP  0  0  0  0  0  0  0  0  0  0  0  0  # atno 17342 bound_to 10162
  140.5171  144.0936  150.6011 LP  0  0  0  0  0  0  0  0  0  0  0  0  # atno 17343 bound_to 10162
  157.7289  130.9663  150.1764 LP  0  0  0  0  0  0  0  0  0  0  0  0  # atno 17370 bound_to 10713
  156.2501  130.3699  149.8242 LP  0  0  0  0  0  0  0  0  0  0  0  0  # atno 17371 bound_to 10713
  141.1332  133.9266  157.2490 LP  0  0  0  0  0  0  0  0  0  0  0  0  # atno 17394 bound_to 11000
  139.9604  135.0155  156.9245 LP  0  0  0  0  0  0  0  0  0  0  0  0  # atno 17395 bound_to 11000

$$$$
