AV-unprocessed.smi:100|AV-procd|sdf|910|dock4
  -GOLD-   2262017403D 1   1.00000     0.00000
 Structure written by MMmdl.
 31 33  0  0  0  0  0  0  0  0  1 V2000
  139.3422  136.8109  154.9482 N   0  0  0  0  0  0  0  0  0  0  0  0
  140.4373  137.0382  154.2099 C   0  0  0  0  0  0  0  0  0  0  0  0
  140.6776  138.3016  153.7872 N   0  0  0  0  0  0  0  0  0  0  0  0
  141.7629  138.5545  153.0479 C   0  0  0  0  0  0  0  0  0  0  0  0
  142.7086  137.7065  152.6328 N   0  0  0  0  0  0  0  0  0  0  0  0
  142.4643  136.4348  153.0653 C   0  0  0  0  0  0  0  0  0  0  0  0
  141.3548  136.0188  153.8513 C   0  0  0  0  0  0  0  0  0  0  0  0
  141.4323  134.6533  154.0933 N   0  0  0  0  0  0  0  0  0  0  0  0
  142.5288  134.2884  153.4837 C   0  0  0  0  0  0  0  0  0  0  0  0
  143.2126  135.3002  152.8439 N   0  0  0  0  0  0  0  0  0  0  0  0
  144.4794  135.2184  152.0596 C   0  0  1  0  0  0  0  0  0  0  0  0
  145.1287  134.0439  152.4419 O   0  0  0  0  0  0  0  0  0  0  0  0
  145.6439  133.3942  151.2883 C   0  0  1  0  0  0  0  0  0  0  0  0
  145.8823  131.9006  151.5579 C   0  0  0  0  0  0  0  0  0  0  0  0
  146.5006  131.3013  150.4398 O   0  0  0  0  0  0  0  0  0  0  0  0
  144.5727  133.6823  150.2355 C   0  0  1  0  0  0  0  0  0  0  0  0
  143.5254  132.8703  150.3953 F   0  0  0  0  0  0  0  0  0  0  0  0
  144.1570  135.1084  150.5590 C   0  0  2  0  0  0  0  0  0  0  0  0
  144.9005  136.0296  149.7865 O   0  0  0  0  0  0  0  0  0  0  0  0
  139.1414  135.8768  155.2755 H   0  0  0  0  0  0  0  0  0  0  0  0
  138.7233  137.5743  155.1793 H   0  0  0  0  0  0  0  0  0  0  0  0
  141.8929  139.5836  152.7469 H   0  0  0  0  0  0  0  0  0  0  0  0
  142.8714  133.2637  153.4841 H   0  0  0  0  0  0  0  0  0  0  0  0
  145.0596  136.0998  152.3378 H   0  0  0  0  0  0  0  0  0  0  0  0
  146.5718  133.8847  150.9871 H   0  0  0  0  0  0  0  0  0  0  0  0
  146.4877  131.7501  152.4525 H   0  0  0  0  0  0  0  0  0  0  0  0
  144.9315  131.3916  151.7182 H   0  0  0  0  0  0  0  0  0  0  0  0
  147.4373  131.3416  150.5568 H   0  0  0  0  0  0  0  0  0  0  0  0
  144.9277  133.5491  149.2127 H   0  0  0  0  0  0  0  0  0  0  0  0
  143.0960  135.2776  150.3666 H   0  0  0  0  0  0  0  0  0  0  0  0
  144.4679  136.8692  149.8238 H   0  0  0  0  0  0  0  0  0  0  0  0
  1  2  1  0  0  0  0
  1 20  1  0  0  0  0
  1 21  1  0  0  0  0
  2  7  1  0  0  0  0
  2  3  2  0  0  0  0
  3  4  1  0  0  0  0
  4  5  2  0  0  0  0
  4 22  1  0  0  0  0
  5  6  1  0  0  0  0
  6 10  1  0  0  0  0
  6  7  2  0  0  0  0
  7  8  1  0  0  0  0
  8  9  2  0  0  0  0
  9 10  1  0  0  0  0
  9 23  1  0  0  0  0
 10 11  1  0  0  0  0
 11 18  1  0  0  0  0
 11 12  1  0  0  0  0
 11 24  1  0  0  0  0
 12 13  1  0  0  0  0
 13 14  1  0  0  0  0
 13 16  1  0  0  0  0
 13 25  1  0  0  0  0
 14 15  1  0  0  0  0
 14 26  1  0  0  0  0
 14 27  1  0  0  0  0
 15 28  1  0  0  0  0
 16 17  1  0  0  0  0
 16 18  1  0  0  0  0
 16 29  1  0  0  0  0
 18 19  1  0  0  0  0
 18 30  1  0  0  0  0
 19 31  1  0  0  0  0
M  END
> <s_m_source_file>
AV-unprocessed.smi

> <i_m_source_file_index>
100

> <i_lp_mmshare_version>
43012

> <i_f3d_flags>
0

> <s_epik_input>
bjFbY0hdbmMoW05IMl0pYyhjMTIpbltjSF1uMltDQEBIXTNPW0NAQEhdKFtDSDJdW09IXSlbQ0BIXShGKVtDQEhdM1tPSF0=

> <s_epik_cmdline>
J2VwaWtfcHl0aG9uJywgJy1waCcsICc3LjAnLCAnLXRuJywgJzgnLCAnLW1hJywgJzIwMCcsICctbWV0YWxfYmluZGluZycsICctaW1hZScsICc8aW5maWxlLm1hZT4nLCAnLW9tYWUnLCAnPG91dGZpbGUubWFlPic=

> <r_lp_tautomer_probability>
1

> <r_epik_Ionization_Penalty>
0.000750324

> <r_epik_Ionization_Penalty_Charging>
0

> <r_epik_Ionization_Penalty_Neutral>
0.000750324

> <r_epik_State_Penalty>
-0

> <r_epik_Charging_Adjusted_Penalty>
0

> <i_epik_Tot_Q>
0

> <i_epik_Tot_abs_Q>
0

> <r_epik_Metal_State_Penalty>
-0

> <b_epik_Metal_Only>
0

> <s_epik_Chemistry_Notes>
This compound contains an acetal/aminal-like group ( X-CH(R)-Y where X, Y are N, S, or O) that may be acid/base labile, releasing an aldehyde.

> <s_lp_Force_Field>
OPLS_2005

> <r_lp_Energy>
27.3407

> <b_lp_Chiralities_Consistent>
1

> <s_lp_Variant>
AV-unprocessed.smi:100-14

> <Gold.Version>
5.8.1

> <Gold.Id.Protein>
6NUR|6NUR_protein|mol2

> <Gold.PLP.Fitness>
44.9780

> <Gold.PLP.PLP>
-29.1314

> <Gold.PLP.part.hbond>
-4.7389

> <Gold.PLP.part.metal>
0.0000

> <Gold.PLP.part.buried>
-0.7387

> <Gold.PLP.part.nonpolar>
-24.4576

> <Gold.PLP.part.repulsive>
1.4765

> <Gold.PLP.ligand.clash>
0.0000

> <Gold.PLP.ligand.torsion>
0.6322

> <Gold.PLP.Chemscore.Hbond>
2.9833

> <Gold.PLP.Chemscore.CHOScore>
2.7150

> <Gold.PLP.Chemscore.Metal>
0.0000

> <Gold.Chemscore.Hbonds>
donor molecule, donor type, donor heavy atom, donor atom, acceptor molecule, acceptor atom, score
      L1  H    15    28       P1 10747  1.00
      L1  H    19    31       P1 10171  1.00
      P1  H 11000 11005       L1     8  1.00
      L1  C     4    22       P1 10160  0.79
      L1  C     4    22       P1 10175  0.65
      L1  C     9    23       P1 10957  0.89

> <Gold.PLP.Chemscore.Internal.Correction>
0.0163

> <Gold.Rescore>
     Score         DG    S(hbond)    S(metal)    S(lipo)     H(rot)  DE(clash)    DE(int)     intcor
      8.33      -8.94       2.28        0.00      34.31       3.19       0.50       0.11       ----

> <Gold.Chemscore.Fitness>
8.3324

> <Gold.Chemscore.DG>
-8.9405

> <Gold.Chemscore.ZeroCoef>
-5.4800

> <Gold.Chemscore.Hbond>
2.2793

> <Gold.Chemscore.Metal>
0.0000

> <Gold.Chemscore.Lipo>
34.3102

> <Gold.Chemscore.Internal_Hbond>
0.0000

> <Gold.Chemscore.DEClash>
0.4979

> <Gold.Chemscore.DEInternal>
0.1102

> <Gold.Chemscore.Rot>
3.1901

> <Gold.Chemscore.Internal.Correction>
   9.000000E+99

> <Gold.Chemscore.Hbonds>
donor molecule, donor type, donor heavy atom, donor atom, acceptor molecule, acceptor atom, score
      L1  H    15    28       P1 10747  0.96
      L1  H    19    31       P1 10171  1.00
      P1  H 11000 11005       L1     8  0.79

> <Gold.Chemscore.Hbond.Weighted>
-7.6129

> <Gold.Chemscore.Metal.Weighted>
-0.0000

> <Gold.Chemscore.Lipo.Weighted>
-4.0143

> <Gold.Chemscore.Internal_Hbond.Weighted>
0.0000

> <Gold.Chemscore.DEClash.Weighted>
0.4979

> <Gold.Chemscore.DEInternal.Weighted>
0.1102

> <Gold.Chemscore.Rot.Weighted>
8.1667

> <Gold.Chemscore.Internal.Correction.Weighted>
   9.000000E+99

> <Gold.Protein.RotatedTorsions>
[ 6907 6896 6895 6894 ] final   34.94 input  -60.11 | X-H torsion
[ 7974 7965 7964 7962 ] final  -70.96 input  175.53 | X-H torsion
[ 8008 7997 7996 7995 ] final -106.29 input   59.86 | X-H torsion
[ 10167 10162 10161 10158 ] final -140.15 input  -65.29 | X-H torsion
[ 10718 10713 10712 10709 ] final   63.76 input   66.30 | X-H torsion
[ 10763 10752 10751 10750 ] final  -10.49 input  -60.55 | X-H torsion
[ 11005 11000 10999 10996 ] final   15.84 input  -57.11 | X-H torsion

> <Gold.Protein.ActiveResidues>
 VAL166  LYS551  ARG553  GLY616  TRP617  ASP618  TYR619  PRO620  LYS621  CYS622 
 ASP623  PHE694  ASN695  SER759  ASP760  ASP761  ALA762  ILE779  LEU786  VAL792 
 PHE793  MET794  SER795  GLU796  ALA797  LYS798  CYS799  TRP800  GLU811  SER814 

> <Gold.Protein.RotatedAtoms>
  152.1093  134.9286  160.0566 H   0  0  0  0  0  0  0  0  0  0  0  0  # atno 6907 bound_to 6896
  152.0470  133.3997  159.4369 H   0  0  0  0  0  0  0  0  0  0  0  0  # atno 6908 bound_to 6896
  150.6843  134.3271  159.4855 H   0  0  0  0  0  0  0  0  0  0  0  0  # atno 6909 bound_to 6896
  145.6842  140.9177  143.0816 H   0  0  0  0  0  0  0  0  0  0  0  0  # atno 7974 bound_to 7965
  154.9123  140.0409  157.1953 H   0  0  0  0  0  0  0  0  0  0  0  0  # atno 8008 bound_to 7997
  154.8336  140.2903  155.5685 H   0  0  0  0  0  0  0  0  0  0  0  0  # atno 8009 bound_to 7997
  156.2988  140.2496  156.3265 H   0  0  0  0  0  0  0  0  0  0  0  0  # atno 8010 bound_to 7997
  139.8309  143.7448  152.2666 H   0  0  0  0  0  0  0  0  0  0  0  0  # atno 10167 bound_to 10162
  157.5994  130.9123  149.9758 H   0  0  0  0  0  0  0  0  0  0  0  0  # atno 10718 bound_to 10713
  153.4700  135.7016  153.5999 H   0  0  0  0  0  0  0  0  0  0  0  0  # atno 10763 bound_to 10752
  153.4257  135.3814  155.2139 H   0  0  0  0  0  0  0  0  0  0  0  0  # atno 10764 bound_to 10752
  154.8725  135.3938  154.4136 H   0  0  0  0  0  0  0  0  0  0  0  0  # atno 10765 bound_to 10752
  140.4538  134.1197  155.7706 H   0  0  0  0  0  0  0  0  0  0  0  0  # atno 11005 bound_to 11000
  144.7016  139.8736  143.7442 LP  0  0  0  0  0  0  0  0  0  0  0  0  # atno 17320 bound_to 7965
  146.0938  139.3929  143.0389 LP  0  0  0  0  0  0  0  0  0  0  0  0  # atno 17321 bound_to 7965
  139.7655  144.7493  151.0301 LP  0  0  0  0  0  0  0  0  0  0  0  0  # atno 17342 bound_to 10162
  140.7806  143.4703  151.0156 LP  0  0  0  0  0  0  0  0  0  0  0  0  # atno 17343 bound_to 10162
  156.1063  130.3652  150.0128 LP  0  0  0  0  0  0  0  0  0  0  0  0  # atno 17370 bound_to 10713
  156.8234  130.9367  151.3640 LP  0  0  0  0  0  0  0  0  0  0  0  0  # atno 17371 bound_to 10713
  141.1652  133.8716  157.1734 LP  0  0  0  0  0  0  0  0  0  0  0  0  # atno 17394 bound_to 11000
  139.9990  135.0035  157.0146 LP  0  0  0  0  0  0  0  0  0  0  0  0  # atno 17395 bound_to 11000

$$$$
