AV-unprocessed.smi:2424|AV-procd|sdf|9561|dock3
  -GOLD-   2272013193D 1   1.00000     0.00000
 Structure written by MMmdl.
 50 51  0  0  0  0  0  0  0  0  1 V2000
  150.8312  139.1565  154.6624 C   0  0  0  0  0  0  0  0  0  0  0  0
  149.4552  138.4896  154.4787 C   0  0  0  0  0  0  0  0  0  0  0  0
  148.2163  139.4324  154.4609 C   0  0  0  0  0  0  0  0  0  0  0  0
  148.5967  140.7818  153.8215 C   0  0  0  0  0  0  0  0  0  0  0  0
  147.5132  141.8669  153.9232 C   0  0  0  0  0  0  0  0  0  0  0  0
  146.8650  138.8369  153.9733 C   0  0  1  0  0  0  0  0  0  0  0  0
  146.9700  137.6993  153.0660 N   0  0  0  0  0  0  0  0  0  0  0  0
  145.9300  136.9770  152.6281 C   0  0  0  0  0  0  0  0  0  0  0  0
  144.7657  137.2051  152.9553 O   0  0  0  0  0  0  0  0  0  0  0  0
  146.3404  136.0060  151.7908 N   0  0  0  0  0  0  0  0  0  0  0  0
  145.5844  135.0344  151.1181 C   0  0  0  0  0  0  0  0  0  0  0  0
  144.3789  135.2359  150.5439 C   0  0  0  0  0  0  0  0  0  0  0  0
  143.7011  134.1990  149.8971 N   0  0  0  0  0  0  0  0  0  0  0  0
  144.1671  132.9340  149.7863 C   0  0  0  0  0  0  0  0  0  0  0  0
  143.5106  132.0763  149.1985 O   0  0  0  0  0  0  0  0  0  0  0  0
  145.4780  132.6876  150.4079 C   0  0  0  0  0  0  0  0  0  0  0  0
  146.0600  131.2881  150.3222 C   0  0  0  0  0  0  0  0  0  0  0  0
  146.1318  133.6933  151.0330 C   0  0  0  0  0  0  0  0  0  0  0  0
  146.5426  138.4091  155.4090 C   0  0  2  0  0  0  0  0  0  0  0  0
  145.0885  138.4080  155.8622 C   0  0  0  0  0  0  0  0  0  0  0  0
  147.4746  139.5590  155.8193 C   0  0  1  0  0  0  0  0  0  0  0  0
  148.3122  139.2893  156.9343 O   0  0  0  0  0  0  0  0  0  0  0  0
  149.2575  140.3136  157.1865 C   0  0  0  0  0  0  0  0  0  0  0  0
  142.8054  134.4229  149.4882 H   0  0  0  0  0  0  0  0  0  0  0  0
  151.6255  138.4181  154.5517 H   0  0  0  0  0  0  0  0  0  0  0  0
  150.9420  139.5910  155.6554 H   0  0  0  0  0  0  0  0  0  0  0  0
  151.0152  139.9410  153.9316 H   0  0  0  0  0  0  0  0  0  0  0  0
  149.4935  137.9088  153.5572 H   0  0  0  0  0  0  0  0  0  0  0  0
  149.3429  137.7423  155.2642 H   0  0  0  0  0  0  0  0  0  0  0  0
  149.5344  141.1565  154.2312 H   0  0  0  0  0  0  0  0  0  0  0  0
  148.8072  140.6319  152.7619 H   0  0  0  0  0  0  0  0  0  0  0  0
  147.8199  142.7655  153.3878 H   0  0  0  0  0  0  0  0  0  0  0  0
  147.3226  142.1553  154.9566 H   0  0  0  0  0  0  0  0  0  0  0  0
  146.5719  141.5300  153.4883 H   0  0  0  0  0  0  0  0  0  0  0  0
  146.1701  139.6098  153.6348 H   0  0  0  0  0  0  0  0  0  0  0  0
  147.8956  137.4517  152.7478 H   0  0  0  0  0  0  0  0  0  0  0  0
  147.3324  135.9678  151.6085 H   0  0  0  0  0  0  0  0  0  0  0  0
  143.8308  136.1644  150.5236 H   0  0  0  0  0  0  0  0  0  0  0  0
  147.0269  131.2274  150.8225 H   0  0  0  0  0  0  0  0  0  0  0  0
  146.2007  130.9976  149.2806 H   0  0  0  0  0  0  0  0  0  0  0  0
  145.3912  130.5670  150.7933 H   0  0  0  0  0  0  0  0  0  0  0  0
  147.0939  133.4944  151.4828 H   0  0  0  0  0  0  0  0  0  0  0  0
  147.0178  137.4532  155.6371 H   0  0  0  0  0  0  0  0  0  0  0  0
  144.6229  139.3821  155.7109 H   0  0  0  0  0  0  0  0  0  0  0  0
  144.9987  138.1598  156.9191 H   0  0  0  0  0  0  0  0  0  0  0  0
  144.5050  137.6760  155.3037 H   0  0  0  0  0  0  0  0  0  0  0  0
  146.9479  140.5123  155.9102 H   0  0  0  0  0  0  0  0  0  0  0  0
  149.9051  140.0156  158.0108 H   0  0  0  0  0  0  0  0  0  0  0  0
  148.7677  141.2448  157.4696 H   0  0  0  0  0  0  0  0  0  0  0  0
  149.8862  140.4966  156.3140 H   0  0  0  0  0  0  0  0  0  0  0  0
  1  2  1  0  0  0  0
  1 25  1  0  0  0  0
  1 26  1  0  0  0  0
  1 27  1  0  0  0  0
  2  3  1  0  0  0  0
  2 28  1  0  0  0  0
  2 29  1  0  0  0  0
  3 21  1  0  0  0  0
  3  4  1  0  0  0  0
  3  6  1  0  0  0  0
  4  5  1  0  0  0  0
  4 30  1  0  0  0  0
  4 31  1  0  0  0  0
  5 32  1  0  0  0  0
  5 33  1  0  0  0  0
  5 34  1  0  0  0  0
  6  7  1  0  0  0  0
  6 19  1  0  0  0  0
  6 35  1  0  0  0  0
  7  8  1  0  0  0  0
  7 36  1  0  0  0  0
  8  9  2  0  0  0  0
  8 10  1  0  0  0  0
 10 11  1  0  0  0  0
 10 37  1  0  0  0  0
 11 18  1  0  0  0  0
 11 12  2  0  0  0  0
 12 13  1  0  0  0  0
 12 38  1  0  0  0  0
 13 24  1  0  0  0  0
 13 14  1  0  0  0  0
 14 15  2  0  0  0  0
 14 16  1  0  0  0  0
 16 17  1  0  0  0  0
 16 18  2  0  0  0  0
 17 39  1  0  0  0  0
 17 40  1  0  0  0  0
 17 41  1  0  0  0  0
 18 42  1  0  0  0  0
 19 20  1  0  0  0  0
 19 21  1  0  0  0  0
 19 43  1  0  0  0  0
 20 44  1  0  0  0  0
 20 45  1  0  0  0  0
 20 46  1  0  0  0  0
 21 22  1  0  0  0  0
 21 47  1  0  0  0  0
 22 23  1  0  0  0  0
 23 48  1  0  0  0  0
 23 49  1  0  0  0  0
 23 50  1  0  0  0  0
M  END
> <s_m_source_file>
AV-unprocessed.smi

> <i_m_source_file_index>
2424

> <i_lp_mmshare_version>
43012

> <i_f3d_flags>
0

> <s_epik_input>
W0NIM11PW0NAQEhdMVtDQEhdKFtDSDNdKVtDQEBIXShDMShbQ0gyXVtDSDNdKVtDSDJdW0NIM10pW05IXUMoPU8pW05IXWMyW2NIXVtuSF1jKD1PKWMoW0NIM10pW2NIXTI=

> <s_epik_cmdline>
J2VwaWtfcHl0aG9uJywgJy1waCcsICc3LjAnLCAnLXRuJywgJzgnLCAnLW1hJywgJzIwMCcsICctbWV0YWxfYmluZGluZycsICctaW1hZScsICc8aW5maWxlLm1hZT4nLCAnLW9tYWUnLCAnPG91dGZpbGUubWFlPic=

> <r_lp_tautomer_probability>
1

> <r_epik_Ionization_Penalty>
4.7326e-05

> <r_epik_Ionization_Penalty_Charging>
2.70169e-05

> <r_epik_Ionization_Penalty_Neutral>
2.0309e-05

> <r_epik_State_Penalty>
-0

> <r_epik_Charging_Adjusted_Penalty>
2.70169e-05

> <i_epik_Tot_Q>
0

> <i_epik_Tot_abs_Q>
0

> <r_epik_Metal_State_Penalty>
0.0198736

> <b_epik_Metal_Only>
0

> <s_lp_Force_Field>
OPLS_2005

> <r_lp_Energy>
35.9396

> <b_lp_Chiralities_Consistent>
1

> <s_lp_Variant>
AV-unprocessed.smi:2424-3

> <Gold.Version>
5.8.1

> <Gold.Id.Protein>
6NUR|6NUR_protein|mol2

> <Gold.PLP.Fitness>
47.9200

> <Gold.PLP.PLP>
-34.7527

> <Gold.PLP.part.hbond>
-4.0000

> <Gold.PLP.part.metal>
0.0000

> <Gold.PLP.part.buried>
-4.0506

> <Gold.PLP.part.nonpolar>
-28.2701

> <Gold.PLP.part.repulsive>
0.6088

> <Gold.PLP.ligand.clash>
0.0000

> <Gold.PLP.ligand.torsion>
1.0112

> <Gold.PLP.Chemscore.Hbond>
3.8640

> <Gold.PLP.Chemscore.CHOScore>
1.0000

> <Gold.PLP.Chemscore.Metal>
0.0000

> <Gold.Chemscore.Hbonds>
donor molecule, donor type, donor heavy atom, donor atom, acceptor molecule, acceptor atom, score
      L1  H     7    36       P1  7948  0.96
      L1  H    10    37       P1  7948  1.00
      L1  H    13    24       P1 10186  1.00
      P1  H 10785 10796       L1    15  0.94
      L1  C    12    38       P1 10171  1.00

> <Gold.PLP.Chemscore.Internal.Correction>
0.5977

> <Gold.Rescore>
     Score         DG    S(hbond)    S(metal)    S(lipo)     H(rot)  DE(clash)    DE(int)     intcor
     21.60     -23.20       3.90        0.00      73.95       1.55       0.65       0.95       ----

> <Gold.Chemscore.Fitness>
21.6033

> <Gold.Chemscore.DG>
-23.2046

> <Gold.Chemscore.ZeroCoef>
-5.4800

> <Gold.Chemscore.Hbond>
3.9044

> <Gold.Chemscore.Metal>
0.0000

> <Gold.Chemscore.Lipo>
73.9533

> <Gold.Chemscore.Internal_Hbond>
0.0000

> <Gold.Chemscore.DEClash>
0.6512

> <Gold.Chemscore.DEInternal>
0.9501

> <Gold.Chemscore.Rot>
1.5502

> <Gold.Chemscore.Internal.Correction>
   9.000000E+99

> <Gold.Chemscore.Hbonds>
donor molecule, donor type, donor heavy atom, donor atom, acceptor molecule, acceptor atom, score
      L1  H     7    36       P1  7948  0.92
      L1  H    10    37       P1  7948  0.99
      L1  H    13    24       P1 10186  0.96
      P1  H 10785 10796       L1    15  0.87

> <Gold.Chemscore.Hbond.Weighted>
-13.0406

> <Gold.Chemscore.Metal.Weighted>
-0.0000

> <Gold.Chemscore.Lipo.Weighted>
-8.6525

> <Gold.Chemscore.Internal_Hbond.Weighted>
0.0000

> <Gold.Chemscore.DEClash.Weighted>
0.6512

> <Gold.Chemscore.DEInternal.Weighted>
0.9501

> <Gold.Chemscore.Rot.Weighted>
3.9685

> <Gold.Chemscore.Internal.Correction.Weighted>
   9.000000E+99

> <Gold.Protein.RotatedTorsions>
[ 6907 6896 6895 6894 ] final   65.16 input  -60.11 | X-H torsion
[ 7974 7965 7964 7962 ] final   41.30 input  175.53 | X-H torsion
[ 8008 7997 7996 7995 ] final  -93.90 input   59.86 | X-H torsion
[ 10167 10162 10161 10158 ] final   77.59 input  -65.29 | X-H torsion
[ 10718 10713 10712 10709 ] final   22.26 input   66.30 | X-H torsion
[ 10763 10752 10751 10750 ] final  129.22 input  -60.55 | X-H torsion
[ 11005 11000 10999 10996 ] final -132.98 input  -57.11 | X-H torsion

> <Gold.Protein.ActiveResidues>
 VAL166  LYS551  ARG553  GLY616  TRP617  ASP618  TYR619  PRO620  LYS621  CYS622 
 ASP623  PHE694  ASN695  SER759  ASP760  ASP761  ALA762  ILE779  LEU786  VAL792 
 PHE793  MET794  SER795  GLU796  ALA797  LYS798  CYS799  TRP800  GLU811  SER814 

> <Gold.Protein.RotatedAtoms>
  152.4387  134.5635  159.9900 H   0  0  0  0  0  0  0  0  0  0  0  0  # atno 6907 bound_to 6896
  151.5738  133.3380  159.3003 H   0  0  0  0  0  0  0  0  0  0  0  0  # atno 6908 bound_to 6896
  150.8289  134.7567  159.6901 H   0  0  0  0  0  0  0  0  0  0  0  0  # atno 6909 bound_to 6896
  146.0834  139.5432  142.9522 H   0  0  0  0  0  0  0  0  0  0  0  0  # atno 7974 bound_to 7965
  154.7416  140.0494  157.0815 H   0  0  0  0  0  0  0  0  0  0  0  0  # atno 8008 bound_to 7997
  155.0172  140.3143  155.4788 H   0  0  0  0  0  0  0  0  0  0  0  0  # atno 8009 bound_to 7997
  156.2865  140.2173  156.5288 H   0  0  0  0  0  0  0  0  0  0  0  0  # atno 8010 bound_to 7997
  139.9800  144.5833  150.7909 H   0  0  0  0  0  0  0  0  0  0  0  0  # atno 10167 bound_to 10162
  157.1498  130.6669  149.6008 H   0  0  0  0  0  0  0  0  0  0  0  0  # atno 10718 bound_to 10713
  153.7383  135.3228  155.3299 H   0  0  0  0  0  0  0  0  0  0  0  0  # atno 10763 bound_to 10752
  154.8303  135.4538  154.1052 H   0  0  0  0  0  0  0  0  0  0  0  0  # atno 10764 bound_to 10752
  153.2219  135.6949  153.8071 H   0  0  0  0  0  0  0  0  0  0  0  0  # atno 10765 bound_to 10752
  140.9121  134.1554  157.4381 H   0  0  0  0  0  0  0  0  0  0  0  0  # atno 11005 bound_to 11000
  145.6174  141.0329  143.1933 LP  0  0  0  0  0  0  0  0  0  0  0  0  # atno 17320 bound_to 7965
  144.7309  139.7729  143.7347 LP  0  0  0  0  0  0  0  0  0  0  0  0  # atno 17321 bound_to 7965
  140.7492  143.2935  151.3266 LP  0  0  0  0  0  0  0  0  0  0  0  0  # atno 17342 bound_to 10162
  139.6417  144.0527  152.2559 LP  0  0  0  0  0  0  0  0  0  0  0  0  # atno 17343 bound_to 10162
  155.9772  130.4748  150.6581 LP  0  0  0  0  0  0  0  0  0  0  0  0  # atno 17370 bound_to 10713
  157.4231  131.0839  151.1112 LP  0  0  0  0  0  0  0  0  0  0  0  0  # atno 17371 bound_to 10713
  139.8759  134.9940  156.5671 LP  0  0  0  0  0  0  0  0  0  0  0  0  # atno 17394 bound_to 11000
  140.8096  133.8439  155.8798 LP  0  0  0  0  0  0  0  0  0  0  0  0  # atno 17395 bound_to 11000

$$$$
