AV-unprocessed.smi:1701|AV-procd|sdf|6833|dock8
  -GOLD-   22720 8 13D 1   1.00000     0.00000
 Structure written by MMmdl.
 54 56  0  0  0  0  0  0  0  0  2 V2000
  152.4277  141.9696  159.1788 C   0  0  0  0  0  0  0  0  0  0  0  0
  151.9992  140.7022  158.4228 C   0  0  0  0  0  0  0  0  0  0  0  0
  151.4376  140.9870  157.1030 N   0  0  0  0  0  0  0  0  0  0  0  0
  150.7455  142.2665  156.9339 C   0  0  0  0  0  0  0  0  0  0  0  0
  149.4719  142.3796  157.7871 C   0  0  0  0  0  0  0  0  0  0  0  0
  150.9323  139.8536  156.4300 C   0  0  0  0  0  0  0  0  0  0  0  0
  150.5140  138.7254  157.1711 C   0  0  0  0  0  0  0  0  0  0  0  0
  149.9986  137.6101  156.4858 C   0  0  0  0  0  0  0  0  0  0  0  0
  149.9118  137.6423  155.0805 C   0  0  0  0  0  0  0  0  0  0  0  0
  149.3672  136.5023  154.4296 N   0  0  0  0  0  0  0  0  0  0  0  0
  148.8195  135.3921  154.9622 C   0  0  0  0  0  0  0  0  0  0  0  0
  148.6301  135.2055  156.1612 O   0  0  0  0  0  0  0  0  0  0  0  0
  148.4766  134.4585  154.0555 N   0  0  0  0  0  0  0  0  0  0  0  0
  147.8640  133.1454  154.2804 C   0  0  2  0  0  0  0  0  0  0  0  0
  148.8991  132.0041  154.3000 C   0  0  0  0  0  0  0  0  0  0  0  0
  148.2261  130.8550  153.5433 C   0  0  0  0  0  0  0  0  0  0  0  0
  147.4168  131.5544  152.5392 N   0  3  1  0  0  0  0  0  0  0  0  0
  146.4249  130.7792  151.7669 C   0  0  0  0  0  0  0  0  0  0  0  0
  145.8523  131.6891  150.6590 C   0  0  0  0  0  0  0  0  0  0  0  0
  145.3224  133.0291  151.2179 C   0  0  0  0  0  0  0  0  0  0  0  0
  146.3603  133.7254  152.1246 C   0  0  0  0  0  0  0  0  0  0  0  0
  146.8309  132.7320  153.2029 C   0  0  2  0  0  0  0  0  0  0  0  0
  150.3459  138.8197  154.4248 C   0  0  0  0  0  0  0  0  0  0  0  0
  150.8418  139.8912  155.0787 N   0  0  0  0  0  0  0  0  0  0  0  0
  152.8482  141.7132  160.1510 H   0  0  0  0  0  0  0  0  0  0  0  0
  151.5826  142.6365  159.3516 H   0  0  0  0  0  0  0  0  0  0  0  0
  153.1865  142.5256  158.6276 H   0  0  0  0  0  0  0  0  0  0  0  0
  152.8628  140.0486  158.2962 H   0  0  0  0  0  0  0  0  0  0  0  0
  151.2901  140.1372  159.0275 H   0  0  0  0  0  0  0  0  0  0  0  0
  151.4244  143.0890  157.1616 H   0  0  0  0  0  0  0  0  0  0  0  0
  150.4738  142.3819  155.8842 H   0  0  0  0  0  0  0  0  0  0  0  0
  148.9649  143.3249  157.5942 H   0  0  0  0  0  0  0  0  0  0  0  0
  149.6873  142.3377  158.8545 H   0  0  0  0  0  0  0  0  0  0  0  0
  148.7724  141.5761  157.5553 H   0  0  0  0  0  0  0  0  0  0  0  0
  150.5927  138.7044  158.2482 H   0  0  0  0  0  0  0  0  0  0  0  0
  149.6749  136.7395  157.0378 H   0  0  0  0  0  0  0  0  0  0  0  0
  149.3919  136.5367  153.4214 H   0  0  0  0  0  0  0  0  0  0  0  0
  148.6897  134.6804  153.0935 H   0  0  0  0  0  0  0  0  0  0  0  0
  147.3673  133.1417  155.2525 H   0  0  0  0  0  0  0  0  0  0  0  0
  149.8031  132.3028  153.7663 H   0  0  0  0  0  0  0  0  0  0  0  0
  149.1939  131.7203  155.3110 H   0  0  0  0  0  0  0  0  0  0  0  0
  148.9447  130.1735  153.0868 H   0  0  0  0  0  0  0  0  0  0  0  0
  147.5775  130.2829  154.2087 H   0  0  0  0  0  0  0  0  0  0  0  0
  146.9030  129.9040  151.3259 H   0  0  0  0  0  0  0  0  0  0  0  0
  145.6323  130.4197  152.4252 H   0  0  0  0  0  0  0  0  0  0  0  0
  146.6346  131.8954  149.9272 H   0  0  0  0  0  0  0  0  0  0  0  0
  145.0596  131.1691  150.1200 H   0  0  0  0  0  0  0  0  0  0  0  0
  145.0377  133.6902  150.3987 H   0  0  0  0  0  0  0  0  0  0  0  0
  144.4132  132.8424  151.7911 H   0  0  0  0  0  0  0  0  0  0  0  0
  147.2065  134.0708  151.5290 H   0  0  0  0  0  0  0  0  0  0  0  0
  145.9102  134.6070  152.5807 H   0  0  0  0  0  0  0  0  0  0  0  0
  145.9467  132.3931  153.7474 H   0  0  0  0  0  0  0  0  0  0  0  0
  150.2893  138.9408  153.3553 H   0  0  0  0  0  0  0  0  0  0  0  0
  148.0797  131.9167  151.8688 H   0  0  0  0  0  0  0  0  0  0  0  0
  1  2  1  0  0  0  0
  1 25  1  0  0  0  0
  1 26  1  0  0  0  0
  1 27  1  0  0  0  0
  2  3  1  0  0  0  0
  2 28  1  0  0  0  0
  2 29  1  0  0  0  0
  3  4  1  0  0  0  0
  3  6  1  0  0  0  0
  4  5  1  0  0  0  0
  4 30  1  0  0  0  0
  4 31  1  0  0  0  0
  5 32  1  0  0  0  0
  5 33  1  0  0  0  0
  5 34  1  0  0  0  0
  6 24  1  0  0  0  0
  6  7  2  0  0  0  0
  7  8  1  0  0  0  0
  7 35  1  0  0  0  0
  8  9  2  0  0  0  0
  8 36  1  0  0  0  0
  9 10  1  0  0  0  0
  9 23  1  0  0  0  0
 10 11  1  0  0  0  0
 10 37  1  0  0  0  0
 11 12  2  0  0  0  0
 11 13  1  0  0  0  0
 13 14  1  0  0  0  0
 13 38  1  0  0  0  0
 14 22  1  0  0  0  0
 14 15  1  0  0  0  0
 14 39  1  0  0  0  0
 15 16  1  0  0  0  0
 15 40  1  0  0  0  0
 15 41  1  0  0  0  0
 16 17  1  0  0  0  0
 16 42  1  0  0  0  0
 16 43  1  0  0  0  0
 17 22  1  0  0  0  0
 17 18  1  0  0  0  0
 17 54  1  0  0  0  0
 18 19  1  0  0  0  0
 18 44  1  0  0  0  0
 18 45  1  0  0  0  0
 19 20  1  0  0  0  0
 19 46  1  0  0  0  0
 19 47  1  0  0  0  0
 20 21  1  0  0  0  0
 20 48  1  0  0  0  0
 20 49  1  0  0  0  0
 21 22  1  0  0  0  0
 21 50  1  0  0  0  0
 21 51  1  0  0  0  0
 22 52  1  0  0  0  0
 23 24  2  0  0  0  0
 23 53  1  0  0  0  0
M  CHG  1  17   1
M  END
> <s_m_source_file>
AV-unprocessed.smi

> <i_m_source_file_index>
1701

> <i_lp_mmshare_version>
43012

> <i_f3d_flags>
0

> <s_epik_input>
W0NIM11bQ0gyXU4oW0NIMl1bQ0gzXSljMVtjSF1bY0hdYyhbY0hdbjEpW05IXUMoPU8pW05IXVtDQEhdKFtDSDJdW0NIMl0yKVtDQEBIXShOMjMpW0NIMl1bQ0gyXVtDSDJdW0NIMl0z

> <s_epik_cmdline>
J2VwaWtfcHl0aG9uJywgJy1waCcsICc3LjAnLCAnLXRuJywgJzgnLCAnLW1hJywgJzIwMCcsICctbWV0YWxfYmluZGluZycsICctaW1hZScsICc8aW5maWxlLm1hZT4nLCAnLW9tYWUnLCAnPG91dGZpbGUubWFlPic=

> <r_lp_tautomer_probability>
1

> <r_epik_Ionization_Penalty>
0.56662

> <r_epik_Ionization_Penalty_Charging>
0.000974069

> <r_epik_Ionization_Penalty_Neutral>
0.565646

> <r_epik_State_Penalty>
2.0247

> <r_epik_Charging_Adjusted_Penalty>
2.02568

> <i_epik_Tot_Q>
1

> <i_epik_Tot_abs_Q>
1

> <r_epik_Metal_State_Penalty>
1.51504

> <b_epik_Metal_Only>
0

> <s_lp_Force_Field>
OPLS_2005

> <r_lp_Energy>
60.4427

> <b_lp_Chiralities_Consistent>
1

> <s_lp_Variant>
AV-unprocessed.smi:1701-13

> <Gold.Version>
5.8.1

> <Gold.Id.Protein>
6NUR|6NUR_protein|mol2

> <Gold.PLP.Fitness>
47.4585

> <Gold.PLP.PLP>
-35.6975

> <Gold.PLP.part.hbond>
-4.0000

> <Gold.PLP.part.metal>
0.0000

> <Gold.PLP.part.buried>
-3.7747

> <Gold.PLP.part.nonpolar>
-27.7512

> <Gold.PLP.part.repulsive>
0.1001

> <Gold.PLP.ligand.clash>
0.0000

> <Gold.PLP.ligand.torsion>
0.9523

> <Gold.PLP.Chemscore.Hbond>
3.2713

> <Gold.PLP.Chemscore.CHOScore>
1.0000

> <Gold.PLP.Chemscore.Metal>
0.0000

> <Gold.Chemscore.Hbonds>
donor molecule, donor type, donor heavy atom, donor atom, acceptor molecule, acceptor atom, score
      L1  H    10    37       P1  7948  1.00
      L1  H    13    38       P1  7948  0.86
      L1  H    17    54       P1 10747  0.44
      P1  H  7989  7998       L1    24  0.95
      L1  C    23    53       P1  7957  0.99

> <Gold.PLP.Chemscore.Internal.Correction>
0.8517

> <Gold.Rescore>
     Score         DG    S(hbond)    S(metal)    S(lipo)     H(rot)  DE(clash)    DE(int)     intcor
     17.96     -20.40       2.19        0.00      96.67       1.44       0.03       2.42       ----

> <Gold.Chemscore.Fitness>
17.9605

> <Gold.Chemscore.DG>
-20.4041

> <Gold.Chemscore.ZeroCoef>
-5.4800

> <Gold.Chemscore.Hbond>
2.1859

> <Gold.Chemscore.Metal>
0.0000

> <Gold.Chemscore.Lipo>
96.6730

> <Gold.Chemscore.Internal_Hbond>
0.0000

> <Gold.Chemscore.DEClash>
0.0251

> <Gold.Chemscore.DEInternal>
2.4185

> <Gold.Chemscore.Rot>
1.4404

> <Gold.Chemscore.Internal.Correction>
   9.000000E+99

> <Gold.Chemscore.Hbonds>
donor molecule, donor type, donor heavy atom, donor atom, acceptor molecule, acceptor atom, score
      L1  H    10    37       P1  7948  0.81
      L1  H    13    38       P1  7948  0.21
      L1  H    17    54       P1 10747  0.43
      P1  H  7989  7998       L1    24  0.20

> <Gold.Chemscore.Hbond.Weighted>
-7.3009

> <Gold.Chemscore.Metal.Weighted>
-0.0000

> <Gold.Chemscore.Lipo.Weighted>
-11.3107

> <Gold.Chemscore.Internal_Hbond.Weighted>
0.0000

> <Gold.Chemscore.DEClash.Weighted>
0.0251

> <Gold.Chemscore.DEInternal.Weighted>
2.4185

> <Gold.Chemscore.Rot.Weighted>
3.6875

> <Gold.Chemscore.Internal.Correction.Weighted>
   9.000000E+99

> <Gold.Protein.RotatedTorsions>
[ 6907 6896 6895 6894 ] final  130.04 input  -60.11 | X-H torsion
[ 7974 7965 7964 7962 ] final  -40.40 input  175.53 | X-H torsion
[ 8008 7997 7996 7995 ] final   99.71 input   59.86 | X-H torsion
[ 10167 10162 10161 10158 ] final  -56.01 input  -65.29 | X-H torsion
[ 10718 10713 10712 10709 ] final -170.55 input   66.30 | X-H torsion
[ 10763 10752 10751 10750 ] final   51.31 input  -60.55 | X-H torsion
[ 11005 11000 10999 10996 ] final  -46.29 input  -57.11 | X-H torsion

> <Gold.Protein.ActiveResidues>
 VAL166  LYS551  ARG553  GLY616  TRP617  ASP618  TYR619  PRO620  LYS621  CYS622 
 ASP623  PHE694  ASN695  SER759  ASP760  ASP761  ALA762  ILE779  LEU786  VAL792 
 PHE793  MET794  SER795  GLU796  ALA797  LYS798  CYS799  TRP800  GLU811  SER814 

> <Gold.Protein.RotatedAtoms>
  152.3565  133.6244  159.5983 H   0  0  0  0  0  0  0  0  0  0  0  0  # atno 6907 bound_to 6896
  150.7572  133.9491  159.3489 H   0  0  0  0  0  0  0  0  0  0  0  0  # atno 6908 bound_to 6896
  151.7335  135.0870  160.0355 H   0  0  0  0  0  0  0  0  0  0  0  0  # atno 6909 bound_to 6896
  146.0307  140.6734  142.9134 H   0  0  0  0  0  0  0  0  0  0  0  0  # atno 7974 bound_to 7965
  156.1131  140.3224  155.8101 H   0  0  0  0  0  0  0  0  0  0  0  0  # atno 8008 bound_to 7997
  155.4637  140.0541  157.3005 H   0  0  0  0  0  0  0  0  0  0  0  0  # atno 8009 bound_to 7997
  154.4774  140.2038  155.9859 H   0  0  0  0  0  0  0  0  0  0  0  0  # atno 8010 bound_to 7997
  140.6342  143.2474  151.5162 H   0  0  0  0  0  0  0  0  0  0  0  0  # atno 10167 bound_to 10162
  156.7279  130.9295  151.3102 H   0  0  0  0  0  0  0  0  0  0  0  0  # atno 10718 bound_to 10713
  152.9785  135.5850  154.4394 H   0  0  0  0  0  0  0  0  0  0  0  0  # atno 10763 bound_to 10752
  154.3997  135.2768  155.2106 H   0  0  0  0  0  0  0  0  0  0  0  0  # atno 10764 bound_to 10752
  154.3942  135.6118  153.5914 H   0  0  0  0  0  0  0  0  0  0  0  0  # atno 10765 bound_to 10752
  141.0570  133.6722  156.3134 H   0  0  0  0  0  0  0  0  0  0  0  0  # atno 11005 bound_to 11000
  144.7029  140.3731  143.7141 LP  0  0  0  0  0  0  0  0  0  0  0  0  # atno 17320 bound_to 7965
  145.7044  139.1669  143.2574 LP  0  0  0  0  0  0  0  0  0  0  0  0  # atno 17321 bound_to 7965
  139.5554  144.2290  152.1602 LP  0  0  0  0  0  0  0  0  0  0  0  0  # atno 17342 bound_to 10162
  140.1542  144.5086  150.6670 LP  0  0  0  0  0  0  0  0  0  0  0  0  # atno 17343 bound_to 10162
  157.6871  130.9196  150.0415 LP  0  0  0  0  0  0  0  0  0  0  0  0  # atno 17370 bound_to 10713
  156.1549  130.3643  149.9383 LP  0  0  0  0  0  0  0  0  0  0  0  0  # atno 17371 bound_to 10713
  140.5945  134.5617  157.5506 LP  0  0  0  0  0  0  0  0  0  0  0  0  # atno 17394 bound_to 11000
  139.9398  134.7807  156.0707 LP  0  0  0  0  0  0  0  0  0  0  0  0  # atno 17395 bound_to 11000

$$$$
