AV-unprocessed.smi:196|AV-procd|sdf|1539|dock6
  -GOLD-   2262019393D 1   1.00000     0.00000
 Structure written by MMmdl.
 47 50  0  0  0  0  0  0  0  0  1 V2000
  151.1116  137.8647  154.0954 C   0  0  0  0  0  0  0  0  0  0  0  0
  151.4700  138.8770  155.1947 C   0  0  1  0  0  0  0  0  0  0  0  0
  150.8955  140.1301  154.8330 O   0  0  0  0  0  0  0  0  0  0  0  0
  150.5868  140.8502  156.0128 C   0  0  0  0  0  0  0  0  0  0  0  0
  150.0399  139.7630  156.9250 C   0  0  0  0  0  0  0  0  0  0  0  0
  150.9491  138.5726  156.6280 C   0  0  2  0  0  0  0  0  0  0  0  0
  152.0555  138.6445  157.5114 O   0  0  0  0  0  0  0  0  0  0  0  0
  150.2589  137.1980  156.8330 C   0  0  0  0  0  0  0  0  0  0  0  0
  149.5572  137.0868  158.1027 N   0  0  0  0  0  0  0  0  0  0  0  0
  150.0675  137.3549  159.3534 C   0  0  0  0  0  0  0  0  0  0  0  0
  149.2394  137.1704  160.3453 N   0  0  0  0  0  0  0  0  0  0  0  0
  148.0653  136.7557  159.7298 C   0  0  0  0  0  0  0  0  0  0  0  0
  146.7790  136.3909  160.2087 C   0  0  0  0  0  0  0  0  0  0  0  0
  146.5037  136.3760  161.5408 N   0  0  0  0  0  0  0  0  0  0  0  0
  147.4728  135.5659  162.2706 C   0  0  0  0  0  0  0  0  0  0  0  0
  146.8088  134.1980  162.4961 C   0  0  2  0  0  0  0  0  0  0  0  0
  147.3133  133.2828  161.6678 F   0  0  0  0  0  0  0  0  0  0  0  0
  145.3201  134.4201  162.1969 C   0  0  0  0  0  0  0  0  0  0  0  0
  145.1968  135.9474  162.0602 C   0  0  2  0  0  0  0  0  0  0  0  0
  143.9362  136.4557  161.3285 C   0  0  0  0  0  0  0  0  0  0  0  0
  143.0566  135.5354  160.9255 N   0  0  0  0  0  0  0  0  0  0  0  0
  143.7301  137.6574  161.1667 O   0  0  0  0  0  0  0  0  0  0  0  0
  145.8499  136.0142  159.2893 N   0  0  0  0  0  0  0  0  0  0  0  0
  146.1522  136.0173  157.9877 C   0  0  0  0  0  0  0  0  0  0  0  0
  147.3052  136.3421  157.3993 N   0  0  0  0  0  0  0  0  0  0  0  0
  148.2449  136.7035  158.3193 C   0  0  0  0  0  0  0  0  0  0  0  0
  146.9763  133.8401  163.5123 H   0  0  0  0  0  0  0  0  0  0  0  0
  145.1294  136.3685  163.0652 H   0  0  0  0  0  0  0  0  0  0  0  0
  151.5306  136.8809  154.3071 H   0  0  0  0  0  0  0  0  0  0  0  0
  151.5105  138.1873  153.1336 H   0  0  0  0  0  0  0  0  0  0  0  0
  150.0324  137.7607  153.9816 H   0  0  0  0  0  0  0  0  0  0  0  0
  152.5543  139.0031  155.2038 H   0  0  0  0  0  0  0  0  0  0  0  0
  151.4943  141.2934  156.4256 H   0  0  0  0  0  0  0  0  0  0  0  0
  149.8660  141.6457  155.8233 H   0  0  0  0  0  0  0  0  0  0  0  0
  150.0200  140.0534  157.9765 H   0  0  0  0  0  0  0  0  0  0  0  0
  149.0161  139.5376  156.6236 H   0  0  0  0  0  0  0  0  0  0  0  0
  152.8277  138.8568  157.0096 H   0  0  0  0  0  0  0  0  0  0  0  0
  149.5320  137.0142  156.0416 H   0  0  0  0  0  0  0  0  0  0  0  0
  150.9903  136.3908  156.7749 H   0  0  0  0  0  0  0  0  0  0  0  0
  151.0832  137.6879  159.5092 H   0  0  0  0  0  0  0  0  0  0  0  0
  148.4375  135.4721  161.7670 H   0  0  0  0  0  0  0  0  0  0  0  0
  147.6653  136.0533  163.2274 H   0  0  0  0  0  0  0  0  0  0  0  0
  145.0350  133.9172  161.2715 H   0  0  0  0  0  0  0  0  0  0  0  0
  144.6846  134.0287  162.9918 H   0  0  0  0  0  0  0  0  0  0  0  0
  142.2144  135.8183  160.4462 H   0  0  0  0  0  0  0  0  0  0  0  0
  143.2368  134.5585  161.1065 H   0  0  0  0  0  0  0  0  0  0  0  0
  145.3573  135.7137  157.3228 H   0  0  0  0  0  0  0  0  0  0  0  0
  1  2  1  0  0  0  0
  1 29  1  0  0  0  0
  1 30  1  0  0  0  0
  1 31  1  0  0  0  0
  2  6  1  0  0  0  0
  2  3  1  0  0  0  0
  2 32  1  0  0  0  0
  3  4  1  0  0  0  0
  4  5  1  0  0  0  0
  4 33  1  0  0  0  0
  4 34  1  0  0  0  0
  5  6  1  0  0  0  0
  5 35  1  0  0  0  0
  5 36  1  0  0  0  0
  6  7  1  0  0  0  0
  6  8  1  0  0  0  0
  7 37  1  0  0  0  0
  8  9  1  0  0  0  0
  8 38  1  0  0  0  0
  8 39  1  0  0  0  0
  9 26  1  0  0  0  0
  9 10  1  0  0  0  0
 10 11  2  0  0  0  0
 10 40  1  0  0  0  0
 11 12  1  0  0  0  0
 12 26  2  0  0  0  0
 12 13  1  0  0  0  0
 13 14  1  0  0  0  0
 13 23  2  0  0  0  0
 14 19  1  0  0  0  0
 14 15  1  0  0  0  0
 15 16  1  0  0  0  0
 15 41  1  0  0  0  0
 15 42  1  0  0  0  0
 16 27  1  0  0  0  0
 16 17  1  0  0  0  0
 16 18  1  0  0  0  0
 18 19  1  0  0  0  0
 18 43  1  0  0  0  0
 18 44  1  0  0  0  0
 19 28  1  0  0  0  0
 19 20  1  0  0  0  0
 20 21  1  0  0  0  0
 20 22  2  0  0  0  0
 21 45  1  0  0  0  0
 21 46  1  0  0  0  0
 23 24  1  0  0  0  0
 24 25  2  0  0  0  0
 24 47  1  0  0  0  0
 25 26  1  0  0  0  0
M  END
> <s_m_source_file>
AV-unprocessed.smi

> <i_m_source_file_index>
196

> <i_lp_mmshare_version>
43012

> <i_f3d_flags>
0

> <s_epik_input>
W0NIMl0xW0NIMl1PW0NAQEhdKFtDSDNdKVtDQEBdMShbT0hdKVtDSDJdbihbY0hdbjIpYyhjMjMpbltjSF1uYzNONFtDSDJdW0NASF0oRilbQ0gyXVtDQEhdNEMoPU8pW05IMl0=

> <s_epik_cmdline>
J2VwaWtfcHl0aG9uJywgJy1waCcsICc3LjAnLCAnLXRuJywgJzgnLCAnLW1hJywgJzIwMCcsICctbWV0YWxfYmluZGluZycsICctaW1hZScsICc8aW5maWxlLm1hZT4nLCAnLW9tYWUnLCAnPG91dGZpbGUubWFlPic=

> <r_lp_tautomer_probability>
1

> <r_epik_Ionization_Penalty>
0.000857933

> <r_epik_Ionization_Penalty_Charging>
0

> <r_epik_Ionization_Penalty_Neutral>
0.000857933

> <r_epik_State_Penalty>
0.000462053

> <r_epik_Charging_Adjusted_Penalty>
0.000462053

> <i_epik_Tot_Q>
0

> <i_epik_Tot_abs_Q>
0

> <r_epik_Metal_State_Penalty>
-0

> <b_epik_Metal_Only>
0

> <s_lp_Force_Field>
OPLS_2005

> <r_lp_Energy>
50.8061

> <b_lp_Chiralities_Consistent>
1

> <s_lp_Variant>
AV-unprocessed.smi:196-12

> <Gold.Version>
5.8.1

> <Gold.Id.Protein>
6NUR|6NUR_protein|mol2

> <Gold.PLP.Fitness>
41.0840

> <Gold.PLP.PLP>
-36.9376

> <Gold.PLP.part.hbond>
-2.9378

> <Gold.PLP.part.metal>
0.0000

> <Gold.PLP.part.buried>
-7.3037

> <Gold.PLP.part.nonpolar>
-28.5555

> <Gold.PLP.part.repulsive>
0.0698

> <Gold.PLP.ligand.clash>
0.0000

> <Gold.PLP.ligand.torsion>
0.2259

> <Gold.PLP.Chemscore.Hbond>
1.5120

> <Gold.PLP.Chemscore.CHOScore>
0.0000

> <Gold.PLP.Chemscore.Metal>
0.0000

> <Gold.Chemscore.Hbonds>
donor molecule, donor type, donor heavy atom, donor atom, acceptor molecule, acceptor atom, score
      P1  H  6931  6943       L1    11  0.51
      P1  H  7989  7998       L1     3  1.00

> <Gold.PLP.Chemscore.Internal.Correction>
0.0621

> <Gold.Rescore>
     Score         DG    S(hbond)    S(metal)    S(lipo)     H(rot)  DE(clash)    DE(int)     intcor
      8.09     -10.54       1.59        0.00      64.35       3.04       0.01       2.43       ----

> <Gold.Chemscore.Fitness>
8.0916

> <Gold.Chemscore.DG>
-10.5363

> <Gold.Chemscore.ZeroCoef>
-5.4800

> <Gold.Chemscore.Hbond>
1.5906

> <Gold.Chemscore.Metal>
0.0000

> <Gold.Chemscore.Lipo>
64.3530

> <Gold.Chemscore.Internal_Hbond>
0.0000

> <Gold.Chemscore.DEClash>
0.0149

> <Gold.Chemscore.DEInternal>
2.4298

> <Gold.Chemscore.Rot>
3.0413

> <Gold.Chemscore.Internal.Correction>
   9.000000E+99

> <Gold.Chemscore.Hbonds>
donor molecule, donor type, donor heavy atom, donor atom, acceptor molecule, acceptor atom, score
      P1  H  6931  6943       L1    11  0.47
      P1  H  7989  7998       L1     3  0.87

> <Gold.Chemscore.Hbond.Weighted>
-5.3126

> <Gold.Chemscore.Metal.Weighted>
-0.0000

> <Gold.Chemscore.Lipo.Weighted>
-7.5293

> <Gold.Chemscore.Internal_Hbond.Weighted>
0.0000

> <Gold.Chemscore.DEClash.Weighted>
0.0149

> <Gold.Chemscore.DEInternal.Weighted>
2.4298

> <Gold.Chemscore.Rot.Weighted>
7.7856

> <Gold.Chemscore.Internal.Correction.Weighted>
   9.000000E+99

> <Gold.Protein.RotatedTorsions>
[ 6907 6896 6895 6894 ] final   54.85 input  -60.11 | X-H torsion
[ 7974 7965 7964 7962 ] final  -41.56 input  175.53 | X-H torsion
[ 8008 7997 7996 7995 ] final   65.46 input   59.86 | X-H torsion
[ 10167 10162 10161 10158 ] final -175.51 input  -65.29 | X-H torsion
[ 10718 10713 10712 10709 ] final -163.25 input   66.30 | X-H torsion
[ 10763 10752 10751 10750 ] final  -81.17 input  -60.55 | X-H torsion
[ 11005 11000 10999 10996 ] final -155.69 input  -57.11 | X-H torsion

> <Gold.Protein.ActiveResidues>
 VAL166  LYS551  ARG553  GLY616  TRP617  ASP618  TYR619  PRO620  LYS621  CYS622 
 ASP623  PHE694  ASN695  SER759  ASP760  ASP761  ALA762  ILE779  LEU786  VAL792 
 PHE793  MET794  SER795  GLU796  ALA797  LYS798  CYS799  TRP800  GLU811  SER814 

> <Gold.Protein.RotatedAtoms>
  152.3480  134.7044  160.0244 H   0  0  0  0  0  0  0  0  0  0  0  0  # atno 6907 bound_to 6896
  151.7407  133.3316  159.3373 H   0  0  0  0  0  0  0  0  0  0  0  0  # atno 6908 bound_to 6896
  150.7522  134.6214  159.6182 H   0  0  0  0  0  0  0  0  0  0  0  0  # atno 6909 bound_to 6896
  146.0199  140.6862  142.9183 H   0  0  0  0  0  0  0  0  0  0  0  0  # atno 7974 bound_to 7965
  155.6621  140.3497  155.4786 H   0  0  0  0  0  0  0  0  0  0  0  0  # atno 8008 bound_to 7997
  155.9760  140.1165  157.0793 H   0  0  0  0  0  0  0  0  0  0  0  0  # atno 8009 bound_to 7997
  154.4179  140.1147  156.5357 H   0  0  0  0  0  0  0  0  0  0  0  0  # atno 8010 bound_to 7997
  139.5577  144.1947  152.1187 H   0  0  0  0  0  0  0  0  0  0  0  0  # atno 10167 bound_to 10162
  156.6220  130.8894  151.2959 H   0  0  0  0  0  0  0  0  0  0  0  0  # atno 10718 bound_to 10713
  154.5602  135.5635  153.7001 H   0  0  0  0  0  0  0  0  0  0  0  0  # atno 10763 bound_to 10752
  153.0016  135.6272  154.2254 H   0  0  0  0  0  0  0  0  0  0  0  0  # atno 10764 bound_to 10752
  154.2192  135.2870  155.2911 H   0  0  0  0  0  0  0  0  0  0  0  0  # atno 10765 bound_to 10752
  140.6837  134.4116  157.5225 H   0  0  0  0  0  0  0  0  0  0  0  0  # atno 11005 bound_to 11000
  144.6986  140.3547  143.7175 LP  0  0  0  0  0  0  0  0  0  0  0  0  # atno 17320 bound_to 7965
  145.7209  139.1709  143.2485 LP  0  0  0  0  0  0  0  0  0  0  0  0  # atno 17321 bound_to 7965
  140.1455  144.5163  150.6718 LP  0  0  0  0  0  0  0  0  0  0  0  0  # atno 17342 bound_to 10162
  140.6852  143.2346  151.5278 LP  0  0  0  0  0  0  0  0  0  0  0  0  # atno 17343 bound_to 10162
  157.7225  130.9577  150.1496 LP  0  0  0  0  0  0  0  0  0  0  0  0  # atno 17370 bound_to 10713
  156.2304  130.3681  149.8452 LP  0  0  0  0  0  0  0  0  0  0  0  0  # atno 17371 bound_to 10713
  139.8944  134.8708  156.2180 LP  0  0  0  0  0  0  0  0  0  0  0  0  # atno 17394 bound_to 11000
  141.0297  133.6995  156.1408 LP  0  0  0  0  0  0  0  0  0  0  0  0  # atno 17395 bound_to 11000

$$$$
