AV-unprocessed.smi:1721|AV-procd|sdf|6938|dock2
  -GOLD-   22720 8143D 1   1.00000     0.00000
 Structure written by MMmdl.
 44 46  0  0  0  0  0  0  0  0  2 V2000
  151.7412  138.2501  155.1452 C   0  0  0  0  0  0  0  0  0  0  0  0
  150.3923  138.1301  154.7065 O   0  0  0  0  0  0  0  0  0  0  0  0
  149.6148  139.2709  154.6475 C   0  0  0  0  0  0  0  0  0  0  0  0
  150.1600  140.4462  155.0504 N   0  0  0  0  0  0  0  0  0  0  0  0
  149.4021  141.5609  154.9905 C   0  0  0  0  0  0  0  0  0  0  0  0
  148.0738  141.5657  154.5260 C   0  0  0  0  0  0  0  0  0  0  0  0
  147.5059  140.3479  154.1090 C   0  0  0  0  0  0  0  0  0  0  0  0
  148.2846  139.1683  154.1788 C   0  0  0  0  0  0  0  0  0  0  0  0
  147.8072  137.8985  153.7567 N   0  0  0  0  0  0  0  0  0  0  0  0
  146.5675  137.4007  153.8945 C   0  0  0  0  0  0  0  0  0  0  0  0
  145.6327  137.9730  154.4546 O   0  0  0  0  0  0  0  0  0  0  0  0
  146.4761  136.1693  153.3723 N   0  0  0  0  0  0  0  0  0  0  0  0
  145.2765  135.3338  153.3912 C   0  0  1  0  0  0  0  0  0  0  0  0
  144.0432  136.0311  152.7859 C   0  0  0  0  0  0  0  0  0  0  0  0
  143.3359  134.9340  151.9832 C   0  0  0  0  0  0  0  0  0  0  0  0
  144.4526  134.1163  151.4964 N   0  3  2  0  0  0  0  0  0  0  0  0
  144.1564  132.8120  150.8706 C   0  0  0  0  0  0  0  0  0  0  0  0
  145.4660  132.2517  150.2749 C   0  0  0  0  0  0  0  0  0  0  0  0
  146.6142  132.2194  151.3096 C   0  0  0  0  0  0  0  0  0  0  0  0
  146.7827  133.5770  152.0264 C   0  0  0  0  0  0  0  0  0  0  0  0
  145.4224  134.0121  152.6003 C   0  0  1  0  0  0  0  0  0  0  0  0
  152.2108  137.2666  155.1415 H   0  0  0  0  0  0  0  0  0  0  0  0
  151.7954  138.6381  156.1637 H   0  0  0  0  0  0  0  0  0  0  0  0
  152.3208  138.8959  154.4839 H   0  0  0  0  0  0  0  0  0  0  0  0
  149.8707  142.4779  155.3162 H   0  0  0  0  0  0  0  0  0  0  0  0
  147.5062  142.4836  154.4848 H   0  0  0  0  0  0  0  0  0  0  0  0
  146.4954  140.3400  153.7296 H   0  0  0  0  0  0  0  0  0  0  0  0
  148.5064  137.2744  153.3812 H   0  0  0  0  0  0  0  0  0  0  0  0
  147.2981  135.7793  152.9346 H   0  0  0  0  0  0  0  0  0  0  0  0
  145.0362  135.0833  154.4266 H   0  0  0  0  0  0  0  0  0  0  0  0
  143.3970  136.4750  153.5436 H   0  0  0  0  0  0  0  0  0  0  0  0
  144.3528  136.8290  152.1087 H   0  0  0  0  0  0  0  0  0  0  0  0
  142.6943  134.3346  152.6315 H   0  0  0  0  0  0  0  0  0  0  0  0
  142.7324  135.3307  151.1663 H   0  0  0  0  0  0  0  0  0  0  0  0
  143.7379  132.1262  151.6088 H   0  0  0  0  0  0  0  0  0  0  0  0
  143.4102  132.9400  150.0858 H   0  0  0  0  0  0  0  0  0  0  0  0
  145.2962  131.2525  149.8729 H   0  0  0  0  0  0  0  0  0  0  0  0
  145.7675  132.8731  149.4306 H   0  0  0  0  0  0  0  0  0  0  0  0
  146.4064  131.4460  152.0503 H   0  0  0  0  0  0  0  0  0  0  0  0
  147.5478  131.9341  150.8240 H   0  0  0  0  0  0  0  0  0  0  0  0
  147.5229  133.4842  152.8216 H   0  0  0  0  0  0  0  0  0  0  0  0
  147.1579  134.3254  151.3268 H   0  0  0  0  0  0  0  0  0  0  0  0
  145.0752  133.2198  153.2669 H   0  0  0  0  0  0  0  0  0  0  0  0
  144.9017  134.6768  150.7863 H   0  0  0  0  0  0  0  0  0  0  0  0
  1  2  1  0  0  0  0
  1 22  1  0  0  0  0
  1 23  1  0  0  0  0
  1 24  1  0  0  0  0
  2  3  1  0  0  0  0
  3  8  1  0  0  0  0
  3  4  2  0  0  0  0
  4  5  1  0  0  0  0
  5  6  2  0  0  0  0
  5 25  1  0  0  0  0
  6  7  1  0  0  0  0
  6 26  1  0  0  0  0
  7  8  2  0  0  0  0
  7 27  1  0  0  0  0
  8  9  1  0  0  0  0
  9 10  1  0  0  0  0
  9 28  1  0  0  0  0
 10 11  2  0  0  0  0
 10 12  1  0  0  0  0
 12 13  1  0  0  0  0
 12 29  1  0  0  0  0
 13 21  1  0  0  0  0
 13 14  1  0  0  0  0
 13 30  1  0  0  0  0
 14 15  1  0  0  0  0
 14 31  1  0  0  0  0
 14 32  1  0  0  0  0
 15 16  1  0  0  0  0
 15 33  1  0  0  0  0
 15 34  1  0  0  0  0
 16 21  1  0  0  0  0
 16 17  1  0  0  0  0
 16 44  1  0  0  0  0
 17 18  1  0  0  0  0
 17 35  1  0  0  0  0
 17 36  1  0  0  0  0
 18 19  1  0  0  0  0
 18 37  1  0  0  0  0
 18 38  1  0  0  0  0
 19 20  1  0  0  0  0
 19 39  1  0  0  0  0
 19 40  1  0  0  0  0
 20 21  1  0  0  0  0
 20 41  1  0  0  0  0
 20 42  1  0  0  0  0
 21 43  1  0  0  0  0
M  CHG  1  16   1
M  END
> <s_m_source_file>
AV-unprocessed.smi

> <i_m_source_file_index>
1721

> <i_lp_mmshare_version>
43012

> <i_f3d_flags>
0

> <s_epik_input>
W0NIM11PYzFuW2NIXVtjSF1bY0hdYzFbTkhdQyg9TylbTkhdW0NASF0oW0NIMl1bQ0gyXTIpW0NAQEhdKE4yMylbQ0gyXVtDSDJdW0NIMl1bQ0gyXTM=

> <s_epik_cmdline>
J2VwaWtfcHl0aG9uJywgJy1waCcsICc3LjAnLCAnLXRuJywgJzgnLCAnLW1hJywgJzIwMCcsICctbWV0YWxfYmluZGluZycsICctaW1hZScsICc8aW5maWxlLm1hZT4nLCAnLW9tYWUnLCAnPG91dGZpbGUubWFlPic=

> <r_lp_tautomer_probability>
1

> <r_epik_Ionization_Penalty>
0.00104793

> <r_epik_Ionization_Penalty_Charging>
0.000974069

> <r_epik_Ionization_Penalty_Neutral>
7.38649e-05

> <r_epik_State_Penalty>
0.000633842

> <r_epik_Charging_Adjusted_Penalty>
0.00160791

> <i_epik_Tot_Q>
1

> <i_epik_Tot_abs_Q>
1

> <r_epik_Metal_State_Penalty>
-0

> <b_epik_Metal_Only>
0

> <s_lp_Force_Field>
OPLS_2005

> <r_lp_Energy>
43.8881

> <b_lp_Chiralities_Consistent>
1

> <s_lp_Variant>
AV-unprocessed.smi:1721-4

> <Gold.Version>
5.8.1

> <Gold.Id.Protein>
6NUR|6NUR_protein|mol2

> <Gold.PLP.Fitness>
45.3641

> <Gold.PLP.PLP>
-34.2653

> <Gold.PLP.part.hbond>
-3.0000

> <Gold.PLP.part.metal>
0.0000

> <Gold.PLP.part.buried>
-3.8847

> <Gold.PLP.part.nonpolar>
-27.9712

> <Gold.PLP.part.repulsive>
0.4304

> <Gold.PLP.ligand.clash>
0.0000

> <Gold.PLP.ligand.torsion>
0.2936

> <Gold.PLP.Chemscore.Hbond>
2.9520

> <Gold.PLP.Chemscore.CHOScore>
0.9424

> <Gold.PLP.Chemscore.Metal>
0.0000

> <Gold.Chemscore.Hbonds>
donor molecule, donor type, donor heavy atom, donor atom, acceptor molecule, acceptor atom, score
      L1  H     9    28       P1  7948  0.88
      L1  H    12    29       P1  7948  0.90
      P1  H  7989  7998       L1     4  0.63
      L1  C     5    25       P1  8028  0.99

> <Gold.PLP.Chemscore.Internal.Correction>
0.0029

> <Gold.Rescore>
     Score         DG    S(hbond)    S(metal)    S(lipo)     H(rot)  DE(clash)    DE(int)     intcor
     18.05     -19.51       2.38        0.00      79.22       1.25       0.21       1.25       ----

> <Gold.Chemscore.Fitness>
18.0480

> <Gold.Chemscore.DG>
-19.5133

> <Gold.Chemscore.ZeroCoef>
-5.4800

> <Gold.Chemscore.Hbond>
2.3827

> <Gold.Chemscore.Metal>
0.0000

> <Gold.Chemscore.Lipo>
79.2196

> <Gold.Chemscore.Internal_Hbond>
0.0000

> <Gold.Chemscore.DEClash>
0.2131

> <Gold.Chemscore.DEInternal>
1.2523

> <Gold.Chemscore.Rot>
1.2474

> <Gold.Chemscore.Internal.Correction>
   9.000000E+99

> <Gold.Chemscore.Hbonds>
donor molecule, donor type, donor heavy atom, donor atom, acceptor molecule, acceptor atom, score
      L1  H     9    28       P1  7948  0.86
      L1  H    12    29       P1  7948  0.84
      P1  H  7989  7998       L1     4  0.07

> <Gold.Chemscore.Hbond.Weighted>
-7.9581

> <Gold.Chemscore.Metal.Weighted>
-0.0000

> <Gold.Chemscore.Lipo.Weighted>
-9.2687

> <Gold.Chemscore.Internal_Hbond.Weighted>
0.0000

> <Gold.Chemscore.DEClash.Weighted>
0.2131

> <Gold.Chemscore.DEInternal.Weighted>
1.2523

> <Gold.Chemscore.Rot.Weighted>
3.1934

> <Gold.Chemscore.Internal.Correction.Weighted>
   9.000000E+99

> <Gold.Protein.RotatedTorsions>
[ 6907 6896 6895 6894 ] final   63.55 input  -60.11 | X-H torsion
[ 7974 7965 7964 7962 ] final  156.76 input  175.53 | X-H torsion
[ 8008 7997 7996 7995 ] final   51.46 input   59.86 | X-H torsion
[ 10167 10162 10161 10158 ] final  -89.13 input  -65.29 | X-H torsion
[ 10718 10713 10712 10709 ] final  -28.13 input   66.30 | X-H torsion
[ 10763 10752 10751 10750 ] final -114.68 input  -60.55 | X-H torsion
[ 11005 11000 10999 10996 ] final   15.04 input  -57.11 | X-H torsion

> <Gold.Protein.ActiveResidues>
 VAL166  LYS551  ARG553  GLY616  TRP617  ASP618  TYR619  PRO620  LYS621  CYS622 
 ASP623  PHE694  ASN695  SER759  ASP760  ASP761  ALA762  ILE779  LEU786  VAL792 
 PHE793  MET794  SER795  GLU796  ALA797  LYS798  CYS799  TRP800  GLU811  SER814 

> <Gold.Protein.RotatedAtoms>
  152.4262  134.5864  159.9961 H   0  0  0  0  0  0  0  0  0  0  0  0  # atno 6907 bound_to 6896
  151.6000  133.3351  159.3053 H   0  0  0  0  0  0  0  0  0  0  0  0  # atno 6908 bound_to 6896
  150.8151  134.7366  159.6788 H   0  0  0  0  0  0  0  0  0  0  0  0  # atno 6909 bound_to 6896
  144.7943  139.7248  143.6208 H   0  0  0  0  0  0  0  0  0  0  0  0  # atno 7974 bound_to 7965
  155.4357  140.3452  155.4284 H   0  0  0  0  0  0  0  0  0  0  0  0  # atno 8008 bound_to 7997
  156.1309  140.1514  156.9097 H   0  0  0  0  0  0  0  0  0  0  0  0  # atno 8009 bound_to 7997
  154.4894  140.0845  156.7540 H   0  0  0  0  0  0  0  0  0  0  0  0  # atno 8010 bound_to 7997
  140.3678  143.2809  151.9537 H   0  0  0  0  0  0  0  0  0  0  0  0  # atno 10167 bound_to 10162
  156.4292  130.4442  149.7129 H   0  0  0  0  0  0  0  0  0  0  0  0  # atno 10718 bound_to 10713
  154.8450  135.4409  154.1543 H   0  0  0  0  0  0  0  0  0  0  0  0  # atno 10763 bound_to 10752
  153.2696  135.6944  153.7500 H   0  0  0  0  0  0  0  0  0  0  0  0  # atno 10764 bound_to 10752
  153.6746  135.3413  155.3137 H   0  0  0  0  0  0  0  0  0  0  0  0  # atno 10765 bound_to 10752
  140.4627  134.1111  155.7719 H   0  0  0  0  0  0  0  0  0  0  0  0  # atno 11005 bound_to 11000
  146.2206  139.5629  142.9620 LP  0  0  0  0  0  0  0  0  0  0  0  0  # atno 17320 bound_to 7965
  145.5713  141.0394  143.2173 LP  0  0  0  0  0  0  0  0  0  0  0  0  # atno 17321 bound_to 7965
  139.4807  144.5934  151.7732 LP  0  0  0  0  0  0  0  0  0  0  0  0  # atno 17342 bound_to 10162
  140.5063  144.1093  150.5983 LP  0  0  0  0  0  0  0  0  0  0  0  0  # atno 17343 bound_to 10162
  156.4039  130.7688  151.2698 LP  0  0  0  0  0  0  0  0  0  0  0  0  # atno 17370 bound_to 10713
  157.7508  131.0231  150.3822 LP  0  0  0  0  0  0  0  0  0  0  0  0  # atno 17371 bound_to 10713
  141.1614  133.8786  157.1838 LP  0  0  0  0  0  0  0  0  0  0  0  0  # atno 17394 bound_to 11000
  139.9935  135.0056  157.0029 LP  0  0  0  0  0  0  0  0  0  0  0  0  # atno 17395 bound_to 11000

$$$$
