AV-unprocessed.smi:3010|AV-procd|sdf|11456|dock2
  -GOLD-   2272016393D 1   1.00000     0.00000
 Structure written by MMmdl.
 38 40  0  0  0  0  0  0  0  0  1 V2000
  150.5044  144.2317  159.4578 C   0  0  0  0  0  0  0  0  0  0  0  0
  151.2842  142.9811  159.5228 N   0  0  0  0  0  0  0  0  0  0  0  0
  150.9520  141.9649  158.6655 C   0  0  0  0  0  0  0  0  0  0  0  0
  150.0350  142.0094  157.8447 O   0  0  0  0  0  0  0  0  0  0  0  0
  151.7993  140.7751  158.7991 C   0  0  0  0  0  0  0  0  0  0  0  0
  152.8055  140.6856  159.7021 C   0  0  0  0  0  0  0  0  0  0  0  0
  153.4465  139.4541  159.6278 N   0  0  0  0  0  0  0  0  0  0  0  0
  152.7699  138.8481  158.6514 C   0  0  0  0  0  0  0  0  0  0  0  0
  151.7695  139.5669  158.1027 N   0  0  0  0  0  0  0  0  0  0  0  0
  150.8889  139.1278  157.0299 C   0  0  0  0  0  0  0  0  0  0  0  0
  150.9848  140.0197  155.7756 C   0  0  1  0  0  0  0  0  0  0  0  0
  152.1232  139.6773  155.0083 O   0  0  0  0  0  0  0  0  0  0  0  0
  149.7019  139.9583  154.9611 C   0  0  0  0  0  0  0  0  0  0  0  0
  149.2542  138.7342  154.4159 C   0  0  0  0  0  0  0  0  0  0  0  0
  148.0603  138.6835  153.6705 C   0  0  0  0  0  0  0  0  0  0  0  0
  147.3055  139.8549  153.4686 C   0  0  0  0  0  0  0  0  0  0  0  0
  147.7445  141.0767  154.0137 C   0  0  0  0  0  0  0  0  0  0  0  0
  148.9388  141.1282  154.7587 C   0  0  0  0  0  0  0  0  0  0  0  0
  153.0571  141.7906  160.5524 N   0  0  0  0  0  0  0  0  0  0  0  0
  154.1466  141.6530  161.5235 C   0  0  0  0  0  0  0  0  0  0  0  0
  152.3023  142.9351  160.4605 C   0  0  0  0  0  0  0  0  0  0  0  0
  152.5279  143.8990  161.1976 O   0  0  0  0  0  0  0  0  0  0  0  0
  149.7206  144.2466  158.6997 H   0  0  0  0  0  0  0  0  0  0  0  0
  151.1591  145.0770  159.2394 H   0  0  0  0  0  0  0  0  0  0  0  0
  150.0154  144.4245  160.4140 H   0  0  0  0  0  0  0  0  0  0  0  0
  153.0081  137.8464  158.3246 H   0  0  0  0  0  0  0  0  0  0  0  0
  151.1007  138.0873  156.7884 H   0  0  0  0  0  0  0  0  0  0  0  0
  149.8661  139.1405  157.4087 H   0  0  0  0  0  0  0  0  0  0  0  0
  151.1338  141.0518  156.0965 H   0  0  0  0  0  0  0  0  0  0  0  0
  152.8754  139.6620  155.5800 H   0  0  0  0  0  0  0  0  0  0  0  0
  149.8236  137.8291  154.5697 H   0  0  0  0  0  0  0  0  0  0  0  0
  147.7229  137.7453  153.2550 H   0  0  0  0  0  0  0  0  0  0  0  0
  146.3895  139.8159  152.8976 H   0  0  0  0  0  0  0  0  0  0  0  0
  147.1643  141.9750  153.8617 H   0  0  0  0  0  0  0  0  0  0  0  0
  149.2651  142.0699  155.1756 H   0  0  0  0  0  0  0  0  0  0  0  0
  154.3234  142.5398  162.1325 H   0  0  0  0  0  0  0  0  0  0  0  0
  155.0798  141.4263  161.0070 H   0  0  0  0  0  0  0  0  0  0  0  0
  153.9333  140.8287  162.2048 H   0  0  0  0  0  0  0  0  0  0  0  0
  1  2  1  0  0  0  0
  1 23  1  0  0  0  0
  1 24  1  0  0  0  0
  1 25  1  0  0  0  0
  2 21  1  0  0  0  0
  2  3  1  0  0  0  0
  3  4  2  0  0  0  0
  3  5  1  0  0  0  0
  5  9  1  0  0  0  0
  5  6  2  0  0  0  0
  6  7  1  0  0  0  0
  6 19  1  0  0  0  0
  7  8  2  0  0  0  0
  8  9  1  0  0  0  0
  8 26  1  0  0  0  0
  9 10  1  0  0  0  0
 10 11  1  0  0  0  0
 10 27  1  0  0  0  0
 10 28  1  0  0  0  0
 11 12  1  0  0  0  0
 11 13  1  0  0  0  0
 11 29  1  0  0  0  0
 12 30  1  0  0  0  0
 13 18  1  0  0  0  0
 13 14  2  0  0  0  0
 14 15  1  0  0  0  0
 14 31  1  0  0  0  0
 15 16  2  0  0  0  0
 15 32  1  0  0  0  0
 16 17  1  0  0  0  0
 16 33  1  0  0  0  0
 17 18  2  0  0  0  0
 17 34  1  0  0  0  0
 18 35  1  0  0  0  0
 19 20  1  0  0  0  0
 19 21  1  0  0  0  0
 20 36  1  0  0  0  0
 20 37  1  0  0  0  0
 20 38  1  0  0  0  0
 21 22  2  0  0  0  0
M  END
> <s_m_source_file>
AV-unprocessed.smi

> <i_m_source_file_index>
3010

> <i_lp_mmshare_version>
43012

> <i_f3d_flags>
0

> <s_epik_input>
Tz1jMW4oW0NIM10pYyg9TyluKFtDSDNdKWMoYzEyKW5bY0hdbjJbQ0gyXVtDQEhdKFtPSF0pYzNbY0hdW2NIXVtjSF1bY0hdW2NIXTM=

> <s_epik_cmdline>
J2VwaWtfcHl0aG9uJywgJy1waCcsICc3LjAnLCAnLXRuJywgJzgnLCAnLW1hJywgJzIwMCcsICctbWV0YWxfYmluZGluZycsICctaW1hZScsICc8aW5maWxlLm1hZT4nLCAnLW9tYWUnLCAnPG91dGZpbGUubWFlPic=

> <r_lp_tautomer_probability>
1

> <r_epik_Ionization_Penalty>
1.43747e-06

> <r_epik_Ionization_Penalty_Charging>
3.74189e-09

> <r_epik_Ionization_Penalty_Neutral>
1.43373e-06

> <r_epik_State_Penalty>
-0

> <r_epik_Charging_Adjusted_Penalty>
3.74189e-09

> <i_epik_Tot_Q>
0

> <i_epik_Tot_abs_Q>
0

> <r_epik_Metal_State_Penalty>
-0

> <b_epik_Metal_Only>
0

> <s_lp_Force_Field>
OPLS_2005

> <r_lp_Energy>
36.4427

> <b_lp_Chiralities_Consistent>
1

> <s_lp_Variant>
AV-unprocessed.smi:3010-2

> <Gold.Version>
5.8.1

> <Gold.Id.Protein>
6NUR|6NUR_protein|mol2

> <Gold.PLP.Fitness>
47.2139

> <Gold.PLP.PLP>
-44.7928

> <Gold.PLP.part.hbond>
-1.0000

> <Gold.PLP.part.metal>
0.0000

> <Gold.PLP.part.buried>
-2.3892

> <Gold.PLP.part.nonpolar>
-39.8497

> <Gold.PLP.part.repulsive>
0.2505

> <Gold.PLP.ligand.clash>
0.0000

> <Gold.PLP.ligand.torsion>
0.2467

> <Gold.PLP.Chemscore.Hbond>
0.9600

> <Gold.PLP.Chemscore.CHOScore>
0.0000

> <Gold.PLP.Chemscore.Metal>
0.0000

> <Gold.Chemscore.Hbonds>
donor molecule, donor type, donor heavy atom, donor atom, acceptor molecule, acceptor atom, score
      P1  H  7989  7998       L1    12  0.64

> <Gold.PLP.Chemscore.Internal.Correction>
0.0346

> <Gold.Rescore>
     Score         DG    S(hbond)    S(metal)    S(lipo)     H(rot)  DE(clash)    DE(int)     intcor
     10.07     -11.36       0.81        0.00      74.15       2.15       0.04       1.25       ----

> <Gold.Chemscore.Fitness>
10.0722

> <Gold.Chemscore.DG>
-11.3613

> <Gold.Chemscore.ZeroCoef>
-5.4800

> <Gold.Chemscore.Hbond>
0.8094

> <Gold.Chemscore.Metal>
0.0000

> <Gold.Chemscore.Lipo>
74.1469

> <Gold.Chemscore.Internal_Hbond>
0.0000

> <Gold.Chemscore.DEClash>
0.0403

> <Gold.Chemscore.DEInternal>
1.2487

> <Gold.Chemscore.Rot>
2.1474

> <Gold.Chemscore.Internal.Correction>
   9.000000E+99

> <Gold.Chemscore.Hbonds>
donor molecule, donor type, donor heavy atom, donor atom, acceptor molecule, acceptor atom, score
      P1  H  7989  7998       L1    12  0.08

> <Gold.Chemscore.Hbond.Weighted>
-2.7035

> <Gold.Chemscore.Metal.Weighted>
-0.0000

> <Gold.Chemscore.Lipo.Weighted>
-8.6752

> <Gold.Chemscore.Internal_Hbond.Weighted>
0.0000

> <Gold.Chemscore.DEClash.Weighted>
0.0403

> <Gold.Chemscore.DEInternal.Weighted>
1.2487

> <Gold.Chemscore.Rot.Weighted>
5.4974

> <Gold.Chemscore.Internal.Correction.Weighted>
   9.000000E+99

> <Gold.Protein.RotatedTorsions>
[ 6907 6896 6895 6894 ] final  124.53 input  -60.11 | X-H torsion
[ 7974 7965 7964 7962 ] final  145.50 input  175.53 | X-H torsion
[ 8008 7997 7996 7995 ] final   94.78 input   59.86 | X-H torsion
[ 10167 10162 10161 10158 ] final   82.47 input  -65.29 | X-H torsion
[ 10718 10713 10712 10709 ] final   -6.56 input   66.30 | X-H torsion
[ 10763 10752 10751 10750 ] final   23.43 input  -60.55 | X-H torsion
[ 11005 11000 10999 10996 ] final -149.16 input  -57.11 | X-H torsion

> <Gold.Protein.ActiveResidues>
 VAL166  LYS551  ARG553  GLY616  TRP617  ASP618  TYR619  PRO620  LYS621  CYS622 
 ASP623  PHE694  ASN695  SER759  ASP760  ASP761  ALA762  ILE779  LEU786  VAL792 
 PHE793  MET794  SER795  GLU796  ALA797  LYS798  CYS799  TRP800  GLU811  SER814 

> <Gold.Protein.RotatedAtoms>
  152.4070  133.6904  159.6364 H   0  0  0  0  0  0  0  0  0  0  0  0  # atno 6907 bound_to 6896
  150.7954  133.8691  159.3262 H   0  0  0  0  0  0  0  0  0  0  0  0  # atno 6908 bound_to 6896
  151.6443  135.1011  160.0199 H   0  0  0  0  0  0  0  0  0  0  0  0  # atno 6909 bound_to 6896
  144.8747  139.5791  143.5870 H   0  0  0  0  0  0  0  0  0  0  0  0  # atno 7974 bound_to 7965
  156.0617  140.3295  155.7469 H   0  0  0  0  0  0  0  0  0  0  0  0  # atno 8008 bound_to 7997
  155.5445  140.0604  157.2880 H   0  0  0  0  0  0  0  0  0  0  0  0  # atno 8009 bound_to 7997
  154.4484  140.1905  156.0612 H   0  0  0  0  0  0  0  0  0  0  0  0  # atno 8010 bound_to 7997
  139.9284  144.6168  150.8369 H   0  0  0  0  0  0  0  0  0  0  0  0  # atno 10167 bound_to 10162
  156.7300  130.5177  149.5848 H   0  0  0  0  0  0  0  0  0  0  0  0  # atno 10718 bound_to 10713
  153.0839  135.6627  153.9989 H   0  0  0  0  0  0  0  0  0  0  0  0  # atno 10763 bound_to 10752
  153.9604  135.2975  155.3435 H   0  0  0  0  0  0  0  0  0  0  0  0  # atno 10764 bound_to 10752
  154.7243  135.5151  153.8934 H   0  0  0  0  0  0  0  0  0  0  0  0  # atno 10765 bound_to 10752
  140.7537  134.3377  157.5119 H   0  0  0  0  0  0  0  0  0  0  0  0  # atno 11005 bound_to 11000
  146.2954  139.7263  142.9130 LP  0  0  0  0  0  0  0  0  0  0  0  0  # atno 17320 bound_to 7965
  145.4065  141.0391  143.3041 LP  0  0  0  0  0  0  0  0  0  0  0  0  # atno 17321 bound_to 7965
  140.7644  143.3247  151.2542 LP  0  0  0  0  0  0  0  0  0  0  0  0  # atno 17342 bound_to 10162
  139.6802  143.9867  152.2804 LP  0  0  0  0  0  0  0  0  0  0  0  0  # atno 17343 bound_to 10162
  156.1535  130.6326  151.0627 LP  0  0  0  0  0  0  0  0  0  0  0  0  # atno 17370 bound_to 10713
  157.6863  131.0824  150.7234 LP  0  0  0  0  0  0  0  0  0  0  0  0  # atno 17371 bound_to 10713
  139.8783  134.9158  156.3140 LP  0  0  0  0  0  0  0  0  0  0  0  0  # atno 17394 bound_to 11000
  140.9727  133.7317  156.0558 LP  0  0  0  0  0  0  0  0  0  0  0  0  # atno 17395 bound_to 11000

$$$$
