AV-unprocessed.smi:3031|AV-procd|sdf|11556|dock4
  -GOLD-   2272016523D 1   1.00000     0.00000
 Structure written by MMmdl.
 46 47  0  0  0  0  0  0  0  0  1 V2000
  152.2263  145.4708  159.5499 C   0  0  0  0  0  0  0  0  0  0  0  0
  151.7241  144.1181  159.1350 C   0  0  0  0  0  0  0  0  0  0  0  0
  152.0291  142.8561  159.7189 C   0  0  0  0  0  0  0  0  0  0  0  0
  151.4294  141.8483  159.1072 N   0  0  0  0  0  0  0  0  0  0  0  0
  150.7064  142.4288  158.1257 N   0  0  0  0  0  0  0  0  0  0  0  0
  149.9273  141.6036  157.2171 C   0  0  0  0  0  0  0  0  0  0  0  0
  150.7800  140.6217  156.3764 C   0  0  1  0  0  0  0  0  0  0  0  0
  151.6939  139.7892  157.2866 C   0  0  0  0  0  0  0  0  0  0  0  0
  149.9705  139.7033  155.5686 N   0  0  0  0  0  0  0  0  0  0  0  0
  150.6261  139.1130  154.4028 C   0  0  0  0  0  0  0  0  0  0  0  0
  150.7034  137.5791  154.5185 C   0  0  1  0  0  0  0  0  0  0  0  0
  151.9173  137.1774  153.9198 O   0  0  0  0  0  0  0  0  0  0  0  0
  150.7319  137.0604  155.9747 C   0  0  0  0  0  0  0  0  0  0  0  0
  150.2219  135.7040  156.1818 N   0  0  0  0  0  0  0  0  0  0  0  0
  149.4362  135.6152  157.4071 C   0  0  0  0  0  0  0  0  0  0  0  0
  148.8749  134.1995  157.6251 C   0  0  0  0  0  0  0  0  0  0  0  0
  149.9446  133.2598  157.6408 O   0  0  0  0  0  0  0  0  0  0  0  0
  150.7155  133.2844  156.4438 C   0  0  0  0  0  0  0  0  0  0  0  0
  151.2811  134.6981  156.2217 C   0  0  0  0  0  0  0  0  0  0  0  0
  150.8804  143.7973  158.1097 C   0  0  0  0  0  0  0  0  0  0  0  0
  152.4520  145.5087  160.6157 H   0  0  0  0  0  0  0  0  0  0  0  0
  151.4942  146.2532  159.3496 H   0  0  0  0  0  0  0  0  0  0  0  0
  153.1393  145.7395  159.0183 H   0  0  0  0  0  0  0  0  0  0  0  0
  152.6707  142.6436  160.5613 H   0  0  0  0  0  0  0  0  0  0  0  0
  149.2234  141.0448  157.8353 H   0  0  0  0  0  0  0  0  0  0  0  0
  149.3219  142.2386  156.5677 H   0  0  0  0  0  0  0  0  0  0  0  0
  151.4352  141.1917  155.7172 H   0  0  0  0  0  0  0  0  0  0  0  0
  152.3640  140.4285  157.8621 H   0  0  0  0  0  0  0  0  0  0  0  0
  152.3150  139.1077  156.7040 H   0  0  0  0  0  0  0  0  0  0  0  0
  151.1153  139.1919  157.9925 H   0  0  0  0  0  0  0  0  0  0  0  0
  149.6187  138.9571  156.1613 H   0  0  0  0  0  0  0  0  0  0  0  0
  150.0666  139.3673  153.5042 H   0  0  0  0  0  0  0  0  0  0  0  0
  151.6285  139.5247  154.2790 H   0  0  0  0  0  0  0  0  0  0  0  0
  149.9014  137.1136  153.9455 H   0  0  0  0  0  0  0  0  0  0  0  0
  151.7667  137.0506  152.9954 H   0  0  0  0  0  0  0  0  0  0  0  0
  151.7539  137.1163  156.3538 H   0  0  0  0  0  0  0  0  0  0  0  0
  150.1527  137.7530  156.5875 H   0  0  0  0  0  0  0  0  0  0  0  0
  150.0523  135.8951  158.2631 H   0  0  0  0  0  0  0  0  0  0  0  0
  148.6111  136.3275  157.3702 H   0  0  0  0  0  0  0  0  0  0  0  0
  148.3381  134.1453  158.5722 H   0  0  0  0  0  0  0  0  0  0  0  0
  148.1652  133.9400  156.8377 H   0  0  0  0  0  0  0  0  0  0  0  0
  151.5251  132.5591  156.5250 H   0  0  0  0  0  0  0  0  0  0  0  0
  150.0962  132.9804  155.5981 H   0  0  0  0  0  0  0  0  0  0  0  0
  151.8454  134.7019  155.2902 H   0  0  0  0  0  0  0  0  0  0  0  0
  151.9883  134.9350  157.0181 H   0  0  0  0  0  0  0  0  0  0  0  0
  150.3937  144.4249  157.3775 H   0  0  0  0  0  0  0  0  0  0  0  0
  1  2  1  0  0  0  0
  1 21  1  0  0  0  0
  1 22  1  0  0  0  0
  1 23  1  0  0  0  0
  2 20  2  0  0  0  0
  2  3  1  0  0  0  0
  3  4  2  0  0  0  0
  3 24  1  0  0  0  0
  4  5  1  0  0  0  0
  5  6  1  0  0  0  0
  5 20  1  0  0  0  0
  6  7  1  0  0  0  0
  6 25  1  0  0  0  0
  6 26  1  0  0  0  0
  7  8  1  0  0  0  0
  7  9  1  0  0  0  0
  7 27  1  0  0  0  0
  8 28  1  0  0  0  0
  8 29  1  0  0  0  0
  8 30  1  0  0  0  0
  9 10  1  0  0  0  0
  9 31  1  0  0  0  0
 10 11  1  0  0  0  0
 10 32  1  0  0  0  0
 10 33  1  0  0  0  0
 11 12  1  0  0  0  0
 11 13  1  0  0  0  0
 11 34  1  0  0  0  0
 12 35  1  0  0  0  0
 13 14  1  0  0  0  0
 13 36  1  0  0  0  0
 13 37  1  0  0  0  0
 14 19  1  0  0  0  0
 14 15  1  0  0  0  0
 15 16  1  0  0  0  0
 15 38  1  0  0  0  0
 15 39  1  0  0  0  0
 16 17  1  0  0  0  0
 16 40  1  0  0  0  0
 16 41  1  0  0  0  0
 17 18  1  0  0  0  0
 18 19  1  0  0  0  0
 18 42  1  0  0  0  0
 18 43  1  0  0  0  0
 19 44  1  0  0  0  0
 19 45  1  0  0  0  0
 20 46  1  0  0  0  0
M  END
> <s_m_source_file>
AV-unprocessed.smi

> <i_m_source_file_index>
3031

> <i_lp_mmshare_version>
43012

> <i_f3d_flags>
0

> <s_epik_input>
W0NIM11jMVtjSF1ubihbY0hdMSlbQ0gyXVtDQEhdKFtDSDNdKVtOSF1bQ0gyXVtDQEhdKFtPSF0pW0NIMl1OMltDSDJdW0NIMl1PW0NIMl1bQ0gyXTI=

> <s_epik_cmdline>
J2VwaWtfcHl0aG9uJywgJy1waCcsICc3LjAnLCAnLXRuJywgJzgnLCAnLW1hJywgJzIwMCcsICctbWV0YWxfYmluZGluZycsICctaW1hZScsICc8aW5maWxlLm1hZT4nLCAnLW9tYWUnLCAnPG91dGZpbGUubWFlPic=

> <r_lp_tautomer_probability>
1

> <r_epik_Ionization_Penalty>
2.8101

> <r_epik_Ionization_Penalty_Charging>
0

> <r_epik_Ionization_Penalty_Neutral>
2.8101

> <r_epik_State_Penalty>
2.12351

> <r_epik_Charging_Adjusted_Penalty>
2.12351

> <i_epik_Tot_Q>
0

> <i_epik_Tot_abs_Q>
0

> <r_epik_Metal_State_Penalty>
2.12345

> <b_epik_Metal_Only>
0

> <s_lp_Force_Field>
OPLS_2005

> <r_lp_Energy>
29.6213

> <b_lp_Chiralities_Consistent>
1

> <s_lp_Variant>
AV-unprocessed.smi:3031-16

> <Gold.Version>
5.8.1

> <Gold.Id.Protein>
6NUR|6NUR_protein|mol2

> <Gold.PLP.Fitness>
43.4792

> <Gold.PLP.PLP>
-35.0570

> <Gold.PLP.part.hbond>
-3.0000

> <Gold.PLP.part.metal>
0.0000

> <Gold.PLP.part.buried>
-4.2188

> <Gold.PLP.part.nonpolar>
-26.8950

> <Gold.PLP.part.repulsive>
0.0313

> <Gold.PLP.ligand.clash>
0.0000

> <Gold.PLP.ligand.torsion>
1.9131

> <Gold.PLP.Chemscore.Hbond>
3.0000

> <Gold.PLP.Chemscore.CHOScore>
1.0000

> <Gold.PLP.Chemscore.Metal>
0.0000

> <Gold.Chemscore.Hbonds>
donor molecule, donor type, donor heavy atom, donor atom, acceptor molecule, acceptor atom, score
      L1  H    12    35       P1  7949  1.00
      P1  H  6896  6908       L1    17  1.00
      P1  H 10752 10765       L1    12  1.00
      L1  C    20    46       P1  8028  1.00

> <Gold.PLP.Chemscore.Internal.Correction>
0.2484

> <Gold.Rescore>
     Score         DG    S(hbond)    S(metal)    S(lipo)     H(rot)  DE(clash)    DE(int)     intcor
     13.84     -17.29       2.08        0.00      97.11       2.53       0.08       3.37       ----

> <Gold.Chemscore.Fitness>
13.8385

> <Gold.Chemscore.DG>
-17.2947

> <Gold.Chemscore.ZeroCoef>
-5.4800

> <Gold.Chemscore.Hbond>
2.0773

> <Gold.Chemscore.Metal>
0.0000

> <Gold.Chemscore.Lipo>
97.1075

> <Gold.Chemscore.Internal_Hbond>
0.0000

> <Gold.Chemscore.DEClash>
0.0845

> <Gold.Chemscore.DEInternal>
3.3716

> <Gold.Chemscore.Rot>
2.5333

> <Gold.Chemscore.Internal.Correction>
   9.000000E+99

> <Gold.Chemscore.Hbonds>
donor molecule, donor type, donor heavy atom, donor atom, acceptor molecule, acceptor atom, score
      L1  H    12    35       P1  7949  0.95
      P1  H  6896  6908       L1    17  0.59
      P1  H 10752 10765       L1    12  0.24

> <Gold.Chemscore.Hbond.Weighted>
-6.9383

> <Gold.Chemscore.Metal.Weighted>
-0.0000

> <Gold.Chemscore.Lipo.Weighted>
-11.3616

> <Gold.Chemscore.Internal_Hbond.Weighted>
0.0000

> <Gold.Chemscore.DEClash.Weighted>
0.0845

> <Gold.Chemscore.DEInternal.Weighted>
3.3716

> <Gold.Chemscore.Rot.Weighted>
6.4852

> <Gold.Chemscore.Internal.Correction.Weighted>
   9.000000E+99

> <Gold.Protein.RotatedTorsions>
[ 6907 6896 6895 6894 ] final   96.85 input  -60.11 | X-H torsion
[ 7974 7965 7964 7962 ] final  108.77 input  175.53 | X-H torsion
[ 8008 7997 7996 7995 ] final  -19.22 input   59.86 | X-H torsion
[ 10167 10162 10161 10158 ] final  171.87 input  -65.29 | X-H torsion
[ 10718 10713 10712 10709 ] final -168.13 input   66.30 | X-H torsion
[ 10763 10752 10751 10750 ] final  162.41 input  -60.55 | X-H torsion
[ 11005 11000 10999 10996 ] final  178.41 input  -57.11 | X-H torsion

> <Gold.Protein.ActiveResidues>
 VAL166  LYS551  ARG553  GLY616  TRP617  ASP618  TYR619  PRO620  LYS621  CYS622 
 ASP623  PHE694  ASN695  SER759  ASP760  ASP761  ALA762  ILE779  LEU786  VAL792 
 PHE793  MET794  SER795  GLU796  ALA797  LYS798  CYS799  TRP800  GLU811  SER814 

> <Gold.Protein.RotatedAtoms>
  152.5430  134.0823  159.8240 H   0  0  0  0  0  0  0  0  0  0  0  0  # atno 6907 bound_to 6896
  151.0923  133.5299  159.2621 H   0  0  0  0  0  0  0  0  0  0  0  0  # atno 6908 bound_to 6896
  151.2085  135.0480  159.8956 H   0  0  0  0  0  0  0  0  0  0  0  0  # atno 6909 bound_to 6896
  145.2763  139.2648  143.3939 H   0  0  0  0  0  0  0  0  0  0  0  0  # atno 7974 bound_to 7965
  154.4852  140.2094  155.9673 H   0  0  0  0  0  0  0  0  0  0  0  0  # atno 8008 bound_to 7997
  156.1224  140.3211  155.8197 H   0  0  0  0  0  0  0  0  0  0  0  0  # atno 8009 bound_to 7997
  155.4443  140.0512  157.2998 H   0  0  0  0  0  0  0  0  0  0  0  0  # atno 8010 bound_to 7997
  139.5059  144.3437  151.9992 H   0  0  0  0  0  0  0  0  0  0  0  0  # atno 10167 bound_to 10162
  156.6924  130.9164  151.3070 H   0  0  0  0  0  0  0  0  0  0  0  0  # atno 10718 bound_to 10713
  154.2779  135.2764  155.2710 H   0  0  0  0  0  0  0  0  0  0  0  0  # atno 10763 bound_to 10752
  154.5244  135.5747  153.6710 H   0  0  0  0  0  0  0  0  0  0  0  0  # atno 10764 bound_to 10752
  152.9934  135.6212  154.2937 H   0  0  0  0  0  0  0  0  0  0  0  0  # atno 10765 bound_to 10752
  140.3948  134.6830  157.4528 H   0  0  0  0  0  0  0  0  0  0  0  0  # atno 11005 bound_to 11000
  146.3230  140.3219  142.8634 LP  0  0  0  0  0  0  0  0  0  0  0  0  # atno 17320 bound_to 7965
  144.9291  140.7955  143.5700 LP  0  0  0  0  0  0  0  0  0  0  0  0  # atno 17321 bound_to 7965
  140.2874  144.3791  150.6099 LP  0  0  0  0  0  0  0  0  0  0  0  0  # atno 17342 bound_to 10162
  140.5972  143.2167  151.7141 LP  0  0  0  0  0  0  0  0  0  0  0  0  # atno 17343 bound_to 10162
  157.7004  130.9327  150.0768 LP  0  0  0  0  0  0  0  0  0  0  0  0  # atno 17370 bound_to 10713
  156.1788  130.3649  149.9064 LP  0  0  0  0  0  0  0  0  0  0  0  0  # atno 17371 bound_to 10713
  140.0380  134.6309  155.9018 LP  0  0  0  0  0  0  0  0  0  0  0  0  # atno 17394 bound_to 11000
  141.1878  133.6561  156.5297 LP  0  0  0  0  0  0  0  0  0  0  0  0  # atno 17395 bound_to 11000

$$$$
