AV-unprocessed.smi:2839|AV-procd|sdf|10930|dock3
  -GOLD-   2272015373D 1   1.00000     0.00000
 Structure written by MMmdl.
 32 33  0  0  0  0  0  0  0  0  1 V2000
  147.0354  142.2394  154.2772 C   0  0  0  0  0  0  0  0  0  0  0  0
  148.1478  141.4866  154.8422 N   0  0  0  0  0  0  0  0  0  0  0  0
  149.2419  141.0868  154.1099 C   0  0  0  0  0  0  0  0  0  0  0  0
  150.0825  140.4235  154.8276 N   0  0  0  0  0  0  0  0  0  0  0  0
  149.4919  140.4092  156.0522 N   0  0  0  0  0  0  0  0  0  0  0  0
  150.1685  139.7458  157.1681 C   0  0  0  0  0  0  0  0  0  0  0  0
  151.4703  140.4412  157.5895 C   0  0  0  0  0  0  0  0  0  0  0  0
  152.5673  139.9425  157.3333 O   0  0  0  0  0  0  0  0  0  0  0  0
  151.3273  141.5973  158.2547 N   0  0  0  0  0  0  0  0  0  0  0  0
  152.4256  142.4235  158.7491 C   0  0  0  0  0  0  0  0  0  0  0  0
  152.3489  142.5784  160.2805 C   0  0  0  0  0  0  0  0  0  0  0  0
  152.4998  144.0740  160.5645 C   0  0  0  0  0  0  0  0  0  0  0  0
  151.9274  144.7537  159.3249 C   0  0  0  0  0  0  0  0  0  0  0  0
  152.3625  143.8513  158.1703 C   0  0  0  0  0  0  0  0  0  0  0  0
  148.3103  141.0420  156.0834 C   0  0  0  0  0  0  0  0  0  0  0  0
  147.5495  141.1789  157.0412 O   0  0  0  0  0  0  0  0  0  0  0  0
  147.3224  142.7589  153.3617 H   0  0  0  0  0  0  0  0  0  0  0  0
  146.6779  142.9877  154.9859 H   0  0  0  0  0  0  0  0  0  0  0  0
  146.2076  141.5689  154.0442 H   0  0  0  0  0  0  0  0  0  0  0  0
  149.3086  141.3434  153.0513 H   0  0  0  0  0  0  0  0  0  0  0  0
  149.4884  139.7049  158.0206 H   0  0  0  0  0  0  0  0  0  0  0  0
  150.3966  138.7120  156.9048 H   0  0  0  0  0  0  0  0  0  0  0  0
  150.3909  141.9332  158.4269 H   0  0  0  0  0  0  0  0  0  0  0  0
  153.3783  141.9637  158.4792 H   0  0  0  0  0  0  0  0  0  0  0  0
  151.3799  142.2435  160.6541 H   0  0  0  0  0  0  0  0  0  0  0  0
  153.1104  141.9890  160.7920 H   0  0  0  0  0  0  0  0  0  0  0  0
  151.9971  144.3806  161.4822 H   0  0  0  0  0  0  0  0  0  0  0  0
  153.5566  144.3249  160.6637 H   0  0  0  0  0  0  0  0  0  0  0  0
  150.8383  144.7734  159.3859 H   0  0  0  0  0  0  0  0  0  0  0  0
  152.2749  145.7806  159.2094 H   0  0  0  0  0  0  0  0  0  0  0  0
  153.3588  144.1471  157.8397 H   0  0  0  0  0  0  0  0  0  0  0  0
  151.7003  143.9444  157.3083 H   0  0  0  0  0  0  0  0  0  0  0  0
  1  2  1  0  0  0  0
  1 17  1  0  0  0  0
  1 18  1  0  0  0  0
  1 19  1  0  0  0  0
  2 15  1  0  0  0  0
  2  3  1  0  0  0  0
  3  4  2  0  0  0  0
  3 20  1  0  0  0  0
  4  5  1  0  0  0  0
  5  6  1  0  0  0  0
  5 15  1  0  0  0  0
  6  7  1  0  0  0  0
  6 21  1  0  0  0  0
  6 22  1  0  0  0  0
  7  8  2  0  0  0  0
  7  9  1  0  0  0  0
  9 10  1  0  0  0  0
  9 23  1  0  0  0  0
 10 14  1  0  0  0  0
 10 11  1  0  0  0  0
 10 24  1  0  0  0  0
 11 12  1  0  0  0  0
 11 25  1  0  0  0  0
 11 26  1  0  0  0  0
 12 13  1  0  0  0  0
 12 27  1  0  0  0  0
 12 28  1  0  0  0  0
 13 14  1  0  0  0  0
 13 29  1  0  0  0  0
 13 30  1  0  0  0  0
 14 31  1  0  0  0  0
 14 32  1  0  0  0  0
 15 16  2  0  0  0  0
M  END
> <s_m_source_file>
AV-unprocessed.smi

> <i_m_source_file_index>
2839

> <i_lp_mmshare_version>
43012

> <i_f3d_flags>
0

> <s_epik_input>
W0NIM11uMVtjSF1ubihjMT1PKVtDSDJdQyg9TylbTkhdW0NIXTJbQ0gyXVtDSDJdW0NIMl1bQ0gyXTI=

> <s_epik_cmdline>
J2VwaWtfcHl0aG9uJywgJy1waCcsICc3LjAnLCAnLXRuJywgJzgnLCAnLW1hJywgJzIwMCcsICctbWV0YWxfYmluZGluZycsICctaW1hZScsICc8aW5maWxlLm1hZT4nLCAnLW9tYWUnLCAnPG91dGZpbGUubWFlPic=

> <r_lp_tautomer_probability>
1

> <r_epik_Ionization_Penalty>
1.58668e-07

> <r_epik_Ionization_Penalty_Charging>
8.23952e-09

> <r_epik_Ionization_Penalty_Neutral>
1.50429e-07

> <r_epik_State_Penalty>
-0

> <r_epik_Charging_Adjusted_Penalty>
8.23952e-09

> <i_epik_Tot_Q>
0

> <i_epik_Tot_abs_Q>
0

> <r_epik_Metal_State_Penalty>
-0

> <b_epik_Metal_Only>
0

> <s_lp_Force_Field>
OPLS_2005

> <r_lp_Energy>
35.3478

> <b_lp_Chiralities_Consistent>
1

> <s_lp_Variant>
AV-unprocessed.smi:2839-1

> <Gold.Version>
5.8.1

> <Gold.Id.Protein>
6NUR|6NUR_protein|mol2

> <Gold.PLP.Fitness>
40.3204

> <Gold.PLP.PLP>
-32.6673

> <Gold.PLP.part.hbond>
-2.0000

> <Gold.PLP.part.metal>
0.0000

> <Gold.PLP.part.buried>
-1.3903

> <Gold.PLP.part.nonpolar>
-28.5063

> <Gold.PLP.part.repulsive>
0.2226

> <Gold.PLP.ligand.clash>
0.0000

> <Gold.PLP.ligand.torsion>
0.1981

> <Gold.PLP.Chemscore.Hbond>
1.7752

> <Gold.PLP.Chemscore.CHOScore>
0.9066

> <Gold.PLP.Chemscore.Metal>
0.0000

> <Gold.Chemscore.Hbonds>
donor molecule, donor type, donor heavy atom, donor atom, acceptor molecule, acceptor atom, score
      P1  H  7989  7998       L1     4  0.42
      P1  H  7997  8010       L1     8  1.00
      L1  C     3    20       P1  7957  1.00

> <Gold.PLP.Chemscore.Internal.Correction>
0.0039

> <Gold.Rescore>
     Score         DG    S(hbond)    S(metal)    S(lipo)     H(rot)  DE(clash)    DE(int)     intcor
     13.67     -13.74       1.39        0.00      68.70       1.72       0.02       0.05       ----

> <Gold.Chemscore.Fitness>
13.6707

> <Gold.Chemscore.DG>
-13.7413

> <Gold.Chemscore.ZeroCoef>
-5.4800

> <Gold.Chemscore.Hbond>
1.3853

> <Gold.Chemscore.Metal>
0.0000

> <Gold.Chemscore.Lipo>
68.6984

> <Gold.Chemscore.Internal_Hbond>
0.0000

> <Gold.Chemscore.DEClash>
0.0199

> <Gold.Chemscore.DEInternal>
0.0506

> <Gold.Chemscore.Rot>
1.7201

> <Gold.Chemscore.Internal.Correction>
   9.000000E+99

> <Gold.Chemscore.Hbonds>
donor molecule, donor type, donor heavy atom, donor atom, acceptor molecule, acceptor atom, score
      P1  H  7989  7998       L1     4  0.02
      P1  H  7997  8010       L1     8  0.95

> <Gold.Chemscore.Hbond.Weighted>
-4.6269

> <Gold.Chemscore.Metal.Weighted>
-0.0000

> <Gold.Chemscore.Lipo.Weighted>
-8.0377

> <Gold.Chemscore.Internal_Hbond.Weighted>
0.0000

> <Gold.Chemscore.DEClash.Weighted>
0.0199

> <Gold.Chemscore.DEInternal.Weighted>
0.0506

> <Gold.Chemscore.Rot.Weighted>
4.4033

> <Gold.Chemscore.Internal.Correction.Weighted>
   9.000000E+99

> <Gold.Protein.RotatedTorsions>
[ 6907 6896 6895 6894 ] final  -28.10 input  -60.11 | X-H torsion
[ 7974 7965 7964 7962 ] final  -93.75 input  175.53 | X-H torsion
[ 8008 7997 7996 7995 ] final   69.22 input   59.86 | X-H torsion
[ 10167 10162 10161 10158 ] final   21.82 input  -65.29 | X-H torsion
[ 10718 10713 10712 10709 ] final -164.73 input   66.30 | X-H torsion
[ 10763 10752 10751 10750 ] final  -11.08 input  -60.55 | X-H torsion
[ 11005 11000 10999 10996 ] final  114.13 input  -57.11 | X-H torsion

> <Gold.Protein.ActiveResidues>
 VAL166  LYS551  ARG553  GLY616  TRP617  ASP618  TYR619  PRO620  LYS621  CYS622 
 ASP623  PHE694  ASN695  SER759  ASP760  ASP761  ALA762  ILE779  LEU786  VAL792 
 PHE793  MET794  SER795  GLU796  ALA797  LYS798  CYS799  TRP800  GLU811  SER814 

> <Gold.Protein.RotatedAtoms>
  151.1377  135.0163  159.8610 H   0  0  0  0  0  0  0  0  0  0  0  0  # atno 6907 bound_to 6896
  152.5452  134.1536  159.8539 H   0  0  0  0  0  0  0  0  0  0  0  0  # atno 6908 bound_to 6896
  151.1609  133.4800  159.2627 H   0  0  0  0  0  0  0  0  0  0  0  0  # atno 6909 bound_to 6896
  145.3824  140.9519  143.2386 H   0  0  0  0  0  0  0  0  0  0  0  0  # atno 7974 bound_to 7965
  155.7203  140.3493  155.5013 H   0  0  0  0  0  0  0  0  0  0  0  0  # atno 8008 bound_to 7997
  155.9276  140.1078  157.1180 H   0  0  0  0  0  0  0  0  0  0  0  0  # atno 8009 bound_to 7997
  154.4080  140.1237  156.4747 H   0  0  0  0  0  0  0  0  0  0  0  0  # atno 8010 bound_to 7997
  140.5397  143.9698  150.6512 H   0  0  0  0  0  0  0  0  0  0  0  0  # atno 10167 bound_to 10162
  156.6432  130.8977  151.3000 H   0  0  0  0  0  0  0  0  0  0  0  0  # atno 10718 bound_to 10713
  153.4785  135.7017  153.5952 H   0  0  0  0  0  0  0  0  0  0  0  0  # atno 10763 bound_to 10752
  153.4175  135.3833  155.2090 H   0  0  0  0  0  0  0  0  0  0  0  0  # atno 10764 bound_to 10752
  154.8722  135.3919  154.4231 H   0  0  0  0  0  0  0  0  0  0  0  0  # atno 10765 bound_to 10752
  139.8972  134.9562  156.6845 H   0  0  0  0  0  0  0  0  0  0  0  0  # atno 11005 bound_to 11000
  144.8498  139.5339  143.6861 LP  0  0  0  0  0  0  0  0  0  0  0  0  # atno 17320 bound_to 7965
  146.2836  139.6943  142.9211 LP  0  0  0  0  0  0  0  0  0  0  0  0  # atno 17321 bound_to 7965
  140.3096  143.3207  152.0892 LP  0  0  0  0  0  0  0  0  0  0  0  0  # atno 17342 bound_to 10162
  139.4984  144.6645  151.6388 LP  0  0  0  0  0  0  0  0  0  0  0  0  # atno 17343 bound_to 10162
  157.7164  130.9503  150.1273 LP  0  0  0  0  0  0  0  0  0  0  0  0  # atno 17370 bound_to 10713
  156.2142  130.3669  149.8633 LP  0  0  0  0  0  0  0  0  0  0  0  0  # atno 17371 bound_to 10713
  140.7273  133.9089  155.8187 LP  0  0  0  0  0  0  0  0  0  0  0  0  # atno 17394 bound_to 11000
  141.0181  134.0927  157.4150 LP  0  0  0  0  0  0  0  0  0  0  0  0  # atno 17395 bound_to 11000

$$$$
