AV-unprocessed.smi:2556|AV-procd|sdf|10024|dock9
  -GOLD-   2272014 73D 1   1.00000     0.00000
 Structure written by MMmdl.
 35 37  0  0  0  0  0  0  0  0  1 V2000
  145.7543  141.3080  155.2427 C   0  0  0  0  0  0  0  0  0  0  0  0
  147.1360  140.9036  154.9750 N   0  0  0  0  0  0  0  0  0  0  0  0
  147.4784  140.1786  153.8593 C   0  0  0  0  0  0  0  0  0  0  0  0
  146.6538  139.8282  153.0159 O   0  0  0  0  0  0  0  0  0  0  0  0
  148.7962  139.8437  153.6975 N   0  0  0  0  0  0  0  0  0  0  0  0
  149.8314  140.1485  154.5176 C   0  0  0  0  0  0  0  0  0  0  0  0
  150.9944  139.8115  154.3050 O   0  0  0  0  0  0  0  0  0  0  0  0
  149.4202  140.9277  155.6890 C   0  0  0  0  0  0  0  0  0  0  0  0
  148.1314  141.2927  155.9140 C   0  0  0  0  0  0  0  0  0  0  0  0
  148.0150  142.0244  157.0908 N   0  0  0  0  0  0  0  0  0  0  0  0
  149.2780  142.0618  157.5215 C   0  0  0  0  0  0  0  0  0  0  0  0
  150.1798  141.4317  156.7404 N   0  0  0  0  0  0  0  0  0  0  0  0
  151.6110  141.3228  156.9757 C   0  0  0  0  0  0  0  0  0  0  0  0
  151.9455  140.8413  158.4017 C   0  0  1  0  0  0  0  0  0  0  0  0
  153.1070  140.0333  158.3778 O   0  0  0  0  0  0  0  0  0  0  0  0
  152.0760  142.0136  159.3617 C   0  0  0  0  0  0  0  0  0  0  0  0
  151.7763  143.3284  158.9408 C   0  0  0  0  0  0  0  0  0  0  0  0
  151.8912  144.4057  159.8407 C   0  0  0  0  0  0  0  0  0  0  0  0
  152.3029  144.1752  161.1673 C   0  0  0  0  0  0  0  0  0  0  0  0
  152.5989  142.8663  161.5935 C   0  0  0  0  0  0  0  0  0  0  0  0
  152.4845  141.7884  160.6939 C   0  0  0  0  0  0  0  0  0  0  0  0
  149.0222  139.3085  152.8718 H   0  0  0  0  0  0  0  0  0  0  0  0
  145.0343  140.9450  154.5085 H   0  0  0  0  0  0  0  0  0  0  0  0
  145.6821  142.3958  155.2621 H   0  0  0  0  0  0  0  0  0  0  0  0
  145.4389  140.9342  156.2174 H   0  0  0  0  0  0  0  0  0  0  0  0
  149.5572  142.5672  158.4346 H   0  0  0  0  0  0  0  0  0  0  0  0
  152.0316  140.6380  156.2378 H   0  0  0  0  0  0  0  0  0  0  0  0
  152.0667  142.2947  156.7838 H   0  0  0  0  0  0  0  0  0  0  0  0
  151.1371  140.2024  158.7584 H   0  0  0  0  0  0  0  0  0  0  0  0
  152.9120  139.2175  158.8134 H   0  0  0  0  0  0  0  0  0  0  0  0
  151.4542  143.5158  157.9267 H   0  0  0  0  0  0  0  0  0  0  0  0
  151.6613  145.4089  159.5134 H   0  0  0  0  0  0  0  0  0  0  0  0
  152.3893  145.0014  161.8575 H   0  0  0  0  0  0  0  0  0  0  0  0
  152.9121  142.6886  162.6118 H   0  0  0  0  0  0  0  0  0  0  0  0
  152.7093  140.7871  161.0317 H   0  0  0  0  0  0  0  0  0  0  0  0
  1  2  1  0  0  0  0
  1 23  1  0  0  0  0
  1 24  1  0  0  0  0
  1 25  1  0  0  0  0
  2  9  1  0  0  0  0
  2  3  1  0  0  0  0
  3  4  2  0  0  0  0
  3  5  1  0  0  0  0
  5 22  1  0  0  0  0
  5  6  1  0  0  0  0
  6  7  2  0  0  0  0
  6  8  1  0  0  0  0
  8 12  1  0  0  0  0
  8  9  2  0  0  0  0
  9 10  1  0  0  0  0
 10 11  2  0  0  0  0
 11 12  1  0  0  0  0
 11 26  1  0  0  0  0
 12 13  1  0  0  0  0
 13 14  1  0  0  0  0
 13 27  1  0  0  0  0
 13 28  1  0  0  0  0
 14 15  1  0  0  0  0
 14 16  1  0  0  0  0
 14 29  1  0  0  0  0
 15 30  1  0  0  0  0
 16 21  1  0  0  0  0
 16 17  2  0  0  0  0
 17 18  1  0  0  0  0
 17 31  1  0  0  0  0
 18 19  2  0  0  0  0
 18 32  1  0  0  0  0
 19 20  1  0  0  0  0
 19 33  1  0  0  0  0
 20 21  2  0  0  0  0
 20 34  1  0  0  0  0
 21 35  1  0  0  0  0
M  END
> <s_m_source_file>
AV-unprocessed.smi

> <i_m_source_file_index>
2556

> <i_lp_mmshare_version>
43012

> <i_f3d_flags>
0

> <s_epik_input>
Tz1jMVtuSF1jKD1PKW4oW0NIM10pYyhjMTIpbltjSF1uMltDSDJdW0NASF0oW09IXSljM1tjSF1bY0hdW2NIXVtjSF1bY0hdMw==

> <s_epik_cmdline>
J2VwaWtfcHl0aG9uJywgJy1waCcsICc3LjAnLCAnLXRuJywgJzgnLCAnLW1hJywgJzIwMCcsICctbWV0YWxfYmluZGluZycsICctaW1hZScsICc8aW5maWxlLm1hZT4nLCAnLW9tYWUnLCAnPG91dGZpbGUubWFlPic=

> <r_lp_tautomer_probability>
1

> <r_epik_Ionization_Penalty>
0.000177505

> <r_epik_Ionization_Penalty_Charging>
0.000176585

> <r_epik_Ionization_Penalty_Neutral>
9.19728e-07

> <r_epik_State_Penalty>
-0

> <r_epik_Charging_Adjusted_Penalty>
0.000176585

> <i_epik_Tot_Q>
0

> <i_epik_Tot_abs_Q>
0

> <r_epik_Metal_State_Penalty>
0.122509

> <b_epik_Metal_Only>
0

> <s_lp_Force_Field>
OPLS_2005

> <r_lp_Energy>
28.4521

> <b_lp_Chiralities_Consistent>
1

> <s_lp_Variant>
AV-unprocessed.smi:2556-2

> <Gold.Version>
5.8.1

> <Gold.Id.Protein>
6NUR|6NUR_protein|mol2

> <Gold.PLP.Fitness>
44.0581

> <Gold.PLP.PLP>
-38.3084

> <Gold.PLP.part.hbond>
-3.0000

> <Gold.PLP.part.metal>
0.0000

> <Gold.PLP.part.buried>
-5.0073

> <Gold.PLP.part.nonpolar>
-30.5982

> <Gold.PLP.part.repulsive>
0.6242

> <Gold.PLP.ligand.clash>
0.0000

> <Gold.PLP.ligand.torsion>
0.6152

> <Gold.PLP.Chemscore.Hbond>
2.3192

> <Gold.PLP.Chemscore.CHOScore>
0.0000

> <Gold.PLP.Chemscore.Metal>
0.0000

> <Gold.Chemscore.Hbonds>
donor molecule, donor type, donor heavy atom, donor atom, acceptor molecule, acceptor atom, score
      L1  H     5    22       P1  7957  0.53
      P1  H  7989  7998       L1     7  0.86
      P1  H  7997  8009       L1    15  1.00

> <Gold.PLP.Chemscore.Internal.Correction>
0.0224

> <Gold.Rescore>
     Score         DG    S(hbond)    S(metal)    S(lipo)     H(rot)  DE(clash)    DE(int)     intcor
     16.36     -17.34       2.36        0.00      84.46       2.31       0.35       0.62       ----

> <Gold.Chemscore.Fitness>
16.3649

> <Gold.Chemscore.DG>
-17.3353

> <Gold.Chemscore.ZeroCoef>
-5.4800

> <Gold.Chemscore.Hbond>
2.3626

> <Gold.Chemscore.Metal>
0.0000

> <Gold.Chemscore.Lipo>
84.4581

> <Gold.Chemscore.Internal_Hbond>
0.0000

> <Gold.Chemscore.DEClash>
0.3483

> <Gold.Chemscore.DEInternal>
0.6221

> <Gold.Chemscore.Rot>
2.3115

> <Gold.Chemscore.Internal.Correction>
   9.000000E+99

> <Gold.Chemscore.Hbonds>
donor molecule, donor type, donor heavy atom, donor atom, acceptor molecule, acceptor atom, score
      L1  H     5    22       P1  7957  0.53
      P1  H  7989  7998       L1     7  0.55
      P1  H  7997  8009       L1    15  0.89

> <Gold.Chemscore.Hbond.Weighted>
-7.8911

> <Gold.Chemscore.Metal.Weighted>
-0.0000

> <Gold.Chemscore.Lipo.Weighted>
-9.8816

> <Gold.Chemscore.Internal_Hbond.Weighted>
0.0000

> <Gold.Chemscore.DEClash.Weighted>
0.3483

> <Gold.Chemscore.DEInternal.Weighted>
0.6221

> <Gold.Chemscore.Rot.Weighted>
5.9174

> <Gold.Chemscore.Internal.Correction.Weighted>
   9.000000E+99

> <Gold.Protein.RotatedTorsions>
[ 6907 6896 6895 6894 ] final  -91.97 input  -60.11 | X-H torsion
[ 7974 7965 7964 7962 ] final   26.20 input  175.53 | X-H torsion
[ 8008 7997 7996 7995 ] final  152.69 input   59.86 | X-H torsion
[ 10167 10162 10161 10158 ] final  -29.33 input  -65.29 | X-H torsion
[ 10718 10713 10712 10709 ] final  -11.50 input   66.30 | X-H torsion
[ 10763 10752 10751 10750 ] final -170.53 input  -60.55 | X-H torsion
[ 11005 11000 10999 10996 ] final  161.96 input  -57.11 | X-H torsion

> <Gold.Protein.ActiveResidues>
 VAL166  LYS551  ARG553  GLY616  TRP617  ASP618  TYR619  PRO620  LYS621  CYS622 
 ASP623  PHE694  ASN695  SER759  ASP760  ASP761  ALA762  ILE779  LEU786  VAL792 
 PHE793  MET794  SER795  GLU796  ALA797  LYS798  CYS799  TRP800  GLU811  SER814 

> <Gold.Protein.RotatedAtoms>
  150.6899  134.2195  159.4390 H   0  0  0  0  0  0  0  0  0  0  0  0  # atno 6907 bound_to 6896
  152.0152  134.9851  160.0578 H   0  0  0  0  0  0  0  0  0  0  0  0  # atno 6908 bound_to 6896
  152.1450  133.4452  159.4822 H   0  0  0  0  0  0  0  0  0  0  0  0  # atno 6909 bound_to 6896
  146.1850  139.7361  142.8873 H   0  0  0  0  0  0  0  0  0  0  0  0  # atno 7974 bound_to 7965
  156.2617  140.2014  156.6373 H   0  0  0  0  0  0  0  0  0  0  0  0  # atno 8008 bound_to 7997
  154.6636  140.0558  157.0114 H   0  0  0  0  0  0  0  0  0  0  0  0  # atno 8009 bound_to 7997
  155.1239  140.3227  155.4493 H   0  0  0  0  0  0  0  0  0  0  0  0  # atno 8010 bound_to 7997
  140.7261  143.3937  151.1385 H   0  0  0  0  0  0  0  0  0  0  0  0  # atno 10167 bound_to 10162
  156.6581  130.4974  149.6039 H   0  0  0  0  0  0  0  0  0  0  0  0  # atno 10718 bound_to 10713
  154.6404  135.2898  155.0110 H   0  0  0  0  0  0  0  0  0  0  0  0  # atno 10763 bound_to 10752
  154.1238  135.6544  153.4912 H   0  0  0  0  0  0  0  0  0  0  0  0  # atno 10764 bound_to 10752
  153.0324  135.5294  154.7269 H   0  0  0  0  0  0  0  0  0  0  0  0  # atno 10765 bound_to 10752
  140.2210  134.8196  157.3220 H   0  0  0  0  0  0  0  0  0  0  0  0  # atno 11005 bound_to 11000
  145.3966  141.0379  143.3094 LP  0  0  0  0  0  0  0  0  0  0  0  0  # atno 17320 bound_to 7965
  144.8380  139.5518  143.6913 LP  0  0  0  0  0  0  0  0  0  0  0  0  # atno 17321 bound_to 7965
  139.7546  143.8726  152.3085 LP  0  0  0  0  0  0  0  0  0  0  0  0  # atno 17342 bound_to 10162
  139.8592  144.7126  150.9120 LP  0  0  0  0  0  0  0  0  0  0  0  0  # atno 17343 bound_to 10162
  156.2032  130.6633  151.1190 LP  0  0  0  0  0  0  0  0  0  0  0  0  # atno 17370 bound_to 10713
  157.7119  131.0730  150.6470 LP  0  0  0  0  0  0  0  0  0  0  0  0  # atno 17371 bound_to 10713
  140.1849  134.4443  155.7749 LP  0  0  0  0  0  0  0  0  0  0  0  0  # atno 17394 bound_to 11000
  141.2223  133.7000  156.7931 LP  0  0  0  0  0  0  0  0  0  0  0  0  # atno 17395 bound_to 11000

$$$$
