AV-unprocessed.smi:2819|AV-procd|sdf|10850|dock6
  -GOLD-   2272015293D 1   1.00000     0.00000
 Structure written by MMmdl.
 50 51  0  0  0  0  0  0  0  0  2 V2000
  153.4548  140.7527  160.1843 C   0  0  0  0  0  0  0  0  0  0  0  0
  152.9606  142.0677  160.5816 N   0  0  0  0  0  0  0  0  0  0  0  0
  153.0989  142.5110  161.9632 C   0  0  0  0  0  0  0  0  0  0  0  0
  152.2419  142.8565  159.6557 C   0  0  0  0  0  0  0  0  0  0  0  0
  152.5176  144.2267  159.4606 C   0  0  0  0  0  0  0  0  0  0  0  0
  151.7352  144.9133  158.5154 C   0  0  0  0  0  0  0  0  0  0  0  0
  150.7616  144.2680  157.8293 N   0  3  0  0  0  0  0  0  0  0  0  0
  150.5412  142.9624  158.0481 C   0  0  0  0  0  0  0  0  0  0  0  0
  149.5347  142.3738  157.3129 N   0  0  0  0  0  0  0  0  0  0  0  0
  149.1209  141.0927  157.2697 C   0  0  0  0  0  0  0  0  0  0  0  0
  149.6099  140.1641  157.9150 O   0  0  0  0  0  0  0  0  0  0  0  0
  148.0974  140.9421  156.4164 N   0  0  0  0  0  0  0  0  0  0  0  0
  147.4192  139.6826  156.1081 C   0  0  0  0  0  0  0  0  0  0  0  0
  148.0896  138.9028  154.9381 C   0  0  0  0  0  0  0  0  0  0  0  0
  147.2856  137.5893  154.7622 C   0  0  0  0  0  0  0  0  0  0  0  0
  147.8771  139.7396  153.6532 C   0  0  0  0  0  0  0  0  0  0  0  0
  149.5256  138.6181  155.2178 N   0  0  0  0  0  0  0  0  0  0  0  0
  149.7652  137.5151  156.1564 C   0  0  0  0  0  0  0  0  0  0  0  0
  151.2578  137.3515  156.4905 C   0  0  0  0  0  0  0  0  0  0  0  0
  152.0000  137.1594  155.2925 O   0  0  0  0  0  0  0  0  0  0  0  0
  151.8428  138.2372  154.3782 C   0  0  0  0  0  0  0  0  0  0  0  0
  150.3552  138.4045  154.0257 C   0  0  0  0  0  0  0  0  0  0  0  0
  151.2596  142.2628  158.9405 N   0  0  0  0  0  0  0  0  0  0  0  0
  154.1238  140.8363  159.3272 H   0  0  0  0  0  0  0  0  0  0  0  0
  152.6261  140.0975  159.9140 H   0  0  0  0  0  0  0  0  0  0  0  0
  154.0095  140.2752  160.9921 H   0  0  0  0  0  0  0  0  0  0  0  0
  152.1193  142.6568  162.4193 H   0  0  0  0  0  0  0  0  0  0  0  0
  153.6508  143.4501  162.0119 H   0  0  0  0  0  0  0  0  0  0  0  0
  153.6383  141.7772  162.5627 H   0  0  0  0  0  0  0  0  0  0  0  0
  153.2922  144.7491  160.0021 H   0  0  0  0  0  0  0  0  0  0  0  0
  151.8567  145.9617  158.2848 H   0  0  0  0  0  0  0  0  0  0  0  0
  149.0305  143.0057  156.7093 H   0  0  0  0  0  0  0  0  0  0  0  0
  147.7664  141.7574  155.9212 H   0  0  0  0  0  0  0  0  0  0  0  0
  147.3589  139.0524  156.9974 H   0  0  0  0  0  0  0  0  0  0  0  0
  146.3807  139.9156  155.8747 H   0  0  0  0  0  0  0  0  0  0  0  0
  146.2113  137.7768  154.7438 H   0  0  0  0  0  0  0  0  0  0  0  0
  147.4793  136.8854  155.5722 H   0  0  0  0  0  0  0  0  0  0  0  0
  147.5205  137.0839  153.8253 H   0  0  0  0  0  0  0  0  0  0  0  0
  146.8160  139.9179  153.4741 H   0  0  0  0  0  0  0  0  0  0  0  0
  148.2639  139.2395  152.7657 H   0  0  0  0  0  0  0  0  0  0  0  0
  148.3524  140.7185  153.7153 H   0  0  0  0  0  0  0  0  0  0  0  0
  149.2337  137.6774  157.0924 H   0  0  0  0  0  0  0  0  0  0  0  0
  149.3951  136.5781  155.7401 H   0  0  0  0  0  0  0  0  0  0  0  0
  151.6326  138.2266  157.0235 H   0  0  0  0  0  0  0  0  0  0  0  0
  151.4075  136.4912  157.1431 H   0  0  0  0  0  0  0  0  0  0  0  0
  152.2422  139.1549  154.8124 H   0  0  0  0  0  0  0  0  0  0  0  0
  152.4234  138.0289  153.4794 H   0  0  0  0  0  0  0  0  0  0  0  0
  150.0213  137.5171  153.4878 H   0  0  0  0  0  0  0  0  0  0  0  0
  150.2711  139.2423  153.3363 H   0  0  0  0  0  0  0  0  0  0  0  0
  150.2055  144.7866  157.1489 H   0  0  0  0  0  0  0  0  0  0  0  0
  1  2  1  0  0  0  0
  1 24  1  0  0  0  0
  1 25  1  0  0  0  0
  1 26  1  0  0  0  0
  2  3  1  0  0  0  0
  2  4  1  0  0  0  0
  3 27  1  0  0  0  0
  3 28  1  0  0  0  0
  3 29  1  0  0  0  0
  4 23  1  0  0  0  0
  4  5  2  0  0  0  0
  5  6  1  0  0  0  0
  5 30  1  0  0  0  0
  6  7  2  0  0  0  0
  6 31  1  0  0  0  0
  7  8  1  0  0  0  0
  7 50  1  0  0  0  0
  8  9  1  0  0  0  0
  8 23  2  0  0  0  0
  9 10  1  0  0  0  0
  9 32  1  0  0  0  0
 10 11  2  0  0  0  0
 10 12  1  0  0  0  0
 12 13  1  0  0  0  0
 12 33  1  0  0  0  0
 13 14  1  0  0  0  0
 13 34  1  0  0  0  0
 13 35  1  0  0  0  0
 14 15  1  0  0  0  0
 14 16  1  0  0  0  0
 14 17  1  0  0  0  0
 15 36  1  0  0  0  0
 15 37  1  0  0  0  0
 15 38  1  0  0  0  0
 16 39  1  0  0  0  0
 16 40  1  0  0  0  0
 16 41  1  0  0  0  0
 17 22  1  0  0  0  0
 17 18  1  0  0  0  0
 18 19  1  0  0  0  0
 18 42  1  0  0  0  0
 18 43  1  0  0  0  0
 19 20  1  0  0  0  0
 19 44  1  0  0  0  0
 19 45  1  0  0  0  0
 20 21  1  0  0  0  0
 21 22  1  0  0  0  0
 21 46  1  0  0  0  0
 21 47  1  0  0  0  0
 22 48  1  0  0  0  0
 22 49  1  0  0  0  0
M  CHG  1   7   1
M  END
> <s_m_source_file>
AV-unprocessed.smi

> <i_m_source_file_index>
2819

> <i_lp_mmshare_version>
43012

> <i_f3d_flags>
0

> <s_epik_input>
W0NIM11OKFtDSDNdKWMxW2NIXVtjSF1uYyhuMSlbTkhdQyg9TylbTkhdW0NIMl1DKFtDSDNdKShbQ0gzXSlOMltDSDJdW0NIMl1PW0NIMl1bQ0gyXTI=

> <s_epik_cmdline>
J2VwaWtfcHl0aG9uJywgJy1waCcsICc3LjAnLCAnLXRuJywgJzgnLCAnLW1hJywgJzIwMCcsICctbWV0YWxfYmluZGluZycsICctaW1hZScsICc8aW5maWxlLm1hZT4nLCAnLW9tYWUnLCAnPG91dGZpbGUubWFlPic=

> <r_lp_tautomer_probability>
0.999336

> <r_epik_Ionization_Penalty>
0.36245

> <r_epik_Ionization_Penalty_Charging>
0.09642

> <r_epik_Ionization_Penalty_Neutral>
0.26603

> <r_epik_State_Penalty>
0.34182

> <r_epik_Charging_Adjusted_Penalty>
0.43824

> <i_epik_Tot_Q>
1

> <i_epik_Tot_abs_Q>
1

> <r_epik_Metal_State_Penalty>
0.680072

> <b_epik_Metal_Only>
0

> <s_lp_Force_Field>
OPLS_2005

> <r_lp_Energy>
46.6514

> <b_lp_Chiralities_Consistent>
1

> <s_lp_Variant>
AV-unprocessed.smi:2819-1

> <Gold.Version>
5.8.1

> <Gold.Id.Protein>
6NUR|6NUR_protein|mol2

> <Gold.PLP.Fitness>
48.7431

> <Gold.PLP.PLP>
-40.3062

> <Gold.PLP.part.hbond>
-3.0000

> <Gold.PLP.part.metal>
0.0000

> <Gold.PLP.part.buried>
-5.6822

> <Gold.PLP.part.nonpolar>
-32.5912

> <Gold.PLP.part.repulsive>
0.2302

> <Gold.PLP.ligand.clash>
0.0000

> <Gold.PLP.ligand.torsion>
1.6939

> <Gold.PLP.Chemscore.Hbond>
3.8960

> <Gold.PLP.Chemscore.CHOScore>
0.0000

> <Gold.PLP.Chemscore.Metal>
0.0000

> <Gold.Chemscore.Hbonds>
donor molecule, donor type, donor heavy atom, donor atom, acceptor molecule, acceptor atom, score
      L1  H     7    50       P1  8028  1.98
      L1  H     9    32       P1  8028  1.00
      P1  H 10752 10763       L1    20  0.93

> <Gold.PLP.Chemscore.Internal.Correction>
0.1367

> <Gold.Rescore>
     Score         DG    S(hbond)    S(metal)    S(lipo)     H(rot)  DE(clash)    DE(int)     intcor
     16.80     -19.83       2.60        0.00      81.79       1.53       0.13       2.90       ----

> <Gold.Chemscore.Fitness>
16.7983

> <Gold.Chemscore.DG>
-19.8259

> <Gold.Chemscore.ZeroCoef>
-5.4800

> <Gold.Chemscore.Hbond>
2.6014

> <Gold.Chemscore.Metal>
0.0000

> <Gold.Chemscore.Lipo>
81.7883

> <Gold.Chemscore.Internal_Hbond>
0.0000

> <Gold.Chemscore.DEClash>
0.1308

> <Gold.Chemscore.DEInternal>
2.8968

> <Gold.Chemscore.Rot>
1.5282

> <Gold.Chemscore.Internal.Correction>
   9.000000E+99

> <Gold.Chemscore.Hbonds>
donor molecule, donor type, donor heavy atom, donor atom, acceptor molecule, acceptor atom, score
      L1  H     7    50       P1  8028  0.28
      L1  H     9    32       P1  8028  0.89
      P1  H 10752 10763       L1    20  0.86

> <Gold.Chemscore.Hbond.Weighted>
-8.6888

> <Gold.Chemscore.Metal.Weighted>
-0.0000

> <Gold.Chemscore.Lipo.Weighted>
-9.5692

> <Gold.Chemscore.Internal_Hbond.Weighted>
0.0000

> <Gold.Chemscore.DEClash.Weighted>
0.1308

> <Gold.Chemscore.DEInternal.Weighted>
2.8968

> <Gold.Chemscore.Rot.Weighted>
3.9121

> <Gold.Chemscore.Internal.Correction.Weighted>
   9.000000E+99

> <Gold.Protein.RotatedTorsions>
[ 6907 6896 6895 6894 ] final  169.47 input  -60.11 | X-H torsion
[ 7974 7965 7964 7962 ] final -175.82 input  175.53 | X-H torsion
[ 8008 7997 7996 7995 ] final  -27.93 input   59.86 | X-H torsion
[ 10167 10162 10161 10158 ] final  -59.99 input  -65.29 | X-H torsion
[ 10718 10713 10712 10709 ] final  114.54 input   66.30 | X-H torsion
[ 10763 10752 10751 10750 ] final   69.23 input  -60.55 | X-H torsion
[ 11005 11000 10999 10996 ] final -128.40 input  -57.11 | X-H torsion

> <Gold.Protein.ActiveResidues>
 VAL166  LYS551  ARG553  GLY616  TRP617  ASP618  TYR619  PRO620  LYS621  CYS622 
 ASP623  PHE694  ASN695  SER759  ASP760  ASP761  ALA762  ILE779  LEU786  VAL792 
 PHE793  MET794  SER795  GLU796  ALA797  LYS798  CYS799  TRP800  GLU811  SER814 

> <Gold.Protein.RotatedAtoms>
  151.8314  133.3409  159.3614 H   0  0  0  0  0  0  0  0  0  0  0  0  # atno 6907 bound_to 6896
  150.7263  134.5479  159.5789 H   0  0  0  0  0  0  0  0  0  0  0  0  # atno 6908 bound_to 6896
  152.2933  134.7697  160.0424 H   0  0  0  0  0  0  0  0  0  0  0  0  # atno 6909 bound_to 6896
  144.7127  140.1264  143.6402 H   0  0  0  0  0  0  0  0  0  0  0  0  # atno 7974 bound_to 7965
  154.4355  140.1859  156.1009 H   0  0  0  0  0  0  0  0  0  0  0  0  # atno 8008 bound_to 7997
  156.0293  140.3332  155.7096 H   0  0  0  0  0  0  0  0  0  0  0  0  # atno 8009 bound_to 7997
  155.5863  140.0626  157.2761 H   0  0  0  0  0  0  0  0  0  0  0  0  # atno 8010 bound_to 7997
  140.6100  143.2384  151.5731 H   0  0  0  0  0  0  0  0  0  0  0  0  # atno 10167 bound_to 10162
  157.6275  131.1000  150.7200 H   0  0  0  0  0  0  0  0  0  0  0  0  # atno 10718 bound_to 10713
  153.0276  135.5218  154.7256 H   0  0  0  0  0  0  0  0  0  0  0  0  # atno 10763 bound_to 10752
  154.6299  135.2899  155.0231 H   0  0  0  0  0  0  0  0  0  0  0  0  # atno 10764 bound_to 10752
  154.1187  135.6611  153.4951 H   0  0  0  0  0  0  0  0  0  0  0  0  # atno 10765 bound_to 10752
  140.9519  134.1053  157.4053 H   0  0  0  0  0  0  0  0  0  0  0  0  # atno 11005 bound_to 11000
  145.9326  139.2616  143.1316 LP  0  0  0  0  0  0  0  0  0  0  0  0  # atno 17320 bound_to 7965
  145.9507  140.8910  143.0260 LP  0  0  0  0  0  0  0  0  0  0  0  0  # atno 17321 bound_to 7965
  139.5354  144.2796  152.1239 LP  0  0  0  0  0  0  0  0  0  0  0  0  # atno 17342 bound_to 10162
  140.1994  144.4673  150.6439 LP  0  0  0  0  0  0  0  0  0  0  0  0  # atno 17343 bound_to 10162
  156.7546  130.4779  149.5449 LP  0  0  0  0  0  0  0  0  0  0  0  0  # atno 17370 bound_to 10713
  156.1456  130.6275  151.0527 LP  0  0  0  0  0  0  0  0  0  0  0  0  # atno 17371 bound_to 10713
  139.8850  135.0068  156.6407 LP  0  0  0  0  0  0  0  0  0  0  0  0  # atno 17394 bound_to 11000
  140.7590  133.8834  155.8403 LP  0  0  0  0  0  0  0  0  0  0  0  0  # atno 17395 bound_to 11000

$$$$
