AV-unprocessed.smi:2276|AV-procd|sdf|9172|dock8
  -GOLD-   2272012383D 1   1.00000     0.00000
 Structure written by MMmdl.
 53 54  0  0  0  0  0  0  0  0  2 V2000
  145.2922  131.7427  150.6626 C   0  0  0  0  0  0  0  0  0  0  0  0
  146.1408  131.8106  151.9148 C   0  0  0  0  0  0  0  0  0  0  0  0
  146.0671  130.8014  152.8940 C   0  0  0  0  0  0  0  0  0  0  0  0
  146.8820  130.9222  154.0362 C   0  0  0  0  0  0  0  0  0  0  0  0
  146.8503  129.8745  155.1290 C   0  0  0  0  0  0  0  0  0  0  0  0
  147.7231  131.9596  154.2341 N   0  0  0  0  0  0  0  0  0  0  0  0
  147.8087  132.9336  153.2937 C   0  0  0  0  0  0  0  0  0  0  0  0
  148.6470  134.0726  153.4198 N   0  0  0  0  0  0  0  0  0  0  0  0
  149.4893  134.3613  154.4266 C   0  0  0  0  0  0  0  0  0  0  0  0
  149.8635  133.5633  155.2868 O   0  0  0  0  0  0  0  0  0  0  0  0
  149.8612  135.6496  154.3971 N   0  0  0  0  0  0  0  0  0  0  0  0
  150.6498  136.3361  155.4192 C   0  0  0  0  0  0  0  0  0  0  0  0
  151.0501  137.7626  154.9776 C   0  0  2  0  0  0  0  0  0  0  0  0
  152.3290  138.2106  155.7024 C   0  0  0  0  0  0  0  0  0  0  0  0
  149.9124  138.7869  155.2182 C   0  0  0  0  0  0  0  0  0  0  0  0
  150.1780  140.1148  154.6565 N   0  0  0  0  0  0  0  0  0  0  0  0
  148.9813  140.8790  154.2779 C   0  0  0  0  0  0  0  0  0  0  0  0
  148.1337  141.2996  155.4982 C   0  0  0  0  0  0  0  0  0  0  0  0
  148.9466  142.0857  156.4542 N   0  3  0  0  0  0  0  0  0  0  0  0
  148.1650  142.5289  157.6280 C   0  0  0  0  0  0  0  0  0  0  0  0
  150.1752  141.3487  156.8322 C   0  0  0  0  0  0  0  0  0  0  0  0
  150.9729  140.9373  155.5738 C   0  0  0  0  0  0  0  0  0  0  0  0
  147.0225  132.8908  152.1208 C   0  0  0  0  0  0  0  0  0  0  0  0
  144.6026  130.8986  150.6961 H   0  0  0  0  0  0  0  0  0  0  0  0
  145.9262  131.6316  149.7829 H   0  0  0  0  0  0  0  0  0  0  0  0
  144.7071  132.6557  150.5518 H   0  0  0  0  0  0  0  0  0  0  0  0
  145.4046  129.9567  152.7725 H   0  0  0  0  0  0  0  0  0  0  0  0
  146.3549  128.9651  154.7878 H   0  0  0  0  0  0  0  0  0  0  0  0
  146.3115  130.2512  155.9982 H   0  0  0  0  0  0  0  0  0  0  0  0
  147.8625  129.6122  155.4385 H   0  0  0  0  0  0  0  0  0  0  0  0
  148.5122  134.7904  152.7232 H   0  0  0  0  0  0  0  0  0  0  0  0
  149.5188  136.2207  153.6383 H   0  0  0  0  0  0  0  0  0  0  0  0
  150.1252  136.3611  156.3759 H   0  0  0  0  0  0  0  0  0  0  0  0
  151.5459  135.7364  155.5809 H   0  0  0  0  0  0  0  0  0  0  0  0
  151.2914  137.7020  153.9176 H   0  0  0  0  0  0  0  0  0  0  0  0
  152.1809  138.2519  156.7819 H   0  0  0  0  0  0  0  0  0  0  0  0
  152.6419  139.2010  155.3707 H   0  0  0  0  0  0  0  0  0  0  0  0
  153.1539  137.5249  155.5068 H   0  0  0  0  0  0  0  0  0  0  0  0
  148.9702  138.4206  154.8275 H   0  0  0  0  0  0  0  0  0  0  0  0
  149.7547  138.8784  156.2937 H   0  0  0  0  0  0  0  0  0  0  0  0
  149.3047  141.7717  153.7410 H   0  0  0  0  0  0  0  0  0  0  0  0
  148.3670  140.3211  153.5736 H   0  0  0  0  0  0  0  0  0  0  0  0
  147.2954  141.9093  155.1597 H   0  0  0  0  0  0  0  0  0  0  0  0
  147.6985  140.4348  155.9977 H   0  0  0  0  0  0  0  0  0  0  0  0
  147.8061  141.6739  158.2017 H   0  0  0  0  0  0  0  0  0  0  0  0
  147.3013  143.1165  157.3155 H   0  0  0  0  0  0  0  0  0  0  0  0
  148.7738  143.1510  158.2847 H   0  0  0  0  0  0  0  0  0  0  0  0
  150.7966  141.9905  157.4576 H   0  0  0  0  0  0  0  0  0  0  0  0
  149.9204  140.4804  157.4412 H   0  0  0  0  0  0  0  0  0  0  0  0
  151.8777  140.3995  155.8591 H   0  0  0  0  0  0  0  0  0  0  0  0
  151.3047  141.8308  155.0432 H   0  0  0  0  0  0  0  0  0  0  0  0
  147.0933  133.6769  151.3828 H   0  0  0  0  0  0  0  0  0  0  0  0
  149.2458  142.9176  155.9660 H   0  0  0  0  0  0  0  0  0  0  0  0
  1  2  1  0  0  0  0
  1 24  1  0  0  0  0
  1 25  1  0  0  0  0
  1 26  1  0  0  0  0
  2 23  1  0  0  0  0
  2  3  2  0  0  0  0
  3  4  1  0  0  0  0
  3 27  1  0  0  0  0
  4  5  1  0  0  0  0
  4  6  2  0  0  0  0
  5 28  1  0  0  0  0
  5 29  1  0  0  0  0
  5 30  1  0  0  0  0
  6  7  1  0  0  0  0
  7  8  1  0  0  0  0
  7 23  2  0  0  0  0
  8  9  1  0  0  0  0
  8 31  1  0  0  0  0
  9 10  2  0  0  0  0
  9 11  1  0  0  0  0
 11 12  1  0  0  0  0
 11 32  1  0  0  0  0
 12 13  1  0  0  0  0
 12 33  1  0  0  0  0
 12 34  1  0  0  0  0
 13 14  1  0  0  0  0
 13 15  1  0  0  0  0
 13 35  1  0  0  0  0
 14 36  1  0  0  0  0
 14 37  1  0  0  0  0
 14 38  1  0  0  0  0
 15 16  1  0  0  0  0
 15 39  1  0  0  0  0
 15 40  1  0  0  0  0
 16 22  1  0  0  0  0
 16 17  1  0  0  0  0
 17 18  1  0  0  0  0
 17 41  1  0  0  0  0
 17 42  1  0  0  0  0
 18 19  1  0  0  0  0
 18 43  1  0  0  0  0
 18 44  1  0  0  0  0
 19 20  1  0  0  0  0
 19 21  1  0  0  0  0
 19 53  1  0  0  0  0
 20 45  1  0  0  0  0
 20 46  1  0  0  0  0
 20 47  1  0  0  0  0
 21 22  1  0  0  0  0
 21 48  1  0  0  0  0
 21 49  1  0  0  0  0
 22 50  1  0  0  0  0
 22 51  1  0  0  0  0
 23 52  1  0  0  0  0
M  CHG  1  19   1
M  END
> <s_m_source_file>
AV-unprocessed.smi

> <i_m_source_file_index>
2276

> <i_lp_mmshare_version>
43012

> <i_f3d_flags>
0

> <s_epik_input>
W0NIM11jMVtjSF1jKFtDSDNdKW5jKFtjSF0xKVtOSF1DKD1PKVtOSF1bQ0gyXVtDQEhdKFtDSDNdKVtDSDJdTjJbQ0gyXVtDSDJdTihbQ0gzXSlbQ0gyXVtDSDJdMg==

> <s_epik_cmdline>
J2VwaWtfcHl0aG9uJywgJy1waCcsICc3LjAnLCAnLXRuJywgJzgnLCAnLW1hJywgJzIwMCcsICctbWV0YWxfYmluZGluZycsICctaW1hZScsICc8aW5maWxlLm1hZT4nLCAnLW9tYWUnLCAnPG91dGZpbGUubWFlPic=

> <r_epik_Ionization_Penalty>
0.0247364

> <r_epik_Ionization_Penalty_Charging>
0.0230248

> <r_epik_Ionization_Penalty_Neutral>
0.00171164

> <r_epik_State_Penalty>
0.239056

> <r_epik_Charging_Adjusted_Penalty>
0.262081

> <i_epik_Tot_Q>
1

> <i_epik_Tot_abs_Q>
1

> <r_epik_Metal_State_Penalty>
0.239048

> <b_epik_Metal_Only>
0

> <s_lp_Force_Field>
OPLS_2005

> <r_lp_Energy>
20.3682

> <b_lp_Chiralities_Consistent>
1

> <s_lp_Variant>
AV-unprocessed.smi:2276-1

> <Gold.Version>
5.8.1

> <Gold.Id.Protein>
6NUR|6NUR_protein|mol2

> <Gold.PLP.Fitness>
46.0570

> <Gold.PLP.PLP>
-35.6026

> <Gold.PLP.part.hbond>
-4.6169

> <Gold.PLP.part.metal>
0.0000

> <Gold.PLP.part.buried>
-2.9984

> <Gold.PLP.part.nonpolar>
-28.9088

> <Gold.PLP.part.repulsive>
0.2270

> <Gold.PLP.ligand.clash>
0.0000

> <Gold.PLP.ligand.torsion>
0.6086

> <Gold.PLP.Chemscore.Hbond>
3.8800

> <Gold.PLP.Chemscore.CHOScore>
0.0000

> <Gold.PLP.Chemscore.Metal>
0.0000

> <Gold.Chemscore.Hbonds>
donor molecule, donor type, donor heavy atom, donor atom, acceptor molecule, acceptor atom, score
      L1  H     8    31       P1  7948  1.00
      L1  H    11    32       P1  7948  0.90
      L1  H    19    53       P1  8028  1.79

> <Gold.PLP.Chemscore.Internal.Correction>
0.0316

> <Gold.Rescore>
     Score         DG    S(hbond)    S(metal)    S(lipo)     H(rot)  DE(clash)    DE(int)     intcor
     15.92     -18.13       2.28        0.00      78.67       1.63       0.23       1.99       ----

> <Gold.Chemscore.Fitness>
15.9228

> <Gold.Chemscore.DG>
-18.1349

> <Gold.Chemscore.ZeroCoef>
-5.4800

> <Gold.Chemscore.Hbond>
2.2812

> <Gold.Chemscore.Metal>
0.0000

> <Gold.Chemscore.Lipo>
78.6655

> <Gold.Chemscore.Internal_Hbond>
0.0000

> <Gold.Chemscore.DEClash>
0.2263

> <Gold.Chemscore.DEInternal>
1.9857

> <Gold.Chemscore.Rot>
1.6282

> <Gold.Chemscore.Internal.Correction>
   9.000000E+99

> <Gold.Chemscore.Hbonds>
donor molecule, donor type, donor heavy atom, donor atom, acceptor molecule, acceptor atom, score
      L1  H     8    31       P1  7948  0.29
      L1  H    11    32       P1  7948  0.53
      L1  H    19    53       P1  8028  0.88

> <Gold.Chemscore.Hbond.Weighted>
-7.6192

> <Gold.Chemscore.Metal.Weighted>
-0.0000

> <Gold.Chemscore.Lipo.Weighted>
-9.2039

> <Gold.Chemscore.Internal_Hbond.Weighted>
0.0000

> <Gold.Chemscore.DEClash.Weighted>
0.2263

> <Gold.Chemscore.DEInternal.Weighted>
1.9857

> <Gold.Chemscore.Rot.Weighted>
4.1682

> <Gold.Chemscore.Internal.Correction.Weighted>
   9.000000E+99

> <Gold.Protein.RotatedTorsions>
[ 6907 6896 6895 6894 ] final   96.56 input  -60.11 | X-H torsion
[ 7974 7965 7964 7962 ] final  -17.69 input  175.53 | X-H torsion
[ 8008 7997 7996 7995 ] final  -49.84 input   59.86 | X-H torsion
[ 10167 10162 10161 10158 ] final  -84.66 input  -65.29 | X-H torsion
[ 10718 10713 10712 10709 ] final  -54.36 input   66.30 | X-H torsion
[ 10763 10752 10751 10750 ] final -154.74 input  -60.55 | X-H torsion
[ 11005 11000 10999 10996 ] final -169.30 input  -57.11 | X-H torsion

> <Gold.Protein.ActiveResidues>
 VAL166  LYS551  ARG553  GLY616  TRP617  ASP618  TYR619  PRO620  LYS621  CYS622 
 ASP623  PHE694  ASN695  SER759  ASP760  ASP761  ALA762  ILE779  LEU786  VAL792 
 PHE793  MET794  SER795  GLU796  ALA797  LYS798  CYS799  TRP800  GLU811  SER814 

> <Gold.Protein.RotatedAtoms>
  152.5433  134.0868  159.8259 H   0  0  0  0  0  0  0  0  0  0  0  0  # atno 6907 bound_to 6896
  151.0963  133.5270  159.2619 H   0  0  0  0  0  0  0  0  0  0  0  0  # atno 6908 bound_to 6896
  151.2042  135.0464  159.8939 H   0  0  0  0  0  0  0  0  0  0  0  0  # atno 6909 bound_to 6896
  146.1929  140.3814  142.8451 H   0  0  0  0  0  0  0  0  0  0  0  0  # atno 7974 bound_to 7965
  154.4051  140.1287  156.4568 H   0  0  0  0  0  0  0  0  0  0  0  0  # atno 8008 bound_to 7997
  155.7312  140.3491  155.5040 H   0  0  0  0  0  0  0  0  0  0  0  0  # atno 8009 bound_to 7997
  155.9126  140.1038  157.1258 H   0  0  0  0  0  0  0  0  0  0  0  0  # atno 8010 bound_to 7997
  140.4111  143.2622  151.9016 H   0  0  0  0  0  0  0  0  0  0  0  0  # atno 10167 bound_to 10162
  156.1457  130.4153  150.0028 H   0  0  0  0  0  0  0  0  0  0  0  0  # atno 10718 bound_to 10713
  154.7837  135.3183  154.7933 H   0  0  0  0  0  0  0  0  0  0  0  0  # atno 10763 bound_to 10752
  153.8639  135.6851  153.4784 H   0  0  0  0  0  0  0  0  0  0  0  0  # atno 10764 bound_to 10752
  153.1481  135.4710  154.9535 H   0  0  0  0  0  0  0  0  0  0  0  0  # atno 10765 bound_to 10752
  140.5322  134.5604  157.5078 H   0  0  0  0  0  0  0  0  0  0  0  0  # atno 11005 bound_to 11000
  144.8522  140.7017  143.6161 LP  0  0  0  0  0  0  0  0  0  0  0  0  # atno 17320 bound_to 7965
  145.3736  139.1653  143.4318 LP  0  0  0  0  0  0  0  0  0  0  0  0  # atno 17321 bound_to 7965
  139.4782  144.5536  151.8348 LP  0  0  0  0  0  0  0  0  0  0  0  0  # atno 17342 bound_to 10162
  140.4637  144.1686  150.5909 LP  0  0  0  0  0  0  0  0  0  0  0  0  # atno 17343 bound_to 10162
  156.7900  130.9253  151.3646 LP  0  0  0  0  0  0  0  0  0  0  0  0  # atno 17370 bound_to 10713
  157.6614  130.8970  149.9839 LP  0  0  0  0  0  0  0  0  0  0  0  0  # atno 17371 bound_to 10713
  139.9548  134.7554  156.0367 LP  0  0  0  0  0  0  0  0  0  0  0  0  # atno 17394 bound_to 11000
  141.1275  133.6595  156.3374 LP  0  0  0  0  0  0  0  0  0  0  0  0  # atno 17395 bound_to 11000

$$$$
