AV-unprocessed.smi:180|AV-procd|sdf|1451|dock7
  -GOLD-   2262019253D 1   1.00000     0.00000
 Structure written by MMmdl.
 54 57  0  0  0  0  0  0  0  0  1 V2000
  145.5309  135.7105  150.5615 C   0  0  0  0  0  0  0  0  0  0  0  0
  145.2400  135.7907  152.0566 C   0  0  0  0  0  0  0  0  0  0  0  0
  144.0922  136.0028  152.4458 O   0  0  0  0  0  0  0  0  0  0  0  0
  146.2853  135.6215  152.8807 N   0  0  0  0  0  0  0  0  0  0  0  0
  146.2220  135.6404  154.3397 C   0  0  0  0  0  0  0  0  0  0  0  0
  147.6110  135.5504  155.0013 C   0  0  2  0  0  0  0  0  0  0  0  0
  148.5241  136.7527  154.6826 C   0  0  0  0  0  0  0  0  0  0  0  0
  149.8361  136.5667  155.2974 N   0  0  0  0  0  0  0  0  0  0  0  0
  150.6795  137.6304  155.3342 C   0  0  0  0  0  0  0  0  0  0  0  0
  151.9947  137.4641  155.0289 N   0  0  0  0  0  0  0  0  0  0  0  0
  152.8347  138.5024  155.0644 C   0  0  0  0  0  0  0  0  0  0  0  0
  152.5751  139.7750  155.3684 N   0  0  0  0  0  0  0  0  0  0  0  0
  151.2562  139.9529  155.6653 C   0  0  0  0  0  0  0  0  0  0  0  0
  150.2505  138.9447  155.6760 C   0  0  0  0  0  0  0  0  0  0  0  0
  149.0260  139.5059  156.0197 N   0  0  0  0  0  0  0  0  0  0  0  0
  149.2947  140.7681  156.2125 C   0  0  0  0  0  0  0  0  0  0  0  0
  150.6075  141.1272  156.0060 N   0  0  0  0  0  0  0  0  0  0  0  0
  151.1799  142.4577  156.1429 C   0  0  0  0  0  0  0  0  0  0  0  0
  151.2226  142.9932  157.5971 C   0  0  0  0  0  0  0  0  0  0  0  0
  149.8689  143.1964  157.9605 O   0  0  0  0  0  0  0  0  0  0  0  0
  151.8484  141.9924  158.5930 C   0  0  0  0  0  0  0  0  0  0  0  0
  151.9628  142.5866  160.0086 C   0  0  0  0  0  0  0  0  0  0  0  0
  152.7004  143.8029  159.9686 O   0  0  0  0  0  0  0  0  0  0  0  0
  152.0707  144.8078  159.1822 C   0  0  0  0  0  0  0  0  0  0  0  0
  151.9639  144.3421  157.7188 C   0  0  0  0  0  0  0  0  0  0  0  0
  150.4561  135.2930  154.9469 C   0  0  0  0  0  0  0  0  0  0  0  0
  149.4939  134.1347  155.2561 C   0  0  0  0  0  0  0  0  0  0  0  0
  148.2544  134.3468  154.5887 O   0  0  0  0  0  0  0  0  0  0  0  0
  146.5050  135.2598  150.3673 H   0  0  0  0  0  0  0  0  0  0  0  0
  145.5205  136.7086  150.1235 H   0  0  0  0  0  0  0  0  0  0  0  0
  144.7726  135.1080  150.0608 H   0  0  0  0  0  0  0  0  0  0  0  0
  147.1914  135.4553  152.4673 H   0  0  0  0  0  0  0  0  0  0  0  0
  145.7457  136.5762  154.6327 H   0  0  0  0  0  0  0  0  0  0  0  0
  145.5739  134.8433  154.7079 H   0  0  0  0  0  0  0  0  0  0  0  0
  147.4579  135.4997  156.0809 H   0  0  0  0  0  0  0  0  0  0  0  0
  148.6506  136.8619  153.6047 H   0  0  0  0  0  0  0  0  0  0  0  0
  148.0637  137.6698  155.0530 H   0  0  0  0  0  0  0  0  0  0  0  0
  153.8613  138.2818  154.8120 H   0  0  0  0  0  0  0  0  0  0  0  0
  148.5350  141.4793  156.5031 H   0  0  0  0  0  0  0  0  0  0  0  0
  152.1864  142.4344  155.7226 H   0  0  0  0  0  0  0  0  0  0  0  0
  150.6057  143.1369  155.5108 H   0  0  0  0  0  0  0  0  0  0  0  0
  149.4722  143.7755  157.3278 H   0  0  0  0  0  0  0  0  0  0  0  0
  151.2738  141.0657  158.6181 H   0  0  0  0  0  0  0  0  0  0  0  0
  152.8523  141.7222  158.2654 H   0  0  0  0  0  0  0  0  0  0  0  0
  150.9784  142.7587  160.4464 H   0  0  0  0  0  0  0  0  0  0  0  0
  152.4803  141.8863  160.6644 H   0  0  0  0  0  0  0  0  0  0  0  0
  151.0890  145.0461  159.5942 H   0  0  0  0  0  0  0  0  0  0  0  0
  152.6651  145.7197  159.2398 H   0  0  0  0  0  0  0  0  0  0  0  0
  152.9761  144.2464  157.3266 H   0  0  0  0  0  0  0  0  0  0  0  0
  151.4714  145.1061  157.1160 H   0  0  0  0  0  0  0  0  0  0  0  0
  150.6994  135.2997  153.8836 H   0  0  0  0  0  0  0  0  0  0  0  0
  151.3910  135.1383  155.4835 H   0  0  0  0  0  0  0  0  0  0  0  0
  149.9216  133.1912  154.9169 H   0  0  0  0  0  0  0  0  0  0  0  0
  149.3301  134.0419  156.3310 H   0  0  0  0  0  0  0  0  0  0  0  0
  1  2  1  0  0  0  0
  1 29  1  0  0  0  0
  1 30  1  0  0  0  0
  1 31  1  0  0  0  0
  2  3  2  0  0  0  0
  2  4  1  0  0  0  0
  4  5  1  0  0  0  0
  4 32  1  0  0  0  0
  5  6  1  0  0  0  0
  5 33  1  0  0  0  0
  5 34  1  0  0  0  0
  6 28  1  0  0  0  0
  6  7  1  0  0  0  0
  6 35  1  0  0  0  0
  7  8  1  0  0  0  0
  7 36  1  0  0  0  0
  7 37  1  0  0  0  0
  8  9  1  0  0  0  0
  8 26  1  0  0  0  0
  9 14  1  0  0  0  0
  9 10  2  0  0  0  0
 10 11  1  0  0  0  0
 11 12  2  0  0  0  0
 11 38  1  0  0  0  0
 12 13  1  0  0  0  0
 13 17  1  0  0  0  0
 13 14  2  0  0  0  0
 14 15  1  0  0  0  0
 15 16  2  0  0  0  0
 16 17  1  0  0  0  0
 16 39  1  0  0  0  0
 17 18  1  0  0  0  0
 18 19  1  0  0  0  0
 18 40  1  0  0  0  0
 18 41  1  0  0  0  0
 19 25  1  0  0  0  0
 19 20  1  0  0  0  0
 19 21  1  0  0  0  0
 20 42  1  0  0  0  0
 21 22  1  0  0  0  0
 21 43  1  0  0  0  0
 21 44  1  0  0  0  0
 22 23  1  0  0  0  0
 22 45  1  0  0  0  0
 22 46  1  0  0  0  0
 23 24  1  0  0  0  0
 24 25  1  0  0  0  0
 24 47  1  0  0  0  0
 24 48  1  0  0  0  0
 25 49  1  0  0  0  0
 25 50  1  0  0  0  0
 26 27  1  0  0  0  0
 26 51  1  0  0  0  0
 26 52  1  0  0  0  0
 27 28  1  0  0  0  0
 27 53  1  0  0  0  0
 27 54  1  0  0  0  0
M  END
> <s_m_source_file>
AV-unprocessed.smi

> <i_m_source_file_index>
180

> <i_lp_mmshare_version>
43012

> <i_f3d_flags>
0

> <s_epik_input>
W0NIM11DKD1PKVtOSF1bQ0gyXVtDQEBIXTFbQ0gyXU4oW0NIMl1bQ0gyXU8xKWMobltjSF1uMiljKGMyMyluW2NIXW4zW0NIMl1DNChbT0hdKVtDSDJdW0NIMl1PW0NIMl1bQ0gyXTQ=

> <s_epik_cmdline>
J2VwaWtfcHl0aG9uJywgJy1waCcsICc3LjAnLCAnLXRuJywgJzgnLCAnLW1hJywgJzIwMCcsICctbWV0YWxfYmluZGluZycsICctaW1hZScsICc8aW5maWxlLm1hZT4nLCAnLW9tYWUnLCAnPG91dGZpbGUubWFlPic=

> <r_lp_tautomer_probability>
1

> <r_epik_Ionization_Penalty>
7.38871e-05

> <r_epik_Ionization_Penalty_Charging>
0

> <r_epik_Ionization_Penalty_Neutral>
7.38871e-05

> <r_epik_State_Penalty>
-0

> <r_epik_Charging_Adjusted_Penalty>
0

> <i_epik_Tot_Q>
0

> <i_epik_Tot_abs_Q>
0

> <r_epik_Metal_State_Penalty>
-0

> <b_epik_Metal_Only>
0

> <s_lp_Force_Field>
OPLS_2005

> <r_lp_Energy>
31.1245

> <b_lp_Chiralities_Consistent>
1

> <s_lp_Variant>
AV-unprocessed.smi:180-1

> <Gold.Version>
5.8.1

> <Gold.Id.Protein>
6NUR|6NUR_protein|mol2

> <Gold.PLP.Fitness>
52.2764

> <Gold.PLP.PLP>
-43.2347

> <Gold.PLP.part.hbond>
-5.0000

> <Gold.PLP.part.metal>
0.0000

> <Gold.PLP.part.buried>
-3.9480

> <Gold.PLP.part.nonpolar>
-36.0094

> <Gold.PLP.part.repulsive>
0.4695

> <Gold.PLP.ligand.clash>
0.0000

> <Gold.PLP.ligand.torsion>
0.3572

> <Gold.PLP.Chemscore.Hbond>
3.1320

> <Gold.PLP.Chemscore.CHOScore>
0.0000

> <Gold.PLP.Chemscore.Metal>
0.0000

> <Gold.Chemscore.Hbonds>
donor molecule, donor type, donor heavy atom, donor atom, acceptor molecule, acceptor atom, score
      L1  H     4    32       P1  7948  0.98
      L1  H    20    42       P1  8028  1.00
      P1  H  7997  8010       L1    12  0.80
      P1  H 10752 10765       L1    10  0.49

> <Gold.PLP.Chemscore.Internal.Correction>
0.3603

> <Gold.Rescore>
     Score         DG    S(hbond)    S(metal)    S(lipo)     H(rot)  DE(clash)    DE(int)     intcor
      8.17     -10.34       0.66        0.00      88.01       2.99       1.19       0.98       ----

> <Gold.Chemscore.Fitness>
8.1729

> <Gold.Chemscore.DG>
-10.3434

> <Gold.Chemscore.ZeroCoef>
-5.4800

> <Gold.Chemscore.Hbond>
0.6638

> <Gold.Chemscore.Metal>
0.0000

> <Gold.Chemscore.Lipo>
88.0076

> <Gold.Chemscore.Internal_Hbond>
0.0000

> <Gold.Chemscore.DEClash>
1.1870

> <Gold.Chemscore.DEInternal>
0.9835

> <Gold.Chemscore.Rot>
2.9885

> <Gold.Chemscore.Internal.Correction>
   9.000000E+99

> <Gold.Chemscore.Hbonds>
donor molecule, donor type, donor heavy atom, donor atom, acceptor molecule, acceptor atom, score
      L1  H     4    32       P1  7948  0.90
      L1  H    20    42       P1  8028  0.54
      P1  H  7997  8010       L1    12  0.11
      P1  H 10752 10765       L1    10  0.39

> <Gold.Chemscore.Hbond.Weighted>
-2.2171

> <Gold.Chemscore.Metal.Weighted>
-0.0000

> <Gold.Chemscore.Lipo.Weighted>
-10.2969

> <Gold.Chemscore.Internal_Hbond.Weighted>
0.0000

> <Gold.Chemscore.DEClash.Weighted>
1.1870

> <Gold.Chemscore.DEInternal.Weighted>
0.9835

> <Gold.Chemscore.Rot.Weighted>
7.6506

> <Gold.Chemscore.Internal.Correction.Weighted>
   9.000000E+99

> <Gold.Protein.RotatedTorsions>
[ 6907 6896 6895 6894 ] final -102.37 input  -60.11 | X-H torsion
[ 7974 7965 7964 7962 ] final   40.89 input  175.53 | X-H torsion
[ 8008 7997 7996 7995 ] final   86.48 input   59.86 | X-H torsion
[ 10167 10162 10161 10158 ] final  162.92 input  -65.29 | X-H torsion
[ 10718 10713 10712 10709 ] final  -55.70 input   66.30 | X-H torsion
[ 10763 10752 10751 10750 ] final -165.30 input  -60.55 | X-H torsion
[ 11005 11000 10999 10996 ] final   16.32 input  -57.11 | X-H torsion

> <Gold.Protein.ActiveResidues>
 VAL166  LYS551  ARG553  GLY616  TRP617  ASP618  TYR619  PRO620  LYS621  CYS622 
 ASP623  PHE694  ASN695  SER759  ASP760  ASP761  ALA762  ILE779  LEU786  VAL792 
 PHE793  MET794  SER795  GLU796  ALA797  LYS798  CYS799  TRP800  GLU811  SER814 

> <Gold.Protein.RotatedAtoms>
  150.7193  134.0592  159.3825 H   0  0  0  0  0  0  0  0  0  0  0  0  # atno 6907 bound_to 6896
  151.8571  135.0535  160.0474 H   0  0  0  0  0  0  0  0  0  0  0  0  # atno 6908 bound_to 6896
  152.2745  133.5377  159.5496 H   0  0  0  0  0  0  0  0  0  0  0  0  # atno 6909 bound_to 6896
  146.0868  139.5480  142.9501 H   0  0  0  0  0  0  0  0  0  0  0  0  # atno 7974 bound_to 7965
  155.9633  140.3391  155.6510 H   0  0  0  0  0  0  0  0  0  0  0  0  # atno 8008 bound_to 7997
  155.6770  140.0733  157.2517 H   0  0  0  0  0  0  0  0  0  0  0  0  # atno 8009 bound_to 7997
  154.4148  140.1681  156.1928 H   0  0  0  0  0  0  0  0  0  0  0  0  # atno 8010 bound_to 7997
  139.4867  144.4389  151.8977 H   0  0  0  0  0  0  0  0  0  0  0  0  # atno 10167 bound_to 10162
  156.1347  130.4157  150.0206 H   0  0  0  0  0  0  0  0  0  0  0  0  # atno 10718 bound_to 10713
  154.6945  135.2976  154.9431 H   0  0  0  0  0  0  0  0  0  0  0  0  # atno 10763 bound_to 10752
  154.0384  135.6661  153.4791 H   0  0  0  0  0  0  0  0  0  0  0  0  # atno 10764 bound_to 10752
  153.0636  135.5101  154.8055 H   0  0  0  0  0  0  0  0  0  0  0  0  # atno 10765 bound_to 10752
  140.4484  134.1249  155.7699 H   0  0  0  0  0  0  0  0  0  0  0  0  # atno 11005 bound_to 11000
  145.6114  141.0339  143.1964 LP  0  0  0  0  0  0  0  0  0  0  0  0  # atno 17320 bound_to 7965
  144.7332  139.7664  143.7339 LP  0  0  0  0  0  0  0  0  0  0  0  0  # atno 17321 bound_to 7965
  140.3840  144.2700  150.5906 LP  0  0  0  0  0  0  0  0  0  0  0  0  # atno 17342 bound_to 10162
  140.5207  143.2266  151.8393 LP  0  0  0  0  0  0  0  0  0  0  0  0  # atno 17343 bound_to 10162
  156.8109  130.9324  151.3644 LP  0  0  0  0  0  0  0  0  0  0  0  0  # atno 17370 bound_to 10713
  157.6521  130.8893  149.9654 LP  0  0  0  0  0  0  0  0  0  0  0  0  # atno 17371 bound_to 10713
  141.1675  133.8674  157.1671 LP  0  0  0  0  0  0  0  0  0  0  0  0  # atno 17394 bound_to 11000
  140.0023  135.0023  157.0216 LP  0  0  0  0  0  0  0  0  0  0  0  0  # atno 17395 bound_to 11000

$$$$
