AV-unprocessed.smi:21|AV-procd|sdf|148|dock10
  -GOLD-   2262015363D 1   1.00000     0.00000
 Structure written by MMmdl.
 62 65  0  0  0  0  0  0  0  0  2 V2000
  146.3159  133.5224  151.0934 C   0  0  0  0  0  0  0  0  0  0  0  0
  145.9374  134.2970  152.2205 O   0  0  0  0  0  0  0  0  0  0  0  0
  146.0776  133.6158  153.4606 C   0  0  2  0  0  0  0  0  0  0  0  0
  145.8464  134.5483  154.6502 C   0  0  0  0  0  0  0  0  0  0  0  0
  147.1902  135.2670  154.8688 C   0  0  2  0  0  0  0  0  0  0  0  0
  147.2182  136.7121  154.3274 C   0  0  0  0  0  0  0  0  0  0  0  0
  147.3904  137.7186  155.3777 N   0  0  0  0  0  0  0  0  0  0  0  0
  146.6235  137.5909  156.6115 C   0  0  0  0  0  0  0  0  0  0  0  0
  148.3180  138.7102  155.2400 C   0  0  0  0  0  0  0  0  0  0  0  0
  148.4733  139.2814  154.0146 N   0  0  0  0  0  0  0  0  0  0  0  0
  149.3703  140.2502  153.8162 C   0  0  0  0  0  0  0  0  0  0  0  0
  150.2151  140.7931  154.6915 N   0  0  0  0  0  0  0  0  0  0  0  0
  150.0748  140.2307  155.9249 C   0  0  0  0  0  0  0  0  0  0  0  0
  149.1593  139.1989  156.2877 C   0  0  0  0  0  0  0  0  0  0  0  0
  149.3249  138.8930  157.6355 N   0  0  0  0  0  0  0  0  0  0  0  0
  150.2750  139.6891  158.0405 C   0  0  0  0  0  0  0  0  0  0  0  0
  150.7978  140.5117  157.0710 N   0  0  0  0  0  0  0  0  0  0  0  0
  151.8616  141.4854  157.2426 C   0  0  0  0  0  0  0  0  0  0  0  0
  151.4970  142.6789  158.1642 C   0  0  2  0  0  0  0  0  0  0  0  0
  152.1914  143.9443  157.6028 C   0  0  0  0  0  0  0  0  0  0  0  0
  151.8504  144.1790  156.2521 O   0  0  0  0  0  0  0  0  0  0  0  0
  151.8550  142.4239  159.6616 C   0  0  1  0  0  0  0  0  0  0  0  0
  153.2716  141.9360  159.9240 C   0  0  0  0  0  0  0  0  0  0  0  0
  153.4409  142.2163  161.4091 C   0  0  0  0  0  0  0  0  0  0  0  0
  152.7957  143.4647  161.5996 O   0  0  0  0  0  0  0  0  0  0  0  0
  151.8130  143.6540  160.5853 C   0  0  0  0  0  0  0  0  0  0  0  0
  148.2060  134.4532  154.1582 N   0  3  1  0  0  0  0  0  0  0  0  0
  149.4340  134.1851  154.9361 C   0  0  0  0  0  0  0  0  0  0  0  0
  147.5475  133.2409  153.6290 C   0  0  0  0  0  0  0  0  0  0  0  0
  145.4405  132.7302  153.4896 H   0  0  0  0  0  0  0  0  0  0  0  0
  147.4080  135.2725  155.9380 H   0  0  0  0  0  0  0  0  0  0  0  0
  146.1964  134.1177  150.1883 H   0  0  0  0  0  0  0  0  0  0  0  0
  145.6999  132.6297  150.9862 H   0  0  0  0  0  0  0  0  0  0  0  0
  147.3616  133.2194  151.1575 H   0  0  0  0  0  0  0  0  0  0  0  0
  145.0011  135.2213  154.5197 H   0  0  0  0  0  0  0  0  0  0  0  0
  145.6267  133.9422  155.5303 H   0  0  0  0  0  0  0  0  0  0  0  0
  148.0139  136.8213  153.5893 H   0  0  0  0  0  0  0  0  0  0  0  0
  146.2962  136.9121  153.7805 H   0  0  0  0  0  0  0  0  0  0  0  0
  146.1650  138.5430  156.8807 H   0  0  0  0  0  0  0  0  0  0  0  0
  147.2623  137.2635  157.4319 H   0  0  0  0  0  0  0  0  0  0  0  0
  145.8216  136.8601  156.5058 H   0  0  0  0  0  0  0  0  0  0  0  0
  149.4211  140.6445  152.8119 H   0  0  0  0  0  0  0  0  0  0  0  0
  150.6319  139.6891  159.0602 H   0  0  0  0  0  0  0  0  0  0  0  0
  152.7512  140.9796  157.6196 H   0  0  0  0  0  0  0  0  0  0  0  0
  152.1177  141.8451  156.2453 H   0  0  0  0  0  0  0  0  0  0  0  0
  150.4201  142.8363  158.0861 H   0  0  0  0  0  0  0  0  0  0  0  0
  151.9485  144.8217  158.2028 H   0  0  0  0  0  0  0  0  0  0  0  0
  153.2761  143.8379  157.6299 H   0  0  0  0  0  0  0  0  0  0  0  0
  150.9218  144.3479  156.2010 H   0  0  0  0  0  0  0  0  0  0  0  0
  151.1711  141.6735  160.0621 H   0  0  0  0  0  0  0  0  0  0  0  0
  153.4156  140.8824  159.6833 H   0  0  0  0  0  0  0  0  0  0  0  0
  153.9925  142.5234  159.3537 H   0  0  0  0  0  0  0  0  0  0  0  0
  152.9321  141.4563  162.0039 H   0  0  0  0  0  0  0  0  0  0  0  0
  154.4860  142.2517  161.7175 H   0  0  0  0  0  0  0  0  0  0  0  0
  152.0597  144.5676  160.0440 H   0  0  0  0  0  0  0  0  0  0  0  0
  150.8353  143.7851  161.0465 H   0  0  0  0  0  0  0  0  0  0  0  0
  149.2154  133.5946  155.8271 H   0  0  0  0  0  0  0  0  0  0  0  0
  149.8969  135.1213  155.2506 H   0  0  0  0  0  0  0  0  0  0  0  0
  150.1565  133.6383  154.3297 H   0  0  0  0  0  0  0  0  0  0  0  0
  147.6300  132.4344  154.3595 H   0  0  0  0  0  0  0  0  0  0  0  0
  148.0096  132.8993  152.7022 H   0  0  0  0  0  0  0  0  0  0  0  0
  148.4758  134.9973  153.3507 H   0  0  0  0  0  0  0  0  0  0  0  0
  1  2  1  0  0  0  0
  1 32  1  0  0  0  0
  1 33  1  0  0  0  0
  1 34  1  0  0  0  0
  2  3  1  0  0  0  0
  3 30  1  0  0  0  0
  3 29  1  0  0  0  0
  3  4  1  0  0  0  0
  4  5  1  0  0  0  0
  4 35  1  0  0  0  0
  4 36  1  0  0  0  0
  5 31  1  0  0  0  0
  5  6  1  0  0  0  0
  5 27  1  0  0  0  0
  6  7  1  0  0  0  0
  6 37  1  0  0  0  0
  6 38  1  0  0  0  0
  7  8  1  0  0  0  0
  7  9  1  0  0  0  0
  8 39  1  0  0  0  0
  8 40  1  0  0  0  0
  8 41  1  0  0  0  0
  9 14  1  0  0  0  0
  9 10  2  0  0  0  0
 10 11  1  0  0  0  0
 11 12  2  0  0  0  0
 11 42  1  0  0  0  0
 12 13  1  0  0  0  0
 13 17  1  0  0  0  0
 13 14  2  0  0  0  0
 14 15  1  0  0  0  0
 15 16  2  0  0  0  0
 16 17  1  0  0  0  0
 16 43  1  0  0  0  0
 17 18  1  0  0  0  0
 18 19  1  0  0  0  0
 18 44  1  0  0  0  0
 18 45  1  0  0  0  0
 19 20  1  0  0  0  0
 19 22  1  0  0  0  0
 19 46  1  0  0  0  0
 20 21  1  0  0  0  0
 20 47  1  0  0  0  0
 20 48  1  0  0  0  0
 21 49  1  0  0  0  0
 22 26  1  0  0  0  0
 22 23  1  0  0  0  0
 22 50  1  0  0  0  0
 23 24  1  0  0  0  0
 23 51  1  0  0  0  0
 23 52  1  0  0  0  0
 24 25  1  0  0  0  0
 24 53  1  0  0  0  0
 24 54  1  0  0  0  0
 25 26  1  0  0  0  0
 26 55  1  0  0  0  0
 26 56  1  0  0  0  0
 27 28  1  0  0  0  0
 27 29  1  0  0  0  0
 27 62  1  0  0  0  0
 28 57  1  0  0  0  0
 28 58  1  0  0  0  0
 28 59  1  0  0  0  0
 29 60  1  0  0  0  0
 29 61  1  0  0  0  0
M  CHG  1  27   1
M  END
> <s_m_source_file>
AV-unprocessed.smi

> <i_m_source_file_index>
21

> <i_lp_mmshare_version>
43012

> <i_f3d_flags>
0

> <s_epik_input>
W0NIM11PW0NASF0xW0NIMl1bQ0BIXShOKFtDSDNdKVtDSDJdMSlbQ0gyXU4oW0NIM10pYyhuW2NIXW4yKWMoYzIzKW5bY0hdbjNbQ0gyXVtDQEhdKFtDSDJdW09IXSlbQ0BASF00W0NIMl1bQ0gyXU9bQ0gyXTQ=

> <s_epik_cmdline>
J2VwaWtfcHl0aG9uJywgJy1waCcsICc3LjAnLCAnLXRuJywgJzgnLCAnLW1hJywgJzIwMCcsICctbWV0YWxfYmluZGluZycsICctaW1hZScsICc8aW5maWxlLm1hZT4nLCAnLW9tYWUnLCAnPG91dGZpbGUubWFlPic=

> <r_lp_tautomer_probability>
1

> <r_epik_Ionization_Penalty>
0.0157465

> <r_epik_Ionization_Penalty_Charging>
0.015354

> <r_epik_Ionization_Penalty_Neutral>
0.000392529

> <r_epik_State_Penalty>
0.0120612

> <r_epik_Charging_Adjusted_Penalty>
0.0274152

> <i_epik_Tot_Q>
1

> <i_epik_Tot_abs_Q>
1

> <r_epik_Metal_State_Penalty>
0.0121253

> <b_epik_Metal_Only>
0

> <s_lp_Force_Field>
OPLS_2005

> <r_lp_Energy>
58.7805

> <b_lp_Chiralities_Consistent>
1

> <s_lp_Variant>
AV-unprocessed.smi:21-28

> <Gold.Version>
5.8.1

> <Gold.Id.Protein>
6NUR|6NUR_protein|mol2

> <Gold.PLP.Fitness>
46.6626

> <Gold.PLP.PLP>
-37.3276

> <Gold.PLP.part.hbond>
-3.0000

> <Gold.PLP.part.metal>
0.0000

> <Gold.PLP.part.buried>
-1.9788

> <Gold.PLP.part.nonpolar>
-32.3521

> <Gold.PLP.part.repulsive>
0.4629

> <Gold.PLP.ligand.clash>
0.0000

> <Gold.PLP.ligand.torsion>
2.1365

> <Gold.PLP.Chemscore.Hbond>
3.4313

> <Gold.PLP.Chemscore.CHOScore>
1.0000

> <Gold.PLP.Chemscore.Metal>
0.0000

> <Gold.Chemscore.Hbonds>
donor molecule, donor type, donor heavy atom, donor atom, acceptor molecule, acceptor atom, score
      L1  H    21    49       P1  8028  0.81
      L1  H    27    62       P1  7948  2.00
      P1  H  7989  7998       L1    12  0.55
      L1  C    11    42       P1  7957  0.33

> <Gold.PLP.Chemscore.Internal.Correction>
0.3140

> <Gold.Rescore>
     Score         DG    S(hbond)    S(metal)    S(lipo)     H(rot)  DE(clash)    DE(int)     intcor
     12.72     -15.29       1.92        0.00      96.37       3.08       0.09       2.47       ----

> <Gold.Chemscore.Fitness>
12.7238

> <Gold.Chemscore.DG>
-15.2891

> <Gold.Chemscore.ZeroCoef>
-5.4800

> <Gold.Chemscore.Hbond>
1.9186

> <Gold.Chemscore.Metal>
0.0000

> <Gold.Chemscore.Lipo>
96.3685

> <Gold.Chemscore.Internal_Hbond>
0.0000

> <Gold.Chemscore.DEClash>
0.0934

> <Gold.Chemscore.DEInternal>
2.4718

> <Gold.Chemscore.Rot>
3.0758

> <Gold.Chemscore.Internal.Correction>
   9.000000E+99

> <Gold.Chemscore.Hbonds>
donor molecule, donor type, donor heavy atom, donor atom, acceptor molecule, acceptor atom, score
      L1  H    21    49       P1  8028  0.80
      L1  H    27    62       P1  7948  0.81
      P1  H  7989  7998       L1    12  0.06

> <Gold.Chemscore.Hbond.Weighted>
-6.4081

> <Gold.Chemscore.Metal.Weighted>
-0.0000

> <Gold.Chemscore.Lipo.Weighted>
-11.2751

> <Gold.Chemscore.Internal_Hbond.Weighted>
0.0000

> <Gold.Chemscore.DEClash.Weighted>
0.0934

> <Gold.Chemscore.DEInternal.Weighted>
2.4718

> <Gold.Chemscore.Rot.Weighted>
7.8741

> <Gold.Chemscore.Internal.Correction.Weighted>
   9.000000E+99

> <Gold.Protein.RotatedTorsions>
[ 6907 6896 6895 6894 ] final    4.54 input  -60.11 | X-H torsion
[ 7974 7965 7964 7962 ] final   68.09 input  175.53 | X-H torsion
[ 8008 7997 7996 7995 ] final   32.33 input   59.86 | X-H torsion
[ 10167 10162 10161 10158 ] final  -82.44 input  -65.29 | X-H torsion
[ 10718 10713 10712 10709 ] final  -73.81 input   66.30 | X-H torsion
[ 10763 10752 10751 10750 ] final    5.23 input  -60.55 | X-H torsion
[ 11005 11000 10999 10996 ] final  138.62 input  -57.11 | X-H torsion

> <Gold.Protein.ActiveResidues>
 VAL166  LYS551  ARG553  GLY616  TRP617  ASP618  TYR619  PRO620  LYS621  CYS622 
 ASP623  PHE694  ASN695  SER759  ASP760  ASP761  ALA762  ILE779  LEU786  VAL792 
 PHE793  MET794  SER795  GLU796  ALA797  LYS798  CYS799  TRP800  GLU811  SER814 

> <Gold.Protein.RotatedAtoms>
  151.6429  135.1010  160.0144 H   0  0  0  0  0  0  0  0  0  0  0  0  # atno 6907 bound_to 6896
  152.4044  133.6862  159.6352 H   0  0  0  0  0  0  0  0  0  0  0  0  # atno 6908 bound_to 6896
  150.7940  133.8652  159.3284 H   0  0  0  0  0  0  0  0  0  0  0  0  # atno 6909 bound_to 6896
  145.8068  139.3011  143.1122 H   0  0  0  0  0  0  0  0  0  0  0  0  # atno 7974 bound_to 7965
  155.1208  140.3248  155.4498 H   0  0  0  0  0  0  0  0  0  0  0  0  # atno 8008 bound_to 7997
  156.2663  140.2027  156.6278 H   0  0  0  0  0  0  0  0  0  0  0  0  # atno 8009 bound_to 7997
  154.6685  140.0539  157.0127 H   0  0  0  0  0  0  0  0  0  0  0  0  # atno 8010 bound_to 7997
  140.4320  143.2545  151.8747 H   0  0  0  0  0  0  0  0  0  0  0  0  # atno 10167 bound_to 10162
  156.0266  130.4402  150.2798 H   0  0  0  0  0  0  0  0  0  0  0  0  # atno 10718 bound_to 10713
  153.2619  135.6924  153.7570 H   0  0  0  0  0  0  0  0  0  0  0  0  # atno 10763 bound_to 10752
  153.6626  135.3358  155.3132 H   0  0  0  0  0  0  0  0  0  0  0  0  # atno 10764 bound_to 10752
  154.8433  135.4481  154.1612 H   0  0  0  0  0  0  0  0  0  0  0  0  # atno 10765 bound_to 10752
  140.0197  134.9402  157.0448 H   0  0  0  0  0  0  0  0  0  0  0  0  # atno 11005 bound_to 11000
  145.9819  140.8675  143.0110 LP  0  0  0  0  0  0  0  0  0  0  0  0  # atno 17320 bound_to 7965
  144.6762  140.2093  143.7379 LP  0  0  0  0  0  0  0  0  0  0  0  0  # atno 17321 bound_to 7965
  139.4785  144.5325  151.8647 LP  0  0  0  0  0  0  0  0  0  0  0  0  # atno 17342 bound_to 10162
  140.4417  144.1977  150.5892 LP  0  0  0  0  0  0  0  0  0  0  0  0  # atno 17343 bound_to 10162
  157.0901  131.0167  151.3124 LP  0  0  0  0  0  0  0  0  0  0  0  0  # atno 17370 bound_to 10713
  157.4860  130.7793  149.7461 LP  0  0  0  0  0  0  0  0  0  0  0  0  # atno 17371 bound_to 10713
  140.4409  134.1682  155.7174 LP  0  0  0  0  0  0  0  0  0  0  0  0  # atno 17394 bound_to 11000
  141.1765  133.8502  157.1402 LP  0  0  0  0  0  0  0  0  0  0  0  0  # atno 17395 bound_to 11000

$$$$
