AV-unprocessed.smi:1629|AV-procd|sdf|6522|dock3
  -GOLD-   22720 7193D 1   1.00000     0.00000
 Structure written by MMmdl.
 45 46  0  0  0  0  0  0  0  0  2 V2000
  146.2884  135.5061  163.4417 C   0  0  0  0  0  0  0  0  0  0  0  0
  146.0891  137.0213  162.4210 S   0  0  0  0  0  0  0  0  0  0  0  0
  145.0731  137.8844  163.0421 O   0  0  0  0  0  0  0  0  0  0  0  0
  147.4269  137.5510  162.1150 O   0  0  0  0  0  0  0  0  0  0  0  0
  145.4156  136.3932  160.9600 N   0  0  0  0  0  0  0  0  0  0  0  0
  146.2023  136.4478  159.7246 C   0  0  0  0  0  0  0  0  0  0  0  0
  147.5456  135.7048  159.8968 C   0  0  0  0  0  0  0  0  0  0  0  0
  148.4532  135.9118  158.6707 C   0  0  0  0  0  0  0  0  0  0  0  0
  148.6487  137.3563  158.4565 N   0  0  0  0  0  0  0  0  0  0  0  0
  149.7802  138.0592  158.7162 C   0  0  0  0  0  0  0  0  0  0  0  0
  150.6708  137.6549  159.4651 O   0  0  0  0  0  0  0  0  0  0  0  0
  149.8400  139.2664  158.1307 N   0  0  0  0  0  0  0  0  0  0  0  0
  150.9319  140.2146  158.3023 C   0  0  0  0  0  0  0  0  0  0  0  0
  150.5409  141.5968  157.7619 C   0  0  0  0  0  0  0  0  0  0  0  0
  151.2465  142.7195  158.4982 C   0  0  0  0  0  0  0  0  0  0  0  0
  152.1833  142.4711  159.5249 C   0  0  0  0  0  0  0  0  0  0  0  0
  152.8118  143.5609  160.1630 C   0  0  0  0  0  0  0  0  0  0  0  0
  152.4916  144.8743  159.7611 C   0  0  0  0  0  0  0  0  0  0  0  0
  151.5508  145.0649  158.7286 C   0  0  0  0  0  0  0  0  0  0  0  0
  150.9704  143.9950  158.1413 N   0  3  0  0  0  0  0  0  0  0  0  0
  147.3830  138.0201  158.1186 C   0  0  0  0  0  0  0  0  0  0  0  0
  146.4251  137.9187  159.3190 C   0  0  0  0  0  0  0  0  0  0  0  0
  146.7229  135.7724  164.4050 H   0  0  0  0  0  0  0  0  0  0  0  0
  146.9481  134.8063  162.9287 H   0  0  0  0  0  0  0  0  0  0  0  0
  145.3156  135.0406  163.5989 H   0  0  0  0  0  0  0  0  0  0  0  0
  144.4716  136.7487  160.8106 H   0  0  0  0  0  0  0  0  0  0  0  0
  145.6341  135.9632  158.9299 H   0  0  0  0  0  0  0  0  0  0  0  0
  148.0583  136.0646  160.7902 H   0  0  0  0  0  0  0  0  0  0  0  0
  147.3715  134.6388  160.0470 H   0  0  0  0  0  0  0  0  0  0  0  0
  149.3792  135.3531  158.8047 H   0  0  0  0  0  0  0  0  0  0  0  0
  147.9827  135.4815  157.7854 H   0  0  0  0  0  0  0  0  0  0  0  0
  149.0706  139.5469  157.5400 H   0  0  0  0  0  0  0  0  0  0  0  0
  151.1842  140.2893  159.3615 H   0  0  0  0  0  0  0  0  0  0  0  0
  151.8165  139.8407  157.7844 H   0  0  0  0  0  0  0  0  0  0  0  0
  150.7784  141.6651  156.6991 H   0  0  0  0  0  0  0  0  0  0  0  0
  149.4625  141.7390  157.8461 H   0  0  0  0  0  0  0  0  0  0  0  0
  152.4210  141.4591  159.8194 H   0  0  0  0  0  0  0  0  0  0  0  0
  153.5316  143.3916  160.9505 H   0  0  0  0  0  0  0  0  0  0  0  0
  152.9617  145.7224  160.2375 H   0  0  0  0  0  0  0  0  0  0  0  0
  151.2476  146.0330  158.3573 H   0  0  0  0  0  0  0  0  0  0  0  0
  147.5179  139.0653  157.8364 H   0  0  0  0  0  0  0  0  0  0  0  0
  146.9428  137.5352  157.2461 H   0  0  0  0  0  0  0  0  0  0  0  0
  145.4719  138.3891  159.0749 H   0  0  0  0  0  0  0  0  0  0  0  0
  146.8412  138.4787  160.1581 H   0  0  0  0  0  0  0  0  0  0  0  0
  150.2931  144.1571  157.3956 H   0  0  0  0  0  0  0  0  0  0  0  0
  1  2  1  0  0  0  0
  1 23  1  0  0  0  0
  1 24  1  0  0  0  0
  1 25  1  0  0  0  0
  2  3  2  0  0  0  0
  2  4  2  0  0  0  0
  2  5  1  0  0  0  0
  5  6  1  0  0  0  0
  5 26  1  0  0  0  0
  6 22  1  0  0  0  0
  6  7  1  0  0  0  0
  6 27  1  0  0  0  0
  7  8  1  0  0  0  0
  7 28  1  0  0  0  0
  7 29  1  0  0  0  0
  8  9  1  0  0  0  0
  8 30  1  0  0  0  0
  8 31  1  0  0  0  0
  9 10  1  0  0  0  0
  9 21  1  0  0  0  0
 10 11  2  0  0  0  0
 10 12  1  0  0  0  0
 12 13  1  0  0  0  0
 12 32  1  0  0  0  0
 13 14  1  0  0  0  0
 13 33  1  0  0  0  0
 13 34  1  0  0  0  0
 14 15  1  0  0  0  0
 14 35  1  0  0  0  0
 14 36  1  0  0  0  0
 15 20  1  0  0  0  0
 15 16  2  0  0  0  0
 16 17  1  0  0  0  0
 16 37  1  0  0  0  0
 17 18  2  0  0  0  0
 17 38  1  0  0  0  0
 18 19  1  0  0  0  0
 18 39  1  0  0  0  0
 19 20  2  0  0  0  0
 19 40  1  0  0  0  0
 20 45  1  0  0  0  0
 21 22  1  0  0  0  0
 21 41  1  0  0  0  0
 21 42  1  0  0  0  0
 22 43  1  0  0  0  0
 22 44  1  0  0  0  0
M  CHG  1  20   1
M  END
> <s_m_source_file>
AV-unprocessed.smi

> <i_m_source_file_index>
1629

> <i_lp_mmshare_version>
43012

> <i_f3d_flags>
0

> <s_epik_input>
W0NIM11TKD1PKSg9TylbTkhdW0NIXTFbQ0gyXVtDSDJdTihbQ0gyXVtDSDJdMSlDKD1PKVtOSF1bQ0gyXVtDSDJdYzJbY0hdW2NIXVtjSF1bY0hdbjI=

> <s_epik_cmdline>
J2VwaWtfcHl0aG9uJywgJy1waCcsICc3LjAnLCAnLXRuJywgJzgnLCAnLW1hJywgJzIwMCcsICctbWV0YWxfYmluZGluZycsICctaW1hZScsICc8aW5maWxlLm1hZT4nLCAnLW9tYWUnLCAnPG91dGZpbGUubWFlPic=

> <r_epik_Ionization_Penalty>
1.55223

> <r_epik_Ionization_Penalty_Charging>
1.55216

> <r_epik_Ionization_Penalty_Neutral>
6.06433e-05

> <r_epik_State_Penalty>
1.64647

> <r_epik_Charging_Adjusted_Penalty>
3.19864

> <i_epik_Tot_Q>
1

> <i_epik_Tot_abs_Q>
1

> <r_epik_Metal_State_Penalty>
1.69511

> <b_epik_Metal_Only>
0

> <s_lp_Force_Field>
OPLS_2005

> <r_lp_Energy>
29.0489

> <b_lp_Chiralities_Consistent>
1

> <s_lp_Variant>
AV-unprocessed.smi:1629-2

> <Gold.Version>
5.8.1

> <Gold.Id.Protein>
6NUR|6NUR_protein|mol2

> <Gold.PLP.Fitness>
46.0197

> <Gold.PLP.PLP>
-35.4983

> <Gold.PLP.part.hbond>
-3.0000

> <Gold.PLP.part.metal>
0.0000

> <Gold.PLP.part.buried>
-6.1668

> <Gold.PLP.part.nonpolar>
-26.5344

> <Gold.PLP.part.repulsive>
0.0663

> <Gold.PLP.ligand.clash>
0.0000

> <Gold.PLP.ligand.torsion>
0.5845

> <Gold.PLP.Chemscore.Hbond>
3.8320

> <Gold.PLP.Chemscore.CHOScore>
0.0000

> <Gold.PLP.Chemscore.Metal>
0.0000

> <Gold.Chemscore.Hbonds>
donor molecule, donor type, donor heavy atom, donor atom, acceptor molecule, acceptor atom, score
      L1  H    20    45       P1  8028  0.75
      P1  H  6931  6943       L1     4  0.70
      P1  H  6934  6947       L1     4  0.56

> <Gold.PLP.Chemscore.Internal.Correction>
0.1946

> <Gold.Rescore>
     Score         DG    S(hbond)    S(metal)    S(lipo)     H(rot)  DE(clash)    DE(int)     intcor
     15.30     -17.25       1.99        0.00      90.44       2.13       0.21       1.74       ----

> <Gold.Chemscore.Fitness>
15.2955

> <Gold.Chemscore.DG>
-17.2513

> <Gold.Chemscore.ZeroCoef>
-5.4800

> <Gold.Chemscore.Hbond>
1.9907

> <Gold.Chemscore.Metal>
0.0000

> <Gold.Chemscore.Lipo>
90.4436

> <Gold.Chemscore.Internal_Hbond>
0.0000

> <Gold.Chemscore.DEClash>
0.2149

> <Gold.Chemscore.DEInternal>
1.7409

> <Gold.Chemscore.Rot>
2.1326

> <Gold.Chemscore.Internal.Correction>
   9.000000E+99

> <Gold.Chemscore.Hbonds>
donor molecule, donor type, donor heavy atom, donor atom, acceptor molecule, acceptor atom, score
      L1  H    20    45       P1  8028  0.28
      P1  H  6931  6943       L1     4  0.70
      P1  H  6934  6947       L1     4  0.34

> <Gold.Chemscore.Hbond.Weighted>
-6.6490

> <Gold.Chemscore.Metal.Weighted>
-0.0000

> <Gold.Chemscore.Lipo.Weighted>
-10.5819

> <Gold.Chemscore.Internal_Hbond.Weighted>
0.0000

> <Gold.Chemscore.DEClash.Weighted>
0.2149

> <Gold.Chemscore.DEInternal.Weighted>
1.7409

> <Gold.Chemscore.Rot.Weighted>
5.4595

> <Gold.Chemscore.Internal.Correction.Weighted>
   9.000000E+99

> <Gold.Protein.RotatedTorsions>
[ 6907 6896 6895 6894 ] final  119.46 input  -60.11 | X-H torsion
[ 7974 7965 7964 7962 ] final  154.18 input  175.53 | X-H torsion
[ 8008 7997 7996 7995 ] final  114.72 input   59.86 | X-H torsion
[ 10167 10162 10161 10158 ] final  112.03 input  -65.29 | X-H torsion
[ 10718 10713 10712 10709 ] final   68.59 input   66.30 | X-H torsion
[ 10763 10752 10751 10750 ] final  116.11 input  -60.55 | X-H torsion
[ 11005 11000 10999 10996 ] final  -84.42 input  -57.11 | X-H torsion

> <Gold.Protein.ActiveResidues>
 VAL166  LYS551  ARG553  GLY616  TRP617  ASP618  TYR619  PRO620  LYS621  CYS622 
 ASP623  PHE694  ASN695  SER759  ASP760  ASP761  ALA762  ILE779  LEU786  VAL792 
 PHE793  MET794  SER795  GLU796  ALA797  LYS798  CYS799  TRP800  GLU811  SER814 

> <Gold.Protein.RotatedAtoms>
  152.4470  133.7555  159.6717 H   0  0  0  0  0  0  0  0  0  0  0  0  # atno 6907 bound_to 6896
  150.8372  133.7984  159.3081 H   0  0  0  0  0  0  0  0  0  0  0  0  # atno 6908 bound_to 6896
  151.5620  135.1068  160.0026 H   0  0  0  0  0  0  0  0  0  0  0  0  # atno 6909 bound_to 6896
  144.8106  139.6899  143.6143 H   0  0  0  0  0  0  0  0  0  0  0  0  # atno 7974 bound_to 7965
  156.2338  140.2953  156.0258 H   0  0  0  0  0  0  0  0  0  0  0  0  # atno 8008 bound_to 7997
  155.2149  140.0414  157.2956 H   0  0  0  0  0  0  0  0  0  0  0  0  # atno 8009 bound_to 7997
  154.6043  140.2435  155.7759 H   0  0  0  0  0  0  0  0  0  0  0  0  # atno 8010 bound_to 7997
  139.6566  144.7129  151.1945 H   0  0  0  0  0  0  0  0  0  0  0  0  # atno 10167 bound_to 10162
  157.6298  130.9382  150.0398 H   0  0  0  0  0  0  0  0  0  0  0  0  # atno 10718 bound_to 10713
  153.5322  135.3576  155.2681 H   0  0  0  0  0  0  0  0  0  0  0  0  # atno 10763 bound_to 10752
  154.8725  135.4071  154.3138 H   0  0  0  0  0  0  0  0  0  0  0  0  # atno 10764 bound_to 10752
  153.3829  135.7069  153.6620 H   0  0  0  0  0  0  0  0  0  0  0  0  # atno 10765 bound_to 10752
  141.1650  133.7345  156.8865 H   0  0  0  0  0  0  0  0  0  0  0  0  # atno 11005 bound_to 11000
  146.2403  139.5989  142.9495 LP  0  0  0  0  0  0  0  0  0  0  0  0  # atno 17320 bound_to 7965
  145.5334  141.0425  143.2370 LP  0  0  0  0  0  0  0  0  0  0  0  0  # atno 17321 bound_to 7965
  140.7562  143.6062  150.8651 LP  0  0  0  0  0  0  0  0  0  0  0  0  # atno 17342 bound_to 10162
  139.9715  143.6051  152.2972 LP  0  0  0  0  0  0  0  0  0  0  0  0  # atno 17343 bound_to 10162
  156.1494  130.3642  149.9461 LP  0  0  0  0  0  0  0  0  0  0  0  0  # atno 17370 bound_to 10713
  156.7485  130.9106  151.3636 LP  0  0  0  0  0  0  0  0  0  0  0  0  # atno 17371 bound_to 10713
  140.1678  134.9121  157.2796 LP  0  0  0  0  0  0  0  0  0  0  0  0  # atno 17394 bound_to 11000
  140.2536  134.3653  155.7432 LP  0  0  0  0  0  0  0  0  0  0  0  0  # atno 17395 bound_to 11000

$$$$
