AV-unprocessed.smi:1703|AV-procd|sdf|6871|dock10
  -GOLD-   22720 8 73D 1   1.00000     0.00000
 Structure written by MMmdl.
 49 51  0  0  0  0  0  0  0  0  2 V2000
  149.0529  133.3509  154.6140 C   0  0  0  0  0  0  0  0  0  0  0  0
  149.2085  134.7324  155.2579 C   0  0  1  0  0  0  0  0  0  0  0  0
  150.4290  135.4923  154.7093 C   0  0  0  0  0  0  0  0  0  0  0  0
  150.5291  136.8348  155.2671 N   0  0  0  0  0  0  0  0  0  0  0  0
  151.7207  137.5240  154.7740 C   0  0  0  0  0  0  0  0  0  0  0  0
  151.7454  139.0462  155.0281 C   0  0  2  0  0  0  0  0  0  0  0  0
  153.0523  139.5344  154.7944 O   0  0  0  0  0  0  0  0  0  0  0  0
  151.3317  139.3980  156.4709 C   0  0  0  0  0  0  0  0  0  0  0  0
  151.1320  140.8433  156.6690 N   0  0  0  0  0  0  0  0  0  0  0  0
  150.3542  141.7192  155.9697 C   0  0  0  0  0  0  0  0  0  0  0  0
  149.4910  141.3970  154.7910 C   0  0  0  0  0  0  0  0  0  0  0  0
  148.8678  142.5324  154.2280 O   0  0  0  0  0  0  0  0  0  0  0  0
  150.5138  142.9456  156.5441 N   0  3  0  0  0  0  0  0  0  0  0  0
  151.3994  142.8551  157.6176 C   0  0  0  0  0  0  0  0  0  0  0  0
  151.8659  143.8279  158.4966 C   0  0  0  0  0  0  0  0  0  0  0  0
  152.7730  143.4017  159.4883 C   0  0  0  0  0  0  0  0  0  0  0  0
  153.1836  142.0559  159.5774 C   0  0  0  0  0  0  0  0  0  0  0  0
  152.7029  141.0784  158.6811 C   0  0  0  0  0  0  0  0  0  0  0  0
  151.8035  141.5067  157.7042 C   0  0  0  0  0  0  0  0  0  0  0  0
  149.2972  137.5642  154.9742 C   0  0  0  0  0  0  0  0  0  0  0  0
  148.0366  136.8286  155.4709 C   0  0  2  0  0  0  0  0  0  0  0  0
  147.8575  136.8920  156.9974 C   0  0  0  0  0  0  0  0  0  0  0  0
  148.0252  135.4830  154.9910 O   0  0  0  0  0  0  0  0  0  0  0  0
  149.9310  132.7311  154.7977 H   0  0  0  0  0  0  0  0  0  0  0  0
  148.9193  133.4310  153.5348 H   0  0  0  0  0  0  0  0  0  0  0  0
  148.1867  132.8277  155.0195 H   0  0  0  0  0  0  0  0  0  0  0  0
  149.3171  134.5981  156.3346 H   0  0  0  0  0  0  0  0  0  0  0  0
  151.3336  134.9285  154.9408 H   0  0  0  0  0  0  0  0  0  0  0  0
  150.3669  135.5483  153.6211 H   0  0  0  0  0  0  0  0  0  0  0  0
  152.5819  137.0934  155.2867 H   0  0  0  0  0  0  0  0  0  0  0  0
  151.8793  137.3073  153.7160 H   0  0  0  0  0  0  0  0  0  0  0  0
  151.0616  139.5445  154.3398 H   0  0  0  0  0  0  0  0  0  0  0  0
  153.0125  140.1825  154.1081 H   0  0  0  0  0  0  0  0  0  0  0  0
  150.3864  138.9113  156.7136 H   0  0  0  0  0  0  0  0  0  0  0  0
  152.0555  139.0243  157.1951 H   0  0  0  0  0  0  0  0  0  0  0  0
  150.0975  140.9131  154.0253 H   0  0  0  0  0  0  0  0  0  0  0  0
  148.7208  140.6870  155.0933 H   0  0  0  0  0  0  0  0  0  0  0  0
  148.7699  143.1871  154.9030 H   0  0  0  0  0  0  0  0  0  0  0  0
  151.5540  144.8598  158.4283 H   0  0  0  0  0  0  0  0  0  0  0  0
  153.1628  144.1214  160.1936 H   0  0  0  0  0  0  0  0  0  0  0  0
  153.8829  141.7670  160.3489 H   0  0  0  0  0  0  0  0  0  0  0  0
  153.0298  140.0525  158.7591 H   0  0  0  0  0  0  0  0  0  0  0  0
  149.3261  138.5572  155.4223 H   0  0  0  0  0  0  0  0  0  0  0  0
  149.2151  137.7156  153.8968 H   0  0  0  0  0  0  0  0  0  0  0  0
  147.1680  137.3182  155.0299 H   0  0  0  0  0  0  0  0  0  0  0  0
  147.7534  137.9245  157.3318 H   0  0  0  0  0  0  0  0  0  0  0  0
  148.7066  136.4625  157.5292 H   0  0  0  0  0  0  0  0  0  0  0  0
  146.9618  136.3531  157.3064 H   0  0  0  0  0  0  0  0  0  0  0  0
  150.0467  143.7816  156.2171 H   0  0  0  0  0  0  0  0  0  0  0  0
  1  2  1  0  0  0  0
  1 24  1  0  0  0  0
  1 25  1  0  0  0  0
  1 26  1  0  0  0  0
  2 23  1  0  0  0  0
  2  3  1  0  0  0  0
  2 27  1  0  0  0  0
  3  4  1  0  0  0  0
  3 28  1  0  0  0  0
  3 29  1  0  0  0  0
  4  5  1  0  0  0  0
  4 20  1  0  0  0  0
  5  6  1  0  0  0  0
  5 30  1  0  0  0  0
  5 31  1  0  0  0  0
  6  7  1  0  0  0  0
  6  8  1  0  0  0  0
  6 32  1  0  0  0  0
  7 33  1  0  0  0  0
  8  9  1  0  0  0  0
  8 34  1  0  0  0  0
  8 35  1  0  0  0  0
  9 19  1  0  0  0  0
  9 10  1  0  0  0  0
 10 11  1  0  0  0  0
 10 13  2  0  0  0  0
 11 12  1  0  0  0  0
 11 36  1  0  0  0  0
 11 37  1  0  0  0  0
 12 38  1  0  0  0  0
 13 14  1  0  0  0  0
 13 49  1  0  0  0  0
 14 19  2  0  0  0  0
 14 15  1  0  0  0  0
 15 16  2  0  0  0  0
 15 39  1  0  0  0  0
 16 17  1  0  0  0  0
 16 40  1  0  0  0  0
 17 18  2  0  0  0  0
 17 41  1  0  0  0  0
 18 19  1  0  0  0  0
 18 42  1  0  0  0  0
 20 21  1  0  0  0  0
 20 43  1  0  0  0  0
 20 44  1  0  0  0  0
 21 22  1  0  0  0  0
 21 23  1  0  0  0  0
 21 45  1  0  0  0  0
 22 46  1  0  0  0  0
 22 47  1  0  0  0  0
 22 48  1  0  0  0  0
M  CHG  1  13   1
M  END
> <s_m_source_file>
AV-unprocessed.smi

> <i_m_source_file_index>
1703

> <i_lp_mmshare_version>
43012

> <i_f3d_flags>
0

> <s_epik_input>
W0NIM11bQ0BASF0xW0NIMl1OKFtDSDJdW0NASF0oTzEpW0NIM10pW0NIMl1bQ0BIXShbT0hdKVtDSDJdbihjKG4yKVtDSDJdW09IXSljKGMyMylbY0hdW2NIXVtjSF1bY0hdMw==

> <s_epik_cmdline>
J2VwaWtfcHl0aG9uJywgJy1waCcsICc3LjAnLCAnLXRuJywgJzgnLCAnLW1hJywgJzIwMCcsICctbWV0YWxfYmluZGluZycsICctaW1hZScsICc8aW5maWxlLm1hZT4nLCAnLW9tYWUnLCAnPG91dGZpbGUubWFlPic=

> <r_epik_Ionization_Penalty>
1.7682

> <r_epik_Ionization_Penalty_Charging>
1.55298

> <r_epik_Ionization_Penalty_Neutral>
0.215215

> <r_epik_State_Penalty>
1.83821

> <r_epik_Charging_Adjusted_Penalty>
3.39119

> <i_epik_Tot_Q>
1

> <i_epik_Tot_abs_Q>
1

> <r_epik_Metal_State_Penalty>
5.89206

> <b_epik_Metal_Only>
0

> <s_lp_Force_Field>
OPLS_2005

> <r_lp_Energy>
35.0588

> <b_lp_Chiralities_Consistent>
1

> <s_lp_Variant>
AV-unprocessed.smi:1703-19

> <Gold.Version>
5.8.1

> <Gold.Id.Protein>
6NUR|6NUR_protein|mol2

> <Gold.PLP.Fitness>
57.3122

> <Gold.PLP.PLP>
-45.7192

> <Gold.PLP.part.hbond>
-4.9739

> <Gold.PLP.part.metal>
0.0000

> <Gold.PLP.part.buried>
-5.3905

> <Gold.PLP.part.nonpolar>
-36.3669

> <Gold.PLP.part.repulsive>
0.2865

> <Gold.PLP.ligand.clash>
0.0000

> <Gold.PLP.ligand.torsion>
0.3086

> <Gold.PLP.Chemscore.Hbond>
4.0636

> <Gold.PLP.Chemscore.CHOScore>
0.0000

> <Gold.PLP.Chemscore.Metal>
0.0000

> <Gold.Chemscore.Hbonds>
donor molecule, donor type, donor heavy atom, donor atom, acceptor molecule, acceptor atom, score
      L1  H    12    38       P1  8028  1.00
      L1  H    13    49       P1  8028  2.00
      P1  H  7997  8009       L1     7  1.00
      P1  H  8011  8017       L1    12  0.09

> <Gold.PLP.Chemscore.Internal.Correction>
0.0192

> <Gold.Rescore>
     Score         DG    S(hbond)    S(metal)    S(lipo)     H(rot)  DE(clash)    DE(int)     intcor
     20.59     -21.27       2.94        0.00     115.69       2.96       0.18       0.49       ----

> <Gold.Chemscore.Fitness>
20.5913

> <Gold.Chemscore.DG>
-21.2659

> <Gold.Chemscore.ZeroCoef>
-5.4800

> <Gold.Chemscore.Hbond>
2.9391

> <Gold.Chemscore.Metal>
0.0000

> <Gold.Chemscore.Lipo>
115.6858

> <Gold.Chemscore.Internal_Hbond>
0.0000

> <Gold.Chemscore.DEClash>
0.1823

> <Gold.Chemscore.DEInternal>
0.4923

> <Gold.Chemscore.Rot>
2.9555

> <Gold.Chemscore.Internal.Correction>
   9.000000E+99

> <Gold.Chemscore.Hbonds>
donor molecule, donor type, donor heavy atom, donor atom, acceptor molecule, acceptor atom, score
      L1  H    12    38       P1  8028  0.99
      L1  H    13    49       P1  8028  0.98
      P1  H  7997  8009       L1     7  0.50
      P1  H  8011  8017       L1    12  0.02

> <Gold.Chemscore.Hbond.Weighted>
-9.8166

> <Gold.Chemscore.Metal.Weighted>
-0.0000

> <Gold.Chemscore.Lipo.Weighted>
-13.5352

> <Gold.Chemscore.Internal_Hbond.Weighted>
0.0000

> <Gold.Chemscore.DEClash.Weighted>
0.1823

> <Gold.Chemscore.DEInternal.Weighted>
0.4923

> <Gold.Chemscore.Rot.Weighted>
7.5660

> <Gold.Chemscore.Internal.Correction.Weighted>
   9.000000E+99

> <Gold.Protein.RotatedTorsions>
[ 6907 6896 6895 6894 ] final   24.89 input  -60.11 | X-H torsion
[ 7974 7965 7964 7962 ] final  -86.58 input  175.53 | X-H torsion
[ 8008 7997 7996 7995 ] final -143.95 input   59.86 | X-H torsion
[ 10167 10162 10161 10158 ] final  -18.54 input  -65.29 | X-H torsion
[ 10718 10713 10712 10709 ] final  -97.06 input   66.30 | X-H torsion
[ 10763 10752 10751 10750 ] final  144.30 input  -60.55 | X-H torsion
[ 11005 11000 10999 10996 ] final  -95.72 input  -57.11 | X-H torsion

> <Gold.Protein.ActiveResidues>
 VAL166  LYS551  ARG553  GLY616  TRP617  ASP618  TYR619  PRO620  LYS621  CYS622 
 ASP623  PHE694  ASN695  SER759  ASP760  ASP761  ALA762  ILE779  LEU786  VAL792 
 PHE793  MET794  SER795  GLU796  ALA797  LYS798  CYS799  TRP800  GLU811  SER814 

> <Gold.Protein.RotatedAtoms>
  151.9643  135.0108  160.0549 H   0  0  0  0  0  0  0  0  0  0  0  0  # atno 6907 bound_to 6896
  152.1841  133.4723  159.4981 H   0  0  0  0  0  0  0  0  0  0  0  0  # atno 6908 bound_to 6896
  150.6922  134.1714  159.4256 H   0  0  0  0  0  0  0  0  0  0  0  0  # atno 6909 bound_to 6896
  145.4779  140.9558  143.1880 H   0  0  0  0  0  0  0  0  0  0  0  0  # atno 7974 bound_to 7965
  155.5190  140.0590  157.2910 H   0  0  0  0  0  0  0  0  0  0  0  0  # atno 8008 bound_to 7997
  154.4524  140.1956  156.0425 H   0  0  0  0  0  0  0  0  0  0  0  0  # atno 8009 bound_to 7997
  156.0732  140.3257  155.7605 H   0  0  0  0  0  0  0  0  0  0  0  0  # atno 8010 bound_to 7997
  140.7259  143.4907  150.9996 H   0  0  0  0  0  0  0  0  0  0  0  0  # atno 10167 bound_to 10162
  156.0075  130.5178  150.6319 H   0  0  0  0  0  0  0  0  0  0  0  0  # atno 10718 bound_to 10713
  153.9865  135.2936  155.3415 H   0  0  0  0  0  0  0  0  0  0  0  0  # atno 10763 bound_to 10752
  154.7239  135.5097  153.8858 H   0  0  0  0  0  0  0  0  0  0  0  0  # atno 10764 bound_to 10752
  153.0829  135.6684  154.0123 H   0  0  0  0  0  0  0  0  0  0  0  0  # atno 10765 bound_to 10752
  141.1433  133.8046  157.0473 H   0  0  0  0  0  0  0  0  0  0  0  0  # atno 11005 bound_to 11000
  144.7906  139.6336  143.7115 LP  0  0  0  0  0  0  0  0  0  0  0  0  # atno 17320 bound_to 7965
  146.2358  139.5902  142.9525 LP  0  0  0  0  0  0  0  0  0  0  0  0  # atno 17321 bound_to 7965
  139.8611  143.7314  152.3173 LP  0  0  0  0  0  0  0  0  0  0  0  0  # atno 17342 bound_to 10162
  139.7529  144.7529  151.0479 LP  0  0  0  0  0  0  0  0  0  0  0  0  # atno 17343 bound_to 10162
  157.4115  131.0824  151.1216 LP  0  0  0  0  0  0  0  0  0  0  0  0  # atno 17370 bound_to 10713
  157.1846  130.6325  149.5683 LP  0  0  0  0  0  0  0  0  0  0  0  0  # atno 17371 bound_to 10713
  140.0654  134.9732  157.1377 LP  0  0  0  0  0  0  0  0  0  0  0  0  # atno 17394 bound_to 11000
  140.3787  134.2311  155.7172 LP  0  0  0  0  0  0  0  0  0  0  0  0  # atno 17395 bound_to 11000

$$$$
