AV-unprocessed.smi:869|AV-procd|sdf|4003|dock6
  -GOLD-   22720 1483D 1   1.00000     0.00000
 Structure written by MMmdl.
 46 48  0  0  0  0  0  0  0  0  1 V2000
  152.9096  138.4884  154.6257 C   0  0  0  0  0  0  0  0  0  0  0  0
  153.0254  139.4104  155.6947 O   0  0  0  0  0  0  0  0  0  0  0  0
  151.8796  139.4122  156.5333 C   0  0  0  0  0  0  0  0  0  0  0  0
  151.8914  140.6701  157.3552 C   0  0  0  0  0  0  0  0  0  0  0  0
  152.7743  140.8960  158.3315 N   0  0  0  0  0  0  0  0  0  0  0  0
  152.4120  142.1467  158.7904 C   0  0  0  0  0  0  0  0  0  0  0  0
  152.9620  142.9426  159.8208 C   0  0  0  0  0  0  0  0  0  0  0  0
  152.4152  144.2093  160.1132 C   0  0  0  0  0  0  0  0  0  0  0  0
  151.3138  144.6977  159.3807 C   0  0  0  0  0  0  0  0  0  0  0  0
  150.7513  143.9208  158.3497 C   0  0  0  0  0  0  0  0  0  0  0  0
  151.3002  142.6566  158.0631 C   0  0  0  0  0  0  0  0  0  0  0  0
  150.9917  141.6634  157.1392 N   0  0  0  0  0  0  0  0  0  0  0  0
  149.9184  141.7165  156.1545 C   0  0  0  0  0  0  0  0  0  0  0  0
  148.9048  140.5662  156.3199 C   0  0  2  0  0  0  0  0  0  0  0  0
  149.0967  139.6256  155.2815 O   0  0  0  0  0  0  0  0  0  0  0  0
  147.4534  141.0678  156.2598 C   0  0  0  0  0  0  0  0  0  0  0  0
  147.2061  141.6017  154.9656 O   0  0  0  0  0  0  0  0  0  0  0  0
  146.3000  142.6336  154.8464 C   0  0  0  0  0  0  0  0  0  0  0  0
  146.1783  143.2345  153.5766 C   0  0  0  0  0  0  0  0  0  0  0  0
  145.2785  144.2965  153.3636 C   0  0  0  0  0  0  0  0  0  0  0  0
  144.4859  144.7745  154.4254 C   0  0  0  0  0  0  0  0  0  0  0  0
  143.5164  145.9166  154.2016 C   0  0  0  0  0  0  0  0  0  0  0  0
  144.5967  144.1800  155.6977 C   0  0  0  0  0  0  0  0  0  0  0  0
  145.4960  143.1168  155.9097 C   0  0  0  0  0  0  0  0  0  0  0  0
  153.8099  138.5241  154.0122 H   0  0  0  0  0  0  0  0  0  0  0  0
  152.0573  138.7285  153.9884 H   0  0  0  0  0  0  0  0  0  0  0  0
  152.7943  137.4686  154.9958 H   0  0  0  0  0  0  0  0  0  0  0  0
  150.9678  139.3812  155.9350 H   0  0  0  0  0  0  0  0  0  0  0  0
  151.8933  138.5432  157.1922 H   0  0  0  0  0  0  0  0  0  0  0  0
  153.8059  142.5769  160.3869 H   0  0  0  0  0  0  0  0  0  0  0  0
  152.8430  144.8092  160.9030 H   0  0  0  0  0  0  0  0  0  0  0  0
  150.9006  145.6687  159.6110 H   0  0  0  0  0  0  0  0  0  0  0  0
  149.9075  144.2914  157.7872 H   0  0  0  0  0  0  0  0  0  0  0  0
  149.4115  142.6755  156.2667 H   0  0  0  0  0  0  0  0  0  0  0  0
  150.3386  141.7156  155.1488 H   0  0  0  0  0  0  0  0  0  0  0  0
  149.0803  140.0738  157.2772 H   0  0  0  0  0  0  0  0  0  0  0  0
  148.2979  139.5686  154.7795 H   0  0  0  0  0  0  0  0  0  0  0  0
  146.7742  140.2285  156.4185 H   0  0  0  0  0  0  0  0  0  0  0  0
  147.2657  141.8027  157.0447 H   0  0  0  0  0  0  0  0  0  0  0  0
  146.7819  142.8770  152.7553 H   0  0  0  0  0  0  0  0  0  0  0  0
  145.2005  144.7421  152.3827 H   0  0  0  0  0  0  0  0  0  0  0  0
  142.5196  145.5280  153.9927 H   0  0  0  0  0  0  0  0  0  0  0  0
  143.8279  146.5352  153.3594 H   0  0  0  0  0  0  0  0  0  0  0  0
  143.4595  146.5533  155.0850 H   0  0  0  0  0  0  0  0  0  0  0  0
  143.9911  144.5378  156.5173 H   0  0  0  0  0  0  0  0  0  0  0  0
  145.5498  142.6896  156.8992 H   0  0  0  0  0  0  0  0  0  0  0  0
  1  2  1  0  0  0  0
  1 25  1  0  0  0  0
  1 26  1  0  0  0  0
  1 27  1  0  0  0  0
  2  3  1  0  0  0  0
  3  4  1  0  0  0  0
  3 28  1  0  0  0  0
  3 29  1  0  0  0  0
  4 12  1  0  0  0  0
  4  5  2  0  0  0  0
  5  6  1  0  0  0  0
  6 11  2  0  0  0  0
  6  7  1  0  0  0  0
  7  8  2  0  0  0  0
  7 30  1  0  0  0  0
  8  9  1  0  0  0  0
  8 31  1  0  0  0  0
  9 10  2  0  0  0  0
  9 32  1  0  0  0  0
 10 11  1  0  0  0  0
 10 33  1  0  0  0  0
 11 12  1  0  0  0  0
 12 13  1  0  0  0  0
 13 14  1  0  0  0  0
 13 34  1  0  0  0  0
 13 35  1  0  0  0  0
 14 15  1  0  0  0  0
 14 16  1  0  0  0  0
 14 36  1  0  0  0  0
 15 37  1  0  0  0  0
 16 17  1  0  0  0  0
 16 38  1  0  0  0  0
 16 39  1  0  0  0  0
 17 18  1  0  0  0  0
 18 24  1  0  0  0  0
 18 19  2  0  0  0  0
 19 20  1  0  0  0  0
 19 40  1  0  0  0  0
 20 21  2  0  0  0  0
 20 41  1  0  0  0  0
 21 22  1  0  0  0  0
 21 23  1  0  0  0  0
 22 42  1  0  0  0  0
 22 43  1  0  0  0  0
 22 44  1  0  0  0  0
 23 24  2  0  0  0  0
 23 45  1  0  0  0  0
 24 46  1  0  0  0  0
M  END
> <s_m_source_file>
AV-unprocessed.smi

> <i_m_source_file_index>
869

> <i_lp_mmshare_version>
43012

> <i_f3d_flags>
0

> <s_epik_input>
W2NIXTFbY0hdW2NIXVtjSF1jKGMxMiluKGMobjIpW0NIMl1PW0NIM10pW0NIMl1bQ0BIXShbT0hdKVtDSDJdT2MzW2NIXVtjSF1jKFtDSDNdKVtjSF1bY0hdMw==

> <s_epik_cmdline>
J2VwaWtfcHl0aG9uJywgJy1waCcsICc3LjAnLCAnLXRuJywgJzgnLCAnLW1hJywgJzIwMCcsICctbWV0YWxfYmluZGluZycsICctaW1hZScsICc8aW5maWxlLm1hZT4nLCAnLW9tYWUnLCAnPG91dGZpbGUubWFlPic=

> <r_lp_tautomer_probability>
1

> <r_epik_Ionization_Penalty>
0.0446698

> <r_epik_Ionization_Penalty_Charging>
0

> <r_epik_Ionization_Penalty_Neutral>
0.0446698

> <r_epik_State_Penalty>
0.0378721

> <r_epik_Charging_Adjusted_Penalty>
0.0378721

> <i_epik_Tot_Q>
0

> <i_epik_Tot_abs_Q>
0

> <r_epik_Metal_State_Penalty>
3.91074e-05

> <b_epik_Metal_Only>
0

> <s_lp_Force_Field>
OPLS_2005

> <r_lp_Energy>
18.3229

> <b_lp_Chiralities_Consistent>
1

> <s_lp_Variant>
AV-unprocessed.smi:869-1

> <Gold.Version>
5.8.1

> <Gold.Id.Protein>
6NUR|6NUR_protein|mol2

> <Gold.PLP.Fitness>
50.2941

> <Gold.PLP.PLP>
-49.3132

> <Gold.PLP.part.hbond>
-1.6147

> <Gold.PLP.part.metal>
0.0000

> <Gold.PLP.part.buried>
-6.9077

> <Gold.PLP.part.nonpolar>
-40.9256

> <Gold.PLP.part.repulsive>
0.1125

> <Gold.PLP.ligand.clash>
0.0000

> <Gold.PLP.ligand.torsion>
1.0660

> <Gold.PLP.Chemscore.Hbond>
1.0000

> <Gold.PLP.Chemscore.CHOScore>
0.0000

> <Gold.PLP.Chemscore.Metal>
0.0000

> <Gold.Chemscore.Hbonds>
donor molecule, donor type, donor heavy atom, donor atom, acceptor molecule, acceptor atom, score
      P1  H  7997  8008       L1     2  1.00

> <Gold.PLP.Chemscore.Internal.Correction>
0.1130

> <Gold.Rescore>
     Score         DG    S(hbond)    S(metal)    S(lipo)     H(rot)  DE(clash)    DE(int)     intcor
     17.48     -18.68       0.98        0.00     136.42       2.36       0.11       1.09       ----

> <Gold.Chemscore.Fitness>
17.4803

> <Gold.Chemscore.DG>
-18.6772

> <Gold.Chemscore.ZeroCoef>
-5.4800

> <Gold.Chemscore.Hbond>
0.9802

> <Gold.Chemscore.Metal>
0.0000

> <Gold.Chemscore.Lipo>
136.4194

> <Gold.Chemscore.Internal_Hbond>
0.0000

> <Gold.Chemscore.DEClash>
0.1108

> <Gold.Chemscore.DEInternal>
1.0861

> <Gold.Chemscore.Rot>
2.3585

> <Gold.Chemscore.Internal.Correction>
   9.000000E+99

> <Gold.Chemscore.Hbonds>
donor molecule, donor type, donor heavy atom, donor atom, acceptor molecule, acceptor atom, score
      P1  H  7997  8008       L1     2  0.95

> <Gold.Chemscore.Hbond.Weighted>
-3.2739

> <Gold.Chemscore.Metal.Weighted>
-0.0000

> <Gold.Chemscore.Lipo.Weighted>
-15.9611

> <Gold.Chemscore.Internal_Hbond.Weighted>
0.0000

> <Gold.Chemscore.DEClash.Weighted>
0.1108

> <Gold.Chemscore.DEInternal.Weighted>
1.0861

> <Gold.Chemscore.Rot.Weighted>
6.0378

> <Gold.Chemscore.Internal.Correction.Weighted>
   9.000000E+99

> <Gold.Protein.RotatedTorsions>
[ 6907 6896 6895 6894 ] final  134.20 input  -60.11 | X-H torsion
[ 7974 7965 7964 7962 ] final -174.59 input  175.53 | X-H torsion
[ 8008 7997 7996 7995 ] final  -35.09 input   59.86 | X-H torsion
[ 10167 10162 10161 10158 ] final -160.45 input  -65.29 | X-H torsion
[ 10718 10713 10712 10709 ] final  -95.89 input   66.30 | X-H torsion
[ 10763 10752 10751 10750 ] final   85.52 input  -60.55 | X-H torsion
[ 11005 11000 10999 10996 ] final   38.01 input  -57.11 | X-H torsion

> <Gold.Protein.ActiveResidues>
 VAL166  LYS551  ARG553  GLY616  TRP617  ASP618  TYR619  PRO620  LYS621  CYS622 
 ASP623  PHE694  ASN695  SER759  ASP760  ASP761  ALA762  ILE779  LEU786  VAL792 
 PHE793  MET794  SER795  GLU796  ALA797  LYS798  CYS799  TRP800  GLU811  SER814 

> <Gold.Protein.RotatedAtoms>
  152.3139  133.5781  159.5698 H   0  0  0  0  0  0  0  0  0  0  0  0  # atno 6907 bound_to 6896
  150.7336  134.0112  159.3679 H   0  0  0  0  0  0  0  0  0  0  0  0  # atno 6908 bound_to 6896
  151.8002  135.0711  160.0450 H   0  0  0  0  0  0  0  0  0  0  0  0  # atno 6909 bound_to 6896
  144.7131  140.1449  143.6389 H   0  0  0  0  0  0  0  0  0  0  0  0  # atno 7974 bound_to 7965
  154.4104  140.1666  156.2156 H   0  0  0  0  0  0  0  0  0  0  0  0  # atno 8008 bound_to 7997
  155.9407  140.3408  155.6302 H   0  0  0  0  0  0  0  0  0  0  0  0  # atno 8009 bound_to 7997
  155.6992  140.0743  157.2408 H   0  0  0  0  0  0  0  0  0  0  0  0  # atno 8010 bound_to 7997
  139.6538  144.0035  152.2180 H   0  0  0  0  0  0  0  0  0  0  0  0  # atno 10167 bound_to 10162
  156.0051  130.5128  150.6144 H   0  0  0  0  0  0  0  0  0  0  0  0  # atno 10718 bound_to 10713
  153.1483  135.4614  154.9598 H   0  0  0  0  0  0  0  0  0  0  0  0  # atno 10763 bound_to 10752
  154.7804  135.3186  154.8005 H   0  0  0  0  0  0  0  0  0  0  0  0  # atno 10764 bound_to 10752
  153.8514  135.6921  153.4846 H   0  0  0  0  0  0  0  0  0  0  0  0  # atno 10765 bound_to 10752
  140.2169  134.3688  155.8023 H   0  0  0  0  0  0  0  0  0  0  0  0  # atno 11005 bound_to 11000
  145.9169  139.2521  143.1404 LP  0  0  0  0  0  0  0  0  0  0  0  0  # atno 17320 bound_to 7965
  145.9660  140.8798  143.0186 LP  0  0  0  0  0  0  0  0  0  0  0  0  # atno 17321 bound_to 7965
  139.9756  144.6464  150.7948 LP  0  0  0  0  0  0  0  0  0  0  0  0  # atno 17342 bound_to 10162
  140.7550  143.3038  151.3014 LP  0  0  0  0  0  0  0  0  0  0  0  0  # atno 17343 bound_to 10162
  157.3970  131.0804  151.1342 LP  0  0  0  0  0  0  0  0  0  0  0  0  # atno 17370 bound_to 10713
  157.2016  130.6397  149.5740 LP  0  0  0  0  0  0  0  0  0  0  0  0  # atno 17371 bound_to 10713
  141.2224  133.7173  156.8511 LP  0  0  0  0  0  0  0  0  0  0  0  0  # atno 17394 bound_to 11000
  140.1891  134.8978  157.3039 LP  0  0  0  0  0  0  0  0  0  0  0  0  # atno 17395 bound_to 11000

$$$$
