AV-unprocessed.smi:341|AV-procd|sdf|2383|dock9
  -GOLD-   2262022313D 1   1.00000     0.00000
 Structure written by MMmdl.
 44 46  0  0  0  0  0  0  0  0  1 V2000
  155.4877  140.6586  159.5962 C   0  0  0  0  0  0  0  0  0  0  0  0
  154.2790  141.0800  160.4415 C   0  0  0  0  0  0  0  0  0  0  0  0
  153.0999  141.2958  159.6066 N   0  0  0  0  0  0  0  0  0  0  0  0
  152.4589  140.3667  158.8590 C   0  0  0  0  0  0  0  0  0  0  0  0
  152.7565  139.1755  158.7736 O   0  0  0  0  0  0  0  0  0  0  0  0
  151.4335  140.9766  158.2185 N   0  0  0  0  0  0  0  0  0  0  0  0
  150.4769  140.3463  157.3091 C   0  0  0  0  0  0  0  0  0  0  0  0
  150.4171  141.0721  155.9496 C   0  0  1  0  0  0  0  0  0  0  0  0
  151.5726  140.7144  155.2173 O   0  0  0  0  0  0  0  0  0  0  0  0
  149.1984  140.6340  155.1200 C   0  0  0  0  0  0  0  0  0  0  0  0
  148.0474  140.6476  155.9545 O   0  0  0  0  0  0  0  0  0  0  0  0
  147.0296  141.5261  155.6512 C   0  0  0  0  0  0  0  0  0  0  0  0
  146.8939  141.9048  154.2998 C   0  0  0  0  0  0  0  0  0  0  0  0
  145.8824  142.7984  153.8979 C   0  0  0  0  0  0  0  0  0  0  0  0
  144.9897  143.3266  154.8508 C   0  0  0  0  0  0  0  0  0  0  0  0
  143.9447  144.2491  154.4397 C   0  0  0  0  0  0  0  0  0  0  0  0
  143.1127  144.9835  154.1123 N   0  0  0  0  0  0  0  0  0  0  0  0
  145.1144  142.9562  156.2044 C   0  0  0  0  0  0  0  0  0  0  0  0
  146.1270  142.0622  156.6044 C   0  0  0  0  0  0  0  0  0  0  0  0
  151.4202  142.3358  158.5638 C   0  0  0  0  0  0  0  0  0  0  0  0
  150.5667  143.3825  158.1730 C   0  0  0  0  0  0  0  0  0  0  0  0
  150.8280  144.6650  158.7095 C   0  0  0  0  0  0  0  0  0  0  0  0
  151.9105  144.8724  159.6034 C   0  0  0  0  0  0  0  0  0  0  0  0
  152.7536  143.8011  159.9810 C   0  0  0  0  0  0  0  0  0  0  0  0
  152.4701  142.5369  159.4355 C   0  0  0  0  0  0  0  0  0  0  0  0
  156.3634  140.4973  160.2248 H   0  0  0  0  0  0  0  0  0  0  0  0
  155.7420  141.4241  158.8624 H   0  0  0  0  0  0  0  0  0  0  0  0
  155.2894  139.7308  159.0586 H   0  0  0  0  0  0  0  0  0  0  0  0
  154.0684  140.3171  161.1924 H   0  0  0  0  0  0  0  0  0  0  0  0
  154.5084  141.9916  160.9939 H   0  0  0  0  0  0  0  0  0  0  0  0
  150.6987  139.2862  157.1807 H   0  0  0  0  0  0  0  0  0  0  0  0
  149.4971  140.3821  157.7879 H   0  0  0  0  0  0  0  0  0  0  0  0
  150.3873  142.1523  156.0996 H   0  0  0  0  0  0  0  0  0  0  0  0
  152.0529  140.0683  155.7120 H   0  0  0  0  0  0  0  0  0  0  0  0
  149.0729  141.2757  154.2457 H   0  0  0  0  0  0  0  0  0  0  0  0
  149.3477  139.6130  154.7653 H   0  0  0  0  0  0  0  0  0  0  0  0
  147.5736  141.5047  153.5617 H   0  0  0  0  0  0  0  0  0  0  0  0
  145.7974  143.0740  152.8564 H   0  0  0  0  0  0  0  0  0  0  0  0
  144.4348  143.3551  156.9440 H   0  0  0  0  0  0  0  0  0  0  0  0
  146.1896  141.8036  157.6503 H   0  0  0  0  0  0  0  0  0  0  0  0
  149.7442  143.2203  157.4925 H   0  0  0  0  0  0  0  0  0  0  0  0
  150.1960  145.4964  158.4344 H   0  0  0  0  0  0  0  0  0  0  0  0
  152.0931  145.8598  160.0004 H   0  0  0  0  0  0  0  0  0  0  0  0
  153.5794  143.9534  160.6600 H   0  0  0  0  0  0  0  0  0  0  0  0
  1  2  1  0  0  0  0
  1 26  1  0  0  0  0
  1 27  1  0  0  0  0
  1 28  1  0  0  0  0
  2  3  1  0  0  0  0
  2 29  1  0  0  0  0
  2 30  1  0  0  0  0
  3 25  1  0  0  0  0
  3  4  1  0  0  0  0
  4  5  2  0  0  0  0
  4  6  1  0  0  0  0
  6  7  1  0  0  0  0
  6 20  1  0  0  0  0
  7  8  1  0  0  0  0
  7 31  1  0  0  0  0
  7 32  1  0  0  0  0
  8  9  1  0  0  0  0
  8 10  1  0  0  0  0
  8 33  1  0  0  0  0
  9 34  1  0  0  0  0
 10 11  1  0  0  0  0
 10 35  1  0  0  0  0
 10 36  1  0  0  0  0
 11 12  1  0  0  0  0
 12 19  1  0  0  0  0
 12 13  2  0  0  0  0
 13 14  1  0  0  0  0
 13 37  1  0  0  0  0
 14 15  2  0  0  0  0
 14 38  1  0  0  0  0
 15 16  1  0  0  0  0
 15 18  1  0  0  0  0
 16 17  3  0  0  0  0
 18 19  2  0  0  0  0
 18 39  1  0  0  0  0
 19 40  1  0  0  0  0
 20 25  2  0  0  0  0
 20 21  1  0  0  0  0
 21 22  2  0  0  0  0
 21 41  1  0  0  0  0
 22 23  1  0  0  0  0
 22 42  1  0  0  0  0
 23 24  2  0  0  0  0
 23 43  1  0  0  0  0
 24 25  1  0  0  0  0
 24 44  1  0  0  0  0
M  END
> <s_m_source_file>
AV-unprocessed.smi

> <i_m_source_file_index>
341

> <i_lp_mmshare_version>
43012

> <i_f3d_flags>
0

> <s_epik_input>
W2NIXTFbY0hdW2NIXVtjSF1jKGMxMiluKFtDSDJdW0NIM10pYyg9TyluMltDSDJdW0NASF0oW09IXSlbQ0gyXU9jM1tjSF1bY0hdYyhDI04pW2NIXVtjSF0z

> <s_epik_cmdline>
J2VwaWtfcHl0aG9uJywgJy1waCcsICc3LjAnLCAnLXRuJywgJzgnLCAnLW1hJywgJzIwMCcsICctbWV0YWxfYmluZGluZycsICctaW1hZScsICc8aW5maWxlLm1hZT4nLCAnLW9tYWUnLCAnPG91dGZpbGUubWFlPic=

> <r_lp_tautomer_probability>
1

> <r_epik_Ionization_Penalty>
2.40146e-06

> <r_epik_Ionization_Penalty_Charging>
2.16099e-09

> <r_epik_Ionization_Penalty_Neutral>
2.3993e-06

> <r_epik_State_Penalty>
-0

> <r_epik_Charging_Adjusted_Penalty>
2.16099e-09

> <i_epik_Tot_Q>
0

> <i_epik_Tot_abs_Q>
0

> <r_epik_Metal_State_Penalty>
-0

> <b_epik_Metal_Only>
0

> <s_lp_Force_Field>
OPLS_2005

> <r_lp_Energy>
47.9836

> <b_lp_Chiralities_Consistent>
1

> <s_lp_Variant>
AV-unprocessed.smi:341-2

> <Gold.Version>
5.8.1

> <Gold.Id.Protein>
6NUR|6NUR_protein|mol2

> <Gold.PLP.Fitness>
56.6764

> <Gold.PLP.PLP>
-55.9852

> <Gold.PLP.part.hbond>
-2.0000

> <Gold.PLP.part.metal>
0.0000

> <Gold.PLP.part.buried>
-8.5107

> <Gold.PLP.part.nonpolar>
-45.5506

> <Gold.PLP.part.repulsive>
0.1580

> <Gold.PLP.ligand.clash>
0.0000

> <Gold.PLP.ligand.torsion>
0.9960

> <Gold.PLP.Chemscore.Hbond>
0.8640

> <Gold.PLP.Chemscore.CHOScore>
0.0000

> <Gold.PLP.Chemscore.Metal>
0.0000

> <Gold.Chemscore.Hbonds>
donor molecule, donor type, donor heavy atom, donor atom, acceptor molecule, acceptor atom, score
      P1  H  7989  7998       L1     9  0.72

> <Gold.PLP.Chemscore.Internal.Correction>
0.0911

> <Gold.Rescore>
     Score         DG    S(hbond)    S(metal)    S(lipo)     H(rot)  DE(clash)    DE(int)     intcor
     15.97     -17.10       0.88        0.00     128.28       2.48       0.01       1.12       ----

> <Gold.Chemscore.Fitness>
15.9726

> <Gold.Chemscore.DG>
-17.0975

> <Gold.Chemscore.ZeroCoef>
-5.4800

> <Gold.Chemscore.Hbond>
0.8830

> <Gold.Chemscore.Metal>
0.0000

> <Gold.Chemscore.Lipo>
128.2820

> <Gold.Chemscore.Internal_Hbond>
0.0000

> <Gold.Chemscore.DEClash>
0.0050

> <Gold.Chemscore.DEInternal>
1.1199

> <Gold.Chemscore.Rot>
2.4768

> <Gold.Chemscore.Internal.Correction>
   9.000000E+99

> <Gold.Chemscore.Hbonds>
donor molecule, donor type, donor heavy atom, donor atom, acceptor molecule, acceptor atom, score
      P1  H  7989  7998       L1     9  0.71

> <Gold.Chemscore.Hbond.Weighted>
-2.9492

> <Gold.Chemscore.Metal.Weighted>
-0.0000

> <Gold.Chemscore.Lipo.Weighted>
-15.0090

> <Gold.Chemscore.Internal_Hbond.Weighted>
0.0000

> <Gold.Chemscore.DEClash.Weighted>
0.0050

> <Gold.Chemscore.DEInternal.Weighted>
1.1199

> <Gold.Chemscore.Rot.Weighted>
6.3407

> <Gold.Chemscore.Internal.Correction.Weighted>
   9.000000E+99

> <Gold.Protein.RotatedTorsions>
[ 6907 6896 6895 6894 ] final  121.95 input  -60.11 | X-H torsion
[ 7974 7965 7964 7962 ] final   68.24 input  175.53 | X-H torsion
[ 8008 7997 7996 7995 ] final -179.22 input   59.86 | X-H torsion
[ 10167 10162 10161 10158 ] final  141.25 input  -65.29 | X-H torsion
[ 10718 10713 10712 10709 ] final  165.24 input   66.30 | X-H torsion
[ 10763 10752 10751 10750 ] final  -76.87 input  -60.55 | X-H torsion
[ 11005 11000 10999 10996 ] final   17.75 input  -57.11 | X-H torsion

> <Gold.Protein.ActiveResidues>
 VAL166  LYS551  ARG553  GLY616  TRP617  ASP618  TYR619  PRO620  LYS621  CYS622 
 ASP623  PHE694  ASN695  SER759  ASP760  ASP761  ALA762  ILE779  LEU786  VAL792 
 PHE793  MET794  SER795  GLU796  ALA797  LYS798  CYS799  TRP800  GLU811  SER814 

> <Gold.Protein.RotatedAtoms>
  152.4281  133.7230  159.6543 H   0  0  0  0  0  0  0  0  0  0  0  0  # atno 6907 bound_to 6896
  150.8159  133.8328  159.3167 H   0  0  0  0  0  0  0  0  0  0  0  0  # atno 6908 bound_to 6896
  151.6025  135.1048  160.0115 H   0  0  0  0  0  0  0  0  0  0  0  0  # atno 6909 bound_to 6896
  145.8050  139.3002  143.1132 H   0  0  0  0  0  0  0  0  0  0  0  0  # atno 7974 bound_to 7965
  156.0280  140.1276  157.0288 H   0  0  0  0  0  0  0  0  0  0  0  0  # atno 8008 bound_to 7997
  154.4338  140.1055  156.6129 H   0  0  0  0  0  0  0  0  0  0  0  0  # atno 8009 bound_to 7997
  155.5848  140.3468  155.4552 H   0  0  0  0  0  0  0  0  0  0  0  0  # atno 8010 bound_to 7997
  139.5026  144.6183  151.6111 H   0  0  0  0  0  0  0  0  0  0  0  0  # atno 10167 bound_to 10162
  157.0830  131.0397  151.2568 H   0  0  0  0  0  0  0  0  0  0  0  0  # atno 10718 bound_to 10713
  154.5056  135.5783  153.6564 H   0  0  0  0  0  0  0  0  0  0  0  0  # atno 10763 bound_to 10752
  152.9887  135.6146  154.2946 H   0  0  0  0  0  0  0  0  0  0  0  0  # atno 10764 bound_to 10752
  154.2857  135.2850  155.2657 H   0  0  0  0  0  0  0  0  0  0  0  0  # atno 10765 bound_to 10752
  140.4324  134.1406  155.7682 H   0  0  0  0  0  0  0  0  0  0  0  0  # atno 11005 bound_to 11000
  145.9838  140.8660  143.0101 LP  0  0  0  0  0  0  0  0  0  0  0  0  # atno 17320 bound_to 7965
  144.6764  140.2117  143.7376 LP  0  0  0  0  0  0  0  0  0  0  0  0  # atno 17321 bound_to 7965
  140.5878  143.9834  150.6306 LP  0  0  0  0  0  0  0  0  0  0  0  0  # atno 17342 bound_to 10162
  140.3004  143.3264  152.0977 LP  0  0  0  0  0  0  0  0  0  0  0  0  # atno 17343 bound_to 10162
  157.4784  130.7750  149.7391 LP  0  0  0  0  0  0  0  0  0  0  0  0  # atno 17370 bound_to 10713
  155.9918  130.3935  150.2967 LP  0  0  0  0  0  0  0  0  0  0  0  0  # atno 17371 bound_to 10713
  141.1740  133.8552  157.1481 LP  0  0  0  0  0  0  0  0  0  0  0  0  # atno 17394 bound_to 11000
  140.0125  134.9982  157.0425 LP  0  0  0  0  0  0  0  0  0  0  0  0  # atno 17395 bound_to 11000

$$$$
