AV-unprocessed.smi:2310|AV-procd|sdf|9259|dock5
  -GOLD-   2272012483D 1   1.00000     0.00000
 Structure written by MMmdl.
 45 46  0  0  0  0  0  0  0  0  3 V2000
  147.6160  135.6099  154.6876 C   0  0  0  0  0  0  0  0  0  0  0  0
  148.9169  135.9814  155.4267 C   0  0  0  0  0  0  0  0  0  0  0  0
  150.2212  135.5348  154.7280 C   0  0  2  0  0  0  0  0  0  0  0  0
  150.7089  134.1866  155.2881 C   0  0  0  0  0  0  0  0  0  0  0  0
  150.2671  133.9087  156.6666 C   0  0  0  0  0  0  0  0  0  0  0  0
  149.9157  133.6883  157.7484 N   0  0  0  0  0  0  0  0  0  0  0  0
  151.2649  136.5448  154.9436 N   0  5  0  0  0  0  0  0  0  0  0  0
  151.2757  137.4552  155.9539 C   0  0  0  0  0  0  0  0  0  0  0  0
  151.3170  137.2349  157.1698 O   0  0  0  0  0  0  0  0  0  0  0  0
  151.2138  138.7178  155.4971 N   0  0  0  0  0  0  0  0  0  0  0  0
  151.2268  139.9303  156.2385 C   0  0  0  0  0  0  0  0  0  0  0  0
  152.0510  140.1216  157.3745 C   0  0  0  0  0  0  0  0  0  0  0  0
  152.0350  141.3603  158.0458 C   0  0  0  0  0  0  0  0  0  0  0  0
  151.2038  142.3983  157.5665 C   0  0  0  0  0  0  0  0  0  0  0  0
  151.1196  143.6668  158.1576 N   0  0  0  0  0  0  0  0  0  0  0  0
  152.2948  144.5011  157.9716 C   0  0  0  0  0  0  0  0  0  0  0  0
  152.1781  145.6152  159.0145 C   0  0  0  0  0  0  0  0  0  0  0  0
  151.2342  145.0555  160.0855 C   0  0  0  0  0  0  0  0  0  0  0  0
  150.8541  143.6586  159.5868 C   0  0  0  0  0  0  0  0  0  0  0  0
  150.4465  142.1809  156.4697 N   0  3  0  0  0  0  0  0  0  0  0  0
  150.4286  141.0105  155.7934 C   0  0  0  0  0  0  0  0  0  0  0  0
  149.5274  140.9179  154.5760 C   0  0  0  0  0  0  0  0  0  0  0  0
  146.7495  135.9252  155.2689 H   0  0  0  0  0  0  0  0  0  0  0  0
  147.5247  134.5334  154.5325 H   0  0  0  0  0  0  0  0  0  0  0  0
  147.5404  136.0981  153.7145 H   0  0  0  0  0  0  0  0  0  0  0  0
  148.9400  137.0583  155.6005 H   0  0  0  0  0  0  0  0  0  0  0  0
  148.8787  135.5242  156.4159 H   0  0  0  0  0  0  0  0  0  0  0  0
  149.9979  135.3834  153.6707 H   0  0  0  0  0  0  0  0  0  0  0  0
  150.3777  133.3627  154.6550 H   0  0  0  0  0  0  0  0  0  0  0  0
  151.7987  134.1594  155.2976 H   0  0  0  0  0  0  0  0  0  0  0  0
  151.0627  138.8120  154.5035 H   0  0  0  0  0  0  0  0  0  0  0  0
  152.7059  139.3409  157.7311 H   0  0  0  0  0  0  0  0  0  0  0  0
  152.6619  141.5063  158.9130 H   0  0  0  0  0  0  0  0  0  0  0  0
  153.2062  143.9257  158.1384 H   0  0  0  0  0  0  0  0  0  0  0  0
  152.3326  144.9037  156.9588 H   0  0  0  0  0  0  0  0  0  0  0  0
  153.1525  145.8880  159.4209 H   0  0  0  0  0  0  0  0  0  0  0  0
  151.7429  146.5096  158.5671 H   0  0  0  0  0  0  0  0  0  0  0  0
  151.7017  145.0149  161.0699 H   0  0  0  0  0  0  0  0  0  0  0  0
  150.3479  145.6862  160.1650 H   0  0  0  0  0  0  0  0  0  0  0  0
  149.8060  143.4346  159.7877 H   0  0  0  0  0  0  0  0  0  0  0  0
  151.4606  142.9036  160.0884 H   0  0  0  0  0  0  0  0  0  0  0  0
  150.1172  140.7062  153.6834 H   0  0  0  0  0  0  0  0  0  0  0  0
  148.9832  141.8485  154.4109 H   0  0  0  0  0  0  0  0  0  0  0  0
  148.7982  140.1173  154.7049 H   0  0  0  0  0  0  0  0  0  0  0  0
  149.8562  142.9410  156.1320 H   0  0  0  0  0  0  0  0  0  0  0  0
  1  2  1  0  0  0  0
  1 23  1  0  0  0  0
  1 24  1  0  0  0  0
  1 25  1  0  0  0  0
  2  3  1  0  0  0  0
  2 26  1  0  0  0  0
  2 27  1  0  0  0  0
  3  4  1  0  0  0  0
  3  7  1  0  0  0  0
  3 28  1  0  0  0  0
  4  5  1  0  0  0  0
  4 29  1  0  0  0  0
  4 30  1  0  0  0  0
  5  6  3  0  0  0  0
  7  8  1  0  0  0  0
  8  9  2  0  0  0  0
  8 10  1  0  0  0  0
 10 11  1  0  0  0  0
 10 31  1  0  0  0  0
 11 21  1  0  0  0  0
 11 12  2  0  0  0  0
 12 13  1  0  0  0  0
 12 32  1  0  0  0  0
 13 14  2  0  0  0  0
 13 33  1  0  0  0  0
 14 15  1  0  0  0  0
 14 20  1  0  0  0  0
 15 19  1  0  0  0  0
 15 16  1  0  0  0  0
 16 17  1  0  0  0  0
 16 34  1  0  0  0  0
 16 35  1  0  0  0  0
 17 18  1  0  0  0  0
 17 36  1  0  0  0  0
 17 37  1  0  0  0  0
 18 19  1  0  0  0  0
 18 38  1  0  0  0  0
 18 39  1  0  0  0  0
 19 40  1  0  0  0  0
 19 41  1  0  0  0  0
 20 21  2  0  0  0  0
 20 45  1  0  0  0  0
 21 22  1  0  0  0  0
 22 42  1  0  0  0  0
 22 43  1  0  0  0  0
 22 44  1  0  0  0  0
M  CHG  1   7  -1
M  CHG  1  20   1
M  END
> <s_m_source_file>
AV-unprocessed.smi

> <i_m_source_file_index>
2310

> <i_lp_mmshare_version>
43012

> <i_f3d_flags>
0

> <s_epik_input>
TiNDW0NIMl1bQ0BASF0oW0NIMl1bQ0gzXSlbTkhdQyg9TylbTkhdYzFbY0hdW2NIXWMobmMxW0NIM10pTjJbQ0gyXVtDSDJdW0NIMl1bQ0gyXTI=

> <s_epik_cmdline>
J2VwaWtfcHl0aG9uJywgJy1waCcsICc3LjAnLCAnLXRuJywgJzgnLCAnLW1hJywgJzIwMCcsICctbWV0YWxfYmluZGluZycsICctaW1hZScsICc8aW5maWxlLm1hZT4nLCAnLW9tYWUnLCAnPG91dGZpbGUubWFlPic=

> <r_lp_tautomer_probability>
0.999994

> <r_epik_Ionization_Penalty>
7.34515

> <r_epik_Ionization_Penalty_Charging>
7.34514

> <r_epik_Ionization_Penalty_Neutral>
2.56118e-06

> <r_epik_State_Penalty>
6.99243

> <r_epik_Charging_Adjusted_Penalty>
14.3376

> <i_epik_Tot_Q>
0

> <i_epik_Tot_abs_Q>
2

> <r_epik_Metal_State_Penalty>
3.10684

> <b_epik_Metal_Only>
1

> <s_lp_Force_Field>
OPLS_2005

> <r_lp_Energy>
38.8935

> <b_lp_Chiralities_Consistent>
1

> <s_lp_Variant>
AV-unprocessed.smi:2310-5

> <Gold.Version>
5.8.1

> <Gold.Id.Protein>
6NUR|6NUR_protein|mol2

> <Gold.PLP.Fitness>
47.1697

> <Gold.PLP.PLP>
-36.6728

> <Gold.PLP.part.hbond>
-2.9714

> <Gold.PLP.part.metal>
0.0000

> <Gold.PLP.part.buried>
-2.9873

> <Gold.PLP.part.nonpolar>
-29.2235

> <Gold.PLP.part.repulsive>
0.4463

> <Gold.PLP.ligand.clash>
0.0000

> <Gold.PLP.ligand.torsion>
2.3021

> <Gold.PLP.Chemscore.Hbond>
5.0000

> <Gold.PLP.Chemscore.CHOScore>
0.0000

> <Gold.PLP.Chemscore.Metal>
0.0000

> <Gold.Chemscore.Hbonds>
donor molecule, donor type, donor heavy atom, donor atom, acceptor molecule, acceptor atom, score
      L1  H    20    45       P1  8028  1.76
      P1  H  6896  6908       L1     6  1.00
      P1  H 10752 10765       L1     7  2.00

> <Gold.PLP.Chemscore.Internal.Correction>
0.1012

> <Gold.Rescore>
     Score         DG    S(hbond)    S(metal)    S(lipo)     H(rot)  DE(clash)    DE(int)     intcor
     17.32     -20.75       2.39        0.00      98.32       1.65       0.09       3.34       ----

> <Gold.Chemscore.Fitness>
17.3237

> <Gold.Chemscore.DG>
-20.7506

> <Gold.Chemscore.ZeroCoef>
-5.4800

> <Gold.Chemscore.Hbond>
2.3936

> <Gold.Chemscore.Metal>
0.0000

> <Gold.Chemscore.Lipo>
98.3198

> <Gold.Chemscore.Internal_Hbond>
0.0000

> <Gold.Chemscore.DEClash>
0.0903

> <Gold.Chemscore.DEInternal>
3.3366

> <Gold.Chemscore.Rot>
1.6514

> <Gold.Chemscore.Internal.Correction>
   9.000000E+99

> <Gold.Chemscore.Hbonds>
donor molecule, donor type, donor heavy atom, donor atom, acceptor molecule, acceptor atom, score
      L1  H    20    45       P1  8028  0.86
      P1  H  6896  6908       L1     6  0.98
      P1  H 10752 10765       L1     7  0.43

> <Gold.Chemscore.Hbond.Weighted>
-7.9947

> <Gold.Chemscore.Metal.Weighted>
-0.0000

> <Gold.Chemscore.Lipo.Weighted>
-11.5034

> <Gold.Chemscore.Internal_Hbond.Weighted>
0.0000

> <Gold.Chemscore.DEClash.Weighted>
0.0903

> <Gold.Chemscore.DEInternal.Weighted>
3.3366

> <Gold.Chemscore.Rot.Weighted>
4.2276

> <Gold.Chemscore.Internal.Correction.Weighted>
   9.000000E+99

> <Gold.Protein.RotatedTorsions>
[ 6907 6896 6895 6894 ] final  112.67 input  -60.11 | X-H torsion
[ 7974 7965 7964 7962 ] final   15.94 input  175.53 | X-H torsion
[ 8008 7997 7996 7995 ] final  -48.32 input   59.86 | X-H torsion
[ 10167 10162 10161 10158 ] final   10.38 input  -65.29 | X-H torsion
[ 10718 10713 10712 10709 ] final  151.59 input   66.30 | X-H torsion
[ 10763 10752 10751 10750 ] final -169.92 input  -60.55 | X-H torsion
[ 11005 11000 10999 10996 ] final  177.06 input  -57.11 | X-H torsion

> <Gold.Protein.ActiveResidues>
 VAL166  LYS551  ARG553  GLY616  TRP617  ASP618  TYR619  PRO620  LYS621  CYS622 
 ASP623  PHE694  ASN695  SER759  ASP760  ASP761  ALA762  ILE779  LEU786  VAL792 
 PHE793  MET794  SER795  GLU796  ALA797  LYS798  CYS799  TRP800  GLU811  SER814 

> <Gold.Protein.RotatedAtoms>
  152.4904  133.8484  159.7188 H   0  0  0  0  0  0  0  0  0  0  0  0  # atno 6907 bound_to 6896
  150.9028  133.7088  159.2881 H   0  0  0  0  0  0  0  0  0  0  0  0  # atno 6908 bound_to 6896
  151.4523  135.1035  159.9753 H   0  0  0  0  0  0  0  0  0  0  0  0  # atno 6909 bound_to 6896
  146.2264  139.8821  142.8569 H   0  0  0  0  0  0  0  0  0  0  0  0  # atno 7974 bound_to 7965
  154.4027  140.1324  156.4320 H   0  0  0  0  0  0  0  0  0  0  0  0  # atno 8008 bound_to 7997
  155.7541  140.3487  155.5145 H   0  0  0  0  0  0  0  0  0  0  0  0  # atno 8009 bound_to 7997
  155.8921  140.1005  157.1401 H   0  0  0  0  0  0  0  0  0  0  0  0  # atno 8010 bound_to 7997
  140.6197  143.8230  150.7161 H   0  0  0  0  0  0  0  0  0  0  0  0  # atno 10167 bound_to 10162
  157.2688  131.0813  151.1614 H   0  0  0  0  0  0  0  0  0  0  0  0  # atno 10718 bound_to 10713
  154.6472  135.2906  155.0032 H   0  0  0  0  0  0  0  0  0  0  0  0  # atno 10763 bound_to 10752
  154.1138  135.6558  153.4894 H   0  0  0  0  0  0  0  0  0  0  0  0  # atno 10764 bound_to 10752
  153.0357  135.5271  154.7364 H   0  0  0  0  0  0  0  0  0  0  0  0  # atno 10765 bound_to 10752
  140.3800  134.6955  157.4445 H   0  0  0  0  0  0  0  0  0  0  0  0  # atno 11005 bound_to 11000
  145.2502  141.0041  143.3885 LP  0  0  0  0  0  0  0  0  0  0  0  0  # atno 17320 bound_to 7965
  144.9381  139.4221  143.6462 LP  0  0  0  0  0  0  0  0  0  0  0  0  # atno 17321 bound_to 7965
  140.1818  143.4109  152.1927 LP  0  0  0  0  0  0  0  0  0  0  0  0  # atno 17342 bound_to 10162
  139.5428  144.7272  151.4678 LP  0  0  0  0  0  0  0  0  0  0  0  0  # atno 17343 bound_to 10162
  157.3095  130.6882  149.6207 LP  0  0  0  0  0  0  0  0  0  0  0  0  # atno 17370 bound_to 10713
  155.9663  130.4368  150.5148 LP  0  0  0  0  0  0  0  0  0  0  0  0  # atno 17371 bound_to 10713
  140.0486  134.6164  155.8890 LP  0  0  0  0  0  0  0  0  0  0  0  0  # atno 17394 bound_to 11000
  141.1926  133.6576  156.5512 LP  0  0  0  0  0  0  0  0  0  0  0  0  # atno 17395 bound_to 11000

$$$$
