AV-unprocessed.smi:47|AV-procd|sdf|442|dock2
  -GOLD-   2262016313D 1   1.00000     0.00000
 Structure written by MMmdl.
 32 34  0  0  0  0  0  0  0  0  2 V2000
  147.0091  140.0408  152.3172 O   0  0  0  0  0  0  0  0  0  0  0  0
  147.2978  140.3164  153.6721 C   0  0  2  0  0  0  0  0  0  0  0  0
  146.9180  141.7599  154.0337 C   0  0  0  0  0  0  0  0  0  0  0  0
  147.9758  142.2267  154.9418 N   0  3  0  0  0  0  0  0  0  0  0  0
  149.2178  141.5756  154.4938 C   0  0  1  0  0  0  0  0  0  0  0  0
  150.1173  141.5546  155.6932 C   0  0  0  0  0  0  0  0  0  0  0  0
  150.9765  140.5820  156.0080 N   0  0  0  0  0  0  0  0  0  0  0  0
  151.5876  140.9992  157.1754 N   0  0  0  0  0  0  0  0  0  0  0  0
  151.0572  142.1931  157.4782 C   0  0  0  0  0  0  0  0  0  0  0  0
  151.4354  142.9874  158.6490 C   0  0  0  0  0  0  0  0  0  0  0  0
  151.0324  144.3388  158.7595 C   0  0  0  0  0  0  0  0  0  0  0  0
  151.3996  145.1040  159.8836 C   0  0  0  0  0  0  0  0  0  0  0  0
  152.1748  144.5277  160.9071 C   0  0  0  0  0  0  0  0  0  0  0  0
  152.5826  143.1846  160.8057 C   0  0  0  0  0  0  0  0  0  0  0  0
  152.2147  142.4180  159.6830 C   0  0  0  0  0  0  0  0  0  0  0  0
  150.1365  142.5663  156.5714 N   0  0  0  0  0  0  0  0  0  0  0  0
  148.8026  140.1964  153.9655 C   0  0  0  0  0  0  0  0  0  0  0  0
  146.7448  139.6178  154.3014 H   0  0  0  0  0  0  0  0  0  0  0  0
  149.6578  142.1743  153.6946 H   0  0  0  0  0  0  0  0  0  0  0  0
  149.5925  143.4167  156.5565 H   0  0  0  0  0  0  0  0  0  0  0  0
  147.7470  140.3068  151.7892 H   0  0  0  0  0  0  0  0  0  0  0  0
  146.9325  142.3982  153.1486 H   0  0  0  0  0  0  0  0  0  0  0  0
  145.9299  141.8371  154.4882 H   0  0  0  0  0  0  0  0  0  0  0  0
  148.0584  143.2332  154.9444 H   0  0  0  0  0  0  0  0  0  0  0  0
  150.4368  144.8024  157.9871 H   0  0  0  0  0  0  0  0  0  0  0  0
  151.0865  146.1350  159.9609 H   0  0  0  0  0  0  0  0  0  0  0  0
  152.4571  145.1150  161.7683 H   0  0  0  0  0  0  0  0  0  0  0  0
  153.1791  142.7412  161.5894 H   0  0  0  0  0  0  0  0  0  0  0  0
  152.5404  141.3897  159.6250 H   0  0  0  0  0  0  0  0  0  0  0  0
  148.9527  139.4294  154.7270 H   0  0  0  0  0  0  0  0  0  0  0  0
  149.3964  139.9063  153.0977 H   0  0  0  0  0  0  0  0  0  0  0  0
  147.7680  141.8962  155.8737 H   0  0  0  0  0  0  0  0  0  0  0  0
  1  2  1  0  0  0  0
  1 21  1  0  0  0  0
  2 18  1  0  0  0  0
  2 17  1  0  0  0  0
  2  3  1  0  0  0  0
  3  4  1  0  0  0  0
  3 22  1  0  0  0  0
  3 23  1  0  0  0  0
  4  5  1  0  0  0  0
  4 24  1  0  0  0  0
  4 32  1  0  0  0  0
  5 19  1  0  0  0  0
  5 17  1  0  0  0  0
  5  6  1  0  0  0  0
  6  7  2  0  0  0  0
  6 16  1  0  0  0  0
  7  8  1  0  0  0  0
  8  9  2  0  0  0  0
  9 16  1  0  0  0  0
  9 10  1  0  0  0  0
 10 15  1  0  0  0  0
 10 11  2  0  0  0  0
 11 12  1  0  0  0  0
 11 25  1  0  0  0  0
 12 13  2  0  0  0  0
 12 26  1  0  0  0  0
 13 14  1  0  0  0  0
 13 27  1  0  0  0  0
 14 15  2  0  0  0  0
 14 28  1  0  0  0  0
 15 29  1  0  0  0  0
 16 20  1  0  0  0  0
 17 30  1  0  0  0  0
 17 31  1  0  0  0  0
M  CHG  1   4   1
M  END
> <s_m_source_file>
AV-unprocessed.smi

> <i_m_source_file_index>
47

> <i_lp_mmshare_version>
43012

> <i_f3d_flags>
0

> <s_epik_input>
W09IXVtDQEhdMVtDSDJdW05IXVtDQEBIXShbQ0gyXTEpYzJuW25IXWMobjIpLWMzW2NIXVtjSF1bY0hdW2NIXVtjSF0z

> <s_epik_cmdline>
J2VwaWtfcHl0aG9uJywgJy1waCcsICc3LjAnLCAnLXRuJywgJzgnLCAnLW1hJywgJzIwMCcsICctbWV0YWxfYmluZGluZycsICctaW1hZScsICc8aW5maWxlLm1hZT4nLCAnLW9tYWUnLCAnPG91dGZpbGUubWFlPic=

> <r_lp_tautomer_probability>
0.0517155

> <r_epik_Ionization_Penalty>
2.45729

> <r_epik_Ionization_Penalty_Charging>
0.0688988

> <r_epik_Ionization_Penalty_Neutral>
2.3884

> <r_epik_State_Penalty>
2.69236

> <r_epik_Charging_Adjusted_Penalty>
2.76126

> <i_epik_Tot_Q>
1

> <i_epik_Tot_abs_Q>
1

> <r_epik_Metal_State_Penalty>
3.18974

> <b_epik_Metal_Only>
0

> <s_lp_Force_Field>
OPLS_2005

> <r_lp_Energy>
30.5678

> <b_lp_Chiralities_Consistent>
1

> <s_lp_Variant>
AV-unprocessed.smi:47-20

> <Gold.Version>
5.8.1

> <Gold.Id.Protein>
6NUR|6NUR_protein|mol2

> <Gold.PLP.Fitness>
51.2599

> <Gold.PLP.PLP>
-40.9509

> <Gold.PLP.part.hbond>
-3.1909

> <Gold.PLP.part.metal>
0.0000

> <Gold.PLP.part.buried>
-5.3513

> <Gold.PLP.part.nonpolar>
-32.8528

> <Gold.PLP.part.repulsive>
0.2327

> <Gold.PLP.ligand.clash>
0.0000

> <Gold.PLP.ligand.torsion>
0.7805

> <Gold.PLP.Chemscore.Hbond>
3.9520

> <Gold.PLP.Chemscore.CHOScore>
0.0000

> <Gold.PLP.Chemscore.Metal>
0.0000

> <Gold.Chemscore.Hbonds>
donor molecule, donor type, donor heavy atom, donor atom, acceptor molecule, acceptor atom, score
      L1  H     1    21       P1  7957  1.00
      L1  H     4    24       P1  8028  1.95
      L1  H    16    20       P1  8028  1.00

> <Gold.PLP.Chemscore.Internal.Correction>
0.0140

> <Gold.Rescore>
     Score         DG    S(hbond)    S(metal)    S(lipo)     H(rot)  DE(clash)    DE(int)     intcor
     21.56     -22.69       2.91        0.00      96.86       1.50       0.46       0.68       ----

> <Gold.Chemscore.Fitness>
21.5568

> <Gold.Chemscore.DG>
-22.6931

> <Gold.Chemscore.ZeroCoef>
-5.4800

> <Gold.Chemscore.Hbond>
2.9078

> <Gold.Chemscore.Metal>
0.0000

> <Gold.Chemscore.Lipo>
96.8570

> <Gold.Chemscore.Internal_Hbond>
0.0000

> <Gold.Chemscore.DEClash>
0.4583

> <Gold.Chemscore.DEInternal>
0.6780

> <Gold.Chemscore.Rot>
1.4966

> <Gold.Chemscore.Internal.Correction>
   9.000000E+99

> <Gold.Chemscore.Hbonds>
donor molecule, donor type, donor heavy atom, donor atom, acceptor molecule, acceptor atom, score
      L1  H     1    21       P1  7957  0.95
      L1  H     4    24       P1  8028  0.85
      L1  H    16    20       P1  8028  0.94

> <Gold.Chemscore.Hbond.Weighted>
-9.7120

> <Gold.Chemscore.Metal.Weighted>
-0.0000

> <Gold.Chemscore.Lipo.Weighted>
-11.3323

> <Gold.Chemscore.Internal_Hbond.Weighted>
0.0000

> <Gold.Chemscore.DEClash.Weighted>
0.4583

> <Gold.Chemscore.DEInternal.Weighted>
0.6780

> <Gold.Chemscore.Rot.Weighted>
3.8312

> <Gold.Chemscore.Internal.Correction.Weighted>
   9.000000E+99

> <Gold.Protein.RotatedTorsions>
[ 6907 6896 6895 6894 ] final   19.36 input  -60.11 | X-H torsion
[ 7974 7965 7964 7962 ] final -112.50 input  175.53 | X-H torsion
[ 8008 7997 7996 7995 ] final -123.33 input   59.86 | X-H torsion
[ 10167 10162 10161 10158 ] final  -29.54 input  -65.29 | X-H torsion
[ 10718 10713 10712 10709 ] final -104.77 input   66.30 | X-H torsion
[ 10763 10752 10751 10750 ] final  118.23 input  -60.55 | X-H torsion
[ 11005 11000 10999 10996 ] final    7.65 input  -57.11 | X-H torsion

> <Gold.Protein.ActiveResidues>
 VAL166  LYS551  ARG553  GLY616  TRP617  ASP618  TYR619  PRO620  LYS621  CYS622 
 ASP623  PHE694  ASN695  SER759  ASP760  ASP761  ALA762  ILE779  LEU786  VAL792 
 PHE793  MET794  SER795  GLU796  ALA797  LYS798  CYS799  TRP800  GLU811  SER814 

> <Gold.Protein.RotatedAtoms>
  151.8797  135.0458  160.0487 H   0  0  0  0  0  0  0  0  0  0  0  0  # atno 6907 bound_to 6896
  152.2523  133.5221  159.5341 H   0  0  0  0  0  0  0  0  0  0  0  0  # atno 6908 bound_to 6896
  150.7088  134.0860  159.3957 H   0  0  0  0  0  0  0  0  0  0  0  0  # atno 6909 bound_to 6896
  145.1433  140.8789  143.3689 H   0  0  0  0  0  0  0  0  0  0  0  0  # atno 7974 bound_to 7965
  155.1788  140.0410  157.2878 H   0  0  0  0  0  0  0  0  0  0  0  0  # atno 8008 bound_to 7997
  154.6218  140.2502  155.7512 H   0  0  0  0  0  0  0  0  0  0  0  0  # atno 8009 bound_to 7997
  156.2437  140.2893  156.0529 H   0  0  0  0  0  0  0  0  0  0  0  0  # atno 8010 bound_to 7997
  140.7259  143.3920  151.1412 H   0  0  0  0  0  0  0  0  0  0  0  0  # atno 10167 bound_to 10162
  156.0318  130.5531  150.7444 H   0  0  0  0  0  0  0  0  0  0  0  0  # atno 10718 bound_to 10713
  153.5644  135.3514  155.2812 H   0  0  0  0  0  0  0  0  0  0  0  0  # atno 10763 bound_to 10752
  154.8690  135.4144  154.2795 H   0  0  0  0  0  0  0  0  0  0  0  0  # atno 10764 bound_to 10752
  153.3547  135.7057  153.6829 H   0  0  0  0  0  0  0  0  0  0  0  0  # atno 10765 bound_to 10752
  140.5458  134.0330  155.7920 H   0  0  0  0  0  0  0  0  0  0  0  0  # atno 11005 bound_to 11000
  145.0509  139.3182  143.5929 LP  0  0  0  0  0  0  0  0  0  0  0  0  # atno 17320 bound_to 7965
  146.3503  139.9917  142.8685 LP  0  0  0  0  0  0  0  0  0  0  0  0  # atno 17321 bound_to 7965
  139.7527  143.8754  152.3081 LP  0  0  0  0  0  0  0  0  0  0  0  0  # atno 17342 bound_to 10162
  139.8613  144.7115  150.9096 LP  0  0  0  0  0  0  0  0  0  0  0  0  # atno 17343 bound_to 10162
  157.5005  131.0918  151.0320 LP  0  0  0  0  0  0  0  0  0  0  0  0  # atno 17370 bound_to 10713
  157.0703  130.5861  149.5401 LP  0  0  0  0  0  0  0  0  0  0  0  0  # atno 17371 bound_to 10713
  141.1200  133.9476  157.2747 LP  0  0  0  0  0  0  0  0  0  0  0  0  # atno 17394 bound_to 11000
  139.9480  135.0180  156.8910 LP  0  0  0  0  0  0  0  0  0  0  0  0  # atno 17395 bound_to 11000

$$$$
