AV-unprocessed.smi:3328|AV-procd|sdf|12793|dock7
  -GOLD-   2272019143D 1   1.00000     0.00000
 Structure written by MMmdl.
 40 41  0  0  0  0  0  0  0  0  1 V2000
  152.7745  138.0849  154.9895 C   0  0  0  0  0  0  0  0  0  0  0  0
  151.3699  138.5137  154.6768 C   0  0  0  0  0  0  0  0  0  0  0  0
  150.3330  137.7450  154.0753 C   0  0  0  0  0  0  0  0  0  0  0  0
  149.2035  138.4203  153.9404 N   0  0  0  0  0  0  0  0  0  0  0  0
  149.4792  139.6423  154.4438 N   0  0  0  0  0  0  0  0  0  0  0  0
  148.4523  140.6700  154.4605 C   0  0  0  0  0  0  0  0  0  0  0  0
  148.3256  141.3546  155.8364 C   0  0  2  0  0  0  0  0  0  0  0  0
  146.9989  142.1268  155.9463 C   0  0  0  0  0  0  0  0  0  0  0  0
  149.4508  142.2658  156.0179 N   0  0  0  0  0  0  0  0  0  0  0  0
  150.1563  142.0347  157.2688 C   0  0  0  0  0  0  0  0  0  0  0  0
  151.3966  142.9386  157.3274 C   0  0  0  0  0  0  0  0  0  0  0  0
  152.0128  142.9099  158.6504 N   0  0  0  0  0  0  0  0  0  0  0  0
  152.6376  141.6978  159.1519 C   0  0  0  0  0  0  0  0  0  0  0  0
  152.9772  142.0020  160.6182 C   0  0  0  0  0  0  0  0  0  0  0  0
  152.8372  143.5206  160.7721 C   0  0  0  0  0  0  0  0  0  0  0  0
  152.1169  143.9377  159.5012 C   0  0  0  0  0  0  0  0  0  0  0  0
  151.6997  145.0797  159.3149 O   0  0  0  0  0  0  0  0  0  0  0  0
  150.7780  139.7248  154.8989 C   0  0  0  0  0  0  0  0  0  0  0  0
  153.0208  137.1311  154.5222 H   0  0  0  0  0  0  0  0  0  0  0  0
  152.9283  137.9665  156.0620 H   0  0  0  0  0  0  0  0  0  0  0  0
  153.5054  138.8128  154.6370 H   0  0  0  0  0  0  0  0  0  0  0  0
  150.3681  136.7203  153.7358 H   0  0  0  0  0  0  0  0  0  0  0  0
  148.6580  141.4027  153.6778 H   0  0  0  0  0  0  0  0  0  0  0  0
  147.5083  140.1923  154.1951 H   0  0  0  0  0  0  0  0  0  0  0  0
  148.3559  140.5827  156.6068 H   0  0  0  0  0  0  0  0  0  0  0  0
  146.1505  141.4657  155.7683 H   0  0  0  0  0  0  0  0  0  0  0  0
  146.9461  142.9338  155.2147 H   0  0  0  0  0  0  0  0  0  0  0  0
  146.8594  142.5627  156.9352 H   0  0  0  0  0  0  0  0  0  0  0  0
  149.1384  143.2244  155.9563 H   0  0  0  0  0  0  0  0  0  0  0  0
  149.5024  142.2427  158.1152 H   0  0  0  0  0  0  0  0  0  0  0  0
  150.4545  140.9874  157.3327 H   0  0  0  0  0  0  0  0  0  0  0  0
  152.1275  142.6200  156.5825 H   0  0  0  0  0  0  0  0  0  0  0  0
  151.1291  143.9668  157.0780 H   0  0  0  0  0  0  0  0  0  0  0  0
  151.9708  140.8395  159.0600 H   0  0  0  0  0  0  0  0  0  0  0  0
  153.5406  141.4934  158.5752 H   0  0  0  0  0  0  0  0  0  0  0  0
  152.2709  141.4970  161.2785 H   0  0  0  0  0  0  0  0  0  0  0  0
  153.9773  141.6555  160.8811 H   0  0  0  0  0  0  0  0  0  0  0  0
  152.2687  143.7945  161.6613 H   0  0  0  0  0  0  0  0  0  0  0  0
  153.8114  144.0086  160.8136 H   0  0  0  0  0  0  0  0  0  0  0  0
  151.1699  140.6310  155.3369 H   0  0  0  0  0  0  0  0  0  0  0  0
  1  2  1  0  0  0  0
  1 19  1  0  0  0  0
  1 20  1  0  0  0  0
  1 21  1  0  0  0  0
  2 18  2  0  0  0  0
  2  3  1  0  0  0  0
  3  4  2  0  0  0  0
  3 22  1  0  0  0  0
  4  5  1  0  0  0  0
  5  6  1  0  0  0  0
  5 18  1  0  0  0  0
  6  7  1  0  0  0  0
  6 23  1  0  0  0  0
  6 24  1  0  0  0  0
  7  8  1  0  0  0  0
  7  9  1  0  0  0  0
  7 25  1  0  0  0  0
  8 26  1  0  0  0  0
  8 27  1  0  0  0  0
  8 28  1  0  0  0  0
  9 10  1  0  0  0  0
  9 29  1  0  0  0  0
 10 11  1  0  0  0  0
 10 30  1  0  0  0  0
 10 31  1  0  0  0  0
 11 12  1  0  0  0  0
 11 32  1  0  0  0  0
 11 33  1  0  0  0  0
 12 16  1  0  0  0  0
 12 13  1  0  0  0  0
 13 14  1  0  0  0  0
 13 34  1  0  0  0  0
 13 35  1  0  0  0  0
 14 15  1  0  0  0  0
 14 36  1  0  0  0  0
 14 37  1  0  0  0  0
 15 16  1  0  0  0  0
 15 38  1  0  0  0  0
 15 39  1  0  0  0  0
 16 17  2  0  0  0  0
 18 40  1  0  0  0  0
M  END
> <s_m_source_file>
AV-unprocessed.smi

> <i_m_source_file_index>
3328

> <i_lp_mmshare_version>
43012

> <i_f3d_flags>
0

> <s_epik_input>
W0NIM11jMVtjSF1ubihbY0hdMSlbQ0gyXVtDQEhdKFtDSDNdKVtOSF1bQ0gyXVtDSDJdTjJbQ0gyXVtDSDJdW0NIMl1DMj1P

> <s_epik_cmdline>
J2VwaWtfcHl0aG9uJywgJy1waCcsICc3LjAnLCAnLXRuJywgJzgnLCAnLW1hJywgJzIwMCcsICctbWV0YWxfYmluZGluZycsICctaW1hZScsICc8aW5maWxlLm1hZT4nLCAnLW9tYWUnLCAnPG91dGZpbGUubWFlPic=

> <r_lp_tautomer_probability>
1

> <r_epik_Ionization_Penalty>
2.53591

> <r_epik_Ionization_Penalty_Charging>
0

> <r_epik_Ionization_Penalty_Neutral>
2.53591

> <r_epik_State_Penalty>
2.70334

> <r_epik_Charging_Adjusted_Penalty>
2.70334

> <i_epik_Tot_Q>
0

> <i_epik_Tot_abs_Q>
0

> <r_epik_Metal_State_Penalty>
2.70327

> <b_epik_Metal_Only>
0

> <s_lp_Force_Field>
OPLS_2005

> <r_lp_Energy>
20.4488

> <b_lp_Chiralities_Consistent>
1

> <s_lp_Variant>
AV-unprocessed.smi:3328-3

> <Gold.Version>
5.8.1

> <Gold.Id.Protein>
6NUR|6NUR_protein|mol2

> <Gold.PLP.Fitness>
45.1881

> <Gold.PLP.PLP>
-41.0708

> <Gold.PLP.part.hbond>
-0.9338

> <Gold.PLP.part.metal>
0.0000

> <Gold.PLP.part.buried>
-2.0094

> <Gold.PLP.part.nonpolar>
-39.4915

> <Gold.PLP.part.repulsive>
0.7012

> <Gold.PLP.ligand.clash>
0.0000

> <Gold.PLP.ligand.torsion>
1.0141

> <Gold.PLP.Chemscore.Hbond>
0.9750

> <Gold.PLP.Chemscore.CHOScore>
1.0526

> <Gold.PLP.Chemscore.Metal>
0.0000

> <Gold.Chemscore.Hbonds>
donor molecule, donor type, donor heavy atom, donor atom, acceptor molecule, acceptor atom, score
      L1  H     9    29       P1  8028  1.00
      L1  C     3    22       P1  7948  0.46
      L1  C     3    22       P1  7949  0.29

> <Gold.PLP.Chemscore.Internal.Correction>
0.0627

> <Gold.Rescore>
     Score         DG    S(hbond)    S(metal)    S(lipo)     H(rot)  DE(clash)    DE(int)     intcor
     14.04     -15.09       0.99        0.00      95.42       1.89       0.06       1.00       ----

> <Gold.Chemscore.Fitness>
14.0394

> <Gold.Chemscore.DG>
-15.0946

> <Gold.Chemscore.ZeroCoef>
-5.4800

> <Gold.Chemscore.Hbond>
0.9863

> <Gold.Chemscore.Metal>
0.0000

> <Gold.Chemscore.Lipo>
95.4180

> <Gold.Chemscore.Internal_Hbond>
0.0000

> <Gold.Chemscore.DEClash>
0.0565

> <Gold.Chemscore.DEInternal>
0.9988

> <Gold.Chemscore.Rot>
1.8920

> <Gold.Chemscore.Internal.Correction>
   9.000000E+99

> <Gold.Chemscore.Hbonds>
donor molecule, donor type, donor heavy atom, donor atom, acceptor molecule, acceptor atom, score
      L1  H     9    29       P1  8028  0.94

> <Gold.Chemscore.Hbond.Weighted>
-3.2942

> <Gold.Chemscore.Metal.Weighted>
-0.0000

> <Gold.Chemscore.Lipo.Weighted>
-11.1639

> <Gold.Chemscore.Internal_Hbond.Weighted>
0.0000

> <Gold.Chemscore.DEClash.Weighted>
0.0565

> <Gold.Chemscore.DEInternal.Weighted>
0.9988

> <Gold.Chemscore.Rot.Weighted>
4.8435

> <Gold.Chemscore.Internal.Correction.Weighted>
   9.000000E+99

> <Gold.Protein.RotatedTorsions>
[ 6907 6896 6895 6894 ] final  168.90 input  -60.11 | X-H torsion
[ 7974 7965 7964 7962 ] final   77.23 input  175.53 | X-H torsion
[ 8008 7997 7996 7995 ] final  110.31 input   59.86 | X-H torsion
[ 10167 10162 10161 10158 ] final -111.48 input  -65.29 | X-H torsion
[ 10718 10713 10712 10709 ] final   -8.20 input   66.30 | X-H torsion
[ 10763 10752 10751 10750 ] final   -4.39 input  -60.55 | X-H torsion
[ 11005 11000 10999 10996 ] final  -53.76 input  -57.11 | X-H torsion

> <Gold.Protein.ActiveResidues>
 VAL166  LYS551  ARG553  GLY616  TRP617  ASP618  TYR619  PRO620  LYS621  CYS622 
 ASP623  PHE694  ASN695  SER759  ASP760  ASP761  ALA762  ILE779  LEU786  VAL792 
 PHE793  MET794  SER795  GLU796  ALA797  LYS798  CYS799  TRP800  GLU811  SER814 

> <Gold.Protein.RotatedAtoms>
  151.8404  133.3423  159.3641 H   0  0  0  0  0  0  0  0  0  0  0  0  # atno 6907 bound_to 6896
  150.7236  134.5397  159.5750 H   0  0  0  0  0  0  0  0  0  0  0  0  # atno 6908 bound_to 6896
  152.2869  134.7766  160.0437 H   0  0  0  0  0  0  0  0  0  0  0  0  # atno 6909 bound_to 6896
  145.6927  139.2557  143.1751 H   0  0  0  0  0  0  0  0  0  0  0  0  # atno 7974 bound_to 7965
  156.2043  140.3041  155.9594 H   0  0  0  0  0  0  0  0  0  0  0  0  # atno 8008 bound_to 7997
  155.2878  140.0440  157.3038 H   0  0  0  0  0  0  0  0  0  0  0  0  # atno 8009 bound_to 7997
  154.5613  140.2321  155.8340 H   0  0  0  0  0  0  0  0  0  0  0  0  # atno 8010 bound_to 7997
  140.1332  143.4343  152.1613 H   0  0  0  0  0  0  0  0  0  0  0  0  # atno 10167 bound_to 10162
  156.7060  130.5108  149.5904 H   0  0  0  0  0  0  0  0  0  0  0  0  # atno 10718 bound_to 10713
  153.3842  135.6999  153.6543 H   0  0  0  0  0  0  0  0  0  0  0  0  # atno 10763 bound_to 10752
  153.5141  135.3625  155.2601 H   0  0  0  0  0  0  0  0  0  0  0  0  # atno 10764 bound_to 10752
  154.8696  135.4142  154.3146 H   0  0  0  0  0  0  0  0  0  0  0  0  # atno 10765 bound_to 10752
  141.0992  133.6620  156.4219 H   0  0  0  0  0  0  0  0  0  0  0  0  # atno 11005 bound_to 11000
  146.0868  140.7702  142.9615 LP  0  0  0  0  0  0  0  0  0  0  0  0  # atno 17320 bound_to 7965
  144.6992  140.3574  143.7170 LP  0  0  0  0  0  0  0  0  0  0  0  0  # atno 17321 bound_to 7965
  139.5509  144.7337  151.4438 LP  0  0  0  0  0  0  0  0  0  0  0  0  # atno 17342 bound_to 10162
  140.6805  143.8093  150.7114 LP  0  0  0  0  0  0  0  0  0  0  0  0  # atno 17343 bound_to 10162
  156.1694  130.6427  151.0819 LP  0  0  0  0  0  0  0  0  0  0  0  0  # atno 17370 bound_to 10713
  157.6954  131.0795  150.6983 LP  0  0  0  0  0  0  0  0  0  0  0  0  # atno 17371 bound_to 10713
  140.5065  134.6436  157.5268 LP  0  0  0  0  0  0  0  0  0  0  0  0  # atno 17394 bound_to 11000
  139.9838  134.7095  155.9811 LP  0  0  0  0  0  0  0  0  0  0  0  0  # atno 17395 bound_to 11000

$$$$
