AV-unprocessed.smi:609|AV-procd|sdf|3052|dock7
  -GOLD-   2262023573D 1   1.00000     0.00000
 Structure written by MMmdl.
 43 45  0  0  0  0  0  0  0  0  2 V2000
  152.3062  144.1559  161.4407 C   0  0  0  0  0  0  0  0  0  0  0  0
  152.1797  143.2466  160.2301 C   0  0  0  0  0  0  0  0  0  0  0  0
  151.3453  143.6535  159.1648 C   0  0  0  0  0  0  0  0  0  0  0  0
  151.2509  142.8008  158.0714 C   0  0  0  0  0  0  0  0  0  0  0  0
  150.5275  142.9158  156.8824 N   0  3  0  0  0  0  0  0  0  0  0  0
  150.7549  141.8214  156.1046 C   0  0  0  0  0  0  0  0  0  0  0  0
  151.6116  141.0085  156.7797 N   0  0  0  0  0  0  0  0  0  0  0  0
  152.1755  139.7096  156.3858 C   0  0  0  0  0  0  0  0  0  0  0  0
  151.5062  139.1268  155.1265 C   0  0  1  0  0  0  0  0  0  0  0  0
  152.2588  138.0326  154.6393 O   0  0  0  0  0  0  0  0  0  0  0  0
  150.0653  138.6601  155.4065 C   0  0  0  0  0  0  0  0  0  0  0  0
  149.0335  138.6101  153.9061 S   0  0  0  0  0  0  0  0  0  0  0  0
  148.1340  140.1212  154.0910 C   0  0  0  0  0  0  0  0  0  0  0  0
  148.6419  141.3388  153.9159 N   0  0  0  0  0  0  0  0  0  0  0  0
  147.5882  142.2101  154.1671 C   0  0  0  0  0  0  0  0  0  0  0  0
  146.4682  141.4849  154.4920 C   0  0  0  0  0  0  0  0  0  0  0  0
  146.8346  140.1466  154.4415 N   0  0  0  0  0  0  0  0  0  0  0  0
  145.9706  139.0145  154.7129 C   0  0  0  0  0  0  0  0  0  0  0  0
  151.9490  141.5788  158.0131 C   0  0  0  0  0  0  0  0  0  0  0  0
  152.7752  141.1632  159.0546 C   0  0  0  0  0  0  0  0  0  0  0  0
  152.8855  142.0168  160.1755 C   0  0  0  0  0  0  0  0  0  0  0  0
  153.7815  141.5893  161.3254 C   0  0  0  0  0  0  0  0  0  0  0  0
  151.7490  145.0832  161.3033 H   0  0  0  0  0  0  0  0  0  0  0  0
  153.3493  144.4193  161.6170 H   0  0  0  0  0  0  0  0  0  0  0  0
  151.9180  143.6612  162.3313 H   0  0  0  0  0  0  0  0  0  0  0  0
  150.8051  144.5884  159.1993 H   0  0  0  0  0  0  0  0  0  0  0  0
  150.3330  141.6328  155.1278 H   0  0  0  0  0  0  0  0  0  0  0  0
  153.2541  139.8052  156.2583 H   0  0  0  0  0  0  0  0  0  0  0  0
  152.0269  139.0322  157.2276 H   0  0  0  0  0  0  0  0  0  0  0  0
  151.5015  139.8944  154.3525 H   0  0  0  0  0  0  0  0  0  0  0  0
  152.7757  137.6853  155.3506 H   0  0  0  0  0  0  0  0  0  0  0  0
  150.0776  137.6618  155.8455 H   0  0  0  0  0  0  0  0  0  0  0  0
  149.5873  139.3073  156.1421 H   0  0  0  0  0  0  0  0  0  0  0  0
  147.7167  143.2801  154.0958 H   0  0  0  0  0  0  0  0  0  0  0  0
  145.4681  141.8021  154.7492 H   0  0  0  0  0  0  0  0  0  0  0  0
  144.9665  139.3582  154.9632 H   0  0  0  0  0  0  0  0  0  0  0  0
  146.3665  138.4406  155.5512 H   0  0  0  0  0  0  0  0  0  0  0  0
  145.9150  138.3735  153.8326 H   0  0  0  0  0  0  0  0  0  0  0  0
  153.3183  140.2308  159.0107 H   0  0  0  0  0  0  0  0  0  0  0  0
  154.2185  140.6063  161.1468 H   0  0  0  0  0  0  0  0  0  0  0  0
  153.2141  141.5370  162.2549 H   0  0  0  0  0  0  0  0  0  0  0  0
  154.5991  142.2984  161.4567 H   0  0  0  0  0  0  0  0  0  0  0  0
  149.9239  143.6838  156.6181 H   0  0  0  0  0  0  0  0  0  0  0  0
  1  2  1  0  0  0  0
  1 23  1  0  0  0  0
  1 24  1  0  0  0  0
  1 25  1  0  0  0  0
  2 21  1  0  0  0  0
  2  3  2  0  0  0  0
  3  4  1  0  0  0  0
  3 26  1  0  0  0  0
  4 19  2  0  0  0  0
  4  5  1  0  0  0  0
  5  6  2  0  0  0  0
  5 43  1  0  0  0  0
  6  7  1  0  0  0  0
  6 27  1  0  0  0  0
  7  8  1  0  0  0  0
  7 19  1  0  0  0  0
  8  9  1  0  0  0  0
  8 28  1  0  0  0  0
  8 29  1  0  0  0  0
  9 10  1  0  0  0  0
  9 11  1  0  0  0  0
  9 30  1  0  0  0  0
 10 31  1  0  0  0  0
 11 12  1  0  0  0  0
 11 32  1  0  0  0  0
 11 33  1  0  0  0  0
 12 13  1  0  0  0  0
 13 17  1  0  0  0  0
 13 14  2  0  0  0  0
 14 15  1  0  0  0  0
 15 16  2  0  0  0  0
 15 34  1  0  0  0  0
 16 17  1  0  0  0  0
 16 35  1  0  0  0  0
 17 18  1  0  0  0  0
 18 36  1  0  0  0  0
 18 37  1  0  0  0  0
 18 38  1  0  0  0  0
 19 20  1  0  0  0  0
 20 21  2  0  0  0  0
 20 39  1  0  0  0  0
 21 22  1  0  0  0  0
 22 40  1  0  0  0  0
 22 41  1  0  0  0  0
 22 42  1  0  0  0  0
M  CHG  1   5   1
M  END
> <s_m_source_file>
AV-unprocessed.smi

> <i_m_source_file_index>
609

> <i_lp_mmshare_version>
43012

> <i_f3d_flags>
0

> <s_epik_input>
W0NIM11jKFtjSF0xKWMoW0NIM10pW2NIXWMoYzEyKW4oW2NIXW4yKVtDSDJdW0NASF0oW09IXSlbQ0gyXVNjM25bY0hdW2NIXW4zW0NIM10=

> <s_epik_cmdline>
J2VwaWtfcHl0aG9uJywgJy1waCcsICc3LjAnLCAnLXRuJywgJzgnLCAnLW1hJywgJzIwMCcsICctbWV0YWxfYmluZGluZycsICctaW1hZScsICc8aW5maWxlLm1hZT4nLCAnLW9tYWUnLCAnPG91dGZpbGUubWFlPic=

> <r_epik_Ionization_Penalty>
2.09683

> <r_epik_Ionization_Penalty_Charging>
2.09682

> <r_epik_Ionization_Penalty_Neutral>
2.49751e-06

> <r_epik_State_Penalty>
2.21514

> <r_epik_Charging_Adjusted_Penalty>
4.31197

> <i_epik_Tot_Q>
1

> <i_epik_Tot_abs_Q>
1

> <r_epik_Metal_State_Penalty>
1.52634

> <b_epik_Metal_Only>
0

> <s_lp_Force_Field>
OPLS_2005

> <r_lp_Energy>
12.6573

> <b_lp_Chiralities_Consistent>
1

> <s_lp_Variant>
AV-unprocessed.smi:609-8

> <Gold.Version>
5.8.1

> <Gold.Id.Protein>
6NUR|6NUR_protein|mol2

> <Gold.PLP.Fitness>
55.5096

> <Gold.PLP.PLP>
-46.3985

> <Gold.PLP.part.hbond>
-2.2836

> <Gold.PLP.part.metal>
0.0000

> <Gold.PLP.part.buried>
-2.1185

> <Gold.PLP.part.nonpolar>
-40.6251

> <Gold.PLP.part.repulsive>
0.2318

> <Gold.PLP.ligand.clash>
0.0000

> <Gold.PLP.ligand.torsion>
0.8312

> <Gold.PLP.Chemscore.Hbond>
2.6110

> <Gold.PLP.Chemscore.CHOScore>
0.9554

> <Gold.PLP.Chemscore.Metal>
0.0000

> <Gold.Chemscore.Hbonds>
donor molecule, donor type, donor heavy atom, donor atom, acceptor molecule, acceptor atom, score
      L1  H     5    43       P1  8028  2.00
      P1  H  8011  8017       L1    14  0.38
      L1  C    15    34       P1  8028  0.97

> <Gold.PLP.Chemscore.Internal.Correction>
0.0744

> <Gold.Rescore>
     Score         DG    S(hbond)    S(metal)    S(lipo)     H(rot)  DE(clash)    DE(int)     intcor
     16.39     -17.69       1.30        0.00     121.44       2.48       0.36       0.94       ----

> <Gold.Chemscore.Fitness>
16.3862

> <Gold.Chemscore.DG>
-17.6893

> <Gold.Chemscore.ZeroCoef>
-5.4800

> <Gold.Chemscore.Hbond>
1.3015

> <Gold.Chemscore.Metal>
0.0000

> <Gold.Chemscore.Lipo>
121.4387

> <Gold.Chemscore.Internal_Hbond>
0.0000

> <Gold.Chemscore.DEClash>
0.3618

> <Gold.Chemscore.DEInternal>
0.9413

> <Gold.Chemscore.Rot>
2.4789

> <Gold.Chemscore.Internal.Correction>
   9.000000E+99

> <Gold.Chemscore.Hbonds>
donor molecule, donor type, donor heavy atom, donor atom, acceptor molecule, acceptor atom, score
      L1  H     5    43       P1  8028  1.00
      P1  H  8011  8017       L1    14  0.13

> <Gold.Chemscore.Hbond.Weighted>
-4.3469

> <Gold.Chemscore.Metal.Weighted>
-0.0000

> <Gold.Chemscore.Lipo.Weighted>
-14.2083

> <Gold.Chemscore.Internal_Hbond.Weighted>
0.0000

> <Gold.Chemscore.DEClash.Weighted>
0.3618

> <Gold.Chemscore.DEInternal.Weighted>
0.9413

> <Gold.Chemscore.Rot.Weighted>
6.3459

> <Gold.Chemscore.Internal.Correction.Weighted>
   9.000000E+99

> <Gold.Protein.RotatedTorsions>
[ 6907 6896 6895 6894 ] final  168.88 input  -60.11 | X-H torsion
[ 7974 7965 7964 7962 ] final  -36.38 input  175.53 | X-H torsion
[ 8008 7997 7996 7995 ] final  -82.29 input   59.86 | X-H torsion
[ 10167 10162 10161 10158 ] final  -87.67 input  -65.29 | X-H torsion
[ 10718 10713 10712 10709 ] final  116.49 input   66.30 | X-H torsion
[ 10763 10752 10751 10750 ] final  -97.35 input  -60.55 | X-H torsion
[ 11005 11000 10999 10996 ] final   96.01 input  -57.11 | X-H torsion

> <Gold.Protein.ActiveResidues>
 VAL166  LYS551  ARG553  GLY616  TRP617  ASP618  TYR619  PRO620  LYS621  CYS622 
 ASP623  PHE694  ASN695  SER759  ASP760  ASP761  ALA762  ILE779  LEU786  VAL792 
 PHE793  MET794  SER795  GLU796  ALA797  LYS798  CYS799  TRP800  GLU811  SER814 

> <Gold.Protein.RotatedAtoms>
  151.8406  133.3423  159.3641 H   0  0  0  0  0  0  0  0  0  0  0  0  # atno 6907 bound_to 6896
  150.7236  134.5395  159.5749 H   0  0  0  0  0  0  0  0  0  0  0  0  # atno 6908 bound_to 6896
  152.2867  134.7768  160.0437 H   0  0  0  0  0  0  0  0  0  0  0  0  # atno 6909 bound_to 6896
  146.0667  140.6271  142.8972 H   0  0  0  0  0  0  0  0  0  0  0  0  # atno 7974 bound_to 7965
  154.6071  140.0635  156.9445 H   0  0  0  0  0  0  0  0  0  0  0  0  # atno 8008 bound_to 7997
  155.2035  140.3317  155.4321 H   0  0  0  0  0  0  0  0  0  0  0  0  # atno 8009 bound_to 7997
  156.2354  140.1860  156.7116 H   0  0  0  0  0  0  0  0  0  0  0  0  # atno 8010 bound_to 7997
  140.3822  143.2743  151.9370 H   0  0  0  0  0  0  0  0  0  0  0  0  # atno 10167 bound_to 10162
  157.6157  131.1026  150.7480 H   0  0  0  0  0  0  0  0  0  0  0  0  # atno 10718 bound_to 10713
  154.7320  135.5050  153.8980 H   0  0  0  0  0  0  0  0  0  0  0  0  # atno 10763 bound_to 10752
  153.0959  135.6672  153.9773 H   0  0  0  0  0  0  0  0  0  0  0  0  # atno 10764 bound_to 10752
  153.9572  135.3051  155.3415 H   0  0  0  0  0  0  0  0  0  0  0  0  # atno 10765 bound_to 10752
  139.8784  134.8928  156.4095 H   0  0  0  0  0  0  0  0  0  0  0  0  # atno 11005 bound_to 11000
  144.7206  140.4361  143.7011 LP  0  0  0  0  0  0  0  0  0  0  0  0  # atno 17320 bound_to 7965
  145.6465  139.1558  143.2886 LP  0  0  0  0  0  0  0  0  0  0  0  0  # atno 17321 bound_to 7965
  139.4794  144.5808  151.7936 LP  0  0  0  0  0  0  0  0  0  0  0  0  # atno 17342 bound_to 10162
  140.4926  144.1288  150.5953 LP  0  0  0  0  0  0  0  0  0  0  0  0  # atno 17343 bound_to 10162
  156.7848  130.4871  149.5395 LP  0  0  0  0  0  0  0  0  0  0  0  0  # atno 17370 bound_to 10713
  156.1278  130.6156  151.0289 LP  0  0  0  0  0  0  0  0  0  0  0  0  # atno 17371 bound_to 10713
  140.9210  133.7645  155.9907 LP  0  0  0  0  0  0  0  0  0  0  0  0  # atno 17394 bound_to 11000
  140.8439  134.3034  157.5302 LP  0  0  0  0  0  0  0  0  0  0  0  0  # atno 17395 bound_to 11000

$$$$
