AV-unprocessed.smi:3331|AV-procd|sdf|12821|dock9
  -GOLD-   2272019193D 1   1.00000     0.00000
 Structure written by MMmdl.
 47 48  0  0  0  0  0  0  0  0  2 V2000
  152.3914  143.9059  162.5306 C   0  0  0  0  0  0  0  0  0  0  0  0
  152.7172  142.6577  161.6990 C   0  0  2  0  0  0  0  0  0  0  0  0
  153.8811  141.8522  162.3181 C   0  0  0  0  0  0  0  0  0  0  0  0
  154.3094  140.6606  161.4323 C   0  0  2  0  0  0  0  0  0  0  0  0
  155.5452  139.9505  162.0021 C   0  0  0  0  0  0  0  0  0  0  0  0
  154.5413  141.1295  159.9800 C   0  0  0  0  0  0  0  0  0  0  0  0
  153.3172  141.7805  159.4952 N   0  0  0  0  0  0  0  0  0  0  0  0
  152.5020  141.2042  158.5762 C   0  0  0  0  0  0  0  0  0  0  0  0
  152.8038  140.1548  158.0043 O   0  0  0  0  0  0  0  0  0  0  0  0
  151.1513  141.8615  158.2180 C   0  0  1  0  0  0  0  0  0  0  0  0
  151.3827  143.2667  157.6375 C   0  0  0  0  0  0  0  0  0  0  0  0
  150.3853  141.0509  157.2417 N   0  3  0  0  0  0  0  0  0  0  0  0
  151.0220  140.8926  155.9162 C   0  0  0  0  0  0  0  0  0  0  0  0
  150.2656  139.8623  155.0669 C   0  0  0  0  0  0  0  0  0  0  0  0
  149.0581  140.4227  154.4932 N   0  0  0  0  0  0  0  0  0  0  0  0
  148.6131  141.7272  154.5345 C   0  0  0  0  0  0  0  0  0  0  0  0
  147.4271  141.7726  153.8597 C   0  0  0  0  0  0  0  0  0  0  0  0
  147.2264  140.4288  153.4373 C   0  0  0  0  0  0  0  0  0  0  0  0
  148.2053  139.6231  153.8175 N   0  0  0  0  0  0  0  0  0  0  0  0
  153.0494  143.0190  160.2374 C   0  0  0  0  0  0  0  0  0  0  0  0
  153.2393  144.5906  162.5678 H   0  0  0  0  0  0  0  0  0  0  0  0
  152.1353  143.6380  163.5560 H   0  0  0  0  0  0  0  0  0  0  0  0
  151.5440  144.4482  162.1103 H   0  0  0  0  0  0  0  0  0  0  0  0
  151.8297  142.0226  161.6968 H   0  0  0  0  0  0  0  0  0  0  0  0
  154.7362  142.5143  162.4617 H   0  0  0  0  0  0  0  0  0  0  0  0
  153.6006  141.4963  163.3102 H   0  0  0  0  0  0  0  0  0  0  0  0
  153.4916  139.9383  161.4248 H   0  0  0  0  0  0  0  0  0  0  0  0
  156.4079  140.6169  162.0304 H   0  0  0  0  0  0  0  0  0  0  0  0
  155.8135  139.0837  161.3975 H   0  0  0  0  0  0  0  0  0  0  0  0
  155.3619  139.5989  163.0177 H   0  0  0  0  0  0  0  0  0  0  0  0
  155.3714  141.8363  159.9372 H   0  0  0  0  0  0  0  0  0  0  0  0
  154.8445  140.2849  159.3596 H   0  0  0  0  0  0  0  0  0  0  0  0
  150.5223  141.9424  159.1041 H   0  0  0  0  0  0  0  0  0  0  0  0
  151.9318  143.9062  158.3292 H   0  0  0  0  0  0  0  0  0  0  0  0
  150.4348  143.7613  157.4233 H   0  0  0  0  0  0  0  0  0  0  0  0
  151.9507  143.2255  156.7071 H   0  0  0  0  0  0  0  0  0  0  0  0
  150.2634  140.1273  157.6317 H   0  0  0  0  0  0  0  0  0  0  0  0
  151.0417  141.8512  155.3967 H   0  0  0  0  0  0  0  0  0  0  0  0
  152.0583  140.5795  156.0517 H   0  0  0  0  0  0  0  0  0  0  0  0
  150.8968  139.4941  154.2565 H   0  0  0  0  0  0  0  0  0  0  0  0
  149.9916  138.9982  155.6739 H   0  0  0  0  0  0  0  0  0  0  0  0
  149.1701  142.5058  155.0345 H   0  0  0  0  0  0  0  0  0  0  0  0
  146.7975  142.6344  153.6943 H   0  0  0  0  0  0  0  0  0  0  0  0
  146.4042  140.0182  152.8698 H   0  0  0  0  0  0  0  0  0  0  0  0
  152.2593  143.6286  159.8038 H   0  0  0  0  0  0  0  0  0  0  0  0
  153.9376  143.6520  160.2039 H   0  0  0  0  0  0  0  0  0  0  0  0
  149.4755  141.4735  157.1224 H   0  0  0  0  0  0  0  0  0  0  0  0
  1  2  1  0  0  0  0
  1 21  1  0  0  0  0
  1 22  1  0  0  0  0
  1 23  1  0  0  0  0
  2 20  1  0  0  0  0
  2  3  1  0  0  0  0
  2 24  1  0  0  0  0
  3  4  1  0  0  0  0
  3 25  1  0  0  0  0
  3 26  1  0  0  0  0
  4  5  1  0  0  0  0
  4  6  1  0  0  0  0
  4 27  1  0  0  0  0
  5 28  1  0  0  0  0
  5 29  1  0  0  0  0
  5 30  1  0  0  0  0
  6  7  1  0  0  0  0
  6 31  1  0  0  0  0
  6 32  1  0  0  0  0
  7  8  1  0  0  0  0
  7 20  1  0  0  0  0
  8  9  2  0  0  0  0
  8 10  1  0  0  0  0
 10 11  1  0  0  0  0
 10 12  1  0  0  0  0
 10 33  1  0  0  0  0
 11 34  1  0  0  0  0
 11 35  1  0  0  0  0
 11 36  1  0  0  0  0
 12 13  1  0  0  0  0
 12 37  1  0  0  0  0
 12 47  1  0  0  0  0
 13 14  1  0  0  0  0
 13 38  1  0  0  0  0
 13 39  1  0  0  0  0
 14 15  1  0  0  0  0
 14 40  1  0  0  0  0
 14 41  1  0  0  0  0
 15 19  1  0  0  0  0
 15 16  1  0  0  0  0
 16 17  2  0  0  0  0
 16 42  1  0  0  0  0
 17 18  1  0  0  0  0
 17 43  1  0  0  0  0
 18 19  2  0  0  0  0
 18 44  1  0  0  0  0
 20 45  1  0  0  0  0
 20 46  1  0  0  0  0
M  CHG  1  12   1
M  END
> <s_m_source_file>
AV-unprocessed.smi

> <i_m_source_file_index>
3331

> <i_lp_mmshare_version>
43012

> <i_f3d_flags>
0

> <s_epik_input>
W0NIM11bQ0BASF0xW0NIMl1bQ0BASF0oW0NIM10pW0NIMl1OKFtDSDJdMSlDKD1PKVtDQEhdKFtDSDNdKVtOSF1bQ0gyXVtDSDJdbjJbY0hdW2NIXVtjSF1uMg==

> <s_epik_cmdline>
J2VwaWtfcHl0aG9uJywgJy1waCcsICc3LjAnLCAnLXRuJywgJzgnLCAnLW1hJywgJzIwMCcsICctbWV0YWxfYmluZGluZycsICctaW1hZScsICc8aW5maWxlLm1hZT4nLCAnLW9tYWUnLCAnPG91dGZpbGUubWFlPic=

> <r_lp_tautomer_probability>
1

> <r_epik_Ionization_Penalty>
0.189706

> <r_epik_Ionization_Penalty_Charging>
0.189703

> <r_epik_Ionization_Penalty_Neutral>
2.45875e-06

> <r_epik_State_Penalty>
0.179341

> <r_epik_Charging_Adjusted_Penalty>
0.369044

> <i_epik_Tot_Q>
1

> <i_epik_Tot_abs_Q>
1

> <r_epik_Metal_State_Penalty>
0.179578

> <b_epik_Metal_Only>
0

> <s_lp_Force_Field>
OPLS_2005

> <r_lp_Energy>
26.0913

> <b_lp_Chiralities_Consistent>
1

> <s_lp_Variant>
AV-unprocessed.smi:3331-5

> <Gold.Version>
5.8.1

> <Gold.Id.Protein>
6NUR|6NUR_protein|mol2

> <Gold.PLP.Fitness>
56.1109

> <Gold.PLP.PLP>
-47.4296

> <Gold.PLP.part.hbond>
-1.0000

> <Gold.PLP.part.metal>
0.0000

> <Gold.PLP.part.buried>
-0.3272

> <Gold.PLP.part.nonpolar>
-45.3553

> <Gold.PLP.part.repulsive>
0.4089

> <Gold.PLP.ligand.clash>
0.0000

> <Gold.PLP.ligand.torsion>
0.1559

> <Gold.PLP.Chemscore.Hbond>
1.0000

> <Gold.PLP.Chemscore.CHOScore>
1.9858

> <Gold.PLP.Chemscore.Metal>
0.0000

> <Gold.Chemscore.Hbonds>
donor molecule, donor type, donor heavy atom, donor atom, acceptor molecule, acceptor atom, score
      P1  H  7997  8010       L1     9  1.00
      L1  C    16    42       P1  8028  1.00
      L1  C    18    44       P1 10175  0.37

> <Gold.PLP.Chemscore.Internal.Correction>
0.0357

> <Gold.Rescore>
     Score         DG    S(hbond)    S(metal)    S(lipo)     H(rot)  DE(clash)    DE(int)     intcor
     17.01     -18.81       0.91        0.00     125.70       1.73       0.24       1.56       ----

> <Gold.Chemscore.Fitness>
17.0052

> <Gold.Chemscore.DG>
-18.8054

> <Gold.Chemscore.ZeroCoef>
-5.4800

> <Gold.Chemscore.Hbond>
0.9090

> <Gold.Chemscore.Metal>
0.0000

> <Gold.Chemscore.Lipo>
125.6953

> <Gold.Chemscore.Internal_Hbond>
0.0000

> <Gold.Chemscore.DEClash>
0.2371

> <Gold.Chemscore.DEInternal>
1.5632

> <Gold.Chemscore.Rot>
1.7254

> <Gold.Chemscore.Internal.Correction>
   9.000000E+99

> <Gold.Chemscore.Hbonds>
donor molecule, donor type, donor heavy atom, donor atom, acceptor molecule, acceptor atom, score
      P1  H  7997  8010       L1     9  0.88

> <Gold.Chemscore.Hbond.Weighted>
-3.0361

> <Gold.Chemscore.Metal.Weighted>
-0.0000

> <Gold.Chemscore.Lipo.Weighted>
-14.7064

> <Gold.Chemscore.Internal_Hbond.Weighted>
0.0000

> <Gold.Chemscore.DEClash.Weighted>
0.2371

> <Gold.Chemscore.DEInternal.Weighted>
1.5632

> <Gold.Chemscore.Rot.Weighted>
4.4170

> <Gold.Chemscore.Internal.Correction.Weighted>
   9.000000E+99

> <Gold.Protein.RotatedTorsions>
[ 6907 6896 6895 6894 ] final   41.10 input  -60.11 | X-H torsion
[ 7974 7965 7964 7962 ] final   67.81 input  175.53 | X-H torsion
[ 8008 7997 7996 7995 ] final   44.80 input   59.86 | X-H torsion
[ 10167 10162 10161 10158 ] final -172.92 input  -65.29 | X-H torsion
[ 10718 10713 10712 10709 ] final   49.23 input   66.30 | X-H torsion
[ 10763 10752 10751 10750 ] final -146.31 input  -60.55 | X-H torsion
[ 11005 11000 10999 10996 ] final  -46.27 input  -57.11 | X-H torsion

> <Gold.Protein.ActiveResidues>
 VAL166  LYS551  ARG553  GLY616  TRP617  ASP618  TYR619  PRO620  LYS621  CYS622 
 ASP623  PHE694  ASN695  SER759  ASP760  ASP761  ALA762  ILE779  LEU786  VAL792 
 PHE793  MET794  SER795  GLU796  ALA797  LYS798  CYS799  TRP800  GLU811  SER814 

> <Gold.Protein.RotatedAtoms>
  152.1910  134.8672  160.0517 H   0  0  0  0  0  0  0  0  0  0  0  0  # atno 6907 bound_to 6896
  151.9561  133.3675  159.4026 H   0  0  0  0  0  0  0  0  0  0  0  0  # atno 6908 bound_to 6896
  150.6935  134.4214  159.5250 H   0  0  0  0  0  0  0  0  0  0  0  0  # atno 6909 bound_to 6896
  145.8101  139.3028  143.1104 H   0  0  0  0  0  0  0  0  0  0  0  0  # atno 7974 bound_to 7965
  155.3252  140.3399  155.4240 H   0  0  0  0  0  0  0  0  0  0  0  0  # atno 8008 bound_to 7997
  156.1889  140.1690  156.8168 H   0  0  0  0  0  0  0  0  0  0  0  0  # atno 8009 bound_to 7997
  154.5418  140.0723  156.8507 H   0  0  0  0  0  0  0  0  0  0  0  0  # atno 8010 bound_to 7997
  139.5717  144.1626  152.1393 H   0  0  0  0  0  0  0  0  0  0  0  0  # atno 10167 bound_to 10162
  157.4766  130.8289  149.8047 H   0  0  0  0  0  0  0  0  0  0  0  0  # atno 10718 bound_to 10713
  154.8342  135.3390  154.6641 H   0  0  0  0  0  0  0  0  0  0  0  0  # atno 10763 bound_to 10752
  153.7258  135.6955  153.5006 H   0  0  0  0  0  0  0  0  0  0  0  0  # atno 10764 bound_to 10752
  153.2348  135.4404  155.0587 H   0  0  0  0  0  0  0  0  0  0  0  0  # atno 10765 bound_to 10752
  141.0568  133.6723  156.3131 H   0  0  0  0  0  0  0  0  0  0  0  0  # atno 11005 bound_to 11000
  145.9786  140.8701  143.0126 LP  0  0  0  0  0  0  0  0  0  0  0  0  # atno 17320 bound_to 7965
  144.6758  140.2048  143.7383 LP  0  0  0  0  0  0  0  0  0  0  0  0  # atno 17321 bound_to 7965
  140.1160  144.5415  150.6893 LP  0  0  0  0  0  0  0  0  0  0  0  0  # atno 17342 bound_to 10162
  140.7001  143.2429  151.4888 LP  0  0  0  0  0  0  0  0  0  0  0  0  # atno 17343 bound_to 10162
  156.0100  130.3837  150.2297 LP  0  0  0  0  0  0  0  0  0  0  0  0  # atno 17370 bound_to 10713
  157.0482  131.0055  151.3262 LP  0  0  0  0  0  0  0  0  0  0  0  0  # atno 17371 bound_to 10713
  140.5947  134.5615  157.5506 LP  0  0  0  0  0  0  0  0  0  0  0  0  # atno 17394 bound_to 11000
  139.9397  134.7809  156.0709 LP  0  0  0  0  0  0  0  0  0  0  0  0  # atno 17395 bound_to 11000

$$$$
