AV-unprocessed.smi:527|AV-procd|sdf|2825|dock5
  -GOLD-   2262023313D 1   1.00000     0.00000
 Structure written by MMmdl.
 43 44  0  0  0  0  0  0  0  0  2 V2000
  151.5646  139.3502  157.6072 C   0  0  0  0  0  0  0  0  0  0  0  0
  150.9068  139.8907  156.3239 C   0  0  2  0  0  0  0  0  0  0  0  0
  149.9264  141.0239  156.6870 C   0  0  0  0  0  0  0  0  0  0  0  0
  149.2661  141.6272  155.4428 C   0  0  0  0  0  0  0  0  0  0  0  0
  148.5360  140.5452  154.6423 C   0  0  0  0  0  0  0  0  0  0  0  0
  149.4870  139.3982  154.2489 C   0  0  2  0  0  0  0  0  0  0  0  0
  148.7302  138.3716  153.5338 N   0  0  0  0  0  0  0  0  0  0  0  0
  147.4429  138.0608  153.7471 C   0  0  0  0  0  0  0  0  0  0  0  0
  146.8212  138.3984  154.7568 O   0  0  0  0  0  0  0  0  0  0  0  0
  146.9449  137.3448  152.7207 N   0  0  0  0  0  0  0  0  0  0  0  0
  145.6683  136.9532  152.5330 C   0  0  0  0  0  0  0  0  0  0  0  0
  144.7335  137.1981  153.3000 O   0  0  0  0  0  0  0  0  0  0  0  0
  145.4272  136.1463  151.2505 C   0  0  0  0  0  0  0  0  0  0  0  0
  144.8404  134.8237  151.5021 N   0  0  0  0  0  0  0  0  0  0  0  0
  144.6763  133.8019  150.6015 C   0  0  0  0  0  0  0  0  0  0  0  0
  144.0846  132.7704  151.2842 C   0  0  0  0  0  0  0  0  0  0  0  0
  143.9111  133.2057  152.5707 N   0  3  0  0  0  0  0  0  0  0  0  0
  144.3706  134.4547  152.7015 C   0  0  0  0  0  0  0  0  0  0  0  0
  150.2010  138.7867  155.4854 C   0  0  1  0  0  0  0  0  0  0  0  0
  151.1788  137.6682  155.0625 C   0  0  0  0  0  0  0  0  0  0  0  0
  150.8435  138.8202  158.2299 H   0  0  0  0  0  0  0  0  0  0  0  0
  151.9819  140.1621  158.2037 H   0  0  0  0  0  0  0  0  0  0  0  0
  152.3870  138.6699  157.3888 H   0  0  0  0  0  0  0  0  0  0  0  0
  151.6978  140.3256  155.7109 H   0  0  0  0  0  0  0  0  0  0  0  0
  149.1555  140.6449  157.3596 H   0  0  0  0  0  0  0  0  0  0  0  0
  150.4494  141.8105  157.2319 H   0  0  0  0  0  0  0  0  0  0  0  0
  148.5649  142.4093  155.7356 H   0  0  0  0  0  0  0  0  0  0  0  0
  150.0213  142.1043  154.8170 H   0  0  0  0  0  0  0  0  0  0  0  0
  147.7080  140.1541  155.2353 H   0  0  0  0  0  0  0  0  0  0  0  0
  148.0937  140.9909  153.7504 H   0  0  0  0  0  0  0  0  0  0  0  0
  150.2562  139.8006  153.5863 H   0  0  0  0  0  0  0  0  0  0  0  0
  149.2281  137.8662  152.8159 H   0  0  0  0  0  0  0  0  0  0  0  0
  147.6052  137.0706  152.0083 H   0  0  0  0  0  0  0  0  0  0  0  0
  144.7509  136.6950  150.5938 H   0  0  0  0  0  0  0  0  0  0  0  0
  146.3673  136.0098  150.7138 H   0  0  0  0  0  0  0  0  0  0  0  0
  144.9821  133.8835  149.5686 H   0  0  0  0  0  0  0  0  0  0  0  0
  143.7804  131.7863  150.9588 H   0  0  0  0  0  0  0  0  0  0  0  0
  144.3609  135.0480  153.5985 H   0  0  0  0  0  0  0  0  0  0  0  0
  149.4372  138.3307  156.1176 H   0  0  0  0  0  0  0  0  0  0  0  0
  152.0014  138.0675  154.4687 H   0  0  0  0  0  0  0  0  0  0  0  0
  150.6865  136.8996  154.4671 H   0  0  0  0  0  0  0  0  0  0  0  0
  151.6058  137.1554  155.9234 H   0  0  0  0  0  0  0  0  0  0  0  0
  143.4941  132.6632  153.3169 H   0  0  0  0  0  0  0  0  0  0  0  0
  1  2  1  0  0  0  0
  1 21  1  0  0  0  0
  1 22  1  0  0  0  0
  1 23  1  0  0  0  0
  2 19  1  0  0  0  0
  2  3  1  0  0  0  0
  2 24  1  0  0  0  0
  3  4  1  0  0  0  0
  3 25  1  0  0  0  0
  3 26  1  0  0  0  0
  4  5  1  0  0  0  0
  4 27  1  0  0  0  0
  4 28  1  0  0  0  0
  5  6  1  0  0  0  0
  5 29  1  0  0  0  0
  5 30  1  0  0  0  0
  6  7  1  0  0  0  0
  6 19  1  0  0  0  0
  6 31  1  0  0  0  0
  7  8  1  0  0  0  0
  7 32  1  0  0  0  0
  8  9  2  0  0  0  0
  8 10  1  0  0  0  0
 10 11  1  0  0  0  0
 10 33  1  0  0  0  0
 11 12  2  0  0  0  0
 11 13  1  0  0  0  0
 13 14  1  0  0  0  0
 13 34  1  0  0  0  0
 13 35  1  0  0  0  0
 14 18  1  0  0  0  0
 14 15  1  0  0  0  0
 15 16  2  0  0  0  0
 15 36  1  0  0  0  0
 16 17  1  0  0  0  0
 16 37  1  0  0  0  0
 17 18  2  0  0  0  0
 17 43  1  0  0  0  0
 18 38  1  0  0  0  0
 19 20  1  0  0  0  0
 19 39  1  0  0  0  0
 20 40  1  0  0  0  0
 20 41  1  0  0  0  0
 20 42  1  0  0  0  0
M  CHG  1  17   1
M  END
> <s_m_source_file>
AV-unprocessed.smi

> <i_m_source_file_index>
527

> <i_lp_mmshare_version>
43012

> <i_f3d_flags>
0

> <s_epik_input>
W0NIM11bQ0BASF0xW0NIMl1bQ0gyXVtDSDJdW0NASF0oW0NASF0xW0NIM10pW05IXUMoPU8pW05IXUMoPU8pW0NIMl1uMltjSF1bY0hdbltjSF0y

> <s_epik_cmdline>
J2VwaWtfcHl0aG9uJywgJy1waCcsICc3LjAnLCAnLXRuJywgJzgnLCAnLW1hJywgJzIwMCcsICctbWV0YWxfYmluZGluZycsICctaW1hZScsICc8aW5maWxlLm1hZT4nLCAnLW9tYWUnLCAnPG91dGZpbGUubWFlPic=

> <r_lp_tautomer_probability>
1

> <r_epik_Ionization_Penalty>
0.816441

> <r_epik_Ionization_Penalty_Charging>
0

> <r_epik_Ionization_Penalty_Neutral>
0.816441

> <r_epik_State_Penalty>
0.849034

> <r_epik_Charging_Adjusted_Penalty>
0.849034

> <i_epik_Tot_Q>
1

> <i_epik_Tot_abs_Q>
1

> <r_epik_Metal_State_Penalty>
0.984327

> <b_epik_Metal_Only>
0

> <s_lp_Force_Field>
OPLS_2005

> <r_lp_Energy>
16.8338

> <b_lp_Chiralities_Consistent>
1

> <s_lp_Variant>
AV-unprocessed.smi:527-11

> <Gold.Version>
5.8.1

> <Gold.Id.Protein>
6NUR|6NUR_protein|mol2

> <Gold.PLP.Fitness>
44.7992

> <Gold.PLP.PLP>
-32.0552

> <Gold.PLP.part.hbond>
-3.6554

> <Gold.PLP.part.metal>
0.0000

> <Gold.PLP.part.buried>
0.3538

> <Gold.PLP.part.nonpolar>
-30.3199

> <Gold.PLP.part.repulsive>
0.4296

> <Gold.PLP.ligand.clash>
0.0014

> <Gold.PLP.ligand.torsion>
0.5359

> <Gold.PLP.Chemscore.Hbond>
3.6000

> <Gold.PLP.Chemscore.CHOScore>
1.0000

> <Gold.PLP.Chemscore.Metal>
0.0000

> <Gold.Chemscore.Hbonds>
donor molecule, donor type, donor heavy atom, donor atom, acceptor molecule, acceptor atom, score
      L1  H     7    32       P1  7948  0.74
      L1  H    10    33       P1  7948  0.83
      L1  H    17    43       P1 10957  2.00
      L1  C    15    36       P1  7921  1.00

> <Gold.PLP.Chemscore.Internal.Correction>
0.0171

> <Gold.Rescore>
     Score         DG    S(hbond)    S(metal)    S(lipo)     H(rot)  DE(clash)    DE(int)     intcor
     13.86     -18.40       2.86        0.00      66.09       1.71       0.16       4.37       ----

> <Gold.Chemscore.Fitness>
13.8616

> <Gold.Chemscore.DG>
-18.3951

> <Gold.Chemscore.ZeroCoef>
-5.4800

> <Gold.Chemscore.Hbond>
2.8586

> <Gold.Chemscore.Metal>
0.0000

> <Gold.Chemscore.Lipo>
66.0923

> <Gold.Chemscore.Internal_Hbond>
0.0000

> <Gold.Chemscore.DEClash>
0.1635

> <Gold.Chemscore.DEInternal>
4.3700

> <Gold.Chemscore.Rot>
1.7052

> <Gold.Chemscore.Internal.Correction>
   9.000000E+99

> <Gold.Chemscore.Hbonds>
donor molecule, donor type, donor heavy atom, donor atom, acceptor molecule, acceptor atom, score
      L1  H     7    32       P1  7948  0.72
      L1  H    10    33       P1  7948  0.79
      L1  H    17    43       P1 10957  0.40

> <Gold.Chemscore.Hbond.Weighted>
-9.5477

> <Gold.Chemscore.Metal.Weighted>
-0.0000

> <Gold.Chemscore.Lipo.Weighted>
-7.7328

> <Gold.Chemscore.Internal_Hbond.Weighted>
0.0000

> <Gold.Chemscore.DEClash.Weighted>
0.1635

> <Gold.Chemscore.DEInternal.Weighted>
4.3700

> <Gold.Chemscore.Rot.Weighted>
4.3653

> <Gold.Chemscore.Internal.Correction.Weighted>
   9.000000E+99

> <Gold.Protein.RotatedTorsions>
[ 6907 6896 6895 6894 ] final  -32.29 input  -60.11 | X-H torsion
[ 7974 7965 7964 7962 ] final   20.01 input  175.53 | X-H torsion
[ 8008 7997 7996 7995 ] final  140.61 input   59.86 | X-H torsion
[ 10167 10162 10161 10158 ] final  -36.39 input  -65.29 | X-H torsion
[ 10718 10713 10712 10709 ] final   -6.69 input   66.30 | X-H torsion
[ 10763 10752 10751 10750 ] final  -66.95 input  -60.55 | X-H torsion
[ 11005 11000 10999 10996 ] final  -28.94 input  -57.11 | X-H torsion

> <Gold.Protein.ActiveResidues>
 VAL166  LYS551  ARG553  GLY616  TRP617  ASP618  TYR619  PRO620  LYS621  CYS622 
 ASP623  PHE694  ASN695  SER759  ASP760  ASP761  ALA762  ILE779  LEU786  VAL792 
 PHE793  MET794  SER795  GLU796  ALA797  LYS798  CYS799  TRP800  GLU811  SER814 

> <Gold.Protein.RotatedAtoms>
  151.0807  134.9856  159.8354 H   0  0  0  0  0  0  0  0  0  0  0  0  # atno 6907 bound_to 6896
  152.5419  134.2185  159.8788 H   0  0  0  0  0  0  0  0  0  0  0  0  # atno 6908 bound_to 6896
  151.2215  133.4456  159.2634 H   0  0  0  0  0  0  0  0  0  0  0  0  # atno 6909 bound_to 6896
  146.2128  139.8231  142.8675 H   0  0  0  0  0  0  0  0  0  0  0  0  # atno 7974 bound_to 7965
  156.2977  140.2337  156.4430 H   0  0  0  0  0  0  0  0  0  0  0  0  # atno 8008 bound_to 7997
  154.8169  140.0440  157.1403 H   0  0  0  0  0  0  0  0  0  0  0  0  # atno 8009 bound_to 7997
  154.9359  140.3023  155.5148 H   0  0  0  0  0  0  0  0  0  0  0  0  # atno 8010 bound_to 7997
  140.7144  143.3412  151.2353 H   0  0  0  0  0  0  0  0  0  0  0  0  # atno 10167 bound_to 10162
  156.7282  130.5172  149.5852 H   0  0  0  0  0  0  0  0  0  0  0  0  # atno 10718 bound_to 10713
  154.3673  135.6103  153.5721 H   0  0  0  0  0  0  0  0  0  0  0  0  # atno 10763 bound_to 10752
  152.9791  135.5829  154.4563 H   0  0  0  0  0  0  0  0  0  0  0  0  # atno 10764 bound_to 10752
  154.4311  135.2848  155.1889 H   0  0  0  0  0  0  0  0  0  0  0  0  # atno 10765 bound_to 10752
  140.9252  133.7373  156.0858 H   0  0  0  0  0  0  0  0  0  0  0  0  # atno 11005 bound_to 11000
  145.3075  141.0211  143.3573 LP  0  0  0  0  0  0  0  0  0  0  0  0  # atno 17320 bound_to 7965
  144.8960  139.4711  143.6655 LP  0  0  0  0  0  0  0  0  0  0  0  0  # atno 17321 bound_to 7965
  139.6920  143.9676  152.2864 LP  0  0  0  0  0  0  0  0  0  0  0  0  # atno 17342 bound_to 10162
  139.9341  144.6723  150.8333 LP  0  0  0  0  0  0  0  0  0  0  0  0  # atno 17343 bound_to 10162
  156.1547  130.6334  151.0642 LP  0  0  0  0  0  0  0  0  0  0  0  0  # atno 17370 bound_to 10713
  157.6870  131.0822  150.7216 LP  0  0  0  0  0  0  0  0  0  0  0  0  # atno 17371 bound_to 10713
  140.7935  134.3590  157.5458 LP  0  0  0  0  0  0  0  0  0  0  0  0  # atno 17394 bound_to 11000
  139.8784  134.9155  156.3131 LP  0  0  0  0  0  0  0  0  0  0  0  0  # atno 17395 bound_to 11000

$$$$
