AV-unprocessed.smi:2495|AV-procd|sdf|9824|dock8
  -GOLD-   2272013453D 1   1.00000     0.00000
 Structure written by MMmdl.
 33 34  0  0  0  0  0  0  0  0  1 V2000
  146.5520  142.9522  154.0597 C   0  0  0  0  0  0  0  0  0  0  0  0
  147.8982  142.5838  154.4702 N   0  0  0  0  0  0  0  0  0  0  0  0
  148.3706  141.3280  154.4813 C   0  0  0  0  0  0  0  0  0  0  0  0
  147.6897  140.3567  154.1494 O   0  0  0  0  0  0  0  0  0  0  0  0
  149.8189  141.1391  154.9576 C   0  0  1  0  0  0  0  0  0  0  0  0
  150.0530  141.7180  156.3719 C   0  0  0  0  0  0  0  0  0  0  0  0
  151.4031  141.4135  156.8413 N   0  0  0  0  0  0  0  0  0  0  0  0
  151.8220  142.1081  157.9971 C   0  0  0  0  0  0  0  0  0  0  0  0
  151.6390  143.5075  158.1130 C   0  0  0  0  0  0  0  0  0  0  0  0
  152.0878  144.1140  159.3048 C   0  0  0  0  0  0  0  0  0  0  0  0
  151.9404  145.6034  159.5339 C   0  0  0  0  0  0  0  0  0  0  0  0
  152.6651  143.4002  160.2944 N   0  0  0  0  0  0  0  0  0  0  0  0
  152.7967  142.0892  160.0852 C   0  0  0  0  0  0  0  0  0  0  0  0
  152.4131  141.4121  159.0005 N   0  0  0  0  0  0  0  0  0  0  0  0
  151.7546  139.9996  156.7312 C   0  0  0  0  0  0  0  0  0  0  0  0
  151.4826  139.4914  155.3073 C   0  0  0  0  0  0  0  0  0  0  0  0
  150.1254  139.7443  154.9638 O   0  0  0  0  0  0  0  0  0  0  0  0
  146.3962  144.0200  154.2127 H   0  0  0  0  0  0  0  0  0  0  0  0
  145.8039  142.4120  154.6415 H   0  0  0  0  0  0  0  0  0  0  0  0
  146.3970  142.7319  153.0027 H   0  0  0  0  0  0  0  0  0  0  0  0
  148.5169  143.3291  154.7559 H   0  0  0  0  0  0  0  0  0  0  0  0
  150.4673  141.6450  154.2400 H   0  0  0  0  0  0  0  0  0  0  0  0
  149.8775  142.7926  156.3486 H   0  0  0  0  0  0  0  0  0  0  0  0
  149.3360  141.2956  157.0777 H   0  0  0  0  0  0  0  0  0  0  0  0
  151.1914  144.0988  157.3282 H   0  0  0  0  0  0  0  0  0  0  0  0
  151.8809  146.1379  158.5854 H   0  0  0  0  0  0  0  0  0  0  0  0
  152.7909  145.9975  160.0911 H   0  0  0  0  0  0  0  0  0  0  0  0
  151.0322  145.8082  160.1008 H   0  0  0  0  0  0  0  0  0  0  0  0
  153.2619  141.5169  160.8739 H   0  0  0  0  0  0  0  0  0  0  0  0
  152.8085  139.8510  156.9702 H   0  0  0  0  0  0  0  0  0  0  0  0
  151.1711  139.4248  157.4519 H   0  0  0  0  0  0  0  0  0  0  0  0
  152.1481  139.9704  154.5874 H   0  0  0  0  0  0  0  0  0  0  0  0
  151.6695  138.4189  155.2499 H   0  0  0  0  0  0  0  0  0  0  0  0
  1  2  1  0  0  0  0
  1 18  1  0  0  0  0
  1 19  1  0  0  0  0
  1 20  1  0  0  0  0
  2  3  1  0  0  0  0
  2 21  1  0  0  0  0
  3  4  2  0  0  0  0
  3  5  1  0  0  0  0
  5 17  1  0  0  0  0
  5  6  1  0  0  0  0
  5 22  1  0  0  0  0
  6  7  1  0  0  0  0
  6 23  1  0  0  0  0
  6 24  1  0  0  0  0
  7  8  1  0  0  0  0
  7 15  1  0  0  0  0
  8 14  1  0  0  0  0
  8  9  2  0  0  0  0
  9 10  1  0  0  0  0
  9 25  1  0  0  0  0
 10 11  1  0  0  0  0
 10 12  2  0  0  0  0
 11 26  1  0  0  0  0
 11 27  1  0  0  0  0
 11 28  1  0  0  0  0
 12 13  1  0  0  0  0
 13 14  2  0  0  0  0
 13 29  1  0  0  0  0
 15 16  1  0  0  0  0
 15 30  1  0  0  0  0
 15 31  1  0  0  0  0
 16 17  1  0  0  0  0
 16 32  1  0  0  0  0
 16 33  1  0  0  0  0
M  END
> <s_m_source_file>
AV-unprocessed.smi

> <i_m_source_file_index>
2495

> <i_lp_mmshare_version>
43012

> <i_f3d_flags>
0

> <s_epik_input>
W0NIM11bTkhdQyg9TylbQ0BASF0xW0NIMl1OKFtDSDJdW0NIMl1PMSljMltjSF1jKFtDSDNdKW5bY0hdbjI=

> <s_epik_cmdline>
J2VwaWtfcHl0aG9uJywgJy1waCcsICc3LjAnLCAnLXRuJywgJzgnLCAnLW1hJywgJzIwMCcsICctbWV0YWxfYmluZGluZycsICctaW1hZScsICc8aW5maWxlLm1hZT4nLCAnLW9tYWUnLCAnPG91dGZpbGUubWFlPic=

> <r_lp_tautomer_probability>
1

> <r_epik_Ionization_Penalty>
0.000466083

> <r_epik_Ionization_Penalty_Charging>
0

> <r_epik_Ionization_Penalty_Neutral>
0.000466083

> <r_epik_State_Penalty>
0.000259726

> <r_epik_Charging_Adjusted_Penalty>
0.000259726

> <i_epik_Tot_Q>
0

> <i_epik_Tot_abs_Q>
0

> <r_epik_Metal_State_Penalty>
-0

> <b_epik_Metal_Only>
0

> <s_lp_Force_Field>
OPLS_2005

> <r_lp_Energy>
12.0364

> <b_lp_Chiralities_Consistent>
1

> <s_lp_Variant>
AV-unprocessed.smi:2495-2

> <Gold.Version>
5.8.1

> <Gold.Id.Protein>
6NUR|6NUR_protein|mol2

> <Gold.PLP.Fitness>
40.4699

> <Gold.PLP.PLP>
-37.5224

> <Gold.PLP.part.hbond>
-1.0000

> <Gold.PLP.part.metal>
0.0000

> <Gold.PLP.part.buried>
-3.8223

> <Gold.PLP.part.nonpolar>
-31.8611

> <Gold.PLP.part.repulsive>
0.4273

> <Gold.PLP.ligand.clash>
0.0000

> <Gold.PLP.ligand.torsion>
0.2002

> <Gold.PLP.Chemscore.Hbond>
1.0000

> <Gold.PLP.Chemscore.CHOScore>
0.0000

> <Gold.PLP.Chemscore.Metal>
0.0000

> <Gold.Chemscore.Hbonds>
donor molecule, donor type, donor heavy atom, donor atom, acceptor molecule, acceptor atom, score
      L1  H     2    21       P1  8028  1.00

> <Gold.PLP.Chemscore.Internal.Correction>
0.3480

> <Gold.Rescore>
     Score         DG    S(hbond)    S(metal)    S(lipo)     H(rot)  DE(clash)    DE(int)     intcor
     13.17     -13.40       0.99        0.00      69.41       1.37       0.05       0.18       ----

> <Gold.Chemscore.Fitness>
13.1714

> <Gold.Chemscore.DG>
-13.3983

> <Gold.Chemscore.ZeroCoef>
-5.4800

> <Gold.Chemscore.Hbond>
0.9900

> <Gold.Chemscore.Metal>
0.0000

> <Gold.Chemscore.Lipo>
69.4057

> <Gold.Chemscore.Internal_Hbond>
0.0000

> <Gold.Chemscore.DEClash>
0.0491

> <Gold.Chemscore.DEInternal>
0.1778

> <Gold.Chemscore.Rot>
1.3706

> <Gold.Chemscore.Internal.Correction>
   9.000000E+99

> <Gold.Chemscore.Hbonds>
donor molecule, donor type, donor heavy atom, donor atom, acceptor molecule, acceptor atom, score
      L1  H     2    21       P1  8028  0.96

> <Gold.Chemscore.Hbond.Weighted>
-3.3066

> <Gold.Chemscore.Metal.Weighted>
-0.0000

> <Gold.Chemscore.Lipo.Weighted>
-8.1205

> <Gold.Chemscore.Internal_Hbond.Weighted>
0.0000

> <Gold.Chemscore.DEClash.Weighted>
0.0491

> <Gold.Chemscore.DEInternal.Weighted>
0.1778

> <Gold.Chemscore.Rot.Weighted>
3.5087

> <Gold.Chemscore.Internal.Correction.Weighted>
   9.000000E+99

> <Gold.Protein.RotatedTorsions>
[ 6907 6896 6895 6894 ] final  -53.97 input  -60.11 | X-H torsion
[ 7974 7965 7964 7962 ] final   37.43 input  175.53 | X-H torsion
[ 8008 7997 7996 7995 ] final -104.37 input   59.86 | X-H torsion
[ 10167 10162 10161 10158 ] final   25.03 input  -65.29 | X-H torsion
[ 10718 10713 10712 10709 ] final   44.44 input   66.30 | X-H torsion
[ 10763 10752 10751 10750 ] final  -79.17 input  -60.55 | X-H torsion
[ 11005 11000 10999 10996 ] final  -42.50 input  -57.11 | X-H torsion

> <Gold.Protein.ActiveResidues>
 VAL166  LYS551  ARG553  GLY616  TRP617  ASP618  TYR619  PRO620  LYS621  CYS622 
 ASP623  PHE694  ASN695  SER759  ASP760  ASP761  ALA762  ILE779  LEU786  VAL792 
 PHE793  MET794  SER795  GLU796  ALA797  LYS798  CYS799  TRP800  GLU811  SER814 

> <Gold.Protein.RotatedAtoms>
  150.8379  134.7659  159.6907 H   0  0  0  0  0  0  0  0  0  0  0  0  # atno 6907 bound_to 6896
  152.4472  134.5466  159.9864 H   0  0  0  0  0  0  0  0  0  0  0  0  # atno 6908 bound_to 6896
  151.5613  133.3365  159.3007 H   0  0  0  0  0  0  0  0  0  0  0  0  # atno 6909 bound_to 6896
  146.1138  139.5895  142.9335 H   0  0  0  0  0  0  0  0  0  0  0  0  # atno 7974 bound_to 7965
  154.8843  140.0418  157.1801 H   0  0  0  0  0  0  0  0  0  0  0  0  # atno 8008 bound_to 7997
  154.8607  140.2943  155.5520 H   0  0  0  0  0  0  0  0  0  0  0  0  # atno 8009 bound_to 7997
  156.2998  140.2447  156.3580 H   0  0  0  0  0  0  0  0  0  0  0  0  # atno 8010 bound_to 7997
  140.5140  144.0114  150.6385 H   0  0  0  0  0  0  0  0  0  0  0  0  # atno 10167 bound_to 10162
  157.4268  130.8001  149.7566 H   0  0  0  0  0  0  0  0  0  0  0  0  # atno 10718 bound_to 10713
  154.5352  135.5705  153.6792 H   0  0  0  0  0  0  0  0  0  0  0  0  # atno 10763 bound_to 10752
  152.9949  135.6214  154.2575 H   0  0  0  0  0  0  0  0  0  0  0  0  # atno 10764 bound_to 10752
  154.2504  135.2859  155.2798 H   0  0  0  0  0  0  0  0  0  0  0  0  # atno 10765 bound_to 10752
  141.0320  133.6816  156.2603 H   0  0  0  0  0  0  0  0  0  0  0  0  # atno 11005 bound_to 11000
  145.5609  141.0404  143.2227 LP  0  0  0  0  0  0  0  0  0  0  0  0  # atno 17320 bound_to 7965
  144.7535  139.7134  143.7263 LP  0  0  0  0  0  0  0  0  0  0  0  0  # atno 17321 bound_to 7965
  140.3444  143.3000  152.0554 LP  0  0  0  0  0  0  0  0  0  0  0  0  # atno 17342 bound_to 10162
  139.4904  144.6419  151.6859 LP  0  0  0  0  0  0  0  0  0  0  0  0  # atno 17343 bound_to 10162
  155.9899  130.3948  150.3051 LP  0  0  0  0  0  0  0  0  0  0  0  0  # atno 17370 bound_to 10713
  157.1204  131.0245  151.3011 LP  0  0  0  0  0  0  0  0  0  0  0  0  # atno 17371 bound_to 10713
  140.6390  134.5185  157.5567 LP  0  0  0  0  0  0  0  0  0  0  0  0  # atno 17394 bound_to 11000
  139.9214  134.8141  156.1200 LP  0  0  0  0  0  0  0  0  0  0  0  0  # atno 17395 bound_to 11000

$$$$
