AV-unprocessed.smi:2069|AV-procd|sdf|8433|dock3
  -GOLD-   2272011133D 1   1.00000     0.00000
 Structure written by MMmdl.
 39 40  0  0  0  0  0  0  0  0  2 V2000
  152.8790  144.1020  161.3392 C   0  0  0  0  0  0  0  0  0  0  0  0
  152.3530  143.5551  160.0561 C   0  0  0  0  0  0  0  0  0  0  0  0
  152.8336  142.4410  159.4908 N   0  0  0  0  0  0  0  0  0  0  0  0
  152.1847  142.1313  158.3039 N   0  0  0  0  0  0  0  0  0  0  0  0
  151.2298  143.0238  158.0085 C   0  0  0  0  0  0  0  0  0  0  0  0
  150.4095  142.9475  156.8517 N   0  0  0  0  0  0  0  0  0  0  0  0
  150.1033  141.8621  156.1194 C   0  0  0  0  0  0  0  0  0  0  0  0
  150.5125  140.7206  156.3322 O   0  0  0  0  0  0  0  0  0  0  0  0
  149.2726  142.1727  155.1128 N   0  0  0  0  0  0  0  0  0  0  0  0
  148.7502  141.2292  154.1261 C   0  0  0  0  0  0  0  0  0  0  0  0
  147.3095  141.5670  153.6569 C   0  0  2  0  0  0  0  0  0  0  0  0
  146.5237  142.3028  154.7708 C   0  0  0  0  0  0  0  0  0  0  0  0
  146.6239  140.3242  153.1688 N   0  3  0  0  0  0  0  0  0  0  0  0
  147.2190  139.6907  151.9590 C   0  0  0  0  0  0  0  0  0  0  0  0
  146.4165  138.4505  151.5285 C   0  0  0  0  0  0  0  0  0  0  0  0
  146.3427  137.5246  152.6019 O   0  0  0  0  0  0  0  0  0  0  0  0
  145.6753  138.0827  153.7236 C   0  0  0  0  0  0  0  0  0  0  0  0
  146.4645  139.2984  154.2360 C   0  0  0  0  0  0  0  0  0  0  0  0
  151.0446  144.3277  159.1690 S   0  0  0  0  0  0  0  0  0  0  0  0
  153.7852  143.5751  161.6395 H   0  0  0  0  0  0  0  0  0  0  0  0
  152.1322  143.9897  162.1252 H   0  0  0  0  0  0  0  0  0  0  0  0
  153.1130  145.1605  161.2260 H   0  0  0  0  0  0  0  0  0  0  0  0
  150.0010  143.8210  156.5541 H   0  0  0  0  0  0  0  0  0  0  0  0
  148.9873  143.1363  155.0148 H   0  0  0  0  0  0  0  0  0  0  0  0
  149.4510  141.2590  153.2943 H   0  0  0  0  0  0  0  0  0  0  0  0
  148.7865  140.2071  154.5072 H   0  0  0  0  0  0  0  0  0  0  0  0
  147.3751  142.2597  152.8162 H   0  0  0  0  0  0  0  0  0  0  0  0
  147.0379  143.2044  155.1011 H   0  0  0  0  0  0  0  0  0  0  0  0
  146.3827  141.6672  155.6457 H   0  0  0  0  0  0  0  0  0  0  0  0
  145.5456  142.6426  154.4308 H   0  0  0  0  0  0  0  0  0  0  0  0
  147.2189  140.3821  151.1170 H   0  0  0  0  0  0  0  0  0  0  0  0
  148.2554  139.4155  152.1608 H   0  0  0  0  0  0  0  0  0  0  0  0
  145.4131  138.7301  151.2031 H   0  0  0  0  0  0  0  0  0  0  0  0
  146.9009  137.9673  150.6797 H   0  0  0  0  0  0  0  0  0  0  0  0
  144.6542  138.3615  153.4582 H   0  0  0  0  0  0  0  0  0  0  0  0
  145.6056  137.3247  154.5039 H   0  0  0  0  0  0  0  0  0  0  0  0
  147.4483  138.9780  154.5829 H   0  0  0  0  0  0  0  0  0  0  0  0
  145.9427  139.7037  155.1004 H   0  0  0  0  0  0  0  0  0  0  0  0
  145.6941  140.6092  152.8952 H   0  0  0  0  0  0  0  0  0  0  0  0
  1  2  1  0  0  0  0
  1 20  1  0  0  0  0
  1 21  1  0  0  0  0
  1 22  1  0  0  0  0
  2 19  1  0  0  0  0
  2  3  2  0  0  0  0
  3  4  1  0  0  0  0
  4  5  2  0  0  0  0
  5  6  1  0  0  0  0
  5 19  1  0  0  0  0
  6  7  1  0  0  0  0
  6 23  1  0  0  0  0
  7  8  2  0  0  0  0
  7  9  1  0  0  0  0
  9 10  1  0  0  0  0
  9 24  1  0  0  0  0
 10 11  1  0  0  0  0
 10 25  1  0  0  0  0
 10 26  1  0  0  0  0
 11 12  1  0  0  0  0
 11 13  1  0  0  0  0
 11 27  1  0  0  0  0
 12 28  1  0  0  0  0
 12 29  1  0  0  0  0
 12 30  1  0  0  0  0
 13 18  1  0  0  0  0
 13 14  1  0  0  0  0
 13 39  1  0  0  0  0
 14 15  1  0  0  0  0
 14 31  1  0  0  0  0
 14 32  1  0  0  0  0
 15 16  1  0  0  0  0
 15 33  1  0  0  0  0
 15 34  1  0  0  0  0
 16 17  1  0  0  0  0
 17 18  1  0  0  0  0
 17 35  1  0  0  0  0
 17 36  1  0  0  0  0
 18 37  1  0  0  0  0
 18 38  1  0  0  0  0
M  CHG  1  13   1
M  END
> <s_m_source_file>
AV-unprocessed.smi

> <i_m_source_file_index>
2069

> <i_lp_mmshare_version>
43012

> <i_f3d_flags>
0

> <s_epik_input>
W0NIM11jMW5uYyhzMSlbTkhdQyg9TylbTkhdW0NIMl1bQ0BIXShbQ0gzXSlOMltDSDJdW0NIMl1PW0NIMl1bQ0gyXTI=

> <s_epik_cmdline>
J2VwaWtfcHl0aG9uJywgJy1waCcsICc3LjAnLCAnLXRuJywgJzgnLCAnLW1hJywgJzIwMCcsICctbWV0YWxfYmluZGluZycsICctaW1hZScsICc8aW5maWxlLm1hZT4nLCAnLW9tYWUnLCAnPG91dGZpbGUubWFlPic=

> <r_lp_tautomer_probability>
1

> <r_epik_Ionization_Penalty>
0.70016

> <r_epik_Ionization_Penalty_Charging>
0.695697

> <r_epik_Ionization_Penalty_Neutral>
0.00446266

> <r_epik_State_Penalty>
0.717972

> <r_epik_Charging_Adjusted_Penalty>
1.41367

> <i_epik_Tot_Q>
1

> <i_epik_Tot_abs_Q>
1

> <r_epik_Metal_State_Penalty>
1.06969

> <b_epik_Metal_Only>
0

> <s_lp_Force_Field>
OPLS_2005

> <r_lp_Energy>
19.5762

> <b_lp_Chiralities_Consistent>
1

> <s_lp_Variant>
AV-unprocessed.smi:2069-3

> <Gold.Version>
5.8.1

> <Gold.Id.Protein>
6NUR|6NUR_protein|mol2

> <Gold.PLP.Fitness>
44.0087

> <Gold.PLP.PLP>
-33.2906

> <Gold.PLP.part.hbond>
-3.0000

> <Gold.PLP.part.metal>
0.0000

> <Gold.PLP.part.buried>
-1.7755

> <Gold.PLP.part.nonpolar>
-29.7994

> <Gold.PLP.part.repulsive>
0.5669

> <Gold.PLP.ligand.clash>
0.0000

> <Gold.PLP.ligand.torsion>
0.6704

> <Gold.PLP.Chemscore.Hbond>
4.0000

> <Gold.PLP.Chemscore.CHOScore>
0.0000

> <Gold.PLP.Chemscore.Metal>
0.0000

> <Gold.Chemscore.Hbonds>
donor molecule, donor type, donor heavy atom, donor atom, acceptor molecule, acceptor atom, score
      L1  H     6    23       P1  8028  1.00
      L1  H     9    24       P1  8028  1.00
      L1  H    13    39       P1 10175  1.89

> <Gold.PLP.Chemscore.Internal.Correction>
0.0589

> <Gold.Rescore>
     Score         DG    S(hbond)    S(metal)    S(lipo)     H(rot)  DE(clash)    DE(int)     intcor
     17.37     -19.37       2.94        0.00      70.82       1.65       0.17       1.83       ----

> <Gold.Chemscore.Fitness>
17.3707

> <Gold.Chemscore.DG>
-19.3737

> <Gold.Chemscore.ZeroCoef>
-5.4800

> <Gold.Chemscore.Hbond>
2.9419

> <Gold.Chemscore.Metal>
0.0000

> <Gold.Chemscore.Lipo>
70.8168

> <Gold.Chemscore.Internal_Hbond>
0.0000

> <Gold.Chemscore.DEClash>
0.1702

> <Gold.Chemscore.DEInternal>
1.8327

> <Gold.Chemscore.Rot>
1.6476

> <Gold.Chemscore.Internal.Correction>
   9.000000E+99

> <Gold.Chemscore.Hbonds>
donor molecule, donor type, donor heavy atom, donor atom, acceptor molecule, acceptor atom, score
      L1  H     6    23       P1  8028  0.97
      L1  H     9    24       P1  8028  0.95
      L1  H    13    39       P1 10175  0.63

> <Gold.Chemscore.Hbond.Weighted>
-9.8260

> <Gold.Chemscore.Metal.Weighted>
-0.0000

> <Gold.Chemscore.Lipo.Weighted>
-8.2856

> <Gold.Chemscore.Internal_Hbond.Weighted>
0.0000

> <Gold.Chemscore.DEClash.Weighted>
0.1702

> <Gold.Chemscore.DEInternal.Weighted>
1.8327

> <Gold.Chemscore.Rot.Weighted>
4.2179

> <Gold.Chemscore.Internal.Correction.Weighted>
   9.000000E+99

> <Gold.Protein.RotatedTorsions>
[ 6907 6896 6895 6894 ] final -163.81 input  -60.11 | X-H torsion
[ 7974 7965 7964 7962 ] final  106.04 input  175.53 | X-H torsion
[ 8008 7997 7996 7995 ] final  121.41 input   59.86 | X-H torsion
[ 10167 10162 10161 10158 ] final -159.47 input  -65.29 | X-H torsion
[ 10718 10713 10712 10709 ] final  -14.10 input   66.30 | X-H torsion
[ 10763 10752 10751 10750 ] final  -94.76 input  -60.55 | X-H torsion
[ 11005 11000 10999 10996 ] final -177.24 input  -57.11 | X-H torsion

> <Gold.Protein.ActiveResidues>
 VAL166  LYS551  ARG553  GLY616  TRP617  ASP618  TYR619  PRO620  LYS621  CYS622 
 ASP623  PHE694  ASN695  SER759  ASP760  ASP761  ALA762  ILE779  LEU786  VAL792 
 PHE793  MET794  SER795  GLU796  ALA797  LYS798  CYS799  TRP800  GLU811  SER814 

> <Gold.Protein.RotatedAtoms>
  151.4019  133.3755  159.2732 H   0  0  0  0  0  0  0  0  0  0  0  0  # atno 6907 bound_to 6896
  150.9427  134.8836  159.7633 H   0  0  0  0  0  0  0  0  0  0  0  0  # atno 6908 bound_to 6896
  152.5078  134.3970  159.9455 H   0  0  0  0  0  0  0  0  0  0  0  0  # atno 6909 bound_to 6896
  145.3118  139.2538  143.3759 H   0  0  0  0  0  0  0  0  0  0  0  0  # atno 7974 bound_to 7965
  156.2685  140.2809  156.1303 H   0  0  0  0  0  0  0  0  0  0  0  0  # atno 8008 bound_to 7997
  155.1061  140.0390  157.2728 H   0  0  0  0  0  0  0  0  0  0  0  0  # atno 8009 bound_to 7997
  154.6778  140.2602  155.6946 H   0  0  0  0  0  0  0  0  0  0  0  0  # atno 8010 bound_to 7997
  139.6613  143.9908  152.2227 H   0  0  0  0  0  0  0  0  0  0  0  0  # atno 10167 bound_to 10162
  156.6208  130.4875  149.6165 H   0  0  0  0  0  0  0  0  0  0  0  0  # atno 10718 bound_to 10713
  154.7085  135.5146  153.8631 H   0  0  0  0  0  0  0  0  0  0  0  0  # atno 10763 bound_to 10752
  153.0761  135.6616  154.0152 H   0  0  0  0  0  0  0  0  0  0  0  0  # atno 10764 bound_to 10752
  153.9999  135.3012  155.3383 H   0  0  0  0  0  0  0  0  0  0  0  0  # atno 10765 bound_to 10752
  140.4431  134.6413  157.4767 H   0  0  0  0  0  0  0  0  0  0  0  0  # atno 11005 bound_to 11000
  146.3115  140.3656  142.8669 LP  0  0  0  0  0  0  0  0  0  0  0  0  # atno 17320 bound_to 7965
  144.9010  140.7642  143.5867 LP  0  0  0  0  0  0  0  0  0  0  0  0  # atno 17321 bound_to 7965
  139.9647  144.6534  150.8045 LP  0  0  0  0  0  0  0  0  0  0  0  0  # atno 17342 bound_to 10162
  140.7581  143.3100  151.2868 LP  0  0  0  0  0  0  0  0  0  0  0  0  # atno 17343 bound_to 10162
  156.2313  130.6796  151.1466 LP  0  0  0  0  0  0  0  0  0  0  0  0  # atno 17370 bound_to 10713
  157.7228  131.0670  150.6063 LP  0  0  0  0  0  0  0  0  0  0  0  0  # atno 17371 bound_to 10713
  140.0057  134.6768  155.9460 LP  0  0  0  0  0  0  0  0  0  0  0  0  # atno 17394 bound_to 11000
  141.1697  133.6537  156.4606 LP  0  0  0  0  0  0  0  0  0  0  0  0  # atno 17395 bound_to 11000

$$$$
