AV-unprocessed.smi:3331|AV-procd|sdf|12822|dock8
  -GOLD-   2272019193D 1   1.00000     0.00000
 Structure written by MMmdl.
 47 48  0  0  0  0  0  0  0  0  2 V2000
  150.5876  137.3339  154.7292 C   0  0  0  0  0  0  0  0  0  0  0  0
  149.9042  138.6536  155.1132 C   0  0  1  0  0  0  0  0  0  0  0  0
  150.9351  139.7903  155.3031 C   0  0  0  0  0  0  0  0  0  0  0  0
  150.2771  141.1665  155.5537 C   0  0  2  0  0  0  0  0  0  0  0  0
  149.7558  141.3083  156.9953 C   0  0  0  0  0  0  0  0  0  0  0  0
  149.1852  141.4255  154.4924 C   0  0  0  0  0  0  0  0  0  0  0  0
  148.2136  140.3225  154.5043 N   0  0  0  0  0  0  0  0  0  0  0  0
  146.9311  140.3840  154.9441 C   0  0  0  0  0  0  0  0  0  0  0  0
  146.4441  141.4245  155.3911 O   0  0  0  0  0  0  0  0  0  0  0  0
  146.0321  139.1295  154.8953 C   0  0  1  0  0  0  0  0  0  0  0  0
  144.7031  139.4041  155.6172 C   0  0  0  0  0  0  0  0  0  0  0  0
  145.7598  138.7038  153.5022 N   0  3  0  0  0  0  0  0  0  0  0  0
  145.2919  137.3085  153.3558 C   0  0  0  0  0  0  0  0  0  0  0  0
  145.5793  136.7767  151.9451 C   0  0  0  0  0  0  0  0  0  0  0  0
  144.9119  135.5127  151.7015 N   0  0  0  0  0  0  0  0  0  0  0  0
  144.9150  134.7476  150.5540 C   0  0  0  0  0  0  0  0  0  0  0  0
  144.1430  133.6478  150.7976 C   0  0  0  0  0  0  0  0  0  0  0  0
  143.7022  133.8337  152.1378 C   0  0  0  0  0  0  0  0  0  0  0  0
  144.1629  134.9519  152.6756 N   0  0  0  0  0  0  0  0  0  0  0  0
  148.8386  139.0642  154.0749 C   0  0  0  0  0  0  0  0  0  0  0  0
  151.1090  137.4192  153.7754 H   0  0  0  0  0  0  0  0  0  0  0  0
  149.8600  136.5267  154.6399 H   0  0  0  0  0  0  0  0  0  0  0  0
  151.3174  137.0367  155.4829 H   0  0  0  0  0  0  0  0  0  0  0  0
  149.3989  138.4905  156.0661 H   0  0  0  0  0  0  0  0  0  0  0  0
  151.6249  139.5469  156.1122 H   0  0  0  0  0  0  0  0  0  0  0  0
  151.5459  139.8609  154.4018 H   0  0  0  0  0  0  0  0  0  0  0  0
  151.0488  141.9268  155.4259 H   0  0  0  0  0  0  0  0  0  0  0  0
  148.9816  140.5765  157.2253 H   0  0  0  0  0  0  0  0  0  0  0  0
  149.3345  142.2997  157.1627 H   0  0  0  0  0  0  0  0  0  0  0  0
  150.5618  141.1710  157.7167 H   0  0  0  0  0  0  0  0  0  0  0  0
  148.7443  142.4111  154.6260 H   0  0  0  0  0  0  0  0  0  0  0  0
  149.6466  141.4676  153.5043 H   0  0  0  0  0  0  0  0  0  0  0  0
  146.5228  138.2842  155.3749 H   0  0  0  0  0  0  0  0  0  0  0  0
  144.8624  139.6939  156.6563 H   0  0  0  0  0  0  0  0  0  0  0  0
  144.0701  138.5161  155.6217 H   0  0  0  0  0  0  0  0  0  0  0  0
  144.1437  140.2059  155.1334 H   0  0  0  0  0  0  0  0  0  0  0  0
  145.0429  139.3069  153.1253 H   0  0  0  0  0  0  0  0  0  0  0  0
  145.7844  136.6739  154.0937 H   0  0  0  0  0  0  0  0  0  0  0  0
  144.2213  137.2670  153.5612 H   0  0  0  0  0  0  0  0  0  0  0  0
  145.2529  137.4932  151.1897 H   0  0  0  0  0  0  0  0  0  0  0  0
  146.6518  136.6338  151.8057 H   0  0  0  0  0  0  0  0  0  0  0  0
  145.4597  135.0443  149.6697 H   0  0  0  0  0  0  0  0  0  0  0  0
  143.9248  132.8350  150.1209 H   0  0  0  0  0  0  0  0  0  0  0  0
  143.0653  133.1939  152.7306 H   0  0  0  0  0  0  0  0  0  0  0  0
  149.2982  139.2036  153.0950 H   0  0  0  0  0  0  0  0  0  0  0  0
  148.1165  138.2567  153.9458 H   0  0  0  0  0  0  0  0  0  0  0  0
  146.6038  138.8277  152.9609 H   0  0  0  0  0  0  0  0  0  0  0  0
  1  2  1  0  0  0  0
  1 21  1  0  0  0  0
  1 22  1  0  0  0  0
  1 23  1  0  0  0  0
  2 20  1  0  0  0  0
  2  3  1  0  0  0  0
  2 24  1  0  0  0  0
  3  4  1  0  0  0  0
  3 25  1  0  0  0  0
  3 26  1  0  0  0  0
  4  5  1  0  0  0  0
  4  6  1  0  0  0  0
  4 27  1  0  0  0  0
  5 28  1  0  0  0  0
  5 29  1  0  0  0  0
  5 30  1  0  0  0  0
  6  7  1  0  0  0  0
  6 31  1  0  0  0  0
  6 32  1  0  0  0  0
  7  8  1  0  0  0  0
  7 20  1  0  0  0  0
  8  9  2  0  0  0  0
  8 10  1  0  0  0  0
 10 11  1  0  0  0  0
 10 12  1  0  0  0  0
 10 33  1  0  0  0  0
 11 34  1  0  0  0  0
 11 35  1  0  0  0  0
 11 36  1  0  0  0  0
 12 13  1  0  0  0  0
 12 37  1  0  0  0  0
 12 47  1  0  0  0  0
 13 14  1  0  0  0  0
 13 38  1  0  0  0  0
 13 39  1  0  0  0  0
 14 15  1  0  0  0  0
 14 40  1  0  0  0  0
 14 41  1  0  0  0  0
 15 19  1  0  0  0  0
 15 16  1  0  0  0  0
 16 17  2  0  0  0  0
 16 42  1  0  0  0  0
 17 18  1  0  0  0  0
 17 43  1  0  0  0  0
 18 19  2  0  0  0  0
 18 44  1  0  0  0  0
 20 45  1  0  0  0  0
 20 46  1  0  0  0  0
M  CHG  1  12   1
M  END
> <s_m_source_file>
AV-unprocessed.smi

> <i_m_source_file_index>
3331

> <i_lp_mmshare_version>
43012

> <i_f3d_flags>
0

> <s_epik_input>
W0NIM11bQ0BASF0xW0NIMl1bQ0BASF0oW0NIM10pW0NIMl1OKFtDSDJdMSlDKD1PKVtDQEhdKFtDSDNdKVtOSF1bQ0gyXVtDSDJdbjJbY0hdW2NIXVtjSF1uMg==

> <s_epik_cmdline>
J2VwaWtfcHl0aG9uJywgJy1waCcsICc3LjAnLCAnLXRuJywgJzgnLCAnLW1hJywgJzIwMCcsICctbWV0YWxfYmluZGluZycsICctaW1hZScsICc8aW5maWxlLm1hZT4nLCAnLW9tYWUnLCAnPG91dGZpbGUubWFlPic=

> <r_lp_tautomer_probability>
1

> <r_epik_Ionization_Penalty>
0.189706

> <r_epik_Ionization_Penalty_Charging>
0.189703

> <r_epik_Ionization_Penalty_Neutral>
2.45875e-06

> <r_epik_State_Penalty>
0.179341

> <r_epik_Charging_Adjusted_Penalty>
0.369044

> <i_epik_Tot_Q>
1

> <i_epik_Tot_abs_Q>
1

> <r_epik_Metal_State_Penalty>
0.179578

> <b_epik_Metal_Only>
0

> <s_lp_Force_Field>
OPLS_2005

> <r_lp_Energy>
28.0969

> <b_lp_Chiralities_Consistent>
1

> <s_lp_Variant>
AV-unprocessed.smi:3331-6

> <Gold.Version>
5.8.1

> <Gold.Id.Protein>
6NUR|6NUR_protein|mol2

> <Gold.PLP.Fitness>
42.9364

> <Gold.PLP.PLP>
-31.6770

> <Gold.PLP.part.hbond>
-1.0000

> <Gold.PLP.part.metal>
0.0000

> <Gold.PLP.part.buried>
-2.0085

> <Gold.PLP.part.nonpolar>
-28.8494

> <Gold.PLP.part.repulsive>
0.1840

> <Gold.PLP.ligand.clash>
0.0000

> <Gold.PLP.ligand.torsion>
0.3993

> <Gold.PLP.Chemscore.Hbond>
2.0000

> <Gold.PLP.Chemscore.CHOScore>
2.0000

> <Gold.PLP.Chemscore.Metal>
0.0000

> <Gold.Chemscore.Hbonds>
donor molecule, donor type, donor heavy atom, donor atom, acceptor molecule, acceptor atom, score
      L1  H    12    37       P1 10175  2.00
      L1  C    16    42       P1  7921  1.00
      L1  C    18    44       P1 10957  1.00

> <Gold.PLP.Chemscore.Internal.Correction>
0.0579

> <Gold.Rescore>
     Score         DG    S(hbond)    S(metal)    S(lipo)     H(rot)  DE(clash)    DE(int)     intcor
     12.65     -13.12       1.00        0.00      74.68       1.73       0.14       0.33       ----

> <Gold.Chemscore.Fitness>
12.6534

> <Gold.Chemscore.DG>
-13.1247

> <Gold.Chemscore.ZeroCoef>
-5.4800

> <Gold.Chemscore.Hbond>
0.9953

> <Gold.Chemscore.Metal>
0.0000

> <Gold.Chemscore.Lipo>
74.6779

> <Gold.Chemscore.Internal_Hbond>
0.0000

> <Gold.Chemscore.DEClash>
0.1437

> <Gold.Chemscore.DEInternal>
0.3275

> <Gold.Chemscore.Rot>
1.7254

> <Gold.Chemscore.Internal.Correction>
   9.000000E+99

> <Gold.Chemscore.Hbonds>
donor molecule, donor type, donor heavy atom, donor atom, acceptor molecule, acceptor atom, score
      L1  H    12    37       P1 10175  1.00

> <Gold.Chemscore.Hbond.Weighted>
-3.3244

> <Gold.Chemscore.Metal.Weighted>
-0.0000

> <Gold.Chemscore.Lipo.Weighted>
-8.7373

> <Gold.Chemscore.Internal_Hbond.Weighted>
0.0000

> <Gold.Chemscore.DEClash.Weighted>
0.1437

> <Gold.Chemscore.DEInternal.Weighted>
0.3275

> <Gold.Chemscore.Rot.Weighted>
4.4170

> <Gold.Chemscore.Internal.Correction.Weighted>
   9.000000E+99

> <Gold.Protein.RotatedTorsions>
[ 6907 6896 6895 6894 ] final -170.46 input  -60.11 | X-H torsion
[ 7974 7965 7964 7962 ] final  156.76 input  175.53 | X-H torsion
[ 8008 7997 7996 7995 ] final  -60.37 input   59.86 | X-H torsion
[ 10167 10162 10161 10158 ] final -131.14 input  -65.29 | X-H torsion
[ 10718 10713 10712 10709 ] final -165.22 input   66.30 | X-H torsion
[ 10763 10752 10751 10750 ] final  137.31 input  -60.55 | X-H torsion
[ 11005 11000 10999 10996 ] final -161.85 input  -57.11 | X-H torsion

> <Gold.Protein.ActiveResidues>
 VAL166  LYS551  ARG553  GLY616  TRP617  ASP618  TYR619  PRO620  LYS621  CYS622 
 ASP623  PHE694  ASN695  SER759  ASP760  ASP761  ALA762  ILE779  LEU786  VAL792 
 PHE793  MET794  SER795  GLU796  ALA797  LYS798  CYS799  TRP800  GLU811  SER814 

> <Gold.Protein.RotatedAtoms>
  151.5081  133.3490  159.2879 H   0  0  0  0  0  0  0  0  0  0  0  0  # atno 6907 bound_to 6896
  150.8730  134.8109  159.7180 H   0  0  0  0  0  0  0  0  0  0  0  0  # atno 6908 bound_to 6896
  152.4711  134.4968  159.9764 H   0  0  0  0  0  0  0  0  0  0  0  0  # atno 6909 bound_to 6896
  144.7944  139.7247  143.6208 H   0  0  0  0  0  0  0  0  0  0  0  0  # atno 7974 bound_to 7965
  154.4395  140.1041  156.6263 H   0  0  0  0  0  0  0  0  0  0  0  0  # atno 8008 bound_to 7997
  155.5653  140.3488  155.4483 H   0  0  0  0  0  0  0  0  0  0  0  0  # atno 8009 bound_to 7997
  156.0429  140.1286  157.0125 H   0  0  0  0  0  0  0  0  0  0  0  0  # atno 8010 bound_to 7997
  139.9220  143.6371  152.2551 H   0  0  0  0  0  0  0  0  0  0  0  0  # atno 10167 bound_to 10162
  156.6503  130.9005  151.3012 H   0  0  0  0  0  0  0  0  0  0  0  0  # atno 10718 bound_to 10713
  153.8709  135.3056  155.3442 H   0  0  0  0  0  0  0  0  0  0  0  0  # atno 10763 bound_to 10752
  154.7806  135.4837  153.9840 H   0  0  0  0  0  0  0  0  0  0  0  0  # atno 10764 bound_to 10752
  153.1407  135.6823  153.9128 H   0  0  0  0  0  0  0  0  0  0  0  0  # atno 10765 bound_to 10752
  140.6158  134.4802  157.5219 H   0  0  0  0  0  0  0  0  0  0  0  0  # atno 11005 bound_to 11000
  146.2207  139.5630  142.9620 LP  0  0  0  0  0  0  0  0  0  0  0  0  # atno 17320 bound_to 7965
  145.5712  141.0394  143.2173 LP  0  0  0  0  0  0  0  0  0  0  0  0  # atno 17321 bound_to 7965
  139.6853  144.7652  151.1534 LP  0  0  0  0  0  0  0  0  0  0  0  0  # atno 17342 bound_to 10162
  140.7660  143.5665  150.9042 LP  0  0  0  0  0  0  0  0  0  0  0  0  # atno 17343 bound_to 10162
  157.7143  130.9478  150.1198 LP  0  0  0  0  0  0  0  0  0  0  0  0  # atno 17370 bound_to 10713
  156.2089  130.3665  149.8695 LP  0  0  0  0  0  0  0  0  0  0  0  0  # atno 17371 bound_to 10713
  139.9173  134.8219  156.1323 LP  0  0  0  0  0  0  0  0  0  0  0  0  # atno 17394 bound_to 11000
  141.0777  133.6768  156.2270 LP  0  0  0  0  0  0  0  0  0  0  0  0  # atno 17395 bound_to 11000

$$$$
