AV-unprocessed.smi:196|AV-procd|sdf|1535|dock3
  -GOLD-   2262019393D 1   1.00000     0.00000
 Structure written by MMmdl.
 47 50  0  0  0  0  0  0  0  0  1 V2000
  151.0354  141.2211  156.6246 C   0  0  0  0  0  0  0  0  0  0  0  0
  151.3693  140.3349  155.4155 C   0  0  1  0  0  0  0  0  0  0  0  0
  152.4765  139.4842  155.7023 O   0  0  0  0  0  0  0  0  0  0  0  0
  152.3269  138.2373  155.0289 C   0  0  0  0  0  0  0  0  0  0  0  0
  151.0973  138.3933  154.1387 C   0  0  0  0  0  0  0  0  0  0  0  0
  150.2533  139.3999  154.9112 C   0  0  2  0  0  0  0  0  0  0  0  0
  149.4080  140.0827  154.0039 O   0  0  0  0  0  0  0  0  0  0  0  0
  149.3971  138.7696  156.0432 C   0  0  0  0  0  0  0  0  0  0  0  0
  148.4505  137.7676  155.5790 N   0  0  0  0  0  0  0  0  0  0  0  0
  148.4067  136.4404  155.9427 C   0  0  0  0  0  0  0  0  0  0  0  0
  147.4572  135.7409  155.3836 N   0  0  0  0  0  0  0  0  0  0  0  0
  146.8012  136.6531  154.5669 C   0  0  0  0  0  0  0  0  0  0  0  0
  145.6893  136.5722  153.6865 C   0  0  0  0  0  0  0  0  0  0  0  0
  144.9852  135.4270  153.5139 N   0  0  0  0  0  0  0  0  0  0  0  0
  145.7229  134.2914  152.9640 C   0  0  0  0  0  0  0  0  0  0  0  0
  145.1850  134.1030  151.5515 C   0  0  1  0  0  0  0  0  0  0  0  0
  145.3605  132.8635  151.0942 F   0  0  0  0  0  0  0  0  0  0  0  0
  143.7166  134.4628  151.7229 C   0  0  0  0  0  0  0  0  0  0  0  0
  143.7380  135.6102  152.7520 C   0  0  1  0  0  0  0  0  0  0  0  0
  142.4659  135.6109  153.6187 C   0  0  0  0  0  0  0  0  0  0  0  0
  142.1445  134.5028  154.2937 N   0  0  0  0  0  0  0  0  0  0  0  0
  141.7734  136.6241  153.6795 O   0  0  0  0  0  0  0  0  0  0  0  0
  145.3152  137.7051  153.0335 N   0  0  0  0  0  0  0  0  0  0  0  0
  145.9920  138.8418  153.2224 C   0  0  0  0  0  0  0  0  0  0  0  0
  147.0470  139.0638  154.0090 N   0  0  0  0  0  0  0  0  0  0  0  0
  147.4192  137.9305  154.6706 C   0  0  0  0  0  0  0  0  0  0  0  0
  145.6710  134.7902  150.8577 H   0  0  0  0  0  0  0  0  0  0  0  0
  143.7676  136.5574  152.2084 H   0  0  0  0  0  0  0  0  0  0  0  0
  150.1702  141.8518  156.4200 H   0  0  0  0  0  0  0  0  0  0  0  0
  151.8734  141.8760  156.8637 H   0  0  0  0  0  0  0  0  0  0  0  0
  150.8213  140.6292  157.5144 H   0  0  0  0  0  0  0  0  0  0  0  0
  151.6874  140.9788  154.5930 H   0  0  0  0  0  0  0  0  0  0  0  0
  153.2205  137.9841  154.4581 H   0  0  0  0  0  0  0  0  0  0  0  0
  152.1682  137.4551  155.7721 H   0  0  0  0  0  0  0  0  0  0  0  0
  151.4091  138.8189  153.1829 H   0  0  0  0  0  0  0  0  0  0  0  0
  150.6010  137.4483  153.9214 H   0  0  0  0  0  0  0  0  0  0  0  0
  149.5889  139.7674  153.1318 H   0  0  0  0  0  0  0  0  0  0  0  0
  150.0408  138.3056  156.7913 H   0  0  0  0  0  0  0  0  0  0  0  0
  148.8330  139.5421  156.5676 H   0  0  0  0  0  0  0  0  0  0  0  0
  149.1051  136.0055  156.6433 H   0  0  0  0  0  0  0  0  0  0  0  0
  146.8074  134.4130  152.9766 H   0  0  0  0  0  0  0  0  0  0  0  0
  145.4932  133.4187  153.5765 H   0  0  0  0  0  0  0  0  0  0  0  0
  143.2469  134.7518  150.7821 H   0  0  0  0  0  0  0  0  0  0  0  0
  143.1745  133.5986  152.1124 H   0  0  0  0  0  0  0  0  0  0  0  0
  141.3096  134.4846  154.8618 H   0  0  0  0  0  0  0  0  0  0  0  0
  142.7342  133.6859  154.2279 H   0  0  0  0  0  0  0  0  0  0  0  0
  145.6348  139.6963  152.6665 H   0  0  0  0  0  0  0  0  0  0  0  0
  1  2  1  0  0  0  0
  1 29  1  0  0  0  0
  1 30  1  0  0  0  0
  1 31  1  0  0  0  0
  2  6  1  0  0  0  0
  2  3  1  0  0  0  0
  2 32  1  0  0  0  0
  3  4  1  0  0  0  0
  4  5  1  0  0  0  0
  4 33  1  0  0  0  0
  4 34  1  0  0  0  0
  5  6  1  0  0  0  0
  5 35  1  0  0  0  0
  5 36  1  0  0  0  0
  6  7  1  0  0  0  0
  6  8  1  0  0  0  0
  7 37  1  0  0  0  0
  8  9  1  0  0  0  0
  8 38  1  0  0  0  0
  8 39  1  0  0  0  0
  9 26  1  0  0  0  0
  9 10  1  0  0  0  0
 10 11  2  0  0  0  0
 10 40  1  0  0  0  0
 11 12  1  0  0  0  0
 12 26  2  0  0  0  0
 12 13  1  0  0  0  0
 13 14  1  0  0  0  0
 13 23  2  0  0  0  0
 14 19  1  0  0  0  0
 14 15  1  0  0  0  0
 15 16  1  0  0  0  0
 15 41  1  0  0  0  0
 15 42  1  0  0  0  0
 16 27  1  0  0  0  0
 16 17  1  0  0  0  0
 16 18  1  0  0  0  0
 18 19  1  0  0  0  0
 18 43  1  0  0  0  0
 18 44  1  0  0  0  0
 19 28  1  0  0  0  0
 19 20  1  0  0  0  0
 20 21  1  0  0  0  0
 20 22  2  0  0  0  0
 21 45  1  0  0  0  0
 21 46  1  0  0  0  0
 23 24  1  0  0  0  0
 24 25  2  0  0  0  0
 24 47  1  0  0  0  0
 25 26  1  0  0  0  0
M  END
> <s_m_source_file>
AV-unprocessed.smi

> <i_m_source_file_index>
196

> <i_lp_mmshare_version>
43012

> <i_f3d_flags>
0

> <s_epik_input>
W0NIMl0xW0NIMl1PW0NAQEhdKFtDSDNdKVtDQEBdMShbT0hdKVtDSDJdbihbY0hdbjIpYyhjMjMpbltjSF1uYzNONFtDSDJdW0NASF0oRilbQ0gyXVtDQEhdNEMoPU8pW05IMl0=

> <s_epik_cmdline>
J2VwaWtfcHl0aG9uJywgJy1waCcsICc3LjAnLCAnLXRuJywgJzgnLCAnLW1hJywgJzIwMCcsICctbWV0YWxfYmluZGluZycsICctaW1hZScsICc8aW5maWxlLm1hZT4nLCAnLW9tYWUnLCAnPG91dGZpbGUubWFlPic=

> <r_lp_tautomer_probability>
1

> <r_epik_Ionization_Penalty>
0.000857933

> <r_epik_Ionization_Penalty_Charging>
0

> <r_epik_Ionization_Penalty_Neutral>
0.000857933

> <r_epik_State_Penalty>
0.000462053

> <r_epik_Charging_Adjusted_Penalty>
0.000462053

> <i_epik_Tot_Q>
0

> <i_epik_Tot_abs_Q>
0

> <r_epik_Metal_State_Penalty>
-0

> <b_epik_Metal_Only>
0

> <s_lp_Force_Field>
OPLS_2005

> <r_lp_Energy>
46.5275

> <b_lp_Chiralities_Consistent>
1

> <s_lp_Variant>
AV-unprocessed.smi:196-8

> <Gold.Version>
5.8.1

> <Gold.Id.Protein>
6NUR|6NUR_protein|mol2

> <Gold.PLP.Fitness>
43.5250

> <Gold.PLP.PLP>
-29.4351

> <Gold.PLP.part.hbond>
-4.5066

> <Gold.PLP.part.metal>
0.0000

> <Gold.PLP.part.buried>
-3.8241

> <Gold.PLP.part.nonpolar>
-22.3929

> <Gold.PLP.part.repulsive>
0.6248

> <Gold.PLP.ligand.clash>
0.0000

> <Gold.PLP.ligand.torsion>
0.1339

> <Gold.PLP.Chemscore.Hbond>
3.7520

> <Gold.PLP.Chemscore.CHOScore>
1.0000

> <Gold.PLP.Chemscore.Metal>
0.0000

> <Gold.Chemscore.Hbonds>
donor molecule, donor type, donor heavy atom, donor atom, acceptor molecule, acceptor atom, score
      L1  H     7    37       P1  7957  1.00
      L1  H    21    45       P1 11000  0.93
      L1  H    21    46       P1 10957  0.74
      P1  H  7997  8010       L1     3  0.96
      L1  C    24    47       P1 10175  1.00

> <Gold.PLP.Chemscore.Internal.Correction>
0.1017

> <Gold.Rescore>
     Score         DG    S(hbond)    S(metal)    S(lipo)     H(rot)  DE(clash)    DE(int)     intcor
     12.08     -15.53       3.40        0.00      55.33       3.04       0.79       2.66       ----

> <Gold.Chemscore.Fitness>
12.0831

> <Gold.Chemscore.DG>
-15.5282

> <Gold.Chemscore.ZeroCoef>
-5.4800

> <Gold.Chemscore.Hbond>
3.4014

> <Gold.Chemscore.Metal>
0.0000

> <Gold.Chemscore.Lipo>
55.3266

> <Gold.Chemscore.Internal_Hbond>
0.0000

> <Gold.Chemscore.DEClash>
0.7863

> <Gold.Chemscore.DEInternal>
2.6588

> <Gold.Chemscore.Rot>
3.0413

> <Gold.Chemscore.Internal.Correction>
   9.000000E+99

> <Gold.Chemscore.Hbonds>
donor molecule, donor type, donor heavy atom, donor atom, acceptor molecule, acceptor atom, score
      L1  H     7    37       P1  7957  0.92
      L1  H    21    45       P1 11000  0.81
      L1  H    21    46       P1 10957  0.71
      P1  H  7997  8010       L1     3  0.88

> <Gold.Chemscore.Hbond.Weighted>
-11.3606

> <Gold.Chemscore.Metal.Weighted>
-0.0000

> <Gold.Chemscore.Lipo.Weighted>
-6.4732

> <Gold.Chemscore.Internal_Hbond.Weighted>
0.0000

> <Gold.Chemscore.DEClash.Weighted>
0.7863

> <Gold.Chemscore.DEInternal.Weighted>
2.6588

> <Gold.Chemscore.Rot.Weighted>
7.7856

> <Gold.Chemscore.Internal.Correction.Weighted>
   9.000000E+99

> <Gold.Protein.RotatedTorsions>
[ 6907 6896 6895 6894 ] final  116.89 input  -60.11 | X-H torsion
[ 7974 7965 7964 7962 ] final    9.05 input  175.53 | X-H torsion
[ 8008 7997 7996 7995 ] final   88.91 input   59.86 | X-H torsion
[ 10167 10162 10161 10158 ] final   -3.16 input  -65.29 | X-H torsion
[ 10718 10713 10712 10709 ] final   75.66 input   66.30 | X-H torsion
[ 10763 10752 10751 10750 ] final -109.08 input  -60.55 | X-H torsion
[ 11005 11000 10999 10996 ] final  161.55 input  -57.11 | X-H torsion

> <Gold.Protein.ActiveResidues>
 VAL166  LYS551  ARG553  GLY616  TRP617  ASP618  TYR619  PRO620  LYS621  CYS622 
 ASP623  PHE694  ASN695  SER759  ASP760  ASP761  ALA762  ILE779  LEU786  VAL792 
 PHE793  MET794  SER795  GLU796  ALA797  LYS798  CYS799  TRP800  GLU811  SER814 

> <Gold.Protein.RotatedAtoms>
  152.4648  133.7900  159.6896 H   0  0  0  0  0  0  0  0  0  0  0  0  # atno 6907 bound_to 6896
  150.8608  133.7637  159.2999 H   0  0  0  0  0  0  0  0  0  0  0  0  # atno 6908 bound_to 6896
  151.5203  135.1070  159.9928 H   0  0  0  0  0  0  0  0  0  0  0  0  # atno 6909 bound_to 6896
  146.2408  139.9841  142.8433 H   0  0  0  0  0  0  0  0  0  0  0  0  # atno 7974 bound_to 7965
  155.9936  140.3366  155.6777 H   0  0  0  0  0  0  0  0  0  0  0  0  # atno 8008 bound_to 7997
  155.6387  140.0693  157.2643 H   0  0  0  0  0  0  0  0  0  0  0  0  # atno 8009 bound_to 7997
  154.4227  140.1746  156.1537 H   0  0  0  0  0  0  0  0  0  0  0  0  # atno 8010 bound_to 7997
  140.6879  143.6572  150.8298 H   0  0  0  0  0  0  0  0  0  0  0  0  # atno 10167 bound_to 10162
  157.6643  130.9737  150.1386 H   0  0  0  0  0  0  0  0  0  0  0  0  # atno 10718 bound_to 10713
  154.8173  135.4614  154.0678 H   0  0  0  0  0  0  0  0  0  0  0  0  # atno 10763 bound_to 10752
  153.2061  135.6875  153.8178 H   0  0  0  0  0  0  0  0  0  0  0  0  # atno 10764 bound_to 10752
  153.7645  135.3279  155.3319 H   0  0  0  0  0  0  0  0  0  0  0  0  # atno 10765 bound_to 10752
  140.2169  134.8225  157.3180 H   0  0  0  0  0  0  0  0  0  0  0  0  # atno 11005 bound_to 11000
  145.1564  140.9650  143.4403 LP  0  0  0  0  0  0  0  0  0  0  0  0  # atno 17320 bound_to 7965
  145.0157  139.3469  143.6097 LP  0  0  0  0  0  0  0  0  0  0  0  0  # atno 17321 bound_to 7965
  140.0281  143.5472  152.2772 LP  0  0  0  0  0  0  0  0  0  0  0  0  # atno 17342 bound_to 10162
  139.6255  144.7636  151.2648 LP  0  0  0  0  0  0  0  0  0  0  0  0  # atno 17343 bound_to 10162
  156.2214  130.3674  149.8551 LP  0  0  0  0  0  0  0  0  0  0  0  0  # atno 17370 bound_to 10713
  156.6403  130.8702  151.3512 LP  0  0  0  0  0  0  0  0  0  0  0  0  # atno 17371 bound_to 10713
  140.1890  134.4395  155.7726 LP  0  0  0  0  0  0  0  0  0  0  0  0  # atno 17394 bound_to 11000
  141.2224  133.7018  156.7996 LP  0  0  0  0  0  0  0  0  0  0  0  0  # atno 17395 bound_to 11000

$$$$
