AV-unprocessed.smi:1601|AV-procd|sdf|6432|dock4
  -GOLD-   22720 7 73D 1   1.00000     0.00000
 Structure written by MMmdl.
 41 42  0  0  0  0  0  0  0  0  1 V2000
  151.9891  144.3597  157.0151 C   0  0  0  0  0  0  0  0  0  0  0  0
  151.2120  143.1066  157.4936 C   0  0  1  0  0  0  0  0  0  0  0  0
  151.1189  142.0976  156.3116 C   0  0  0  0  0  0  0  0  0  0  0  0
  149.8685  142.1985  155.5641 N   0  0  0  0  0  0  0  0  0  0  0  0
  149.4806  141.3543  154.5947 C   0  0  0  0  0  0  0  0  0  0  0  0
  150.1634  140.3969  154.2281 O   0  0  0  0  0  0  0  0  0  0  0  0
  148.1085  141.6331  153.9583 C   0  0  2  0  0  0  0  0  0  0  0  0
  147.1374  142.3524  154.9162 C   0  0  0  0  0  0  0  0  0  0  0  0
  147.5323  140.4072  153.4175 N   0  0  0  0  0  0  0  0  0  0  0  0
  147.3428  140.0711  152.0922 C   0  0  0  0  0  0  0  0  0  0  0  0
  146.7973  138.8199  152.0600 C   0  0  0  0  0  0  0  0  0  0  0  0
  146.6978  138.4589  153.4320 C   0  0  0  0  0  0  0  0  0  0  0  0
  147.1416  139.4066  154.2411 N   0  0  0  0  0  0  0  0  0  0  0  0
  151.7772  142.5167  158.7298 N   0  0  0  0  0  0  0  0  0  0  0  0
  152.9307  141.6502  158.4587 C   0  0  0  0  0  0  0  0  0  0  0  0
  153.5553  141.0628  159.7358 C   0  0  0  0  0  0  0  0  0  0  0  0
  153.9342  142.1161  160.6103 O   0  0  0  0  0  0  0  0  0  0  0  0
  152.8293  142.9346  160.9668 C   0  0  0  0  0  0  0  0  0  0  0  0
  152.1966  143.5355  159.6998 C   0  0  0  0  0  0  0  0  0  0  0  0
  151.5950  144.7614  156.0824 H   0  0  0  0  0  0  0  0  0  0  0  0
  153.0430  144.1321  156.8532 H   0  0  0  0  0  0  0  0  0  0  0  0
  151.9262  145.1827  157.7256 H   0  0  0  0  0  0  0  0  0  0  0  0
  150.1954  143.4325  157.7191 H   0  0  0  0  0  0  0  0  0  0  0  0
  151.9437  142.2622  155.6174 H   0  0  0  0  0  0  0  0  0  0  0  0
  151.1993  141.0635  156.6433 H   0  0  0  0  0  0  0  0  0  0  0  0
  149.2529  142.9615  155.8051 H   0  0  0  0  0  0  0  0  0  0  0  0
  148.2825  142.3048  153.1162 H   0  0  0  0  0  0  0  0  0  0  0  0
  147.5600  143.2930  155.2710 H   0  0  0  0  0  0  0  0  0  0  0  0
  146.9000  141.7458  155.7911 H   0  0  0  0  0  0  0  0  0  0  0  0
  146.1991  142.5872  154.4131 H   0  0  0  0  0  0  0  0  0  0  0  0
  147.6083  140.7437  151.2899 H   0  0  0  0  0  0  0  0  0  0  0  0
  146.5153  138.2474  151.1889 H   0  0  0  0  0  0  0  0  0  0  0  0
  146.3212  137.5422  153.8609 H   0  0  0  0  0  0  0  0  0  0  0  0
  152.6398  140.8093  157.8319 H   0  0  0  0  0  0  0  0  0  0  0  0
  153.6909  142.2078  157.9094 H   0  0  0  0  0  0  0  0  0  0  0  0
  152.8539  140.3949  160.2382 H   0  0  0  0  0  0  0  0  0  0  0  0
  154.4376  140.4724  159.4881 H   0  0  0  0  0  0  0  0  0  0  0  0
  152.0965  142.3488  161.5238 H   0  0  0  0  0  0  0  0  0  0  0  0
  153.1746  143.7282  161.6295 H   0  0  0  0  0  0  0  0  0  0  0  0
  152.9044  144.2220  159.2325 H   0  0  0  0  0  0  0  0  0  0  0  0
  151.3465  144.1299  160.0274 H   0  0  0  0  0  0  0  0  0  0  0  0
  1  2  1  0  0  0  0
  1 20  1  0  0  0  0
  1 21  1  0  0  0  0
  1 22  1  0  0  0  0
  2  3  1  0  0  0  0
  2 14  1  0  0  0  0
  2 23  1  0  0  0  0
  3  4  1  0  0  0  0
  3 24  1  0  0  0  0
  3 25  1  0  0  0  0
  4  5  1  0  0  0  0
  4 26  1  0  0  0  0
  5  6  2  0  0  0  0
  5  7  1  0  0  0  0
  7  8  1  0  0  0  0
  7  9  1  0  0  0  0
  7 27  1  0  0  0  0
  8 28  1  0  0  0  0
  8 29  1  0  0  0  0
  8 30  1  0  0  0  0
  9 13  1  0  0  0  0
  9 10  1  0  0  0  0
 10 11  2  0  0  0  0
 10 31  1  0  0  0  0
 11 12  1  0  0  0  0
 11 32  1  0  0  0  0
 12 13  2  0  0  0  0
 12 33  1  0  0  0  0
 14 19  1  0  0  0  0
 14 15  1  0  0  0  0
 15 16  1  0  0  0  0
 15 34  1  0  0  0  0
 15 35  1  0  0  0  0
 16 17  1  0  0  0  0
 16 36  1  0  0  0  0
 16 37  1  0  0  0  0
 17 18  1  0  0  0  0
 18 19  1  0  0  0  0
 18 38  1  0  0  0  0
 18 39  1  0  0  0  0
 19 40  1  0  0  0  0
 19 41  1  0  0  0  0
M  END
> <s_m_source_file>
AV-unprocessed.smi

> <i_m_source_file_index>
1601

> <i_lp_mmshare_version>
43012

> <i_f3d_flags>
0

> <s_epik_input>
W0NIMl0xW0NIMl1PW0NIMl1bQ0gyXU4xW0NASF0oW0NIM10pW0NIMl1bTkhdQyg9TylbQ0BIXShbQ0gzXSluMltjSF1bY0hdW2NIXW4y

> <s_epik_cmdline>
J2VwaWtfcHl0aG9uJywgJy1waCcsICc3LjAnLCAnLXRuJywgJzgnLCAnLW1hJywgJzIwMCcsICctbWV0YWxfYmluZGluZycsICctaW1hZScsICc8aW5maWxlLm1hZT4nLCAnLW9tYWUnLCAnPG91dGZpbGUubWFlPic=

> <r_lp_tautomer_probability>
1

> <r_epik_Ionization_Penalty>
0.203323

> <r_epik_Ionization_Penalty_Charging>
0

> <r_epik_Ionization_Penalty_Neutral>
0.203323

> <r_epik_State_Penalty>
0.193192

> <r_epik_Charging_Adjusted_Penalty>
0.193192

> <i_epik_Tot_Q>
0

> <i_epik_Tot_abs_Q>
0

> <r_epik_Metal_State_Penalty>
0.193187

> <b_epik_Metal_Only>
0

> <s_lp_Force_Field>
OPLS_2005

> <r_lp_Energy>
32.6682

> <b_lp_Chiralities_Consistent>
1

> <s_lp_Variant>
AV-unprocessed.smi:1601-2

> <Gold.Version>
5.8.1

> <Gold.Id.Protein>
6NUR|6NUR_protein|mol2

> <Gold.PLP.Fitness>
44.2428

> <Gold.PLP.PLP>
-40.3230

> <Gold.PLP.part.hbond>
-2.0000

> <Gold.PLP.part.metal>
0.0000

> <Gold.PLP.part.buried>
-1.5196

> <Gold.PLP.part.nonpolar>
-37.0408

> <Gold.PLP.part.repulsive>
0.3932

> <Gold.PLP.ligand.clash>
0.0000

> <Gold.PLP.ligand.torsion>
1.7045

> <Gold.PLP.Chemscore.Hbond>
1.9200

> <Gold.PLP.Chemscore.CHOScore>
0.4784

> <Gold.PLP.Chemscore.Metal>
0.0000

> <Gold.Chemscore.Hbonds>
donor molecule, donor type, donor heavy atom, donor atom, acceptor molecule, acceptor atom, score
      L1  H     4    26       P1  8028  0.94
      P1  H  7989  7998       L1     6  0.90
      L1  C    10    31       P1  7957  0.31

> <Gold.PLP.Chemscore.Internal.Correction>
0.1337

> <Gold.Rescore>
     Score         DG    S(hbond)    S(metal)    S(lipo)     H(rot)  DE(clash)    DE(int)     intcor
     15.32     -17.28       1.30        0.00     102.69       1.79       0.78       1.17       ----

> <Gold.Chemscore.Fitness>
15.3234

> <Gold.Chemscore.DG>
-17.2766

> <Gold.Chemscore.ZeroCoef>
-5.4800

> <Gold.Chemscore.Hbond>
1.3045

> <Gold.Chemscore.Metal>
0.0000

> <Gold.Chemscore.Lipo>
102.6897

> <Gold.Chemscore.Internal_Hbond>
0.0000

> <Gold.Chemscore.DEClash>
0.7838

> <Gold.Chemscore.DEInternal>
1.1694

> <Gold.Chemscore.Rot>
1.7872

> <Gold.Chemscore.Internal.Correction>
   9.000000E+99

> <Gold.Chemscore.Hbonds>
donor molecule, donor type, donor heavy atom, donor atom, acceptor molecule, acceptor atom, score
      L1  H     4    26       P1  8028  0.91
      P1  H  7989  7998       L1     6  0.72

> <Gold.Chemscore.Hbond.Weighted>
-4.3571

> <Gold.Chemscore.Metal.Weighted>
-0.0000

> <Gold.Chemscore.Lipo.Weighted>
-12.0147

> <Gold.Chemscore.Internal_Hbond.Weighted>
0.0000

> <Gold.Chemscore.DEClash.Weighted>
0.7838

> <Gold.Chemscore.DEInternal.Weighted>
1.1694

> <Gold.Chemscore.Rot.Weighted>
4.5752

> <Gold.Chemscore.Internal.Correction.Weighted>
   9.000000E+99

> <Gold.Protein.RotatedTorsions>
[ 6907 6896 6895 6894 ] final -145.52 input  -60.11 | X-H torsion
[ 7974 7965 7964 7962 ] final  164.84 input  175.53 | X-H torsion
[ 8008 7997 7996 7995 ] final   64.18 input   59.86 | X-H torsion
[ 10167 10162 10161 10158 ] final   99.38 input  -65.29 | X-H torsion
[ 10718 10713 10712 10709 ] final  152.03 input   66.30 | X-H torsion
[ 10763 10752 10751 10750 ] final  119.56 input  -60.55 | X-H torsion
[ 11005 11000 10999 10996 ] final -137.00 input  -57.11 | X-H torsion

> <Gold.Protein.ActiveResidues>
 VAL166  LYS551  ARG553  GLY616  TRP617  ASP618  TYR619  PRO620  LYS621  CYS622 
 ASP623  PHE694  ASN695  SER759  ASP760  ASP761  ALA762  ILE779  LEU786  VAL792 
 PHE793  MET794  SER795  GLU796  ALA797  LYS798  CYS799  TRP800  GLU811  SER814 

> <Gold.Protein.RotatedAtoms>
  151.1290  133.5050  159.2599 H   0  0  0  0  0  0  0  0  0  0  0  0  # atno 6907 bound_to 6896
  151.1778  135.0347  159.8789 H   0  0  0  0  0  0  0  0  0  0  0  0  # atno 6908 bound_to 6896
  152.5459  134.1145  159.8426 H   0  0  0  0  0  0  0  0  0  0  0  0  # atno 6909 bound_to 6896
  144.7528  139.8384  143.6360 H   0  0  0  0  0  0  0  0  0  0  0  0  # atno 7974 bound_to 7965
  155.6419  140.3497  155.4718 H   0  0  0  0  0  0  0  0  0  0  0  0  # atno 8008 bound_to 7997
  155.9919  140.1195  157.0654 H   0  0  0  0  0  0  0  0  0  0  0  0  # atno 8009 bound_to 7997
  154.4221  140.1118  156.5563 H   0  0  0  0  0  0  0  0  0  0  0  0  # atno 8010 bound_to 7997
  139.7623  144.6950  151.0275 H   0  0  0  0  0  0  0  0  0  0  0  0  # atno 10167 bound_to 10162
  157.2631  131.0802  151.1652 H   0  0  0  0  0  0  0  0  0  0  0  0  # atno 10718 bound_to 10713
  153.5849  135.3477  155.2889 H   0  0  0  0  0  0  0  0  0  0  0  0  # atno 10763 bound_to 10752
  154.8662  135.4191  154.2580 H   0  0  0  0  0  0  0  0  0  0  0  0  # atno 10764 bound_to 10752
  153.3374  135.7048  153.6966 H   0  0  0  0  0  0  0  0  0  0  0  0  # atno 10765 bound_to 10752
  140.8752  134.2001  157.4626 H   0  0  0  0  0  0  0  0  0  0  0  0  # atno 11005 bound_to 11000
  146.1500  139.4580  143.0055 LP  0  0  0  0  0  0  0  0  0  0  0  0  # atno 17320 bound_to 7965
  145.6884  141.0171  143.1568 LP  0  0  0  0  0  0  0  0  0  0  0  0  # atno 17321 bound_to 7965
  140.7808  143.4683  151.0181 LP  0  0  0  0  0  0  0  0  0  0  0  0  # atno 17342 bound_to 10162
  139.8369  143.7616  152.3180 LP  0  0  0  0  0  0  0  0  0  0  0  0  # atno 17343 bound_to 10162
  157.3154  130.6910  149.6239 LP  0  0  0  0  0  0  0  0  0  0  0  0  # atno 17370 bound_to 10713
  155.9664  130.4351  150.5077 LP  0  0  0  0  0  0  0  0  0  0  0  0  # atno 17371 bound_to 10713
  139.8715  134.9792  156.5029 LP  0  0  0  0  0  0  0  0  0  0  0  0  # atno 17394 bound_to 11000
  140.8526  133.8120  155.9184 LP  0  0  0  0  0  0  0  0  0  0  0  0  # atno 17395 bound_to 11000

$$$$
