AV-unprocessed.smi:2077|AV-procd|sdf|8461|dock3
  -GOLD-   2272011163D 1   1.00000     0.00000
 Structure written by MMmdl.
 38 40  0  0  0  0  0  0  0  0  1 V2000
  152.6069  138.8929  154.9306 C   0  0  0  0  0  0  0  0  0  0  0  0
  151.7267  139.6805  155.8141 N   0  0  0  0  0  0  0  0  0  0  0  0
  150.5764  140.2049  155.2853 C   0  0  0  0  0  0  0  0  0  0  0  0
  150.2150  140.0685  154.1159 O   0  0  0  0  0  0  0  0  0  0  0  0
  149.7733  140.9674  156.2484 C   0  0  0  0  0  0  0  0  0  0  0  0
  150.1358  141.1338  157.5442 C   0  0  0  0  0  0  0  0  0  0  0  0
  149.1963  141.8887  158.2379 N   0  0  0  0  0  0  0  0  0  0  0  0
  148.2897  142.1432  157.2941 C   0  0  0  0  0  0  0  0  0  0  0  0
  148.5567  141.6284  156.0771 N   0  0  0  0  0  0  0  0  0  0  0  0
  147.7236  141.7615  154.8911 C   0  0  0  0  0  0  0  0  0  0  0  0
  146.2155  141.7529  155.2163 C   0  0  2  0  0  0  0  0  0  0  0  0
  145.5743  140.6736  154.5645 O   0  0  0  0  0  0  0  0  0  0  0  0
  145.5701  143.0864  154.8749 C   0  0  0  0  0  0  0  0  0  0  0  0
  144.7849  143.7606  155.8348 C   0  0  0  0  0  0  0  0  0  0  0  0
  144.1886  144.9976  155.5210 C   0  0  0  0  0  0  0  0  0  0  0  0
  144.3760  145.5682  154.2474 C   0  0  0  0  0  0  0  0  0  0  0  0
  145.1613  144.9018  153.2872 C   0  0  0  0  0  0  0  0  0  0  0  0
  145.3439  145.4505  152.0629 F   0  0  0  0  0  0  0  0  0  0  0  0
  145.7572  143.6649  153.6001 C   0  0  0  0  0  0  0  0  0  0  0  0
  151.3486  140.5456  157.9877 N   0  0  0  0  0  0  0  0  0  0  0  0
  151.7535  140.7126  159.3863 C   0  0  0  0  0  0  0  0  0  0  0  0
  152.1364  139.8205  157.1288 C   0  0  0  0  0  0  0  0  0  0  0  0
  153.1851  139.3068  157.5290 O   0  0  0  0  0  0  0  0  0  0  0  0
  152.2879  138.8451  153.8889 H   0  0  0  0  0  0  0  0  0  0  0  0
  152.6737  137.8632  155.2852 H   0  0  0  0  0  0  0  0  0  0  0  0
  153.6152  139.3105  154.9224 H   0  0  0  0  0  0  0  0  0  0  0  0
  147.3998  142.7215  157.4949 H   0  0  0  0  0  0  0  0  0  0  0  0
  147.9856  142.7003  154.4011 H   0  0  0  0  0  0  0  0  0  0  0  0
  147.9780  140.9768  154.1799 H   0  0  0  0  0  0  0  0  0  0  0  0
  146.0954  141.5787  156.2865 H   0  0  0  0  0  0  0  0  0  0  0  0
  145.1867  140.9939  153.7643 H   0  0  0  0  0  0  0  0  0  0  0  0
  144.6362  143.3326  156.8154 H   0  0  0  0  0  0  0  0  0  0  0  0
  143.5873  145.5091  156.2582 H   0  0  0  0  0  0  0  0  0  0  0  0
  143.9187  146.5169  154.0074 H   0  0  0  0  0  0  0  0  0  0  0  0
  146.3605  143.1610  152.8589 H   0  0  0  0  0  0  0  0  0  0  0  0
  152.7333  141.1885  159.4490 H   0  0  0  0  0  0  0  0  0  0  0  0
  151.8133  139.7437  159.8840 H   0  0  0  0  0  0  0  0  0  0  0  0
  151.0588  141.3281  159.9570 H   0  0  0  0  0  0  0  0  0  0  0  0
  1  2  1  0  0  0  0
  1 24  1  0  0  0  0
  1 25  1  0  0  0  0
  1 26  1  0  0  0  0
  2 22  1  0  0  0  0
  2  3  1  0  0  0  0
  3  4  2  0  0  0  0
  3  5  1  0  0  0  0
  5  9  1  0  0  0  0
  5  6  2  0  0  0  0
  6  7  1  0  0  0  0
  6 20  1  0  0  0  0
  7  8  2  0  0  0  0
  8  9  1  0  0  0  0
  8 27  1  0  0  0  0
  9 10  1  0  0  0  0
 10 11  1  0  0  0  0
 10 28  1  0  0  0  0
 10 29  1  0  0  0  0
 11 12  1  0  0  0  0
 11 13  1  0  0  0  0
 11 30  1  0  0  0  0
 12 31  1  0  0  0  0
 13 19  1  0  0  0  0
 13 14  2  0  0  0  0
 14 15  1  0  0  0  0
 14 32  1  0  0  0  0
 15 16  2  0  0  0  0
 15 33  1  0  0  0  0
 16 17  1  0  0  0  0
 16 34  1  0  0  0  0
 17 18  1  0  0  0  0
 17 19  2  0  0  0  0
 19 35  1  0  0  0  0
 20 21  1  0  0  0  0
 20 22  1  0  0  0  0
 21 36  1  0  0  0  0
 21 37  1  0  0  0  0
 21 38  1  0  0  0  0
 22 23  2  0  0  0  0
M  END
> <s_m_source_file>
AV-unprocessed.smi

> <i_m_source_file_index>
2077

> <i_lp_mmshare_version>
43012

> <i_f3d_flags>
0

> <s_epik_input>
Tz1jMW4oW0NIM10pYyg9TyluKFtDSDNdKWMoYzEyKW5bY0hdbjJbQ0gyXVtDQEhdKFtPSF0pYzNbY0hdW2NIXVtjSF1jKEYpW2NIXTM=

> <s_epik_cmdline>
J2VwaWtfcHl0aG9uJywgJy1waCcsICc3LjAnLCAnLXRuJywgJzgnLCAnLW1hJywgJzIwMCcsICctbWV0YWxfYmluZGluZycsICctaW1hZScsICc8aW5maWxlLm1hZT4nLCAnLW9tYWUnLCAnPG91dGZpbGUubWFlPic=

> <r_lp_tautomer_probability>
1

> <r_epik_Ionization_Penalty>
1.5338e-06

> <r_epik_Ionization_Penalty_Charging>
3.74189e-09

> <r_epik_Ionization_Penalty_Neutral>
1.53006e-06

> <r_epik_State_Penalty>
-0

> <r_epik_Charging_Adjusted_Penalty>
3.74189e-09

> <i_epik_Tot_Q>
0

> <i_epik_Tot_abs_Q>
0

> <r_epik_Metal_State_Penalty>
-0

> <b_epik_Metal_Only>
0

> <s_lp_Force_Field>
OPLS_2005

> <r_lp_Energy>
35.2177

> <b_lp_Chiralities_Consistent>
1

> <s_lp_Variant>
AV-unprocessed.smi:2077-1

> <Gold.Version>
5.8.1

> <Gold.Id.Protein>
6NUR|6NUR_protein|mol2

> <Gold.PLP.Fitness>
49.7706

> <Gold.PLP.PLP>
-44.5244

> <Gold.PLP.part.hbond>
-3.0000

> <Gold.PLP.part.metal>
0.0000

> <Gold.PLP.part.buried>
-3.7850

> <Gold.PLP.part.nonpolar>
-39.4392

> <Gold.PLP.part.repulsive>
0.9585

> <Gold.PLP.ligand.clash>
0.0000

> <Gold.PLP.ligand.torsion>
1.3131

> <Gold.PLP.Chemscore.Hbond>
2.6140

> <Gold.PLP.Chemscore.CHOScore>
0.0000

> <Gold.PLP.Chemscore.Metal>
0.0000

> <Gold.Chemscore.Hbonds>
donor molecule, donor type, donor heavy atom, donor atom, acceptor molecule, acceptor atom, score
      L1  H    12    31       P1 10175  0.78
      P1  H  7989  7998       L1     4  0.70
      P1  H  7997  8008       L1    23  1.00

> <Gold.PLP.Chemscore.Internal.Correction>
0.0305

> <Gold.Rescore>
     Score         DG    S(hbond)    S(metal)    S(lipo)     H(rot)  DE(clash)    DE(int)     intcor
     12.68     -14.45       2.12        0.00      65.20       2.24       0.55       1.21       ----

> <Gold.Chemscore.Fitness>
12.6834

> <Gold.Chemscore.DG>
-14.4470

> <Gold.Chemscore.ZeroCoef>
-5.4800

> <Gold.Chemscore.Hbond>
2.1159

> <Gold.Chemscore.Metal>
0.0000

> <Gold.Chemscore.Lipo>
65.2017

> <Gold.Chemscore.Internal_Hbond>
0.0000

> <Gold.Chemscore.DEClash>
0.5524

> <Gold.Chemscore.DEInternal>
1.2113

> <Gold.Chemscore.Rot>
2.2377

> <Gold.Chemscore.Internal.Correction>
   9.000000E+99

> <Gold.Chemscore.Hbonds>
donor molecule, donor type, donor heavy atom, donor atom, acceptor molecule, acceptor atom, score
      L1  H    12    31       P1 10175  0.56
      P1  H  7989  7998       L1     4  0.07
      P1  H  7997  8008       L1    23  0.44

> <Gold.Chemscore.Hbond.Weighted>
-7.0671

> <Gold.Chemscore.Metal.Weighted>
-0.0000

> <Gold.Chemscore.Lipo.Weighted>
-7.6286

> <Gold.Chemscore.Internal_Hbond.Weighted>
0.0000

> <Gold.Chemscore.DEClash.Weighted>
0.5524

> <Gold.Chemscore.DEInternal.Weighted>
1.2113

> <Gold.Chemscore.Rot.Weighted>
5.7286

> <Gold.Chemscore.Internal.Correction.Weighted>
   9.000000E+99

> <Gold.Protein.RotatedTorsions>
[ 6907 6896 6895 6894 ] final -143.64 input  -60.11 | X-H torsion
[ 7974 7965 7964 7962 ] final  -49.07 input  175.53 | X-H torsion
[ 8008 7997 7996 7995 ] final  -58.59 input   59.86 | X-H torsion
[ 10167 10162 10161 10158 ] final  -82.23 input  -65.29 | X-H torsion
[ 10718 10713 10712 10709 ] final   56.28 input   66.30 | X-H torsion
[ 10763 10752 10751 10750 ] final -103.10 input  -60.55 | X-H torsion
[ 11005 11000 10999 10996 ] final  -79.38 input  -57.11 | X-H torsion

> <Gold.Protein.ActiveResidues>
 VAL166  LYS551  ARG553  GLY616  TRP617  ASP618  TYR619  PRO620  LYS621  CYS622 
 ASP623  PHE694  ASN695  SER759  ASP760  ASP761  ALA762  ILE779  LEU786  VAL792 
 PHE793  MET794  SER795  GLU796  ALA797  LYS798  CYS799  TRP800  GLU811  SER814 

> <Gold.Protein.RotatedAtoms>
  151.1032  133.5228  159.2608 H   0  0  0  0  0  0  0  0  0  0  0  0  # atno 6907 bound_to 6896
  151.2050  135.0458  159.8898 H   0  0  0  0  0  0  0  0  0  0  0  0  # atno 6908 bound_to 6896
  152.5444  134.0855  159.8308 H   0  0  0  0  0  0  0  0  0  0  0  0  # atno 6909 bound_to 6896
  145.9444  140.7631  142.9536 H   0  0  0  0  0  0  0  0  0  0  0  0  # atno 7974 bound_to 7965
  154.4315  140.1081  156.5980 H   0  0  0  0  0  0  0  0  0  0  0  0  # atno 8008 bound_to 7997
  155.5941  140.3492  155.4556 H   0  0  0  0  0  0  0  0  0  0  0  0  # atno 8009 bound_to 7997
  156.0224  140.1242  157.0333 H   0  0  0  0  0  0  0  0  0  0  0  0  # atno 8010 bound_to 7997
  140.4339  143.2538  151.8721 H   0  0  0  0  0  0  0  0  0  0  0  0  # atno 10167 bound_to 10162
  157.5417  130.8702  149.8832 H   0  0  0  0  0  0  0  0  0  0  0  0  # atno 10718 bound_to 10713
  154.7783  135.4836  153.9790 H   0  0  0  0  0  0  0  0  0  0  0  0  # atno 10763 bound_to 10752
  153.1458  135.6781  153.8964 H   0  0  0  0  0  0  0  0  0  0  0  0  # atno 10764 bound_to 10752
  153.8624  135.3154  155.3416 H   0  0  0  0  0  0  0  0  0  0  0  0  # atno 10765 bound_to 10752
  141.1667  133.7103  156.8114 H   0  0  0  0  0  0  0  0  0  0  0  0  # atno 11005 bound_to 11000
  144.6784  140.2333  143.7352 LP  0  0  0  0  0  0  0  0  0  0  0  0  # atno 17320 bound_to 7965
  145.8256  139.2063  143.1913 LP  0  0  0  0  0  0  0  0  0  0  0  0  # atno 17321 bound_to 7965
  139.4786  144.5304  151.8674 LP  0  0  0  0  0  0  0  0  0  0  0  0  # atno 17342 bound_to 10162
  140.4396  144.2005  150.5891 LP  0  0  0  0  0  0  0  0  0  0  0  0  # atno 17343 bound_to 10162
  156.0502  130.3719  150.1219 LP  0  0  0  0  0  0  0  0  0  0  0  0  # atno 17370 bound_to 10713
  156.9398  130.9741  151.3518 LP  0  0  0  0  0  0  0  0  0  0  0  0  # atno 17371 bound_to 10713
  140.2184  134.8775  157.3351 LP  0  0  0  0  0  0  0  0  0  0  0  0  # atno 17394 bound_to 11000
  140.2013  134.4251  155.7661 LP  0  0  0  0  0  0  0  0  0  0  0  0  # atno 17395 bound_to 11000

$$$$
