AV-unprocessed.smi:708|AV-procd|sdf|3457|dock4
  -GOLD-   22720 0443D 1   1.00000     0.00000
 Structure written by MMmdl.
 42 43  0  0  0  0  0  0  0  0  1 V2000
  151.5576  139.6742  159.4650 O   0  0  0  0  0  0  0  0  0  0  0  0
  152.7029  139.9932  159.1440 C   0  0  0  0  0  0  0  0  0  0  0  0
  153.5501  140.8811  160.0641 C   0  0  0  0  0  0  0  0  0  0  0  0
  152.8336  142.0917  160.4977 N   0  0  0  0  0  0  0  0  0  0  0  0
  152.3079  142.9257  159.4908 C   0  0  0  0  0  0  0  0  0  0  0  0
  151.6420  144.0550  159.7804 C   0  0  0  0  0  0  0  0  0  0  0  0
  151.4699  144.4093  161.1695 C   0  0  0  0  0  0  0  0  0  0  0  0
  151.9650  143.6167  162.1406 C   0  0  0  0  0  0  0  0  0  0  0  0
  152.6902  142.3795  161.8291 C   0  0  0  0  0  0  0  0  0  0  0  0
  153.1414  141.6471  162.7105 O   0  0  0  0  0  0  0  0  0  0  0  0
  153.2812  139.6095  157.9963 N   0  0  0  0  0  0  0  0  0  0  0  0
  152.6839  138.7186  157.0075 C   0  0  0  0  0  0  0  0  0  0  0  0
  151.6514  139.4327  156.1077 C   0  0  0  0  0  0  0  0  0  0  0  0
  150.7085  140.3705  156.8997 C   0  0  0  0  0  0  0  0  0  0  0  0
  149.6243  140.9727  155.9888 C   0  0  0  0  0  0  0  0  0  0  0  0
  148.8822  139.8795  155.3489 N   0  0  0  0  0  0  0  0  0  0  0  0
  147.6016  139.5752  155.6792 C   0  0  0  0  0  0  0  0  0  0  0  0
  146.9678  140.2368  156.5038 O   0  0  0  0  0  0  0  0  0  0  0  0
  146.9003  138.3750  155.0180 C   0  0  0  0  0  0  0  0  0  0  0  0
  146.8536  138.5487  153.6965 F   0  0  0  0  0  0  0  0  0  0  0  0
  147.5504  137.2482  155.3121 F   0  0  0  0  0  0  0  0  0  0  0  0
  145.6511  138.2743  155.4755 F   0  0  0  0  0  0  0  0  0  0  0  0
  149.7456  139.1087  154.4460 C   0  0  0  0  0  0  0  0  0  0  0  0
  150.8394  138.4141  155.2776 C   0  0  0  0  0  0  0  0  0  0  0  0
  153.8763  140.3121  160.9373 H   0  0  0  0  0  0  0  0  0  0  0  0
  154.4667  141.1405  159.5327 H   0  0  0  0  0  0  0  0  0  0  0  0
  152.4738  142.5877  158.4782 H   0  0  0  0  0  0  0  0  0  0  0  0
  151.2428  144.6804  158.9956 H   0  0  0  0  0  0  0  0  0  0  0  0
  150.9408  145.3137  161.4315 H   0  0  0  0  0  0  0  0  0  0  0  0
  151.8261  143.8978  163.1742 H   0  0  0  0  0  0  0  0  0  0  0  0
  154.2218  139.9271  157.8120 H   0  0  0  0  0  0  0  0  0  0  0  0
  153.4704  138.2673  156.4004 H   0  0  0  0  0  0  0  0  0  0  0  0
  152.2031  137.9008  157.5453 H   0  0  0  0  0  0  0  0  0  0  0  0
  152.1986  140.0539  155.3972 H   0  0  0  0  0  0  0  0  0  0  0  0
  150.2344  139.8193  157.7129 H   0  0  0  0  0  0  0  0  0  0  0  0
  151.2757  141.1785  157.3624 H   0  0  0  0  0  0  0  0  0  0  0  0
  148.9845  141.6407  156.5670 H   0  0  0  0  0  0  0  0  0  0  0  0
  150.0836  141.5977  155.2216 H   0  0  0  0  0  0  0  0  0  0  0  0
  149.2116  138.3705  153.8518 H   0  0  0  0  0  0  0  0  0  0  0  0
  150.2022  139.7851  153.7220 H   0  0  0  0  0  0  0  0  0  0  0  0
  151.5056  137.8572  154.6178 H   0  0  0  0  0  0  0  0  0  0  0  0
  150.3774  137.6807  155.9398 H   0  0  0  0  0  0  0  0  0  0  0  0
  1  2  2  0  0  0  0
  2  3  1  0  0  0  0
  2 11  1  0  0  0  0
  3  4  1  0  0  0  0
  3 25  1  0  0  0  0
  3 26  1  0  0  0  0
  4  9  1  0  0  0  0
  4  5  1  0  0  0  0
  5  6  2  0  0  0  0
  5 27  1  0  0  0  0
  6  7  1  0  0  0  0
  6 28  1  0  0  0  0
  7  8  2  0  0  0  0
  7 29  1  0  0  0  0
  8  9  1  0  0  0  0
  8 30  1  0  0  0  0
  9 10  2  0  0  0  0
 11 12  1  0  0  0  0
 11 31  1  0  0  0  0
 12 13  1  0  0  0  0
 12 32  1  0  0  0  0
 12 33  1  0  0  0  0
 13 24  1  0  0  0  0
 13 14  1  0  0  0  0
 13 34  1  0  0  0  0
 14 15  1  0  0  0  0
 14 35  1  0  0  0  0
 14 36  1  0  0  0  0
 15 16  1  0  0  0  0
 15 37  1  0  0  0  0
 15 38  1  0  0  0  0
 16 17  1  0  0  0  0
 16 23  1  0  0  0  0
 17 18  2  0  0  0  0
 17 19  1  0  0  0  0
 19 20  1  0  0  0  0
 19 21  1  0  0  0  0
 19 22  1  0  0  0  0
 23 24  1  0  0  0  0
 23 39  1  0  0  0  0
 23 40  1  0  0  0  0
 24 41  1  0  0  0  0
 24 42  1  0  0  0  0
M  END
> <s_m_source_file>
AV-unprocessed.smi

> <i_m_source_file_index>
708

> <i_lp_mmshare_version>
43012

> <i_f3d_flags>
0

> <s_epik_input>
Tz1jMVtjSF1bY0hdW2NIXVtjSF1uMVtDSDJdQyg9TylbTkhdW0NIMl1bQ0hdMltDSDJdW0NIMl1OKEMoPU8pQyhGKShGKUYpW0NIMl1bQ0gyXTI=

> <s_epik_cmdline>
J2VwaWtfcHl0aG9uJywgJy1waCcsICc3LjAnLCAnLXRuJywgJzgnLCAnLW1hJywgJzIwMCcsICctbWV0YWxfYmluZGluZycsICctaW1hZScsICc8aW5maWxlLm1hZT4nLCAnLW9tYWUnLCAnPG91dGZpbGUubWFlPic=

> <r_lp_tautomer_probability>
1

> <r_epik_Ionization_Penalty>
3.72594e-07

> <r_epik_Ionization_Penalty_Charging>
3.54487e-07

> <r_epik_Ionization_Penalty_Neutral>
1.81071e-08

> <r_epik_State_Penalty>
-0

> <r_epik_Charging_Adjusted_Penalty>
3.54487e-07

> <i_epik_Tot_Q>
0

> <i_epik_Tot_abs_Q>
0

> <r_epik_Metal_State_Penalty>
-0

> <b_epik_Metal_Only>
0

> <s_lp_Force_Field>
OPLS_2005

> <r_lp_Energy>
36.5202

> <b_lp_Chiralities_Consistent>
1

> <s_lp_Variant>
AV-unprocessed.smi:708-1

> <Gold.Version>
5.8.1

> <Gold.Id.Protein>
6NUR|6NUR_protein|mol2

> <Gold.PLP.Fitness>
47.1280

> <Gold.PLP.PLP>
-47.7994

> <Gold.PLP.part.hbond>
0.0000

> <Gold.PLP.part.metal>
0.0000

> <Gold.PLP.part.buried>
-3.6301

> <Gold.PLP.part.nonpolar>
-45.7220

> <Gold.PLP.part.repulsive>
2.1642

> <Gold.PLP.ligand.clash>
0.0000

> <Gold.PLP.ligand.torsion>
0.3493

> <Gold.PLP.Chemscore.Hbond>
0.0000

> <Gold.PLP.Chemscore.CHOScore>
0.0000

> <Gold.PLP.Chemscore.Metal>
0.0000

> <Gold.PLP.Chemscore.Internal.Correction>
0.0273

> <Gold.Rescore>
     Score         DG    S(hbond)    S(metal)    S(lipo)     H(rot)  DE(clash)    DE(int)     intcor
      8.88     -12.16       0.00        0.00      98.85       1.91       1.65       1.63       ----

> <Gold.Chemscore.Fitness>
8.8764

> <Gold.Chemscore.DG>
-12.1574

> <Gold.Chemscore.ZeroCoef>
-5.4800

> <Gold.Chemscore.Hbond>
0.0000

> <Gold.Chemscore.Metal>
0.0000

> <Gold.Chemscore.Lipo>
98.8469

> <Gold.Chemscore.Internal_Hbond>
0.0000

> <Gold.Chemscore.DEClash>
1.6483

> <Gold.Chemscore.DEInternal>
1.6327

> <Gold.Chemscore.Rot>
1.9093

> <Gold.Chemscore.Internal.Correction>
   9.000000E+99

> <Gold.Chemscore.Hbond.Weighted>
-0.0000

> <Gold.Chemscore.Metal.Weighted>
-0.0000

> <Gold.Chemscore.Lipo.Weighted>
-11.5651

> <Gold.Chemscore.Internal_Hbond.Weighted>
0.0000

> <Gold.Chemscore.DEClash.Weighted>
1.6483

> <Gold.Chemscore.DEInternal.Weighted>
1.6327

> <Gold.Chemscore.Rot.Weighted>
4.8877

> <Gold.Chemscore.Internal.Correction.Weighted>
   9.000000E+99

> <Gold.Protein.RotatedTorsions>
[ 6907 6896 6895 6894 ] final -110.64 input  -60.11 | X-H torsion
[ 7974 7965 7964 7962 ] final  169.42 input  175.53 | X-H torsion
[ 8008 7997 7996 7995 ] final -135.43 input   59.86 | X-H torsion
[ 10167 10162 10161 10158 ] final  138.56 input  -65.29 | X-H torsion
[ 10718 10713 10712 10709 ] final   98.54 input   66.30 | X-H torsion
[ 10763 10752 10751 10750 ] final -166.16 input  -60.55 | X-H torsion
[ 11005 11000 10999 10996 ] final   28.51 input  -57.11 | X-H torsion

> <Gold.Protein.ActiveResidues>
 VAL166  LYS551  ARG553  GLY616  TRP617  ASP618  TYR619  PRO620  LYS621  CYS622 
 ASP623  PHE694  ASN695  SER759  ASP760  ASP761  ALA762  ILE779  LEU786  VAL792 
 PHE793  MET794  SER795  GLU796  ALA797  LYS798  CYS799  TRP800  GLU811  SER814 

> <Gold.Protein.RotatedAtoms>
  150.7638  133.9352  159.3438 H   0  0  0  0  0  0  0  0  0  0  0  0  # atno 6907 bound_to 6896
  151.7255  135.0883  160.0301 H   0  0  0  0  0  0  0  0  0  0  0  0  # atno 6908 bound_to 6896
  152.3623  133.6275  159.6060 H   0  0  0  0  0  0  0  0  0  0  0  0  # atno 6909 bound_to 6896
  144.7355  139.9052  143.6412 H   0  0  0  0  0  0  0  0  0  0  0  0  # atno 7974 bound_to 7965
  155.3786  140.0492  157.3044 H   0  0  0  0  0  0  0  0  0  0  0  0  # atno 8008 bound_to 7997
  154.5094  140.2186  155.9149 H   0  0  0  0  0  0  0  0  0  0  0  0  # atno 8009 bound_to 7997
  156.1564  140.3125  155.8739 H   0  0  0  0  0  0  0  0  0  0  0  0  # atno 8010 bound_to 7997
  139.5106  144.6346  151.5730 H   0  0  0  0  0  0  0  0  0  0  0  0  # atno 10167 bound_to 10162
  157.6893  131.0643  150.4811 H   0  0  0  0  0  0  0  0  0  0  0  0  # atno 10718 bound_to 10713
  154.6861  135.2962  154.9546 H   0  0  0  0  0  0  0  0  0  0  0  0  # atno 10763 bound_to 10752
  154.0524  135.6642  153.4806 H   0  0  0  0  0  0  0  0  0  0  0  0  # atno 10764 bound_to 10752
  153.0580  135.5133  154.7928 H   0  0  0  0  0  0  0  0  0  0  0  0  # atno 10765 bound_to 10752
  140.3148  134.2610  155.7727 H   0  0  0  0  0  0  0  0  0  0  0  0  # atno 11005 bound_to 11000
  146.1042  139.4040  143.0328 LP  0  0  0  0  0  0  0  0  0  0  0  0  # atno 17320 bound_to 7965
  145.7536  140.9963  143.1237 LP  0  0  0  0  0  0  0  0  0  0  0  0  # atno 17321 bound_to 7965
  140.6090  143.9471  150.6439 LP  0  0  0  0  0  0  0  0  0  0  0  0  # atno 17342 bound_to 10162
  140.2707  143.3458  152.1240 LP  0  0  0  0  0  0  0  0  0  0  0  0  # atno 17343 bound_to 10162
  156.5143  130.4147  149.6284 LP  0  0  0  0  0  0  0  0  0  0  0  0  # atno 17370 bound_to 10713
  156.3212  130.7281  151.2193 LP  0  0  0  0  0  0  0  0  0  0  0  0  # atno 17371 bound_to 10713
  141.2100  133.7732  156.9960 LP  0  0  0  0  0  0  0  0  0  0  0  0  # atno 17394 bound_to 11000
  140.0993  134.9545  157.1899 LP  0  0  0  0  0  0  0  0  0  0  0  0  # atno 17395 bound_to 11000

$$$$
