AV-unprocessed.smi:949|AV-procd|sdf|4247|dock6
  -GOLD-   22720 2153D 1   1.00000     0.00000
 Structure written by MMmdl.
 32 33  0  0  0  0  0  0  0  0  1 V2000
  151.4913  141.7598  158.4594 C   0  0  0  0  0  0  0  0  0  0  0  0
  151.5067  142.8665  157.3893 C   0  0  1  0  0  0  0  0  0  0  0  0
  150.4539  142.6400  156.4049 N   0  0  0  0  0  0  0  0  0  0  0  0
  150.3349  141.4478  155.6684 C   0  0  0  0  0  0  0  0  0  0  0  0
  151.2627  140.3843  155.7755 C   0  0  0  0  0  0  0  0  0  0  0  0
  151.0654  139.2267  154.9976 C   0  0  0  0  0  0  0  0  0  0  0  0
  150.0321  139.0706  154.1455 N   0  0  0  0  0  0  0  0  0  0  0  0
  149.1477  140.0836  154.0413 C   0  0  0  0  0  0  0  0  0  0  0  0
  149.2491  141.2860  154.7725 C   0  0  0  0  0  0  0  0  0  0  0  0
  148.2836  142.2804  154.5967 N   0  0  0  0  0  0  0  0  0  0  0  0
  151.3442  144.2590  158.0302 C   0  0  2  0  0  0  0  0  0  0  0  0
  152.5215  144.6911  158.9090 C   0  0  0  0  0  0  0  0  0  0  0  0
  151.8610  145.6649  159.8565 C   0  0  0  0  0  0  0  0  0  0  0  0
  150.5210  144.9828  160.1050 C   0  0  0  0  0  0  0  0  0  0  0  0
  150.2158  144.2788  158.9044 O   0  0  0  0  0  0  0  0  0  0  0  0
  152.2960  141.8983  159.1817 H   0  0  0  0  0  0  0  0  0  0  0  0
  151.6200  140.7708  158.0202 H   0  0  0  0  0  0  0  0  0  0  0  0
  150.5502  141.7553  159.0105 H   0  0  0  0  0  0  0  0  0  0  0  0
  152.4711  142.8554  156.8818 H   0  0  0  0  0  0  0  0  0  0  0  0
  149.7871  143.3803  156.2431 H   0  0  0  0  0  0  0  0  0  0  0  0
  152.1148  140.4297  156.4355 H   0  0  0  0  0  0  0  0  0  0  0  0
  151.7596  138.4020  155.0625 H   0  0  0  0  0  0  0  0  0  0  0  0
  148.3320  139.9284  153.3500 H   0  0  0  0  0  0  0  0  0  0  0  0
  148.3334  143.1498  155.1081 H   0  0  0  0  0  0  0  0  0  0  0  0
  147.6300  142.2431  153.8280 H   0  0  0  0  0  0  0  0  0  0  0  0
  151.1776  145.0143  157.2604 H   0  0  0  0  0  0  0  0  0  0  0  0
  152.9197  143.8420  159.4666 H   0  0  0  0  0  0  0  0  0  0  0  0
  153.3370  145.1373  158.3390 H   0  0  0  0  0  0  0  0  0  0  0  0
  152.4315  145.8323  160.7704 H   0  0  0  0  0  0  0  0  0  0  0  0
  151.7106  146.6262  159.3632 H   0  0  0  0  0  0  0  0  0  0  0  0
  150.6084  144.2589  160.9163 H   0  0  0  0  0  0  0  0  0  0  0  0
  149.7335  145.6905  160.3650 H   0  0  0  0  0  0  0  0  0  0  0  0
  1  2  1  0  0  0  0
  1 16  1  0  0  0  0
  1 17  1  0  0  0  0
  1 18  1  0  0  0  0
  2  3  1  0  0  0  0
  2 11  1  0  0  0  0
  2 19  1  0  0  0  0
  3  4  1  0  0  0  0
  3 20  1  0  0  0  0
  4  9  1  0  0  0  0
  4  5  2  0  0  0  0
  5  6  1  0  0  0  0
  5 21  1  0  0  0  0
  6  7  2  0  0  0  0
  6 22  1  0  0  0  0
  7  8  1  0  0  0  0
  8  9  2  0  0  0  0
  8 23  1  0  0  0  0
  9 10  1  0  0  0  0
 10 24  1  0  0  0  0
 10 25  1  0  0  0  0
 11 15  1  0  0  0  0
 11 12  1  0  0  0  0
 11 26  1  0  0  0  0
 12 13  1  0  0  0  0
 12 27  1  0  0  0  0
 12 28  1  0  0  0  0
 13 14  1  0  0  0  0
 13 29  1  0  0  0  0
 13 30  1  0  0  0  0
 14 15  1  0  0  0  0
 14 31  1  0  0  0  0
 14 32  1  0  0  0  0
M  END
> <s_m_source_file>
AV-unprocessed.smi

> <i_m_source_file_index>
949

> <i_lp_mmshare_version>
43012

> <i_f3d_flags>
0

> <s_epik_input>
TzFbQ0gyXVtDSDJdW0NIMl1bQ0BIXTFbQ0BIXShbQ0gzXSlbTkhdYzJbY0hdW2NIXW5bY0hdYzJbTkgyXQ==

> <s_epik_cmdline>
J2VwaWtfcHl0aG9uJywgJy1waCcsICc3LjAnLCAnLXRuJywgJzgnLCAnLW1hJywgJzIwMCcsICctbWV0YWxfYmluZGluZycsICctaW1hZScsICc8aW5maWxlLm1hZT4nLCAnLW9tYWUnLCAnPG91dGZpbGUubWFlPic=

> <r_epik_Ionization_Penalty>
3.88091

> <r_epik_Ionization_Penalty_Charging>
0

> <r_epik_Ionization_Penalty_Neutral>
3.88091

> <r_epik_State_Penalty>
3.88049

> <r_epik_Charging_Adjusted_Penalty>
3.88049

> <i_epik_Tot_Q>
0

> <i_epik_Tot_abs_Q>
0

> <r_epik_Metal_State_Penalty>
0.313783

> <b_epik_Metal_Only>
1

> <s_lp_Force_Field>
OPLS_2005

> <r_lp_Energy>
23.3849

> <b_lp_Chiralities_Consistent>
1

> <s_lp_Variant>
AV-unprocessed.smi:949-6

> <Gold.Version>
5.8.1

> <Gold.Id.Protein>
6NUR|6NUR_protein|mol2

> <Gold.PLP.Fitness>
44.1396

> <Gold.PLP.PLP>
-37.0586

> <Gold.PLP.part.hbond>
-2.0000

> <Gold.PLP.part.metal>
0.0000

> <Gold.PLP.part.buried>
-3.1070

> <Gold.PLP.part.nonpolar>
-32.2062

> <Gold.PLP.part.repulsive>
0.6763

> <Gold.PLP.ligand.clash>
0.0000

> <Gold.PLP.ligand.torsion>
0.0974

> <Gold.PLP.Chemscore.Hbond>
2.0000

> <Gold.PLP.Chemscore.CHOScore>
0.4212

> <Gold.PLP.Chemscore.Metal>
0.0000

> <Gold.Chemscore.Hbonds>
donor molecule, donor type, donor heavy atom, donor atom, acceptor molecule, acceptor atom, score
      L1  H     3    20       P1  8028  1.00
      L1  H    10    24       P1  8028  1.00
      L1  C     8    23       P1  7957  0.40

> <Gold.PLP.Chemscore.Internal.Correction>
0.0122

> <Gold.Rescore>
     Score         DG    S(hbond)    S(metal)    S(lipo)     H(rot)  DE(clash)    DE(int)     intcor
     20.72     -20.98       1.95        0.00     103.36       1.22       0.11       0.15       ----

> <Gold.Chemscore.Fitness>
20.7172

> <Gold.Chemscore.DG>
-20.9825

> <Gold.Chemscore.ZeroCoef>
-5.4800

> <Gold.Chemscore.Hbond>
1.9533

> <Gold.Chemscore.Metal>
0.0000

> <Gold.Chemscore.Lipo>
103.3636

> <Gold.Chemscore.Internal_Hbond>
0.0000

> <Gold.Chemscore.DEClash>
0.1134

> <Gold.Chemscore.DEInternal>
0.1519

> <Gold.Chemscore.Rot>
1.2169

> <Gold.Chemscore.Internal.Correction>
   9.000000E+99

> <Gold.Chemscore.Hbonds>
donor molecule, donor type, donor heavy atom, donor atom, acceptor molecule, acceptor atom, score
      L1  H     3    20       P1  8028  1.00
      L1  H    10    24       P1  8028  0.99

> <Gold.Chemscore.Hbond.Weighted>
-6.5241

> <Gold.Chemscore.Metal.Weighted>
-0.0000

> <Gold.Chemscore.Lipo.Weighted>
-12.0935

> <Gold.Chemscore.Internal_Hbond.Weighted>
0.0000

> <Gold.Chemscore.DEClash.Weighted>
0.1134

> <Gold.Chemscore.DEInternal.Weighted>
0.1519

> <Gold.Chemscore.Rot.Weighted>
3.1152

> <Gold.Chemscore.Internal.Correction.Weighted>
   9.000000E+99

> <Gold.Protein.RotatedTorsions>
[ 6907 6896 6895 6894 ] final  100.49 input  -60.11 | X-H torsion
[ 7974 7965 7964 7962 ] final  -40.62 input  175.53 | X-H torsion
[ 8008 7997 7996 7995 ] final  127.80 input   59.86 | X-H torsion
[ 10167 10162 10161 10158 ] final  144.34 input  -65.29 | X-H torsion
[ 10718 10713 10712 10709 ] final  149.85 input   66.30 | X-H torsion
[ 10763 10752 10751 10750 ] final   94.50 input  -60.55 | X-H torsion
[ 11005 11000 10999 10996 ] final   44.44 input  -57.11 | X-H torsion

> <Gold.Protein.ActiveResidues>
 VAL166  LYS551  ARG553  GLY616  TRP617  ASP618  TYR619  PRO620  LYS621  CYS622 
 ASP623  PHE694  ASN695  SER759  ASP760  ASP761  ALA762  ILE779  LEU786  VAL792 
 PHE793  MET794  SER795  GLU796  ALA797  LYS798  CYS799  TRP800  GLU811  SER814 

> <Gold.Protein.RotatedAtoms>
  152.5371  134.0269  159.8006 H   0  0  0  0  0  0  0  0  0  0  0  0  # atno 6907 bound_to 6896
  151.0446  133.5669  159.2655 H   0  0  0  0  0  0  0  0  0  0  0  0  # atno 6908 bound_to 6896
  151.2626  135.0666  159.9157 H   0  0  0  0  0  0  0  0  0  0  0  0  # atno 6909 bound_to 6896
  146.0288  140.6758  142.9143 H   0  0  0  0  0  0  0  0  0  0  0  0  # atno 7974 bound_to 7965
  156.2900  140.2660  156.2333 H   0  0  0  0  0  0  0  0  0  0  0  0  # atno 8008 bound_to 7997
  155.0051  140.0387  157.2394 H   0  0  0  0  0  0  0  0  0  0  0  0  # atno 8009 bound_to 7997
  154.7567  140.2753  155.6252 H   0  0  0  0  0  0  0  0  0  0  0  0  # atno 8010 bound_to 7997
  139.4949  144.5979  151.6544 H   0  0  0  0  0  0  0  0  0  0  0  0  # atno 10167 bound_to 10162
  157.2909  131.0853  151.1462 H   0  0  0  0  0  0  0  0  0  0  0  0  # atno 10718 bound_to 10713
  153.2423  135.4287  155.0711 H   0  0  0  0  0  0  0  0  0  0  0  0  # atno 10763 bound_to 10752
  154.8346  135.3406  154.6631 H   0  0  0  0  0  0  0  0  0  0  0  0  # atno 10764 bound_to 10752
  153.7054  135.7026  153.5108 H   0  0  0  0  0  0  0  0  0  0  0  0  # atno 10765 bound_to 10752
  140.1551  134.4412  155.8355 H   0  0  0  0  0  0  0  0  0  0  0  0  # atno 11005 bound_to 11000
  144.7021  140.3697  143.7147 LP  0  0  0  0  0  0  0  0  0  0  0  0  # atno 17320 bound_to 7965
  145.7075  139.1676  143.2558 LP  0  0  0  0  0  0  0  0  0  0  0  0  # atno 17321 bound_to 7965
  140.5621  144.0251  150.6175 LP  0  0  0  0  0  0  0  0  0  0  0  0  # atno 17342 bound_to 10162
  140.3340  143.3060  152.0657 LP  0  0  0  0  0  0  0  0  0  0  0  0  # atno 17343 bound_to 10162
  157.2859  130.6773  149.6089 LP  0  0  0  0  0  0  0  0  0  0  0  0  # atno 17370 bound_to 10713
  155.9667  130.4435  150.5425 LP  0  0  0  0  0  0  0  0  0  0  0  0  # atno 17371 bound_to 10713
  141.2203  133.6889  156.7493 LP  0  0  0  0  0  0  0  0  0  0  0  0  # atno 17394 bound_to 11000
  140.2557  134.8506  157.3710 LP  0  0  0  0  0  0  0  0  0  0  0  0  # atno 17395 bound_to 11000

$$$$
