AV-unprocessed.smi:3058|AV-procd|sdf|11673|dock4
  -GOLD-   2272017 73D 1   1.00000     0.00000
 Structure written by MMmdl.
 39 41  0  0  0  0  0  0  0  0  2 V2000
  153.9991  140.2375  158.7851 O   0  0  0  0  0  0  0  0  0  0  0  0
  152.8114  140.4986  158.5921 C   0  0  0  0  0  0  0  0  0  0  0  0
  152.0671  139.8620  157.6743 N   0  0  0  0  0  0  0  0  0  0  0  0
  152.5449  138.7924  156.8061 C   0  0  0  0  0  0  0  0  0  0  0  0
  152.4859  139.1927  155.3219 C   0  0  0  0  0  0  0  0  0  0  0  0
  151.0614  139.3162  154.8175 C   0  0  0  0  0  0  0  0  0  0  0  0
  150.2462  140.3929  155.2315 C   0  0  0  0  0  0  0  0  0  0  0  0
  148.9246  140.4857  154.7472 C   0  0  0  0  0  0  0  0  0  0  0  0
  148.4477  139.4987  153.8607 C   0  0  0  0  0  0  0  0  0  0  0  0
  149.2566  138.4830  153.4868 N   0  3  0  0  0  0  0  0  0  0  0  0
  150.5281  138.3590  153.9273 C   0  0  0  0  0  0  0  0  0  0  0  0
  152.0983  141.5922  159.4072 C   0  0  2  0  0  0  0  0  0  0  0  0
  151.2653  142.5622  158.5330 C   0  0  0  0  0  0  0  0  0  0  0  0
  151.8225  143.9486  158.9125 C   0  0  1  0  0  0  0  0  0  0  0  0
  151.4141  144.2882  160.3588 C   0  0  0  0  0  0  0  0  0  0  0  0
  152.3050  143.3471  161.1929 C   0  0  0  0  0  0  0  0  0  0  0  0
  153.0765  142.5674  160.1108 C   0  0  2  0  0  0  0  0  0  0  0  0
  153.3088  143.6613  159.0686 C   0  0  0  0  0  0  0  0  0  0  0  0
  151.0988  140.1326  157.5787 H   0  0  0  0  0  0  0  0  0  0  0  0
  153.5615  138.5143  157.0901 H   0  0  0  0  0  0  0  0  0  0  0  0
  151.9230  137.9135  156.9788 H   0  0  0  0  0  0  0  0  0  0  0  0
  153.0055  140.1398  155.1701 H   0  0  0  0  0  0  0  0  0  0  0  0
  153.0055  138.4562  154.7074 H   0  0  0  0  0  0  0  0  0  0  0  0
  150.6292  141.1404  155.9113 H   0  0  0  0  0  0  0  0  0  0  0  0
  148.2863  141.3021  155.0523 H   0  0  0  0  0  0  0  0  0  0  0  0
  147.4517  139.4910  153.4426 H   0  0  0  0  0  0  0  0  0  0  0  0
  151.0748  137.5041  153.5562 H   0  0  0  0  0  0  0  0  0  0  0  0
  151.4567  141.1108  160.1477 H   0  0  0  0  0  0  0  0  0  0  0  0
  151.4025  142.3781  157.4661 H   0  0  0  0  0  0  0  0  0  0  0  0
  150.1974  142.4834  158.7396 H   0  0  0  0  0  0  0  0  0  0  0  0
  151.5769  144.7305  158.1934 H   0  0  0  0  0  0  0  0  0  0  0  0
  151.6351  145.3306  160.5916 H   0  0  0  0  0  0  0  0  0  0  0  0
  150.3509  144.1232  160.5374 H   0  0  0  0  0  0  0  0  0  0  0  0
  152.9900  143.9226  161.8168 H   0  0  0  0  0  0  0  0  0  0  0  0
  151.7262  142.6954  161.8484 H   0  0  0  0  0  0  0  0  0  0  0  0
  153.9865  142.0957  160.4844 H   0  0  0  0  0  0  0  0  0  0  0  0
  153.7806  143.3155  158.1487 H   0  0  0  0  0  0  0  0  0  0  0  0
  153.8742  144.5118  159.4537 H   0  0  0  0  0  0  0  0  0  0  0  0
  148.8913  137.7795  152.8444 H   0  0  0  0  0  0  0  0  0  0  0  0
  1  2  2  0  0  0  0
  2  3  1  0  0  0  0
  2 12  1  0  0  0  0
  3  4  1  0  0  0  0
  3 19  1  0  0  0  0
  4  5  1  0  0  0  0
  4 20  1  0  0  0  0
  4 21  1  0  0  0  0
  5  6  1  0  0  0  0
  5 22  1  0  0  0  0
  5 23  1  0  0  0  0
  6 11  1  0  0  0  0
  6  7  2  0  0  0  0
  7  8  1  0  0  0  0
  7 24  1  0  0  0  0
  8  9  2  0  0  0  0
  8 25  1  0  0  0  0
  9 10  1  0  0  0  0
  9 26  1  0  0  0  0
 10 11  2  0  0  0  0
 10 39  1  0  0  0  0
 11 27  1  0  0  0  0
 12 17  1  0  0  0  0
 12 13  1  0  0  0  0
 12 28  1  0  0  0  0
 13 14  1  0  0  0  0
 13 29  1  0  0  0  0
 13 30  1  0  0  0  0
 14 18  1  0  0  0  0
 14 15  1  0  0  0  0
 14 31  1  0  0  0  0
 15 16  1  0  0  0  0
 15 32  1  0  0  0  0
 15 33  1  0  0  0  0
 16 17  1  0  0  0  0
 16 34  1  0  0  0  0
 16 35  1  0  0  0  0
 17 18  1  0  0  0  0
 17 36  1  0  0  0  0
 18 37  1  0  0  0  0
 18 38  1  0  0  0  0
M  CHG  1  10   1
M  END
> <s_m_source_file>
AV-unprocessed.smi

> <i_m_source_file_index>
3058

> <i_lp_mmshare_version>
43012

> <i_f3d_flags>
0

> <s_epik_input>
W0NIMl0xW0NIMl1bQ0BIXShbQ0gyXTIpW0NAQEhdKFtDSDJdW0NAQEhdMTIpQyg9TylbTkhdW0NIMl1bQ0gyXWMzW2NIXVtjSF1bY0hdbltjSF0z

> <s_epik_cmdline>
J2VwaWtfcHl0aG9uJywgJy1waCcsICc3LjAnLCAnLXRuJywgJzgnLCAnLW1hJywgJzIwMCcsICctbWV0YWxfYmluZGluZycsICctaW1hZScsICc8aW5maWxlLm1hZT4nLCAnLW9tYWUnLCAnPG91dGZpbGUubWFlPic=

> <r_epik_Ionization_Penalty>
2.24375

> <r_epik_Ionization_Penalty_Charging>
2.24375

> <r_epik_Ionization_Penalty_Neutral>
1.89995e-08

> <r_epik_State_Penalty>
2.39035

> <r_epik_Charging_Adjusted_Penalty>
4.63411

> <i_epik_Tot_Q>
1

> <i_epik_Tot_abs_Q>
1

> <r_epik_Metal_State_Penalty>
2.40369

> <b_epik_Metal_Only>
0

> <s_lp_Force_Field>
OPLS_2005

> <r_lp_Energy>
53.6325

> <b_lp_Chiralities_Consistent>
1

> <s_lp_Variant>
AV-unprocessed.smi:3058-5

> <Gold.Version>
5.8.1

> <Gold.Id.Protein>
6NUR|6NUR_protein|mol2

> <Gold.PLP.Fitness>
51.2311

> <Gold.PLP.PLP>
-43.2648

> <Gold.PLP.part.hbond>
-3.0000

> <Gold.PLP.part.metal>
0.0000

> <Gold.PLP.part.buried>
-1.7250

> <Gold.PLP.part.nonpolar>
-38.3620

> <Gold.PLP.part.repulsive>
0.1457

> <Gold.PLP.ligand.clash>
0.0000

> <Gold.PLP.ligand.torsion>
0.5306

> <Gold.PLP.Chemscore.Hbond>
3.0000

> <Gold.PLP.Chemscore.CHOScore>
0.0000

> <Gold.PLP.Chemscore.Metal>
0.0000

> <Gold.Chemscore.Hbonds>
donor molecule, donor type, donor heavy atom, donor atom, acceptor molecule, acceptor atom, score
      L1  H    10    39       P1  7948  2.00
      P1  H  7997  8008       L1     1  0.90

> <Gold.PLP.Chemscore.Internal.Correction>
0.0275

> <Gold.Rescore>
     Score         DG    S(hbond)    S(metal)    S(lipo)     H(rot)  DE(clash)    DE(int)     intcor
     21.75     -22.37       1.75        0.00     126.36       1.45       0.05       0.58       ----

> <Gold.Chemscore.Fitness>
21.7453

> <Gold.Chemscore.DG>
-22.3680

> <Gold.Chemscore.ZeroCoef>
-5.4800

> <Gold.Chemscore.Hbond>
1.7450

> <Gold.Chemscore.Metal>
0.0000

> <Gold.Chemscore.Lipo>
126.3573

> <Gold.Chemscore.Internal_Hbond>
0.0000

> <Gold.Chemscore.DEClash>
0.0460

> <Gold.Chemscore.DEInternal>
0.5767

> <Gold.Chemscore.Rot>
1.4548

> <Gold.Chemscore.Internal.Correction>
   9.000000E+99

> <Gold.Chemscore.Hbonds>
donor molecule, donor type, donor heavy atom, donor atom, acceptor molecule, acceptor atom, score
      L1  H    10    39       P1  7948  0.98
      P1  H  7997  8008       L1     1  0.66

> <Gold.Chemscore.Hbond.Weighted>
-5.8284

> <Gold.Chemscore.Metal.Weighted>
-0.0000

> <Gold.Chemscore.Lipo.Weighted>
-14.7838

> <Gold.Chemscore.Internal_Hbond.Weighted>
0.0000

> <Gold.Chemscore.DEClash.Weighted>
0.0460

> <Gold.Chemscore.DEInternal.Weighted>
0.5767

> <Gold.Chemscore.Rot.Weighted>
3.7242

> <Gold.Chemscore.Internal.Correction.Weighted>
   9.000000E+99

> <Gold.Protein.RotatedTorsions>
[ 6907 6896 6895 6894 ] final   13.56 input  -60.11 | X-H torsion
[ 7974 7965 7964 7962 ] final  -96.73 input  175.53 | X-H torsion
[ 8008 7997 7996 7995 ] final -103.30 input   59.86 | X-H torsion
[ 10167 10162 10161 10158 ] final  -13.95 input  -65.29 | X-H torsion
[ 10718 10713 10712 10709 ] final -108.68 input   66.30 | X-H torsion
[ 10763 10752 10751 10750 ] final  -73.92 input  -60.55 | X-H torsion
[ 11005 11000 10999 10996 ] final   47.84 input  -57.11 | X-H torsion

> <Gold.Protein.ActiveResidues>
 VAL166  LYS551  ARG553  GLY616  TRP617  ASP618  TYR619  PRO620  LYS621  CYS622 
 ASP623  PHE694  ASN695  SER759  ASP760  ASP761  ALA762  ILE779  LEU786  VAL792 
 PHE793  MET794  SER795  GLU796  ALA797  LYS798  CYS799  TRP800  GLU811  SER814 

> <Gold.Protein.RotatedAtoms>
  151.7883  135.0743  160.0383 H   0  0  0  0  0  0  0  0  0  0  0  0  # atno 6907 bound_to 6896
  152.3174  133.5813  159.5730 H   0  0  0  0  0  0  0  0  0  0  0  0  # atno 6908 bound_to 6896
  150.7351  133.9978  159.3670 H   0  0  0  0  0  0  0  0  0  0  0  0  # atno 6909 bound_to 6896
  145.3430  140.9463  143.2597 H   0  0  0  0  0  0  0  0  0  0  0  0  # atno 7974 bound_to 7965
  154.8690  140.0423  157.1712 H   0  0  0  0  0  0  0  0  0  0  0  0  # atno 8008 bound_to 7997
  154.8759  140.2965  155.5433 H   0  0  0  0  0  0  0  0  0  0  0  0  # atno 8009 bound_to 7997
  156.2999  140.2420  156.3755 H   0  0  0  0  0  0  0  0  0  0  0  0  # atno 8010 bound_to 7997
  140.7192  143.5373  150.9450 H   0  0  0  0  0  0  0  0  0  0  0  0  # atno 10167 bound_to 10162
  156.0498  130.5725  150.7994 H   0  0  0  0  0  0  0  0  0  0  0  0  # atno 10718 bound_to 10713
  154.4660  135.5881  153.6288 H   0  0  0  0  0  0  0  0  0  0  0  0  # atno 10763 bound_to 10752
  152.9829  135.6055  154.3426 H   0  0  0  0  0  0  0  0  0  0  0  0  # atno 10764 bound_to 10752
  154.3303  135.2842  155.2454 H   0  0  0  0  0  0  0  0  0  0  0  0  # atno 10765 bound_to 10752
  140.1243  134.4788  155.8572 H   0  0  0  0  0  0  0  0  0  0  0  0  # atno 11005 bound_to 11000
  144.8776  139.4950  143.6738 LP  0  0  0  0  0  0  0  0  0  0  0  0  # atno 17320 bound_to 7965
  146.2999  139.7395  142.9099 LP  0  0  0  0  0  0  0  0  0  0  0  0  # atno 17321 bound_to 7965
  139.9095  143.6738  152.3117 LP  0  0  0  0  0  0  0  0  0  0  0  0  # atno 17342 bound_to 10162
  139.7116  144.7619  151.1103 LP  0  0  0  0  0  0  0  0  0  0  0  0  # atno 17343 bound_to 10162
  157.5412  131.0941  150.9825 LP  0  0  0  0  0  0  0  0  0  0  0  0  # atno 17370 bound_to 10713
  157.0107  130.5636  149.5320 LP  0  0  0  0  0  0  0  0  0  0  0  0  # atno 17371 bound_to 10713
  141.2158  133.6772  156.6948 LP  0  0  0  0  0  0  0  0  0  0  0  0  # atno 17394 bound_to 11000
  140.2924  134.8230  157.4028 LP  0  0  0  0  0  0  0  0  0  0  0  0  # atno 17395 bound_to 11000

$$$$
