AV-unprocessed.smi:3241|AV-procd|sdf|12391|dock4
  -GOLD-   2272018263D 1   1.00000     0.00000
 Structure written by MMmdl.
 43 44  0  0  0  0  0  0  0  0  1 V2000
  153.2321  141.4553  160.2613 C   0  0  0  0  0  0  0  0  0  0  0  0
  152.8734  142.7892  159.5883 C   0  0  2  0  0  0  0  0  0  0  0  0
  152.3239  143.8144  160.6011 C   0  0  0  0  0  0  0  0  0  0  0  0
  151.9993  145.1575  159.9274 C   0  0  0  0  0  0  0  0  0  0  0  0
  151.0322  144.9724  158.7485 C   0  0  0  0  0  0  0  0  0  0  0  0
  151.5770  143.9520  157.7361 C   0  0  0  0  0  0  0  0  0  0  0  0
  151.9010  142.5985  158.4029 C   0  0  2  0  0  0  0  0  0  0  0  0
  150.6925  142.0152  158.8844 O   0  0  0  0  0  0  0  0  0  0  0  0
  149.5686  142.0906  158.0135 C   0  0  0  0  0  0  0  0  0  0  0  0
  149.0602  140.7035  157.5901 C   0  0  0  0  0  0  0  0  0  0  0  0
  147.9642  140.8243  156.6367 N   0  0  0  0  0  0  0  0  0  0  0  0
  148.0121  139.8490  155.5527 C   0  0  0  0  0  0  0  0  0  0  0  0
  148.9932  140.2820  154.4522 C   0  0  0  0  0  0  0  0  0  0  0  0
  150.2222  139.5071  154.4837 N   0  0  0  0  0  0  0  0  0  0  0  0
  150.3978  138.1692  154.1992 C   0  0  0  0  0  0  0  0  0  0  0  0
  151.7219  137.8863  154.3752 C   0  0  0  0  0  0  0  0  0  0  0  0
  152.2836  139.1322  154.7719 C   0  0  0  0  0  0  0  0  0  0  0  0
  151.3841  140.1005  154.8345 N   0  0  0  0  0  0  0  0  0  0  0  0
  152.3588  140.9941  160.7236 H   0  0  0  0  0  0  0  0  0  0  0  0
  153.9818  141.5987  161.0399 H   0  0  0  0  0  0  0  0  0  0  0  0
  153.6388  140.7480  159.5381 H   0  0  0  0  0  0  0  0  0  0  0  0
  153.8009  143.1971  159.1836 H   0  0  0  0  0  0  0  0  0  0  0  0
  151.4251  143.4202  161.0774 H   0  0  0  0  0  0  0  0  0  0  0  0
  153.0487  143.9745  161.3999 H   0  0  0  0  0  0  0  0  0  0  0  0
  151.5686  145.8442  160.6566 H   0  0  0  0  0  0  0  0  0  0  0  0
  152.9209  145.6208  159.5735 H   0  0  0  0  0  0  0  0  0  0  0  0
  150.0613  144.6394  159.1180 H   0  0  0  0  0  0  0  0  0  0  0  0
  150.8610  145.9291  158.2549 H   0  0  0  0  0  0  0  0  0  0  0  0
  150.8608  143.8221  156.9256 H   0  0  0  0  0  0  0  0  0  0  0  0
  152.4819  144.3515  157.2770 H   0  0  0  0  0  0  0  0  0  0  0  0
  152.3800  141.9483  157.6686 H   0  0  0  0  0  0  0  0  0  0  0  0
  148.7711  142.6597  158.4932 H   0  0  0  0  0  0  0  0  0  0  0  0
  149.8616  142.6594  157.1307 H   0  0  0  0  0  0  0  0  0  0  0  0
  149.8712  140.1107  157.1672 H   0  0  0  0  0  0  0  0  0  0  0  0
  148.7172  140.1654  158.4744 H   0  0  0  0  0  0  0  0  0  0  0  0
  147.0720  140.7718  157.1179 H   0  0  0  0  0  0  0  0  0  0  0  0
  148.3062  138.8722  155.9387 H   0  0  0  0  0  0  0  0  0  0  0  0
  147.0172  139.7271  155.1234 H   0  0  0  0  0  0  0  0  0  0  0  0
  148.5334  140.1452  153.4729 H   0  0  0  0  0  0  0  0  0  0  0  0
  149.2286  141.3440  154.5412 H   0  0  0  0  0  0  0  0  0  0  0  0
  149.5741  137.5367  153.9026 H   0  0  0  0  0  0  0  0  0  0  0  0
  152.2144  136.9344  154.2435 H   0  0  0  0  0  0  0  0  0  0  0  0
  153.3108  139.3597  155.0161 H   0  0  0  0  0  0  0  0  0  0  0  0
  1  2  1  0  0  0  0
  1 19  1  0  0  0  0
  1 20  1  0  0  0  0
  1 21  1  0  0  0  0
  2  7  1  0  0  0  0
  2  3  1  0  0  0  0
  2 22  1  0  0  0  0
  3  4  1  0  0  0  0
  3 23  1  0  0  0  0
  3 24  1  0  0  0  0
  4  5  1  0  0  0  0
  4 25  1  0  0  0  0
  4 26  1  0  0  0  0
  5  6  1  0  0  0  0
  5 27  1  0  0  0  0
  5 28  1  0  0  0  0
  6  7  1  0  0  0  0
  6 29  1  0  0  0  0
  6 30  1  0  0  0  0
  7  8  1  0  0  0  0
  7 31  1  0  0  0  0
  8  9  1  0  0  0  0
  9 10  1  0  0  0  0
  9 32  1  0  0  0  0
  9 33  1  0  0  0  0
 10 11  1  0  0  0  0
 10 34  1  0  0  0  0
 10 35  1  0  0  0  0
 11 12  1  0  0  0  0
 11 36  1  0  0  0  0
 12 13  1  0  0  0  0
 12 37  1  0  0  0  0
 12 38  1  0  0  0  0
 13 14  1  0  0  0  0
 13 39  1  0  0  0  0
 13 40  1  0  0  0  0
 14 18  1  0  0  0  0
 14 15  1  0  0  0  0
 15 16  2  0  0  0  0
 15 41  1  0  0  0  0
 16 17  1  0  0  0  0
 16 42  1  0  0  0  0
 17 18  2  0  0  0  0
 17 43  1  0  0  0  0
M  END
> <s_m_source_file>
AV-unprocessed.smi

> <i_m_source_file_index>
3241

> <i_lp_mmshare_version>
43012

> <i_f3d_flags>
0

> <s_epik_input>
W0NIM11bQ0BASF0xW0NIMl1bQ0gyXVtDSDJdW0NIMl1bQ0BIXTFPW0NIMl1bQ0gyXVtOSF1bQ0gyXVtDSDJdbjJbY0hdW2NIXVtjSF1uMg==

> <s_epik_cmdline>
J2VwaWtfcHl0aG9uJywgJy1waCcsICc3LjAnLCAnLXRuJywgJzgnLCAnLW1hJywgJzIwMCcsICctbWV0YWxfYmluZGluZycsICctaW1hZScsICc8aW5maWxlLm1hZT4nLCAnLW9tYWUnLCAnPG91dGZpbGUubWFlPic=

> <r_lp_tautomer_probability>
1

> <r_epik_Ionization_Penalty>
2.47055

> <r_epik_Ionization_Penalty_Charging>
0

> <r_epik_Ionization_Penalty_Neutral>
2.47055

> <r_epik_State_Penalty>
2.6322

> <r_epik_Charging_Adjusted_Penalty>
2.6322

> <i_epik_Tot_Q>
0

> <i_epik_Tot_abs_Q>
0

> <r_epik_Metal_State_Penalty>
2.63108

> <b_epik_Metal_Only>
0

> <s_lp_Force_Field>
OPLS_2005

> <r_lp_Energy>
17.4206

> <b_lp_Chiralities_Consistent>
1

> <s_lp_Variant>
AV-unprocessed.smi:3241-7

> <Gold.Version>
5.8.1

> <Gold.Id.Protein>
6NUR|6NUR_protein|mol2

> <Gold.PLP.Fitness>
47.6842

> <Gold.PLP.PLP>
-44.0883

> <Gold.PLP.part.hbond>
-1.1821

> <Gold.PLP.part.metal>
0.0000

> <Gold.PLP.part.buried>
-5.5972

> <Gold.PLP.part.nonpolar>
-38.3965

> <Gold.PLP.part.repulsive>
0.0799

> <Gold.PLP.ligand.clash>
0.0000

> <Gold.PLP.ligand.torsion>
1.2724

> <Gold.PLP.Chemscore.Hbond>
1.0000

> <Gold.PLP.Chemscore.CHOScore>
1.0000

> <Gold.PLP.Chemscore.Metal>
0.0000

> <Gold.Chemscore.Hbonds>
donor molecule, donor type, donor heavy atom, donor atom, acceptor molecule, acceptor atom, score
      P1  H  7989  7998       L1    18  0.90
      L1  C    15    41       P1  7948  1.00

> <Gold.PLP.Chemscore.Internal.Correction>
0.1407

> <Gold.Rescore>
     Score         DG    S(hbond)    S(metal)    S(lipo)     H(rot)  DE(clash)    DE(int)     intcor
     17.02     -18.32       0.95        0.00     121.71       1.79       0.06       1.24       ----

> <Gold.Chemscore.Fitness>
17.0233

> <Gold.Chemscore.DG>
-18.3240

> <Gold.Chemscore.ZeroCoef>
-5.4800

> <Gold.Chemscore.Hbond>
0.9541

> <Gold.Chemscore.Metal>
0.0000

> <Gold.Chemscore.Lipo>
121.7101

> <Gold.Chemscore.Internal_Hbond>
0.0000

> <Gold.Chemscore.DEClash>
0.0595

> <Gold.Chemscore.DEInternal>
1.2413

> <Gold.Chemscore.Rot>
1.7901

> <Gold.Chemscore.Internal.Correction>
   9.000000E+99

> <Gold.Chemscore.Hbonds>
donor molecule, donor type, donor heavy atom, donor atom, acceptor molecule, acceptor atom, score
      P1  H  7989  7998       L1    18  0.06

> <Gold.Chemscore.Hbond.Weighted>
-3.1867

> <Gold.Chemscore.Metal.Weighted>
-0.0000

> <Gold.Chemscore.Lipo.Weighted>
-14.2401

> <Gold.Chemscore.Internal_Hbond.Weighted>
0.0000

> <Gold.Chemscore.DEClash.Weighted>
0.0595

> <Gold.Chemscore.DEInternal.Weighted>
1.2413

> <Gold.Chemscore.Rot.Weighted>
4.5827

> <Gold.Chemscore.Internal.Correction.Weighted>
   9.000000E+99

> <Gold.Protein.RotatedTorsions>
[ 6907 6896 6895 6894 ] final   75.33 input  -60.11 | X-H torsion
[ 7974 7965 7964 7962 ] final   18.35 input  175.53 | X-H torsion
[ 8008 7997 7996 7995 ] final  170.07 input   59.86 | X-H torsion
[ 10167 10162 10161 10158 ] final -169.71 input  -65.29 | X-H torsion
[ 10718 10713 10712 10709 ] final -176.99 input   66.30 | X-H torsion
[ 10763 10752 10751 10750 ] final   87.68 input  -60.55 | X-H torsion
[ 11005 11000 10999 10996 ] final  129.29 input  -57.11 | X-H torsion

> <Gold.Protein.ActiveResidues>
 VAL166  LYS551  ARG553  GLY616  TRP617  ASP618  TYR619  PRO620  LYS621  CYS622 
 ASP623  PHE694  ASN695  SER759  ASP760  ASP761  ALA762  ILE779  LEU786  VAL792 
 PHE793  MET794  SER795  GLU796  ALA797  LYS798  CYS799  TRP800  GLU811  SER814 

> <Gold.Protein.RotatedAtoms>
  152.5020  134.4137  159.9456 H   0  0  0  0  0  0  0  0  0  0  0  0  # atno 6907 bound_to 6896
  151.4106  133.3722  159.2751 H   0  0  0  0  0  0  0  0  0  0  0  0  # atno 6908 bound_to 6896
  150.9294  134.8732  159.7601 H   0  0  0  0  0  0  0  0  0  0  0  0  # atno 6909 bound_to 6896
  146.2188  139.8470  142.8630 H   0  0  0  0  0  0  0  0  0  0  0  0  # atno 7974 bound_to 7965
  156.1400  140.1547  156.8936 H   0  0  0  0  0  0  0  0  0  0  0  0  # atno 8008 bound_to 7997
  154.4979  140.0833  156.7774 H   0  0  0  0  0  0  0  0  0  0  0  0  # atno 8009 bound_to 7997
  155.4097  140.3418  155.4265 H   0  0  0  0  0  0  0  0  0  0  0  0  # atno 8010 bound_to 7997
  139.5906  144.1222  152.1629 H   0  0  0  0  0  0  0  0  0  0  0  0  # atno 10167 bound_to 10162
  156.8228  130.9626  151.3111 H   0  0  0  0  0  0  0  0  0  0  0  0  # atno 10718 bound_to 10713
  153.1693  135.4534  154.9880 H   0  0  0  0  0  0  0  0  0  0  0  0  # atno 10763 bound_to 10752
  154.7954  135.3236  154.7681 H   0  0  0  0  0  0  0  0  0  0  0  0  # atno 10764 bound_to 10752
  153.8160  135.6951  153.4889 H   0  0  0  0  0  0  0  0  0  0  0  0  # atno 10765 bound_to 10752
  139.9607  134.9603  156.9127 H   0  0  0  0  0  0  0  0  0  0  0  0  # atno 11005 bound_to 11000
  145.2841  141.0147  143.3701 LP  0  0  0  0  0  0  0  0  0  0  0  0  # atno 17320 bound_to 7965
  144.9128  139.4508  143.6579 LP  0  0  0  0  0  0  0  0  0  0  0  0  # atno 17321 bound_to 7965
  140.0796  144.5712  150.7132 LP  0  0  0  0  0  0  0  0  0  0  0  0  # atno 17342 bound_to 10162
  140.7169  143.2553  151.4404 LP  0  0  0  0  0  0  0  0  0  0  0  0  # atno 17343 bound_to 10162
  157.6448  130.8835  149.9516 LP  0  0  0  0  0  0  0  0  0  0  0  0  # atno 17370 bound_to 10713
  156.0979  130.3658  150.0273 LP  0  0  0  0  0  0  0  0  0  0  0  0  # atno 17371 bound_to 10713
  140.5506  134.0630  155.7368 LP  0  0  0  0  0  0  0  0  0  0  0  0  # atno 17394 bound_to 11000
  141.1284  133.9344  157.2587 LP  0  0  0  0  0  0  0  0  0  0  0  0  # atno 17395 bound_to 11000

$$$$
