AV-unprocessed.smi:476|AV-procd|sdf|2669|dock6
  -GOLD-   2262023 83D 1   1.00000     0.00000
 Structure written by MMmdl.
 39 40  0  0  0  0  0  0  0  0  1 V2000
  148.2720  139.6840  154.0317 C   0  0  0  0  0  0  0  0  0  0  0  0
  149.4448  140.1665  154.8670 C   0  0  0  0  0  0  0  0  0  0  0  0
  149.4385  141.2328  155.6740 C   0  0  0  0  0  0  0  0  0  0  0  0
  150.9558  141.4567  156.5101 S   0  0  0  0  0  0  0  0  0  0  0  0
  151.6268  139.9955  155.7011 C   0  0  0  0  0  0  0  0  0  0  0  0
  152.7700  139.5881  155.9008 O   0  0  0  0  0  0  0  0  0  0  0  0
  150.6549  139.4590  154.8566 N   0  0  0  0  0  0  0  0  0  0  0  0
  150.8968  138.2678  154.0321 C   0  0  0  0  0  0  0  0  0  0  0  0
  150.9216  136.9730  154.8533 C   0  0  0  0  0  0  0  0  0  0  0  0
  151.6011  136.8870  155.8771 O   0  0  0  0  0  0  0  0  0  0  0  0
  150.1617  135.9699  154.3891 N   0  0  0  0  0  0  0  0  0  0  0  0
  150.0801  134.6352  154.9748 C   0  0  0  0  0  0  0  0  0  0  0  0
  149.5813  133.5746  153.9713 C   0  0  0  0  0  0  0  0  0  0  0  0
  150.3469  132.2606  154.0345 C   0  0  0  0  0  0  0  0  0  0  0  0
  151.4200  132.0982  154.8333 C   0  0  0  0  0  0  0  0  0  0  0  0
  152.2401  130.8230  154.9102 C   0  0  0  0  0  0  0  0  0  0  0  0
  151.9491  129.8707  153.7387 C   0  0  0  0  0  0  0  0  0  0  0  0
  150.4426  129.7718  153.4676 C   0  0  0  0  0  0  0  0  0  0  0  0
  149.8420  131.1469  153.1245 C   0  0  0  0  0  0  0  0  0  0  0  0
  147.3464  140.1482  154.3731 H   0  0  0  0  0  0  0  0  0  0  0  0
  148.1437  138.6042  154.1090 H   0  0  0  0  0  0  0  0  0  0  0  0
  148.4178  139.9487  152.9843 H   0  0  0  0  0  0  0  0  0  0  0  0
  148.6104  141.9063  155.8388 H   0  0  0  0  0  0  0  0  0  0  0  0
  150.1612  138.1723  153.2344 H   0  0  0  0  0  0  0  0  0  0  0  0
  151.8565  138.3823  153.5243 H   0  0  0  0  0  0  0  0  0  0  0  0
  149.6292  136.1299  153.5460 H   0  0  0  0  0  0  0  0  0  0  0  0
  151.0492  134.3444  155.3829 H   0  0  0  0  0  0  0  0  0  0  0  0
  149.3962  134.6885  155.8221 H   0  0  0  0  0  0  0  0  0  0  0  0
  148.5241  133.3788  154.1551 H   0  0  0  0  0  0  0  0  0  0  0  0
  149.6396  133.9686  152.9564 H   0  0  0  0  0  0  0  0  0  0  0  0
  151.7433  132.9081  155.4712 H   0  0  0  0  0  0  0  0  0  0  0  0
  153.3001  131.0771  154.9258 H   0  0  0  0  0  0  0  0  0  0  0  0
  152.0165  130.3348  155.8591 H   0  0  0  0  0  0  0  0  0  0  0  0
  152.4512  130.2343  152.8411 H   0  0  0  0  0  0  0  0  0  0  0  0
  152.3647  128.8846  153.9478 H   0  0  0  0  0  0  0  0  0  0  0  0
  150.2477  129.0685  152.6574 H   0  0  0  0  0  0  0  0  0  0  0  0
  149.9464  129.3691  154.3516 H   0  0  0  0  0  0  0  0  0  0  0  0
  148.7544  131.0939  153.1808 H   0  0  0  0  0  0  0  0  0  0  0  0
  150.0924  131.4105  152.0964 H   0  0  0  0  0  0  0  0  0  0  0  0
  1  2  1  0  0  0  0
  1 20  1  0  0  0  0
  1 21  1  0  0  0  0
  1 22  1  0  0  0  0
  2  7  1  0  0  0  0
  2  3  2  0  0  0  0
  3  4  1  0  0  0  0
  3 23  1  0  0  0  0
  4  5  1  0  0  0  0
  5  6  2  0  0  0  0
  5  7  1  0  0  0  0
  7  8  1  0  0  0  0
  8  9  1  0  0  0  0
  8 24  1  0  0  0  0
  8 25  1  0  0  0  0
  9 10  2  0  0  0  0
  9 11  1  0  0  0  0
 11 12  1  0  0  0  0
 11 26  1  0  0  0  0
 12 13  1  0  0  0  0
 12 27  1  0  0  0  0
 12 28  1  0  0  0  0
 13 14  1  0  0  0  0
 13 29  1  0  0  0  0
 13 30  1  0  0  0  0
 14 19  1  0  0  0  0
 14 15  2  0  0  0  0
 15 16  1  0  0  0  0
 15 31  1  0  0  0  0
 16 17  1  0  0  0  0
 16 32  1  0  0  0  0
 16 33  1  0  0  0  0
 17 18  1  0  0  0  0
 17 34  1  0  0  0  0
 17 35  1  0  0  0  0
 18 19  1  0  0  0  0
 18 36  1  0  0  0  0
 18 37  1  0  0  0  0
 19 38  1  0  0  0  0
 19 39  1  0  0  0  0
M  END
> <s_m_source_file>
AV-unprocessed.smi

> <i_m_source_file_index>
476

> <i_lp_mmshare_version>
43012

> <i_f3d_flags>
0

> <s_epik_input>
W0NIM11jMVtjSF1zYyg9TyluMVtDSDJdQyg9TylbTkhdW0NIMl1bQ0gyXUMyPVtDSF1bQ0gyXVtDSDJdW0NIMl1bQ0gyXTI=

> <s_epik_cmdline>
J2VwaWtfcHl0aG9uJywgJy1waCcsICc3LjAnLCAnLXRuJywgJzgnLCAnLW1hJywgJzIwMCcsICctbWV0YWxfYmluZGluZycsICctaW1hZScsICc8aW5maWxlLm1hZT4nLCAnLW9tYWUnLCAnPG91dGZpbGUubWFlPic=

> <r_lp_tautomer_probability>
1

> <r_epik_Ionization_Penalty>
1.31088e-06

> <r_epik_Ionization_Penalty_Charging>
1.18065e-06

> <r_epik_Ionization_Penalty_Neutral>
1.30231e-07

> <r_epik_State_Penalty>
-0

> <r_epik_Charging_Adjusted_Penalty>
1.18065e-06

> <i_epik_Tot_Q>
0

> <i_epik_Tot_abs_Q>
0

> <r_epik_Metal_State_Penalty>
-0

> <b_epik_Metal_Only>
0

> <s_lp_Force_Field>
OPLS_2005

> <r_lp_Energy>
10.5339

> <b_lp_Chiralities_Consistent>
1

> <s_lp_Variant>
AV-unprocessed.smi:476-1

> <Gold.Version>
5.8.1

> <Gold.Id.Protein>
6NUR|6NUR_protein|mol2

> <Gold.PLP.Fitness>
47.3068

> <Gold.PLP.PLP>
-39.7521

> <Gold.PLP.part.hbond>
-2.0492

> <Gold.PLP.part.metal>
0.0000

> <Gold.PLP.part.buried>
-0.6865

> <Gold.PLP.part.nonpolar>
-36.0195

> <Gold.PLP.part.repulsive>
0.0686

> <Gold.PLP.ligand.clash>
0.0000

> <Gold.PLP.ligand.torsion>
0.7391

> <Gold.PLP.Chemscore.Hbond>
2.0000

> <Gold.PLP.Chemscore.CHOScore>
1.0000

> <Gold.PLP.Chemscore.Metal>
0.0000

> <Gold.Chemscore.Hbonds>
donor molecule, donor type, donor heavy atom, donor atom, acceptor molecule, acceptor atom, score
      L1  H    11    26       P1  7948  1.00
      P1  H  7997  8010       L1     6  1.00
      L1  C     3    23       P1  8028  0.22

> <Gold.PLP.Chemscore.Internal.Correction>
0.0330

> <Gold.Rescore>
     Score         DG    S(hbond)    S(metal)    S(lipo)     H(rot)  DE(clash)    DE(int)     intcor
     15.55     -16.57       1.87        0.00      78.90       1.72       0.16       0.85       ----

> <Gold.Chemscore.Fitness>
15.5490

> <Gold.Chemscore.DG>
-16.5652

> <Gold.Chemscore.ZeroCoef>
-5.4800

> <Gold.Chemscore.Hbond>
1.8744

> <Gold.Chemscore.Metal>
0.0000

> <Gold.Chemscore.Lipo>
78.9049

> <Gold.Chemscore.Internal_Hbond>
0.0000

> <Gold.Chemscore.DEClash>
0.1639

> <Gold.Chemscore.DEInternal>
0.8523

> <Gold.Chemscore.Rot>
1.7215

> <Gold.Chemscore.Internal.Correction>
   9.000000E+99

> <Gold.Chemscore.Hbonds>
donor molecule, donor type, donor heavy atom, donor atom, acceptor molecule, acceptor atom, score
      L1  H    11    26       P1  7948  0.35
      P1  H  7997  8010       L1     6  1.00

> <Gold.Chemscore.Hbond.Weighted>
-6.2604

> <Gold.Chemscore.Metal.Weighted>
-0.0000

> <Gold.Chemscore.Lipo.Weighted>
-9.2319

> <Gold.Chemscore.Internal_Hbond.Weighted>
0.0000

> <Gold.Chemscore.DEClash.Weighted>
0.1639

> <Gold.Chemscore.DEInternal.Weighted>
0.8523

> <Gold.Chemscore.Rot.Weighted>
4.4070

> <Gold.Chemscore.Internal.Correction.Weighted>
   9.000000E+99

> <Gold.Protein.RotatedTorsions>
[ 6907 6896 6895 6894 ] final    8.54 input  -60.11 | X-H torsion
[ 7974 7965 7964 7962 ] final -154.48 input  175.53 | X-H torsion
[ 8008 7997 7996 7995 ] final   83.70 input   59.86 | X-H torsion
[ 10167 10162 10161 10158 ] final   59.47 input  -65.29 | X-H torsion
[ 10718 10713 10712 10709 ] final   82.12 input   66.30 | X-H torsion
[ 10763 10752 10751 10750 ] final  -72.05 input  -60.55 | X-H torsion
[ 11005 11000 10999 10996 ] final -127.95 input  -57.11 | X-H torsion

> <Gold.Protein.ActiveResidues>
 VAL166  LYS551  ARG553  GLY616  TRP617  ASP618  TYR619  PRO620  LYS621  CYS622 
 ASP623  PHE694  ASN695  SER759  ASP760  ASP761  ALA762  ILE779  LEU786  VAL792 
 PHE793  MET794  SER795  GLU796  ALA797  LYS798  CYS799  TRP800  GLU811  SER814 

> <Gold.Protein.RotatedAtoms>
  151.7077  135.0918  160.0261 H   0  0  0  0  0  0  0  0  0  0  0  0  # atno 6907 bound_to 6896
  152.3681  133.6379  159.6074 H   0  0  0  0  0  0  0  0  0  0  0  0  # atno 6908 bound_to 6896
  150.7653  133.9231  159.3445 H   0  0  0  0  0  0  0  0  0  0  0  0  # atno 6909 bound_to 6896
  144.7687  140.4382  143.5923 H   0  0  0  0  0  0  0  0  0  0  0  0  # atno 7974 bound_to 7965
  155.9274  140.3417  155.6221 H   0  0  0  0  0  0  0  0  0  0  0  0  # atno 8008 bound_to 7997
  155.7200  140.0782  157.2353 H   0  0  0  0  0  0  0  0  0  0  0  0  # atno 8009 bound_to 7997
  154.4079  140.1607  156.2379 H   0  0  0  0  0  0  0  0  0  0  0  0  # atno 8010 bound_to 7997
  140.1761  144.4229  150.6638 H   0  0  0  0  0  0  0  0  0  0  0  0  # atno 10167 bound_to 10162
  157.6850  131.0034  150.2328 H   0  0  0  0  0  0  0  0  0  0  0  0  # atno 10718 bound_to 10713
  154.4402  135.5942  153.6125 H   0  0  0  0  0  0  0  0  0  0  0  0  # atno 10763 bound_to 10752
  152.9805  135.5996  154.3731 H   0  0  0  0  0  0  0  0  0  0  0  0  # atno 10764 bound_to 10752
  154.3580  135.2841  155.2314 H   0  0  0  0  0  0  0  0  0  0  0  0  # atno 10765 bound_to 10752
  140.9557  134.1005  157.4019 H   0  0  0  0  0  0  0  0  0  0  0  0  # atno 11005 bound_to 11000
  145.6390  139.1547  143.2926 LP  0  0  0  0  0  0  0  0  0  0  0  0  # atno 17320 bound_to 7965
  146.1816  140.6488  142.9186 LP  0  0  0  0  0  0  0  0  0  0  0  0  # atno 17321 bound_to 7965
  140.6551  143.2235  151.5988 LP  0  0  0  0  0  0  0  0  0  0  0  0  # atno 17342 bound_to 10162
  139.5317  144.2898  152.1161 LP  0  0  0  0  0  0  0  0  0  0  0  0  # atno 17343 bound_to 10162
  156.2957  130.3751  149.7798 LP  0  0  0  0  0  0  0  0  0  0  0  0  # atno 17370 bound_to 10713
  156.5443  130.8314  151.3279 LP  0  0  0  0  0  0  0  0  0  0  0  0  # atno 17371 bound_to 10713
  139.8861  135.0078  156.6479 LP  0  0  0  0  0  0  0  0  0  0  0  0  # atno 17394 bound_to 11000
  140.7540  133.8873  155.8368 LP  0  0  0  0  0  0  0  0  0  0  0  0  # atno 17395 bound_to 11000

$$$$
