AV-unprocessed.smi:1617|AV-procd|sdf|6485|dock3
  -GOLD-   22720 7143D 1   1.00000     0.00000
 Structure written by MMmdl.
 47 49  0  0  0  0  0  0  0  0  1 V2000
  146.4007  137.9203  155.0029 O   0  0  0  0  0  0  0  0  0  0  0  0
  147.1638  137.5681  154.1037 C   0  0  0  0  0  0  0  0  0  0  0  0
  148.4413  137.9623  153.9677 N   0  0  0  0  0  0  0  0  0  0  0  0
  149.1980  138.8177  154.8129 C   0  0  0  0  0  0  0  0  0  0  0  0
  148.7466  139.0127  156.1323 C   0  0  0  0  0  0  0  0  0  0  0  0
  149.4665  139.8674  156.9879 C   0  0  0  0  0  0  0  0  0  0  0  0
  150.6235  140.5182  156.4992 C   0  0  0  0  0  0  0  0  0  0  0  0
  151.3633  141.3782  157.3398 N   0  0  0  0  0  0  0  0  0  0  0  0
  150.8272  142.7284  157.4936 C   0  0  0  0  0  0  0  0  0  0  0  0
  151.8663  143.6439  158.1639 C   0  0  0  0  0  0  0  0  0  0  0  0
  152.2893  143.0727  159.3975 O   0  0  0  0  0  0  0  0  0  0  0  0
  152.9108  141.8059  159.2081 C   0  0  0  0  0  0  0  0  0  0  0  0
  151.9066  140.8253  158.5792 C   0  0  0  0  0  0  0  0  0  0  0  0
  151.0449  140.3474  155.2222 N   0  0  0  0  0  0  0  0  0  0  0  0
  150.3542  139.5240  154.4054 C   0  0  0  0  0  0  0  0  0  0  0  0
  146.8052  136.7401  153.1110 N   0  0  0  0  0  0  0  0  0  0  0  0
  145.4906  136.1109  152.9632 C   0  0  1  0  0  0  0  0  0  0  0  0
  145.5639  135.1546  151.7508 C   0  0  0  0  0  0  0  0  0  0  0  0
  144.1931  134.8337  151.1302 C   0  0  0  0  0  0  0  0  0  0  0  0
  143.2361  134.0496  152.0405 C   0  0  0  0  0  0  0  0  0  0  0  0
  142.8455  134.8032  153.3235 C   0  0  0  0  0  0  0  0  0  0  0  0
  143.9013  134.7630  154.3265 N   0  0  0  0  0  0  0  0  0  0  0  0
  145.1269  135.3000  154.2291 C   0  0  0  0  0  0  0  0  0  0  0  0
  145.9477  135.1426  155.1328 O   0  0  0  0  0  0  0  0  0  0  0  0
  148.9150  137.6508  153.1324 H   0  0  0  0  0  0  0  0  0  0  0  0
  147.8582  138.5127  156.4898 H   0  0  0  0  0  0  0  0  0  0  0  0
  149.1162  140.0244  157.9969 H   0  0  0  0  0  0  0  0  0  0  0  0
  150.5387  143.1611  156.5369 H   0  0  0  0  0  0  0  0  0  0  0  0
  149.9249  142.6798  158.1045 H   0  0  0  0  0  0  0  0  0  0  0  0
  152.7254  143.8003  157.5093 H   0  0  0  0  0  0  0  0  0  0  0  0
  151.4320  144.6248  158.3572 H   0  0  0  0  0  0  0  0  0  0  0  0
  153.7962  141.9131  158.5793 H   0  0  0  0  0  0  0  0  0  0  0  0
  153.2498  141.4280  160.1727 H   0  0  0  0  0  0  0  0  0  0  0  0
  151.0905  140.6286  159.2758 H   0  0  0  0  0  0  0  0  0  0  0  0
  152.4051  139.8754  158.3821 H   0  0  0  0  0  0  0  0  0  0  0  0
  150.7405  139.4602  153.4004 H   0  0  0  0  0  0  0  0  0  0  0  0
  147.4986  136.5050  152.4163 H   0  0  0  0  0  0  0  0  0  0  0  0
  144.7426  136.8860  152.7862 H   0  0  0  0  0  0  0  0  0  0  0  0
  146.1661  135.6186  150.9680 H   0  0  0  0  0  0  0  0  0  0  0  0
  146.0864  134.2320  152.0108 H   0  0  0  0  0  0  0  0  0  0  0  0
  143.7135  135.7607  150.8136 H   0  0  0  0  0  0  0  0  0  0  0  0
  144.3517  134.2572  150.2185 H   0  0  0  0  0  0  0  0  0  0  0  0
  142.3282  133.8390  151.4745 H   0  0  0  0  0  0  0  0  0  0  0  0
  143.6641  133.0775  152.2899 H   0  0  0  0  0  0  0  0  0  0  0  0
  142.5617  135.8341  153.1066 H   0  0  0  0  0  0  0  0  0  0  0  0
  141.9678  134.3297  153.7635 H   0  0  0  0  0  0  0  0  0  0  0  0
  143.6928  134.2503  155.1712 H   0  0  0  0  0  0  0  0  0  0  0  0
  1  2  2  0  0  0  0
  2  3  1  0  0  0  0
  2 16  1  0  0  0  0
  3  4  1  0  0  0  0
  3 25  1  0  0  0  0
  4 15  1  0  0  0  0
  4  5  2  0  0  0  0
  5  6  1  0  0  0  0
  5 26  1  0  0  0  0
  6  7  2  0  0  0  0
  6 27  1  0  0  0  0
  7  8  1  0  0  0  0
  7 14  1  0  0  0  0
  8 13  1  0  0  0  0
  8  9  1  0  0  0  0
  9 10  1  0  0  0  0
  9 28  1  0  0  0  0
  9 29  1  0  0  0  0
 10 11  1  0  0  0  0
 10 30  1  0  0  0  0
 10 31  1  0  0  0  0
 11 12  1  0  0  0  0
 12 13  1  0  0  0  0
 12 32  1  0  0  0  0
 12 33  1  0  0  0  0
 13 34  1  0  0  0  0
 13 35  1  0  0  0  0
 14 15  2  0  0  0  0
 15 36  1  0  0  0  0
 16 17  1  0  0  0  0
 16 37  1  0  0  0  0
 17 23  1  0  0  0  0
 17 18  1  0  0  0  0
 17 38  1  0  0  0  0
 18 19  1  0  0  0  0
 18 39  1  0  0  0  0
 18 40  1  0  0  0  0
 19 20  1  0  0  0  0
 19 41  1  0  0  0  0
 19 42  1  0  0  0  0
 20 21  1  0  0  0  0
 20 43  1  0  0  0  0
 20 44  1  0  0  0  0
 21 22  1  0  0  0  0
 21 45  1  0  0  0  0
 21 46  1  0  0  0  0
 22 23  1  0  0  0  0
 22 47  1  0  0  0  0
 23 24  2  0  0  0  0
M  END
> <s_m_source_file>
AV-unprocessed.smi

> <i_m_source_file_index>
1617

> <i_lp_mmshare_version>
43012

> <i_f3d_flags>
0

> <s_epik_input>
Tz1DMVtOSF1bQ0gyXVtDSDJdW0NIMl1bQ0gyXVtDQEhdMVtOSF1DKD1PKVtOSF1jMltjSF1bY0hdYyhuW2NIXTIpTjNbQ0gyXVtDSDJdT1tDSDJdW0NIMl0z

> <s_epik_cmdline>
J2VwaWtfcHl0aG9uJywgJy1waCcsICc3LjAnLCAnLXRuJywgJzgnLCAnLW1hJywgJzIwMCcsICctbWV0YWxfYmluZGluZycsICctaW1hZScsICc8aW5maWxlLm1hZT4nLCAnLW9tYWUnLCAnPG91dGZpbGUubWFlPic=

> <r_lp_tautomer_probability>
1

> <r_epik_Ionization_Penalty>
0.00171733

> <r_epik_Ionization_Penalty_Charging>
0

> <r_epik_Ionization_Penalty_Neutral>
0.00171733

> <r_epik_State_Penalty>
0.00113787

> <r_epik_Charging_Adjusted_Penalty>
0.00113787

> <i_epik_Tot_Q>
0

> <i_epik_Tot_abs_Q>
0

> <r_epik_Metal_State_Penalty>
-0

> <b_epik_Metal_Only>
0

> <s_lp_Force_Field>
OPLS_2005

> <r_lp_Energy>
26.8457

> <b_lp_Chiralities_Consistent>
1

> <s_lp_Variant>
AV-unprocessed.smi:1617-2

> <Gold.Version>
5.8.1

> <Gold.Id.Protein>
6NUR|6NUR_protein|mol2

> <Gold.PLP.Fitness>
40.0228

> <Gold.PLP.PLP>
-31.9026

> <Gold.PLP.part.hbond>
-3.0436

> <Gold.PLP.part.metal>
0.0000

> <Gold.PLP.part.buried>
-4.7377

> <Gold.PLP.part.nonpolar>
-24.9696

> <Gold.PLP.part.repulsive>
0.1758

> <Gold.PLP.ligand.clash>
0.0000

> <Gold.PLP.ligand.torsion>
0.4067

> <Gold.PLP.Chemscore.Hbond>
1.8640

> <Gold.PLP.Chemscore.CHOScore>
1.0000

> <Gold.PLP.Chemscore.Metal>
0.0000

> <Gold.Chemscore.Hbonds>
donor molecule, donor type, donor heavy atom, donor atom, acceptor molecule, acceptor atom, score
      L1  H     3    25       P1  7948  0.88
      L1  H    16    37       P1  7948  1.00
      L1  C    15    36       P1  7957  0.93

> <Gold.PLP.Chemscore.Internal.Correction>
0.3416

> <Gold.Rescore>
     Score         DG    S(hbond)    S(metal)    S(lipo)     H(rot)  DE(clash)    DE(int)     intcor
     16.67     -18.55       2.29        0.00      74.03       1.27       0.06       1.83       ----

> <Gold.Chemscore.Fitness>
16.6695

> <Gold.Chemscore.DG>
-18.5527

> <Gold.Chemscore.ZeroCoef>
-5.4800

> <Gold.Chemscore.Hbond>
2.2928

> <Gold.Chemscore.Metal>
0.0000

> <Gold.Chemscore.Lipo>
74.0317

> <Gold.Chemscore.Internal_Hbond>
0.0000

> <Gold.Chemscore.DEClash>
0.0580

> <Gold.Chemscore.DEInternal>
1.8252

> <Gold.Chemscore.Rot>
1.2684

> <Gold.Chemscore.Internal.Correction>
   9.000000E+99

> <Gold.Chemscore.Hbonds>
donor molecule, donor type, donor heavy atom, donor atom, acceptor molecule, acceptor atom, score
      L1  H     3    25       P1  7948  0.86
      L1  H    16    37       P1  7948  0.96

> <Gold.Chemscore.Hbond.Weighted>
-7.6581

> <Gold.Chemscore.Metal.Weighted>
-0.0000

> <Gold.Chemscore.Lipo.Weighted>
-8.6617

> <Gold.Chemscore.Internal_Hbond.Weighted>
0.0000

> <Gold.Chemscore.DEClash.Weighted>
0.0580

> <Gold.Chemscore.DEInternal.Weighted>
1.8252

> <Gold.Chemscore.Rot.Weighted>
3.2471

> <Gold.Chemscore.Internal.Correction.Weighted>
   9.000000E+99

> <Gold.Protein.RotatedTorsions>
[ 6907 6896 6895 6894 ] final  172.63 input  -60.11 | X-H torsion
[ 7974 7965 7964 7962 ] final -137.83 input  175.53 | X-H torsion
[ 8008 7997 7996 7995 ] final -163.95 input   59.86 | X-H torsion
[ 10167 10162 10161 10158 ] final   55.23 input  -65.29 | X-H torsion
[ 10718 10713 10712 10709 ] final  176.45 input   66.30 | X-H torsion
[ 10763 10752 10751 10750 ] final  138.30 input  -60.55 | X-H torsion
[ 11005 11000 10999 10996 ] final  171.94 input  -57.11 | X-H torsion

> <Gold.Protein.ActiveResidues>
 VAL166  LYS551  ARG553  GLY616  TRP617  ASP618  TYR619  PRO620  LYS621  CYS622 
 ASP623  PHE694  ASN695  SER759  ASP760  ASP761  ALA762  ILE779  LEU786  VAL792 
 PHE793  MET794  SER795  GLU796  ALA797  LYS798  CYS799  TRP800  GLU811  SER814 

> <Gold.Protein.RotatedAtoms>
  151.7811  133.3350  159.3471 H   0  0  0  0  0  0  0  0  0  0  0  0  # atno 6907 bound_to 6896
  150.7426  134.5929  159.6006 H   0  0  0  0  0  0  0  0  0  0  0  0  # atno 6908 bound_to 6896
  152.3275  134.7303  160.0349 H   0  0  0  0  0  0  0  0  0  0  0  0  # atno 6909 bound_to 6896
  144.8808  140.6505  143.5207 H   0  0  0  0  0  0  0  0  0  0  0  0  # atno 7974 bound_to 7965
  155.8286  140.0930  157.1806 H   0  0  0  0  0  0  0  0  0  0  0  0  # atno 8008 bound_to 7997
  154.3979  140.1423  156.3647 H   0  0  0  0  0  0  0  0  0  0  0  0  # atno 8009 bound_to 7997
  155.8190  140.3447  155.5505 H   0  0  0  0  0  0  0  0  0  0  0  0  # atno 8010 bound_to 7997
  140.2216  144.3782  150.6448 H   0  0  0  0  0  0  0  0  0  0  0  0  # atno 10167 bound_to 10162
  156.9199  130.9937  151.3006 H   0  0  0  0  0  0  0  0  0  0  0  0  # atno 10718 bound_to 10713
  153.8872  135.3037  155.3446 H   0  0  0  0  0  0  0  0  0  0  0  0  # atno 10763 bound_to 10752
  154.7733  135.4874  153.9696 H   0  0  0  0  0  0  0  0  0  0  0  0  # atno 10764 bound_to 10752
  153.1318  135.6805  153.9264 H   0  0  0  0  0  0  0  0  0  0  0  0  # atno 10765 bound_to 10752
  140.3243  134.7411  157.4087 H   0  0  0  0  0  0  0  0  0  0  0  0  # atno 11005 bound_to 11000
  145.3957  139.1607  143.4205 LP  0  0  0  0  0  0  0  0  0  0  0  0  # atno 17320 bound_to 7965
  146.2993  140.4050  142.8710 LP  0  0  0  0  0  0  0  0  0  0  0  0  # atno 17321 bound_to 7965
  140.6251  143.2180  151.6614 LP  0  0  0  0  0  0  0  0  0  0  0  0  # atno 17342 bound_to 10162
  139.5142  144.3418  152.0733 LP  0  0  0  0  0  0  0  0  0  0  0  0  # atno 17343 bound_to 10162
  157.5914  130.8447  149.8665 LP  0  0  0  0  0  0  0  0  0  0  0  0  # atno 17370 bound_to 10713
  156.0496  130.3720  150.1234 LP  0  0  0  0  0  0  0  0  0  0  0  0  # atno 17371 bound_to 10713
  140.0915  134.5595  155.8440 LP  0  0  0  0  0  0  0  0  0  0  0  0  # atno 17394 bound_to 11000
  141.2079  133.6668  156.6335 LP  0  0  0  0  0  0  0  0  0  0  0  0  # atno 17395 bound_to 11000

$$$$
