AV-unprocessed.smi:739|AV-procd|sdf|3544|dock4
  -GOLD-   22720 0533D 1   1.00000     0.00000
 Structure written by MMmdl.
 33 35  0  0  0  0  0  0  0  0  2 V2000
  151.5848  140.1178  155.1070 O   0  0  0  0  0  0  0  0  0  0  0  0
  151.2190  141.2289  155.8979 C   0  0  2  0  0  0  0  0  0  0  0  0
  151.8741  141.0663  157.2840 C   0  0  0  0  0  0  0  0  0  0  0  0
  151.7334  142.2658  158.1192 N   0  0  0  0  0  0  0  0  0  0  0  0
  151.1657  143.4690  157.8327 C   0  0  0  0  0  0  0  0  0  0  0  0
  151.2952  144.2568  158.9362 N   0  3  0  0  0  0  0  0  0  0  0  0
  151.9526  143.5455  159.9429 C   0  0  0  0  0  0  0  0  0  0  0  0
  152.3125  143.9140  161.2352 C   0  0  0  0  0  0  0  0  0  0  0  0
  152.9807  142.9428  162.0101 C   0  0  0  0  0  0  0  0  0  0  0  0
  153.3531  143.2491  163.2754 F   0  0  0  0  0  0  0  0  0  0  0  0
  153.2679  141.6614  161.4929 C   0  0  0  0  0  0  0  0  0  0  0  0
  153.9121  140.7590  162.2701 F   0  0  0  0  0  0  0  0  0  0  0  0
  152.8980  141.2995  160.1808 C   0  0  0  0  0  0  0  0  0  0  0  0
  152.2371  142.2654  159.4238 C   0  0  0  0  0  0  0  0  0  0  0  0
  149.7087  141.3979  155.9900 C   0  0  0  0  0  0  0  0  0  0  0  0
  148.9282  141.5412  154.8213 C   0  0  0  0  0  0  0  0  0  0  0  0
  147.5299  141.6826  154.9144 C   0  0  0  0  0  0  0  0  0  0  0  0
  146.9036  141.6803  156.1753 C   0  0  0  0  0  0  0  0  0  0  0  0
  145.5593  141.8150  156.2645 F   0  0  0  0  0  0  0  0  0  0  0  0
  147.6761  141.5349  157.3435 C   0  0  0  0  0  0  0  0  0  0  0  0
  149.0745  141.3933  157.2512 C   0  0  0  0  0  0  0  0  0  0  0  0
  151.9681  139.4619  155.6695 H   0  0  0  0  0  0  0  0  0  0  0  0
  151.6379  142.1071  155.4048 H   0  0  0  0  0  0  0  0  0  0  0  0
  151.4285  140.2305  157.8255 H   0  0  0  0  0  0  0  0  0  0  0  0
  152.9376  140.8415  157.1904 H   0  0  0  0  0  0  0  0  0  0  0  0
  150.7028  143.7492  156.8972 H   0  0  0  0  0  0  0  0  0  0  0  0
  152.0958  144.8936  161.6346 H   0  0  0  0  0  0  0  0  0  0  0  0
  153.1227  140.3165  159.7942 H   0  0  0  0  0  0  0  0  0  0  0  0
  149.3989  141.5408  153.8490 H   0  0  0  0  0  0  0  0  0  0  0  0
  146.9379  141.7917  154.0175 H   0  0  0  0  0  0  0  0  0  0  0  0
  147.1959  141.5311  158.3110 H   0  0  0  0  0  0  0  0  0  0  0  0
  149.6577  141.2775  158.1529 H   0  0  0  0  0  0  0  0  0  0  0  0
  150.9581  145.2094  158.9944 H   0  0  0  0  0  0  0  0  0  0  0  0
  1  2  1  0  0  0  0
  1 22  1  0  0  0  0
  2  3  1  0  0  0  0
  2 15  1  0  0  0  0
  2 23  1  0  0  0  0
  3  4  1  0  0  0  0
  3 24  1  0  0  0  0
  3 25  1  0  0  0  0
  4 14  1  0  0  0  0
  4  5  1  0  0  0  0
  5  6  2  0  0  0  0
  5 26  1  0  0  0  0
  6  7  1  0  0  0  0
  6 33  1  0  0  0  0
  7 14  2  0  0  0  0
  7  8  1  0  0  0  0
  8  9  2  0  0  0  0
  8 27  1  0  0  0  0
  9 10  1  0  0  0  0
  9 11  1  0  0  0  0
 11 12  1  0  0  0  0
 11 13  2  0  0  0  0
 13 14  1  0  0  0  0
 13 28  1  0  0  0  0
 15 21  1  0  0  0  0
 15 16  2  0  0  0  0
 16 17  1  0  0  0  0
 16 29  1  0  0  0  0
 17 18  2  0  0  0  0
 17 30  1  0  0  0  0
 18 19  1  0  0  0  0
 18 20  1  0  0  0  0
 20 21  2  0  0  0  0
 20 31  1  0  0  0  0
 21 32  1  0  0  0  0
M  CHG  1   6   1
M  END
> <s_m_source_file>
AV-unprocessed.smi

> <i_m_source_file_index>
739

> <i_lp_mmshare_version>
43012

> <i_f3d_flags>
0

> <s_epik_input>
W2NIXTFbY0hdYyhGKVtjSF1bY0hdYzFbQ0BIXShbT0hdKVtDSDJdbihbY0hdbjIpYyhjMjMpW2NIXWMoRiljKEYpW2NIXTM=

> <s_epik_cmdline>
J2VwaWtfcHl0aG9uJywgJy1waCcsICc3LjAnLCAnLXRuJywgJzgnLCAnLW1hJywgJzIwMCcsICctbWV0YWxfYmluZGluZycsICctaW1hZScsICc8aW5maWxlLm1hZT4nLCAnLW9tYWUnLCAnPG91dGZpbGUubWFlPic=

> <r_epik_Ionization_Penalty>
2.16139

> <r_epik_Ionization_Penalty_Charging>
2.16138

> <r_epik_Ionization_Penalty_Neutral>
1.79538e-06

> <r_epik_State_Penalty>
2.30198

> <r_epik_Charging_Adjusted_Penalty>
4.46337

> <i_epik_Tot_Q>
1

> <i_epik_Tot_abs_Q>
1

> <r_epik_Metal_State_Penalty>
6.38245

> <b_epik_Metal_Only>
0

> <s_lp_Force_Field>
OPLS_2005

> <r_lp_Energy>
16.88

> <b_lp_Chiralities_Consistent>
1

> <s_lp_Variant>
AV-unprocessed.smi:739-3

> <Gold.Version>
5.8.1

> <Gold.Id.Protein>
6NUR|6NUR_protein|mol2

> <Gold.PLP.Fitness>
51.7591

> <Gold.PLP.PLP>
-45.8181

> <Gold.PLP.part.hbond>
-1.0000

> <Gold.PLP.part.metal>
0.0000

> <Gold.PLP.part.buried>
-7.2004

> <Gold.PLP.part.nonpolar>
-36.7602

> <Gold.PLP.part.repulsive>
0.0819

> <Gold.PLP.ligand.clash>
0.0000

> <Gold.PLP.ligand.torsion>
0.0370

> <Gold.PLP.Chemscore.Hbond>
1.0000

> <Gold.PLP.Chemscore.CHOScore>
1.0000

> <Gold.PLP.Chemscore.Metal>
0.0000

> <Gold.Chemscore.Hbonds>
donor molecule, donor type, donor heavy atom, donor atom, acceptor molecule, acceptor atom, score
      P1  H  7989  7998       L1     1  1.00
      L1  C     5    26       P1  8028  1.00

> <Gold.PLP.Chemscore.Internal.Correction>
0.0150

> <Gold.Rescore>
     Score         DG    S(hbond)    S(metal)    S(lipo)     H(rot)  DE(clash)    DE(int)     intcor
     14.30     -14.66       0.74        0.00     103.75       2.12       0.21       0.14       ----

> <Gold.Chemscore.Fitness>
14.2997

> <Gold.Chemscore.DG>
-14.6566

> <Gold.Chemscore.ZeroCoef>
-5.4800

> <Gold.Chemscore.Hbond>
0.7362

> <Gold.Chemscore.Metal>
0.0000

> <Gold.Chemscore.Lipo>
103.7503

> <Gold.Chemscore.Internal_Hbond>
0.0000

> <Gold.Chemscore.DEClash>
0.2127

> <Gold.Chemscore.DEInternal>
0.1442

> <Gold.Chemscore.Rot>
2.1176

> <Gold.Chemscore.Internal.Correction>
   9.000000E+99

> <Gold.Chemscore.Hbonds>
donor molecule, donor type, donor heavy atom, donor atom, acceptor molecule, acceptor atom, score
      P1  H  7989  7998       L1     1  0.24

> <Gold.Chemscore.Hbond.Weighted>
-2.4589

> <Gold.Chemscore.Metal.Weighted>
-0.0000

> <Gold.Chemscore.Lipo.Weighted>
-12.1388

> <Gold.Chemscore.Internal_Hbond.Weighted>
0.0000

> <Gold.Chemscore.DEClash.Weighted>
0.2127

> <Gold.Chemscore.DEInternal.Weighted>
0.1442

> <Gold.Chemscore.Rot.Weighted>
5.4211

> <Gold.Chemscore.Internal.Correction.Weighted>
   9.000000E+99

> <Gold.Protein.RotatedTorsions>
[ 6907 6896 6895 6894 ] final -126.22 input  -60.11 | X-H torsion
[ 7974 7965 7964 7962 ] final   56.18 input  175.53 | X-H torsion
[ 8008 7997 7996 7995 ] final -119.84 input   59.86 | X-H torsion
[ 10167 10162 10161 10158 ] final -116.20 input  -65.29 | X-H torsion
[ 10718 10713 10712 10709 ] final -108.26 input   66.30 | X-H torsion
[ 10763 10752 10751 10750 ] final -120.74 input  -60.55 | X-H torsion
[ 11005 11000 10999 10996 ] final -166.40 input  -57.11 | X-H torsion

> <Gold.Protein.ActiveResidues>
 VAL166  LYS551  ARG553  GLY616  TRP617  ASP618  TYR619  PRO620  LYS621  CYS622 
 ASP623  PHE694  ASN695  SER759  ASP760  ASP761  ALA762  ILE779  LEU786  VAL792 
 PHE793  MET794  SER795  GLU796  ALA797  LYS798  CYS799  TRP800  GLU811  SER814 

> <Gold.Protein.RotatedAtoms>
  150.8947  133.7197  159.2894 H   0  0  0  0  0  0  0  0  0  0  0  0  # atno 6907 bound_to 6896
  151.4735  135.1046  159.9767 H   0  0  0  0  0  0  0  0  0  0  0  0  # atno 6908 bound_to 6896
  152.4841  133.8281  159.7144 H   0  0  0  0  0  0  0  0  0  0  0  0  # atno 6909 bound_to 6896
  145.9425  139.3901  143.0355 H   0  0  0  0  0  0  0  0  0  0  0  0  # atno 7974 bound_to 7965
  155.1221  140.0399  157.2753 H   0  0  0  0  0  0  0  0  0  0  0  0  # atno 8008 bound_to 7997
  154.6605  140.2590  155.7088 H   0  0  0  0  0  0  0  0  0  0  0  0  # atno 8009 bound_to 7997
  156.2617  140.2818  156.1076 H   0  0  0  0  0  0  0  0  0  0  0  0  # atno 8010 bound_to 7997
  140.0818  143.4780  152.1921 H   0  0  0  0  0  0  0  0  0  0  0  0  # atno 10167 bound_to 10162
  156.0477  130.5704  150.7937 H   0  0  0  0  0  0  0  0  0  0  0  0  # atno 10718 bound_to 10713
  154.8651  135.4192  154.2508 H   0  0  0  0  0  0  0  0  0  0  0  0  # atno 10763 bound_to 10752
  153.3454  135.6996  153.6838 H   0  0  0  0  0  0  0  0  0  0  0  0  # atno 10764 bound_to 10752
  153.5799  135.3575  155.2843 H   0  0  0  0  0  0  0  0  0  0  0  0  # atno 10765 bound_to 10752
  140.5649  134.5296  157.5150 H   0  0  0  0  0  0  0  0  0  0  0  0  # atno 11005 bound_to 11000
  145.8280  140.9645  143.0864 LP  0  0  0  0  0  0  0  0  0  0  0  0  # atno 17320 bound_to 7965
  144.6781  140.0126  143.7484 LP  0  0  0  0  0  0  0  0  0  0  0  0  # atno 17321 bound_to 7965
  139.5775  144.7494  151.3727 LP  0  0  0  0  0  0  0  0  0  0  0  0  # atno 17342 bound_to 10162
  140.7074  143.7480  150.7505 LP  0  0  0  0  0  0  0  0  0  0  0  0  # atno 17343 bound_to 10162
  157.5370  131.0939  150.9878 LP  0  0  0  0  0  0  0  0  0  0  0  0  # atno 17370 bound_to 10713
  157.0171  130.5659  149.5327 LP  0  0  0  0  0  0  0  0  0  0  0  0  # atno 17371 bound_to 10713
  139.9390  134.7822  156.0728 LP  0  0  0  0  0  0  0  0  0  0  0  0  # atno 17394 bound_to 11000
  141.1092  133.6649  156.2937 LP  0  0  0  0  0  0  0  0  0  0  0  0  # atno 17395 bound_to 11000

$$$$
