AV-unprocessed.smi:1196|AV-procd|sdf|5001|dock4
  -GOLD-   22720 4 13D 1   1.00000     0.00000
 Structure written by MMmdl.
 36 37  0  0  0  0  0  0  0  0  2 V2000
  153.4091  142.2933  162.0092 C   0  0  0  0  0  0  0  0  0  0  0  0
  153.2346  141.4830  160.7151 C   0  0  1  0  0  0  0  0  0  0  0  0
  153.3439  142.3834  159.4695 C   0  0  0  0  0  0  0  0  0  0  0  0
  152.3753  143.4656  159.4829 N   0  0  0  0  0  0  0  0  0  0  0  0
  152.2124  144.4783  158.5615 C   0  0  0  0  0  0  0  0  0  0  0  0
  151.1821  145.2619  158.9966 C   0  0  0  0  0  0  0  0  0  0  0  0
  150.7744  144.6402  160.2101 C   0  0  0  0  0  0  0  0  0  0  0  0
  151.4891  143.5642  160.4977 N   0  0  0  0  0  0  0  0  0  0  0  0
  154.2347  140.4187  160.6558 N   0  0  0  0  0  0  0  0  0  0  0  0
  154.4392  139.5969  159.6152 C   0  0  0  0  0  0  0  0  0  0  0  0
  153.7842  139.6502  158.5737 O   0  0  0  0  0  0  0  0  0  0  0  0
  155.5553  138.5626  159.7832 C   0  0  0  0  0  0  0  0  0  0  0  0
  155.0213  137.1333  159.9994 C   0  0  0  0  0  0  0  0  0  0  0  0
  154.3968  136.5246  158.7262 C   0  0  2  0  0  0  0  0  0  0  0  0
  154.2044  135.0908  158.8575 N   0  5  0  0  0  0  0  0  0  0  0  0
  154.8949  134.4728  157.8705 C   0  0  0  0  0  0  0  0  0  0  0  0
  154.9682  133.2668  157.6455 O   0  0  0  0  0  0  0  0  0  0  0  0
  155.5372  135.3663  157.1114 N   0  0  0  0  0  0  0  0  0  0  0  0
  155.3278  136.6094  157.5322 C   0  0  0  0  0  0  0  0  0  0  0  0
  155.7886  137.6470  157.0586 O   0  0  0  0  0  0  0  0  0  0  0  0
  152.6618  143.0839  162.0797 H   0  0  0  0  0  0  0  0  0  0  0  0
  154.3933  142.7606  162.0550 H   0  0  0  0  0  0  0  0  0  0  0  0
  153.2992  141.6606  162.8904 H   0  0  0  0  0  0  0  0  0  0  0  0
  152.2372  141.0392  160.7244 H   0  0  0  0  0  0  0  0  0  0  0  0
  154.3379  142.8290  159.4173 H   0  0  0  0  0  0  0  0  0  0  0  0
  153.2181  141.7988  158.5565 H   0  0  0  0  0  0  0  0  0  0  0  0
  152.8376  144.5569  157.6843 H   0  0  0  0  0  0  0  0  0  0  0  0
  150.7819  146.1450  158.5215 H   0  0  0  0  0  0  0  0  0  0  0  0
  149.9852  144.9364  160.8852 H   0  0  0  0  0  0  0  0  0  0  0  0
  154.8287  140.3082  161.4650 H   0  0  0  0  0  0  0  0  0  0  0  0
  156.1910  138.5962  158.8979 H   0  0  0  0  0  0  0  0  0  0  0  0
  156.1829  138.8468  160.6292 H   0  0  0  0  0  0  0  0  0  0  0  0
  155.8458  136.4982  160.3287 H   0  0  0  0  0  0  0  0  0  0  0  0
  154.2929  137.1265  160.8128 H   0  0  0  0  0  0  0  0  0  0  0  0
  153.4727  137.0477  158.4763 H   0  0  0  0  0  0  0  0  0  0  0  0
  156.1183  135.1244  156.3228 H   0  0  0  0  0  0  0  0  0  0  0  0
  1  2  1  0  0  0  0
  1 21  1  0  0  0  0
  1 22  1  0  0  0  0
  1 23  1  0  0  0  0
  2  3  1  0  0  0  0
  2  9  1  0  0  0  0
  2 24  1  0  0  0  0
  3  4  1  0  0  0  0
  3 25  1  0  0  0  0
  3 26  1  0  0  0  0
  4  8  1  0  0  0  0
  4  5  1  0  0  0  0
  5  6  2  0  0  0  0
  5 27  1  0  0  0  0
  6  7  1  0  0  0  0
  6 28  1  0  0  0  0
  7  8  2  0  0  0  0
  7 29  1  0  0  0  0
  9 10  1  0  0  0  0
  9 30  1  0  0  0  0
 10 11  2  0  0  0  0
 10 12  1  0  0  0  0
 12 13  1  0  0  0  0
 12 31  1  0  0  0  0
 12 32  1  0  0  0  0
 13 14  1  0  0  0  0
 13 33  1  0  0  0  0
 13 34  1  0  0  0  0
 14 19  1  0  0  0  0
 14 15  1  0  0  0  0
 14 35  1  0  0  0  0
 15 16  1  0  0  0  0
 16 17  2  0  0  0  0
 16 18  1  0  0  0  0
 18 19  1  0  0  0  0
 18 36  1  0  0  0  0
 19 20  2  0  0  0  0
M  CHG  1  15  -1
M  END
> <s_m_source_file>
AV-unprocessed.smi

> <i_m_source_file_index>
1196

> <i_lp_mmshare_version>
43012

> <i_f3d_flags>
0

> <s_epik_input>
bjFbY0hdW2NIXVtjSF1uMVtDSDJdW0NAQEhdKFtDSDNdKVtOSF1DKD1PKVtDSDJdW0NIMl1bQ0BASF0yW05IXUMoPU8pW05IXUMyPU8=

> <s_epik_cmdline>
J2VwaWtfcHl0aG9uJywgJy1waCcsICc3LjAnLCAnLXRuJywgJzgnLCAnLW1hJywgJzIwMCcsICctbWV0YWxfYmluZGluZycsICctaW1hZScsICc8aW5maWxlLm1hZT4nLCAnLW9tYWUnLCAnPG91dGZpbGUubWFlPic=

> <r_lp_tautomer_probability>
1

> <r_epik_Ionization_Penalty>
5.79547

> <r_epik_Ionization_Penalty_Charging>
5.79516

> <r_epik_Ionization_Penalty_Neutral>
0.000313087

> <r_epik_State_Penalty>
5.80096

> <r_epik_Charging_Adjusted_Penalty>
11.5961

> <i_epik_Tot_Q>
-1

> <i_epik_Tot_abs_Q>
1

> <r_epik_Metal_State_Penalty>
2.14443

> <b_epik_Metal_Only>
1

> <s_lp_Force_Field>
OPLS_2005

> <r_lp_Energy>
12.2353

> <b_lp_Chiralities_Consistent>
1

> <s_lp_Variant>
AV-unprocessed.smi:1196-6

> <Gold.Version>
5.8.1

> <Gold.Id.Protein>
6NUR|6NUR_protein|mol2

> <Gold.PLP.Fitness>
45.2369

> <Gold.PLP.PLP>
-36.9362

> <Gold.PLP.part.hbond>
-3.0000

> <Gold.PLP.part.metal>
0.0000

> <Gold.PLP.part.buried>
-5.6141

> <Gold.PLP.part.nonpolar>
-27.9002

> <Gold.PLP.part.repulsive>
0.2474

> <Gold.PLP.ligand.clash>
0.0000

> <Gold.PLP.ligand.torsion>
0.3200

> <Gold.PLP.Chemscore.Hbond>
2.9520

> <Gold.PLP.Chemscore.CHOScore>
0.0000

> <Gold.PLP.Chemscore.Metal>
0.0000

> <Gold.Chemscore.Hbonds>
donor molecule, donor type, donor heavy atom, donor atom, acceptor molecule, acceptor atom, score
      P1  H  6896  6908       L1    15  1.81
      P1  H  7997  8008       L1    11  1.00

> <Gold.PLP.Chemscore.Internal.Correction>
0.0846

> <Gold.Rescore>
     Score         DG    S(hbond)    S(metal)    S(lipo)     H(rot)  DE(clash)    DE(int)     intcor
     11.47     -13.27       1.84        0.00      77.28       2.89       0.04       1.77       ----

> <Gold.Chemscore.Fitness>
11.4672

> <Gold.Chemscore.DG>
-13.2701

> <Gold.Chemscore.ZeroCoef>
-5.4800

> <Gold.Chemscore.Hbond>
1.8437

> <Gold.Chemscore.Metal>
0.0000

> <Gold.Chemscore.Lipo>
77.2831

> <Gold.Chemscore.Internal_Hbond>
0.0000

> <Gold.Chemscore.DEClash>
0.0354

> <Gold.Chemscore.DEInternal>
1.7675

> <Gold.Chemscore.Rot>
2.8946

> <Gold.Chemscore.Internal.Correction>
   9.000000E+99

> <Gold.Chemscore.Hbonds>
donor molecule, donor type, donor heavy atom, donor atom, acceptor molecule, acceptor atom, score
      P1  H  6896  6908       L1    15  0.81
      P1  H  7997  8008       L1    11  0.94

> <Gold.Chemscore.Hbond.Weighted>
-6.1581

> <Gold.Chemscore.Metal.Weighted>
-0.0000

> <Gold.Chemscore.Lipo.Weighted>
-9.0421

> <Gold.Chemscore.Internal_Hbond.Weighted>
0.0000

> <Gold.Chemscore.DEClash.Weighted>
0.0354

> <Gold.Chemscore.DEInternal.Weighted>
1.7675

> <Gold.Chemscore.Rot.Weighted>
7.4101

> <Gold.Chemscore.Internal.Correction.Weighted>
   9.000000E+99

> <Gold.Protein.RotatedTorsions>
[ 6907 6896 6895 6894 ] final  -33.27 input  -60.11 | X-H torsion
[ 7974 7965 7964 7962 ] final -147.35 input  175.53 | X-H torsion
[ 8008 7997 7996 7995 ] final  -83.32 input   59.86 | X-H torsion
[ 10167 10162 10161 10158 ] final -174.47 input  -65.29 | X-H torsion
[ 10718 10713 10712 10709 ] final  129.52 input   66.30 | X-H torsion
[ 10763 10752 10751 10750 ] final   50.15 input  -60.55 | X-H torsion
[ 11005 11000 10999 10996 ] final -176.11 input  -57.11 | X-H torsion

> <Gold.Protein.ActiveResidues>
 VAL166  LYS551  ARG553  GLY616  TRP617  ASP618  TYR619  PRO620  LYS621  CYS622 
 ASP623  PHE694  ASN695  SER759  ASP760  ASP761  ALA762  ILE779  LEU786  VAL792 
 PHE793  MET794  SER795  GLU796  ALA797  LYS798  CYS799  TRP800  GLU811  SER814 

> <Gold.Protein.RotatedAtoms>
  151.0678  134.9778  159.8292 H   0  0  0  0  0  0  0  0  0  0  0  0  # atno 6907 bound_to 6896
  152.5404  134.2337  159.8845 H   0  0  0  0  0  0  0  0  0  0  0  0  # atno 6908 bound_to 6896
  151.2360  133.4381  159.2639 H   0  0  0  0  0  0  0  0  0  0  0  0  # atno 6909 bound_to 6896
  144.8099  140.5338  143.5649 H   0  0  0  0  0  0  0  0  0  0  0  0  # atno 7974 bound_to 7965
  154.6179  140.0620  156.9577 H   0  0  0  0  0  0  0  0  0  0  0  0  # atno 8008 bound_to 7997
  155.1866  140.3303  155.4347 H   0  0  0  0  0  0  0  0  0  0  0  0  # atno 8009 bound_to 7997
  156.2415  140.1888  156.6959 H   0  0  0  0  0  0  0  0  0  0  0  0  # atno 8010 bound_to 7997
  139.5632  144.1819  152.1271 H   0  0  0  0  0  0  0  0  0  0  0  0  # atno 10167 bound_to 10162
  157.5146  131.1097  150.9243 H   0  0  0  0  0  0  0  0  0  0  0  0  # atno 10718 bound_to 10713
  152.9785  135.5888  154.4204 H   0  0  0  0  0  0  0  0  0  0  0  0  # atno 10763 bound_to 10752
  154.3829  135.2767  155.2202 H   0  0  0  0  0  0  0  0  0  0  0  0  # atno 10764 bound_to 10752
  154.4108  135.6082  153.6006 H   0  0  0  0  0  0  0  0  0  0  0  0  # atno 10765 bound_to 10752
  140.4558  134.6301  157.4821 H   0  0  0  0  0  0  0  0  0  0  0  0  # atno 11005 bound_to 11000
  145.5348  139.1475  143.3479 LP  0  0  0  0  0  0  0  0  0  0  0  0  # atno 17320 bound_to 7965
  146.2396  140.5489  142.8940 LP  0  0  0  0  0  0  0  0  0  0  0  0  # atno 17321 bound_to 7965
  140.1337  144.5265  150.6787 LP  0  0  0  0  0  0  0  0  0  0  0  0  # atno 17342 bound_to 10162
  140.6914  143.2378  151.5122 LP  0  0  0  0  0  0  0  0  0  0  0  0  # atno 17343 bound_to 10162
  156.9872  130.5549  149.5300 LP  0  0  0  0  0  0  0  0  0  0  0  0  # atno 17370 bound_to 10713
  156.0312  130.5403  150.8538 LP  0  0  0  0  0  0  0  0  0  0  0  0  # atno 17371 bound_to 10713
  139.9977  134.6885  155.9581 LP  0  0  0  0  0  0  0  0  0  0  0  0  # atno 17394 bound_to 11000
  141.1644  133.6537  156.4428 LP  0  0  0  0  0  0  0  0  0  0  0  0  # atno 17395 bound_to 11000

$$$$
