AV-unprocessed.smi:2040|AV-procd|sdf|8286|dock5
  -GOLD-   2272010553D 1   1.00000     0.00000
 Structure written by MMmdl.
 38 39  0  0  0  0  0  0  0  0  1 V2000
  153.6979  141.3046  160.4396 C   0  0  0  0  0  0  0  0  0  0  0  0
  152.8269  142.0221  159.4511 C   0  0  0  0  0  0  0  0  0  0  0  0
  151.8702  141.4614  158.5559 C   0  0  0  0  0  0  0  0  0  0  0  0
  151.3848  142.5627  157.9051 C   0  0  0  0  0  0  0  0  0  0  0  0
  150.4349  142.6331  156.9350 N   0  0  0  0  0  0  0  0  0  0  0  0
  150.0941  141.7050  156.0241 C   0  0  0  0  0  0  0  0  0  0  0  0
  150.6263  140.6023  155.8963 O   0  0  0  0  0  0  0  0  0  0  0  0
  149.0845  142.1353  155.2534 N   0  0  0  0  0  0  0  0  0  0  0  0
  148.4544  141.3816  154.1709 C   0  0  2  0  0  0  0  0  0  0  0  0
  147.1101  142.0333  153.8133 C   0  0  0  0  0  0  0  0  0  0  0  0
  148.2925  139.9063  154.5854 C   0  0  2  0  0  0  0  0  0  0  0  0
  147.6141  139.0218  153.5356 C   0  0  0  0  0  0  0  0  0  0  0  0
  147.0289  137.9216  154.3897 C   0  0  0  0  0  0  0  0  0  0  0  0
  146.5654  138.7007  155.6155 C   0  0  0  0  0  0  0  0  0  0  0  0
  147.4660  139.7980  155.7433 O   0  0  0  0  0  0  0  0  0  0  0  0
  152.0174  143.6836  158.3949 N   0  0  0  0  0  0  0  0  0  0  0  0
  151.8441  145.0746  158.0244 C   0  0  0  0  0  0  0  0  0  0  0  0
  152.9103  143.3440  159.3498 N   0  0  0  0  0  0  0  0  0  0  0  0
  153.4667  140.2396  160.4677 H   0  0  0  0  0  0  0  0  0  0  0  0
  153.5596  141.6999  161.4463 H   0  0  0  0  0  0  0  0  0  0  0  0
  154.7518  141.4084  160.1809 H   0  0  0  0  0  0  0  0  0  0  0  0
  151.6009  140.4235  158.4304 H   0  0  0  0  0  0  0  0  0  0  0  0
  149.9173  143.4989  156.9022 H   0  0  0  0  0  0  0  0  0  0  0  0
  148.7143  143.0572  155.4325 H   0  0  0  0  0  0  0  0  0  0  0  0
  149.0885  141.4069  153.2829 H   0  0  0  0  0  0  0  0  0  0  0  0
  146.6264  141.5108  152.9878 H   0  0  0  0  0  0  0  0  0  0  0  0
  147.2461  143.0713  153.5077 H   0  0  0  0  0  0  0  0  0  0  0  0
  146.4244  142.0221  154.6612 H   0  0  0  0  0  0  0  0  0  0  0  0
  149.2643  139.4760  154.8339 H   0  0  0  0  0  0  0  0  0  0  0  0
  146.8141  139.5667  153.0317 H   0  0  0  0  0  0  0  0  0  0  0  0
  148.3055  138.6522  152.7777 H   0  0  0  0  0  0  0  0  0  0  0  0
  146.2216  137.3776  153.8987 H   0  0  0  0  0  0  0  0  0  0  0  0
  147.8060  137.2081  154.6671 H   0  0  0  0  0  0  0  0  0  0  0  0
  145.5610  139.0953  155.4574 H   0  0  0  0  0  0  0  0  0  0  0  0
  146.5508  138.0884  156.5175 H   0  0  0  0  0  0  0  0  0  0  0  0
  152.1375  145.2150  156.9839 H   0  0  0  0  0  0  0  0  0  0  0  0
  152.4570  145.7200  158.6550 H   0  0  0  0  0  0  0  0  0  0  0  0
  150.7979  145.3575  158.1418 H   0  0  0  0  0  0  0  0  0  0  0  0
  1  2  1  0  0  0  0
  1 19  1  0  0  0  0
  1 20  1  0  0  0  0
  1 21  1  0  0  0  0
  2 18  2  0  0  0  0
  2  3  1  0  0  0  0
  3  4  2  0  0  0  0
  3 22  1  0  0  0  0
  4  5  1  0  0  0  0
  4 16  1  0  0  0  0
  5  6  1  0  0  0  0
  5 23  1  0  0  0  0
  6  7  2  0  0  0  0
  6  8  1  0  0  0  0
  8  9  1  0  0  0  0
  8 24  1  0  0  0  0
  9 10  1  0  0  0  0
  9 11  1  0  0  0  0
  9 25  1  0  0  0  0
 10 26  1  0  0  0  0
 10 27  1  0  0  0  0
 10 28  1  0  0  0  0
 11 15  1  0  0  0  0
 11 12  1  0  0  0  0
 11 29  1  0  0  0  0
 12 13  1  0  0  0  0
 12 30  1  0  0  0  0
 12 31  1  0  0  0  0
 13 14  1  0  0  0  0
 13 32  1  0  0  0  0
 13 33  1  0  0  0  0
 14 15  1  0  0  0  0
 14 34  1  0  0  0  0
 14 35  1  0  0  0  0
 16 17  1  0  0  0  0
 16 18  1  0  0  0  0
 17 36  1  0  0  0  0
 17 37  1  0  0  0  0
 17 38  1  0  0  0  0
M  END
> <s_m_source_file>
AV-unprocessed.smi

> <i_m_source_file_index>
2040

> <i_lp_mmshare_version>
43012

> <i_f3d_flags>
0

> <s_epik_input>
W0NIM11jMVtjSF1jKG4objEpW0NIM10pW05IXUMoPU8pW05IXVtDQEhdKFtDSDNdKVtDQEBIXTJbQ0gyXVtDSDJdW0NIMl1PMg==

> <s_epik_cmdline>
J2VwaWtfcHl0aG9uJywgJy1waCcsICc3LjAnLCAnLXRuJywgJzgnLCAnLW1hJywgJzIwMCcsICctbWV0YWxfYmluZGluZycsICctaW1hZScsICc8aW5maWxlLm1hZT4nLCAnLW9tYWUnLCAnPG91dGZpbGUubWFlPic=

> <r_lp_tautomer_probability>
1

> <r_epik_Ionization_Penalty>
9.09088e-05

> <r_epik_Ionization_Penalty_Charging>
0

> <r_epik_Ionization_Penalty_Neutral>
9.09088e-05

> <r_epik_State_Penalty>
-0

> <r_epik_Charging_Adjusted_Penalty>
0

> <i_epik_Tot_Q>
0

> <i_epik_Tot_abs_Q>
0

> <r_epik_Metal_State_Penalty>
-0

> <b_epik_Metal_Only>
0

> <s_lp_Force_Field>
OPLS_2005

> <r_lp_Energy>
18.8843

> <b_lp_Chiralities_Consistent>
1

> <s_lp_Variant>
AV-unprocessed.smi:2040-1

> <Gold.Version>
5.8.1

> <Gold.Id.Protein>
6NUR|6NUR_protein|mol2

> <Gold.PLP.Fitness>
39.6219

> <Gold.PLP.PLP>
-34.7841

> <Gold.PLP.part.hbond>
-2.0000

> <Gold.PLP.part.metal>
0.0000

> <Gold.PLP.part.buried>
-6.1782

> <Gold.PLP.part.nonpolar>
-26.5057

> <Gold.PLP.part.repulsive>
0.2403

> <Gold.PLP.ligand.clash>
0.0000

> <Gold.PLP.ligand.torsion>
0.4070

> <Gold.PLP.Chemscore.Hbond>
1.8800

> <Gold.PLP.Chemscore.CHOScore>
0.0000

> <Gold.PLP.Chemscore.Metal>
0.0000

> <Gold.Chemscore.Hbonds>
donor molecule, donor type, donor heavy atom, donor atom, acceptor molecule, acceptor atom, score
      L1  H     5    23       P1  8028  0.88
      L1  H     8    24       P1  8028  1.00

> <Gold.PLP.Chemscore.Internal.Correction>
0.0119

> <Gold.Rescore>
     Score         DG    S(hbond)    S(metal)    S(lipo)     H(rot)  DE(clash)    DE(int)     intcor
     13.84     -17.05       1.88        0.00      72.15       1.23       1.38       1.84       ----

> <Gold.Chemscore.Fitness>
13.8379

> <Gold.Chemscore.DG>
-17.0541

> <Gold.Chemscore.ZeroCoef>
-5.4800

> <Gold.Chemscore.Hbond>
1.8836

> <Gold.Chemscore.Metal>
0.0000

> <Gold.Chemscore.Lipo>
72.1484

> <Gold.Chemscore.Internal_Hbond>
0.0000

> <Gold.Chemscore.DEClash>
1.3793

> <Gold.Chemscore.DEInternal>
1.8369

> <Gold.Chemscore.Rot>
1.2338

> <Gold.Chemscore.Internal.Correction>
   9.000000E+99

> <Gold.Chemscore.Hbonds>
donor molecule, donor type, donor heavy atom, donor atom, acceptor molecule, acceptor atom, score
      L1  H     5    23       P1  8028  0.81
      L1  H     8    24       P1  8028  0.97

> <Gold.Chemscore.Hbond.Weighted>
-6.2911

> <Gold.Chemscore.Metal.Weighted>
-0.0000

> <Gold.Chemscore.Lipo.Weighted>
-8.4414

> <Gold.Chemscore.Internal_Hbond.Weighted>
0.0000

> <Gold.Chemscore.DEClash.Weighted>
1.3793

> <Gold.Chemscore.DEInternal.Weighted>
1.8369

> <Gold.Chemscore.Rot.Weighted>
3.1584

> <Gold.Chemscore.Internal.Correction.Weighted>
   9.000000E+99

> <Gold.Protein.RotatedTorsions>
[ 6907 6896 6895 6894 ] final  -86.85 input  -60.11 | X-H torsion
[ 7974 7965 7964 7962 ] final  -45.69 input  175.53 | X-H torsion
[ 8008 7997 7996 7995 ] final   52.82 input   59.86 | X-H torsion
[ 10167 10162 10161 10158 ] final   66.52 input  -65.29 | X-H torsion
[ 10718 10713 10712 10709 ] final   28.74 input   66.30 | X-H torsion
[ 10763 10752 10751 10750 ] final  166.35 input  -60.55 | X-H torsion
[ 11005 11000 10999 10996 ] final -158.40 input  -57.11 | X-H torsion

> <Gold.Protein.ActiveResidues>
 VAL166  LYS551  ARG553  GLY616  TRP617  ASP618  TYR619  PRO620  LYS621  CYS622 
 ASP623  PHE694  ASN695  SER759  ASP760  ASP761  ALA762  ILE779  LEU786  VAL792 
 PHE793  MET794  SER795  GLU796  ALA797  LYS798  CYS799  TRP800  GLU811  SER814 

> <Gold.Protein.RotatedAtoms>
  150.6866  134.2986  159.4696 H   0  0  0  0  0  0  0  0  0  0  0  0  # atno 6907 bound_to 6896
  152.0884  134.9421  160.0581 H   0  0  0  0  0  0  0  0  0  0  0  0  # atno 6908 bound_to 6896
  152.0747  133.4088  159.4511 H   0  0  0  0  0  0  0  0  0  0  0  0  # atno 6909 bound_to 6896
  145.9795  140.7298  142.9370 H   0  0  0  0  0  0  0  0  0  0  0  0  # atno 7974 bound_to 7965
  155.4581  140.3461  155.4309 H   0  0  0  0  0  0  0  0  0  0  0  0  # atno 8008 bound_to 7997
  156.1178  140.1478  156.9277 H   0  0  0  0  0  0  0  0  0  0  0  0  # atno 8009 bound_to 7997
  154.4801  140.0872  156.7337 H   0  0  0  0  0  0  0  0  0  0  0  0  # atno 8010 bound_to 7997
  140.0995  144.4917  150.7047 H   0  0  0  0  0  0  0  0  0  0  0  0  # atno 10167 bound_to 10162
  157.2374  130.7052  149.6342 H   0  0  0  0  0  0  0  0  0  0  0  0  # atno 10718 bound_to 10713
  154.3376  135.2754  155.2439 H   0  0  0  0  0  0  0  0  0  0  0  0  # atno 10763 bound_to 10752
  154.4724  135.5879  153.6334 H   0  0  0  0  0  0  0  0  0  0  0  0  # atno 10764 bound_to 10752
  152.9860  135.6091  154.3574 H   0  0  0  0  0  0  0  0  0  0  0  0  # atno 10765 bound_to 10752
  140.6540  134.4420  157.5235 H   0  0  0  0  0  0  0  0  0  0  0  0  # atno 11005 bound_to 11000
  144.6858  140.2885  143.7281 LP  0  0  0  0  0  0  0  0  0  0  0  0  # atno 17320 bound_to 7965
  145.7789  139.1884  143.2169 LP  0  0  0  0  0  0  0  0  0  0  0  0  # atno 17321 bound_to 7965
  140.6985  143.2419  151.4931 LP  0  0  0  0  0  0  0  0  0  0  0  0  # atno 17342 bound_to 10162
  139.5679  144.1998  152.1793 LP  0  0  0  0  0  0  0  0  0  0  0  0  # atno 17343 bound_to 10162
  155.9672  130.4469  150.5560 LP  0  0  0  0  0  0  0  0  0  0  0  0  # atno 17370 bound_to 10713
  157.3415  131.0717  151.1784 LP  0  0  0  0  0  0  0  0  0  0  0  0  # atno 17371 bound_to 10713
  139.9036  134.8500  156.1796 LP  0  0  0  0  0  0  0  0  0  0  0  0  # atno 17394 bound_to 11000
  141.0515  133.6886  156.1781 LP  0  0  0  0  0  0  0  0  0  0  0  0  # atno 17395 bound_to 11000

$$$$
