AV-unprocessed.smi:3194|AV-procd|sdf|12211|dock7
  -GOLD-   2272018 53D 1   1.00000     0.00000
 Structure written by MMmdl.
 27 27  0  0  0  0  0  0  0  0  2 V2000
  151.6617  140.2885  155.8065 C   0  0  0  0  0  0  0  0  0  0  0  0
  152.0267  138.7981  155.8723 C   0  0  1  0  0  0  0  0  0  0  0  0
  152.6663  138.3217  154.5534 C   0  0  0  0  0  0  0  0  0  0  0  0
  152.0330  137.1549  154.0663 O   0  0  0  0  0  0  0  0  0  0  0  0
  152.9648  138.5958  156.9786 N   0  5  0  0  0  0  0  0  0  0  0  0
  152.6637  137.9371  158.1355 C   0  0  0  0  0  0  0  0  0  0  0  0
  151.7966  137.0847  158.3589 O   0  0  0  0  0  0  0  0  0  0  0  0
  153.5727  138.3827  159.3005 C   0  0  0  0  0  0  0  0  0  0  0  0
  153.3429  137.6007  160.3591 F   0  0  0  0  0  0  0  0  0  0  0  0
  154.8537  138.2166  158.9554 F   0  0  0  0  0  0  0  0  0  0  0  0
  153.3002  139.8389  159.6773 C   0  0  0  0  0  0  0  0  0  0  0  0
  153.9669  140.4472  160.7659 C   0  0  0  0  0  0  0  0  0  0  0  0
  153.6896  141.7953  161.0617 C   0  0  0  0  0  0  0  0  0  0  0  0
  152.7581  142.4874  160.2651 C   0  0  0  0  0  0  0  0  0  0  0  0
  152.1449  141.7968  159.2016 C   0  0  0  0  0  0  0  0  0  0  0  0
  152.4036  140.5047  158.9092 N   0  0  0  0  0  0  0  0  0  0  0  0
  151.0955  138.2457  156.0094 H   0  0  0  0  0  0  0  0  0  0  0  0
  150.9572  140.4829  154.9975 H   0  0  0  0  0  0  0  0  0  0  0  0
  152.5423  140.9091  155.6364 H   0  0  0  0  0  0  0  0  0  0  0  0
  151.1936  140.6207  156.7340 H   0  0  0  0  0  0  0  0  0  0  0  0
  152.5770  139.0952  153.7904 H   0  0  0  0  0  0  0  0  0  0  0  0
  153.7313  138.1248  154.6839 H   0  0  0  0  0  0  0  0  0  0  0  0
  152.0687  137.1673  153.1230 H   0  0  0  0  0  0  0  0  0  0  0  0
  154.6857  139.8971  161.3549 H   0  0  0  0  0  0  0  0  0  0  0  0
  154.1848  142.2901  161.8840 H   0  0  0  0  0  0  0  0  0  0  0  0
  152.5213  143.5224  160.4620 H   0  0  0  0  0  0  0  0  0  0  0  0
  151.4259  142.2956  158.5687 H   0  0  0  0  0  0  0  0  0  0  0  0
  1  2  1  0  0  0  0
  1 18  1  0  0  0  0
  1 19  1  0  0  0  0
  1 20  1  0  0  0  0
  2 17  1  0  0  0  0
  2  3  1  0  0  0  0
  2  5  1  0  0  0  0
  3  4  1  0  0  0  0
  3 21  1  0  0  0  0
  3 22  1  0  0  0  0
  4 23  1  0  0  0  0
  5  6  1  0  0  0  0
  6  7  2  0  0  0  0
  6  8  1  0  0  0  0
  8  9  1  0  0  0  0
  8 10  1  0  0  0  0
  8 11  1  0  0  0  0
 11 16  1  0  0  0  0
 11 12  2  0  0  0  0
 12 13  1  0  0  0  0
 12 24  1  0  0  0  0
 13 14  2  0  0  0  0
 13 25  1  0  0  0  0
 14 15  1  0  0  0  0
 14 26  1  0  0  0  0
 15 16  2  0  0  0  0
 15 27  1  0  0  0  0
M  CHG  1   5  -1
M  END
> <s_m_source_file>
AV-unprocessed.smi

> <i_m_source_file_index>
3194

> <i_lp_mmshare_version>
43012

> <i_f3d_flags>
0

> <s_epik_input>
W09IXVtDSDJdW0NASF0oW0NIM10pW05IXUMoPU8pQyhGKShGKWMxW2NIXVtjSF1bY0hdW2NIXW4x

> <s_epik_cmdline>
J2VwaWtfcHl0aG9uJywgJy1waCcsICc3LjAnLCAnLXRuJywgJzgnLCAnLW1hJywgJzIwMCcsICctbWV0YWxfYmluZGluZycsICctaW1hZScsICc8aW5maWxlLm1hZT4nLCAnLW9tYWUnLCAnPG91dGZpbGUubWFlPic=

> <r_lp_tautomer_probability>
1

> <r_epik_Ionization_Penalty>
5.78943

> <r_epik_Ionization_Penalty_Charging>
5.78942

> <r_epik_Ionization_Penalty_Neutral>
4.0054e-06

> <r_epik_State_Penalty>
5.78939

> <r_epik_Charging_Adjusted_Penalty>
11.5788

> <i_epik_Tot_Q>
-1

> <i_epik_Tot_abs_Q>
1

> <r_epik_Metal_State_Penalty>
1.76064

> <b_epik_Metal_Only>
1

> <s_lp_Force_Field>
OPLS_2005

> <r_lp_Energy>
17.1269

> <b_lp_Chiralities_Consistent>
1

> <s_lp_Variant>
AV-unprocessed.smi:3194-3

> <Gold.Version>
5.8.1

> <Gold.Id.Protein>
6NUR|6NUR_protein|mol2

> <Gold.PLP.Fitness>
39.2665

> <Gold.PLP.PLP>
-30.0827

> <Gold.PLP.part.hbond>
-3.0000

> <Gold.PLP.part.metal>
0.0000

> <Gold.PLP.part.buried>
-2.7027

> <Gold.PLP.part.nonpolar>
-23.7110

> <Gold.PLP.part.repulsive>
0.0000

> <Gold.PLP.ligand.clash>
0.0000

> <Gold.PLP.ligand.torsion>
1.0579

> <Gold.PLP.Chemscore.Hbond>
3.7499

> <Gold.PLP.Chemscore.CHOScore>
0.0000

> <Gold.PLP.Chemscore.Metal>
0.0000

> <Gold.Chemscore.Hbonds>
donor molecule, donor type, donor heavy atom, donor atom, acceptor molecule, acceptor atom, score
      L1  H     4    23       P1  7949  0.42
      P1  H  7997  8008       L1     5  1.82
      P1  H 10752 10763       L1     4  0.85

> <Gold.PLP.Chemscore.Internal.Correction>
0.0500

> <Gold.Rescore>
     Score         DG    S(hbond)    S(metal)    S(lipo)     H(rot)  DE(clash)    DE(int)     intcor
     13.51     -16.56       2.58        0.00      74.27       2.43       0.72       2.33       ----

> <Gold.Chemscore.Fitness>
13.5098

> <Gold.Chemscore.DG>
-16.5556

> <Gold.Chemscore.ZeroCoef>
-5.4800

> <Gold.Chemscore.Hbond>
2.5752

> <Gold.Chemscore.Metal>
0.0000

> <Gold.Chemscore.Lipo>
74.2690

> <Gold.Chemscore.Internal_Hbond>
0.0000

> <Gold.Chemscore.DEClash>
0.7208

> <Gold.Chemscore.DEInternal>
2.3250

> <Gold.Chemscore.Rot>
2.4277

> <Gold.Chemscore.Internal.Correction>
   9.000000E+99

> <Gold.Chemscore.Hbonds>
donor molecule, donor type, donor heavy atom, donor atom, acceptor molecule, acceptor atom, score
      L1  H     4    23       P1  7949  0.42
      P1  H  7997  8008       L1     5  0.39
      P1  H 10752 10763       L1     4  0.17

> <Gold.Chemscore.Hbond.Weighted>
-8.6010

> <Gold.Chemscore.Metal.Weighted>
-0.0000

> <Gold.Chemscore.Lipo.Weighted>
-8.6895

> <Gold.Chemscore.Internal_Hbond.Weighted>
0.0000

> <Gold.Chemscore.DEClash.Weighted>
0.7208

> <Gold.Chemscore.DEInternal.Weighted>
2.3250

> <Gold.Chemscore.Rot.Weighted>
6.2149

> <Gold.Chemscore.Internal.Correction.Weighted>
   9.000000E+99

> <Gold.Protein.RotatedTorsions>
[ 6907 6896 6895 6894 ] final  175.20 input  -60.11 | X-H torsion
[ 7974 7965 7964 7962 ] final -154.51 input  175.53 | X-H torsion
[ 8008 7997 7996 7995 ] final  -63.10 input   59.86 | X-H torsion
[ 10167 10162 10161 10158 ] final    3.18 input  -65.29 | X-H torsion
[ 10718 10713 10712 10709 ] final   -2.26 input   66.30 | X-H torsion
[ 10763 10752 10751 10750 ] final   47.26 input  -60.55 | X-H torsion
[ 11005 11000 10999 10996 ] final  -77.95 input  -57.11 | X-H torsion

> <Gold.Protein.ActiveResidues>
 VAL166  LYS551  ARG553  GLY616  TRP617  ASP618  TYR619  PRO620  LYS621  CYS622 
 ASP623  PHE694  ASN695  SER759  ASP760  ASP761  ALA762  ILE779  LEU786  VAL792 
 PHE793  MET794  SER795  GLU796  ALA797  LYS798  CYS799  TRP800  GLU811  SER814 

> <Gold.Protein.RotatedAtoms>
  151.7400  133.3321  159.3362 H   0  0  0  0  0  0  0  0  0  0  0  0  # atno 6907 bound_to 6896
  150.7577  134.6287  159.6184 H   0  0  0  0  0  0  0  0  0  0  0  0  # atno 6908 bound_to 6896
  152.3537  134.6972  160.0280 H   0  0  0  0  0  0  0  0  0  0  0  0  # atno 6909 bound_to 6896
  144.7685  140.4377  143.5924 H   0  0  0  0  0  0  0  0  0  0  0  0  # atno 7974 bound_to 7965
  154.4536  140.0982  156.6690 H   0  0  0  0  0  0  0  0  0  0  0  0  # atno 8008 bound_to 7997
  155.5209  140.3479  155.4388 H   0  0  0  0  0  0  0  0  0  0  0  0  # atno 8009 bound_to 7997
  156.0731  140.1354  156.9793 H   0  0  0  0  0  0  0  0  0  0  0  0  # atno 8010 bound_to 7997
  140.6599  143.7332  150.7719 H   0  0  0  0  0  0  0  0  0  0  0  0  # atno 10167 bound_to 10162
  156.7934  130.5369  149.5732 H   0  0  0  0  0  0  0  0  0  0  0  0  # atno 10718 bound_to 10713
  152.9802  135.5982  154.3734 H   0  0  0  0  0  0  0  0  0  0  0  0  # atno 10763 bound_to 10752
  154.3405  135.2768  155.2427 H   0  0  0  0  0  0  0  0  0  0  0  0  # atno 10764 bound_to 10752
  154.4510  135.5989  153.6247 H   0  0  0  0  0  0  0  0  0  0  0  0  # atno 10765 bound_to 10752
  141.1663  133.7043  156.7898 H   0  0  0  0  0  0  0  0  0  0  0  0  # atno 11005 bound_to 11000
  145.6394  139.1548  143.2924 LP  0  0  0  0  0  0  0  0  0  0  0  0  # atno 17320 bound_to 7965
  146.1813  140.6492  142.9188 LP  0  0  0  0  0  0  0  0  0  0  0  0  # atno 17321 bound_to 7965
  140.0999  143.4798  152.2431 LP  0  0  0  0  0  0  0  0  0  0  0  0  # atno 17342 bound_to 10162
  139.5830  144.7519  151.3592 LP  0  0  0  0  0  0  0  0  0  0  0  0  # atno 17343 bound_to 10162
  156.1145  130.6064  151.0099 LP  0  0  0  0  0  0  0  0  0  0  0  0  # atno 17370 bound_to 10713
  157.6589  131.0884  150.7884 LP  0  0  0  0  0  0  0  0  0  0  0  0  # atno 17371 bound_to 10713
  140.2334  134.8669  157.3500 LP  0  0  0  0  0  0  0  0  0  0  0  0  # atno 17394 bound_to 11000
  140.1868  134.4421  155.7739 LP  0  0  0  0  0  0  0  0  0  0  0  0  # atno 17395 bound_to 11000

$$$$
