AV-unprocessed.smi:1021|AV-procd|sdf|4456|dock5
  -GOLD-   22720 2423D 1   1.00000     0.00000
 Structure written by MMmdl.
 43 45  0  0  0  0  0  0  0  0  2 V2000
  155.4082  138.8423  154.1572 O   0  0  0  0  0  0  0  0  0  0  0  0
  154.2885  138.1197  154.6230 C   0  0  0  0  0  0  0  0  0  0  0  0
  153.0118  138.9610  154.4873 C   0  0  0  0  0  0  0  0  0  0  0  0
  151.7279  138.1175  154.5229 C   0  0  0  0  0  0  0  0  0  0  0  0
  150.5073  138.9681  154.3884 C   0  0  0  0  0  0  0  0  0  0  0  0
  149.4169  138.6772  153.6244 N   0  3  0  0  0  0  0  0  0  0  0  0
  148.4760  139.7017  153.7331 C   0  0  0  0  0  0  0  0  0  0  0  0
  147.2208  139.8528  153.1520 C   0  0  0  0  0  0  0  0  0  0  0  0
  146.5119  141.0288  153.4739 C   0  0  0  0  0  0  0  0  0  0  0  0
  147.0544  141.9995  154.3411 C   0  0  0  0  0  0  0  0  0  0  0  0
  148.3286  141.8356  154.9236 C   0  0  0  0  0  0  0  0  0  0  0  0
  149.0216  140.6691  154.6012 C   0  0  0  0  0  0  0  0  0  0  0  0
  150.2737  140.1751  154.9822 N   0  0  0  0  0  0  0  0  0  0  0  0
  151.1028  140.9651  155.9062 C   0  0  0  0  0  0  0  0  0  0  0  0
  151.6588  140.1269  157.0755 C   0  0  2  0  0  0  0  0  0  0  0  0
  150.7160  139.1211  157.3827 O   0  0  0  0  0  0  0  0  0  0  0  0
  152.0093  140.9844  158.2838 C   0  0  0  0  0  0  0  0  0  0  0  0
  151.5805  142.3282  158.3377 C   0  0  0  0  0  0  0  0  0  0  0  0
  151.8744  143.1232  159.4623 C   0  0  0  0  0  0  0  0  0  0  0  0
  152.5997  142.5796  160.5396 C   0  0  0  0  0  0  0  0  0  0  0  0
  152.8800  143.3436  161.6216 F   0  0  0  0  0  0  0  0  0  0  0  0
  153.0315  141.2403  160.4915 C   0  0  0  0  0  0  0  0  0  0  0  0
  152.7372  140.4443  159.3676 C   0  0  0  0  0  0  0  0  0  0  0  0
  156.0235  138.2320  153.7794 H   0  0  0  0  0  0  0  0  0  0  0  0
  154.1999  137.1855  154.0677 H   0  0  0  0  0  0  0  0  0  0  0  0
  154.4562  137.8589  155.6681 H   0  0  0  0  0  0  0  0  0  0  0  0
  152.9857  139.6817  155.3053 H   0  0  0  0  0  0  0  0  0  0  0  0
  153.0503  139.5460  153.5676 H   0  0  0  0  0  0  0  0  0  0  0  0
  151.7341  137.3813  153.7185 H   0  0  0  0  0  0  0  0  0  0  0  0
  151.6724  137.5558  155.4544 H   0  0  0  0  0  0  0  0  0  0  0  0
  146.8037  139.1111  152.4866 H   0  0  0  0  0  0  0  0  0  0  0  0
  145.5326  141.1896  153.0468 H   0  0  0  0  0  0  0  0  0  0  0  0
  146.4821  142.8883  154.5642 H   0  0  0  0  0  0  0  0  0  0  0  0
  148.7363  142.5844  155.5865 H   0  0  0  0  0  0  0  0  0  0  0  0
  151.9163  141.4144  155.3354 H   0  0  0  0  0  0  0  0  0  0  0  0
  150.4961  141.7932  156.2754 H   0  0  0  0  0  0  0  0  0  0  0  0
  152.5607  139.6071  156.7507 H   0  0  0  0  0  0  0  0  0  0  0  0
  150.0827  139.4778  157.9869 H   0  0  0  0  0  0  0  0  0  0  0  0
  151.0161  142.7510  157.5195 H   0  0  0  0  0  0  0  0  0  0  0  0
  151.5415  144.1500  159.4997 H   0  0  0  0  0  0  0  0  0  0  0  0
  153.5863  140.8220  161.3185 H   0  0  0  0  0  0  0  0  0  0  0  0
  153.0647  139.4152  159.3462 H   0  0  0  0  0  0  0  0  0  0  0  0
  149.3264  137.8360  153.0690 H   0  0  0  0  0  0  0  0  0  0  0  0
  1  2  1  0  0  0  0
  1 24  1  0  0  0  0
  2  3  1  0  0  0  0
  2 25  1  0  0  0  0
  2 26  1  0  0  0  0
  3  4  1  0  0  0  0
  3 27  1  0  0  0  0
  3 28  1  0  0  0  0
  4  5  1  0  0  0  0
  4 29  1  0  0  0  0
  4 30  1  0  0  0  0
  5 13  1  0  0  0  0
  5  6  2  0  0  0  0
  6  7  1  0  0  0  0
  6 43  1  0  0  0  0
  7 12  2  0  0  0  0
  7  8  1  0  0  0  0
  8  9  2  0  0  0  0
  8 31  1  0  0  0  0
  9 10  1  0  0  0  0
  9 32  1  0  0  0  0
 10 11  2  0  0  0  0
 10 33  1  0  0  0  0
 11 12  1  0  0  0  0
 11 34  1  0  0  0  0
 12 13  1  0  0  0  0
 13 14  1  0  0  0  0
 14 15  1  0  0  0  0
 14 35  1  0  0  0  0
 14 36  1  0  0  0  0
 15 16  1  0  0  0  0
 15 17  1  0  0  0  0
 15 37  1  0  0  0  0
 16 38  1  0  0  0  0
 17 23  1  0  0  0  0
 17 18  2  0  0  0  0
 18 19  1  0  0  0  0
 18 39  1  0  0  0  0
 19 20  2  0  0  0  0
 19 40  1  0  0  0  0
 20 21  1  0  0  0  0
 20 22  1  0  0  0  0
 22 23  2  0  0  0  0
 22 41  1  0  0  0  0
 23 42  1  0  0  0  0
M  CHG  1   6   1
M  END
> <s_m_source_file>
AV-unprocessed.smi

> <i_m_source_file_index>
1021

> <i_lp_mmshare_version>
43012

> <i_f3d_flags>
0

> <s_epik_input>
W09IXVtDSDJdW0NIMl1bQ0gyXWMobjEpbihjKGMxMilbY0hdW2NIXVtjSF1bY0hdMilbQ0gyXVtDQEhdKFtPSF0pYzNbY0hdW2NIXWMoRilbY0hdW2NIXTM=

> <s_epik_cmdline>
J2VwaWtfcHl0aG9uJywgJy1waCcsICc3LjAnLCAnLXRuJywgJzgnLCAnLW1hJywgJzIwMCcsICctbWV0YWxfYmluZGluZycsICctaW1hZScsICc8aW5maWxlLm1hZT4nLCAnLW9tYWUnLCAnPG91dGZpbGUubWFlPic=

> <r_epik_Ionization_Penalty>
0.786441

> <r_epik_Ionization_Penalty_Charging>
0.786439

> <r_epik_Ionization_Penalty_Neutral>
1.96029e-06

> <r_epik_State_Penalty>
0.816472

> <r_epik_Charging_Adjusted_Penalty>
1.60291

> <i_epik_Tot_Q>
1

> <i_epik_Tot_abs_Q>
1

> <r_epik_Metal_State_Penalty>
4.73733

> <b_epik_Metal_Only>
0

> <s_lp_Force_Field>
OPLS_2005

> <r_lp_Energy>
17.0058

> <b_lp_Chiralities_Consistent>
1

> <s_lp_Variant>
AV-unprocessed.smi:1021-3

> <Gold.Version>
5.8.1

> <Gold.Id.Protein>
6NUR|6NUR_protein|mol2

> <Gold.PLP.Fitness>
54.9992

> <Gold.PLP.PLP>
-48.4174

> <Gold.PLP.part.hbond>
-3.0000

> <Gold.PLP.part.metal>
0.0000

> <Gold.PLP.part.buried>
5.0809

> <Gold.PLP.part.nonpolar>
-50.8204

> <Gold.PLP.part.repulsive>
0.0718

> <Gold.PLP.ligand.clash>
0.0000

> <Gold.PLP.ligand.torsion>
0.9360

> <Gold.PLP.Chemscore.Hbond>
2.8000

> <Gold.PLP.Chemscore.CHOScore>
0.0000

> <Gold.PLP.Chemscore.Metal>
0.0000

> <Gold.Chemscore.Hbonds>
donor molecule, donor type, donor heavy atom, donor atom, acceptor molecule, acceptor atom, score
      L1  H     6    43       P1  7948  2.00
      P1  H  7997  8010       L1     1  0.78

> <Gold.PLP.Chemscore.Internal.Correction>
0.0537

> <Gold.Rescore>
     Score         DG    S(hbond)    S(metal)    S(lipo)     H(rot)  DE(clash)    DE(int)     intcor
     14.09     -17.72       1.32        0.00     136.07       3.16       2.87       0.77       ----

> <Gold.Chemscore.Fitness>
14.0884

> <Gold.Chemscore.DG>
-17.7207

> <Gold.Chemscore.ZeroCoef>
-5.4800

> <Gold.Chemscore.Hbond>
1.3206

> <Gold.Chemscore.Metal>
0.0000

> <Gold.Chemscore.Lipo>
136.0738

> <Gold.Chemscore.Internal_Hbond>
0.0000

> <Gold.Chemscore.DEClash>
2.8667

> <Gold.Chemscore.DEInternal>
0.7656

> <Gold.Chemscore.Rot>
3.1604

> <Gold.Chemscore.Internal.Correction>
   9.000000E+99

> <Gold.Chemscore.Hbonds>
donor molecule, donor type, donor heavy atom, donor atom, acceptor molecule, acceptor atom, score
      L1  H     6    43       P1  7948  0.91
      P1  H  7997  8010       L1     1  0.18

> <Gold.Chemscore.Hbond.Weighted>
-4.4107

> <Gold.Chemscore.Metal.Weighted>
-0.0000

> <Gold.Chemscore.Lipo.Weighted>
-15.9206

> <Gold.Chemscore.Internal_Hbond.Weighted>
0.0000

> <Gold.Chemscore.DEClash.Weighted>
2.8667

> <Gold.Chemscore.DEInternal.Weighted>
0.7656

> <Gold.Chemscore.Rot.Weighted>
8.0907

> <Gold.Chemscore.Internal.Correction.Weighted>
   9.000000E+99

> <Gold.Protein.RotatedTorsions>
[ 6907 6896 6895 6894 ] final -115.46 input  -60.11 | X-H torsion
[ 7974 7965 7964 7962 ] final  160.78 input  175.53 | X-H torsion
[ 8008 7997 7996 7995 ] final  166.52 input   59.86 | X-H torsion
[ 10167 10162 10161 10158 ] final   -1.32 input  -65.29 | X-H torsion
[ 10718 10713 10712 10709 ] final -179.50 input   66.30 | X-H torsion
[ 10763 10752 10751 10750 ] final   61.31 input  -60.55 | X-H torsion
[ 11005 11000 10999 10996 ] final    2.32 input  -57.11 | X-H torsion

> <Gold.Protein.ActiveResidues>
 VAL166  LYS551  ARG553  GLY616  TRP617  ASP618  TYR619  PRO620  LYS621  CYS622 
 ASP623  PHE694  ASN695  SER759  ASP760  ASP761  ALA762  ILE779  LEU786  VAL792 
 PHE793  MET794  SER795  GLU796  ALA797  LYS798  CYS799  TRP800  GLU811  SER814 

> <Gold.Protein.RotatedAtoms>
  150.7979  133.8655  159.3243 H   0  0  0  0  0  0  0  0  0  0  0  0  # atno 6907 bound_to 6896
  151.6476  135.1003  160.0163 H   0  0  0  0  0  0  0  0  0  0  0  0  # atno 6908 bound_to 6896
  152.4063  133.6855  159.6394 H   0  0  0  0  0  0  0  0  0  0  0  0  # atno 6909 bound_to 6896
  144.7719  139.7805  143.6293 H   0  0  0  0  0  0  0  0  0  0  0  0  # atno 7974 bound_to 7965
  156.1712  140.1641  156.8444 H   0  0  0  0  0  0  0  0  0  0  0  0  # atno 8008 bound_to 7997
  154.5258  140.0768  156.8290 H   0  0  0  0  0  0  0  0  0  0  0  0  # atno 8009 bound_to 7997
  155.3509  140.3390  155.4241 H   0  0  0  0  0  0  0  0  0  0  0  0  # atno 8010 bound_to 7997
  140.6805  143.6789  150.8122 H   0  0  0  0  0  0  0  0  0  0  0  0  # atno 10167 bound_to 10162
  156.8600  130.9748  151.3084 H   0  0  0  0  0  0  0  0  0  0  0  0  # atno 10718 bound_to 10713
  152.9946  135.5505  154.6013 H   0  0  0  0  0  0  0  0  0  0  0  0  # atno 10763 bound_to 10752
  154.5354  135.2816  155.1145 H   0  0  0  0  0  0  0  0  0  0  0  0  # atno 10764 bound_to 10752
  154.2444  135.6410  153.5271 H   0  0  0  0  0  0  0  0  0  0  0  0  # atno 10765 bound_to 10752
  140.6056  133.9796  155.8152 H   0  0  0  0  0  0  0  0  0  0  0  0  # atno 11005 bound_to 11000
  146.1872  139.5093  142.9828 LP  0  0  0  0  0  0  0  0  0  0  0  0  # atno 17320 bound_to 7965
  145.6298  141.0306  143.1869 LP  0  0  0  0  0  0  0  0  0  0  0  0  # atno 17321 bound_to 7965
  140.0489  143.5270  152.2683 LP  0  0  0  0  0  0  0  0  0  0  0  0  # atno 17342 bound_to 10162
  139.6124  144.7612  151.2921 LP  0  0  0  0  0  0  0  0  0  0  0  0  # atno 17343 bound_to 10162
  157.6256  130.8688  149.9183 LP  0  0  0  0  0  0  0  0  0  0  0  0  # atno 17370 bound_to 10713
  156.0782  130.3676  150.0634 LP  0  0  0  0  0  0  0  0  0  0  0  0  # atno 17371 bound_to 10713
  141.0843  134.0015  157.3338 LP  0  0  0  0  0  0  0  0  0  0  0  0  # atno 17394 bound_to 11000
  139.9214  135.0200  156.8077 LP  0  0  0  0  0  0  0  0  0  0  0  0  # atno 17395 bound_to 11000

$$$$
