AV-unprocessed.smi:1399|AV-procd|sdf|5681|dock1
  -GOLD-   22720 5303D 1   1.00000     0.00000
 Structure written by MMmdl.
 37 38  0  0  0  0  0  0  0  0  1 V2000
  149.8365  142.5056  155.6072 N   0  0  0  0  0  0  0  0  0  0  0  0
  149.5457  141.3733  154.9616 C   0  0  0  0  0  0  0  0  0  0  0  0
  150.3771  140.4866  154.7804 O   0  0  0  0  0  0  0  0  0  0  0  0
  148.1141  141.2178  154.4357 C   0  0  0  0  0  0  0  0  0  0  0  0
  147.8521  139.9497  153.7159 N   0  0  0  0  0  0  0  0  0  0  0  0
  146.8066  140.0913  152.6912 C   0  0  0  0  0  0  0  0  0  0  0  0
  146.6160  138.7704  151.9244 C   0  0  0  0  0  0  0  0  0  0  0  0
  146.2625  137.6173  152.8780 C   0  0  0  0  0  0  0  0  0  0  0  0
  146.2127  136.3445  152.1647 N   0  0  0  0  0  0  0  0  0  0  0  0
  145.0950  135.6594  151.8844 C   0  0  0  0  0  0  0  0  0  0  0  0
  143.9667  136.0382  152.1990 O   0  0  0  0  0  0  0  0  0  0  0  0
  145.3720  134.5235  151.2234 N   0  0  0  0  0  0  0  0  0  0  0  0
  144.4515  133.5472  150.7658 C   0  0  0  0  0  0  0  0  0  0  0  0
  144.4833  132.9452  149.4786 C   0  0  0  0  0  0  0  0  0  0  0  0
  143.5010  132.0679  149.3305 N   0  0  0  0  0  0  0  0  0  0  0  0
  142.8419  132.1046  150.5107 N   0  0  0  0  0  0  0  0  0  0  0  0
  143.3850  132.9905  151.4148 C   0  0  0  0  0  0  0  0  0  0  0  0
  147.3172  137.5522  153.9911 C   0  0  0  0  0  0  0  0  0  0  0  0
  147.4738  138.9162  154.6855 C   0  0  0  0  0  0  0  0  0  0  0  0
  142.0323  131.5253  150.6826 H   0  0  0  0  0  0  0  0  0  0  0  0
  150.7650  142.6487  155.9769 H   0  0  0  0  0  0  0  0  0  0  0  0
  149.1241  143.2107  155.7285 H   0  0  0  0  0  0  0  0  0  0  0  0
  147.4456  141.2937  155.2946 H   0  0  0  0  0  0  0  0  0  0  0  0
  147.8803  142.0644  153.7871 H   0  0  0  0  0  0  0  0  0  0  0  0
  145.8667  140.3993  153.1525 H   0  0  0  0  0  0  0  0  0  0  0  0
  147.0704  140.8639  151.9691 H   0  0  0  0  0  0  0  0  0  0  0  0
  145.8325  138.8928  151.1759 H   0  0  0  0  0  0  0  0  0  0  0  0
  147.5305  138.5349  151.3776 H   0  0  0  0  0  0  0  0  0  0  0  0
  145.2905  137.8143  153.3350 H   0  0  0  0  0  0  0  0  0  0  0  0
  147.0955  135.9571  151.8653 H   0  0  0  0  0  0  0  0  0  0  0  0
  146.3445  134.3356  151.0285 H   0  0  0  0  0  0  0  0  0  0  0  0
  145.1728  133.1119  148.6640 H   0  0  0  0  0  0  0  0  0  0  0  0
  142.9725  133.1345  152.4024 H   0  0  0  0  0  0  0  0  0  0  0  0
  147.0391  136.7950  154.7252 H   0  0  0  0  0  0  0  0  0  0  0  0
  148.2792  137.2441  153.5782 H   0  0  0  0  0  0  0  0  0  0  0  0
  148.2430  138.8314  155.4544 H   0  0  0  0  0  0  0  0  0  0  0  0
  146.5472  139.1908  155.1931 H   0  0  0  0  0  0  0  0  0  0  0  0
  1  2  1  0  0  0  0
  1 21  1  0  0  0  0
  1 22  1  0  0  0  0
  2  3  2  0  0  0  0
  2  4  1  0  0  0  0
  4  5  1  0  0  0  0
  4 23  1  0  0  0  0
  4 24  1  0  0  0  0
  5 19  1  0  0  0  0
  5  6  1  0  0  0  0
  6  7  1  0  0  0  0
  6 25  1  0  0  0  0
  6 26  1  0  0  0  0
  7  8  1  0  0  0  0
  7 27  1  0  0  0  0
  7 28  1  0  0  0  0
  8  9  1  0  0  0  0
  8 18  1  0  0  0  0
  8 29  1  0  0  0  0
  9 10  1  0  0  0  0
  9 30  1  0  0  0  0
 10 11  2  0  0  0  0
 10 12  1  0  0  0  0
 12 13  1  0  0  0  0
 12 31  1  0  0  0  0
 13 17  2  0  0  0  0
 13 14  1  0  0  0  0
 14 15  2  0  0  0  0
 14 32  1  0  0  0  0
 15 16  1  0  0  0  0
 16 20  1  0  0  0  0
 16 17  1  0  0  0  0
 17 33  1  0  0  0  0
 18 19  1  0  0  0  0
 18 34  1  0  0  0  0
 18 35  1  0  0  0  0
 19 36  1  0  0  0  0
 19 37  1  0  0  0  0
M  END
> <s_m_source_file>
AV-unprocessed.smi

> <i_m_source_file_index>
1399

> <i_lp_mmshare_version>
43012

> <i_f3d_flags>
0

> <s_epik_input>
W05IMl1DKD1PKVtDSDJdTjFbQ0gyXVtDSDJdW0NIXShbQ0gyXVtDSDJdMSlbTkhdQyg9TylbTkhdYzJbY0hdbltuSF1bY0hdMg==

> <s_epik_cmdline>
J2VwaWtfcHl0aG9uJywgJy1waCcsICc3LjAnLCAnLXRuJywgJzgnLCAnLW1hJywgJzIwMCcsICctbWV0YWxfYmluZGluZycsICctaW1hZScsICc8aW5maWxlLm1hZT4nLCAnLW9tYWUnLCAnPG91dGZpbGUubWFlPic=

> <r_lp_tautomer_probability>
0.5

> <r_epik_Ionization_Penalty>
0.164786

> <r_epik_Ionization_Penalty_Charging>
0

> <r_epik_Ionization_Penalty_Neutral>
0.164786

> <r_epik_State_Penalty>
0.154069

> <r_epik_Charging_Adjusted_Penalty>
0.154069

> <i_epik_Tot_Q>
0

> <i_epik_Tot_abs_Q>
0

> <r_epik_Metal_State_Penalty>
0.171367

> <b_epik_Metal_Only>
0

> <s_lp_Force_Field>
OPLS_2005

> <r_lp_Energy>
13.9175

> <b_lp_Chiralities_Consistent>
1

> <s_lp_Variant>
AV-unprocessed.smi:1399-1

> <Gold.Version>
5.8.1

> <Gold.Id.Protein>
6NUR|6NUR_protein|mol2

> <Gold.PLP.Fitness>
45.3213

> <Gold.PLP.PLP>
-29.6577

> <Gold.PLP.part.hbond>
-5.4638

> <Gold.PLP.part.metal>
0.0000

> <Gold.PLP.part.buried>
-2.7717

> <Gold.PLP.part.nonpolar>
-23.8033

> <Gold.PLP.part.repulsive>
1.1550

> <Gold.PLP.ligand.clash>
0.0000

> <Gold.PLP.ligand.torsion>
0.8273

> <Gold.PLP.Chemscore.Hbond>
4.3963

> <Gold.PLP.Chemscore.CHOScore>
1.3723

> <Gold.PLP.Chemscore.Metal>
0.0000

> <Gold.Chemscore.Hbonds>
donor molecule, donor type, donor heavy atom, donor atom, acceptor molecule, acceptor atom, score
      L1  H     1    22       P1  8028  0.86
      L1  H     9    30       P1  7948  0.91
      L1  H    16    20       P1 10952  0.59
      P1  H  7989  7998       L1     3  0.99
      P1  H 10785 10796       L1    15  0.97
      L1  C    14    32       P1  7921  1.00
      L1  C    17    33       P1 10957  0.47

> <Gold.PLP.Chemscore.Internal.Correction>
0.0125

> <Gold.Rescore>
     Score         DG    S(hbond)    S(metal)    S(lipo)     H(rot)  DE(clash)    DE(int)     intcor
     15.98     -17.64       3.16        0.00      58.91       2.06       0.78       0.88       ----

> <Gold.Chemscore.Fitness>
15.9799

> <Gold.Chemscore.DG>
-17.6432

> <Gold.Chemscore.ZeroCoef>
-5.4800

> <Gold.Chemscore.Hbond>
3.1584

> <Gold.Chemscore.Metal>
0.0000

> <Gold.Chemscore.Lipo>
58.9133

> <Gold.Chemscore.Internal_Hbond>
0.0000

> <Gold.Chemscore.DEClash>
0.7827

> <Gold.Chemscore.DEInternal>
0.8806

> <Gold.Chemscore.Rot>
2.0620

> <Gold.Chemscore.Internal.Correction>
   9.000000E+99

> <Gold.Chemscore.Hbonds>
donor molecule, donor type, donor heavy atom, donor atom, acceptor molecule, acceptor atom, score
      L1  H     1    22       P1  8028  0.78
      L1  H     9    30       P1  7948  0.88
      L1  H    16    20       P1 10952  0.08
      P1  H  7989  7998       L1     3  0.83
      P1  H 10785 10796       L1    15  0.30

> <Gold.Chemscore.Hbond.Weighted>
-10.5491

> <Gold.Chemscore.Metal.Weighted>
-0.0000

> <Gold.Chemscore.Lipo.Weighted>
-6.8929

> <Gold.Chemscore.Internal_Hbond.Weighted>
0.0000

> <Gold.Chemscore.DEClash.Weighted>
0.7827

> <Gold.Chemscore.DEInternal.Weighted>
0.8806

> <Gold.Chemscore.Rot.Weighted>
5.2788

> <Gold.Chemscore.Internal.Correction.Weighted>
   9.000000E+99

> <Gold.Protein.RotatedTorsions>
[ 6907 6896 6895 6894 ] final  124.67 input  -60.11 | X-H torsion
[ 7974 7965 7964 7962 ] final -125.95 input  175.53 | X-H torsion
[ 8008 7997 7996 7995 ] final    7.79 input   59.86 | X-H torsion
[ 10167 10162 10161 10158 ] final  104.97 input  -65.29 | X-H torsion
[ 10718 10713 10712 10709 ] final  -50.21 input   66.30 | X-H torsion
[ 10763 10752 10751 10750 ] final  -38.25 input  -60.55 | X-H torsion
[ 11005 11000 10999 10996 ] final  145.77 input  -57.11 | X-H torsion

> <Gold.Protein.ActiveResidues>
 VAL166  LYS551  ARG553  GLY616  TRP617  ASP618  TYR619  PRO620  LYS621  CYS622 
 ASP623  PHE694  ASN695  SER759  ASP760  ASP761  ALA762  ILE779  LEU786  VAL792 
 PHE793  MET794  SER795  GLU796  ALA797  LYS798  CYS799  TRP800  GLU811  SER814 

> <Gold.Protein.RotatedAtoms>
  152.4058  133.6886  159.6354 H   0  0  0  0  0  0  0  0  0  0  0  0  # atno 6907 bound_to 6896
  150.7943  133.8712  159.3268 H   0  0  0  0  0  0  0  0  0  0  0  0  # atno 6908 bound_to 6896
  151.6467  135.1008  160.0204 H   0  0  0  0  0  0  0  0  0  0  0  0  # atno 6909 bound_to 6896
  144.9923  140.7744  143.4546 H   0  0  0  0  0  0  0  0  0  0  0  0  # atno 7974 bound_to 7965
  154.7585  140.2780  155.6234 H   0  0  0  0  0  0  0  0  0  0  0  0  # atno 8008 bound_to 7997
  156.2910  140.2664  156.2284 H   0  0  0  0  0  0  0  0  0  0  0  0  # atno 8009 bound_to 7997
  155.0048  140.0372  157.2365 H   0  0  0  0  0  0  0  0  0  0  0  0  # atno 8010 bound_to 7997
  139.7132  144.7073  151.0992 H   0  0  0  0  0  0  0  0  0  0  0  0  # atno 10167 bound_to 10162
  156.1822  130.4151  149.9491 H   0  0  0  0  0  0  0  0  0  0  0  0  # atno 10718 bound_to 10713
  153.9097  135.6794  153.4751 H   0  0  0  0  0  0  0  0  0  0  0  0  # atno 10763 bound_to 10752
  153.1085  135.4794  154.8991 H   0  0  0  0  0  0  0  0  0  0  0  0  # atno 10764 bound_to 10752
  154.7533  135.3191  154.8471 H   0  0  0  0  0  0  0  0  0  0  0  0  # atno 10765 bound_to 10752
  140.0739  134.9136  157.1391 H   0  0  0  0  0  0  0  0  0  0  0  0  # atno 11005 bound_to 11000
  145.2268  139.2133  143.5064 LP  0  0  0  0  0  0  0  0  0  0  0  0  # atno 17320 bound_to 7965
  146.3434  140.2137  142.8590 LP  0  0  0  0  0  0  0  0  0  0  0  0  # atno 17321 bound_to 7965
  140.7738  143.5265  150.9474 LP  0  0  0  0  0  0  0  0  0  0  0  0  # atno 17342 bound_to 10162
  139.8950  143.6906  152.3140 LP  0  0  0  0  0  0  0  0  0  0  0  0  # atno 17343 bound_to 10162
  156.7258  130.9024  151.3622 LP  0  0  0  0  0  0  0  0  0  0  0  0  # atno 17370 bound_to 10713
  157.6875  130.9200  150.0425 LP  0  0  0  0  0  0  0  0  0  0  0  0  # atno 17371 bound_to 10713
  140.3586  134.2519  155.7189 LP  0  0  0  0  0  0  0  0  0  0  0  0  # atno 17394 bound_to 11000
  141.2022  133.7943  157.0402 LP  0  0  0  0  0  0  0  0  0  0  0  0  # atno 17395 bound_to 11000

$$$$
