AV-unprocessed.smi:2671|AV-procd|sdf|10348|dock6
  -GOLD-   2272014373D 1   1.00000     0.00000
 Structure written by MMmdl.
 29 30  0  0  0  0  0  0  0  0  1 V2000
  154.5818  140.1293  159.1032 O   0  0  0  0  0  0  0  0  0  0  0  0
  153.4473  140.5810  158.9656 C   0  0  0  0  0  0  0  0  0  0  0  0
  153.0281  141.9010  159.4344 C   0  0  0  0  0  0  0  0  0  0  0  0
  151.7565  142.3282  159.2402 C   0  0  0  0  0  0  0  0  0  0  0  0
  151.3011  143.6951  159.7251 C   0  0  0  0  0  0  0  0  0  0  0  0
  151.8452  144.6554  158.9777 F   0  0  0  0  0  0  0  0  0  0  0  0
  149.9755  143.7979  159.6315 F   0  0  0  0  0  0  0  0  0  0  0  0
  151.6482  143.9072  160.9956 F   0  0  0  0  0  0  0  0  0  0  0  0
  150.8192  141.5106  158.5911 N   0  0  0  0  0  0  0  0  0  0  0  0
  151.1667  140.3352  158.1678 C   0  0  0  0  0  0  0  0  0  0  0  0
  150.1710  139.0856  157.3056 S   0  0  0  0  0  0  0  0  0  0  0  0
  150.9319  139.1011  155.6568 C   0  0  0  0  0  0  0  0  0  0  0  0
  149.9120  138.7958  154.5512 C   0  0  2  0  0  0  0  0  0  0  0  0
  148.8815  139.9004  154.3141 C   0  0  0  0  0  0  0  0  0  0  0  0
  147.7347  139.1207  153.7139 C   0  0  0  0  0  0  0  0  0  0  0  0
  147.7789  137.8309  154.5270 C   0  0  0  0  0  0  0  0  0  0  0  0
  149.1434  137.6458  154.8966 O   0  0  0  0  0  0  0  0  0  0  0  0
  152.4734  139.8700  158.3524 N   0  0  0  0  0  0  0  0  0  0  0  0
  152.7103  138.9501  158.0106 H   0  0  0  0  0  0  0  0  0  0  0  0
  153.7403  142.5375  159.9392 H   0  0  0  0  0  0  0  0  0  0  0  0
  151.7490  138.3794  155.6283 H   0  0  0  0  0  0  0  0  0  0  0  0
  151.3696  140.0857  155.4885 H   0  0  0  0  0  0  0  0  0  0  0  0
  150.4280  138.5739  153.6157 H   0  0  0  0  0  0  0  0  0  0  0  0
  148.5723  140.3507  155.2586 H   0  0  0  0  0  0  0  0  0  0  0  0
  149.2474  140.6926  153.6602 H   0  0  0  0  0  0  0  0  0  0  0  0
  146.7775  139.6380  153.7844 H   0  0  0  0  0  0  0  0  0  0  0  0
  147.9352  138.9108  152.6624 H   0  0  0  0  0  0  0  0  0  0  0  0
  147.1862  137.9337  155.4368 H   0  0  0  0  0  0  0  0  0  0  0  0
  147.3968  136.9755  153.9695 H   0  0  0  0  0  0  0  0  0  0  0  0
  1  2  2  0  0  0  0
  2 18  1  0  0  0  0
  2  3  1  0  0  0  0
  3 20  1  0  0  0  0
  3  4  2  0  0  0  0
  4  5  1  0  0  0  0
  4  9  1  0  0  0  0
  5  6  1  0  0  0  0
  5  7  1  0  0  0  0
  5  8  1  0  0  0  0
  9 10  2  0  0  0  0
 10 11  1  0  0  0  0
 10 18  1  0  0  0  0
 11 12  1  0  0  0  0
 12 13  1  0  0  0  0
 12 21  1  0  0  0  0
 12 22  1  0  0  0  0
 13 17  1  0  0  0  0
 13 14  1  0  0  0  0
 13 23  1  0  0  0  0
 14 15  1  0  0  0  0
 14 24  1  0  0  0  0
 14 25  1  0  0  0  0
 15 16  1  0  0  0  0
 15 26  1  0  0  0  0
 15 27  1  0  0  0  0
 16 17  1  0  0  0  0
 16 28  1  0  0  0  0
 16 29  1  0  0  0  0
 18 19  1  0  0  0  0
M  END
> <s_m_source_file>
AV-unprocessed.smi

> <i_m_source_file_index>
2671

> <i_lp_mmshare_version>
43012

> <i_f3d_flags>
0

> <s_epik_input>
W09IXWMxW2NIXWMoQyhGKShGKUYpbmMobjEpU1tDSDJdW0NAQEhdMltDSDJdW0NIMl1bQ0gyXU8y

> <s_epik_cmdline>
J2VwaWtfcHl0aG9uJywgJy1waCcsICc3LjAnLCAnLXRuJywgJzgnLCAnLW1hJywgJzIwMCcsICctbWV0YWxfYmluZGluZycsICctaW1hZScsICc8aW5maWxlLm1hZT4nLCAnLW9tYWUnLCAnPG91dGZpbGUubWFlPic=

> <r_lp_tautomer_probability>
0.660323

> <r_epik_Ionization_Penalty>
0.14469

> <r_epik_Ionization_Penalty_Charging>
0.14469

> <r_epik_Ionization_Penalty_Neutral>
3.1007e-10

> <r_epik_State_Penalty>
0.804349

> <r_epik_Charging_Adjusted_Penalty>
0.949039

> <i_epik_Tot_Q>
0

> <i_epik_Tot_abs_Q>
0

> <r_epik_Metal_State_Penalty>
1.52783

> <b_epik_Metal_Only>
0

> <s_lp_Force_Field>
OPLS_2005

> <r_lp_Energy>
21.2239

> <b_lp_Chiralities_Consistent>
1

> <s_lp_Variant>
AV-unprocessed.smi:2671-3

> <Gold.Version>
5.8.1

> <Gold.Id.Protein>
6NUR|6NUR_protein|mol2

> <Gold.PLP.Fitness>
38.3993

> <Gold.PLP.PLP>
-36.7346

> <Gold.PLP.part.hbond>
-1.0000

> <Gold.PLP.part.metal>
0.0000

> <Gold.PLP.part.buried>
-3.5083

> <Gold.PLP.part.nonpolar>
-31.5131

> <Gold.PLP.part.repulsive>
0.2501

> <Gold.PLP.ligand.clash>
0.0000

> <Gold.PLP.ligand.torsion>
0.6586

> <Gold.PLP.Chemscore.Hbond>
0.9920

> <Gold.PLP.Chemscore.CHOScore>
0.0000

> <Gold.PLP.Chemscore.Metal>
0.0000

> <Gold.Chemscore.Hbonds>
donor molecule, donor type, donor heavy atom, donor atom, acceptor molecule, acceptor atom, score
      P1  H  7997  8010       L1     1  0.96

> <Gold.PLP.Chemscore.Internal.Correction>
0.0059

> <Gold.Rescore>
     Score         DG    S(hbond)    S(metal)    S(lipo)     H(rot)  DE(clash)    DE(int)     intcor
     11.46     -11.66       0.88        0.00      64.58       1.69       0.00       0.20       ----

> <Gold.Chemscore.Fitness>
11.4567

> <Gold.Chemscore.DG>
-11.6556

> <Gold.Chemscore.ZeroCoef>
-5.4800

> <Gold.Chemscore.Hbond>
0.8839

> <Gold.Chemscore.Metal>
0.0000

> <Gold.Chemscore.Lipo>
64.5791

> <Gold.Chemscore.Internal_Hbond>
0.0000

> <Gold.Chemscore.DEClash>
0.0037

> <Gold.Chemscore.DEInternal>
0.1952

> <Gold.Chemscore.Rot>
1.6924

> <Gold.Chemscore.Internal.Correction>
   9.000000E+99

> <Gold.Chemscore.Hbonds>
donor molecule, donor type, donor heavy atom, donor atom, acceptor molecule, acceptor atom, score
      P1  H  7997  8010       L1     1  0.28

> <Gold.Chemscore.Hbond.Weighted>
-2.9523

> <Gold.Chemscore.Metal.Weighted>
-0.0000

> <Gold.Chemscore.Lipo.Weighted>
-7.5558

> <Gold.Chemscore.Internal_Hbond.Weighted>
0.0000

> <Gold.Chemscore.DEClash.Weighted>
0.0037

> <Gold.Chemscore.DEInternal.Weighted>
0.1952

> <Gold.Chemscore.Rot.Weighted>
4.3324

> <Gold.Chemscore.Internal.Correction.Weighted>
   9.000000E+99

> <Gold.Protein.RotatedTorsions>
[ 6907 6896 6895 6894 ] final   27.91 input  -60.11 | X-H torsion
[ 7974 7965 7964 7962 ] final   90.26 input  175.53 | X-H torsion
[ 8008 7997 7996 7995 ] final   -1.72 input   59.86 | X-H torsion
[ 10167 10162 10161 10158 ] final  110.89 input  -65.29 | X-H torsion
[ 10718 10713 10712 10709 ] final  100.86 input   66.30 | X-H torsion
[ 10763 10752 10751 10750 ] final -153.47 input  -60.55 | X-H torsion
[ 11005 11000 10999 10996 ] final   25.31 input  -57.11 | X-H torsion

> <Gold.Protein.ActiveResidues>
 VAL166  LYS551  ARG553  GLY616  TRP617  ASP618  TYR619  PRO620  LYS621  CYS622 
 ASP623  PHE694  ASN695  SER759  ASP760  ASP761  ALA762  ILE779  LEU786  VAL792 
 PHE793  MET794  SER795  GLU796  ALA797  LYS798  CYS799  TRP800  GLU811  SER814 

> <Gold.Protein.RotatedAtoms>
  152.0092  134.9885  160.0567 H   0  0  0  0  0  0  0  0  0  0  0  0  # atno 6907 bound_to 6896
  152.1445  133.4479  159.4791 H   0  0  0  0  0  0  0  0  0  0  0  0  # atno 6908 bound_to 6896
  150.6868  134.2183  159.4430 H   0  0  0  0  0  0  0  0  0  0  0  0  # atno 6909 bound_to 6896
  145.5213  139.2279  143.2670 H   0  0  0  0  0  0  0  0  0  0  0  0  # atno 7974 bound_to 7965
  154.6437  140.2552  155.7293 H   0  0  0  0  0  0  0  0  0  0  0  0  # atno 8008 bound_to 7997
  156.2541  140.2882  156.0762 H   0  0  0  0  0  0  0  0  0  0  0  0  # atno 8009 bound_to 7997
  155.1557  140.0383  157.2821 H   0  0  0  0  0  0  0  0  0  0  0  0  # atno 8010 bound_to 7997
  139.6653  144.7127  151.1788 H   0  0  0  0  0  0  0  0  0  0  0  0  # atno 10167 bound_to 10162
  157.6844  131.0710  150.5165 H   0  0  0  0  0  0  0  0  0  0  0  0  # atno 10718 bound_to 10713
  154.7925  135.3212  154.7743 H   0  0  0  0  0  0  0  0  0  0  0  0  # atno 10763 bound_to 10752
  153.8428  135.6869  153.4805 H   0  0  0  0  0  0  0  0  0  0  0  0  # atno 10764 bound_to 10752
  153.1602  135.4664  154.9702 H   0  0  0  0  0  0  0  0  0  0  0  0  # atno 10765 bound_to 10752
  140.3492  134.2247  155.7681 H   0  0  0  0  0  0  0  0  0  0  0  0  # atno 11005 bound_to 11000
  146.2104  140.6025  142.9062 LP  0  0  0  0  0  0  0  0  0  0  0  0  # atno 17320 bound_to 7965
  144.7674  140.5562  143.6693 LP  0  0  0  0  0  0  0  0  0  0  0  0  # atno 17321 bound_to 7965
  140.7597  143.5928  150.8778 LP  0  0  0  0  0  0  0  0  0  0  0  0  # atno 17342 bound_to 10162
  139.9589  143.6186  152.3008 LP  0  0  0  0  0  0  0  0  0  0  0  0  # atno 17343 bound_to 10162
  156.5480  130.4224  149.6121 LP  0  0  0  0  0  0  0  0  0  0  0  0  # atno 17370 bound_to 10713
  156.2927  130.7133  151.1986 LP  0  0  0  0  0  0  0  0  0  0  0  0  # atno 17371 bound_to 10713
  141.2017  133.7957  157.0429 LP  0  0  0  0  0  0  0  0  0  0  0  0  # atno 17394 bound_to 11000
  140.0717  134.9699  157.1478 LP  0  0  0  0  0  0  0  0  0  0  0  0  # atno 17395 bound_to 11000

$$$$
