AV-unprocessed.smi:1196|AV-procd|sdf|5006|dock1
  -GOLD-   22720 4 13D 1   1.00000     0.00000
 Structure written by MMmdl.
 36 37  0  0  0  0  0  0  0  0  2 V2000
  152.2795  144.7751  158.2743 C   0  0  0  0  0  0  0  0  0  0  0  0
  150.7801  144.8725  158.5857 C   0  0  2  0  0  0  0  0  0  0  0  0
  150.5148  144.7835  160.1039 C   0  0  0  0  0  0  0  0  0  0  0  0
  149.0999  144.8343  160.4297 N   0  0  0  0  0  0  0  0  0  0  0  0
  148.4049  145.8343  161.0766 C   0  0  0  0  0  0  0  0  0  0  0  0
  147.0970  145.4467  161.1366 C   0  0  0  0  0  0  0  0  0  0  0  0
  147.0907  144.1779  160.4923 C   0  0  0  0  0  0  0  0  0  0  0  0
  148.2919  143.8110  160.0766 N   0  0  0  0  0  0  0  0  0  0  0  0
  150.0768  143.8089  157.8691 N   0  0  0  0  0  0  0  0  0  0  0  0
  150.2578  142.4906  158.0486 C   0  0  0  0  0  0  0  0  0  0  0  0
  151.0309  142.0179  158.8822 O   0  0  0  0  0  0  0  0  0  0  0  0
  149.4467  141.5631  157.1433 C   0  0  0  0  0  0  0  0  0  0  0  0
  149.9293  140.1039  157.2331 C   0  0  0  0  0  0  0  0  0  0  0  0
  151.2151  139.8462  156.4230 C   0  0  1  0  0  0  0  0  0  0  0  0
  151.8979  138.6568  156.8853 N   0  0  0  0  0  0  0  0  0  0  0  0
  152.0564  137.7745  155.9009 C   0  0  0  0  0  0  0  0  0  0  0  0
  152.6374  136.7060  156.0781 O   0  0  0  0  0  0  0  0  0  0  0  0
  151.4983  138.2395  154.7664 N   0  5  0  0  0  0  0  0  0  0  0  0
  150.9571  139.4607  154.9666 C   0  0  0  0  0  0  0  0  0  0  0  0
  150.3607  140.2038  154.1887 O   0  0  0  0  0  0  0  0  0  0  0  0
  152.8345  145.5750  158.7649 H   0  0  0  0  0  0  0  0  0  0  0  0
  152.4649  144.8565  157.2028 H   0  0  0  0  0  0  0  0  0  0  0  0
  152.6952  143.8255  158.6135 H   0  0  0  0  0  0  0  0  0  0  0  0
  150.4405  145.8470  158.2300 H   0  0  0  0  0  0  0  0  0  0  0  0
  150.9454  143.8691  160.5162 H   0  0  0  0  0  0  0  0  0  0  0  0
  151.0027  145.6135  160.6164 H   0  0  0  0  0  0  0  0  0  0  0  0
  148.8924  146.7312  161.4296 H   0  0  0  0  0  0  0  0  0  0  0  0
  146.2699  145.9882  161.5706 H   0  0  0  0  0  0  0  0  0  0  0  0
  146.2554  143.5160  160.3172 H   0  0  0  0  0  0  0  0  0  0  0  0
  149.4235  144.0990  157.1561 H   0  0  0  0  0  0  0  0  0  0  0  0
  148.3988  141.6266  157.4384 H   0  0  0  0  0  0  0  0  0  0  0  0
  149.5017  141.9146  156.1121 H   0  0  0  0  0  0  0  0  0  0  0  0
  150.0854  139.8285  158.2781 H   0  0  0  0  0  0  0  0  0  0  0  0
  149.1433  139.4444  156.8618 H   0  0  0  0  0  0  0  0  0  0  0  0
  151.8875  140.7044  156.4615 H   0  0  0  0  0  0  0  0  0  0  0  0
  152.2319  138.5360  157.8300 H   0  0  0  0  0  0  0  0  0  0  0  0
  1  2  1  0  0  0  0
  1 21  1  0  0  0  0
  1 22  1  0  0  0  0
  1 23  1  0  0  0  0
  2  3  1  0  0  0  0
  2  9  1  0  0  0  0
  2 24  1  0  0  0  0
  3  4  1  0  0  0  0
  3 25  1  0  0  0  0
  3 26  1  0  0  0  0
  4  8  1  0  0  0  0
  4  5  1  0  0  0  0
  5  6  2  0  0  0  0
  5 27  1  0  0  0  0
  6  7  1  0  0  0  0
  6 28  1  0  0  0  0
  7  8  2  0  0  0  0
  7 29  1  0  0  0  0
  9 10  1  0  0  0  0
  9 30  1  0  0  0  0
 10 11  2  0  0  0  0
 10 12  1  0  0  0  0
 12 13  1  0  0  0  0
 12 31  1  0  0  0  0
 12 32  1  0  0  0  0
 13 14  1  0  0  0  0
 13 33  1  0  0  0  0
 13 34  1  0  0  0  0
 14 19  1  0  0  0  0
 14 15  1  0  0  0  0
 14 35  1  0  0  0  0
 15 16  1  0  0  0  0
 15 36  1  0  0  0  0
 16 17  2  0  0  0  0
 16 18  1  0  0  0  0
 18 19  1  0  0  0  0
 19 20  2  0  0  0  0
M  CHG  1  18  -1
M  END
> <s_m_source_file>
AV-unprocessed.smi

> <i_m_source_file_index>
1196

> <i_lp_mmshare_version>
43012

> <i_f3d_flags>
0

> <s_epik_input>
bjFbY0hdW2NIXVtjSF1uMVtDSDJdW0NAQEhdKFtDSDNdKVtOSF1DKD1PKVtDSDJdW0NIMl1bQ0BASF0yW05IXUMoPU8pW05IXUMyPU8=

> <s_epik_cmdline>
J2VwaWtfcHl0aG9uJywgJy1waCcsICc3LjAnLCAnLXRuJywgJzgnLCAnLW1hJywgJzIwMCcsICctbWV0YWxfYmluZGluZycsICctaW1hZScsICc8aW5maWxlLm1hZT4nLCAnLW9tYWUnLCAnPG91dGZpbGUubWFlPic=

> <r_lp_tautomer_probability>
1

> <r_epik_Ionization_Penalty>
2.57056

> <r_epik_Ionization_Penalty_Charging>
2.57023

> <r_epik_Ionization_Penalty_Neutral>
0.000331301

> <r_epik_State_Penalty>
2.56828

> <r_epik_Charging_Adjusted_Penalty>
5.13851

> <i_epik_Tot_Q>
-1

> <i_epik_Tot_abs_Q>
1

> <r_epik_Metal_State_Penalty>
0.444883

> <b_epik_Metal_Only>
1

> <s_lp_Force_Field>
OPLS_2005

> <r_lp_Energy>
7.37265

> <b_lp_Chiralities_Consistent>
1

> <s_lp_Variant>
AV-unprocessed.smi:1196-11

> <Gold.Version>
5.8.1

> <Gold.Id.Protein>
6NUR|6NUR_protein|mol2

> <Gold.PLP.Fitness>
47.3994

> <Gold.PLP.PLP>
-36.4660

> <Gold.PLP.part.hbond>
-4.5157

> <Gold.PLP.part.metal>
0.0000

> <Gold.PLP.part.buried>
-7.0844

> <Gold.PLP.part.nonpolar>
-26.2843

> <Gold.PLP.part.repulsive>
0.6494

> <Gold.PLP.ligand.clash>
0.0000

> <Gold.PLP.ligand.torsion>
0.5316

> <Gold.PLP.Chemscore.Hbond>
3.9440

> <Gold.PLP.Chemscore.CHOScore>
0.0000

> <Gold.PLP.Chemscore.Metal>
0.0000

> <Gold.Chemscore.Hbonds>
donor molecule, donor type, donor heavy atom, donor atom, acceptor molecule, acceptor atom, score
      L1  H     9    30       P1  8028  1.00
      P1  H  6933  6944       L1     8  0.74
      P1  H  7989  7998       L1    20  0.95
      P1  H 10752 10763       L1    17  0.90

> <Gold.PLP.Chemscore.Internal.Correction>
0.1646

> <Gold.Rescore>
     Score         DG    S(hbond)    S(metal)    S(lipo)     H(rot)  DE(clash)    DE(int)     intcor
     14.37     -17.50       3.61        0.00      62.90       2.89       1.57       1.57       ----

> <Gold.Chemscore.Fitness>
14.3657

> <Gold.Chemscore.DG>
-17.4990

> <Gold.Chemscore.ZeroCoef>
-5.4800

> <Gold.Chemscore.Hbond>
3.6137

> <Gold.Chemscore.Metal>
0.0000

> <Gold.Chemscore.Lipo>
62.9002

> <Gold.Chemscore.Internal_Hbond>
0.0000

> <Gold.Chemscore.DEClash>
1.5657

> <Gold.Chemscore.DEInternal>
1.5675

> <Gold.Chemscore.Rot>
2.8946

> <Gold.Chemscore.Internal.Correction>
   9.000000E+99

> <Gold.Chemscore.Hbonds>
donor molecule, donor type, donor heavy atom, donor atom, acceptor molecule, acceptor atom, score
      L1  H     9    30       P1  8028  0.34
      P1  H  6933  6944       L1     8  0.07
      P1  H  7989  7998       L1    20  0.20
      P1  H 10752 10763       L1    17  0.88

> <Gold.Chemscore.Hbond.Weighted>
-12.0697

> <Gold.Chemscore.Metal.Weighted>
-0.0000

> <Gold.Chemscore.Lipo.Weighted>
-7.3593

> <Gold.Chemscore.Internal_Hbond.Weighted>
0.0000

> <Gold.Chemscore.DEClash.Weighted>
1.5657

> <Gold.Chemscore.DEInternal.Weighted>
1.5675

> <Gold.Chemscore.Rot.Weighted>
7.4101

> <Gold.Chemscore.Internal.Correction.Weighted>
   9.000000E+99

> <Gold.Protein.RotatedTorsions>
[ 6907 6896 6895 6894 ] final -145.89 input  -60.11 | X-H torsion
[ 7974 7965 7964 7962 ] final -165.82 input  175.53 | X-H torsion
[ 8008 7997 7996 7995 ] final   44.78 input   59.86 | X-H torsion
[ 10167 10162 10161 10158 ] final  120.35 input  -65.29 | X-H torsion
[ 10718 10713 10712 10709 ] final  -95.84 input   66.30 | X-H torsion
[ 10763 10752 10751 10750 ] final   85.94 input  -60.55 | X-H torsion
[ 11005 11000 10999 10996 ] final   -5.39 input  -57.11 | X-H torsion

> <Gold.Protein.ActiveResidues>
 VAL166  LYS551  ARG553  GLY616  TRP617  ASP618  TYR619  PRO620  LYS621  CYS622 
 ASP623  PHE694  ASN695  SER759  ASP760  ASP761  ALA762  ILE779  LEU786  VAL792 
 PHE793  MET794  SER795  GLU796  ALA797  LYS798  CYS799  TRP800  GLU811  SER814 

> <Gold.Protein.RotatedAtoms>
  151.1341  133.5016  159.2598 H   0  0  0  0  0  0  0  0  0  0  0  0  # atno 6907 bound_to 6896
  151.1726  135.0324  159.8768 H   0  0  0  0  0  0  0  0  0  0  0  0  # atno 6908 bound_to 6896
  152.5460  134.1202  159.8449 H   0  0  0  0  0  0  0  0  0  0  0  0  # atno 6909 bound_to 6896
  144.7260  140.2758  143.6243 H   0  0  0  0  0  0  0  0  0  0  0  0  # atno 7974 bound_to 7965
  155.3249  140.3399  155.4240 H   0  0  0  0  0  0  0  0  0  0  0  0  # atno 8008 bound_to 7997
  156.1890  140.1691  156.8166 H   0  0  0  0  0  0  0  0  0  0  0  0  # atno 8009 bound_to 7997
  154.5420  140.0723  156.8509 H   0  0  0  0  0  0  0  0  0  0  0  0  # atno 8010 bound_to 7997
  139.5987  144.7050  151.3113 H   0  0  0  0  0  0  0  0  0  0  0  0  # atno 10167 bound_to 10162
  156.0051  130.5126  150.6137 H   0  0  0  0  0  0  0  0  0  0  0  0  # atno 10718 bound_to 10713
  153.1523  135.4599  154.9654 H   0  0  0  0  0  0  0  0  0  0  0  0  # atno 10763 bound_to 10752
  154.7834  135.3196  154.7942 H   0  0  0  0  0  0  0  0  0  0  0  0  # atno 10764 bound_to 10752
  153.8446  135.6927  153.4853 H   0  0  0  0  0  0  0  0  0  0  0  0  # atno 10765 bound_to 10752
  140.6907  133.9074  155.8616 H   0  0  0  0  0  0  0  0  0  0  0  0  # atno 11005 bound_to 11000
  145.7998  139.1960  143.2054 LP  0  0  0  0  0  0  0  0  0  0  0  0  # atno 17320 bound_to 7965
  146.0686  140.7894  142.9699 LP  0  0  0  0  0  0  0  0  0  0  0  0  # atno 17321 bound_to 7965
  140.7233  143.7075  150.7796 LP  0  0  0  0  0  0  0  0  0  0  0  0  # atno 17342 bound_to 10162
  140.0647  143.5120  152.2610 LP  0  0  0  0  0  0  0  0  0  0  0  0  # atno 17343 bound_to 10162
  157.3965  131.0803  151.1347 LP  0  0  0  0  0  0  0  0  0  0  0  0  # atno 17370 bound_to 10713
  157.2022  130.6400  149.5743 LP  0  0  0  0  0  0  0  0  0  0  0  0  # atno 17371 bound_to 10713
  141.0244  134.0844  157.4085 LP  0  0  0  0  0  0  0  0  0  0  0  0  # atno 17394 bound_to 11000
  139.8924  135.0124  156.6846 LP  0  0  0  0  0  0  0  0  0  0  0  0  # atno 17395 bound_to 11000

$$$$
