AV-unprocessed.smi:2152|AV-procd|sdf|8762|dock1
  -GOLD-   2272011543D 1   1.00000     0.00000
 Structure written by MMmdl.
 41 42  0  0  0  0  0  0  0  0  1 V2000
  152.4869  141.1635  159.2596 C   0  0  0  0  0  0  0  0  0  0  0  0
  152.3009  142.6907  159.3153 C   0  0  2  0  0  0  0  0  0  0  0  0
  152.4079  143.1967  160.7682 C   0  0  0  0  0  0  0  0  0  0  0  0
  152.2323  144.7200  160.8589 C   0  0  0  0  0  0  0  0  0  0  0  0
  150.8995  145.1587  160.2374 C   0  0  0  0  0  0  0  0  0  0  0  0
  150.7846  144.6761  158.7845 C   0  0  0  0  0  0  0  0  0  0  0  0
  150.9664  143.1480  158.6755 C   0  0  1  0  0  0  0  0  0  0  0  0
  150.9133  142.7480  157.2713 N   0  0  0  0  0  0  0  0  0  0  0  0
  149.9984  141.9318  156.7268 C   0  0  0  0  0  0  0  0  0  0  0  0
  149.0621  141.4438  157.3612 O   0  0  0  0  0  0  0  0  0  0  0  0
  150.1593  141.6452  155.2283 C   0  0  0  0  0  0  0  0  0  0  0  0
  150.5630  140.2602  154.9555 N   0  0  0  0  0  0  0  0  0  0  0  0
  149.8054  139.4798  154.1013 C   0  0  0  0  0  0  0  0  0  0  0  0
  150.0985  138.1932  153.8113 C   0  0  0  0  0  0  0  0  0  0  0  0
  151.2634  137.5398  154.3961 C   0  0  0  0  0  0  0  0  0  0  0  0
  151.5556  136.3648  154.1720 O   0  0  0  0  0  0  0  0  0  0  0  0
  152.0285  138.3650  155.2554 N   0  0  0  0  0  0  0  0  0  0  0  0
  153.1979  137.8044  155.9005 C   0  0  0  0  0  0  0  0  0  0  0  0
  151.7075  139.7048  155.5672 C   0  0  0  0  0  0  0  0  0  0  0  0
  152.3900  140.3735  156.3480 O   0  0  0  0  0  0  0  0  0  0  0  0
  151.6809  140.6486  159.7834 H   0  0  0  0  0  0  0  0  0  0  0  0
  153.4273  140.8664  159.7245 H   0  0  0  0  0  0  0  0  0  0  0  0
  152.5041  140.7952  158.2337 H   0  0  0  0  0  0  0  0  0  0  0  0
  153.1190  143.1404  158.7501 H   0  0  0  0  0  0  0  0  0  0  0  0
  151.6519  142.7082  161.3847 H   0  0  0  0  0  0  0  0  0  0  0  0
  153.3742  142.9179  161.1899 H   0  0  0  0  0  0  0  0  0  0  0  0
  152.2789  145.0380  161.9007 H   0  0  0  0  0  0  0  0  0  0  0  0
  153.0576  145.2159  160.3463 H   0  0  0  0  0  0  0  0  0  0  0  0
  150.0714  144.7579  160.8232 H   0  0  0  0  0  0  0  0  0  0  0  0
  150.8103  146.2447  160.2766 H   0  0  0  0  0  0  0  0  0  0  0  0
  149.8147  144.9688  158.3802 H   0  0  0  0  0  0  0  0  0  0  0  0
  151.5368  145.1813  158.1769 H   0  0  0  0  0  0  0  0  0  0  0  0
  150.1525  142.6637  159.2196 H   0  0  0  0  0  0  0  0  0  0  0  0
  151.6415  143.1068  156.6707 H   0  0  0  0  0  0  0  0  0  0  0  0
  149.2090  141.8604  154.7379 H   0  0  0  0  0  0  0  0  0  0  0  0
  150.8808  142.3373  154.7896 H   0  0  0  0  0  0  0  0  0  0  0  0
  148.9287  139.9168  153.6455 H   0  0  0  0  0  0  0  0  0  0  0  0
  149.4605  137.6382  153.1395 H   0  0  0  0  0  0  0  0  0  0  0  0
  154.0036  138.5388  155.8477 H   0  0  0  0  0  0  0  0  0  0  0  0
  153.5253  136.8996  155.3885 H   0  0  0  0  0  0  0  0  0  0  0  0
  152.9181  137.5911  156.9332 H   0  0  0  0  0  0  0  0  0  0  0  0
  1  2  1  0  0  0  0
  1 21  1  0  0  0  0
  1 22  1  0  0  0  0
  1 23  1  0  0  0  0
  2  7  1  0  0  0  0
  2  3  1  0  0  0  0
  2 24  1  0  0  0  0
  3  4  1  0  0  0  0
  3 25  1  0  0  0  0
  3 26  1  0  0  0  0
  4  5  1  0  0  0  0
  4 27  1  0  0  0  0
  4 28  1  0  0  0  0
  5  6  1  0  0  0  0
  5 29  1  0  0  0  0
  5 30  1  0  0  0  0
  6  7  1  0  0  0  0
  6 31  1  0  0  0  0
  6 32  1  0  0  0  0
  7  8  1  0  0  0  0
  7 33  1  0  0  0  0
  8  9  1  0  0  0  0
  8 34  1  0  0  0  0
  9 10  2  0  0  0  0
  9 11  1  0  0  0  0
 11 12  1  0  0  0  0
 11 35  1  0  0  0  0
 11 36  1  0  0  0  0
 12 19  1  0  0  0  0
 12 13  1  0  0  0  0
 13 14  2  0  0  0  0
 13 37  1  0  0  0  0
 14 15  1  0  0  0  0
 14 38  1  0  0  0  0
 15 16  2  0  0  0  0
 15 17  1  0  0  0  0
 17 18  1  0  0  0  0
 17 19  1  0  0  0  0
 18 39  1  0  0  0  0
 18 40  1  0  0  0  0
 18 41  1  0  0  0  0
 19 20  2  0  0  0  0
M  END
> <s_m_source_file>
AV-unprocessed.smi

> <i_m_source_file_index>
2152

> <i_lp_mmshare_version>
43012

> <i_f3d_flags>
0

> <s_epik_input>
W0NIM11bQ0BASF0xW0NIMl1bQ0gyXVtDSDJdW0NIMl1bQ0BIXTFbTkhdQyg9TylbQ0gyXW4yW2NIXVtjSF1jKD1PKW4oW0NIM10pYzI9Tw==

> <s_epik_cmdline>
J2VwaWtfcHl0aG9uJywgJy1waCcsICc3LjAnLCAnLXRuJywgJzgnLCAnLW1hJywgJzIwMCcsICctbWV0YWxfYmluZGluZycsICctaW1hZScsICc8aW5maWxlLm1hZT4nLCAnLW9tYWUnLCAnPG91dGZpbGUubWFlPic=

> <r_lp_tautomer_probability>
1

> <r_epik_Ionization_Penalty>
3.20555e-08

> <r_epik_Ionization_Penalty_Charging>
1.30086e-08

> <r_epik_Ionization_Penalty_Neutral>
1.90469e-08

> <r_epik_State_Penalty>
-0

> <r_epik_Charging_Adjusted_Penalty>
1.30086e-08

> <i_epik_Tot_Q>
0

> <i_epik_Tot_abs_Q>
0

> <r_epik_Metal_State_Penalty>
-0

> <b_epik_Metal_Only>
0

> <s_lp_Force_Field>
OPLS_2005

> <r_lp_Energy>
17.5308

> <b_lp_Chiralities_Consistent>
1

> <s_lp_Variant>
AV-unprocessed.smi:2152-1

> <Gold.Version>
5.8.1

> <Gold.Id.Protein>
6NUR|6NUR_protein|mol2

> <Gold.PLP.Fitness>
45.3491

> <Gold.PLP.PLP>
-38.4378

> <Gold.PLP.part.hbond>
-2.0000

> <Gold.PLP.part.metal>
0.0000

> <Gold.PLP.part.buried>
-0.5214

> <Gold.PLP.part.nonpolar>
-35.8287

> <Gold.PLP.part.repulsive>
0.2743

> <Gold.PLP.ligand.clash>
0.0000

> <Gold.PLP.ligand.torsion>
0.1250

> <Gold.PLP.Chemscore.Hbond>
2.0000

> <Gold.PLP.Chemscore.CHOScore>
0.3842

> <Gold.PLP.Chemscore.Metal>
0.0000

> <Gold.Chemscore.Hbonds>
donor molecule, donor type, donor heavy atom, donor atom, acceptor molecule, acceptor atom, score
      P1  H  7997  8008       L1    20  0.99
      P1  H 10752 10765       L1    16  1.00
      L1  C    13    37       P1  7957  0.39

> <Gold.PLP.Chemscore.Internal.Correction>
0.0085

> <Gold.Rescore>
     Score         DG    S(hbond)    S(metal)    S(lipo)     H(rot)  DE(clash)    DE(int)     intcor
     17.57     -19.04       1.91        0.00      94.65       1.52       0.77       0.70       ----

> <Gold.Chemscore.Fitness>
17.5677

> <Gold.Chemscore.DG>
-19.0363

> <Gold.Chemscore.ZeroCoef>
-5.4800

> <Gold.Chemscore.Hbond>
1.9115

> <Gold.Chemscore.Metal>
0.0000

> <Gold.Chemscore.Lipo>
94.6467

> <Gold.Chemscore.Internal_Hbond>
0.0000

> <Gold.Chemscore.DEClash>
0.7656

> <Gold.Chemscore.DEInternal>
0.7030

> <Gold.Chemscore.Rot>
1.5242

> <Gold.Chemscore.Internal.Correction>
   9.000000E+99

> <Gold.Chemscore.Hbonds>
donor molecule, donor type, donor heavy atom, donor atom, acceptor molecule, acceptor atom, score
      P1  H  7997  8008       L1    20  0.92
      P1  H 10752 10765       L1    16  0.95

> <Gold.Chemscore.Hbond.Weighted>
-6.3845

> <Gold.Chemscore.Metal.Weighted>
-0.0000

> <Gold.Chemscore.Lipo.Weighted>
-11.0737

> <Gold.Chemscore.Internal_Hbond.Weighted>
0.0000

> <Gold.Chemscore.DEClash.Weighted>
0.7656

> <Gold.Chemscore.DEInternal.Weighted>
0.7030

> <Gold.Chemscore.Rot.Weighted>
3.9019

> <Gold.Chemscore.Internal.Correction.Weighted>
   9.000000E+99

> <Gold.Protein.RotatedTorsions>
[ 6907 6896 6895 6894 ] final -145.40 input  -60.11 | X-H torsion
[ 7974 7965 7964 7962 ] final   -3.05 input  175.53 | X-H torsion
[ 8008 7997 7996 7995 ] final  -48.71 input   59.86 | X-H torsion
[ 10167 10162 10161 10158 ] final   60.88 input  -65.29 | X-H torsion
[ 10718 10713 10712 10709 ] final  157.14 input   66.30 | X-H torsion
[ 10763 10752 10751 10750 ] final  158.95 input  -60.55 | X-H torsion
[ 11005 11000 10999 10996 ] final  153.05 input  -57.11 | X-H torsion

> <Gold.Protein.ActiveResidues>
 VAL166  LYS551  ARG553  GLY616  TRP617  ASP618  TYR619  PRO620  LYS621  CYS622 
 ASP623  PHE694  ASN695  SER759  ASP760  ASP761  ALA762  ILE779  LEU786  VAL792 
 PHE793  MET794  SER795  GLU796  ALA797  LYS798  CYS799  TRP800  GLU811  SER814 

> <Gold.Protein.RotatedAtoms>
  151.1272  133.5062  159.2599 H   0  0  0  0  0  0  0  0  0  0  0  0  # atno 6907 bound_to 6896
  151.1796  135.0354  159.8797 H   0  0  0  0  0  0  0  0  0  0  0  0  # atno 6908 bound_to 6896
  152.5458  134.1126  159.8418 H   0  0  0  0  0  0  0  0  0  0  0  0  # atno 6909 bound_to 6896
  146.2395  140.1663  142.8332 H   0  0  0  0  0  0  0  0  0  0  0  0  # atno 7974 bound_to 7965
  154.4033  140.1314  156.4384 H   0  0  0  0  0  0  0  0  0  0  0  0  # atno 8008 bound_to 7997
  155.7483  140.3488  155.5118 H   0  0  0  0  0  0  0  0  0  0  0  0  # atno 8009 bound_to 7997
  155.8974  140.1013  157.1365 H   0  0  0  0  0  0  0  0  0  0  0  0  # atno 8010 bound_to 7997
  140.1608  144.4372  150.6710 H   0  0  0  0  0  0  0  0  0  0  0  0  # atno 10167 bound_to 10162
  157.1954  131.0664  151.2055 H   0  0  0  0  0  0  0  0  0  0  0  0  # atno 10718 bound_to 10713
  154.2241  135.2781  155.2914 H   0  0  0  0  0  0  0  0  0  0  0  0  # atno 10763 bound_to 10752
  154.5678  135.5628  153.7070 H   0  0  0  0  0  0  0  0  0  0  0  0  # atno 10764 bound_to 10752
  153.0035  135.6313  154.2382 H   0  0  0  0  0  0  0  0  0  0  0  0  # atno 10765 bound_to 10752
  140.1363  134.8769  157.2271 H   0  0  0  0  0  0  0  0  0  0  0  0  # atno 11005 bound_to 11000
  145.0048  140.8663  143.5260 LP  0  0  0  0  0  0  0  0  0  0  0  0  # atno 17320 bound_to 7965
  145.1687  139.2416  143.5353 LP  0  0  0  0  0  0  0  0  0  0  0  0  # atno 17321 bound_to 7965
  140.6644  143.2263  151.5778 LP  0  0  0  0  0  0  0  0  0  0  0  0  # atno 17342 bound_to 10162
  139.5382  144.2721  152.1296 LP  0  0  0  0  0  0  0  0  0  0  0  0  # atno 17343 bound_to 10162
  157.3819  130.7236  149.6636 LP  0  0  0  0  0  0  0  0  0  0  0  0  # atno 17370 bound_to 10713
  155.9706  130.4170  150.4258 LP  0  0  0  0  0  0  0  0  0  0  0  0  # atno 17371 bound_to 10713
  140.2779  134.3384  155.7352 LP  0  0  0  0  0  0  0  0  0  0  0  0  # atno 17394 bound_to 11000
  141.2179  133.7461  156.9320 LP  0  0  0  0  0  0  0  0  0  0  0  0  # atno 17395 bound_to 11000

$$$$
