AV-unprocessed.smi:2030|AV-procd|sdf|8227|dock8
  -GOLD-   2272010493D 1   1.00000     0.00000
 Structure written by MMmdl.
 35 36  0  0  0  0  0  0  0  0  3 V2000
  151.3499  137.6577  159.3119 C   0  0  0  0  0  0  0  0  0  0  0  0
  150.4040  137.4442  158.2171 N   0  0  0  0  0  0  0  0  0  0  0  0
  150.6942  138.1799  157.0870 N   0  0  0  0  0  0  0  0  0  0  0  0
  150.1195  137.9591  155.9455 C   0  0  0  0  0  0  0  0  0  0  0  0
  150.5097  138.7715  154.7547 C   0  0  0  0  0  0  0  0  0  0  0  0
  150.5421  138.1548  153.6827 O   0  0  0  0  0  0  0  0  0  0  0  0
  150.8042  140.0938  154.9338 N   0  5  0  0  0  0  0  0  0  0  0  0
  151.5316  140.6497  156.0747 C   0  0  0  0  0  0  0  0  0  0  0  0
  150.5601  141.4310  156.9861 C   0  0  0  0  0  0  0  0  0  0  0  0
  151.2223  142.4987  157.8519 C   0  0  0  0  0  0  0  0  0  0  0  0
  152.1796  142.1731  158.8400 C   0  0  0  0  0  0  0  0  0  0  0  0
  152.7649  143.2037  159.6036 C   0  0  0  0  0  0  0  0  0  0  0  0
  152.3777  144.5396  159.3718 C   0  0  0  0  0  0  0  0  0  0  0  0
  151.4135  144.8110  158.3799 C   0  0  0  0  0  0  0  0  0  0  0  0
  150.8767  143.7962  157.6679 N   0  3  0  0  0  0  0  0  0  0  0  0
  149.0883  136.8537  155.8096 C   0  0  0  0  0  0  0  0  0  0  0  0
  148.3815  136.5532  157.1451 C   0  0  0  0  0  0  0  0  0  0  0  0
  149.3435  136.6047  158.3350 C   0  0  0  0  0  0  0  0  0  0  0  0
  149.1110  135.9199  159.3312 O   0  0  0  0  0  0  0  0  0  0  0  0
  151.0754  137.1498  160.2371 H   0  0  0  0  0  0  0  0  0  0  0  0
  151.4281  138.7218  159.5386 H   0  0  0  0  0  0  0  0  0  0  0  0
  152.3399  137.3037  159.0226 H   0  0  0  0  0  0  0  0  0  0  0  0
  152.0202  139.8753  156.6677 H   0  0  0  0  0  0  0  0  0  0  0  0
  152.3255  141.3221  155.7491 H   0  0  0  0  0  0  0  0  0  0  0  0
  149.8012  141.9129  156.3686 H   0  0  0  0  0  0  0  0  0  0  0  0
  150.0200  140.7364  157.6310 H   0  0  0  0  0  0  0  0  0  0  0  0
  152.4723  141.1451  158.9979 H   0  0  0  0  0  0  0  0  0  0  0  0
  153.5038  142.9713  160.3562 H   0  0  0  0  0  0  0  0  0  0  0  0
  152.8158  145.3439  159.9442 H   0  0  0  0  0  0  0  0  0  0  0  0
  151.0602  145.8014  158.1332 H   0  0  0  0  0  0  0  0  0  0  0  0
  148.3267  137.1225  155.0769 H   0  0  0  0  0  0  0  0  0  0  0  0
  149.5743  135.9527  155.4336 H   0  0  0  0  0  0  0  0  0  0  0  0
  147.6032  137.2964  157.3221 H   0  0  0  0  0  0  0  0  0  0  0  0
  147.8861  135.5827  157.1023 H   0  0  0  0  0  0  0  0  0  0  0  0
  150.1862  144.0158  156.9499 H   0  0  0  0  0  0  0  0  0  0  0  0
  1  2  1  0  0  0  0
  1 20  1  0  0  0  0
  1 21  1  0  0  0  0
  1 22  1  0  0  0  0
  2 18  1  0  0  0  0
  2  3  1  0  0  0  0
  3  4  2  0  0  0  0
  4  5  1  0  0  0  0
  4 16  1  0  0  0  0
  5  6  2  0  0  0  0
  5  7  1  0  0  0  0
  7  8  1  0  0  0  0
  8  9  1  0  0  0  0
  8 23  1  0  0  0  0
  8 24  1  0  0  0  0
  9 10  1  0  0  0  0
  9 25  1  0  0  0  0
  9 26  1  0  0  0  0
 10 15  1  0  0  0  0
 10 11  2  0  0  0  0
 11 12  1  0  0  0  0
 11 27  1  0  0  0  0
 12 13  2  0  0  0  0
 12 28  1  0  0  0  0
 13 14  1  0  0  0  0
 13 29  1  0  0  0  0
 14 15  2  0  0  0  0
 14 30  1  0  0  0  0
 15 35  1  0  0  0  0
 16 17  1  0  0  0  0
 16 31  1  0  0  0  0
 16 32  1  0  0  0  0
 17 18  1  0  0  0  0
 17 33  1  0  0  0  0
 17 34  1  0  0  0  0
 18 19  2  0  0  0  0
M  CHG  1   7  -1
M  CHG  1  15   1
M  END
> <s_m_source_file>
AV-unprocessed.smi

> <i_m_source_file_index>
2030

> <i_lp_mmshare_version>
43012

> <i_f3d_flags>
0

> <s_epik_input>
Tz1DMVtDSDJdW0NIMl1DKD1OTjFbQ0gzXSlDKD1PKVtOSF1bQ0gyXVtDSDJdYzJbY0hdW2NIXVtjSF1bY0hdbjI=

> <s_epik_cmdline>
J2VwaWtfcHl0aG9uJywgJy1waCcsICc3LjAnLCAnLXRuJywgJzgnLCAnLW1hJywgJzIwMCcsICctbWV0YWxfYmluZGluZycsICctaW1hZScsICc8aW5maWxlLm1hZT4nLCAnLW9tYWUnLCAnPG91dGZpbGUubWFlPic=

> <r_epik_Ionization_Penalty>
6.31213

> <r_epik_Ionization_Penalty_Charging>
6.31213

> <r_epik_Ionization_Penalty_Neutral>
3.33061e-09

> <r_epik_State_Penalty>
7.27833

> <r_epik_Charging_Adjusted_Penalty>
13.5905

> <i_epik_Tot_Q>
0

> <i_epik_Tot_abs_Q>
2

> <r_epik_Metal_State_Penalty>
3.36613

> <b_epik_Metal_Only>
1

> <s_epik_Chemistry_Notes>
This compound has an imine and may undergo hydrolysis.

> <s_lp_Force_Field>
OPLS_2005

> <r_lp_Energy>
24.6461

> <b_lp_Chiralities_Consistent>
1

> <s_lp_Variant>
AV-unprocessed.smi:2030-4

> <Gold.Version>
5.8.1

> <Gold.Id.Protein>
6NUR|6NUR_protein|mol2

> <Gold.PLP.Fitness>
44.3023

> <Gold.PLP.PLP>
-34.2869

> <Gold.PLP.part.hbond>
-3.0000

> <Gold.PLP.part.metal>
0.0000

> <Gold.PLP.part.buried>
-6.2177

> <Gold.PLP.part.nonpolar>
-25.2029

> <Gold.PLP.part.repulsive>
0.3420

> <Gold.PLP.ligand.clash>
0.0000

> <Gold.PLP.ligand.torsion>
1.0146

> <Gold.PLP.Chemscore.Hbond>
4.0000

> <Gold.PLP.Chemscore.CHOScore>
0.0000

> <Gold.PLP.Chemscore.Metal>
0.0000

> <Gold.Chemscore.Hbonds>
donor molecule, donor type, donor heavy atom, donor atom, acceptor molecule, acceptor atom, score
      L1  H    15    35       P1  8028  2.00
      P1  H  6896  6908       L1    19  0.98
      P1  H  7989  7998       L1     7  1.00

> <Gold.PLP.Chemscore.Internal.Correction>
0.0447

> <Gold.Rescore>
     Score         DG    S(hbond)    S(metal)    S(lipo)     H(rot)  DE(clash)    DE(int)     intcor
     16.30     -19.00       2.28        0.00      82.90       1.49       0.39       2.32       ----

> <Gold.Chemscore.Fitness>
16.2982

> <Gold.Chemscore.DG>
-19.0006

> <Gold.Chemscore.ZeroCoef>
-5.4800

> <Gold.Chemscore.Hbond>
2.2826

> <Gold.Chemscore.Metal>
0.0000

> <Gold.Chemscore.Lipo>
82.9005

> <Gold.Chemscore.Internal_Hbond>
0.0000

> <Gold.Chemscore.DEClash>
0.3852

> <Gold.Chemscore.DEInternal>
2.3172

> <Gold.Chemscore.Rot>
1.4854

> <Gold.Chemscore.Internal.Correction>
   9.000000E+99

> <Gold.Chemscore.Hbonds>
donor molecule, donor type, donor heavy atom, donor atom, acceptor molecule, acceptor atom, score
      L1  H    15    35       P1  8028  0.96
      P1  H  6896  6908       L1    19  0.55
      P1  H  7989  7998       L1     7  0.35

> <Gold.Chemscore.Hbond.Weighted>
-7.6239

> <Gold.Chemscore.Metal.Weighted>
-0.0000

> <Gold.Chemscore.Lipo.Weighted>
-9.6994

> <Gold.Chemscore.Internal_Hbond.Weighted>
0.0000

> <Gold.Chemscore.DEClash.Weighted>
0.3852

> <Gold.Chemscore.DEInternal.Weighted>
2.3172

> <Gold.Chemscore.Rot.Weighted>
3.8026

> <Gold.Chemscore.Internal.Correction.Weighted>
   9.000000E+99

> <Gold.Protein.RotatedTorsions>
[ 6907 6896 6895 6894 ] final -171.91 input  -60.11 | X-H torsion
[ 7974 7965 7964 7962 ] final -125.53 input  175.53 | X-H torsion
[ 8008 7997 7996 7995 ] final  109.00 input   59.86 | X-H torsion
[ 10167 10162 10161 10158 ] final  149.99 input  -65.29 | X-H torsion
[ 10718 10713 10712 10709 ] final -146.01 input   66.30 | X-H torsion
[ 10763 10752 10751 10750 ] final  133.12 input  -60.55 | X-H torsion
[ 11005 11000 10999 10996 ] final   18.19 input  -57.11 | X-H torsion

> <Gold.Protein.ActiveResidues>
 VAL166  LYS551  ARG553  GLY616  TRP617  ASP618  TYR619  PRO620  LYS621  CYS622 
 ASP623  PHE694  ASN695  SER759  ASP760  ASP761  ALA762  ILE779  LEU786  VAL792 
 PHE793  MET794  SER795  GLU796  ALA797  LYS798  CYS799  TRP800  GLU811  SER814 

> <Gold.Protein.RotatedAtoms>
  151.5315  133.3448  159.2918 H   0  0  0  0  0  0  0  0  0  0  0  0  # atno 6907 bound_to 6896
  150.8590  134.7940  159.7079 H   0  0  0  0  0  0  0  0  0  0  0  0  # atno 6908 bound_to 6896
  152.4615  134.5181  159.9826 H   0  0  0  0  0  0  0  0  0  0  0  0  # atno 6909 bound_to 6896
  144.9966  140.7782  143.4521 H   0  0  0  0  0  0  0  0  0  0  0  0  # atno 7974 bound_to 7965
  156.1946  140.3066  155.9401 H   0  0  0  0  0  0  0  0  0  0  0  0  # atno 8008 bound_to 7997
  155.3096  140.0450  157.3051 H   0  0  0  0  0  0  0  0  0  0  0  0  # atno 8009 bound_to 7997
  154.5493  140.2286  155.8520 H   0  0  0  0  0  0  0  0  0  0  0  0  # atno 8010 bound_to 7997
  139.4855  144.5558  151.7320 H   0  0  0  0  0  0  0  0  0  0  0  0  # atno 10167 bound_to 10162
  156.3895  130.7878  151.2079 H   0  0  0  0  0  0  0  0  0  0  0  0  # atno 10718 bound_to 10713
  153.8019  135.3140  155.3391 H   0  0  0  0  0  0  0  0  0  0  0  0  # atno 10763 bound_to 10752
  154.8085  135.4682  154.0458 H   0  0  0  0  0  0  0  0  0  0  0  0  # atno 10764 bound_to 10752
  153.1809  135.6893  153.8567 H   0  0  0  0  0  0  0  0  0  0  0  0  # atno 10765 bound_to 10752
  140.4275  134.1454  155.7678 H   0  0  0  0  0  0  0  0  0  0  0  0  # atno 11005 bound_to 11000
  145.2211  139.2159  143.5092 LP  0  0  0  0  0  0  0  0  0  0  0  0  # atno 17320 bound_to 7965
  146.3443  140.2069  142.8589 LP  0  0  0  0  0  0  0  0  0  0  0  0  # atno 17321 bound_to 7965
  140.5119  144.1011  150.5997 LP  0  0  0  0  0  0  0  0  0  0  0  0  # atno 17342 bound_to 10162
  140.3940  143.2738  152.0027 LP  0  0  0  0  0  0  0  0  0  0  0  0  # atno 17343 bound_to 10162
  157.7498  131.0320  150.4205 LP  0  0  0  0  0  0  0  0  0  0  0  0  # atno 17370 bound_to 10713
  156.4464  130.4002  149.6664 LP  0  0  0  0  0  0  0  0  0  0  0  0  # atno 17371 bound_to 10713
  141.1759  133.8515  157.1423 LP  0  0  0  0  0  0  0  0  0  0  0  0  # atno 17394 bound_to 11000
  140.0157  134.9968  157.0488 LP  0  0  0  0  0  0  0  0  0  0  0  0  # atno 17395 bound_to 11000

$$$$
