AV-unprocessed.smi:1556|AV-procd|sdf|6268|dock6
  -GOLD-   22720 6453D 1   1.00000     0.00000
 Structure written by MMmdl.
 37 38  0  0  0  0  0  0  0  0  1 V2000
  144.1685  132.7220  149.1228 C   0  0  0  0  0  0  0  0  0  0  0  0
  144.8181  132.6282  150.4125 N   0  0  0  0  0  0  0  0  0  0  0  0
  146.1458  132.3863  150.6919 C   0  0  0  0  0  0  0  0  0  0  0  0
  146.2856  132.3863  152.0511 C   0  0  0  0  0  0  0  0  0  0  0  0
  147.5298  132.1676  152.8659 C   0  0  0  0  0  0  0  0  0  0  0  0
  147.5449  133.0487  154.1255 C   0  0  0  0  0  0  0  0  0  0  0  0
  148.3250  134.2627  153.9179 N   0  0  0  0  0  0  0  0  0  0  0  0
  149.1671  134.8004  154.8168 C   0  0  0  0  0  0  0  0  0  0  0  0
  149.3609  134.3231  155.9332 O   0  0  0  0  0  0  0  0  0  0  0  0
  149.7870  135.9222  154.4093 N   0  0  0  0  0  0  0  0  0  0  0  0
  150.7528  136.7402  155.1438 C   0  0  2  0  0  0  0  0  0  0  0  0
  150.1484  137.2506  156.4655 C   0  0  0  0  0  0  0  0  0  0  0  0
  151.0393  138.3707  157.0183 C   0  0  0  0  0  0  0  0  0  0  0  0
  151.8120  139.1753  155.5633 S   0  0  0  0  0  0  0  0  0  0  0  0
  151.1746  140.4781  155.3197 O   0  0  0  0  0  0  0  0  0  0  0  0
  153.2735  139.0558  155.6757 O   0  0  0  0  0  0  0  0  0  0  0  0
  151.1990  137.9665  154.3319 C   0  0  0  0  0  0  0  0  0  0  0  0
  144.9649  132.6438  152.5185 C   0  0  0  0  0  0  0  0  0  0  0  0
  144.0896  132.7866  151.5365 N   0  0  0  0  0  0  0  0  0  0  0  0
  144.9061  132.6294  148.3251 H   0  0  0  0  0  0  0  0  0  0  0  0
  143.6663  133.6853  149.0306 H   0  0  0  0  0  0  0  0  0  0  0  0
  143.4339  131.9227  149.0212 H   0  0  0  0  0  0  0  0  0  0  0  0
  146.8744  132.2347  149.9091 H   0  0  0  0  0  0  0  0  0  0  0  0
  147.6125  131.1193  153.1554 H   0  0  0  0  0  0  0  0  0  0  0  0
  148.4168  132.3795  152.2677 H   0  0  0  0  0  0  0  0  0  0  0  0
  146.5284  133.3414  154.3897 H   0  0  0  0  0  0  0  0  0  0  0  0
  147.9384  132.4913  154.9775 H   0  0  0  0  0  0  0  0  0  0  0  0
  148.2207  134.7252  153.0267 H   0  0  0  0  0  0  0  0  0  0  0  0
  149.5279  136.2672  153.4961 H   0  0  0  0  0  0  0  0  0  0  0  0
  151.6321  136.1448  155.3965 H   0  0  0  0  0  0  0  0  0  0  0  0
  149.1562  137.6608  156.2712 H   0  0  0  0  0  0  0  0  0  0  0  0
  150.0217  136.4467  157.1913 H   0  0  0  0  0  0  0  0  0  0  0  0
  150.4840  139.1035  157.6039 H   0  0  0  0  0  0  0  0  0  0  0  0
  151.8368  137.9619  157.6390 H   0  0  0  0  0  0  0  0  0  0  0  0
  151.9798  137.7436  153.6045 H   0  0  0  0  0  0  0  0  0  0  0  0
  150.3563  138.4221  153.8106 H   0  0  0  0  0  0  0  0  0  0  0  0
  144.6185  132.7278  153.5380 H   0  0  0  0  0  0  0  0  0  0  0  0
  1  2  1  0  0  0  0
  1 20  1  0  0  0  0
  1 21  1  0  0  0  0
  1 22  1  0  0  0  0
  2 19  1  0  0  0  0
  2  3  1  0  0  0  0
  3  4  2  0  0  0  0
  3 23  1  0  0  0  0
  4  5  1  0  0  0  0
  4 18  1  0  0  0  0
  5  6  1  0  0  0  0
  5 24  1  0  0  0  0
  5 25  1  0  0  0  0
  6  7  1  0  0  0  0
  6 26  1  0  0  0  0
  6 27  1  0  0  0  0
  7  8  1  0  0  0  0
  7 28  1  0  0  0  0
  8  9  2  0  0  0  0
  8 10  1  0  0  0  0
 10 11  1  0  0  0  0
 10 29  1  0  0  0  0
 11 17  1  0  0  0  0
 11 12  1  0  0  0  0
 11 30  1  0  0  0  0
 12 13  1  0  0  0  0
 12 31  1  0  0  0  0
 12 32  1  0  0  0  0
 13 14  1  0  0  0  0
 13 33  1  0  0  0  0
 13 34  1  0  0  0  0
 14 15  2  0  0  0  0
 14 16  2  0  0  0  0
 14 17  1  0  0  0  0
 17 35  1  0  0  0  0
 17 36  1  0  0  0  0
 18 19  2  0  0  0  0
 18 37  1  0  0  0  0
M  END
> <s_m_source_file>
AV-unprocessed.smi

> <i_m_source_file_index>
1556

> <i_lp_mmshare_version>
43012

> <i_f3d_flags>
0

> <s_epik_input>
W0NIM11uMVtjSF1jKFtjSF1uMSlbQ0gyXVtDSDJdW05IXUMoPU8pW05IXVtDQEBIXShbQ0gyXTIpW0NIMl1bQ0gyXVMyKD1PKT1P

> <s_epik_cmdline>
J2VwaWtfcHl0aG9uJywgJy1waCcsICc3LjAnLCAnLXRuJywgJzgnLCAnLW1hJywgJzIwMCcsICctbWV0YWxfYmluZGluZycsICctaW1hZScsICc8aW5maWxlLm1hZT4nLCAnLW9tYWUnLCAnPG91dGZpbGUubWFlPic=

> <r_lp_tautomer_probability>
1

> <r_epik_Ionization_Penalty>
0.000530192

> <r_epik_Ionization_Penalty_Charging>
0

> <r_epik_Ionization_Penalty_Neutral>
0.000530192

> <r_epik_State_Penalty>
-0

> <r_epik_Charging_Adjusted_Penalty>
0

> <i_epik_Tot_Q>
0

> <i_epik_Tot_abs_Q>
0

> <r_epik_Metal_State_Penalty>
-0

> <b_epik_Metal_Only>
0

> <s_lp_Force_Field>
OPLS_2005

> <r_lp_Energy>
8.62968

> <b_lp_Chiralities_Consistent>
1

> <s_lp_Variant>
AV-unprocessed.smi:1556-1

> <Gold.Version>
5.8.1

> <Gold.Id.Protein>
6NUR|6NUR_protein|mol2

> <Gold.PLP.Fitness>
45.4165

> <Gold.PLP.PLP>
-29.9041

> <Gold.PLP.part.hbond>
-4.5533

> <Gold.PLP.part.metal>
0.0000

> <Gold.PLP.part.buried>
-3.1077

> <Gold.PLP.part.nonpolar>
-23.0210

> <Gold.PLP.part.repulsive>
0.2726

> <Gold.PLP.ligand.clash>
0.0000

> <Gold.PLP.ligand.torsion>
0.7259

> <Gold.PLP.Chemscore.Hbond>
3.8240

> <Gold.PLP.Chemscore.CHOScore>
1.8297

> <Gold.PLP.Chemscore.Metal>
0.0000

> <Gold.Chemscore.Hbonds>
donor molecule, donor type, donor heavy atom, donor atom, acceptor molecule, acceptor atom, score
      L1  H     7    28       P1  7948  0.88
      L1  H    10    29       P1  7948  1.00
      P1  H  7989  7998       L1    15  0.94
      P1  H  7997  8008       L1    16  1.00
      L1  C     3    23       P1 10747  0.86
      L1  C    18    37       P1 10957  1.00

> <Gold.PLP.Chemscore.Internal.Correction>
0.0032

> <Gold.Rescore>
     Score         DG    S(hbond)    S(metal)    S(lipo)     H(rot)  DE(clash)    DE(int)     intcor
     17.36     -17.94       2.94        0.00      62.32       1.82       0.05       0.53       ----

> <Gold.Chemscore.Fitness>
17.3636

> <Gold.Chemscore.DG>
-17.9426

> <Gold.Chemscore.ZeroCoef>
-5.4800

> <Gold.Chemscore.Hbond>
2.9449

> <Gold.Chemscore.Metal>
0.0000

> <Gold.Chemscore.Lipo>
62.3153

> <Gold.Chemscore.Internal_Hbond>
0.0000

> <Gold.Chemscore.DEClash>
0.0490

> <Gold.Chemscore.DEInternal>
0.5301

> <Gold.Chemscore.Rot>
1.8220

> <Gold.Chemscore.Internal.Correction>
   9.000000E+99

> <Gold.Chemscore.Hbonds>
donor molecule, donor type, donor heavy atom, donor atom, acceptor molecule, acceptor atom, score
      L1  H     7    28       P1  7948  0.58
      L1  H    10    29       P1  7948  0.55
      P1  H  7989  7998       L1    15  0.41
      P1  H  7997  8008       L1    16  0.97

> <Gold.Chemscore.Hbond.Weighted>
-9.8359

> <Gold.Chemscore.Metal.Weighted>
-0.0000

> <Gold.Chemscore.Lipo.Weighted>
-7.2909

> <Gold.Chemscore.Internal_Hbond.Weighted>
0.0000

> <Gold.Chemscore.DEClash.Weighted>
0.0490

> <Gold.Chemscore.DEInternal.Weighted>
0.5301

> <Gold.Chemscore.Rot.Weighted>
4.6642

> <Gold.Chemscore.Internal.Correction.Weighted>
   9.000000E+99

> <Gold.Protein.RotatedTorsions>
[ 6907 6896 6895 6894 ] final  -41.33 input  -60.11 | X-H torsion
[ 7974 7965 7964 7962 ] final  139.91 input  175.53 | X-H torsion
[ 8008 7997 7996 7995 ] final  -36.42 input   59.86 | X-H torsion
[ 10167 10162 10161 10158 ] final   -0.23 input  -65.29 | X-H torsion
[ 10718 10713 10712 10709 ] final  140.10 input   66.30 | X-H torsion
[ 10763 10752 10751 10750 ] final -129.99 input  -60.55 | X-H torsion
[ 11005 11000 10999 10996 ] final  -78.04 input  -57.11 | X-H torsion

> <Gold.Protein.ActiveResidues>
 VAL166  LYS551  ARG553  GLY616  TRP617  ASP618  TYR619  PRO620  LYS621  CYS622 
 ASP623  PHE694  ASN695  SER759  ASP760  ASP761  ALA762  ILE779  LEU786  VAL792 
 PHE793  MET794  SER795  GLU796  ALA797  LYS798  CYS799  TRP800  GLU811  SER814 

> <Gold.Protein.RotatedAtoms>
  150.9680  134.9058  159.7770 H   0  0  0  0  0  0  0  0  0  0  0  0  # atno 6907 bound_to 6896
  152.5180  134.3580  159.9285 H   0  0  0  0  0  0  0  0  0  0  0  0  # atno 6908 bound_to 6896
  151.3590  133.3856  159.2722 H   0  0  0  0  0  0  0  0  0  0  0  0  # atno 6909 bound_to 6896
  144.9235  139.5137  143.5652 H   0  0  0  0  0  0  0  0  0  0  0  0  # atno 7974 bound_to 7965
  154.4073  140.1631  156.2371 H   0  0  0  0  0  0  0  0  0  0  0  0  # atno 8008 bound_to 7997
  155.9233  140.3420  155.6167 H   0  0  0  0  0  0  0  0  0  0  0  0  # atno 8009 bound_to 7997
  155.7196  140.0766  157.2327 H   0  0  0  0  0  0  0  0  0  0  0  0  # atno 8010 bound_to 7997
  140.6758  143.6919  150.8021 H   0  0  0  0  0  0  0  0  0  0  0  0  # atno 10167 bound_to 10162
  157.4071  131.1023  151.0493 H   0  0  0  0  0  0  0  0  0  0  0  0  # atno 10718 bound_to 10713
  154.8756  135.3877  154.4010 H   0  0  0  0  0  0  0  0  0  0  0  0  # atno 10763 bound_to 10752
  153.4734  135.7030  153.5985 H   0  0  0  0  0  0  0  0  0  0  0  0  # atno 10764 bound_to 10752
  153.4432  135.3851  155.2208 H   0  0  0  0  0  0  0  0  0  0  0  0  # atno 10765 bound_to 10752
  141.1663  133.7047  156.7912 H   0  0  0  0  0  0  0  0  0  0  0  0  # atno 11005 bound_to 11000
  146.3215  139.8132  142.8941 LP  0  0  0  0  0  0  0  0  0  0  0  0  # atno 17320 bound_to 7965
  145.3258  141.0255  143.3475 LP  0  0  0  0  0  0  0  0  0  0  0  0  # atno 17321 bound_to 7965
  140.0612  143.5153  152.2627 LP  0  0  0  0  0  0  0  0  0  0  0  0  # atno 17342 bound_to 10162
  139.6050  144.7593  151.3082 LP  0  0  0  0  0  0  0  0  0  0  0  0  # atno 17343 bound_to 10162
  157.1471  130.6168  149.5571 LP  0  0  0  0  0  0  0  0  0  0  0  0  # atno 17370 bound_to 10713
  155.9839  130.4862  150.6958 LP  0  0  0  0  0  0  0  0  0  0  0  0  # atno 17371 bound_to 10713
  140.2324  134.8675  157.3490 LP  0  0  0  0  0  0  0  0  0  0  0  0  # atno 17394 bound_to 11000
  140.1877  134.4410  155.7734 LP  0  0  0  0  0  0  0  0  0  0  0  0  # atno 17395 bound_to 11000

$$$$
