AV-unprocessed.smi:2118|AV-procd|sdf|8628|dock8
  -GOLD-   2272011373D 1   1.00000     0.00000
 Structure written by MMmdl.
 40 41  0  0  0  0  0  0  0  0  1 V2000
  150.0121  145.4002  160.3275 C   0  0  0  0  0  0  0  0  0  0  0  0
  151.2360  144.7106  159.7086 C   0  0  0  0  0  0  0  0  0  0  0  0
  150.9167  144.1207  158.3248 C   0  0  0  0  0  0  0  0  0  0  0  0
  152.1392  143.4065  157.7204 C   0  0  0  0  0  0  0  0  0  0  0  0
  152.6752  142.3811  158.6374 N   0  0  0  0  0  0  0  0  0  0  0  0
  152.1553  140.7306  158.4590 S   0  0  0  0  0  0  0  0  0  0  0  0
  153.3341  139.8513  158.4927 O   0  0  0  0  0  0  0  0  0  0  0  0
  151.0092  140.4887  159.3488 O   0  0  0  0  0  0  0  0  0  0  0  0
  151.5717  140.7784  156.8400 N   0  0  0  0  0  0  0  0  0  0  0  0
  150.9330  139.5860  156.2918 C   0  0  0  0  0  0  0  0  0  0  0  0
  150.8964  139.6640  154.7605 C   0  0  0  0  0  0  0  0  0  0  0  0
  149.5326  140.0744  154.2413 C   0  0  0  0  0  0  0  0  0  0  0  0
  149.0799  141.4040  154.3676 C   0  0  0  0  0  0  0  0  0  0  0  0
  147.8060  141.7373  153.8683 C   0  0  0  0  0  0  0  0  0  0  0  0
  147.0375  140.7238  153.2614 C   0  0  0  0  0  0  0  0  0  0  0  0
  147.4614  139.4477  153.1337 N   0  0  0  0  0  0  0  0  0  0  0  0
  148.6842  139.1366  153.6153 C   0  0  0  0  0  0  0  0  0  0  0  0
  152.9956  142.8939  159.9842 C   0  0  0  0  0  0  0  0  0  0  0  0
  151.7861  143.6022  160.6216 C   0  0  0  0  0  0  0  0  0  0  0  0
  149.1947  144.6948  160.4816 H   0  0  0  0  0  0  0  0  0  0  0  0
  149.6450  146.1997  159.6834 H   0  0  0  0  0  0  0  0  0  0  0  0
  150.2573  145.8422  161.2937 H   0  0  0  0  0  0  0  0  0  0  0  0
  152.0149  145.4644  159.5837 H   0  0  0  0  0  0  0  0  0  0  0  0
  150.0790  143.4272  158.3980 H   0  0  0  0  0  0  0  0  0  0  0  0
  150.5930  144.9141  157.6504 H   0  0  0  0  0  0  0  0  0  0  0  0
  151.8841  142.9587  156.7601 H   0  0  0  0  0  0  0  0  0  0  0  0
  152.9249  144.1357  157.5198 H   0  0  0  0  0  0  0  0  0  0  0  0
  151.0459  141.6309  156.6502 H   0  0  0  0  0  0  0  0  0  0  0  0
  151.4861  138.7039  156.6164 H   0  0  0  0  0  0  0  0  0  0  0  0
  149.9230  139.5053  156.6955 H   0  0  0  0  0  0  0  0  0  0  0  0
  151.6404  140.3774  154.4035 H   0  0  0  0  0  0  0  0  0  0  0  0
  151.1648  138.6980  154.3301 H   0  0  0  0  0  0  0  0  0  0  0  0
  149.6963  142.1562  154.8378 H   0  0  0  0  0  0  0  0  0  0  0  0
  147.4270  142.7455  153.9479 H   0  0  0  0  0  0  0  0  0  0  0  0
  146.0565  140.9441  152.8672 H   0  0  0  0  0  0  0  0  0  0  0  0
  148.9948  138.1090  153.4961 H   0  0  0  0  0  0  0  0  0  0  0  0
  153.3457  142.0841  160.6237 H   0  0  0  0  0  0  0  0  0  0  0  0
  153.8251  143.5966  159.8970 H   0  0  0  0  0  0  0  0  0  0  0  0
  152.0824  144.0275  161.5811 H   0  0  0  0  0  0  0  0  0  0  0  0
  151.0030  142.8769  160.8423 H   0  0  0  0  0  0  0  0  0  0  0  0
  1  2  1  0  0  0  0
  1 20  1  0  0  0  0
  1 21  1  0  0  0  0
  1 22  1  0  0  0  0
  2 19  1  0  0  0  0
  2  3  1  0  0  0  0
  2 23  1  0  0  0  0
  3  4  1  0  0  0  0
  3 24  1  0  0  0  0
  3 25  1  0  0  0  0
  4  5  1  0  0  0  0
  4 26  1  0  0  0  0
  4 27  1  0  0  0  0
  5  6  1  0  0  0  0
  5 18  1  0  0  0  0
  6  7  2  0  0  0  0
  6  8  2  0  0  0  0
  6  9  1  0  0  0  0
  9 10  1  0  0  0  0
  9 28  1  0  0  0  0
 10 11  1  0  0  0  0
 10 29  1  0  0  0  0
 10 30  1  0  0  0  0
 11 12  1  0  0  0  0
 11 31  1  0  0  0  0
 11 32  1  0  0  0  0
 12 17  1  0  0  0  0
 12 13  2  0  0  0  0
 13 14  1  0  0  0  0
 13 33  1  0  0  0  0
 14 15  2  0  0  0  0
 14 34  1  0  0  0  0
 15 16  1  0  0  0  0
 15 35  1  0  0  0  0
 16 17  2  0  0  0  0
 17 36  1  0  0  0  0
 18 19  1  0  0  0  0
 18 37  1  0  0  0  0
 18 38  1  0  0  0  0
 19 39  1  0  0  0  0
 19 40  1  0  0  0  0
M  END
> <s_m_source_file>
AV-unprocessed.smi

> <i_m_source_file_index>
2118

> <i_lp_mmshare_version>
43012

> <i_f3d_flags>
0

> <s_epik_input>
W0NIM11bQ0hdMVtDSDJdW0NIMl1OKFtDSDJdW0NIMl0xKVMoPU8pKD1PKVtOSF1bQ0gyXVtDSDJdYzJbY0hdW2NIXVtjSF1uW2NIXTI=

> <s_epik_cmdline>
J2VwaWtfcHl0aG9uJywgJy1waCcsICc3LjAnLCAnLXRuJywgJzgnLCAnLW1hJywgJzIwMCcsICctbWV0YWxfYmluZGluZycsICctaW1hZScsICc8aW5maWxlLm1hZT4nLCAnLW9tYWUnLCAnPG91dGZpbGUubWFlPic=

> <r_epik_Ionization_Penalty>
0.0259724

> <r_epik_Ionization_Penalty_Charging>
0

> <r_epik_Ionization_Penalty_Neutral>
0.0259724

> <r_epik_State_Penalty>
0.0167858

> <r_epik_Charging_Adjusted_Penalty>
0.0167858

> <i_epik_Tot_Q>
0

> <i_epik_Tot_abs_Q>
0

> <r_epik_Metal_State_Penalty>
0.268382

> <b_epik_Metal_Only>
0

> <s_lp_Force_Field>
OPLS_2005

> <r_lp_Energy>
6.97296

> <b_lp_Chiralities_Consistent>
1

> <s_lp_Variant>
AV-unprocessed.smi:2118-1

> <Gold.Version>
5.8.1

> <Gold.Id.Protein>
6NUR|6NUR_protein|mol2

> <Gold.PLP.Fitness>
43.9576

> <Gold.PLP.PLP>
-36.5183

> <Gold.PLP.part.hbond>
-1.5870

> <Gold.PLP.part.metal>
0.0000

> <Gold.PLP.part.buried>
2.6243

> <Gold.PLP.part.nonpolar>
-36.7101

> <Gold.PLP.part.repulsive>
0.6147

> <Gold.PLP.ligand.clash>
0.0000

> <Gold.PLP.ligand.torsion>
1.8310

> <Gold.PLP.Chemscore.Hbond>
1.0000

> <Gold.PLP.Chemscore.CHOScore>
1.9957

> <Gold.PLP.Chemscore.Metal>
0.0000

> <Gold.Chemscore.Hbonds>
donor molecule, donor type, donor heavy atom, donor atom, acceptor molecule, acceptor atom, score
      P1  H  7997  8008       L1     7  1.00
      L1  C    15    35       P1 10175  1.00
      L1  C    17    36       P1  7948  1.00

> <Gold.PLP.Chemscore.Internal.Correction>
2.1143

> <Gold.Rescore>
     Score         DG    S(hbond)    S(metal)    S(lipo)     H(rot)  DE(clash)    DE(int)     intcor
     14.85     -18.42       0.93        0.00     116.18       1.47       1.55       2.02       ----

> <Gold.Chemscore.Fitness>
14.8527

> <Gold.Chemscore.DG>
-18.4205

> <Gold.Chemscore.ZeroCoef>
-5.4800

> <Gold.Chemscore.Hbond>
0.9333

> <Gold.Chemscore.Metal>
0.0000

> <Gold.Chemscore.Lipo>
116.1806

> <Gold.Chemscore.Internal_Hbond>
0.0000

> <Gold.Chemscore.DEClash>
1.5451

> <Gold.Chemscore.DEInternal>
2.0227

> <Gold.Chemscore.Rot>
1.4725

> <Gold.Chemscore.Internal.Correction>
   9.000000E+99

> <Gold.Chemscore.Hbonds>
donor molecule, donor type, donor heavy atom, donor atom, acceptor molecule, acceptor atom, score
      P1  H  7997  8008       L1     7  0.95

> <Gold.Chemscore.Hbond.Weighted>
-3.1171

> <Gold.Chemscore.Metal.Weighted>
-0.0000

> <Gold.Chemscore.Lipo.Weighted>
-13.5931

> <Gold.Chemscore.Internal_Hbond.Weighted>
0.0000

> <Gold.Chemscore.DEClash.Weighted>
1.5451

> <Gold.Chemscore.DEInternal.Weighted>
2.0227

> <Gold.Chemscore.Rot.Weighted>
3.7697

> <Gold.Chemscore.Internal.Correction.Weighted>
   9.000000E+99

> <Gold.Protein.RotatedTorsions>
[ 6907 6896 6895 6894 ] final   27.83 input  -60.11 | X-H torsion
[ 7974 7965 7964 7962 ] final  -33.18 input  175.53 | X-H torsion
[ 8008 7997 7996 7995 ] final -100.64 input   59.86 | X-H torsion
[ 10167 10162 10161 10158 ] final -107.90 input  -65.29 | X-H torsion
[ 10718 10713 10712 10709 ] final   55.94 input   66.30 | X-H torsion
[ 10763 10752 10751 10750 ] final -104.87 input  -60.55 | X-H torsion
[ 11005 11000 10999 10996 ] final   50.13 input  -57.11 | X-H torsion

> <Gold.Protein.ActiveResidues>
 VAL166  LYS551  ARG553  GLY616  TRP617  ASP618  TYR619  PRO620  LYS621  CYS622 
 ASP623  PHE694  ASN695  SER759  ASP760  ASP761  ALA762  ILE779  LEU786  VAL792 
 PHE793  MET794  SER795  GLU796  ALA797  LYS798  CYS799  TRP800  GLU811  SER814 

> <Gold.Protein.RotatedAtoms>
  152.0081  134.9891  160.0567 H   0  0  0  0  0  0  0  0  0  0  0  0  # atno 6907 bound_to 6896
  152.1455  133.4485  159.4796 H   0  0  0  0  0  0  0  0  0  0  0  0  # atno 6908 bound_to 6896
  150.6869  134.2171  159.4425 H   0  0  0  0  0  0  0  0  0  0  0  0  # atno 6909 bound_to 6896
  146.0931  140.5884  142.8855 H   0  0  0  0  0  0  0  0  0  0  0  0  # atno 7974 bound_to 7965
  154.8314  140.0439  157.1479 H   0  0  0  0  0  0  0  0  0  0  0  0  # atno 8008 bound_to 7997
  154.9148  140.3018  155.5226 H   0  0  0  0  0  0  0  0  0  0  0  0  # atno 8009 bound_to 7997
  156.2987  140.2351  156.4192 H   0  0  0  0  0  0  0  0  0  0  0  0  # atno 8010 bound_to 7997
  140.1720  143.4035  152.1347 H   0  0  0  0  0  0  0  0  0  0  0  0  # atno 10167 bound_to 10162
  157.5388  130.8682  149.8792 H   0  0  0  0  0  0  0  0  0  0  0  0  # atno 10718 bound_to 10713
  154.7908  135.4770  154.0047 H   0  0  0  0  0  0  0  0  0  0  0  0  # atno 10763 bound_to 10752
  153.1627  135.6811  153.8726 H   0  0  0  0  0  0  0  0  0  0  0  0  # atno 10764 bound_to 10752
  153.8334  135.3189  155.3398 H   0  0  0  0  0  0  0  0  0  0  0  0  # atno 10765 bound_to 10752
  140.1043  134.5039  155.8734 H   0  0  0  0  0  0  0  0  0  0  0  0  # atno 11005 bound_to 11000
  144.7375  140.4850  143.6893 LP  0  0  0  0  0  0  0  0  0  0  0  0  # atno 17320 bound_to 7965
  145.6000  139.1503  143.3134 LP  0  0  0  0  0  0  0  0  0  0  0  0  # atno 17321 bound_to 7965
  139.5334  144.7183  151.4978 LP  0  0  0  0  0  0  0  0  0  0  0  0  # atno 17342 bound_to 10162
  140.6576  143.8567  150.6852 LP  0  0  0  0  0  0  0  0  0  0  0  0  # atno 17343 bound_to 10162
  156.0480  130.3723  150.1270 LP  0  0  0  0  0  0  0  0  0  0  0  0  # atno 17370 bound_to 10713
  156.9451  130.9757  151.3509 LP  0  0  0  0  0  0  0  0  0  0  0  0  # atno 17371 bound_to 10713
  141.2114  133.6706  156.6580 LP  0  0  0  0  0  0  0  0  0  0  0  0  # atno 17394 bound_to 11000
  140.3177  134.8034  157.4227 LP  0  0  0  0  0  0  0  0  0  0  0  0  # atno 17395 bound_to 11000

$$$$
