AV-unprocessed.smi:1881|AV-procd|sdf|7639|dock3
  -GOLD-   22720 9363D 1   1.00000     0.00000
 Structure written by MMmdl.
 50 51  0  0  0  0  0  0  0  0  1 V2000
  143.2127  136.3074  163.0562 C   0  0  0  0  0  0  0  0  0  0  0  0
  143.3534  135.0754  162.1326 C   0  0  0  0  0  0  0  0  0  0  0  0
  142.2305  134.0918  162.5602 C   0  0  0  0  0  0  0  0  0  0  0  0
  143.0724  135.4124  160.6460 C   0  0  0  0  0  0  0  0  0  0  0  0
  144.7426  134.3847  162.3309 C   0  0  0  0  0  0  0  0  0  0  0  0
  144.7563  133.1554  162.4313 O   0  0  0  0  0  0  0  0  0  0  0  0
  145.9140  135.0805  162.3899 N   0  0  0  0  0  0  0  0  0  0  0  0
  147.2174  134.3988  162.4697 C   0  0  0  0  0  0  0  0  0  0  0  0
  147.9617  134.5876  161.1349 C   0  0  0  0  0  0  0  0  0  0  0  0
  148.1475  136.0880  160.8109 C   0  0  0  0  0  0  0  0  0  0  0  0
  148.7590  136.2863  159.4175 C   0  0  0  0  0  0  0  0  0  0  0  0
  148.9909  135.3158  158.6958 O   0  0  0  0  0  0  0  0  0  0  0  0
  149.0138  137.5520  159.0518 N   0  0  0  0  0  0  0  0  0  0  0  0
  149.5850  137.9583  157.7732 C   0  0  0  0  0  0  0  0  0  0  0  0
  150.9986  138.5384  157.9439 C   0  0  0  0  0  0  0  0  0  0  0  0
  151.0050  140.0551  157.9094 C   0  0  0  0  0  0  0  0  0  0  0  0
  151.6354  140.7960  158.9318 C   0  0  0  0  0  0  0  0  0  0  0  0
  151.6186  142.2019  158.8499 C   0  0  0  0  0  0  0  0  0  0  0  0
  150.9758  142.8099  157.7544 C   0  0  0  0  0  0  0  0  0  0  0  0
  150.3772  141.9810  156.7846 C   0  0  0  0  0  0  0  0  0  0  0  0
  150.3879  140.6321  156.8534 N   0  0  0  0  0  0  0  0  0  0  0  0
  146.8067  136.8458  160.9416 C   0  0  0  0  0  0  0  0  0  0  0  0
  146.1234  136.5309  162.2849 C   0  0  0  0  0  0  0  0  0  0  0  0
  142.2120  136.7348  162.9835 H   0  0  0  0  0  0  0  0  0  0  0  0
  143.9099  137.1100  162.8310 H   0  0  0  0  0  0  0  0  0  0  0  0
  143.3705  136.0354  164.1009 H   0  0  0  0  0  0  0  0  0  0  0  0
  142.3164  133.8023  163.6089 H   0  0  0  0  0  0  0  0  0  0  0  0
  142.2418  133.1794  161.9613 H   0  0  0  0  0  0  0  0  0  0  0  0
  141.2420  134.5377  162.4420 H   0  0  0  0  0  0  0  0  0  0  0  0
  142.0017  135.4561  160.4442 H   0  0  0  0  0  0  0  0  0  0  0  0
  143.4868  134.6580  159.9758 H   0  0  0  0  0  0  0  0  0  0  0  0
  143.4579  136.3821  160.3408 H   0  0  0  0  0  0  0  0  0  0  0  0
  147.8023  134.8216  163.2878 H   0  0  0  0  0  0  0  0  0  0  0  0
  147.1413  133.3347  162.6959 H   0  0  0  0  0  0  0  0  0  0  0  0
  148.9326  134.0930  161.1823 H   0  0  0  0  0  0  0  0  0  0  0  0
  147.4004  134.0914  160.3415 H   0  0  0  0  0  0  0  0  0  0  0  0
  148.8343  136.5020  161.5516 H   0  0  0  0  0  0  0  0  0  0  0  0
  148.7942  138.2881  159.7072 H   0  0  0  0  0  0  0  0  0  0  0  0
  149.5983  137.1145  157.0811 H   0  0  0  0  0  0  0  0  0  0  0  0
  148.9255  138.7079  157.3348 H   0  0  0  0  0  0  0  0  0  0  0  0
  151.4290  138.2046  158.8892 H   0  0  0  0  0  0  0  0  0  0  0  0
  151.6565  138.1623  157.1591 H   0  0  0  0  0  0  0  0  0  0  0  0
  152.1218  140.3001  159.7591 H   0  0  0  0  0  0  0  0  0  0  0  0
  152.0905  142.8026  159.6132 H   0  0  0  0  0  0  0  0  0  0  0  0
  150.9426  143.8853  157.6590 H   0  0  0  0  0  0  0  0  0  0  0  0
  149.8768  142.4131  155.9308 H   0  0  0  0  0  0  0  0  0  0  0  0
  146.9764  137.9201  160.8601 H   0  0  0  0  0  0  0  0  0  0  0  0
  146.1372  136.5776  160.1231 H   0  0  0  0  0  0  0  0  0  0  0  0
  145.2258  137.1249  162.3923 H   0  0  0  0  0  0  0  0  0  0  0  0
  146.7626  136.8588  163.1059 H   0  0  0  0  0  0  0  0  0  0  0  0
  1  2  1  0  0  0  0
  1 24  1  0  0  0  0
  1 25  1  0  0  0  0
  1 26  1  0  0  0  0
  2  3  1  0  0  0  0
  2  4  1  0  0  0  0
  2  5  1  0  0  0  0
  3 27  1  0  0  0  0
  3 28  1  0  0  0  0
  3 29  1  0  0  0  0
  4 30  1  0  0  0  0
  4 31  1  0  0  0  0
  4 32  1  0  0  0  0
  5  6  2  0  0  0  0
  5  7  1  0  0  0  0
  7 23  1  0  0  0  0
  7  8  1  0  0  0  0
  8  9  1  0  0  0  0
  8 33  1  0  0  0  0
  8 34  1  0  0  0  0
  9 10  1  0  0  0  0
  9 35  1  0  0  0  0
  9 36  1  0  0  0  0
 10 11  1  0  0  0  0
 10 22  1  0  0  0  0
 10 37  1  0  0  0  0
 11 12  2  0  0  0  0
 11 13  1  0  0  0  0
 13 14  1  0  0  0  0
 13 38  1  0  0  0  0
 14 15  1  0  0  0  0
 14 39  1  0  0  0  0
 14 40  1  0  0  0  0
 15 16  1  0  0  0  0
 15 41  1  0  0  0  0
 15 42  1  0  0  0  0
 16 21  1  0  0  0  0
 16 17  2  0  0  0  0
 17 18  1  0  0  0  0
 17 43  1  0  0  0  0
 18 19  2  0  0  0  0
 18 44  1  0  0  0  0
 19 20  1  0  0  0  0
 19 45  1  0  0  0  0
 20 21  2  0  0  0  0
 20 46  1  0  0  0  0
 22 23  1  0  0  0  0
 22 47  1  0  0  0  0
 22 48  1  0  0  0  0
 23 49  1  0  0  0  0
 23 50  1  0  0  0  0
M  END
> <s_m_source_file>
AV-unprocessed.smi

> <i_m_source_file_index>
1881

> <i_lp_mmshare_version>
43012

> <i_f3d_flags>
0

> <s_epik_input>
W0NIM11DKFtDSDNdKShbQ0gzXSlDKD1PKU4xW0NIMl1bQ0gyXVtDSF0oW0NIMl1bQ0gyXTEpQyg9TylbTkhdW0NIMl1bQ0gyXWMyW2NIXVtjSF1bY0hdW2NIXW4y

> <s_epik_cmdline>
J2VwaWtfcHl0aG9uJywgJy1waCcsICc3LjAnLCAnLXRuJywgJzgnLCAnLW1hJywgJzIwMCcsICctbWV0YWxfYmluZGluZycsICctaW1hZScsICc8aW5maWxlLm1hZT4nLCAnLW9tYWUnLCAnPG91dGZpbGUubWFlPic=

> <r_epik_Ionization_Penalty>
0.0268423

> <r_epik_Ionization_Penalty_Charging>
0

> <r_epik_Ionization_Penalty_Neutral>
0.0268423

> <r_epik_State_Penalty>
0.0219354

> <r_epik_Charging_Adjusted_Penalty>
0.0219354

> <i_epik_Tot_Q>
0

> <i_epik_Tot_abs_Q>
0

> <r_epik_Metal_State_Penalty>
0.0209813

> <b_epik_Metal_Only>
0

> <s_lp_Force_Field>
OPLS_2005

> <r_lp_Energy>
36.1076

> <b_lp_Chiralities_Consistent>
1

> <s_lp_Variant>
AV-unprocessed.smi:1881-1

> <Gold.Version>
5.8.1

> <Gold.Id.Protein>
6NUR|6NUR_protein|mol2

> <Gold.PLP.Fitness>
41.2529

> <Gold.PLP.PLP>
-37.4017

> <Gold.PLP.part.hbond>
-1.0000

> <Gold.PLP.part.metal>
0.0000

> <Gold.PLP.part.buried>
-5.9306

> <Gold.PLP.part.nonpolar>
-30.8676

> <Gold.PLP.part.repulsive>
0.3341

> <Gold.PLP.ligand.clash>
0.0000

> <Gold.PLP.ligand.torsion>
1.1265

> <Gold.PLP.Chemscore.Hbond>
1.0000

> <Gold.PLP.Chemscore.CHOScore>
0.9963

> <Gold.PLP.Chemscore.Metal>
0.0000

> <Gold.Chemscore.Hbonds>
donor molecule, donor type, donor heavy atom, donor atom, acceptor molecule, acceptor atom, score
      P1  H  6896  6908       L1    12  1.00
      L1  C    20    46       P1  8028  0.99

> <Gold.PLP.Chemscore.Internal.Correction>
0.1151

> <Gold.Rescore>
     Score         DG    S(hbond)    S(metal)    S(lipo)     H(rot)  DE(clash)    DE(int)     intcor
     15.59     -16.24       0.98        0.00      98.03       1.55       0.14       0.51       ----

> <Gold.Chemscore.Fitness>
15.5906

> <Gold.Chemscore.DG>
-16.2423

> <Gold.Chemscore.ZeroCoef>
-5.4800

> <Gold.Chemscore.Hbond>
0.9767

> <Gold.Chemscore.Metal>
0.0000

> <Gold.Chemscore.Lipo>
98.0250

> <Gold.Chemscore.Internal_Hbond>
0.0000

> <Gold.Chemscore.DEClash>
0.1382

> <Gold.Chemscore.DEInternal>
0.5134

> <Gold.Chemscore.Rot>
1.5503

> <Gold.Chemscore.Internal.Correction>
   9.000000E+99

> <Gold.Chemscore.Hbonds>
donor molecule, donor type, donor heavy atom, donor atom, acceptor molecule, acceptor atom, score
      P1  H  6896  6908       L1    12  0.42

> <Gold.Chemscore.Hbond.Weighted>
-3.2621

> <Gold.Chemscore.Metal.Weighted>
-0.0000

> <Gold.Chemscore.Lipo.Weighted>
-11.4689

> <Gold.Chemscore.Internal_Hbond.Weighted>
0.0000

> <Gold.Chemscore.DEClash.Weighted>
0.1382

> <Gold.Chemscore.DEInternal.Weighted>
0.5134

> <Gold.Chemscore.Rot.Weighted>
3.9687

> <Gold.Chemscore.Internal.Correction.Weighted>
   9.000000E+99

> <Gold.Protein.RotatedTorsions>
[ 6907 6896 6895 6894 ] final  162.80 input  -60.11 | X-H torsion
[ 7974 7965 7964 7962 ] final -163.31 input  175.53 | X-H torsion
[ 8008 7997 7996 7995 ] final   71.12 input   59.86 | X-H torsion
[ 10167 10162 10161 10158 ] final   52.78 input  -65.29 | X-H torsion
[ 10718 10713 10712 10709 ] final  -96.93 input   66.30 | X-H torsion
[ 10763 10752 10751 10750 ] final  -91.65 input  -60.55 | X-H torsion
[ 11005 11000 10999 10996 ] final   27.07 input  -57.11 | X-H torsion

> <Gold.Protein.ActiveResidues>
 VAL166  LYS551  ARG553  GLY616  TRP617  ASP618  TYR619  PRO620  LYS621  CYS622 
 ASP623  PHE694  ASN695  SER759  ASP760  ASP761  ALA762  ILE779  LEU786  VAL792 
 PHE793  MET794  SER795  GLU796  ALA797  LYS798  CYS799  TRP800  GLU811  SER814 

> <Gold.Protein.RotatedAtoms>
  151.9349  133.3621  159.3943 H   0  0  0  0  0  0  0  0  0  0  0  0  # atno 6907 bound_to 6896
  150.7009  134.4499  159.5340 H   0  0  0  0  0  0  0  0  0  0  0  0  # atno 6908 bound_to 6896
  152.2146  134.8470  160.0544 H   0  0  0  0  0  0  0  0  0  0  0  0  # atno 6909 bound_to 6896
  144.7330  140.3126  143.6185 H   0  0  0  0  0  0  0  0  0  0  0  0  # atno 7974 bound_to 7965
  155.7491  140.3489  155.5141 H   0  0  0  0  0  0  0  0  0  0  0  0  # atno 8008 bound_to 7997
  155.9022  140.1036  157.1363 H   0  0  0  0  0  0  0  0  0  0  0  0  # atno 8009 bound_to 7997
  154.4045  140.1284  156.4437 H   0  0  0  0  0  0  0  0  0  0  0  0  # atno 8010 bound_to 7997
  140.2477  144.3513  150.6358 H   0  0  0  0  0  0  0  0  0  0  0  0  # atno 10167 bound_to 10162
  156.0072  130.5172  150.6300 H   0  0  0  0  0  0  0  0  0  0  0  0  # atno 10718 bound_to 10713
  154.6781  135.5260  153.8227 H   0  0  0  0  0  0  0  0  0  0  0  0  # atno 10763 bound_to 10752
  153.0546  135.6545  154.0618 H   0  0  0  0  0  0  0  0  0  0  0  0  # atno 10764 bound_to 10752
  154.0509  135.2969  155.3320 H   0  0  0  0  0  0  0  0  0  0  0  0  # atno 10765 bound_to 10752
  140.3302  134.2446  155.7703 H   0  0  0  0  0  0  0  0  0  0  0  0  # atno 11005 bound_to 11000
  145.7649  139.1837  143.2245 LP  0  0  0  0  0  0  0  0  0  0  0  0  # atno 17320 bound_to 7965
  146.0957  140.7604  142.9574 LP  0  0  0  0  0  0  0  0  0  0  0  0  # atno 17321 bound_to 7965
  140.6065  143.2168  151.6971 LP  0  0  0  0  0  0  0  0  0  0  0  0  # atno 17342 bound_to 10162
  139.5056  144.3711  152.0469 LP  0  0  0  0  0  0  0  0  0  0  0  0  # atno 17343 bound_to 10162
  157.4099  131.0822  151.1230 LP  0  0  0  0  0  0  0  0  0  0  0  0  # atno 17370 bound_to 10713
  157.1865  130.6333  149.5689 LP  0  0  0  0  0  0  0  0  0  0  0  0  # atno 17371 bound_to 10713
  141.2065  133.7831  157.0173 LP  0  0  0  0  0  0  0  0  0  0  0  0  # atno 17394 bound_to 11000
  140.0867  134.9617  157.1711 LP  0  0  0  0  0  0  0  0  0  0  0  0  # atno 17395 bound_to 11000

$$$$
