AV-unprocessed.smi:2510|AV-procd|sdf|9881|dock5
  -GOLD-   2272013513D 1   1.00000     0.00000
 Structure written by MMmdl.
 48 49  0  0  0  0  0  0  0  0  1 V2000
  152.7928  145.1639  157.4599 C   0  0  0  0  0  0  0  0  0  0  0  0
  153.0870  144.2021  158.6233 C   0  0  0  0  0  0  0  0  0  0  0  0
  152.0181  143.1053  158.8524 C   0  0  0  0  0  0  0  0  0  0  0  0
  150.6087  143.7311  158.7081 C   0  0  0  0  0  0  0  0  0  0  0  0
  150.3475  144.9585  159.5946 C   0  0  0  0  0  0  0  0  0  0  0  0
  152.3187  141.7858  158.0773 C   0  0  2  0  0  0  0  0  0  0  0  0
  151.1223  141.0233  157.7214 N   0  0  0  0  0  0  0  0  0  0  0  0
  150.8123  140.6232  156.4790 C   0  0  0  0  0  0  0  0  0  0  0  0
  151.5517  140.7853  155.5088 O   0  0  0  0  0  0  0  0  0  0  0  0
  149.4438  139.9656  156.3002 C   0  0  0  0  0  0  0  0  0  0  0  0
  148.6077  140.7473  155.3374 C   0  0  0  0  0  0  0  0  0  0  0  0
  147.5297  141.5643  155.5355 C   0  0  0  0  0  0  0  0  0  0  0  0
  147.2023  142.0383  154.2316 C   0  0  0  0  0  0  0  0  0  0  0  0
  146.1037  142.9810  153.8382 C   0  0  0  0  0  0  0  0  0  0  0  0
  148.0060  141.5498  153.2990 N   0  0  0  0  0  0  0  0  0  0  0  0
  148.8565  140.7632  153.9835 N   0  0  0  0  0  0  0  0  0  0  0  0
  153.0089  141.2195  159.3317 C   0  0  2  0  0  0  0  0  0  0  0  0
  152.9007  139.7359  159.6753 C   0  0  0  0  0  0  0  0  0  0  0  0
  152.2061  142.2541  160.1330 C   0  0  1  0  0  0  0  0  0  0  0  0
  152.9356  142.9337  161.1443 O   0  0  0  0  0  0  0  0  0  0  0  0
  153.3906  142.0749  162.1749 C   0  0  0  0  0  0  0  0  0  0  0  0
  149.5985  140.2572  153.5212 H   0  0  0  0  0  0  0  0  0  0  0  0
  153.6420  145.8253  157.2884 H   0  0  0  0  0  0  0  0  0  0  0  0
  151.9307  145.7974  157.6657 H   0  0  0  0  0  0  0  0  0  0  0  0
  152.6024  144.6273  156.5307 H   0  0  0  0  0  0  0  0  0  0  0  0
  154.0519  143.7375  158.4200 H   0  0  0  0  0  0  0  0  0  0  0  0
  153.2536  144.7805  159.5315 H   0  0  0  0  0  0  0  0  0  0  0  0
  150.3949  143.9773  157.6684 H   0  0  0  0  0  0  0  0  0  0  0  0
  149.8492  142.9985  158.9803 H   0  0  0  0  0  0  0  0  0  0  0  0
  149.3003  145.2553  159.5346 H   0  0  0  0  0  0  0  0  0  0  0  0
  150.9416  145.8184  159.2868 H   0  0  0  0  0  0  0  0  0  0  0  0
  150.5704  144.7477  160.6407 H   0  0  0  0  0  0  0  0  0  0  0  0
  153.0196  141.9042  157.2495 H   0  0  0  0  0  0  0  0  0  0  0  0
  150.4556  140.8465  158.4586 H   0  0  0  0  0  0  0  0  0  0  0  0
  149.5703  138.9422  155.9444 H   0  0  0  0  0  0  0  0  0  0  0  0
  148.9462  139.9031  157.2686 H   0  0  0  0  0  0  0  0  0  0  0  0
  147.0514  141.7980  156.4751 H   0  0  0  0  0  0  0  0  0  0  0  0
  145.6779  143.4749  154.7117 H   0  0  0  0  0  0  0  0  0  0  0  0
  145.2978  142.4516  153.3298 H   0  0  0  0  0  0  0  0  0  0  0  0
  146.4707  143.7573  153.1663 H   0  0  0  0  0  0  0  0  0  0  0  0
  154.0579  141.5196  159.3082 H   0  0  0  0  0  0  0  0  0  0  0  0
  151.8717  139.4435  159.8857 H   0  0  0  0  0  0  0  0  0  0  0  0
  153.4954  139.4887  160.5542 H   0  0  0  0  0  0  0  0  0  0  0  0
  153.2601  139.1157  158.8542 H   0  0  0  0  0  0  0  0  0  0  0  0
  151.2563  141.8542  160.4956 H   0  0  0  0  0  0  0  0  0  0  0  0
  153.9019  142.6615  162.9380 H   0  0  0  0  0  0  0  0  0  0  0  0
  154.0957  141.3360  161.7947 H   0  0  0  0  0  0  0  0  0  0  0  0
  152.5591  141.5549  162.6521 H   0  0  0  0  0  0  0  0  0  0  0  0
  1  2  1  0  0  0  0
  1 23  1  0  0  0  0
  1 24  1  0  0  0  0
  1 25  1  0  0  0  0
  2  3  1  0  0  0  0
  2 26  1  0  0  0  0
  2 27  1  0  0  0  0
  3 19  1  0  0  0  0
  3  4  1  0  0  0  0
  3  6  1  0  0  0  0
  4  5  1  0  0  0  0
  4 28  1  0  0  0  0
  4 29  1  0  0  0  0
  5 30  1  0  0  0  0
  5 31  1  0  0  0  0
  5 32  1  0  0  0  0
  6  7  1  0  0  0  0
  6 17  1  0  0  0  0
  6 33  1  0  0  0  0
  7  8  1  0  0  0  0
  7 34  1  0  0  0  0
  8  9  2  0  0  0  0
  8 10  1  0  0  0  0
 10 35  1  0  0  0  0
 10 36  1  0  0  0  0
 10 11  1  0  0  0  0
 11 16  1  0  0  0  0
 11 12  2  0  0  0  0
 12 13  1  0  0  0  0
 12 37  1  0  0  0  0
 13 14  1  0  0  0  0
 13 15  2  0  0  0  0
 14 38  1  0  0  0  0
 14 39  1  0  0  0  0
 14 40  1  0  0  0  0
 15 16  1  0  0  0  0
 16 22  1  0  0  0  0
 17 18  1  0  0  0  0
 17 19  1  0  0  0  0
 17 41  1  0  0  0  0
 18 42  1  0  0  0  0
 18 43  1  0  0  0  0
 18 44  1  0  0  0  0
 19 20  1  0  0  0  0
 19 45  1  0  0  0  0
 20 21  1  0  0  0  0
 21 46  1  0  0  0  0
 21 47  1  0  0  0  0
 21 48  1  0  0  0  0
M  END
> <s_m_source_file>
AV-unprocessed.smi

> <i_m_source_file_index>
2510

> <i_lp_mmshare_version>
43012

> <i_f3d_flags>
0

> <s_epik_input>
W0NIM11PW0NAQEhdMVtDQEhdKFtDSDNdKVtDQEBIXShDMShbQ0gyXVtDSDNdKVtDSDJdW0NIM10pW05IXUMoPU8pW0NIMl1jMltjSF1jKFtDSDNdKVtuSF1uMg==

> <s_epik_cmdline>
J2VwaWtfcHl0aG9uJywgJy1waCcsICc3LjAnLCAnLXRuJywgJzgnLCAnLW1hJywgJzIwMCcsICctbWV0YWxfYmluZGluZycsICctaW1hZScsICc8aW5maWxlLm1hZT4nLCAnLW9tYWUnLCAnPG91dGZpbGUubWFlPic=

> <r_lp_tautomer_probability>
0.5

> <r_epik_Ionization_Penalty>
0.000134763

> <r_epik_Ionization_Penalty_Charging>
0

> <r_epik_Ionization_Penalty_Neutral>
0.000134763

> <r_epik_State_Penalty>
0.41068

> <r_epik_Charging_Adjusted_Penalty>
0.41068

> <i_epik_Tot_Q>
0

> <i_epik_Tot_abs_Q>
0

> <r_epik_Metal_State_Penalty>
0.410661

> <b_epik_Metal_Only>
0

> <s_lp_Force_Field>
OPLS_2005

> <r_lp_Energy>
24.0531

> <b_lp_Chiralities_Consistent>
1

> <s_lp_Variant>
AV-unprocessed.smi:2510-12

> <Gold.Version>
5.8.1

> <Gold.Id.Protein>
6NUR|6NUR_protein|mol2

> <Gold.PLP.Fitness>
40.2587

> <Gold.PLP.PLP>
-38.2756

> <Gold.PLP.part.hbond>
-3.0000

> <Gold.PLP.part.metal>
0.0000

> <Gold.PLP.part.buried>
-4.7498

> <Gold.PLP.part.nonpolar>
-30.2166

> <Gold.PLP.part.repulsive>
1.2058

> <Gold.PLP.ligand.clash>
0.0000

> <Gold.PLP.ligand.torsion>
0.6843

> <Gold.PLP.Chemscore.Hbond>
0.9264

> <Gold.PLP.Chemscore.CHOScore>
0.0000

> <Gold.PLP.Chemscore.Metal>
0.0000

> <Gold.Chemscore.Hbonds>
donor molecule, donor type, donor heavy atom, donor atom, acceptor molecule, acceptor atom, score
      L1  H    16    22       P1  7957  0.06
      P1  H  7989  7998       L1     9  0.67
      P1  H  8011  8017       L1    15  0.15

> <Gold.PLP.Chemscore.Internal.Correction>
0.5723

> <Gold.Rescore>
     Score         DG    S(hbond)    S(metal)    S(lipo)     H(rot)  DE(clash)    DE(int)     intcor
     15.59     -19.92       1.15        0.00     130.17       1.81       3.61       0.73       ----

> <Gold.Chemscore.Fitness>
15.5860

> <Gold.Chemscore.DG>
-19.9184

> <Gold.Chemscore.ZeroCoef>
-5.4800

> <Gold.Chemscore.Hbond>
1.1506

> <Gold.Chemscore.Metal>
0.0000

> <Gold.Chemscore.Lipo>
130.1660

> <Gold.Chemscore.Internal_Hbond>
0.0000

> <Gold.Chemscore.DEClash>
3.6066

> <Gold.Chemscore.DEInternal>
0.7258

> <Gold.Chemscore.Rot>
1.8102

> <Gold.Chemscore.Internal.Correction>
   9.000000E+99

> <Gold.Chemscore.Hbonds>
donor molecule, donor type, donor heavy atom, donor atom, acceptor molecule, acceptor atom, score
      L1  H    16    22       P1  7957  0.07
      P1  H  7989  7998       L1     9  0.65

> <Gold.Chemscore.Hbond.Weighted>
-3.8431

> <Gold.Chemscore.Metal.Weighted>
-0.0000

> <Gold.Chemscore.Lipo.Weighted>
-15.2294

> <Gold.Chemscore.Internal_Hbond.Weighted>
0.0000

> <Gold.Chemscore.DEClash.Weighted>
3.6066

> <Gold.Chemscore.DEInternal.Weighted>
0.7258

> <Gold.Chemscore.Rot.Weighted>
4.6341

> <Gold.Chemscore.Internal.Correction.Weighted>
   9.000000E+99

> <Gold.Protein.RotatedTorsions>
[ 6907 6896 6895 6894 ] final  168.43 input  -60.11 | X-H torsion
[ 7974 7965 7964 7962 ] final  129.80 input  175.53 | X-H torsion
[ 8008 7997 7996 7995 ] final  -72.65 input   59.86 | X-H torsion
[ 10167 10162 10161 10158 ] final  -37.04 input  -65.29 | X-H torsion
[ 10718 10713 10712 10709 ] final  -80.85 input   66.30 | X-H torsion
[ 10763 10752 10751 10750 ] final   30.24 input  -60.55 | X-H torsion
[ 11005 11000 10999 10996 ] final  -21.73 input  -57.11 | X-H torsion

> <Gold.Protein.ActiveResidues>
 VAL166  LYS551  ARG553  GLY616  TRP617  ASP618  TYR619  PRO620  LYS621  CYS622 
 ASP623  PHE694  ASN695  SER759  ASP760  ASP761  ALA762  ILE779  LEU786  VAL792 
 PHE793  MET794  SER795  GLU796  ALA797  LYS798  CYS799  TRP800  GLU811  SER814 

> <Gold.Protein.RotatedAtoms>
  151.8477  133.3434  159.3663 H   0  0  0  0  0  0  0  0  0  0  0  0  # atno 6907 bound_to 6896
  150.7215  134.5329  159.5718 H   0  0  0  0  0  0  0  0  0  0  0  0  # atno 6908 bound_to 6896
  152.2816  134.7822  160.0446 H   0  0  0  0  0  0  0  0  0  0  0  0  # atno 6909 bound_to 6896
  145.0248  139.4099  143.5179 H   0  0  0  0  0  0  0  0  0  0  0  0  # atno 7974 bound_to 7965
  154.5184  140.0793  156.8124 H   0  0  0  0  0  0  0  0  0  0  0  0  # atno 8008 bound_to 7997
  155.3631  140.3419  155.4223 H   0  0  0  0  0  0  0  0  0  0  0  0  # atno 8009 bound_to 7997
  156.1653  140.1602  156.8529 H   0  0  0  0  0  0  0  0  0  0  0  0  # atno 8010 bound_to 7997
  140.7128  143.3368  151.2445 H   0  0  0  0  0  0  0  0  0  0  0  0  # atno 10167 bound_to 10162
  156.0062  130.4586  150.3863 H   0  0  0  0  0  0  0  0  0  0  0  0  # atno 10718 bound_to 10713
  153.0383  135.6469  154.1015 H   0  0  0  0  0  0  0  0  0  0  0  0  # atno 10763 bound_to 10752
  154.0726  135.2879  155.3307 H   0  0  0  0  0  0  0  0  0  0  0  0  # atno 10764 bound_to 10752
  154.6584  135.5400  153.8052 H   0  0  0  0  0  0  0  0  0  0  0  0  # atno 10765 bound_to 10752
  140.8589  133.7802  156.0051 H   0  0  0  0  0  0  0  0  0  0  0  0  # atno 11005 bound_to 11000
  146.3490  139.9765  142.8700 LP  0  0  0  0  0  0  0  0  0  0  0  0  # atno 17320 bound_to 7965
  145.1848  140.9784  143.4245 LP  0  0  0  0  0  0  0  0  0  0  0  0  # atno 17321 bound_to 7965
  139.6865  143.9765  152.2837 LP  0  0  0  0  0  0  0  0  0  0  0  0  # atno 17342 bound_to 10162
  139.9412  144.6680  150.8264 LP  0  0  0  0  0  0  0  0  0  0  0  0  # atno 17343 bound_to 10162
  157.1940  131.0422  151.2685 LP  0  0  0  0  0  0  0  0  0  0  0  0  # atno 17370 bound_to 10713
  157.4035  130.7346  149.6785 LP  0  0  0  0  0  0  0  0  0  0  0  0  # atno 17371 bound_to 10713
  140.8706  134.2731  157.5192 LP  0  0  0  0  0  0  0  0  0  0  0  0  # atno 17394 bound_to 11000
  139.8706  134.9565  156.4239 LP  0  0  0  0  0  0  0  0  0  0  0  0  # atno 17395 bound_to 11000

$$$$
