AV-unprocessed.smi:1941|AV-procd|sdf|7848|dock6
  -GOLD-   22720 9593D 1   1.00000     0.00000
 Structure written by MMmdl.
 40 41  0  0  0  0  0  0  0  0  1 V2000
  147.9161  136.0066  160.6271 C   0  0  0  0  0  0  0  0  0  0  0  0
  148.7193  136.7386  159.6075 C   0  0  0  0  0  0  0  0  0  0  0  0
  150.0374  136.5865  159.4560 N   0  0  0  0  0  0  0  0  0  0  0  0
  150.5572  137.3858  158.4328 C   0  0  0  0  0  0  0  0  0  0  0  0
  152.0226  137.3458  158.1245 C   0  0  0  0  0  0  0  0  0  0  0  0
  152.5027  138.6104  157.3933 C   0  0  0  0  0  0  0  0  0  0  0  0
  153.0099  139.6049  158.3311 N   0  0  0  0  0  0  0  0  0  0  0  0
  152.2476  140.4439  159.0452 C   0  0  0  0  0  0  0  0  0  0  0  0
  151.0196  140.4905  158.9706 O   0  0  0  0  0  0  0  0  0  0  0  0
  152.9874  141.2195  159.8504 N   0  0  0  0  0  0  0  0  0  0  0  0
  152.4752  142.2394  160.7634 C   0  0  1  0  0  0  0  0  0  0  0  0
  153.1946  142.1086  162.1137 C   0  0  0  0  0  0  0  0  0  0  0  0
  152.6565  143.6397  160.1459 C   0  0  1  0  0  0  0  0  0  0  0  0
  152.0742  143.8035  158.7397 C   0  0  0  0  0  0  0  0  0  0  0  0
  151.7555  145.2884  158.6469 C   0  0  0  0  0  0  0  0  0  0  0  0
  151.8773  145.7888  160.0884 C   0  0  0  0  0  0  0  0  0  0  0  0
  151.9327  144.6128  160.8823 O   0  0  0  0  0  0  0  0  0  0  0  0
  149.6048  138.1497  157.8056 C   0  0  0  0  0  0  0  0  0  0  0  0
  148.0191  137.8935  158.4797 S   0  0  0  0  0  0  0  0  0  0  0  0
  148.5613  135.3983  161.2618 H   0  0  0  0  0  0  0  0  0  0  0  0
  147.1951  135.3547  160.1337 H   0  0  0  0  0  0  0  0  0  0  0  0
  147.3765  136.7153  161.2554 H   0  0  0  0  0  0  0  0  0  0  0  0
  152.5884  137.2203  159.0486 H   0  0  0  0  0  0  0  0  0  0  0  0
  152.2478  136.4683  157.5171 H   0  0  0  0  0  0  0  0  0  0  0  0
  153.3072  138.3598  156.7015 H   0  0  0  0  0  0  0  0  0  0  0  0
  151.6969  139.0357  156.7921 H   0  0  0  0  0  0  0  0  0  0  0  0
  154.0108  139.6438  158.4577 H   0  0  0  0  0  0  0  0  0  0  0  0
  153.9891  141.0957  159.8323 H   0  0  0  0  0  0  0  0  0  0  0  0
  151.4099  142.0823  160.9413 H   0  0  0  0  0  0  0  0  0  0  0  0
  152.8184  142.8373  162.8322 H   0  0  0  0  0  0  0  0  0  0  0  0
  154.2685  142.2676  162.0104 H   0  0  0  0  0  0  0  0  0  0  0  0
  153.0436  141.1179  162.5440 H   0  0  0  0  0  0  0  0  0  0  0  0
  153.7126  143.9179  160.1402 H   0  0  0  0  0  0  0  0  0  0  0  0
  152.7606  143.4687  157.9615 H   0  0  0  0  0  0  0  0  0  0  0  0
  151.1531  143.2266  158.6433 H   0  0  0  0  0  0  0  0  0  0  0  0
  152.4543  145.8128  157.9941 H   0  0  0  0  0  0  0  0  0  0  0  0
  150.7499  145.4414  158.2534 H   0  0  0  0  0  0  0  0  0  0  0  0
  152.8006  146.3545  160.2217 H   0  0  0  0  0  0  0  0  0  0  0  0
  151.0425  146.4245  160.3838 H   0  0  0  0  0  0  0  0  0  0  0  0
  149.7399  138.8456  156.9907 H   0  0  0  0  0  0  0  0  0  0  0  0
  1  2  1  0  0  0  0
  1 20  1  0  0  0  0
  1 21  1  0  0  0  0
  1 22  1  0  0  0  0
  2 19  1  0  0  0  0
  2  3  2  0  0  0  0
  3  4  1  0  0  0  0
  4  5  1  0  0  0  0
  4 18  2  0  0  0  0
  5  6  1  0  0  0  0
  5 23  1  0  0  0  0
  5 24  1  0  0  0  0
  6  7  1  0  0  0  0
  6 25  1  0  0  0  0
  6 26  1  0  0  0  0
  7  8  1  0  0  0  0
  7 27  1  0  0  0  0
  8  9  2  0  0  0  0
  8 10  1  0  0  0  0
 10 11  1  0  0  0  0
 10 28  1  0  0  0  0
 11 12  1  0  0  0  0
 11 13  1  0  0  0  0
 11 29  1  0  0  0  0
 12 30  1  0  0  0  0
 12 31  1  0  0  0  0
 12 32  1  0  0  0  0
 13 17  1  0  0  0  0
 13 14  1  0  0  0  0
 13 33  1  0  0  0  0
 14 15  1  0  0  0  0
 14 34  1  0  0  0  0
 14 35  1  0  0  0  0
 15 16  1  0  0  0  0
 15 36  1  0  0  0  0
 15 37  1  0  0  0  0
 16 17  1  0  0  0  0
 16 38  1  0  0  0  0
 16 39  1  0  0  0  0
 18 19  1  0  0  0  0
 18 40  1  0  0  0  0
M  END
> <s_m_source_file>
AV-unprocessed.smi

> <i_m_source_file_index>
1941

> <i_lp_mmshare_version>
43012

> <i_f3d_flags>
0

> <s_epik_input>
W0NIM11jMW5jKFtjSF1zMSlbQ0gyXVtDSDJdW05IXUMoPU8pW05IXVtDQEhdKFtDSDNdKVtDQEBIXTJbQ0gyXVtDSDJdW0NIMl1PMg==

> <s_epik_cmdline>
J2VwaWtfcHl0aG9uJywgJy1waCcsICc3LjAnLCAnLXRuJywgJzgnLCAnLW1hJywgJzIwMCcsICctbWV0YWxfYmluZGluZycsICctaW1hZScsICc8aW5maWxlLm1hZT4nLCAnLW9tYWUnLCAnPG91dGZpbGUubWFlPic=

> <r_epik_Ionization_Penalty>
0.00195486

> <r_epik_Ionization_Penalty_Charging>
0

> <r_epik_Ionization_Penalty_Neutral>
0.00195486

> <r_epik_State_Penalty>
0.00129472

> <r_epik_Charging_Adjusted_Penalty>
0.00129472

> <i_epik_Tot_Q>
0

> <i_epik_Tot_abs_Q>
0

> <r_epik_Metal_State_Penalty>
-0

> <b_epik_Metal_Only>
0

> <s_lp_Force_Field>
OPLS_2005

> <r_lp_Energy>
10.4384

> <b_lp_Chiralities_Consistent>
1

> <s_lp_Variant>
AV-unprocessed.smi:1941-4

> <Gold.Version>
5.8.1

> <Gold.Id.Protein>
6NUR|6NUR_protein|mol2

> <Gold.PLP.Fitness>
38.9770

> <Gold.PLP.PLP>
-37.9108

> <Gold.PLP.part.hbond>
-1.0000

> <Gold.PLP.part.metal>
0.0000

> <Gold.PLP.part.buried>
-6.2883

> <Gold.PLP.part.nonpolar>
-30.6559

> <Gold.PLP.part.repulsive>
0.8846

> <Gold.PLP.ligand.clash>
0.0000

> <Gold.PLP.ligand.torsion>
0.9847

> <Gold.PLP.Chemscore.Hbond>
1.0000

> <Gold.PLP.Chemscore.CHOScore>
0.0000

> <Gold.PLP.Chemscore.Metal>
0.0000

> <Gold.Chemscore.Hbonds>
donor molecule, donor type, donor heavy atom, donor atom, acceptor molecule, acceptor atom, score
      P1  H  6896  6908       L1     3  1.00

> <Gold.PLP.Chemscore.Internal.Correction>
0.0356

> <Gold.Rescore>
     Score         DG    S(hbond)    S(metal)    S(lipo)     H(rot)  DE(clash)    DE(int)     intcor
     14.93     -15.93       0.93        0.00      99.85       1.69       0.04       0.96       ----

> <Gold.Chemscore.Fitness>
14.9286

> <Gold.Chemscore.DG>
-15.9278

> <Gold.Chemscore.ZeroCoef>
-5.4800

> <Gold.Chemscore.Hbond>
0.9276

> <Gold.Chemscore.Metal>
0.0000

> <Gold.Chemscore.Lipo>
99.8466

> <Gold.Chemscore.Internal_Hbond>
0.0000

> <Gold.Chemscore.DEClash>
0.0409

> <Gold.Chemscore.DEInternal>
0.9583

> <Gold.Chemscore.Rot>
1.6923

> <Gold.Chemscore.Internal.Correction>
   9.000000E+99

> <Gold.Chemscore.Hbonds>
donor molecule, donor type, donor heavy atom, donor atom, acceptor molecule, acceptor atom, score
      P1  H  6896  6908       L1     3  0.89

> <Gold.Chemscore.Hbond.Weighted>
-3.0980

> <Gold.Chemscore.Metal.Weighted>
-0.0000

> <Gold.Chemscore.Lipo.Weighted>
-11.6820

> <Gold.Chemscore.Internal_Hbond.Weighted>
0.0000

> <Gold.Chemscore.DEClash.Weighted>
0.0409

> <Gold.Chemscore.DEInternal.Weighted>
0.9583

> <Gold.Chemscore.Rot.Weighted>
4.3323

> <Gold.Chemscore.Internal.Correction.Weighted>
   9.000000E+99

> <Gold.Protein.RotatedTorsions>
[ 6907 6896 6895 6894 ] final -174.30 input  -60.11 | X-H torsion
[ 7974 7965 7964 7962 ] final  -48.36 input  175.53 | X-H torsion
[ 8008 7997 7996 7995 ] final -107.73 input   59.86 | X-H torsion
[ 10167 10162 10161 10158 ] final  141.08 input  -65.29 | X-H torsion
[ 10718 10713 10712 10709 ] final -177.72 input   66.30 | X-H torsion
[ 10763 10752 10751 10750 ] final  -40.46 input  -60.55 | X-H torsion
[ 11005 11000 10999 10996 ] final  -31.97 input  -57.11 | X-H torsion

> <Gold.Protein.ActiveResidues>
 VAL166  LYS551  ARG553  GLY616  TRP617  ASP618  TYR619  PRO620  LYS621  CYS622 
 ASP623  PHE694  ASN695  SER759  ASP760  ASP761  ALA762  ILE779  LEU786  VAL792 
 PHE793  MET794  SER795  GLU796  ALA797  LYS798  CYS799  TRP800  GLU811  SER814 

> <Gold.Protein.RotatedAtoms>
  151.5701  133.3391  159.2987 H   0  0  0  0  0  0  0  0  0  0  0  0  # atno 6907 bound_to 6896
  150.8373  134.7654  159.6914 H   0  0  0  0  0  0  0  0  0  0  0  0  # atno 6908 bound_to 6896
  152.4447  134.5526  159.9923 H   0  0  0  0  0  0  0  0  0  0  0  0  # atno 6909 bound_to 6896
  145.9519  140.7563  142.9500 H   0  0  0  0  0  0  0  0  0  0  0  0  # atno 7974 bound_to 7965
  154.9338  140.0404  157.2061 H   0  0  0  0  0  0  0  0  0  0  0  0  # atno 8008 bound_to 7997
  154.8135  140.2872  155.5815 H   0  0  0  0  0  0  0  0  0  0  0  0  # atno 8009 bound_to 7997
  156.2973  140.2532  156.3028 H   0  0  0  0  0  0  0  0  0  0  0  0  # atno 8010 bound_to 7997
  139.5030  144.6194  151.6088 H   0  0  0  0  0  0  0  0  0  0  0  0  # atno 10167 bound_to 10162
  156.8336  130.9662  151.3105 H   0  0  0  0  0  0  0  0  0  0  0  0  # atno 10718 bound_to 10713
  153.9463  135.6755  153.4744 H   0  0  0  0  0  0  0  0  0  0  0  0  # atno 10763 bound_to 10752
  153.0906  135.4876  154.8680 H   0  0  0  0  0  0  0  0  0  0  0  0  # atno 10764 bound_to 10752
  154.7350  135.3147  154.8786 H   0  0  0  0  0  0  0  0  0  0  0  0  # atno 10765 bound_to 10752
  140.9513  133.7219  156.1224 H   0  0  0  0  0  0  0  0  0  0  0  0  # atno 11005 bound_to 11000
  144.6797  140.2449  143.7339 LP  0  0  0  0  0  0  0  0  0  0  0  0  # atno 17320 bound_to 7965
  145.8159  139.2023  143.1966 LP  0  0  0  0  0  0  0  0  0  0  0  0  # atno 17321 bound_to 7965
  140.5891  143.9811  150.6314 LP  0  0  0  0  0  0  0  0  0  0  0  0  # atno 17342 bound_to 10162
  140.2986  143.3276  152.0994 LP  0  0  0  0  0  0  0  0  0  0  0  0  # atno 17343 bound_to 10162
  157.6393  130.8792  149.9418 LP  0  0  0  0  0  0  0  0  0  0  0  0  # atno 17370 bound_to 10713
  156.0920  130.3662  150.0377 LP  0  0  0  0  0  0  0  0  0  0  0  0  # atno 17371 bound_to 10713
  140.7599  134.3951  157.5527 LP  0  0  0  0  0  0  0  0  0  0  0  0  # atno 17394 bound_to 11000
  139.8848  134.8954  156.2680 LP  0  0  0  0  0  0  0  0  0  0  0  0  # atno 17395 bound_to 11000

$$$$
