AV-unprocessed.smi:148|AV-procd|sdf|1233|dock5
  -GOLD-   2262018443D 1   1.00000     0.00000
 Structure written by MMmdl.
 63 67  0  0  0  0  0  0  0  0  1 V2000
  150.9087  133.1571  157.1454 O   0  0  0  0  0  0  0  0  0  0  0  0
  149.5297  133.4361  157.0214 C   0  0  0  0  0  0  0  0  0  0  0  0
  149.1769  133.9035  155.5881 C   0  0  1  0  0  0  0  0  0  0  0  0
  150.2267  134.8983  155.0270 C   0  0  0  0  0  0  0  0  0  0  0  0
  150.3147  136.1302  155.7920 N   0  0  0  0  0  0  0  0  0  0  0  0
  149.5686  136.4648  156.9000 C   0  0  0  0  0  0  0  0  0  0  0  0
  149.8252  137.6389  157.4104 N   0  0  0  0  0  0  0  0  0  0  0  0
  150.8206  138.1514  156.5883 C   0  0  0  0  0  0  0  0  0  0  0  0
  151.5437  139.3722  156.5584 C   0  0  0  0  0  0  0  0  0  0  0  0
  151.3306  140.3527  157.4667 N   0  0  0  0  0  0  0  0  0  0  0  0
  152.5675  140.6184  158.2016 C   0  0  0  0  0  0  0  0  0  0  0  0
  152.3253  141.5603  159.3869 C   0  0  0  0  0  0  0  0  0  0  0  0
  151.6681  142.8559  158.9041 C   0  0  0  0  0  0  0  0  0  0  0  0
  150.3662  142.5350  158.1589 C   0  0  0  0  0  0  0  0  0  0  0  0
  150.5924  141.5386  156.9906 C   0  0  2  0  0  0  0  0  0  0  0  0
  149.2735  141.1625  156.2426 C   0  0  1  0  0  0  0  0  0  0  0  0
  147.9822  141.8170  156.7724 C   0  0  0  0  0  0  0  0  0  0  0  0
  147.0281  141.9278  155.5716 C   0  0  0  0  0  0  0  0  0  0  0  0
  147.7612  141.3019  154.3810 C   0  0  0  0  0  0  0  0  0  0  0  0
  149.2421  141.4397  154.7323 C   0  0  2  0  0  0  0  0  0  0  0  0
  150.0328  140.5247  154.0026 O   0  0  0  0  0  0  0  0  0  0  0  0
  152.4805  139.5350  155.5865 N   0  0  0  0  0  0  0  0  0  0  0  0
  152.6833  138.5663  154.6882 C   0  0  0  0  0  0  0  0  0  0  0  0
  152.0757  137.3817  154.5851 N   0  0  0  0  0  0  0  0  0  0  0  0
  151.1422  137.2162  155.5661 C   0  0  0  0  0  0  0  0  0  0  0  0
  148.8975  132.6957  154.6483 C   0  0  1  0  0  0  0  0  0  0  0  0
  147.9422  131.6344  155.1638 C   0  0  0  0  0  0  0  0  0  0  0  0
  147.6578  130.8415  153.8919 C   0  0  0  0  0  0  0  0  0  0  0  0
  147.6976  131.7910  152.8299 O   0  0  0  0  0  0  0  0  0  0  0  0
  148.2880  133.0088  153.2780 C   0  0  0  0  0  0  0  0  0  0  0  0
  151.2404  132.8984  156.2990 H   0  0  0  0  0  0  0  0  0  0  0  0
  148.9999  132.5207  157.2829 H   0  0  0  0  0  0  0  0  0  0  0  0
  149.2441  134.1877  157.7576 H   0  0  0  0  0  0  0  0  0  0  0  0
  148.2402  134.4583  155.6631 H   0  0  0  0  0  0  0  0  0  0  0  0
  151.2169  134.4450  155.0023 H   0  0  0  0  0  0  0  0  0  0  0  0
  149.9893  135.1793  154.0023 H   0  0  0  0  0  0  0  0  0  0  0  0
  148.8231  135.8055  157.3200 H   0  0  0  0  0  0  0  0  0  0  0  0
  152.9928  139.6817  158.5661 H   0  0  0  0  0  0  0  0  0  0  0  0
  153.3024  141.0593  157.5260 H   0  0  0  0  0  0  0  0  0  0  0  0
  151.6850  141.0713  160.1222 H   0  0  0  0  0  0  0  0  0  0  0  0
  153.2676  141.7806  159.8889 H   0  0  0  0  0  0  0  0  0  0  0  0
  151.4650  143.5136  159.7499 H   0  0  0  0  0  0  0  0  0  0  0  0
  152.3499  143.3940  158.2442 H   0  0  0  0  0  0  0  0  0  0  0  0
  149.6477  142.1335  158.8727 H   0  0  0  0  0  0  0  0  0  0  0  0
  149.9479  143.4709  157.7920 H   0  0  0  0  0  0  0  0  0  0  0  0
  151.2394  142.0425  156.2709 H   0  0  0  0  0  0  0  0  0  0  0  0
  149.1233  140.0857  156.3361 H   0  0  0  0  0  0  0  0  0  0  0  0
  147.5437  141.2202  157.5724 H   0  0  0  0  0  0  0  0  0  0  0  0
  148.1646  142.8089  157.1836 H   0  0  0  0  0  0  0  0  0  0  0  0
  146.0742  141.4340  155.7587 H   0  0  0  0  0  0  0  0  0  0  0  0
  146.8174  142.9782  155.3675 H   0  0  0  0  0  0  0  0  0  0  0  0
  147.4907  140.2473  154.3066 H   0  0  0  0  0  0  0  0  0  0  0  0
  147.5066  141.7768  153.4329 H   0  0  0  0  0  0  0  0  0  0  0  0
  149.5583  142.4563  154.5038 H   0  0  0  0  0  0  0  0  0  0  0  0
  149.6094  140.3557  153.1747 H   0  0  0  0  0  0  0  0  0  0  0  0
  153.4402  138.7696  153.9451 H   0  0  0  0  0  0  0  0  0  0  0  0
  149.8446  132.1844  154.4683 H   0  0  0  0  0  0  0  0  0  0  0  0
  148.3688  131.0218  155.9584 H   0  0  0  0  0  0  0  0  0  0  0  0
  147.0113  132.0675  155.5269 H   0  0  0  0  0  0  0  0  0  0  0  0
  148.4387  130.0989  153.7236 H   0  0  0  0  0  0  0  0  0  0  0  0
  146.6994  130.3231  153.9277 H   0  0  0  0  0  0  0  0  0  0  0  0
  147.4985  133.7559  153.3444 H   0  0  0  0  0  0  0  0  0  0  0  0
  149.0316  133.3685  152.5663 H   0  0  0  0  0  0  0  0  0  0  0  0
  1  2  1  0  0  0  0
  1 31  1  0  0  0  0
  2  3  1  0  0  0  0
  2 32  1  0  0  0  0
  2 33  1  0  0  0  0
  3  4  1  0  0  0  0
  3 26  1  0  0  0  0
  3 34  1  0  0  0  0
  4  5  1  0  0  0  0
  4 35  1  0  0  0  0
  4 36  1  0  0  0  0
  5 25  1  0  0  0  0
  5  6  1  0  0  0  0
  6  7  2  0  0  0  0
  6 37  1  0  0  0  0
  7  8  1  0  0  0  0
  8 25  2  0  0  0  0
  8  9  1  0  0  0  0
  9 10  1  0  0  0  0
  9 22  2  0  0  0  0
 10 15  1  0  0  0  0
 10 11  1  0  0  0  0
 11 12  1  0  0  0  0
 11 38  1  0  0  0  0
 11 39  1  0  0  0  0
 12 13  1  0  0  0  0
 12 40  1  0  0  0  0
 12 41  1  0  0  0  0
 13 14  1  0  0  0  0
 13 42  1  0  0  0  0
 13 43  1  0  0  0  0
 14 15  1  0  0  0  0
 14 44  1  0  0  0  0
 14 45  1  0  0  0  0
 15 16  1  0  0  0  0
 15 46  1  0  0  0  0
 16 20  1  0  0  0  0
 16 17  1  0  0  0  0
 16 47  1  0  0  0  0
 17 18  1  0  0  0  0
 17 48  1  0  0  0  0
 17 49  1  0  0  0  0
 18 19  1  0  0  0  0
 18 50  1  0  0  0  0
 18 51  1  0  0  0  0
 19 20  1  0  0  0  0
 19 52  1  0  0  0  0
 19 53  1  0  0  0  0
 20 21  1  0  0  0  0
 20 54  1  0  0  0  0
 21 55  1  0  0  0  0
 22 23  1  0  0  0  0
 23 24  2  0  0  0  0
 23 56  1  0  0  0  0
 24 25  1  0  0  0  0
 26 30  1  0  0  0  0
 26 27  1  0  0  0  0
 26 57  1  0  0  0  0
 27 28  1  0  0  0  0
 27 58  1  0  0  0  0
 27 59  1  0  0  0  0
 28 29  1  0  0  0  0
 28 60  1  0  0  0  0
 28 61  1  0  0  0  0
 29 30  1  0  0  0  0
 30 62  1  0  0  0  0
 30 63  1  0  0  0  0
M  END
> <s_m_source_file>
AV-unprocessed.smi

> <i_m_source_file_index>
148

> <i_lp_mmshare_version>
43012

> <i_f3d_flags>
0

> <s_epik_input>
W0NIMl0xT1tDSDJdW0NIMl1bQ0BIXTFbQ0BIXShbQ0gyXVtPSF0pW0NIMl1uKFtjSF1uMiljKGMyMyluW2NIXW5jM040W0NIMl1bQ0gyXVtDSDJdW0NIMl1bQ0BIXTRbQ0BASF01W0NIMl1bQ0gyXVtDSDJdW0NASF01W09IXQ==

> <s_epik_cmdline>
J2VwaWtfcHl0aG9uJywgJy1waCcsICc3LjAnLCAnLXRuJywgJzgnLCAnLW1hJywgJzIwMCcsICctbWV0YWxfYmluZGluZycsICctaW1hZScsICc8aW5maWxlLm1hZT4nLCAnLW9tYWUnLCAnPG91dGZpbGUubWFlPic=

> <r_lp_tautomer_probability>
1

> <r_epik_Ionization_Penalty>
0.00556303

> <r_epik_Ionization_Penalty_Charging>
0

> <r_epik_Ionization_Penalty_Neutral>
0.00556303

> <r_epik_State_Penalty>
0.00401767

> <r_epik_Charging_Adjusted_Penalty>
0.00401767

> <i_epik_Tot_Q>
0

> <i_epik_Tot_abs_Q>
0

> <r_epik_Metal_State_Penalty>
-0

> <b_epik_Metal_Only>
0

> <s_lp_Force_Field>
OPLS_2005

> <r_lp_Energy>
68.5512

> <b_lp_Chiralities_Consistent>
1

> <s_lp_Variant>
AV-unprocessed.smi:148-32

> <Gold.Version>
5.8.1

> <Gold.Id.Protein>
6NUR|6NUR_protein|mol2

> <Gold.PLP.Fitness>
54.5751

> <Gold.PLP.PLP>
-44.5949

> <Gold.PLP.part.hbond>
-4.8207

> <Gold.PLP.part.metal>
0.0000

> <Gold.PLP.part.buried>
-7.7899

> <Gold.PLP.part.nonpolar>
-34.5468

> <Gold.PLP.part.repulsive>
1.1791

> <Gold.PLP.ligand.clash>
0.0000

> <Gold.PLP.ligand.torsion>
1.9664

> <Gold.PLP.Chemscore.Hbond>
4.4880

> <Gold.PLP.Chemscore.CHOScore>
0.0000

> <Gold.PLP.Chemscore.Metal>
0.0000

> <Gold.Chemscore.Hbonds>
donor molecule, donor type, donor heavy atom, donor atom, acceptor molecule, acceptor atom, score
      L1  H    21    55       P1  7957  0.99
      P1  H  6896  6909       L1     1  0.77
      P1  H  7989  7998       L1    21  0.72
      P1  H  7997  8010       L1    22  0.94
      P1  H 10752 10763       L1    24  0.85

> <Gold.PLP.Chemscore.Internal.Correction>
0.4489

> <Gold.Rescore>
     Score         DG    S(hbond)    S(metal)    S(lipo)     H(rot)  DE(clash)    DE(int)     intcor
     18.46     -20.63       3.61        0.00      98.98       3.32       0.06       2.11       ----

> <Gold.Chemscore.Fitness>
18.4580

> <Gold.Chemscore.DG>
-20.6335

> <Gold.Chemscore.ZeroCoef>
-5.4800

> <Gold.Chemscore.Hbond>
3.6146

> <Gold.Chemscore.Metal>
0.0000

> <Gold.Chemscore.Lipo>
98.9818

> <Gold.Chemscore.Internal_Hbond>
0.0000

> <Gold.Chemscore.DEClash>
0.0619

> <Gold.Chemscore.DEInternal>
2.1135

> <Gold.Chemscore.Rot>
3.3203

> <Gold.Chemscore.Internal.Correction>
   9.000000E+99

> <Gold.Chemscore.Hbonds>
donor molecule, donor type, donor heavy atom, donor atom, acceptor molecule, acceptor atom, score
      L1  H    21    55       P1  7957  0.90
      P1  H  6896  6909       L1     1  0.22
      P1  H  7989  7998       L1    21  0.18
      P1  H  7997  8010       L1    22  0.40
      P1  H 10752 10763       L1    24  0.50

> <Gold.Chemscore.Hbond.Weighted>
-12.0726

> <Gold.Chemscore.Metal.Weighted>
-0.0000

> <Gold.Chemscore.Lipo.Weighted>
-11.5809

> <Gold.Chemscore.Internal_Hbond.Weighted>
0.0000

> <Gold.Chemscore.DEClash.Weighted>
0.0619

> <Gold.Chemscore.DEInternal.Weighted>
2.1135

> <Gold.Chemscore.Rot.Weighted>
8.5000

> <Gold.Chemscore.Internal.Correction.Weighted>
   9.000000E+99

> <Gold.Protein.RotatedTorsions>
[ 6907 6896 6895 6894 ] final  -29.78 input  -60.11 | X-H torsion
[ 7974 7965 7964 7962 ] final  -30.10 input  175.53 | X-H torsion
[ 8008 7997 7996 7995 ] final   93.91 input   59.86 | X-H torsion
[ 10167 10162 10161 10158 ] final   15.36 input  -65.29 | X-H torsion
[ 10718 10713 10712 10709 ] final   36.84 input   66.30 | X-H torsion
[ 10763 10752 10751 10750 ] final   44.67 input  -60.55 | X-H torsion
[ 11005 11000 10999 10996 ] final   87.18 input  -57.11 | X-H torsion

> <Gold.Protein.ActiveResidues>
 VAL166  LYS551  ARG553  GLY616  TRP617  ASP618  TYR619  PRO620  LYS621  CYS622 
 ASP623  PHE694  ASN695  SER759  ASP760  ASP761  ALA762  ILE779  LEU786  VAL792 
 PHE793  MET794  SER795  GLU796  ALA797  LYS798  CYS799  TRP800  GLU811  SER814 

> <Gold.Protein.RotatedAtoms>
  151.1146  135.0045  159.8509 H   0  0  0  0  0  0  0  0  0  0  0  0  # atno 6907 bound_to 6896
  152.5445  134.1795  159.8640 H   0  0  0  0  0  0  0  0  0  0  0  0  # atno 6908 bound_to 6896
  151.1849  133.4658  159.2627 H   0  0  0  0  0  0  0  0  0  0  0  0  # atno 6909 bound_to 6896
  146.1168  140.5497  142.8753 H   0  0  0  0  0  0  0  0  0  0  0  0  # atno 7974 bound_to 7965
  156.0521  140.3307  155.7363 H   0  0  0  0  0  0  0  0  0  0  0  0  # atno 8008 bound_to 7997
  155.5585  140.0617  157.2851 H   0  0  0  0  0  0  0  0  0  0  0  0  # atno 8009 bound_to 7997
  154.4440  140.1881  156.0747 H   0  0  0  0  0  0  0  0  0  0  0  0  # atno 8010 bound_to 7997
  140.5872  143.8865  150.6841 H   0  0  0  0  0  0  0  0  0  0  0  0  # atno 10167 bound_to 10162
  157.3398  130.7541  149.6904 H   0  0  0  0  0  0  0  0  0  0  0  0  # atno 10718 bound_to 10713
  152.9837  135.6063  154.3312 H   0  0  0  0  0  0  0  0  0  0  0  0  # atno 10763 bound_to 10752
  154.3015  135.2773  155.2610 H   0  0  0  0  0  0  0  0  0  0  0  0  # atno 10764 bound_to 10752
  154.4860  135.5904  153.6480 H   0  0  0  0  0  0  0  0  0  0  0  0  # atno 10765 bound_to 10752
  139.8926  134.8405  156.2824 H   0  0  0  0  0  0  0  0  0  0  0  0  # atno 11005 bound_to 11000
  144.7560  140.5309  143.6768 LP  0  0  0  0  0  0  0  0  0  0  0  0  # atno 17320 bound_to 7965
  145.5550  139.1477  143.3373 LP  0  0  0  0  0  0  0  0  0  0  0  0  # atno 17321 bound_to 7965
  140.2379  143.3686  152.1511 LP  0  0  0  0  0  0  0  0  0  0  0  0  # atno 17342 bound_to 10162
  139.5205  144.7034  151.5427 LP  0  0  0  0  0  0  0  0  0  0  0  0  # atno 17343 bound_to 10162
  155.9706  130.4171  150.4263 LP  0  0  0  0  0  0  0  0  0  0  0  0  # atno 17370 bound_to 10713
  157.2309  131.0504  151.2493 LP  0  0  0  0  0  0  0  0  0  0  0  0  # atno 17371 bound_to 10713
  141.0030  133.7140  156.0990 LP  0  0  0  0  0  0  0  0  0  0  0  0  # atno 17394 bound_to 11000
  140.7472  134.4085  157.5546 LP  0  0  0  0  0  0  0  0  0  0  0  0  # atno 17395 bound_to 11000

$$$$
