AV-unprocessed.smi:3338|AV-procd|sdf|12870|dock5
  -GOLD-   2272019273D 1   1.00000     0.00000
 Structure written by MMmdl.
 44 45  0  0  0  0  0  0  0  0  2 V2000
  145.5907  136.0294  150.8462 C   0  0  0  0  0  0  0  0  0  0  0  0
  145.0804  134.8176  151.6452 C   0  0  1  0  0  0  0  0  0  0  0  0
  145.2984  133.4816  150.9107 C   0  0  0  0  0  0  0  0  0  0  0  0
  146.7750  133.0625  150.9416 C   0  0  0  0  0  0  0  0  0  0  0  0
  147.3151  133.0496  152.3803 C   0  0  0  0  0  0  0  0  0  0  0  0
  147.1205  134.3682  153.0364 N   0  3  2  0  0  0  0  0  0  0  0  0
  147.7685  134.4364  154.3700 C   0  0  0  0  0  0  0  0  0  0  0  0
  147.6066  135.8179  155.0242 C   0  0  0  0  0  0  0  0  0  0  0  0
  148.6917  136.6995  154.6176 N   0  0  0  0  0  0  0  0  0  0  0  0
  149.1245  137.7582  155.3189 C   0  0  0  0  0  0  0  0  0  0  0  0
  148.6482  138.0800  156.4083 O   0  0  0  0  0  0  0  0  0  0  0  0
  150.2677  138.5668  154.6838 C   0  0  2  0  0  0  0  0  0  0  0  0
  151.5376  137.7299  154.4366 C   0  0  0  0  0  0  0  0  0  0  0  0
  150.5604  139.7446  155.4917 N   0  0  0  0  0  0  0  0  0  0  0  0
  150.9849  139.8123  156.8047 C   0  0  0  0  0  0  0  0  0  0  0  0
  151.0903  141.1333  157.1332 C   0  0  0  0  0  0  0  0  0  0  0  0
  150.6980  141.8092  155.9447 C   0  0  0  0  0  0  0  0  0  0  0  0
  150.3754  140.9771  154.9679 N   0  0  0  0  0  0  0  0  0  0  0  0
  145.6849  134.7601  153.0631 C   0  0  0  0  0  0  0  0  0  0  0  0
  146.6719  136.0030  150.7107 H   0  0  0  0  0  0  0  0  0  0  0  0
  145.3466  136.9623  151.3546 H   0  0  0  0  0  0  0  0  0  0  0  0
  145.1333  136.0677  149.8570 H   0  0  0  0  0  0  0  0  0  0  0  0
  144.0038  134.9547  151.7542 H   0  0  0  0  0  0  0  0  0  0  0  0
  144.6996  132.7068  151.3913 H   0  0  0  0  0  0  0  0  0  0  0  0
  144.9434  133.5467  149.8816 H   0  0  0  0  0  0  0  0  0  0  0  0
  146.8891  132.0747  150.4940 H   0  0  0  0  0  0  0  0  0  0  0  0
  147.3690  133.7435  150.3315 H   0  0  0  0  0  0  0  0  0  0  0  0
  146.8191  132.2727  152.9645 H   0  0  0  0  0  0  0  0  0  0  0  0
  148.3767  132.8004  152.3568 H   0  0  0  0  0  0  0  0  0  0  0  0
  147.3754  133.6486  155.0148 H   0  0  0  0  0  0  0  0  0  0  0  0
  148.8366  134.2409  154.2627 H   0  0  0  0  0  0  0  0  0  0  0  0
  146.6453  136.2475  154.7367 H   0  0  0  0  0  0  0  0  0  0  0  0
  147.6153  135.7468  156.1116 H   0  0  0  0  0  0  0  0  0  0  0  0
  149.1395  136.5044  153.7332 H   0  0  0  0  0  0  0  0  0  0  0  0
  149.9114  138.9062  153.7091 H   0  0  0  0  0  0  0  0  0  0  0  0
  151.3280  136.8752  153.7921 H   0  0  0  0  0  0  0  0  0  0  0  0
  151.9623  137.3489  155.3660 H   0  0  0  0  0  0  0  0  0  0  0  0
  152.3054  138.3273  153.9440 H   0  0  0  0  0  0  0  0  0  0  0  0
  151.1730  138.9245  157.3902 H   0  0  0  0  0  0  0  0  0  0  0  0
  151.3984  141.5530  158.0792 H   0  0  0  0  0  0  0  0  0  0  0  0
  150.6345  142.8722  155.7650 H   0  0  0  0  0  0  0  0  0  0  0  0
  145.5595  135.7284  153.5468 H   0  0  0  0  0  0  0  0  0  0  0  0
  145.1324  134.0402  153.6689 H   0  0  0  0  0  0  0  0  0  0  0  0
  147.5983  135.0414  152.4544 H   0  0  0  0  0  0  0  0  0  0  0  0
  1  2  1  0  0  0  0
  1 20  1  0  0  0  0
  1 21  1  0  0  0  0
  1 22  1  0  0  0  0
  2 19  1  0  0  0  0
  2  3  1  0  0  0  0
  2 23  1  0  0  0  0
  3  4  1  0  0  0  0
  3 24  1  0  0  0  0
  3 25  1  0  0  0  0
  4  5  1  0  0  0  0
  4 26  1  0  0  0  0
  4 27  1  0  0  0  0
  5  6  1  0  0  0  0
  5 28  1  0  0  0  0
  5 29  1  0  0  0  0
  6  7  1  0  0  0  0
  6 19  1  0  0  0  0
  6 44  1  0  0  0  0
  7  8  1  0  0  0  0
  7 30  1  0  0  0  0
  7 31  1  0  0  0  0
  8  9  1  0  0  0  0
  8 32  1  0  0  0  0
  8 33  1  0  0  0  0
  9 10  1  0  0  0  0
  9 34  1  0  0  0  0
 10 11  2  0  0  0  0
 10 12  1  0  0  0  0
 12 13  1  0  0  0  0
 12 14  1  0  0  0  0
 12 35  1  0  0  0  0
 13 36  1  0  0  0  0
 13 37  1  0  0  0  0
 13 38  1  0  0  0  0
 14 18  1  0  0  0  0
 14 15  1  0  0  0  0
 15 16  2  0  0  0  0
 15 39  1  0  0  0  0
 16 17  1  0  0  0  0
 16 40  1  0  0  0  0
 17 18  2  0  0  0  0
 17 41  1  0  0  0  0
 19 42  1  0  0  0  0
 19 43  1  0  0  0  0
M  CHG  1   6   1
M  END
> <s_m_source_file>
AV-unprocessed.smi

> <i_m_source_file_index>
3338

> <i_lp_mmshare_version>
43012

> <i_f3d_flags>
0

> <s_epik_input>
W0NIM11bQ0BASF0xW0NIMl1bQ0gyXVtDSDJdTihbQ0gyXTEpW0NIMl1bQ0gyXVtOSF1DKD1PKVtDQEhdKFtDSDNdKW4yW2NIXVtjSF1bY0hdbjI=

> <s_epik_cmdline>
J2VwaWtfcHl0aG9uJywgJy1waCcsICc3LjAnLCAnLXRuJywgJzgnLCAnLW1hJywgJzIwMCcsICctbWV0YWxfYmluZGluZycsICctaW1hZScsICc8aW5maWxlLm1hZT4nLCAnLW9tYWUnLCAnPG91dGZpbGUubWFlPic=

> <r_lp_tautomer_probability>
1

> <r_epik_Ionization_Penalty>
0.00225707

> <r_epik_Ionization_Penalty_Charging>
0.00223709

> <r_epik_Ionization_Penalty_Neutral>
1.99775e-05

> <r_epik_State_Penalty>
0.00153978

> <r_epik_Charging_Adjusted_Penalty>
0.00377687

> <i_epik_Tot_Q>
1

> <i_epik_Tot_abs_Q>
1

> <r_epik_Metal_State_Penalty>
-0

> <b_epik_Metal_Only>
0

> <s_lp_Force_Field>
OPLS_2005

> <r_lp_Energy>
22.9717

> <b_lp_Chiralities_Consistent>
1

> <s_lp_Variant>
AV-unprocessed.smi:3338-2

> <Gold.Version>
5.8.1

> <Gold.Id.Protein>
6NUR|6NUR_protein|mol2

> <Gold.PLP.Fitness>
44.7093

> <Gold.PLP.PLP>
-31.2363

> <Gold.PLP.part.hbond>
-3.0000

> <Gold.PLP.part.metal>
0.0000

> <Gold.PLP.part.buried>
-2.9715

> <Gold.PLP.part.nonpolar>
-25.6432

> <Gold.PLP.part.repulsive>
0.1007

> <Gold.PLP.ligand.clash>
0.0000

> <Gold.PLP.ligand.torsion>
0.3988

> <Gold.PLP.Chemscore.Hbond>
3.7120

> <Gold.PLP.Chemscore.CHOScore>
1.0000

> <Gold.PLP.Chemscore.Metal>
0.0000

> <Gold.Chemscore.Hbonds>
donor molecule, donor type, donor heavy atom, donor atom, acceptor molecule, acceptor atom, score
      L1  H     6    44       P1  7948  2.00
      L1  H     9    34       P1  7948  0.99
      P1  H  7989  7998       L1    18  0.72
      L1  C    17    41       P1  8028  0.98

> <Gold.PLP.Chemscore.Internal.Correction>
0.1346

> <Gold.Rescore>
     Score         DG    S(hbond)    S(metal)    S(lipo)     H(rot)  DE(clash)    DE(int)     intcor
     16.90     -18.52       2.63        0.00      74.94       1.76       0.10       1.52       ----

> <Gold.Chemscore.Fitness>
16.8966

> <Gold.Chemscore.DG>
-18.5217

> <Gold.Chemscore.ZeroCoef>
-5.4800

> <Gold.Chemscore.Hbond>
2.6261

> <Gold.Chemscore.Metal>
0.0000

> <Gold.Chemscore.Lipo>
74.9428

> <Gold.Chemscore.Internal_Hbond>
0.0000

> <Gold.Chemscore.DEClash>
0.1046

> <Gold.Chemscore.DEInternal>
1.5205

> <Gold.Chemscore.Rot>
1.7570

> <Gold.Chemscore.Internal.Correction>
   9.000000E+99

> <Gold.Chemscore.Hbonds>
donor molecule, donor type, donor heavy atom, donor atom, acceptor molecule, acceptor atom, score
      L1  H     6    44       P1  7948  0.98
      L1  H     9    34       P1  7948  0.92
      P1  H  7989  7998       L1    18  0.17

> <Gold.Chemscore.Hbond.Weighted>
-8.7713

> <Gold.Chemscore.Metal.Weighted>
-0.0000

> <Gold.Chemscore.Lipo.Weighted>
-8.7683

> <Gold.Chemscore.Internal_Hbond.Weighted>
0.0000

> <Gold.Chemscore.DEClash.Weighted>
0.1046

> <Gold.Chemscore.DEInternal.Weighted>
1.5205

> <Gold.Chemscore.Rot.Weighted>
4.4979

> <Gold.Chemscore.Internal.Correction.Weighted>
   9.000000E+99

> <Gold.Protein.RotatedTorsions>
[ 6907 6896 6895 6894 ] final  -93.67 input  -60.11 | X-H torsion
[ 7974 7965 7964 7962 ] final   25.37 input  175.53 | X-H torsion
[ 8008 7997 7996 7995 ] final -100.09 input   59.86 | X-H torsion
[ 10167 10162 10161 10158 ] final   53.48 input  -65.29 | X-H torsion
[ 10718 10713 10712 10709 ] final  -80.90 input   66.30 | X-H torsion
[ 10763 10752 10751 10750 ] final  104.39 input  -60.55 | X-H torsion
[ 11005 11000 10999 10996 ] final   69.62 input  -57.11 | X-H torsion

> <Gold.Protein.ActiveResidues>
 VAL166  LYS551  ARG553  GLY616  TRP617  ASP618  TYR619  PRO620  LYS621  CYS622 
 ASP623  PHE694  ASN695  SER759  ASP760  ASP761  ALA762  ILE779  LEU786  VAL792 
 PHE793  MET794  SER795  GLU796  ALA797  LYS798  CYS799  TRP800  GLU811  SER814 

> <Gold.Protein.RotatedAtoms>
  150.6927  134.1932  159.4292 H   0  0  0  0  0  0  0  0  0  0  0  0  # atno 6907 bound_to 6896
  151.9902  134.9981  160.0570 H   0  0  0  0  0  0  0  0  0  0  0  0  # atno 6908 bound_to 6896
  152.1675  133.4586  159.4929 H   0  0  0  0  0  0  0  0  0  0  0  0  # atno 6909 bound_to 6896
  146.1892  139.7475  142.8844 H   0  0  0  0  0  0  0  0  0  0  0  0  # atno 7974 bound_to 7965
  154.8239  140.0443  157.1430 H   0  0  0  0  0  0  0  0  0  0  0  0  # atno 8008 bound_to 7997
  154.9229  140.3029  155.5187 H   0  0  0  0  0  0  0  0  0  0  0  0  # atno 8009 bound_to 7997
  156.2982  140.2337  156.4280 H   0  0  0  0  0  0  0  0  0  0  0  0  # atno 8010 bound_to 7997
  140.2403  144.3591  150.6382 H   0  0  0  0  0  0  0  0  0  0  0  0  # atno 10167 bound_to 10162
  156.0061  130.4588  150.3870 H   0  0  0  0  0  0  0  0  0  0  0  0  # atno 10718 bound_to 10713
  153.3653  135.3945  155.1748 H   0  0  0  0  0  0  0  0  0  0  0  0  # atno 10763 bound_to 10752
  154.8686  135.3689  154.5047 H   0  0  0  0  0  0  0  0  0  0  0  0  # atno 10764 bound_to 10752
  153.5510  135.7083  153.5652 H   0  0  0  0  0  0  0  0  0  0  0  0  # atno 10765 bound_to 10752
  139.9643  134.7007  156.0578 H   0  0  0  0  0  0  0  0  0  0  0  0  # atno 11005 bound_to 11000
  145.3846  141.0363  143.3158 LP  0  0  0  0  0  0  0  0  0  0  0  0  # atno 17320 bound_to 7965
  144.8454  139.5406  143.6881 LP  0  0  0  0  0  0  0  0  0  0  0  0  # atno 17321 bound_to 7965
  140.6118  143.2170  151.6870 LP  0  0  0  0  0  0  0  0  0  0  0  0  # atno 17342 bound_to 10162
  139.5079  144.3628  152.0545 LP  0  0  0  0  0  0  0  0  0  0  0  0  # atno 17343 bound_to 10162
  157.1947  131.0423  151.2682 LP  0  0  0  0  0  0  0  0  0  0  0  0  # atno 17370 bound_to 10713
  157.4030  130.7343  149.6781 LP  0  0  0  0  0  0  0  0  0  0  0  0  # atno 17371 bound_to 10713
  141.1322  133.6583  156.3497 LP  0  0  0  0  0  0  0  0  0  0  0  0  # atno 17394 bound_to 11000
  140.5430  134.6102  157.5385 LP  0  0  0  0  0  0  0  0  0  0  0  0  # atno 17395 bound_to 11000

$$$$
