AV-unprocessed.smi:1093|AV-procd|sdf|4744|dock9
  -GOLD-   22720 3283D 1   1.00000     0.00000
 Structure written by MMmdl.
 47 48  0  0  0  0  0  0  0  0  2 V2000
  145.9059  131.9561  151.2525 C   0  0  0  0  0  0  0  0  0  0  0  0
  147.0902  132.8951  151.5237 C   0  0  0  0  0  0  0  0  0  0  0  0
  146.6581  134.2975  151.7433 N   0  3  1  0  0  0  0  0  0  0  0  0
  145.8026  134.8086  150.6408 C   0  0  0  0  0  0  0  0  0  0  0  0
  145.5002  136.3070  150.8189 C   0  0  0  0  0  0  0  0  0  0  0  0
  144.8850  136.5965  152.1986 C   0  0  0  0  0  0  0  0  0  0  0  0
  145.7576  136.0147  153.3250 C   0  0  2  0  0  0  0  0  0  0  0  0
  147.0086  136.7675  153.4263 N   0  0  0  0  0  0  0  0  0  0  0  0
  147.3746  137.5274  154.4685 C   0  0  0  0  0  0  0  0  0  0  0  0
  146.6868  137.6658  155.4795 O   0  0  0  0  0  0  0  0  0  0  0  0
  148.5824  138.0805  154.2663 N   0  0  0  0  0  0  0  0  0  0  0  0
  149.3181  138.9330  155.1324 C   0  0  0  0  0  0  0  0  0  0  0  0
  150.5503  139.5395  154.7971 C   0  0  0  0  0  0  0  0  0  0  0  0
  151.1939  140.3518  155.7504 C   0  0  0  0  0  0  0  0  0  0  0  0
  150.5981  140.5364  157.0229 C   0  0  0  0  0  0  0  0  0  0  0  0
  151.2040  141.3443  158.0122 N   0  0  0  0  0  0  0  0  0  0  0  0
  151.8839  140.7203  159.1427 C   0  0  0  0  0  0  0  0  0  0  0  0
  151.2199  142.7945  157.8660 C   0  0  0  0  0  0  0  0  0  0  0  0
  149.4230  139.9404  157.3412 N   0  0  0  0  0  0  0  0  0  0  0  0
  148.8109  139.1615  156.4261 C   0  0  0  0  0  0  0  0  0  0  0  0
  146.0114  134.5133  153.0650 C   0  0  0  0  0  0  0  0  0  0  0  0
  146.2461  130.9232  151.1782 H   0  0  0  0  0  0  0  0  0  0  0  0
  145.3952  132.1947  150.3198 H   0  0  0  0  0  0  0  0  0  0  0  0
  145.1731  132.0040  152.0583 H   0  0  0  0  0  0  0  0  0  0  0  0
  147.6010  132.5317  152.4164 H   0  0  0  0  0  0  0  0  0  0  0  0
  147.8166  132.8481  150.7111 H   0  0  0  0  0  0  0  0  0  0  0  0
  146.3025  134.6583  149.6833 H   0  0  0  0  0  0  0  0  0  0  0  0
  144.8732  134.2378  150.6066 H   0  0  0  0  0  0  0  0  0  0  0  0
  146.4195  136.8807  150.6967 H   0  0  0  0  0  0  0  0  0  0  0  0
  144.8237  136.6450  150.0333 H   0  0  0  0  0  0  0  0  0  0  0  0
  144.7469  137.6699  152.3344 H   0  0  0  0  0  0  0  0  0  0  0  0
  143.8901  136.1521  152.2483 H   0  0  0  0  0  0  0  0  0  0  0  0
  145.2189  136.1260  154.2677 H   0  0  0  0  0  0  0  0  0  0  0  0
  147.6346  136.7167  152.6356 H   0  0  0  0  0  0  0  0  0  0  0  0
  149.0608  137.8110  153.4193 H   0  0  0  0  0  0  0  0  0  0  0  0
  151.0212  139.3886  153.8381 H   0  0  0  0  0  0  0  0  0  0  0  0
  152.1332  140.8134  155.4865 H   0  0  0  0  0  0  0  0  0  0  0  0
  152.7125  140.1018  158.7962 H   0  0  0  0  0  0  0  0  0  0  0  0
  151.1933  140.0918  159.7058 H   0  0  0  0  0  0  0  0  0  0  0  0
  152.2871  141.4667  159.8270 H   0  0  0  0  0  0  0  0  0  0  0  0
  150.2037  143.1887  157.8401 H   0  0  0  0  0  0  0  0  0  0  0  0
  151.7303  143.0817  156.9463 H   0  0  0  0  0  0  0  0  0  0  0  0
  151.7396  143.2713  158.6970 H   0  0  0  0  0  0  0  0  0  0  0  0
  147.8797  138.7112  156.7376 H   0  0  0  0  0  0  0  0  0  0  0  0
  145.0679  133.9661  153.0977 H   0  0  0  0  0  0  0  0  0  0  0  0
  146.6265  134.1010  153.8637 H   0  0  0  0  0  0  0  0  0  0  0  0
  147.4986  134.8577  151.7323 H   0  0  0  0  0  0  0  0  0  0  0  0
  1  2  1  0  0  0  0
  1 22  1  0  0  0  0
  1 23  1  0  0  0  0
  1 24  1  0  0  0  0
  2  3  1  0  0  0  0
  2 25  1  0  0  0  0
  2 26  1  0  0  0  0
  3 21  1  0  0  0  0
  3  4  1  0  0  0  0
  3 47  1  0  0  0  0
  4  5  1  0  0  0  0
  4 27  1  0  0  0  0
  4 28  1  0  0  0  0
  5  6  1  0  0  0  0
  5 29  1  0  0  0  0
  5 30  1  0  0  0  0
  6  7  1  0  0  0  0
  6 31  1  0  0  0  0
  6 32  1  0  0  0  0
  7  8  1  0  0  0  0
  7 21  1  0  0  0  0
  7 33  1  0  0  0  0
  8  9  1  0  0  0  0
  8 34  1  0  0  0  0
  9 10  2  0  0  0  0
  9 11  1  0  0  0  0
 11 12  1  0  0  0  0
 11 35  1  0  0  0  0
 12 20  1  0  0  0  0
 12 13  2  0  0  0  0
 13 14  1  0  0  0  0
 13 36  1  0  0  0  0
 14 15  2  0  0  0  0
 14 37  1  0  0  0  0
 15 16  1  0  0  0  0
 15 19  1  0  0  0  0
 16 17  1  0  0  0  0
 16 18  1  0  0  0  0
 17 38  1  0  0  0  0
 17 39  1  0  0  0  0
 17 40  1  0  0  0  0
 18 41  1  0  0  0  0
 18 42  1  0  0  0  0
 18 43  1  0  0  0  0
 19 20  2  0  0  0  0
 20 44  1  0  0  0  0
 21 45  1  0  0  0  0
 21 46  1  0  0  0  0
M  CHG  1   3   1
M  END
> <s_m_source_file>
AV-unprocessed.smi

> <i_m_source_file_index>
1093

> <i_lp_mmshare_version>
43012

> <i_f3d_flags>
0

> <s_epik_input>
W0NIM11bQ0gyXU4xW0NIMl1bQ0gyXVtDSDJdW0NASF0oW0NIMl0xKVtOSF1DKD1PKVtOSF1jMltjSF1bY0hdYyhOKFtDSDNdKVtDSDNdKW5bY0hdMg==

> <s_epik_cmdline>
J2VwaWtfcHl0aG9uJywgJy1waCcsICc3LjAnLCAnLXRuJywgJzgnLCAnLW1hJywgJzIwMCcsICctbWV0YWxfYmluZGluZycsICctaW1hZScsICc8aW5maWxlLm1hZT4nLCAnLW9tYWUnLCAnPG91dGZpbGUubWFlPic=

> <r_lp_tautomer_probability>
1

> <r_epik_Ionization_Penalty>
0.489418

> <r_epik_Ionization_Penalty_Charging>
0.00268196

> <r_epik_Ionization_Penalty_Neutral>
0.486736

> <r_epik_State_Penalty>
0.491157

> <r_epik_Charging_Adjusted_Penalty>
0.493839

> <i_epik_Tot_Q>
1

> <i_epik_Tot_abs_Q>
1

> <r_epik_Metal_State_Penalty>
0.266953

> <b_epik_Metal_Only>
0

> <s_lp_Force_Field>
OPLS_2005

> <r_lp_Energy>
27.6013

> <b_lp_Chiralities_Consistent>
1

> <s_lp_Variant>
AV-unprocessed.smi:1093-7

> <Gold.Version>
5.8.1

> <Gold.Id.Protein>
6NUR|6NUR_protein|mol2

> <Gold.PLP.Fitness>
37.9527

> <Gold.PLP.PLP>
-30.1611

> <Gold.PLP.part.hbond>
-2.9938

> <Gold.PLP.part.metal>
0.0000

> <Gold.PLP.part.buried>
-0.3007

> <Gold.PLP.part.nonpolar>
-26.4989

> <Gold.PLP.part.repulsive>
0.0590

> <Gold.PLP.ligand.clash>
0.0000

> <Gold.PLP.ligand.torsion>
1.4687

> <Gold.PLP.Chemscore.Hbond>
3.5678

> <Gold.PLP.Chemscore.CHOScore>
0.0000

> <Gold.PLP.Chemscore.Metal>
0.0000

> <Gold.Chemscore.Hbonds>
donor molecule, donor type, donor heavy atom, donor atom, acceptor molecule, acceptor atom, score
      L1  H     3    47       P1  7948  2.00
      L1  H     8    34       P1  7948  1.00
      L1  H    11    35       P1  7948  0.47

> <Gold.PLP.Chemscore.Internal.Correction>
0.0254

> <Gold.Rescore>
     Score         DG    S(hbond)    S(metal)    S(lipo)     H(rot)  DE(clash)    DE(int)     intcor
     15.46     -18.44       2.22        0.00      73.33       1.18       0.06       2.92       ----

> <Gold.Chemscore.Fitness>
15.4559

> <Gold.Chemscore.DG>
-18.4373

> <Gold.Chemscore.ZeroCoef>
-5.4800

> <Gold.Chemscore.Hbond>
2.2185

> <Gold.Chemscore.Metal>
0.0000

> <Gold.Chemscore.Lipo>
73.3266

> <Gold.Chemscore.Internal_Hbond>
0.0000

> <Gold.Chemscore.DEClash>
0.0597

> <Gold.Chemscore.DEInternal>
2.9218

> <Gold.Chemscore.Rot>
1.1842

> <Gold.Chemscore.Internal.Correction>
   9.000000E+99

> <Gold.Chemscore.Hbonds>
donor molecule, donor type, donor heavy atom, donor atom, acceptor molecule, acceptor atom, score
      L1  H     3    47       P1  7948  0.65
      L1  H     8    34       P1  7948  0.97
      L1  H    11    35       P1  7948  0.46

> <Gold.Chemscore.Hbond.Weighted>
-7.4098

> <Gold.Chemscore.Metal.Weighted>
-0.0000

> <Gold.Chemscore.Lipo.Weighted>
-8.5792

> <Gold.Chemscore.Internal_Hbond.Weighted>
0.0000

> <Gold.Chemscore.DEClash.Weighted>
0.0597

> <Gold.Chemscore.DEInternal.Weighted>
2.9218

> <Gold.Chemscore.Rot.Weighted>
3.0317

> <Gold.Chemscore.Internal.Correction.Weighted>
   9.000000E+99

> <Gold.Protein.RotatedTorsions>
[ 6907 6896 6895 6894 ] final   77.28 input  -60.11 | X-H torsion
[ 7974 7965 7964 7962 ] final   75.43 input  175.53 | X-H torsion
[ 8008 7997 7996 7995 ] final  112.66 input   59.86 | X-H torsion
[ 10167 10162 10161 10158 ] final   62.94 input  -65.29 | X-H torsion
[ 10718 10713 10712 10709 ] final   -8.02 input   66.30 | X-H torsion
[ 10763 10752 10751 10750 ] final -145.33 input  -60.55 | X-H torsion
[ 11005 11000 10999 10996 ] final   69.96 input  -57.11 | X-H torsion

> <Gold.Protein.ActiveResidues>
 VAL166  LYS551  ARG553  GLY616  TRP617  ASP618  TYR619  PRO620  LYS621  CYS622 
 ASP623  PHE694  ASN695  SER759  ASP760  ASP761  ALA762  ILE779  LEU786  VAL792 
 PHE793  MET794  SER795  GLU796  ALA797  LYS798  CYS799  TRP800  GLU811  SER814 

> <Gold.Protein.RotatedAtoms>
  152.5111  134.3840  159.9360 H   0  0  0  0  0  0  0  0  0  0  0  0  # atno 6907 bound_to 6896
  151.3798  133.3819  159.2716 H   0  0  0  0  0  0  0  0  0  0  0  0  # atno 6908 bound_to 6896
  150.9513  134.8933  159.7732 H   0  0  0  0  0  0  0  0  0  0  0  0  # atno 6909 bound_to 6896
  145.7157  139.2630  143.1625 H   0  0  0  0  0  0  0  0  0  0  0  0  # atno 7974 bound_to 7965
  156.2207  140.2995  155.9946 H   0  0  0  0  0  0  0  0  0  0  0  0  # atno 8008 bound_to 7997
  155.2489  140.0425  157.3001 H   0  0  0  0  0  0  0  0  0  0  0  0  # atno 8009 bound_to 7997
  154.5836  140.2382  155.8026 H   0  0  0  0  0  0  0  0  0  0  0  0  # atno 8010 bound_to 7997
  140.1384  144.4576  150.6824 H   0  0  0  0  0  0  0  0  0  0  0  0  # atno 10167 bound_to 10162
  156.7088  130.5115  149.5897 H   0  0  0  0  0  0  0  0  0  0  0  0  # atno 10718 bound_to 10713
  154.8388  135.3416  154.6487 H   0  0  0  0  0  0  0  0  0  0  0  0  # atno 10763 bound_to 10752
  153.7100  135.6964  153.5044 H   0  0  0  0  0  0  0  0  0  0  0  0  # atno 10764 bound_to 10752
  153.2459  135.4369  155.0700 H   0  0  0  0  0  0  0  0  0  0  0  0  # atno 10765 bound_to 10752
  139.9624  134.7038  156.0617 H   0  0  0  0  0  0  0  0  0  0  0  0  # atno 11005 bound_to 11000
  146.0672  140.7908  142.9706 LP  0  0  0  0  0  0  0  0  0  0  0  0  # atno 17320 bound_to 7965
  144.6930  140.3286  143.7220 LP  0  0  0  0  0  0  0  0  0  0  0  0  # atno 17321 bound_to 7965
  140.6775  143.2311  151.5470 LP  0  0  0  0  0  0  0  0  0  0  0  0  # atno 17342 bound_to 10162
  139.5484  144.2460  152.1485 LP  0  0  0  0  0  0  0  0  0  0  0  0  # atno 17343 bound_to 10162
  156.1676  130.6416  151.0797 LP  0  0  0  0  0  0  0  0  0  0  0  0  # atno 17370 bound_to 10713
  157.6944  131.0799  150.7012 LP  0  0  0  0  0  0  0  0  0  0  0  0  # atno 17371 bound_to 10713
  141.1302  133.6588  156.3444 LP  0  0  0  0  0  0  0  0  0  0  0  0  # atno 17394 bound_to 11000
  140.5471  134.6064  157.5397 LP  0  0  0  0  0  0  0  0  0  0  0  0  # atno 17395 bound_to 11000

$$$$
