AV-unprocessed.smi:2629|AV-procd|sdf|10244|dock5
  -GOLD-   2272014253D 1   1.00000     0.00000
 Structure written by MMmdl.
 24 25  0  0  0  0  0  0  0  0  3 V2000
  152.0933  137.4935  154.3900 O   0  0  0  0  0  0  0  0  0  0  0  0
  151.9507  138.3766  155.2324 C   0  0  0  0  0  0  0  0  0  0  0  0
  150.8639  139.4104  155.0664 N   0  0  0  0  0  0  0  0  0  0  0  0
  150.7327  140.3068  155.9366 N   0  3  0  0  0  0  0  0  0  0  0  0
  151.5417  140.4481  157.1110 C   0  0  0  0  0  0  0  0  0  0  0  0
  151.2987  141.4813  157.9962 N   0  0  0  0  0  0  0  0  0  0  0  0
  150.7577  142.7630  157.5727 C   0  0  0  0  0  0  0  0  0  0  0  0
  151.8400  143.8516  157.6765 C   0  0  0  0  0  0  0  0  0  0  0  0
  152.3562  143.8861  159.0044 O   0  0  0  0  0  0  0  0  0  0  0  0
  152.9493  142.6475  159.3853 C   0  0  0  0  0  0  0  0  0  0  0  0
  151.8939  141.5298  159.3222 C   0  0  0  0  0  0  0  0  0  0  0  0
  152.5438  139.5031  157.2747 C   0  0  0  0  0  0  0  0  0  0  0  0
  153.4237  139.2989  158.1395 O   0  5  0  0  0  0  0  0  0  0  0  0
  152.7182  138.4944  156.3299 N   0  0  0  0  0  0  0  0  0  0  0  0
  149.9926  140.9854  155.7932 H   0  0  0  0  0  0  0  0  0  0  0  0
  149.9060  143.0143  158.2057 H   0  0  0  0  0  0  0  0  0  0  0  0
  150.3853  142.6933  156.5498 H   0  0  0  0  0  0  0  0  0  0  0  0
  152.6473  143.6649  156.9664 H   0  0  0  0  0  0  0  0  0  0  0  0
  151.4188  144.8269  157.4322 H   0  0  0  0  0  0  0  0  0  0  0  0
  153.7938  142.4210  158.7324 H   0  0  0  0  0  0  0  0  0  0  0  0
  153.3431  142.7375  160.3976 H   0  0  0  0  0  0  0  0  0  0  0  0
  152.3450  140.5672  159.5661 H   0  0  0  0  0  0  0  0  0  0  0  0
  151.1080  141.7089  160.0567 H   0  0  0  0  0  0  0  0  0  0  0  0
  153.4610  137.8302  156.4934 H   0  0  0  0  0  0  0  0  0  0  0  0
  1  2  2  0  0  0  0
  2 14  1  0  0  0  0
  2  3  1  0  0  0  0
  3  4  2  0  0  0  0
  4 15  1  0  0  0  0
  4  5  1  0  0  0  0
  5 12  2  0  0  0  0
  5  6  1  0  0  0  0
  6 11  1  0  0  0  0
  6  7  1  0  0  0  0
  7  8  1  0  0  0  0
  7 16  1  0  0  0  0
  7 17  1  0  0  0  0
  8  9  1  0  0  0  0
  8 18  1  0  0  0  0
  8 19  1  0  0  0  0
  9 10  1  0  0  0  0
 10 11  1  0  0  0  0
 10 20  1  0  0  0  0
 10 21  1  0  0  0  0
 11 22  1  0  0  0  0
 11 23  1  0  0  0  0
 12 13  1  0  0  0  0
 12 14  1  0  0  0  0
 14 24  1  0  0  0  0
M  CHG  1   4   1
M  CHG  1  13  -1
M  END
> <s_m_source_file>
AV-unprocessed.smi

> <i_m_source_file_index>
2629

> <i_lp_mmshare_version>
43012

> <i_f3d_flags>
0

> <s_epik_input>
Tz1jMVtuSF1uYyhjKD1PKVtuSF0xKU4yW0NIMl1bQ0gyXU9bQ0gyXVtDSDJdMg==

> <s_epik_cmdline>
J2VwaWtfcHl0aG9uJywgJy1waCcsICc3LjAnLCAnLXRuJywgJzgnLCAnLW1hJywgJzIwMCcsICctbWV0YWxfYmluZGluZycsICctaW1hZScsICc8aW5maWxlLm1hZT4nLCAnLW9tYWUnLCAnPG91dGZpbGUubWFlPic=

> <r_lp_tautomer_probability>
1

> <r_epik_Ionization_Penalty>
6.1095

> <r_epik_Ionization_Penalty_Charging>
6.1095

> <r_epik_Ionization_Penalty_Neutral>
3.71443e-10

> <r_epik_State_Penalty>
-0

> <r_epik_Charging_Adjusted_Penalty>
6.1095

> <i_epik_Tot_Q>
0

> <i_epik_Tot_abs_Q>
2

> <r_epik_Metal_State_Penalty>
6.62767

> <b_epik_Metal_Only>
0

> <s_lp_Force_Field>
OPLS_2005

> <r_lp_Energy>
17.9127

> <b_lp_Chiralities_Consistent>
1

> <s_lp_Variant>
AV-unprocessed.smi:2629-1

> <Gold.Version>
5.8.1

> <Gold.Id.Protein>
6NUR|6NUR_protein|mol2

> <Gold.PLP.Fitness>
33.8522

> <Gold.PLP.PLP>
-23.9937

> <Gold.PLP.part.hbond>
-2.9981

> <Gold.PLP.part.metal>
0.0000

> <Gold.PLP.part.buried>
-3.1335

> <Gold.PLP.part.nonpolar>
-18.5963

> <Gold.PLP.part.repulsive>
0.5249

> <Gold.PLP.ligand.clash>
0.0000

> <Gold.PLP.ligand.torsion>
0.2262

> <Gold.PLP.Chemscore.Hbond>
3.4130

> <Gold.PLP.Chemscore.CHOScore>
0.0000

> <Gold.PLP.Chemscore.Metal>
0.0000

> <Gold.Chemscore.Hbonds>
donor molecule, donor type, donor heavy atom, donor atom, acceptor molecule, acceptor atom, score
      P1  H  7989  7998       L1     3  0.25
      P1  H  7997  8008       L1    13  1.70
      P1  H 10752 10763       L1     1  0.80

> <Gold.PLP.Chemscore.Internal.Correction>
0.0720

> <Gold.Rescore>
     Score         DG    S(hbond)    S(metal)    S(lipo)     H(rot)  DE(clash)    DE(int)     intcor
     14.46     -15.96       1.78        0.00      38.74       0.00       0.07       1.44       ----

> <Gold.Chemscore.Fitness>
14.4571

> <Gold.Chemscore.DG>
-15.9635

> <Gold.Chemscore.ZeroCoef>
-5.4800

> <Gold.Chemscore.Hbond>
1.7817

> <Gold.Chemscore.Metal>
0.0000

> <Gold.Chemscore.Lipo>
38.7395

> <Gold.Chemscore.Internal_Hbond>
0.0000

> <Gold.Chemscore.DEClash>
0.0670

> <Gold.Chemscore.DEInternal>
1.4394

> <Gold.Chemscore.Rot>
0.0000

> <Gold.Chemscore.Internal.Correction>
   9.000000E+99

> <Gold.Chemscore.Hbonds>
donor molecule, donor type, donor heavy atom, donor atom, acceptor molecule, acceptor atom, score
      P1  H  7989  7998       L1     3  0.01
      P1  H  7997  8008       L1    13  0.14
      P1  H 10752 10763       L1     1  0.74

> <Gold.Chemscore.Hbond.Weighted>
-5.9510

> <Gold.Chemscore.Metal.Weighted>
-0.0000

> <Gold.Chemscore.Lipo.Weighted>
-4.5325

> <Gold.Chemscore.Internal_Hbond.Weighted>
0.0000

> <Gold.Chemscore.DEClash.Weighted>
0.0670

> <Gold.Chemscore.DEInternal.Weighted>
1.4394

> <Gold.Chemscore.Rot.Weighted>
0.0000

> <Gold.Chemscore.Internal.Correction.Weighted>
   9.000000E+99

> <Gold.Protein.RotatedTorsions>
[ 6907 6896 6895 6894 ] final   31.14 input  -60.11 | X-H torsion
[ 7974 7965 7964 7962 ] final   87.10 input  175.53 | X-H torsion
[ 8008 7997 7996 7995 ] final -104.24 input   59.86 | X-H torsion
[ 10167 10162 10161 10158 ] final   24.80 input  -65.29 | X-H torsion
[ 10718 10713 10712 10709 ] final -157.99 input   66.30 | X-H torsion
[ 10763 10752 10751 10750 ] final   28.92 input  -60.55 | X-H torsion
[ 11005 11000 10999 10996 ] final   56.88 input  -57.11 | X-H torsion

> <Gold.Protein.ActiveResidues>
 VAL166  LYS551  ARG553  GLY616  TRP617  ASP618  TYR619  PRO620  LYS621  CYS622 
 ASP623  PHE694  ASN695  SER759  ASP760  ASP761  ALA762  ILE779  LEU786  VAL792 
 PHE793  MET794  SER795  GLU796  ALA797  LYS798  CYS799  TRP800  GLU811  SER814 

> <Gold.Protein.RotatedAtoms>
  152.0560  134.9624  160.0574 H   0  0  0  0  0  0  0  0  0  0  0  0  # atno 6907 bound_to 6896
  152.1006  133.4243  159.4593 H   0  0  0  0  0  0  0  0  0  0  0  0  # atno 6908 bound_to 6896
  150.6839  134.2684  159.4621 H   0  0  0  0  0  0  0  0  0  0  0  0  # atno 6909 bound_to 6896
  145.5635  139.2306  143.2446 H   0  0  0  0  0  0  0  0  0  0  0  0  # atno 7974 bound_to 7965
  154.8824  140.0419  157.1790 H   0  0  0  0  0  0  0  0  0  0  0  0  # atno 8008 bound_to 7997
  154.8625  140.2946  155.5509 H   0  0  0  0  0  0  0  0  0  0  0  0  # atno 8009 bound_to 7997
  156.2998  140.2444  156.3601 H   0  0  0  0  0  0  0  0  0  0  0  0  # atno 8010 bound_to 7997
  140.5159  144.0084  150.6393 H   0  0  0  0  0  0  0  0  0  0  0  0  # atno 10167 bound_to 10162
  156.5480  130.8592  151.2770 H   0  0  0  0  0  0  0  0  0  0  0  0  # atno 10718 bound_to 10713
  153.0462  135.6501  154.0811 H   0  0  0  0  0  0  0  0  0  0  0  0  # atno 10763 bound_to 10752
  154.0509  135.2895  155.3342 H   0  0  0  0  0  0  0  0  0  0  0  0  # atno 10764 bound_to 10752
  154.6721  135.5352  153.8217 H   0  0  0  0  0  0  0  0  0  0  0  0  # atno 10765 bound_to 10752
  140.0495  134.5757  155.9281 H   0  0  0  0  0  0  0  0  0  0  0  0  # atno 11005 bound_to 11000
  146.1835  140.6460  142.9178 LP  0  0  0  0  0  0  0  0  0  0  0  0  # atno 17320 bound_to 7965
  144.7472  140.5097  143.6827 LP  0  0  0  0  0  0  0  0  0  0  0  0  # atno 17321 bound_to 7965
  140.3419  143.3014  152.0579 LP  0  0  0  0  0  0  0  0  0  0  0  0  # atno 17342 bound_to 10162
  139.4909  144.6436  151.6825 LP  0  0  0  0  0  0  0  0  0  0  0  0  # atno 17343 bound_to 10162
  157.7393  130.9829  150.2305 LP  0  0  0  0  0  0  0  0  0  0  0  0  # atno 17370 bound_to 10713
  156.2911  130.3746  149.7841 LP  0  0  0  0  0  0  0  0  0  0  0  0  # atno 17371 bound_to 10713
  141.1923  133.6575  156.5497 LP  0  0  0  0  0  0  0  0  0  0  0  0  # atno 17394 bound_to 11000
  140.3940  134.7415  157.4739 LP  0  0  0  0  0  0  0  0  0  0  0  0  # atno 17395 bound_to 11000

$$$$
