AV-unprocessed.smi:2825|AV-procd|sdf|10891|dock7
  -GOLD-   2272015333D 1   1.00000     0.00000
 Structure written by MMmdl.
 49 50  0  0  0  0  0  0  0  0  2 V2000
  148.8525  132.3069  153.5219 C   0  0  0  0  0  0  0  0  0  0  0  0
  149.0987  133.4131  154.5530 C   0  0  0  0  0  0  0  0  0  0  0  0
  150.5003  133.3329  155.1746 C   0  0  0  0  0  0  0  0  0  0  0  0
  150.7601  134.6457  156.4464 S   0  0  0  0  0  0  0  0  0  0  0  0
  149.7481  134.4966  157.5032 O   0  0  0  0  0  0  0  0  0  0  0  0
  152.1890  134.6742  156.7960 O   0  0  0  0  0  0  0  0  0  0  0  0
  150.3901  136.1019  155.5764 N   0  0  0  0  0  0  0  0  0  0  0  0
  149.0021  136.5765  155.5726 C   0  0  0  0  0  0  0  0  0  0  0  0
  151.4038  137.1655  155.5147 C   0  0  0  0  0  0  0  0  0  0  0  0
  150.9739  138.3934  156.3491 C   0  0  1  0  0  0  0  0  0  0  0  0
  150.8155  137.9862  157.6923 O   0  0  0  0  0  0  0  0  0  0  0  0
  151.9997  139.5446  156.3404 C   0  0  0  0  0  0  0  0  0  0  0  0
  151.3765  140.8566  156.5660 N   0  0  0  0  0  0  0  0  0  0  0  0
  150.4845  141.5302  155.7900 C   0  0  0  0  0  0  0  0  0  0  0  0
  150.2110  142.7121  156.4075 N   0  3  0  0  0  0  0  0  0  0  0  0
  150.9344  142.7932  157.5987 C   0  0  0  0  0  0  0  0  0  0  0  0
  150.9903  143.7943  158.5609 C   0  0  0  0  0  0  0  0  0  0  0  0
  151.8367  143.5756  159.6709 C   0  0  0  0  0  0  0  0  0  0  0  0
  151.9229  144.6514  160.7404 C   0  0  0  0  0  0  0  0  0  0  0  0
  152.5926  142.3806  159.7880 C   0  0  0  0  0  0  0  0  0  0  0  0
  153.5031  142.1572  160.9835 C   0  0  0  0  0  0  0  0  0  0  0  0
  152.5196  141.3731  158.7998 C   0  0  0  0  0  0  0  0  0  0  0  0
  151.6816  141.6040  157.7107 C   0  0  0  0  0  0  0  0  0  0  0  0
  147.8515  132.3868  153.0972 H   0  0  0  0  0  0  0  0  0  0  0  0
  148.9431  131.3195  153.9756 H   0  0  0  0  0  0  0  0  0  0  0  0
  149.5675  132.3670  152.7010 H   0  0  0  0  0  0  0  0  0  0  0  0
  148.9587  134.3838  154.0769 H   0  0  0  0  0  0  0  0  0  0  0  0
  148.3465  133.3412  155.3388 H   0  0  0  0  0  0  0  0  0  0  0  0
  150.6808  132.3594  155.6288 H   0  0  0  0  0  0  0  0  0  0  0  0
  151.2564  133.4738  154.4021 H   0  0  0  0  0  0  0  0  0  0  0  0
  148.8372  137.2698  154.7471 H   0  0  0  0  0  0  0  0  0  0  0  0
  148.7761  137.0851  156.5103 H   0  0  0  0  0  0  0  0  0  0  0  0
  148.3091  135.7442  155.4575 H   0  0  0  0  0  0  0  0  0  0  0  0
  152.3793  136.8010  155.8414 H   0  0  0  0  0  0  0  0  0  0  0  0
  151.5289  137.4261  154.4653 H   0  0  0  0  0  0  0  0  0  0  0  0
  150.0163  138.7830  156.0037 H   0  0  0  0  0  0  0  0  0  0  0  0
  150.0677  138.4338  158.0575 H   0  0  0  0  0  0  0  0  0  0  0  0
  152.7219  139.4021  157.1457 H   0  0  0  0  0  0  0  0  0  0  0  0
  152.5755  139.5601  155.4154 H   0  0  0  0  0  0  0  0  0  0  0  0
  150.0778  141.1929  154.8473 H   0  0  0  0  0  0  0  0  0  0  0  0
  150.4133  144.7026  158.4637 H   0  0  0  0  0  0  0  0  0  0  0  0
  152.9418  145.0309  160.8201 H   0  0  0  0  0  0  0  0  0  0  0  0
  151.6237  144.2528  161.7102 H   0  0  0  0  0  0  0  0  0  0  0  0
  151.2701  145.4943  160.5118 H   0  0  0  0  0  0  0  0  0  0  0  0
  154.0271  141.2035  160.9140 H   0  0  0  0  0  0  0  0  0  0  0  0
  152.9261  142.1532  161.9083 H   0  0  0  0  0  0  0  0  0  0  0  0
  154.2543  142.9449  161.0463 H   0  0  0  0  0  0  0  0  0  0  0  0
  153.1008  140.4678  158.8910 H   0  0  0  0  0  0  0  0  0  0  0  0
  149.5805  143.4119  156.0380 H   0  0  0  0  0  0  0  0  0  0  0  0
  1  2  1  0  0  0  0
  1 24  1  0  0  0  0
  1 25  1  0  0  0  0
  1 26  1  0  0  0  0
  2  3  1  0  0  0  0
  2 27  1  0  0  0  0
  2 28  1  0  0  0  0
  3  4  1  0  0  0  0
  3 29  1  0  0  0  0
  3 30  1  0  0  0  0
  4  5  2  0  0  0  0
  4  6  2  0  0  0  0
  4  7  1  0  0  0  0
  7  8  1  0  0  0  0
  7  9  1  0  0  0  0
  8 31  1  0  0  0  0
  8 32  1  0  0  0  0
  8 33  1  0  0  0  0
  9 10  1  0  0  0  0
  9 34  1  0  0  0  0
  9 35  1  0  0  0  0
 10 11  1  0  0  0  0
 10 12  1  0  0  0  0
 10 36  1  0  0  0  0
 11 37  1  0  0  0  0
 12 13  1  0  0  0  0
 12 38  1  0  0  0  0
 12 39  1  0  0  0  0
 13 23  1  0  0  0  0
 13 14  1  0  0  0  0
 14 15  2  0  0  0  0
 14 40  1  0  0  0  0
 15 16  1  0  0  0  0
 15 49  1  0  0  0  0
 16 23  2  0  0  0  0
 16 17  1  0  0  0  0
 17 18  2  0  0  0  0
 17 41  1  0  0  0  0
 18 19  1  0  0  0  0
 18 20  1  0  0  0  0
 19 42  1  0  0  0  0
 19 43  1  0  0  0  0
 19 44  1  0  0  0  0
 20 21  1  0  0  0  0
 20 22  2  0  0  0  0
 21 45  1  0  0  0  0
 21 46  1  0  0  0  0
 21 47  1  0  0  0  0
 22 23  1  0  0  0  0
 22 48  1  0  0  0  0
M  CHG  1  15   1
M  END
> <s_m_source_file>
AV-unprocessed.smi

> <i_m_source_file_index>
2825

> <i_lp_mmshare_version>
43012

> <i_f3d_flags>
0

> <s_epik_input>
W0NIM11bQ0gyXVtDSDJdUyg9TykoPU8pTihbQ0gzXSlbQ0gyXVtDQEhdKFtPSF0pW0NIMl1uKFtjSF1uMSljKGMxMilbY0hdYyhbQ0gzXSljKFtjSF0yKVtDSDNd

> <s_epik_cmdline>
J2VwaWtfcHl0aG9uJywgJy1waCcsICc3LjAnLCAnLXRuJywgJzgnLCAnLW1hJywgJzIwMCcsICctbWV0YWxfYmluZGluZycsICctaW1hZScsICc8aW5maWxlLm1hZT4nLCAnLW9tYWUnLCAnPG91dGZpbGUubWFlPic=

> <r_epik_Ionization_Penalty>
1.0773

> <r_epik_Ionization_Penalty_Charging>
1.0773

> <r_epik_Ionization_Penalty_Neutral>
1.44651e-06

> <r_epik_State_Penalty>
1.13242

> <r_epik_Charging_Adjusted_Penalty>
2.20972

> <i_epik_Tot_Q>
1

> <i_epik_Tot_abs_Q>
1

> <r_epik_Metal_State_Penalty>
5.13045

> <b_epik_Metal_Only>
0

> <s_lp_Force_Field>
OPLS_2005

> <r_lp_Energy>
14.1853

> <b_lp_Chiralities_Consistent>
1

> <s_lp_Variant>
AV-unprocessed.smi:2825-4

> <Gold.Version>
5.8.1

> <Gold.Id.Protein>
6NUR|6NUR_protein|mol2

> <Gold.PLP.Fitness>
57.4809

> <Gold.PLP.PLP>
-46.5248

> <Gold.PLP.part.hbond>
-3.3268

> <Gold.PLP.part.metal>
0.0000

> <Gold.PLP.part.buried>
-6.1827

> <Gold.PLP.part.nonpolar>
-37.0847

> <Gold.PLP.part.repulsive>
0.0825

> <Gold.PLP.ligand.clash>
0.0000

> <Gold.PLP.ligand.torsion>
1.6579

> <Gold.PLP.Chemscore.Hbond>
3.8964

> <Gold.PLP.Chemscore.CHOScore>
0.0000

> <Gold.PLP.Chemscore.Metal>
0.0000

> <Gold.Chemscore.Hbonds>
donor molecule, donor type, donor heavy atom, donor atom, acceptor molecule, acceptor atom, score
      L1  H    15    49       P1  8028  1.98
      P1  H  6896  6908       L1     5  0.84
      P1  H 10752 10764       L1     6  0.87

> <Gold.PLP.Chemscore.Internal.Correction>
2.5827

> <Gold.Rescore>
     Score         DG    S(hbond)    S(metal)    S(lipo)     H(rot)  DE(clash)    DE(int)     intcor
     19.91     -21.64       2.73        0.00     115.25       2.51       0.10       1.64       ----

> <Gold.Chemscore.Fitness>
19.9081

> <Gold.Chemscore.DG>
-21.6422

> <Gold.Chemscore.ZeroCoef>
-5.4800

> <Gold.Chemscore.Hbond>
2.7262

> <Gold.Chemscore.Metal>
0.0000

> <Gold.Chemscore.Lipo>
115.2460

> <Gold.Chemscore.Internal_Hbond>
0.0000

> <Gold.Chemscore.DEClash>
0.0988

> <Gold.Chemscore.DEInternal>
1.6352

> <Gold.Chemscore.Rot>
2.5106

> <Gold.Chemscore.Internal.Correction>
   9.000000E+99

> <Gold.Chemscore.Hbonds>
donor molecule, donor type, donor heavy atom, donor atom, acceptor molecule, acceptor atom, score
      L1  H    15    49       P1  8028  0.92
      P1  H  6896  6908       L1     5  0.59
      P1  H 10752 10764       L1     6  0.69

> <Gold.Chemscore.Hbond.Weighted>
-9.1054

> <Gold.Chemscore.Metal.Weighted>
-0.0000

> <Gold.Chemscore.Lipo.Weighted>
-13.4838

> <Gold.Chemscore.Internal_Hbond.Weighted>
0.0000

> <Gold.Chemscore.DEClash.Weighted>
0.0988

> <Gold.Chemscore.DEInternal.Weighted>
1.6352

> <Gold.Chemscore.Rot.Weighted>
6.4271

> <Gold.Chemscore.Internal.Correction.Weighted>
   9.000000E+99

> <Gold.Protein.RotatedTorsions>
[ 6907 6896 6895 6894 ] final  139.19 input  -60.11 | X-H torsion
[ 7974 7965 7964 7962 ] final -134.37 input  175.53 | X-H torsion
[ 8008 7997 7996 7995 ] final  -19.85 input   59.86 | X-H torsion
[ 10167 10162 10161 10158 ] final  -94.77 input  -65.29 | X-H torsion
[ 10718 10713 10712 10709 ] final -105.10 input   66.30 | X-H torsion
[ 10763 10752 10751 10750 ] final  -11.44 input  -60.55 | X-H torsion
[ 11005 11000 10999 10996 ] final -143.67 input  -57.11 | X-H torsion

> <Gold.Protein.ActiveResidues>
 VAL166  LYS551  ARG553  GLY616  TRP617  ASP618  TYR619  PRO620  LYS621  CYS622 
 ASP623  PHE694  ASN695  SER759  ASP760  ASP761  ALA762  ILE779  LEU786  VAL792 
 PHE793  MET794  SER795  GLU796  ALA797  LYS798  CYS799  TRP800  GLU811  SER814 

> <Gold.Protein.RotatedAtoms>
  152.2578  133.5271  159.5363 H   0  0  0  0  0  0  0  0  0  0  0  0  # atno 6907 bound_to 6896
  150.7115  134.0871  159.3927 H   0  0  0  0  0  0  0  0  0  0  0  0  # atno 6908 bound_to 6896
  151.8790  135.0461  160.0537 H   0  0  0  0  0  0  0  0  0  0  0  0  # atno 6909 bound_to 6896
  144.9109  140.6894  143.5025 H   0  0  0  0  0  0  0  0  0  0  0  0  # atno 7974 bound_to 7965
  154.4809  140.2078  155.9766 H   0  0  0  0  0  0  0  0  0  0  0  0  # atno 8008 bound_to 7997
  156.1163  140.3221  155.8114 H   0  0  0  0  0  0  0  0  0  0  0  0  # atno 8009 bound_to 7997
  155.4546  140.0519  157.2988 H   0  0  0  0  0  0  0  0  0  0  0  0  # atno 8010 bound_to 7997
  140.3110  143.3105  152.0148 H   0  0  0  0  0  0  0  0  0  0  0  0  # atno 10167 bound_to 10162
  156.0332  130.5547  150.7491 H   0  0  0  0  0  0  0  0  0  0  0  0  # atno 10718 bound_to 10713
  153.4838  135.7017  153.5923 H   0  0  0  0  0  0  0  0  0  0  0  0  # atno 10763 bound_to 10752
  153.4125  135.3845  155.2059 H   0  0  0  0  0  0  0  0  0  0  0  0  # atno 10764 bound_to 10752
  154.8720  135.3908  154.4290 H   0  0  0  0  0  0  0  0  0  0  0  0  # atno 10765 bound_to 10752
  140.8101  134.2754  157.4944 H   0  0  0  0  0  0  0  0  0  0  0  0  # atno 11005 bound_to 11000
  145.3456  139.1720  143.4462 LP  0  0  0  0  0  0  0  0  0  0  0  0  # atno 17320 bound_to 7965
  146.3158  140.3502  142.8655 LP  0  0  0  0  0  0  0  0  0  0  0  0  # atno 17321 bound_to 7965
  139.4894  144.6384  151.6928 LP  0  0  0  0  0  0  0  0  0  0  0  0  # atno 17342 bound_to 10162
  140.5568  144.0335  150.6151 LP  0  0  0  0  0  0  0  0  0  0  0  0  # atno 17343 bound_to 10162
  157.5040  131.0920  151.0280 LP  0  0  0  0  0  0  0  0  0  0  0  0  # atno 17370 bound_to 10713
  157.0653  130.5842  149.5393 LP  0  0  0  0  0  0  0  0  0  0  0  0  # atno 17371 bound_to 10713
  139.8715  134.9478  156.3979 LP  0  0  0  0  0  0  0  0  0  0  0  0  # atno 17394 bound_to 11000
  140.9206  133.7647  155.9902 LP  0  0  0  0  0  0  0  0  0  0  0  0  # atno 17395 bound_to 11000

$$$$
