AV-unprocessed.smi:1259|AV-procd|sdf|5292|dock10
  -GOLD-   22720 4413D 1   1.00000     0.00000
 Structure written by MMmdl.
 34 35  0  0  0  0  0  0  0  0  1 V2000
  146.8623  138.7304  152.3531 C   0  0  0  0  0  0  0  0  0  0  0  0
  147.2122  139.9356  153.1752 C   0  0  0  0  0  0  0  0  0  0  0  0
  148.3319  140.1139  154.0388 C   0  0  0  0  0  0  0  0  0  0  0  0
  148.1452  141.3826  154.5160 C   0  0  0  0  0  0  0  0  0  0  0  0
  148.9147  142.0916  155.3840 N   0  0  0  0  0  0  0  0  0  0  0  0
  149.6647  141.6408  156.4047 C   0  0  0  0  0  0  0  0  0  0  0  0
  149.7910  140.4604  156.7307 O   0  0  0  0  0  0  0  0  0  0  0  0
  150.2718  142.6536  157.0404 N   0  0  0  0  0  0  0  0  0  0  0  0
  151.1472  142.5214  158.2007 C   0  0  1  0  0  0  0  0  0  0  0  0
  152.1022  141.3434  157.9635 C   0  0  0  0  0  0  0  0  0  0  0  0
  151.9214  143.7895  158.5207 C   0  0  0  0  0  0  0  0  0  0  0  0
  152.8112  143.8703  159.7384 C   0  0  0  0  0  0  0  0  0  0  0  0
  151.5346  144.6770  159.6804 C   0  0  0  0  0  0  0  0  0  0  0  0
  146.9940  141.9003  153.9645 N   0  0  0  0  0  0  0  0  0  0  0  0
  146.3827  143.2012  154.1552 C   0  0  0  0  0  0  0  0  0  0  0  0
  146.4212  141.0020  153.1346 N   0  0  0  0  0  0  0  0  0  0  0  0
  147.5687  137.9178  152.5246 H   0  0  0  0  0  0  0  0  0  0  0  0
  146.8780  138.9642  151.2884 H   0  0  0  0  0  0  0  0  0  0  0  0
  145.8665  138.3616  152.6001 H   0  0  0  0  0  0  0  0  0  0  0  0
  149.1267  139.4159  154.2548 H   0  0  0  0  0  0  0  0  0  0  0  0
  148.9106  143.0911  155.2437 H   0  0  0  0  0  0  0  0  0  0  0  0
  150.1107  143.5905  156.7010 H   0  0  0  0  0  0  0  0  0  0  0  0
  150.5355  142.2707  159.0694 H   0  0  0  0  0  0  0  0  0  0  0  0
  152.7406  141.1747  158.8312 H   0  0  0  0  0  0  0  0  0  0  0  0
  152.7500  141.5233  157.1048 H   0  0  0  0  0  0  0  0  0  0  0  0
  151.5511  140.4206  157.7789 H   0  0  0  0  0  0  0  0  0  0  0  0
  152.2967  144.3020  157.6365 H   0  0  0  0  0  0  0  0  0  0  0  0
  152.8323  143.0142  160.4096 H   0  0  0  0  0  0  0  0  0  0  0  0
  153.7518  144.4079  159.6378 H   0  0  0  0  0  0  0  0  0  0  0  0
  151.6228  145.7523  159.5394 H   0  0  0  0  0  0  0  0  0  0  0  0
  150.7114  144.3565  160.3159 H   0  0  0  0  0  0  0  0  0  0  0  0
  146.9273  143.9482  153.5774 H   0  0  0  0  0  0  0  0  0  0  0  0
  146.4123  143.4737  155.2103 H   0  0  0  0  0  0  0  0  0  0  0  0
  145.3424  143.1859  153.8275 H   0  0  0  0  0  0  0  0  0  0  0  0
  1  2  1  0  0  0  0
  1 17  1  0  0  0  0
  1 18  1  0  0  0  0
  1 19  1  0  0  0  0
  2 16  2  0  0  0  0
  2  3  1  0  0  0  0
  3  4  2  0  0  0  0
  3 20  1  0  0  0  0
  4  5  1  0  0  0  0
  4 14  1  0  0  0  0
  5  6  1  0  0  0  0
  5 21  1  0  0  0  0
  6  7  2  0  0  0  0
  6  8  1  0  0  0  0
  8  9  1  0  0  0  0
  8 22  1  0  0  0  0
  9 10  1  0  0  0  0
  9 11  1  0  0  0  0
  9 23  1  0  0  0  0
 10 24  1  0  0  0  0
 10 25  1  0  0  0  0
 10 26  1  0  0  0  0
 11 13  1  0  0  0  0
 11 12  1  0  0  0  0
 11 27  1  0  0  0  0
 12 13  1  0  0  0  0
 12 28  1  0  0  0  0
 12 29  1  0  0  0  0
 13 30  1  0  0  0  0
 13 31  1  0  0  0  0
 14 15  1  0  0  0  0
 14 16  1  0  0  0  0
 15 32  1  0  0  0  0
 15 33  1  0  0  0  0
 15 34  1  0  0  0  0
M  END
> <s_m_source_file>
AV-unprocessed.smi

> <i_m_source_file_index>
1259

> <i_lp_mmshare_version>
43012

> <i_f3d_flags>
0

> <s_epik_input>
W0NIM11jMVtjSF1jKG4objEpW0NIM10pW05IXUMoPU8pW05IXVtDQEhdKFtDSDNdKVtDSF0yW0NIMl1bQ0gyXTI=

> <s_epik_cmdline>
J2VwaWtfcHl0aG9uJywgJy1waCcsICc3LjAnLCAnLXRuJywgJzgnLCAnLW1hJywgJzIwMCcsICctbWV0YWxfYmluZGluZycsICctaW1hZScsICc8aW5maWxlLm1hZT4nLCAnLW9tYWUnLCAnPG91dGZpbGUubWFlPic=

> <r_lp_tautomer_probability>
1

> <r_epik_Ionization_Penalty>
0.000100032

> <r_epik_Ionization_Penalty_Charging>
0

> <r_epik_Ionization_Penalty_Neutral>
0.000100032

> <r_epik_State_Penalty>
-0

> <r_epik_Charging_Adjusted_Penalty>
0

> <i_epik_Tot_Q>
0

> <i_epik_Tot_abs_Q>
0

> <r_epik_Metal_State_Penalty>
-0

> <b_epik_Metal_Only>
0

> <s_lp_Force_Field>
OPLS_2005

> <r_lp_Energy>
14.2964

> <b_lp_Chiralities_Consistent>
1

> <s_lp_Variant>
AV-unprocessed.smi:1259-2

> <Gold.Version>
5.8.1

> <Gold.Id.Protein>
6NUR|6NUR_protein|mol2

> <Gold.PLP.Fitness>
38.6445

> <Gold.PLP.PLP>
-33.9152

> <Gold.PLP.part.hbond>
-2.0000

> <Gold.PLP.part.metal>
0.0000

> <Gold.PLP.part.buried>
-3.7738

> <Gold.PLP.part.nonpolar>
-30.8501

> <Gold.PLP.part.repulsive>
2.2313

> <Gold.PLP.ligand.clash>
0.0000

> <Gold.PLP.ligand.torsion>
1.0337

> <Gold.PLP.Chemscore.Hbond>
1.9120

> <Gold.PLP.Chemscore.CHOScore>
0.0000

> <Gold.PLP.Chemscore.Metal>
0.0000

> <Gold.Chemscore.Hbonds>
donor molecule, donor type, donor heavy atom, donor atom, acceptor molecule, acceptor atom, score
      L1  H     5    21       P1  8028  1.00
      L1  H     8    22       P1  8028  0.90

> <Gold.PLP.Chemscore.Internal.Correction>
1.0607

> <Gold.Rescore>
     Score         DG    S(hbond)    S(metal)    S(lipo)     H(rot)  DE(clash)    DE(int)     intcor
     14.72     -18.24       1.89        0.00      81.20       1.20       1.20       2.31       ----

> <Gold.Chemscore.Fitness>
14.7204

> <Gold.Chemscore.DG>
-18.2357

> <Gold.Chemscore.ZeroCoef>
-5.4800

> <Gold.Chemscore.Hbond>
1.8936

> <Gold.Chemscore.Metal>
0.0000

> <Gold.Chemscore.Lipo>
81.2013

> <Gold.Chemscore.Internal_Hbond>
0.0000

> <Gold.Chemscore.DEClash>
1.2022

> <Gold.Chemscore.DEInternal>
2.3131

> <Gold.Chemscore.Rot>
1.1990

> <Gold.Chemscore.Internal.Correction>
   9.000000E+99

> <Gold.Chemscore.Hbonds>
donor molecule, donor type, donor heavy atom, donor atom, acceptor molecule, acceptor atom, score
      L1  H     5    21       P1  8028  0.99
      L1  H     8    22       P1  8028  0.87

> <Gold.Chemscore.Hbond.Weighted>
-6.3247

> <Gold.Chemscore.Metal.Weighted>
-0.0000

> <Gold.Chemscore.Lipo.Weighted>
-9.5006

> <Gold.Chemscore.Internal_Hbond.Weighted>
0.0000

> <Gold.Chemscore.DEClash.Weighted>
1.2022

> <Gold.Chemscore.DEInternal.Weighted>
2.3131

> <Gold.Chemscore.Rot.Weighted>
3.0695

> <Gold.Chemscore.Internal.Correction.Weighted>
   9.000000E+99

> <Gold.Protein.RotatedTorsions>
[ 6907 6896 6895 6894 ] final  -52.80 input  -60.11 | X-H torsion
[ 7974 7965 7964 7962 ] final   -2.19 input  175.53 | X-H torsion
[ 8008 7997 7996 7995 ] final  -24.81 input   59.86 | X-H torsion
[ 10167 10162 10161 10158 ] final -137.87 input  -65.29 | X-H torsion
[ 10718 10713 10712 10709 ] final  119.03 input   66.30 | X-H torsion
[ 10763 10752 10751 10750 ] final   39.51 input  -60.55 | X-H torsion
[ 11005 11000 10999 10996 ] final -171.54 input  -57.11 | X-H torsion

> <Gold.Protein.ActiveResidues>
 VAL166  LYS551  ARG553  GLY616  TRP617  ASP618  TYR619  PRO620  LYS621  CYS622 
 ASP623  PHE694  ASN695  SER759  ASP760  ASP761  ALA762  ILE779  LEU786  VAL792 
 PHE793  MET794  SER795  GLU796  ALA797  LYS798  CYS799  TRP800  GLU811  SER814 

> <Gold.Protein.RotatedAtoms>
  150.8484  134.7801  159.6988 H   0  0  0  0  0  0  0  0  0  0  0  0  # atno 6907 bound_to 6896
  152.4555  134.5297  159.9817 H   0  0  0  0  0  0  0  0  0  0  0  0  # atno 6908 bound_to 6896
  151.5422  133.3393  159.2973 H   0  0  0  0  0  0  0  0  0  0  0  0  # atno 6909 bound_to 6896
  146.2407  140.1534  142.8333 H   0  0  0  0  0  0  0  0  0  0  0  0  # atno 7974 bound_to 7965
  154.4509  140.1943  156.0522 H   0  0  0  0  0  0  0  0  0  0  0  0  # atno 8008 bound_to 7997
  156.0645  140.3292  155.7474 H   0  0  0  0  0  0  0  0  0  0  0  0  # atno 8009 bound_to 7997
  155.5360  140.0582  157.2870 H   0  0  0  0  0  0  0  0  0  0  0  0  # atno 8010 bound_to 7997
  139.8534  143.7169  152.2656 H   0  0  0  0  0  0  0  0  0  0  0  0  # atno 10167 bound_to 10162
  157.5989  131.1054  150.7839 H   0  0  0  0  0  0  0  0  0  0  0  0  # atno 10718 bound_to 10713
  152.9965  135.6218  154.2476 H   0  0  0  0  0  0  0  0  0  0  0  0  # atno 10763 bound_to 10752
  154.2215  135.2795  155.2924 H   0  0  0  0  0  0  0  0  0  0  0  0  # atno 10764 bound_to 10752
  154.5524  135.5729  153.6992 H   0  0  0  0  0  0  0  0  0  0  0  0  # atno 10765 bound_to 10752
  140.5071  134.5838  157.5007 H   0  0  0  0  0  0  0  0  0  0  0  0  # atno 11005 bound_to 11000
  145.0149  140.8745  143.5202 LP  0  0  0  0  0  0  0  0  0  0  0  0  # atno 17320 bound_to 7965
  145.1573  139.2479  143.5409 LP  0  0  0  0  0  0  0  0  0  0  0  0  # atno 17321 bound_to 7965
  139.7443  144.7551  151.0604 LP  0  0  0  0  0  0  0  0  0  0  0  0  # atno 17342 bound_to 10162
  140.7784  143.4935  150.9862 LP  0  0  0  0  0  0  0  0  0  0  0  0  # atno 17343 bound_to 10162
  156.8243  130.4994  149.5339 LP  0  0  0  0  0  0  0  0  0  0  0  0  # atno 17370 bound_to 10713
  156.1058  130.6003  150.9968 LP  0  0  0  0  0  0  0  0  0  0  0  0  # atno 17371 bound_to 10713
  139.9680  134.7340  156.0099 LP  0  0  0  0  0  0  0  0  0  0  0  0  # atno 17394 bound_to 11000
  141.1405  133.6566  156.3716 LP  0  0  0  0  0  0  0  0  0  0  0  0  # atno 17395 bound_to 11000

$$$$
