AV-unprocessed.smi:1930|AV-procd|sdf|7810|dock5
  -GOLD-   22720 9553D 1   1.00000     0.00000
 Structure written by MMmdl.
 42 43  0  0  0  0  0  0  0  0  2 V2000
  151.5593  138.8772  157.2364 C   0  0  0  0  0  0  0  0  0  0  0  0
  151.6628  139.3105  155.4519 S   0  0  0  0  0  0  0  0  0  0  0  0
  151.0146  140.6164  155.2567 O   0  0  0  0  0  0  0  0  0  0  0  0
  153.0513  139.1117  155.0092 O   0  0  0  0  0  0  0  0  0  0  0  0
  150.6780  138.1048  154.6765 N   0  0  0  0  0  0  0  0  0  0  0  0
  149.2608  138.4114  154.3750 C   0  0  0  0  0  0  0  0  0  0  0  0
  148.3061  137.7023  155.3555 C   0  0  0  0  0  0  0  0  0  0  0  0
  148.6036  136.2636  155.3496 N   0  0  0  0  0  0  0  0  0  0  0  0
  147.8708  135.2862  154.7615 C   0  0  0  0  0  0  0  0  0  0  0  0
  148.0324  134.0880  154.9956 O   0  0  0  0  0  0  0  0  0  0  0  0
  146.9105  135.7276  153.9317 N   0  0  0  0  0  0  0  0  0  0  0  0
  145.9682  134.8835  153.2022 C   0  0  0  0  0  0  0  0  0  0  0  0
  146.6540  133.9480  152.1861 C   0  0  0  0  0  0  0  0  0  0  0  0
  145.7356  133.4846  151.0684 C   0  0  0  0  0  0  0  0  0  0  0  0
  146.1874  132.5548  150.1061 C   0  0  0  0  0  0  0  0  0  0  0  0
  145.3148  132.1464  149.0761 C   0  0  0  0  0  0  0  0  0  0  0  0
  144.0093  132.6772  149.0316 C   0  0  0  0  0  0  0  0  0  0  0  0
  143.6117  133.5643  149.9700 N   0  3  0  0  0  0  0  0  0  0  0  0
  144.4164  133.9795  150.9726 C   0  0  0  0  0  0  0  0  0  0  0  0
  149.9539  136.0295  155.8652 C   0  0  0  0  0  0  0  0  0  0  0  0
  150.9740  136.6720  154.9051 C   0  0  0  0  0  0  0  0  0  0  0  0
  152.1559  139.5856  157.8107 H   0  0  0  0  0  0  0  0  0  0  0  0
  151.9494  137.8733  157.3961 H   0  0  0  0  0  0  0  0  0  0  0  0
  150.5243  138.9328  157.5702 H   0  0  0  0  0  0  0  0  0  0  0  0
  149.0912  139.4876  154.3941 H   0  0  0  0  0  0  0  0  0  0  0  0
  149.0476  138.0846  153.3567 H   0  0  0  0  0  0  0  0  0  0  0  0
  148.4405  138.0914  156.3648 H   0  0  0  0  0  0  0  0  0  0  0  0
  147.2747  137.9401  155.0960 H   0  0  0  0  0  0  0  0  0  0  0  0
  146.8306  136.7244  153.7923 H   0  0  0  0  0  0  0  0  0  0  0  0
  145.4336  134.2853  153.9407 H   0  0  0  0  0  0  0  0  0  0  0  0
  145.2176  135.5003  152.7054 H   0  0  0  0  0  0  0  0  0  0  0  0
  147.5161  134.4523  151.7482 H   0  0  0  0  0  0  0  0  0  0  0  0
  147.0516  133.0727  152.7014 H   0  0  0  0  0  0  0  0  0  0  0  0
  147.1917  132.1598  150.1551 H   0  0  0  0  0  0  0  0  0  0  0  0
  145.6423  131.4355  148.3315 H   0  0  0  0  0  0  0  0  0  0  0  0
  143.2765  132.4208  148.2804 H   0  0  0  0  0  0  0  0  0  0  0  0
  143.9853  134.6936  151.6596 H   0  0  0  0  0  0  0  0  0  0  0  0
  150.0412  136.4595  156.8630 H   0  0  0  0  0  0  0  0  0  0  0  0
  150.1778  134.9686  155.9862 H   0  0  0  0  0  0  0  0  0  0  0  0
  150.9442  136.1579  153.9435 H   0  0  0  0  0  0  0  0  0  0  0  0
  151.9861  136.5473  155.2889 H   0  0  0  0  0  0  0  0  0  0  0  0
  142.6622  133.9346  149.9207 H   0  0  0  0  0  0  0  0  0  0  0  0
  1  2  1  0  0  0  0
  1 22  1  0  0  0  0
  1 23  1  0  0  0  0
  1 24  1  0  0  0  0
  2  3  2  0  0  0  0
  2  4  2  0  0  0  0
  2  5  1  0  0  0  0
  5 21  1  0  0  0  0
  5  6  1  0  0  0  0
  6  7  1  0  0  0  0
  6 25  1  0  0  0  0
  6 26  1  0  0  0  0
  7  8  1  0  0  0  0
  7 27  1  0  0  0  0
  7 28  1  0  0  0  0
  8  9  1  0  0  0  0
  8 20  1  0  0  0  0
  9 10  2  0  0  0  0
  9 11  1  0  0  0  0
 11 12  1  0  0  0  0
 11 29  1  0  0  0  0
 12 13  1  0  0  0  0
 12 30  1  0  0  0  0
 12 31  1  0  0  0  0
 13 14  1  0  0  0  0
 13 32  1  0  0  0  0
 13 33  1  0  0  0  0
 14 19  1  0  0  0  0
 14 15  2  0  0  0  0
 15 16  1  0  0  0  0
 15 34  1  0  0  0  0
 16 17  2  0  0  0  0
 16 35  1  0  0  0  0
 17 18  1  0  0  0  0
 17 36  1  0  0  0  0
 18 19  2  0  0  0  0
 18 42  1  0  0  0  0
 19 37  1  0  0  0  0
 20 21  1  0  0  0  0
 20 38  1  0  0  0  0
 20 39  1  0  0  0  0
 21 40  1  0  0  0  0
 21 41  1  0  0  0  0
M  CHG  1  18   1
M  END
> <s_m_source_file>
AV-unprocessed.smi

> <i_m_source_file_index>
1930

> <i_lp_mmshare_version>
43012

> <i_f3d_flags>
0

> <s_epik_input>
W0NIM11TKD1PKSg9TylOMVtDSDJdW0NIMl1OKFtDSDJdW0NIMl0xKUMoPU8pW05IXVtDSDJdW0NIMl1jMltjSF1bY0hdW2NIXW5bY0hdMg==

> <s_epik_cmdline>
J2VwaWtfcHl0aG9uJywgJy1waCcsICc3LjAnLCAnLXRuJywgJzgnLCAnLW1hJywgJzIwMCcsICctbWV0YWxfYmluZGluZycsICctaW1hZScsICc8aW5maWxlLm1hZT4nLCAnLW9tYWUnLCAnPG91dGZpbGUubWFlPic=

> <r_epik_Ionization_Penalty>
2.21237

> <r_epik_Ionization_Penalty_Charging>
2.21233

> <r_epik_Ionization_Penalty_Neutral>
3.86464e-05

> <r_epik_State_Penalty>
2.35665

> <r_epik_Charging_Adjusted_Penalty>
4.56898

> <i_epik_Tot_Q>
1

> <i_epik_Tot_abs_Q>
1

> <r_epik_Metal_State_Penalty>
2.37073

> <b_epik_Metal_Only>
0

> <s_lp_Force_Field>
OPLS_2005

> <r_lp_Energy>
33.224

> <b_lp_Chiralities_Consistent>
1

> <s_lp_Variant>
AV-unprocessed.smi:1930-2

> <Gold.Version>
5.8.1

> <Gold.Id.Protein>
6NUR|6NUR_protein|mol2

> <Gold.PLP.Fitness>
45.2802

> <Gold.PLP.PLP>
-34.1155

> <Gold.PLP.part.hbond>
-4.0000

> <Gold.PLP.part.metal>
0.0000

> <Gold.PLP.part.buried>
-2.7708

> <Gold.PLP.part.nonpolar>
-26.8384

> <Gold.PLP.part.repulsive>
0.1552

> <Gold.PLP.ligand.clash>
0.0000

> <Gold.PLP.ligand.torsion>
1.3553

> <Gold.PLP.Chemscore.Hbond>
3.9280

> <Gold.PLP.Chemscore.CHOScore>
0.0000

> <Gold.PLP.Chemscore.Metal>
0.0000

> <Gold.Chemscore.Hbonds>
donor molecule, donor type, donor heavy atom, donor atom, acceptor molecule, acceptor atom, score
      L1  H    18    42       P1 10186  2.00
      P1  H  7989  7998       L1     3  0.73
      P1  H  7997  8009       L1     4  1.00

> <Gold.PLP.Chemscore.Internal.Correction>
2.0913

> <Gold.Rescore>
     Score         DG    S(hbond)    S(metal)    S(lipo)     H(rot)  DE(clash)    DE(int)     intcor
     18.62     -19.95       2.74        0.00      77.59       1.47       0.08       1.25       ----

> <Gold.Chemscore.Fitness>
18.6188

> <Gold.Chemscore.DG>
-19.9518

> <Gold.Chemscore.ZeroCoef>
-5.4800

> <Gold.Chemscore.Hbond>
2.7428

> <Gold.Chemscore.Metal>
0.0000

> <Gold.Chemscore.Lipo>
77.5855

> <Gold.Chemscore.Internal_Hbond>
0.0000

> <Gold.Chemscore.DEClash>
0.0820

> <Gold.Chemscore.DEInternal>
1.2510

> <Gold.Chemscore.Rot>
1.4714

> <Gold.Chemscore.Internal.Correction>
   9.000000E+99

> <Gold.Chemscore.Hbonds>
donor molecule, donor type, donor heavy atom, donor atom, acceptor molecule, acceptor atom, score
      L1  H    18    42       P1 10186  1.00
      P1  H  7989  7998       L1     3  0.10
      P1  H  7997  8009       L1     4  0.91

> <Gold.Chemscore.Hbond.Weighted>
-9.1609

> <Gold.Chemscore.Metal.Weighted>
-0.0000

> <Gold.Chemscore.Lipo.Weighted>
-9.0775

> <Gold.Chemscore.Internal_Hbond.Weighted>
0.0000

> <Gold.Chemscore.DEClash.Weighted>
0.0820

> <Gold.Chemscore.DEInternal.Weighted>
1.2510

> <Gold.Chemscore.Rot.Weighted>
3.7667

> <Gold.Chemscore.Internal.Correction.Weighted>
   9.000000E+99

> <Gold.Protein.RotatedTorsions>
[ 6907 6896 6895 6894 ] final -127.00 input  -60.11 | X-H torsion
[ 7974 7965 7964 7962 ] final   58.89 input  175.53 | X-H torsion
[ 8008 7997 7996 7995 ] final -140.31 input   59.86 | X-H torsion
[ 10167 10162 10161 10158 ] final   47.33 input  -65.29 | X-H torsion
[ 10718 10713 10712 10709 ] final  148.39 input   66.30 | X-H torsion
[ 10763 10752 10751 10750 ] final  108.90 input  -60.55 | X-H torsion
[ 11005 11000 10999 10996 ] final  179.92 input  -57.11 | X-H torsion

> <Gold.Protein.ActiveResidues>
 VAL166  LYS551  ARG553  GLY616  TRP617  ASP618  TYR619  PRO620  LYS621  CYS622 
 ASP623  PHE694  ASN695  SER759  ASP760  ASP761  ALA762  ILE779  LEU786  VAL792 
 PHE793  MET794  SER795  GLU796  ALA797  LYS798  CYS799  TRP800  GLU811  SER814 

> <Gold.Protein.RotatedAtoms>
  150.9027  133.7097  159.2874 H   0  0  0  0  0  0  0  0  0  0  0  0  # atno 6907 bound_to 6896
  151.4610  135.1037  159.9734 H   0  0  0  0  0  0  0  0  0  0  0  0  # atno 6908 bound_to 6896
  152.4886  133.8391  159.7198 H   0  0  0  0  0  0  0  0  0  0  0  0  # atno 6909 bound_to 6896
  145.9132  139.3670  143.0523 H   0  0  0  0  0  0  0  0  0  0  0  0  # atno 7974 bound_to 7965
  155.4592  140.0544  157.2993 H   0  0  0  0  0  0  0  0  0  0  0  0  # atno 8008 bound_to 7997
  154.4744  140.2054  155.9869 H   0  0  0  0  0  0  0  0  0  0  0  0  # atno 8009 bound_to 7997
  156.1108  140.3204  155.8075 H   0  0  0  0  0  0  0  0  0  0  0  0  # atno 8010 bound_to 7997
  140.3047  144.2892  150.6212 H   0  0  0  0  0  0  0  0  0  0  0  0  # atno 10167 bound_to 10162
  157.3091  131.0884  151.1330 H   0  0  0  0  0  0  0  0  0  0  0  0  # atno 10718 bound_to 10713
  153.4271  135.3797  155.2147 H   0  0  0  0  0  0  0  0  0  0  0  0  # atno 10763 bound_to 10752
  154.8748  135.3831  154.4313 H   0  0  0  0  0  0  0  0  0  0  0  0  # atno 10764 bound_to 10752
  153.4841  135.7088  153.5984 H   0  0  0  0  0  0  0  0  0  0  0  0  # atno 10765 bound_to 10752
  140.4116  134.6687  157.4617 H   0  0  0  0  0  0  0  0  0  0  0  0  # atno 11005 bound_to 11000
  145.8644  140.9456  143.0683 LP  0  0  0  0  0  0  0  0  0  0  0  0  # atno 17320 bound_to 7965
  144.6745  140.0573  143.7477 LP  0  0  0  0  0  0  0  0  0  0  0  0  # atno 17321 bound_to 7965
  140.5620  143.2191  151.7748 LP  0  0  0  0  0  0  0  0  0  0  0  0  # atno 17342 bound_to 10162
  139.4907  144.4335  151.9845 LP  0  0  0  0  0  0  0  0  0  0  0  0  # atno 17343 bound_to 10162
  157.2659  130.6681  149.5996 LP  0  0  0  0  0  0  0  0  0  0  0  0  # atno 17370 bound_to 10713
  155.9676  130.4494  150.5657 LP  0  0  0  0  0  0  0  0  0  0  0  0  # atno 17371 bound_to 10713
  140.0264  134.6471  155.9167 LP  0  0  0  0  0  0  0  0  0  0  0  0  # atno 17394 bound_to 11000
  141.1819  133.6548  156.5055 LP  0  0  0  0  0  0  0  0  0  0  0  0  # atno 17395 bound_to 11000

$$$$
