AV-unprocessed.smi:2348|AV-procd|sdf|9370|dock1
  -GOLD-   2272012593D 1   1.00000     0.00000
 Structure written by MMmdl.
 28 29  0  0  0  0  0  0  0  0  1 V2000
  148.1471  140.9014  154.7502 C   0  0  0  0  0  0  0  0  0  0  0  0
  149.2770  141.7159  155.0502 O   0  0  0  0  0  0  0  0  0  0  0  0
  150.3518  141.1495  155.6488 C   0  0  0  0  0  0  0  0  0  0  0  0
  150.8449  140.0940  154.9898 N   0  0  0  0  0  0  0  0  0  0  0  0
  151.9052  139.5527  155.5976 C   0  0  0  0  0  0  0  0  0  0  0  0
  152.4673  138.4626  154.9792 N   0  0  0  0  0  0  0  0  0  0  0  0
  152.4826  139.9485  156.7368 N   0  0  0  0  0  0  0  0  0  0  0  0
  151.8791  141.0128  157.2788 C   0  0  0  0  0  0  0  0  0  0  0  0
  152.4287  141.4760  158.4603 N   0  0  0  0  0  0  0  0  0  0  0  0
  151.8972  142.7284  158.9827 C   0  0  0  0  0  0  0  0  0  0  0  0
  152.8051  143.2683  160.1011 C   0  0  0  0  0  0  0  0  0  0  0  0
  152.9534  142.2791  161.1152 O   0  0  0  0  0  0  0  0  0  0  0  0
  153.5523  141.0885  160.6126 C   0  0  0  0  0  0  0  0  0  0  0  0
  152.6631  140.4909  159.5085 C   0  0  0  0  0  0  0  0  0  0  0  0
  150.8128  141.6695  156.7998 N   0  0  0  0  0  0  0  0  0  0  0  0
  147.3786  141.5120  154.2762 H   0  0  0  0  0  0  0  0  0  0  0  0
  147.7148  140.4690  155.6538 H   0  0  0  0  0  0  0  0  0  0  0  0
  148.4054  140.0989  154.0577 H   0  0  0  0  0  0  0  0  0  0  0  0
  152.0819  138.1102  154.1152 H   0  0  0  0  0  0  0  0  0  0  0  0
  153.2764  138.0095  155.3788 H   0  0  0  0  0  0  0  0  0  0  0  0
  151.8185  143.4607  158.1784 H   0  0  0  0  0  0  0  0  0  0  0  0
  150.8897  142.5612  159.3663 H   0  0  0  0  0  0  0  0  0  0  0  0
  153.7827  143.5495  159.7061 H   0  0  0  0  0  0  0  0  0  0  0  0
  152.3686  144.1654  160.5404 H   0  0  0  0  0  0  0  0  0  0  0  0
  154.5522  141.3037  160.2322 H   0  0  0  0  0  0  0  0  0  0  0  0
  153.6684  140.3763  161.4294 H   0  0  0  0  0  0  0  0  0  0  0  0
  151.7073  140.1742  159.9281 H   0  0  0  0  0  0  0  0  0  0  0  0
  153.1382  139.6057  159.0839 H   0  0  0  0  0  0  0  0  0  0  0  0
  1  2  1  0  0  0  0
  1 16  1  0  0  0  0
  1 17  1  0  0  0  0
  1 18  1  0  0  0  0
  2  3  1  0  0  0  0
  3 15  1  0  0  0  0
  3  4  2  0  0  0  0
  4  5  1  0  0  0  0
  5  6  1  0  0  0  0
  5  7  2  0  0  0  0
  6 19  1  0  0  0  0
  6 20  1  0  0  0  0
  7  8  1  0  0  0  0
  8  9  1  0  0  0  0
  8 15  2  0  0  0  0
  9 14  1  0  0  0  0
  9 10  1  0  0  0  0
 10 11  1  0  0  0  0
 10 21  1  0  0  0  0
 10 22  1  0  0  0  0
 11 12  1  0  0  0  0
 11 23  1  0  0  0  0
 11 24  1  0  0  0  0
 12 13  1  0  0  0  0
 13 14  1  0  0  0  0
 13 25  1  0  0  0  0
 13 26  1  0  0  0  0
 14 27  1  0  0  0  0
 14 28  1  0  0  0  0
M  END
> <s_m_source_file>
AV-unprocessed.smi

> <i_m_source_file_index>
2348

> <i_lp_mmshare_version>
43012

> <i_f3d_flags>
0

> <s_epik_input>
W0NIM11PYzFuYyhbTkgyXSluYyhuMSlOMltDSDJdW0NIMl1PW0NIMl1bQ0gyXTI=

> <s_epik_cmdline>
J2VwaWtfcHl0aG9uJywgJy1waCcsICc3LjAnLCAnLXRuJywgJzgnLCAnLW1hJywgJzIwMCcsICctbWV0YWxfYmluZGluZycsICctaW1hZScsICc8aW5maWxlLm1hZT4nLCAnLW9tYWUnLCAnPG91dGZpbGUubWFlPic=

> <r_lp_tautomer_probability>
1

> <r_epik_Ionization_Penalty>
1.97915e-06

> <r_epik_Ionization_Penalty_Charging>
0

> <r_epik_Ionization_Penalty_Neutral>
1.97915e-06

> <r_epik_State_Penalty>
-0

> <r_epik_Charging_Adjusted_Penalty>
0

> <i_epik_Tot_Q>
0

> <i_epik_Tot_abs_Q>
0

> <r_epik_Metal_State_Penalty>
-0

> <b_epik_Metal_Only>
0

> <s_lp_Force_Field>
OPLS_2005

> <r_lp_Energy>
10.0664

> <b_lp_Chiralities_Consistent>
1

> <s_lp_Variant>
AV-unprocessed.smi:2348-1

> <Gold.Version>
5.8.1

> <Gold.Id.Protein>
6NUR|6NUR_protein|mol2

> <Gold.PLP.Fitness>
32.7368

> <Gold.PLP.PLP>
-26.7874

> <Gold.PLP.part.hbond>
-2.0000

> <Gold.PLP.part.metal>
0.0000

> <Gold.PLP.part.buried>
-6.0010

> <Gold.PLP.part.nonpolar>
-18.4959

> <Gold.PLP.part.repulsive>
0.5422

> <Gold.PLP.ligand.clash>
0.0000

> <Gold.PLP.ligand.torsion>
0.1672

> <Gold.PLP.Chemscore.Hbond>
2.0000

> <Gold.PLP.Chemscore.CHOScore>
0.0000

> <Gold.PLP.Chemscore.Metal>
0.0000

> <Gold.Chemscore.Hbonds>
donor molecule, donor type, donor heavy atom, donor atom, acceptor molecule, acceptor atom, score
      P1  H  7989  7998       L1     4  1.00
      P1  H  7997  8009       L1     7  1.00

> <Gold.PLP.Chemscore.Internal.Correction>
0.2839

> <Gold.Rescore>
     Score         DG    S(hbond)    S(metal)    S(lipo)     H(rot)  DE(clash)    DE(int)     intcor
     10.23     -10.41       0.94        0.00      45.61       1.38       0.04       0.14       ----

> <Gold.Chemscore.Fitness>
10.2303

> <Gold.Chemscore.DG>
-10.4101

> <Gold.Chemscore.ZeroCoef>
-5.4800

> <Gold.Chemscore.Hbond>
0.9392

> <Gold.Chemscore.Metal>
0.0000

> <Gold.Chemscore.Lipo>
45.6060

> <Gold.Chemscore.Internal_Hbond>
0.0000

> <Gold.Chemscore.DEClash>
0.0374

> <Gold.Chemscore.DEInternal>
0.1424

> <Gold.Chemscore.Rot>
1.3839

> <Gold.Chemscore.Internal.Correction>
   9.000000E+99

> <Gold.Chemscore.Hbonds>
donor molecule, donor type, donor heavy atom, donor atom, acceptor molecule, acceptor atom, score
      P1  H  7989  7998       L1     4  0.12
      P1  H  7997  8009       L1     7  0.63

> <Gold.Chemscore.Hbond.Weighted>
-3.1369

> <Gold.Chemscore.Metal.Weighted>
-0.0000

> <Gold.Chemscore.Lipo.Weighted>
-5.3359

> <Gold.Chemscore.Internal_Hbond.Weighted>
0.0000

> <Gold.Chemscore.DEClash.Weighted>
0.0374

> <Gold.Chemscore.DEInternal.Weighted>
0.1424

> <Gold.Chemscore.Rot.Weighted>
3.5427

> <Gold.Chemscore.Internal.Correction.Weighted>
   9.000000E+99

> <Gold.Protein.RotatedTorsions>
[ 6907 6896 6895 6894 ] final   66.77 input  -60.11 | X-H torsion
[ 7974 7965 7964 7962 ] final -109.13 input  175.53 | X-H torsion
[ 8008 7997 7996 7995 ] final -169.15 input   59.86 | X-H torsion
[ 10167 10162 10161 10158 ] final  -73.58 input  -65.29 | X-H torsion
[ 10718 10713 10712 10709 ] final -173.70 input   66.30 | X-H torsion
[ 10763 10752 10751 10750 ] final -142.80 input  -60.55 | X-H torsion
[ 11005 11000 10999 10996 ] final  178.90 input  -57.11 | X-H torsion

> <Gold.Protein.ActiveResidues>
 VAL166  LYS551  ARG553  GLY616  TRP617  ASP618  TYR619  PRO620  LYS621  CYS622 
 ASP623  PHE694  ASN695  SER759  ASP760  ASP761  ALA762  ILE779  LEU786  VAL792 
 PHE793  MET794  SER795  GLU796  ALA797  LYS798  CYS799  TRP800  GLU811  SER814 

> <Gold.Protein.RotatedAtoms>
  152.4505  134.5404  159.9837 H   0  0  0  0  0  0  0  0  0  0  0  0  # atno 6907 bound_to 6896
  151.5478  133.3416  159.2955 H   0  0  0  0  0  0  0  0  0  0  0  0  # atno 6908 bound_to 6896
  150.8432  134.7763  159.7012 H   0  0  0  0  0  0  0  0  0  0  0  0  # atno 6909 bound_to 6896
  145.1843  140.8986  143.3461 H   0  0  0  0  0  0  0  0  0  0  0  0  # atno 7974 bound_to 7965
  155.9010  140.1041  157.1350 H   0  0  0  0  0  0  0  0  0  0  0  0  # atno 8008 bound_to 7997
  154.4026  140.1292  156.4501 H   0  0  0  0  0  0  0  0  0  0  0  0  # atno 8009 bound_to 7997
  155.7422  140.3466  155.5112 H   0  0  0  0  0  0  0  0  0  0  0  0  # atno 8010 bound_to 7997
  140.5099  143.2346  151.7611 H   0  0  0  0  0  0  0  0  0  0  0  0  # atno 10167 bound_to 10162
  156.7742  130.9459  151.3120 H   0  0  0  0  0  0  0  0  0  0  0  0  # atno 10718 bound_to 10713
  154.8495  135.3485  154.6086 H   0  0  0  0  0  0  0  0  0  0  0  0  # atno 10763 bound_to 10752
  153.6695  135.6985  153.5156 H   0  0  0  0  0  0  0  0  0  0  0  0  # atno 10764 bound_to 10752
  153.2754  135.4280  155.0984 H   0  0  0  0  0  0  0  0  0  0  0  0  # atno 10765 bound_to 10752
  140.4002  134.6784  157.4557 H   0  0  0  0  0  0  0  0  0  0  0  0  # atno 11005 bound_to 11000
  145.0104  139.3515  143.6123 LP  0  0  0  0  0  0  0  0  0  0  0  0  # atno 17320 bound_to 7965
  146.3447  139.9364  142.8746 LP  0  0  0  0  0  0  0  0  0  0  0  0  # atno 17321 bound_to 7965
  139.4893  144.4405  151.9769 LP  0  0  0  0  0  0  0  0  0  0  0  0  # atno 17342 bound_to 10162
  140.3497  144.3103  150.5951 LP  0  0  0  0  0  0  0  0  0  0  0  0  # atno 17343 bound_to 10162
  157.6677  130.9022  149.9969 LP  0  0  0  0  0  0  0  0  0  0  0  0  # atno 17370 bound_to 10713
  156.1259  130.3644  149.9811 LP  0  0  0  0  0  0  0  0  0  0  0  0  # atno 17371 bound_to 10713
  140.0342  134.6362  155.9066 LP  0  0  0  0  0  0  0  0  0  0  0  0  # atno 17394 bound_to 11000
  141.1859  133.6556  156.5219 LP  0  0  0  0  0  0  0  0  0  0  0  0  # atno 17395 bound_to 11000

$$$$
