AV-unprocessed.smi:281|AV-procd|sdf|2113|dock2
  -GOLD-   2262021403D 1   1.00000     0.00000
 Structure written by MMmdl.
 55 59  0  0  0  0  0  0  0  0  1 V2000
  152.4520  138.8667  154.5846 C   0  0  0  0  0  0  0  0  0  0  0  0
  150.9776  138.8452  154.9987 C   0  0  2  0  0  0  0  0  0  0  0  0
  150.1951  137.7242  154.2973 C   0  0  0  0  0  0  0  0  0  0  0  0
  148.7875  137.8156  154.6627 N   0  0  0  0  0  0  0  0  0  0  0  0
  147.9821  136.7495  154.4290 C   0  0  0  0  0  0  0  0  0  0  0  0
  148.3206  135.5226  154.9079 N   0  0  0  0  0  0  0  0  0  0  0  0
  147.5348  134.4672  154.6744 C   0  0  0  0  0  0  0  0  0  0  0  0
  146.3832  134.4162  154.0022 N   0  0  0  0  0  0  0  0  0  0  0  0
  146.0318  135.6459  153.5285 C   0  0  0  0  0  0  0  0  0  0  0  0
  146.7681  136.8532  153.6931 C   0  0  0  0  0  0  0  0  0  0  0  0
  146.0962  137.9037  153.0795 N   0  0  0  0  0  0  0  0  0  0  0  0
  145.0314  137.3474  152.5705 C   0  0  0  0  0  0  0  0  0  0  0  0
  144.9064  135.9957  152.8017 N   0  0  0  0  0  0  0  0  0  0  0  0
  143.8236  135.1320  152.3544 C   0  0  0  0  0  0  0  0  0  0  0  0
  144.1079  134.4240  151.0075 C   0  0  1  0  0  0  0  0  0  0  0  0
  143.6564  135.2522  149.9511 O   0  0  0  0  0  0  0  0  0  0  0  0
  145.5958  134.1286  150.8064 C   0  0  0  0  0  0  0  0  0  0  0  0
  145.6847  132.6152  150.9606 C   0  0  0  0  0  0  0  0  0  0  0  0
  144.4627  132.1749  150.3968 O   0  0  0  0  0  0  0  0  0  0  0  0
  143.4450  133.0370  150.8848 C   0  0  0  0  0  0  0  0  0  0  0  0
  148.2071  139.1172  154.3576 C   0  0  0  0  0  0  0  0  0  0  0  0
  149.0234  140.2561  155.0164 C   0  0  1  0  0  0  0  0  0  0  0  0
  148.5395  141.6100  154.5229 C   0  0  0  0  0  0  0  0  0  0  0  0
  147.3336  141.8865  155.4151 C   0  0  0  0  0  0  0  0  0  0  0  0
  147.5941  141.2111  156.6415 O   0  0  0  0  0  0  0  0  0  0  0  0
  148.7559  140.3903  156.5333 C   0  0  2  0  0  0  0  0  0  0  0  0
  149.8597  141.1126  157.3298 C   0  0  0  0  0  0  0  0  0  0  0  0
  150.4056  140.1132  154.6707 O   0  0  0  0  0  0  0  0  0  0  0  0
  152.9416  137.9236  154.8281 H   0  0  0  0  0  0  0  0  0  0  0  0
  152.9891  139.6629  155.1006 H   0  0  0  0  0  0  0  0  0  0  0  0
  152.5588  139.0332  153.5123 H   0  0  0  0  0  0  0  0  0  0  0  0
  150.9263  138.6855  156.0756 H   0  0  0  0  0  0  0  0  0  0  0  0
  150.2971  137.8079  153.2142 H   0  0  0  0  0  0  0  0  0  0  0  0
  150.5996  136.7544  154.5911 H   0  0  0  0  0  0  0  0  0  0  0  0
  147.8779  133.5291  155.0851 H   0  0  0  0  0  0  0  0  0  0  0  0
  144.2989  137.9138  152.0141 H   0  0  0  0  0  0  0  0  0  0  0  0
  143.6311  134.3954  153.1358 H   0  0  0  0  0  0  0  0  0  0  0  0
  142.9165  135.7326  152.2742 H   0  0  0  0  0  0  0  0  0  0  0  0
  144.0792  134.9739  149.1530 H   0  0  0  0  0  0  0  0  0  0  0  0
  145.9177  134.4015  149.8000 H   0  0  0  0  0  0  0  0  0  0  0  0
  146.2433  134.6544  151.5088 H   0  0  0  0  0  0  0  0  0  0  0  0
  146.5460  132.1881  150.4465 H   0  0  0  0  0  0  0  0  0  0  0  0
  145.7309  132.3297  152.0131 H   0  0  0  0  0  0  0  0  0  0  0  0
  143.1374  132.6592  151.8604 H   0  0  0  0  0  0  0  0  0  0  0  0
  142.5677  133.0262  150.2366 H   0  0  0  0  0  0  0  0  0  0  0  0
  148.2122  139.2388  153.2734 H   0  0  0  0  0  0  0  0  0  0  0  0
  147.1645  139.1742  154.6675 H   0  0  0  0  0  0  0  0  0  0  0  0
  149.3032  142.3696  154.6955 H   0  0  0  0  0  0  0  0  0  0  0  0
  148.2961  141.6280  153.4601 H   0  0  0  0  0  0  0  0  0  0  0  0
  147.1741  142.9529  155.5761 H   0  0  0  0  0  0  0  0  0  0  0  0
  146.4257  141.4728  154.9752 H   0  0  0  0  0  0  0  0  0  0  0  0
  148.5658  139.4188  156.9912 H   0  0  0  0  0  0  0  0  0  0  0  0
  150.7974  140.5592  157.3272 H   0  0  0  0  0  0  0  0  0  0  0  0
  149.5614  141.2342  158.3711 H   0  0  0  0  0  0  0  0  0  0  0  0
  150.0625  142.1065  156.9313 H   0  0  0  0  0  0  0  0  0  0  0  0
  1  2  1  0  0  0  0
  1 29  1  0  0  0  0
  1 30  1  0  0  0  0
  1 31  1  0  0  0  0
  2 28  1  0  0  0  0
  2  3  1  0  0  0  0
  2 32  1  0  0  0  0
  3  4  1  0  0  0  0
  3 33  1  0  0  0  0
  3 34  1  0  0  0  0
  4  5  1  0  0  0  0
  4 21  1  0  0  0  0
  5 10  1  0  0  0  0
  5  6  2  0  0  0  0
  6  7  1  0  0  0  0
  7  8  2  0  0  0  0
  7 35  1  0  0  0  0
  8  9  1  0  0  0  0
  9 13  1  0  0  0  0
  9 10  2  0  0  0  0
 10 11  1  0  0  0  0
 11 12  2  0  0  0  0
 12 13  1  0  0  0  0
 12 36  1  0  0  0  0
 13 14  1  0  0  0  0
 14 15  1  0  0  0  0
 14 37  1  0  0  0  0
 14 38  1  0  0  0  0
 15 20  1  0  0  0  0
 15 16  1  0  0  0  0
 15 17  1  0  0  0  0
 16 39  1  0  0  0  0
 17 18  1  0  0  0  0
 17 40  1  0  0  0  0
 17 41  1  0  0  0  0
 18 19  1  0  0  0  0
 18 42  1  0  0  0  0
 18 43  1  0  0  0  0
 19 20  1  0  0  0  0
 20 44  1  0  0  0  0
 20 45  1  0  0  0  0
 21 22  1  0  0  0  0
 21 46  1  0  0  0  0
 21 47  1  0  0  0  0
 22 26  1  0  0  0  0
 22 23  1  0  0  0  0
 22 28  1  0  0  0  0
 23 24  1  0  0  0  0
 23 48  1  0  0  0  0
 23 49  1  0  0  0  0
 24 25  1  0  0  0  0
 24 50  1  0  0  0  0
 24 51  1  0  0  0  0
 25 26  1  0  0  0  0
 26 27  1  0  0  0  0
 26 52  1  0  0  0  0
 27 53  1  0  0  0  0
 27 54  1  0  0  0  0
 27 55  1  0  0  0  0
M  END
> <s_m_source_file>
AV-unprocessed.smi

> <i_m_source_file_index>
281

> <i_lp_mmshare_version>
43012

> <i_f3d_flags>
0

> <s_epik_input>
W0NIM11bQ0BASF0xT1tDSDJdW0NIMl1bQ0BAXTEyW0NIMl1OKFtDSDJdW0NASF0oTzIpW0NIM10pYyhuW2NIXW4zKWMoYzM0KW5bY0hdbjRbQ0gyXVtDQEBdNShbT0hdKVtDSDJdW0NIMl1PW0NIMl01

> <s_epik_cmdline>
J2VwaWtfcHl0aG9uJywgJy1waCcsICc3LjAnLCAnLXRuJywgJzgnLCAnLW1hJywgJzIwMCcsICctbWV0YWxfYmluZGluZycsICctaW1hZScsICc8aW5maWxlLm1hZT4nLCAnLW9tYWUnLCAnPG91dGZpbGUubWFlPic=

> <r_lp_tautomer_probability>
1

> <r_epik_Ionization_Penalty>
0.00571331

> <r_epik_Ionization_Penalty_Charging>
0

> <r_epik_Ionization_Penalty_Neutral>
0.00571331

> <r_epik_State_Penalty>
0.00399586

> <r_epik_Charging_Adjusted_Penalty>
0.00399586

> <i_epik_Tot_Q>
0

> <i_epik_Tot_abs_Q>
0

> <r_epik_Metal_State_Penalty>
-0

> <b_epik_Metal_Only>
0

> <s_lp_Force_Field>
OPLS_2005

> <r_lp_Energy>
53.7875

> <b_lp_Chiralities_Consistent>
1

> <s_lp_Variant>
AV-unprocessed.smi:281-13

> <Gold.Version>
5.8.1

> <Gold.Id.Protein>
6NUR|6NUR_protein|mol2

> <Gold.PLP.Fitness>
41.6617

> <Gold.PLP.PLP>
-33.8861

> <Gold.PLP.part.hbond>
-2.4338

> <Gold.PLP.part.metal>
0.0000

> <Gold.PLP.part.buried>
1.1203

> <Gold.PLP.part.nonpolar>
-32.8810

> <Gold.PLP.part.repulsive>
0.8954

> <Gold.PLP.ligand.clash>
0.0013

> <Gold.PLP.ligand.torsion>
1.0898

> <Gold.PLP.Chemscore.Hbond>
2.0000

> <Gold.PLP.Chemscore.CHOScore>
1.2048

> <Gold.PLP.Chemscore.Metal>
0.0000

> <Gold.Chemscore.Hbonds>
donor molecule, donor type, donor heavy atom, donor atom, acceptor molecule, acceptor atom, score
      P1  H  7989  7998       L1    28  1.00
      L1  C    12    36       P1 10171  1.00
      L1  C    12    36       P1 10175  0.67

> <Gold.PLP.Chemscore.Internal.Correction>
0.3419

> <Gold.Rescore>
     Score         DG    S(hbond)    S(metal)    S(lipo)     H(rot)  DE(clash)    DE(int)     intcor
     12.51     -16.20       1.91        0.00      82.87       2.09       1.54       2.15       ----

> <Gold.Chemscore.Fitness>
12.5106

> <Gold.Chemscore.DG>
-16.1972

> <Gold.Chemscore.ZeroCoef>
-5.4800

> <Gold.Chemscore.Hbond>
1.9097

> <Gold.Chemscore.Metal>
0.0000

> <Gold.Chemscore.Lipo>
82.8723

> <Gold.Chemscore.Internal_Hbond>
0.0000

> <Gold.Chemscore.DEClash>
1.5401

> <Gold.Chemscore.DEInternal>
2.1465

> <Gold.Chemscore.Rot>
2.0927

> <Gold.Chemscore.Internal.Correction>
   9.000000E+99

> <Gold.Chemscore.Hbonds>
donor molecule, donor type, donor heavy atom, donor atom, acceptor molecule, acceptor atom, score
      P1  H  7989  7998       L1    28  0.45

> <Gold.Chemscore.Hbond.Weighted>
-6.3785

> <Gold.Chemscore.Metal.Weighted>
-0.0000

> <Gold.Chemscore.Lipo.Weighted>
-9.6961

> <Gold.Chemscore.Internal_Hbond.Weighted>
0.0000

> <Gold.Chemscore.DEClash.Weighted>
1.5401

> <Gold.Chemscore.DEInternal.Weighted>
2.1465

> <Gold.Chemscore.Rot.Weighted>
5.3573

> <Gold.Chemscore.Internal.Correction.Weighted>
   9.000000E+99

> <Gold.Protein.RotatedTorsions>
[ 6907 6896 6895 6894 ] final -124.23 input  -60.11 | X-H torsion
[ 7974 7965 7964 7962 ] final  -89.37 input  175.53 | X-H torsion
[ 8008 7997 7996 7995 ] final   34.42 input   59.86 | X-H torsion
[ 10167 10162 10161 10158 ] final   98.04 input  -65.29 | X-H torsion
[ 10718 10713 10712 10709 ] final  -74.54 input   66.30 | X-H torsion
[ 10763 10752 10751 10750 ] final   26.07 input  -60.55 | X-H torsion
[ 11005 11000 10999 10996 ] final  -71.27 input  -57.11 | X-H torsion

> <Gold.Protein.ActiveResidues>
 VAL166  LYS551  ARG553  GLY616  TRP617  ASP618  TYR619  PRO620  LYS621  CYS622 
 ASP623  PHE694  ASN695  SER759  ASP760  ASP761  ALA762  ILE779  LEU786  VAL792 
 PHE793  MET794  SER795  GLU796  ALA797  LYS798  CYS799  TRP800  GLU811  SER814 

> <Gold.Protein.RotatedAtoms>
  150.8748  133.7455  159.2949 H   0  0  0  0  0  0  0  0  0  0  0  0  # atno 6907 bound_to 6896
  151.5055  135.1062  159.9850 H   0  0  0  0  0  0  0  0  0  0  0  0  # atno 6908 bound_to 6896
  152.4720  133.8005  159.7006 H   0  0  0  0  0  0  0  0  0  0  0  0  # atno 6909 bound_to 6896
  145.4407  140.9559  143.2077 H   0  0  0  0  0  0  0  0  0  0  0  0  # atno 7974 bound_to 7965
  155.1545  140.3278  155.4424 H   0  0  0  0  0  0  0  0  0  0  0  0  # atno 8008 bound_to 7997
  156.2563  140.1971  156.6606 H   0  0  0  0  0  0  0  0  0  0  0  0  # atno 8009 bound_to 7997
  154.6449  140.0565  156.9875 H   0  0  0  0  0  0  0  0  0  0  0  0  # atno 8010 bound_to 7997
  139.7746  144.6910  151.0108 H   0  0  0  0  0  0  0  0  0  0  0  0  # atno 10167 bound_to 10162
  156.0239  130.4419  150.2908 H   0  0  0  0  0  0  0  0  0  0  0  0  # atno 10718 bound_to 10713
  153.0648  135.6568  154.0380 H   0  0  0  0  0  0  0  0  0  0  0  0  # atno 10763 bound_to 10752
  154.0040  135.2934  155.3401 H   0  0  0  0  0  0  0  0  0  0  0  0  # atno 10764 bound_to 10752
  154.7001  135.5248  153.8583 H   0  0  0  0  0  0  0  0  0  0  0  0  # atno 10765 bound_to 10752
  141.1589  133.6813  156.6880 H   0  0  0  0  0  0  0  0  0  0  0  0  # atno 11005 bound_to 11000
  144.8123  139.5939  143.7024 LP  0  0  0  0  0  0  0  0  0  0  0  0  # atno 17320 bound_to 7965
  146.2558  139.6298  142.9396 LP  0  0  0  0  0  0  0  0  0  0  0  0  # atno 17321 bound_to 7965
  140.7816  143.4551  151.0358 LP  0  0  0  0  0  0  0  0  0  0  0  0  # atno 17342 bound_to 10162
  139.8233  143.7790  152.3177 LP  0  0  0  0  0  0  0  0  0  0  0  0  # atno 17343 bound_to 10162
  157.1011  131.0196  151.3085 LP  0  0  0  0  0  0  0  0  0  0  0  0  # atno 17370 bound_to 10713
  157.4779  130.7747  149.7385 LP  0  0  0  0  0  0  0  0  0  0  0  0  # atno 17371 bound_to 10713
  140.3052  134.8131  157.4131 LP  0  0  0  0  0  0  0  0  0  0  0  0  # atno 17394 bound_to 11000
  140.1227  134.5199  155.8170 LP  0  0  0  0  0  0  0  0  0  0  0  0  # atno 17395 bound_to 11000

$$$$
