AV-unprocessed.smi:1796|AV-procd|sdf|7254|dock8
  -GOLD-   22720 8503D 1   1.00000     0.00000
 Structure written by MMmdl.
 42 43  0  0  0  0  0  0  0  0  1 V2000
  154.4649  139.8561  160.1331 C   0  0  0  0  0  0  0  0  0  0  0  0
  154.0118  141.1292  160.8517 C   0  0  0  0  0  0  0  0  0  0  0  0
  154.7390  141.5845  161.7346 O   0  0  0  0  0  0  0  0  0  0  0  0
  152.8374  141.7061  160.5000 N   0  0  0  0  0  0  0  0  0  0  0  0
  152.3120  142.9648  161.0452 C   0  0  0  0  0  0  0  0  0  0  0  0
  152.3950  144.0472  159.9545 C   0  0  0  0  0  0  0  0  0  0  0  0
  151.6414  143.6073  158.6849 C   0  0  0  0  0  0  0  0  0  0  0  0
  152.0767  142.1971  158.2200 C   0  0  2  0  0  0  0  0  0  0  0  0
  151.2196  141.6977  157.0506 C   0  0  0  0  0  0  0  0  0  0  0  0
  150.1182  142.2024  156.8290 O   0  0  0  0  0  0  0  0  0  0  0  0
  151.7254  140.6834  156.3302 N   0  0  0  0  0  0  0  0  0  0  0  0
  151.0339  139.9757  155.2535 C   0  0  1  0  0  0  0  0  0  0  0  0
  151.8602  138.7476  154.8483 C   0  0  0  0  0  0  0  0  0  0  0  0
  149.6077  139.5756  155.6899 C   0  0  0  0  0  0  0  0  0  0  0  0
  148.5778  140.1744  154.8577 N   0  0  0  0  0  0  0  0  0  0  0  0
  148.2850  141.5110  154.6869 C   0  0  0  0  0  0  0  0  0  0  0  0
  147.2236  141.5884  153.8316 C   0  0  0  0  0  0  0  0  0  0  0  0
  146.9355  140.2289  153.5263 C   0  0  0  0  0  0  0  0  0  0  0  0
  147.7510  139.3850  154.1372 N   0  0  0  0  0  0  0  0  0  0  0  0
  152.0051  141.2021  159.4005 C   0  0  0  0  0  0  0  0  0  0  0  0
  153.7278  139.0613  160.2508 H   0  0  0  0  0  0  0  0  0  0  0  0
  155.4090  139.4974  160.5448 H   0  0  0  0  0  0  0  0  0  0  0  0
  154.6160  140.0461  159.0703 H   0  0  0  0  0  0  0  0  0  0  0  0
  151.2732  142.8184  161.3446 H   0  0  0  0  0  0  0  0  0  0  0  0
  152.8270  143.3023  161.9434 H   0  0  0  0  0  0  0  0  0  0  0  0
  151.9836  144.9861  160.3255 H   0  0  0  0  0  0  0  0  0  0  0  0
  153.4409  144.2407  159.7117 H   0  0  0  0  0  0  0  0  0  0  0  0
  150.5711  143.6165  158.8976 H   0  0  0  0  0  0  0  0  0  0  0  0
  151.8025  144.3350  157.8886 H   0  0  0  0  0  0  0  0  0  0  0  0
  153.1147  142.2560  157.8865 H   0  0  0  0  0  0  0  0  0  0  0  0
  152.6378  140.3350  156.5868 H   0  0  0  0  0  0  0  0  0  0  0  0
  150.9618  140.6178  154.3738 H   0  0  0  0  0  0  0  0  0  0  0  0
  151.3838  138.2084  154.0290 H   0  0  0  0  0  0  0  0  0  0  0  0
  151.9746  138.0520  155.6804 H   0  0  0  0  0  0  0  0  0  0  0  0
  152.8573  139.0370  154.5148 H   0  0  0  0  0  0  0  0  0  0  0  0
  149.4905  138.4928  155.6333 H   0  0  0  0  0  0  0  0  0  0  0  0
  149.4332  139.8520  156.7313 H   0  0  0  0  0  0  0  0  0  0  0  0
  148.8451  142.2856  155.1898 H   0  0  0  0  0  0  0  0  0  0  0  0
  146.7266  142.4804  153.4803 H   0  0  0  0  0  0  0  0  0  0  0  0
  146.1635  139.8329  152.8833 H   0  0  0  0  0  0  0  0  0  0  0  0
  152.3076  140.2061  159.0723 H   0  0  0  0  0  0  0  0  0  0  0  0
  150.9774  141.0942  159.7520 H   0  0  0  0  0  0  0  0  0  0  0  0
  1  2  1  0  0  0  0
  1 21  1  0  0  0  0
  1 22  1  0  0  0  0
  1 23  1  0  0  0  0
  2  3  2  0  0  0  0
  2  4  1  0  0  0  0
  4 20  1  0  0  0  0
  4  5  1  0  0  0  0
  5  6  1  0  0  0  0
  5 24  1  0  0  0  0
  5 25  1  0  0  0  0
  6  7  1  0  0  0  0
  6 26  1  0  0  0  0
  6 27  1  0  0  0  0
  7  8  1  0  0  0  0
  7 28  1  0  0  0  0
  7 29  1  0  0  0  0
  8  9  1  0  0  0  0
  8 20  1  0  0  0  0
  8 30  1  0  0  0  0
  9 10  2  0  0  0  0
  9 11  1  0  0  0  0
 11 12  1  0  0  0  0
 11 31  1  0  0  0  0
 12 13  1  0  0  0  0
 12 14  1  0  0  0  0
 12 32  1  0  0  0  0
 13 33  1  0  0  0  0
 13 34  1  0  0  0  0
 13 35  1  0  0  0  0
 14 15  1  0  0  0  0
 14 36  1  0  0  0  0
 14 37  1  0  0  0  0
 15 19  1  0  0  0  0
 15 16  1  0  0  0  0
 16 17  2  0  0  0  0
 16 38  1  0  0  0  0
 17 18  1  0  0  0  0
 17 39  1  0  0  0  0
 18 19  2  0  0  0  0
 18 40  1  0  0  0  0
 20 41  1  0  0  0  0
 20 42  1  0  0  0  0
M  END
> <s_m_source_file>
AV-unprocessed.smi

> <i_m_source_file_index>
1796

> <i_lp_mmshare_version>
43012

> <i_f3d_flags>
0

> <s_epik_input>
W0NIM11DKD1PKU4xW0NIMl1bQ0gyXVtDSDJdW0NASF0oW0NIMl0xKUMoPU8pW05IXVtDQEhdKFtDSDNdKVtDSDJdbjJbY0hdW2NIXVtjSF1uMg==

> <s_epik_cmdline>
J2VwaWtfcHl0aG9uJywgJy1waCcsICc3LjAnLCAnLXRuJywgJzgnLCAnLW1hJywgJzIwMCcsICctbWV0YWxfYmluZGluZycsICctaW1hZScsICc8aW5maWxlLm1hZT4nLCAnLW9tYWUnLCAnPG91dGZpbGUubWFlPic=

> <r_lp_tautomer_probability>
1

> <r_epik_Ionization_Penalty>
0.000315051

> <r_epik_Ionization_Penalty_Charging>
0

> <r_epik_Ionization_Penalty_Neutral>
0.000315051

> <r_epik_State_Penalty>
-0

> <r_epik_Charging_Adjusted_Penalty>
0

> <i_epik_Tot_Q>
0

> <i_epik_Tot_abs_Q>
0

> <r_epik_Metal_State_Penalty>
-0

> <b_epik_Metal_Only>
0

> <s_lp_Force_Field>
OPLS_2005

> <r_lp_Energy>
22.8322

> <b_lp_Chiralities_Consistent>
1

> <s_lp_Variant>
AV-unprocessed.smi:1796-4

> <Gold.Version>
5.8.1

> <Gold.Id.Protein>
6NUR|6NUR_protein|mol2

> <Gold.PLP.Fitness>
44.7799

> <Gold.PLP.PLP>
-41.4453

> <Gold.PLP.part.hbond>
-1.0000

> <Gold.PLP.part.metal>
0.0000

> <Gold.PLP.part.buried>
-3.8008

> <Gold.PLP.part.nonpolar>
-37.1284

> <Gold.PLP.part.repulsive>
1.3228

> <Gold.PLP.ligand.clash>
0.0000

> <Gold.PLP.ligand.torsion>
1.3341

> <Gold.PLP.Chemscore.Hbond>
0.0000

> <Gold.PLP.Chemscore.CHOScore>
1.9896

> <Gold.PLP.Chemscore.Metal>
0.0000

> <Gold.Chemscore.Hbonds>
donor molecule, donor type, donor heavy atom, donor atom, acceptor molecule, acceptor atom, score
      L1  C    16    38       P1  8028  1.00
      L1  C    18    40       P1 10175  0.85

> <Gold.PLP.Chemscore.Internal.Correction>
0.0340

> <Gold.Rescore>
     Score         DG    S(hbond)    S(metal)    S(lipo)     H(rot)  DE(clash)    DE(int)     intcor
     10.33     -13.00       0.00        0.00      99.99       1.63       0.24       2.42       ----

> <Gold.Chemscore.Fitness>
10.3339

> <Gold.Chemscore.DG>
-12.9969

> <Gold.Chemscore.ZeroCoef>
-5.4800

> <Gold.Chemscore.Hbond>
0.0000

> <Gold.Chemscore.Metal>
0.0000

> <Gold.Chemscore.Lipo>
99.9917

> <Gold.Chemscore.Internal_Hbond>
0.0000

> <Gold.Chemscore.DEClash>
0.2449

> <Gold.Chemscore.DEInternal>
2.4181

> <Gold.Chemscore.Rot>
1.6336

> <Gold.Chemscore.Internal.Correction>
   9.000000E+99

> <Gold.Chemscore.Hbond.Weighted>
-0.0000

> <Gold.Chemscore.Metal.Weighted>
-0.0000

> <Gold.Chemscore.Lipo.Weighted>
-11.6990

> <Gold.Chemscore.Internal_Hbond.Weighted>
0.0000

> <Gold.Chemscore.DEClash.Weighted>
0.2449

> <Gold.Chemscore.DEInternal.Weighted>
2.4181

> <Gold.Chemscore.Rot.Weighted>
4.1821

> <Gold.Chemscore.Internal.Correction.Weighted>
   9.000000E+99

> <Gold.Protein.RotatedTorsions>
[ 6907 6896 6895 6894 ] final   -8.01 input  -60.11 | X-H torsion
[ 7974 7965 7964 7962 ] final -143.13 input  175.53 | X-H torsion
[ 8008 7997 7996 7995 ] final   15.08 input   59.86 | X-H torsion
[ 10167 10162 10161 10158 ] final   54.41 input  -65.29 | X-H torsion
[ 10718 10713 10712 10709 ] final   75.44 input   66.30 | X-H torsion
[ 10763 10752 10751 10750 ] final  -31.17 input  -60.55 | X-H torsion
[ 11005 11000 10999 10996 ] final -117.67 input  -57.11 | X-H torsion

> <Gold.Protein.ActiveResidues>
 VAL166  LYS551  ARG553  GLY616  TRP617  ASP618  TYR619  PRO620  LYS621  CYS622 
 ASP623  PHE694  ASN695  SER759  ASP760  ASP761  ALA762  ILE779  LEU786  VAL792 
 PHE793  MET794  SER795  GLU796  ALA797  LYS798  CYS799  TRP800  GLU811  SER814 

> <Gold.Protein.RotatedAtoms>
  151.4405  135.1019  159.9668 H   0  0  0  0  0  0  0  0  0  0  0  0  # atno 6907 bound_to 6896
  152.4924  133.8533  159.7223 H   0  0  0  0  0  0  0  0  0  0  0  0  # atno 6908 bound_to 6896
  150.9092  133.6961  159.2886 H   0  0  0  0  0  0  0  0  0  0  0  0  # atno 6909 bound_to 6896
  144.8392  140.5872  143.5464 H   0  0  0  0  0  0  0  0  0  0  0  0  # atno 7974 bound_to 7965
  154.8575  140.2939  155.5559 H   0  0  0  0  0  0  0  0  0  0  0  0  # atno 8008 bound_to 7997
  156.3018  140.2484  156.3477 H   0  0  0  0  0  0  0  0  0  0  0  0  # atno 8009 bound_to 7997
  154.8954  140.0393  157.1852 H   0  0  0  0  0  0  0  0  0  0  0  0  # atno 8010 bound_to 7997
  140.2304  144.3693  150.6416 H   0  0  0  0  0  0  0  0  0  0  0  0  # atno 10167 bound_to 10162
  157.6634  130.9726  150.1354 H   0  0  0  0  0  0  0  0  0  0  0  0  # atno 10718 bound_to 10713
  153.7930  135.6896  153.4868 H   0  0  0  0  0  0  0  0  0  0  0  0  # atno 10763 bound_to 10752
  153.1737  135.4533  154.9935 H   0  0  0  0  0  0  0  0  0  0  0  0  # atno 10764 bound_to 10752
  154.8037  135.3348  154.7425 H   0  0  0  0  0  0  0  0  0  0  0  0  # atno 10765 bound_to 10752
  141.0339  133.9939  157.3101 H   0  0  0  0  0  0  0  0  0  0  0  0  # atno 11005 bound_to 11000
  145.4730  139.1502  143.3803 LP  0  0  0  0  0  0  0  0  0  0  0  0  # atno 17320 bound_to 7965
  146.2687  140.4864  142.8823 LP  0  0  0  0  0  0  0  0  0  0  0  0  # atno 17321 bound_to 7965
  140.6189  143.2174  151.6734 LP  0  0  0  0  0  0  0  0  0  0  0  0  # atno 17342 bound_to 10162
  139.5112  144.3517  152.0646 LP  0  0  0  0  0  0  0  0  0  0  0  0  # atno 17343 bound_to 10162
  156.2190  130.3672  149.8578 LP  0  0  0  0  0  0  0  0  0  0  0  0  # atno 17370 bound_to 10713
  156.6437  130.8715  151.3518 LP  0  0  0  0  0  0  0  0  0  0  0  0  # atno 17371 bound_to 10713
  139.9227  135.0201  156.8122 LP  0  0  0  0  0  0  0  0  0  0  0  0  # atno 17394 bound_to 11000
  140.6357  133.9864  155.7683 LP  0  0  0  0  0  0  0  0  0  0  0  0  # atno 17395 bound_to 11000

$$$$
