AV-unprocessed.smi:243|AV-procd|sdf|1863|dock10
  -GOLD-   2262020503D 1   1.00000     0.00000
 Structure written by MMmdl.
 58 61  0  0  0  0  0  0  0  0  2 V2000
  152.0957  145.1927  158.6006 C   0  0  0  0  0  0  0  0  0  0  0  0
  152.7054  143.9818  159.3220 C   0  0  0  0  0  0  0  0  0  0  0  0
  152.2772  142.6914  158.7260 N   0  3  1  0  0  0  0  0  0  0  0  0
  152.7873  141.5236  159.4865 C   0  0  0  0  0  0  0  0  0  0  0  0
  152.4496  140.2003  158.7799 C   0  0  0  0  0  0  0  0  0  0  0  0
  150.9305  140.0642  158.5354 C   0  0  2  0  0  0  0  0  0  0  0  0
  150.5751  138.7843  157.8998 N   0  0  0  0  0  0  0  0  0  0  0  0
  151.1712  137.5683  158.4449 C   0  0  0  0  0  0  0  0  0  0  0  0
  149.2608  138.5799  157.6479 C   0  0  0  0  0  0  0  0  0  0  0  0
  148.4748  138.2500  158.7025 N   0  0  0  0  0  0  0  0  0  0  0  0
  147.1704  138.0251  158.5197 C   0  0  0  0  0  0  0  0  0  0  0  0
  146.4642  138.0803  157.3886 N   0  0  0  0  0  0  0  0  0  0  0  0
  147.2494  138.4275  156.3287 C   0  0  0  0  0  0  0  0  0  0  0  0
  148.6453  138.7015  156.3691 C   0  0  0  0  0  0  0  0  0  0  0  0
  149.0986  139.0364  155.0986 N   0  0  0  0  0  0  0  0  0  0  0  0
  148.0337  138.9555  154.3487 C   0  0  0  0  0  0  0  0  0  0  0  0
  146.8819  138.5823  155.0036 N   0  0  0  0  0  0  0  0  0  0  0  0
  145.5635  138.4008  154.4166 C   0  0  0  0  0  0  0  0  0  0  0  0
  145.4872  137.2026  153.4416 C   0  0  2  0  0  0  0  0  0  0  0  0
  146.2416  137.4995  152.2794 O   0  0  0  0  0  0  0  0  0  0  0  0
  144.0673  136.8367  153.0151 C   0  0  0  0  0  0  0  0  0  0  0  0
  144.1385  135.3252  152.8507 C   0  0  0  0  0  0  0  0  0  0  0  0
  144.9669  134.9393  153.9333 O   0  0  0  0  0  0  0  0  0  0  0  0
  146.0205  135.8895  154.0497 C   0  0  0  0  0  0  0  0  0  0  0  0
  150.4260  141.3142  157.7556 C   0  0  2  0  0  0  0  0  0  0  0  0
  150.8934  141.3813  156.2862 C   0  0  0  0  0  0  0  0  0  0  0  0
  150.8084  142.6002  158.5142 C   0  0  0  0  0  0  0  0  0  0  0  0
  152.5031  146.1216  159.0003 H   0  0  0  0  0  0  0  0  0  0  0  0
  151.0137  145.2400  158.7180 H   0  0  0  0  0  0  0  0  0  0  0  0
  152.3185  145.1683  157.5335 H   0  0  0  0  0  0  0  0  0  0  0  0
  153.7905  144.0673  159.2504 H   0  0  0  0  0  0  0  0  0  0  0  0
  152.4640  144.0029  160.3855 H   0  0  0  0  0  0  0  0  0  0  0  0
  153.8696  141.6005  159.5989 H   0  0  0  0  0  0  0  0  0  0  0  0
  152.3630  141.5313  160.4919 H   0  0  0  0  0  0  0  0  0  0  0  0
  152.9955  140.1291  157.8388 H   0  0  0  0  0  0  0  0  0  0  0  0
  152.8124  139.3838  159.4040 H   0  0  0  0  0  0  0  0  0  0  0  0
  150.4597  140.0731  159.5184 H   0  0  0  0  0  0  0  0  0  0  0  0
  150.6737  136.6667  158.0830 H   0  0  0  0  0  0  0  0  0  0  0  0
  151.1191  137.5692  159.5344 H   0  0  0  0  0  0  0  0  0  0  0  0
  152.2183  137.4973  158.1509 H   0  0  0  0  0  0  0  0  0  0  0  0
  146.6132  137.7606  159.4062 H   0  0  0  0  0  0  0  0  0  0  0  0
  148.0612  139.1611  153.2886 H   0  0  0  0  0  0  0  0  0  0  0  0
  144.8388  138.2794  155.2228 H   0  0  0  0  0  0  0  0  0  0  0  0
  145.2932  139.3227  153.8998 H   0  0  0  0  0  0  0  0  0  0  0  0
  146.9759  136.9062  152.2379 H   0  0  0  0  0  0  0  0  0  0  0  0
  143.3622  137.0659  153.8153 H   0  0  0  0  0  0  0  0  0  0  0  0
  143.7282  137.3529  152.1159 H   0  0  0  0  0  0  0  0  0  0  0  0
  143.1598  134.8476  152.9006 H   0  0  0  0  0  0  0  0  0  0  0  0
  144.6122  135.0521  151.9064 H   0  0  0  0  0  0  0  0  0  0  0  0
  146.9002  135.5198  153.5198 H   0  0  0  0  0  0  0  0  0  0  0  0
  146.2942  135.9958  155.1000 H   0  0  0  0  0  0  0  0  0  0  0  0
  149.3362  141.2920  157.7333 H   0  0  0  0  0  0  0  0  0  0  0  0
  151.9775  141.4494  156.2018 H   0  0  0  0  0  0  0  0  0  0  0  0
  150.4733  142.2547  155.7868 H   0  0  0  0  0  0  0  0  0  0  0  0
  150.5747  140.5078  155.7188 H   0  0  0  0  0  0  0  0  0  0  0  0
  150.3036  142.6241  159.4814 H   0  0  0  0  0  0  0  0  0  0  0  0
  150.4472  143.4641  157.9572 H   0  0  0  0  0  0  0  0  0  0  0  0
  152.7088  142.6423  157.8141 H   0  0  0  0  0  0  0  0  0  0  0  0
  1  2  1  0  0  0  0
  1 28  1  0  0  0  0
  1 29  1  0  0  0  0
  1 30  1  0  0  0  0
  2  3  1  0  0  0  0
  2 31  1  0  0  0  0
  2 32  1  0  0  0  0
  3 27  1  0  0  0  0
  3  4  1  0  0  0  0
  3 58  1  0  0  0  0
  4  5  1  0  0  0  0
  4 33  1  0  0  0  0
  4 34  1  0  0  0  0
  5  6  1  0  0  0  0
  5 35  1  0  0  0  0
  5 36  1  0  0  0  0
  6  7  1  0  0  0  0
  6 25  1  0  0  0  0
  6 37  1  0  0  0  0
  7  8  1  0  0  0  0
  7  9  1  0  0  0  0
  8 38  1  0  0  0  0
  8 39  1  0  0  0  0
  8 40  1  0  0  0  0
  9 14  1  0  0  0  0
  9 10  2  0  0  0  0
 10 11  1  0  0  0  0
 11 12  2  0  0  0  0
 11 41  1  0  0  0  0
 12 13  1  0  0  0  0
 13 17  1  0  0  0  0
 13 14  2  0  0  0  0
 14 15  1  0  0  0  0
 15 16  2  0  0  0  0
 16 17  1  0  0  0  0
 16 42  1  0  0  0  0
 17 18  1  0  0  0  0
 18 19  1  0  0  0  0
 18 43  1  0  0  0  0
 18 44  1  0  0  0  0
 19 24  1  0  0  0  0
 19 20  1  0  0  0  0
 19 21  1  0  0  0  0
 20 45  1  0  0  0  0
 21 22  1  0  0  0  0
 21 46  1  0  0  0  0
 21 47  1  0  0  0  0
 22 23  1  0  0  0  0
 22 48  1  0  0  0  0
 22 49  1  0  0  0  0
 23 24  1  0  0  0  0
 24 50  1  0  0  0  0
 24 51  1  0  0  0  0
 25 26  1  0  0  0  0
 25 27  1  0  0  0  0
 25 52  1  0  0  0  0
 26 53  1  0  0  0  0
 26 54  1  0  0  0  0
 26 55  1  0  0  0  0
 27 56  1  0  0  0  0
 27 57  1  0  0  0  0
M  CHG  1   3   1
M  END
> <s_m_source_file>
AV-unprocessed.smi

> <i_m_source_file_index>
243

> <i_lp_mmshare_version>
43012

> <i_f3d_flags>
0

> <s_epik_input>
W0NIM11bQ0gyXU4xW0NIMl1bQ0gyXVtDQEhdKFtDQEBIXShbQ0gzXSlbQ0gyXTEpTihbQ0gzXSljKG5bY0hdbjIpYyhjMjMpbltjSF1uM1tDSDJdW0NAQF00KFtPSF0pW0NIMl1bQ0gyXU9bQ0gyXTQ=

> <s_epik_cmdline>
J2VwaWtfcHl0aG9uJywgJy1waCcsICc3LjAnLCAnLXRuJywgJzgnLCAnLW1hJywgJzIwMCcsICctbWV0YWxfYmluZGluZycsICctaW1hZScsICc8aW5maWxlLm1hZT4nLCAnLW9tYWUnLCAnPG91dGZpbGUubWFlPic=

> <r_lp_tautomer_probability>
1

> <r_epik_Ionization_Penalty>
0.00253099

> <r_epik_Ionization_Penalty_Charging>
0.00137877

> <r_epik_Ionization_Penalty_Neutral>
0.00115221

> <r_epik_State_Penalty>
-0

> <r_epik_Charging_Adjusted_Penalty>
0.00137877

> <i_epik_Tot_Q>
1

> <i_epik_Tot_abs_Q>
1

> <r_epik_Metal_State_Penalty>
-0

> <b_epik_Metal_Only>
0

> <s_lp_Force_Field>
OPLS_2005

> <r_lp_Energy>
46.6392

> <b_lp_Chiralities_Consistent>
1

> <s_lp_Variant>
AV-unprocessed.smi:243-16

> <Gold.Version>
5.8.1

> <Gold.Id.Protein>
6NUR|6NUR_protein|mol2

> <Gold.PLP.Fitness>
39.6773

> <Gold.PLP.PLP>
-34.1119

> <Gold.PLP.part.hbond>
-1.6872

> <Gold.PLP.part.metal>
0.0000

> <Gold.PLP.part.buried>
-6.3693

> <Gold.PLP.part.nonpolar>
-26.4934

> <Gold.PLP.part.repulsive>
0.2176

> <Gold.PLP.ligand.clash>
0.0000

> <Gold.PLP.ligand.torsion>
0.4449

> <Gold.PLP.Chemscore.Hbond>
1.0000

> <Gold.PLP.Chemscore.CHOScore>
1.0000

> <Gold.PLP.Chemscore.Metal>
0.0000

> <Gold.Chemscore.Hbonds>
donor molecule, donor type, donor heavy atom, donor atom, acceptor molecule, acceptor atom, score
      L1  H    20    45       P1  7948  0.81
      L1  C    16    42       P1  7957  0.41

> <Gold.PLP.Chemscore.Internal.Correction>
0.4552

> <Gold.Rescore>
     Score         DG    S(hbond)    S(metal)    S(lipo)     H(rot)  DE(clash)    DE(int)     intcor
     12.43     -12.91       1.00        0.00      90.42       2.53       0.05       0.44       ----

> <Gold.Chemscore.Fitness>
12.4297

> <Gold.Chemscore.DG>
-12.9108

> <Gold.Chemscore.ZeroCoef>
-5.4800

> <Gold.Chemscore.Hbond>
0.9968

> <Gold.Chemscore.Metal>
0.0000

> <Gold.Chemscore.Lipo>
90.4225

> <Gold.Chemscore.Internal_Hbond>
0.0000

> <Gold.Chemscore.DEClash>
0.0461

> <Gold.Chemscore.DEInternal>
0.4350

> <Gold.Chemscore.Rot>
2.5305

> <Gold.Chemscore.Internal.Correction>
   9.000000E+99

> <Gold.Chemscore.Hbonds>
donor molecule, donor type, donor heavy atom, donor atom, acceptor molecule, acceptor atom, score
      L1  H    20    45       P1  7948  0.78

> <Gold.Chemscore.Hbond.Weighted>
-3.3294

> <Gold.Chemscore.Metal.Weighted>
-0.0000

> <Gold.Chemscore.Lipo.Weighted>
-10.5794

> <Gold.Chemscore.Internal_Hbond.Weighted>
0.0000

> <Gold.Chemscore.DEClash.Weighted>
0.0461

> <Gold.Chemscore.DEInternal.Weighted>
0.4350

> <Gold.Chemscore.Rot.Weighted>
6.4780

> <Gold.Chemscore.Internal.Correction.Weighted>
   9.000000E+99

> <Gold.Protein.RotatedTorsions>
[ 6907 6896 6895 6894 ] final  169.57 input  -60.11 | X-H torsion
[ 7974 7965 7964 7962 ] final    2.75 input  175.53 | X-H torsion
[ 8008 7997 7996 7995 ] final  113.00 input   59.86 | X-H torsion
[ 10167 10162 10161 10158 ] final -124.92 input  -65.29 | X-H torsion
[ 10718 10713 10712 10709 ] final  -78.96 input   66.30 | X-H torsion
[ 10763 10752 10751 10750 ] final   27.07 input  -60.55 | X-H torsion
[ 11005 11000 10999 10996 ] final  -44.86 input  -57.11 | X-H torsion

> <Gold.Protein.ActiveResidues>
 VAL166  LYS551  ARG553  GLY616  TRP617  ASP618  TYR619  PRO620  LYS621  CYS622 
 ASP623  PHE694  ASN695  SER759  ASP760  ASP761  ALA762  ILE779  LEU786  VAL792 
 PHE793  MET794  SER795  GLU796  ALA797  LYS798  CYS799  TRP800  GLU811  SER814 

> <Gold.Protein.RotatedAtoms>
  151.8298  133.3407  159.3609 H   0  0  0  0  0  0  0  0  0  0  0  0  # atno 6907 bound_to 6896
  150.7268  134.5493  159.5796 H   0  0  0  0  0  0  0  0  0  0  0  0  # atno 6908 bound_to 6896
  152.2944  134.7685  160.0422 H   0  0  0  0  0  0  0  0  0  0  0  0  # atno 6909 bound_to 6896
  146.2444  140.0789  142.8358 H   0  0  0  0  0  0  0  0  0  0  0  0  # atno 7974 bound_to 7965
  156.2229  140.2988  155.9997 H   0  0  0  0  0  0  0  0  0  0  0  0  # atno 8008 bound_to 7997
  155.2432  140.0423  157.2995 H   0  0  0  0  0  0  0  0  0  0  0  0  # atno 8009 bound_to 7997
  154.5870  140.2391  155.7982 H   0  0  0  0  0  0  0  0  0  0  0  0  # atno 8010 bound_to 7997
  139.9876  143.5675  152.2354 H   0  0  0  0  0  0  0  0  0  0  0  0  # atno 10167 bound_to 10162
  156.0104  130.4532  150.3576 H   0  0  0  0  0  0  0  0  0  0  0  0  # atno 10718 bound_to 10713
  153.0580  135.6545  154.0530 H   0  0  0  0  0  0  0  0  0  0  0  0  # atno 10763 bound_to 10752
  154.0204  135.2920  155.3383 H   0  0  0  0  0  0  0  0  0  0  0  0  # atno 10764 bound_to 10752
  154.6905  135.5284  153.8453 H   0  0  0  0  0  0  0  0  0  0  0  0  # atno 10765 bound_to 10752
  141.0478  133.6754  156.2931 H   0  0  0  0  0  0  0  0  0  0  0  0  # atno 11005 bound_to 11000
  145.0750  140.9182  143.4859 LP  0  0  0  0  0  0  0  0  0  0  0  0  # atno 17320 bound_to 7965
  145.0931  139.2876  143.5725 LP  0  0  0  0  0  0  0  0  0  0  0  0  # atno 17321 bound_to 7965
  139.6363  144.7650  151.2430 LP  0  0  0  0  0  0  0  0  0  0  0  0  # atno 17342 bound_to 10162
  140.7466  143.6392  150.8350 LP  0  0  0  0  0  0  0  0  0  0  0  0  # atno 17343 bound_to 10162
  157.1665  131.0358  151.2816 LP  0  0  0  0  0  0  0  0  0  0  0  0  # atno 17370 bound_to 10713
  157.4266  130.7467  149.6956 LP  0  0  0  0  0  0  0  0  0  0  0  0  # atno 17371 bound_to 10713
  140.6114  134.5455  157.5534 LP  0  0  0  0  0  0  0  0  0  0  0  0  # atno 17394 bound_to 11000
  139.9325  134.7936  156.0890 LP  0  0  0  0  0  0  0  0  0  0  0  0  # atno 17395 bound_to 11000

$$$$
