AV-unprocessed.smi:2786|AV-procd|sdf|10754|dock9
  -GOLD-   2272015183D 1   1.00000     0.00000
 Structure written by MMmdl.
 26 27  0  0  0  0  0  0  0  0  1 V2000
  144.9478  137.4088  152.5570 C   0  0  0  0  0  0  0  0  0  0  0  0
  143.6845  136.7954  152.9182 N   0  0  0  0  0  0  0  0  0  0  0  0
  142.5972  137.4480  153.4841 C   0  0  0  0  0  0  0  0  0  0  0  0
  141.6148  136.5030  153.6532 C   0  0  0  0  0  0  0  0  0  0  0  0
  142.0766  135.2728  153.1991 N   0  0  0  0  0  0  0  0  0  0  0  0
  143.3190  135.5053  152.7803 C   0  0  0  0  0  0  0  0  0  0  0  0
  144.2183  134.4620  152.1798 C   0  0  2  0  0  0  0  0  0  0  0  0
  144.7377  134.9083  150.7956 C   0  0  0  0  0  0  0  0  0  0  0  0
  145.6205  133.8951  150.2132 N   0  0  0  0  0  0  0  0  0  0  0  0
  144.9392  132.6040  150.1088 C   0  0  0  0  0  0  0  0  0  0  0  0
  144.4272  132.1488  151.4874 C   0  0  0  0  0  0  0  0  0  0  0  0
  143.5453  133.1611  152.0717 N   0  0  0  0  0  0  0  0  0  0  0  0
  144.8901  138.4904  152.6821 H   0  0  0  0  0  0  0  0  0  0  0  0
  145.1832  137.1880  151.5155 H   0  0  0  0  0  0  0  0  0  0  0  0
  145.7412  137.0213  153.1966 H   0  0  0  0  0  0  0  0  0  0  0  0
  142.6106  138.5041  153.7108 H   0  0  0  0  0  0  0  0  0  0  0  0
  140.6204  136.6123  154.0601 H   0  0  0  0  0  0  0  0  0  0  0  0
  145.0778  134.3421  152.8399 H   0  0  0  0  0  0  0  0  0  0  0  0
  143.8961  135.0960  150.1271 H   0  0  0  0  0  0  0  0  0  0  0  0
  145.2749  135.8523  150.8893 H   0  0  0  0  0  0  0  0  0  0  0  0
  145.9154  134.1963  149.2899 H   0  0  0  0  0  0  0  0  0  0  0  0
  144.1043  132.6783  149.4106 H   0  0  0  0  0  0  0  0  0  0  0  0
  145.6197  131.8562  149.7014 H   0  0  0  0  0  0  0  0  0  0  0  0
  143.8928  131.2038  151.3896 H   0  0  0  0  0  0  0  0  0  0  0  0
  145.2719  131.9613  152.1518 H   0  0  0  0  0  0  0  0  0  0  0  0
  143.2514  132.8590  152.9949 H   0  0  0  0  0  0  0  0  0  0  0  0
  1  2  1  0  0  0  0
  1 13  1  0  0  0  0
  1 14  1  0  0  0  0
  1 15  1  0  0  0  0
  2  6  1  0  0  0  0
  2  3  1  0  0  0  0
  3  4  2  0  0  0  0
  3 16  1  0  0  0  0
  4  5  1  0  0  0  0
  4 17  1  0  0  0  0
  5  6  2  0  0  0  0
  6  7  1  0  0  0  0
  7 12  1  0  0  0  0
  7  8  1  0  0  0  0
  7 18  1  0  0  0  0
  8  9  1  0  0  0  0
  8 19  1  0  0  0  0
  8 20  1  0  0  0  0
  9 10  1  0  0  0  0
  9 21  1  0  0  0  0
 10 11  1  0  0  0  0
 10 22  1  0  0  0  0
 10 23  1  0  0  0  0
 11 12  1  0  0  0  0
 11 24  1  0  0  0  0
 11 25  1  0  0  0  0
 12 26  1  0  0  0  0
M  END
> <s_m_source_file>
AV-unprocessed.smi

> <i_m_source_file_index>
2786

> <i_lp_mmshare_version>
43012

> <i_f3d_flags>
0

> <s_epik_input>
W0NIM11uMVtjSF1bY0hdbmMxW0NAQEhdMltDSDJdW05IXVtDSDJdW0NIMl1bTkhdMg==

> <s_epik_cmdline>
J2VwaWtfcHl0aG9uJywgJy1waCcsICc3LjAnLCAnLXRuJywgJzgnLCAnLW1hJywgJzIwMCcsICctbWV0YWxfYmluZGluZycsICctaW1hZScsICc8aW5maWxlLm1hZT4nLCAnLW9tYWUnLCAnPG91dGZpbGUubWFlPic=

> <r_lp_tautomer_probability>
1

> <r_epik_Ionization_Penalty>
3.5722

> <r_epik_Ionization_Penalty_Charging>
1.66148

> <r_epik_Ionization_Penalty_Neutral>
1.91072

> <r_epik_State_Penalty>
2.63328

> <r_epik_Charging_Adjusted_Penalty>
4.29476

> <i_epik_Tot_Q>
0

> <i_epik_Tot_abs_Q>
0

> <r_epik_Metal_State_Penalty>
0.942173

> <b_epik_Metal_Only>
0

> <s_lp_Force_Field>
OPLS_2005

> <r_lp_Energy>
22.0451

> <b_lp_Chiralities_Consistent>
1

> <s_lp_Variant>
AV-unprocessed.smi:2786-7

> <Gold.Version>
5.8.1

> <Gold.Id.Protein>
6NUR|6NUR_protein|mol2

> <Gold.PLP.Fitness>
30.0891

> <Gold.PLP.PLP>
-22.3127

> <Gold.PLP.part.hbond>
-1.4893

> <Gold.PLP.part.metal>
0.0000

> <Gold.PLP.part.buried>
-5.1015

> <Gold.PLP.part.nonpolar>
-15.9434

> <Gold.PLP.part.repulsive>
0.1871

> <Gold.PLP.ligand.clash>
0.0000

> <Gold.PLP.ligand.torsion>
0.0455

> <Gold.PLP.Chemscore.Hbond>
1.6175

> <Gold.PLP.Chemscore.CHOScore>
1.0000

> <Gold.PLP.Chemscore.Metal>
0.0000

> <Gold.Chemscore.Hbonds>
donor molecule, donor type, donor heavy atom, donor atom, acceptor molecule, acceptor atom, score
      L1  H     9    21       P1  7921  1.00
      L1  H    12    26       P1 10957  0.67
      L1  C     3    16       P1 10175  1.00

> <Gold.PLP.Chemscore.Internal.Correction>
0.0150

> <Gold.Rescore>
     Score         DG    S(hbond)    S(metal)    S(lipo)     H(rot)  DE(clash)    DE(int)     intcor
     13.25     -13.26       1.79        0.00      37.36       1.00       0.00       0.01       ----

> <Gold.Chemscore.Fitness>
13.2498

> <Gold.Chemscore.DG>
-13.2601

> <Gold.Chemscore.ZeroCoef>
-5.4800

> <Gold.Chemscore.Hbond>
1.7870

> <Gold.Chemscore.Metal>
0.0000

> <Gold.Chemscore.Lipo>
37.3637

> <Gold.Chemscore.Internal_Hbond>
0.0000

> <Gold.Chemscore.DEClash>
0.0000

> <Gold.Chemscore.DEInternal>
0.0103

> <Gold.Chemscore.Rot>
1.0000

> <Gold.Chemscore.Internal.Correction>
   9.000000E+99

> <Gold.Chemscore.Hbonds>
donor molecule, donor type, donor heavy atom, donor atom, acceptor molecule, acceptor atom, score
      L1  H     9    21       P1  7921  0.40
      L1  H    12    26       P1 10957  0.26

> <Gold.Chemscore.Hbond.Weighted>
-5.9685

> <Gold.Chemscore.Metal.Weighted>
-0.0000

> <Gold.Chemscore.Lipo.Weighted>
-4.3715

> <Gold.Chemscore.Internal_Hbond.Weighted>
0.0000

> <Gold.Chemscore.DEClash.Weighted>
0.0000

> <Gold.Chemscore.DEInternal.Weighted>
0.0103

> <Gold.Chemscore.Rot.Weighted>
2.5600

> <Gold.Chemscore.Internal.Correction.Weighted>
   9.000000E+99

> <Gold.Protein.RotatedTorsions>
[ 6907 6896 6895 6894 ] final -101.05 input  -60.11 | X-H torsion
[ 7974 7965 7964 7962 ] final -112.57 input  175.53 | X-H torsion
[ 8008 7997 7996 7995 ] final  129.50 input   59.86 | X-H torsion
[ 10167 10162 10161 10158 ] final -156.61 input  -65.29 | X-H torsion
[ 10718 10713 10712 10709 ] final  104.20 input   66.30 | X-H torsion
[ 10763 10752 10751 10750 ] final   97.40 input  -60.55 | X-H torsion
[ 11005 11000 10999 10996 ] final   76.78 input  -57.11 | X-H torsion

> <Gold.Protein.ActiveResidues>
 VAL166  LYS551  ARG553  GLY616  TRP617  ASP618  TYR619  PRO620  LYS621  CYS622 
 ASP623  PHE694  ASN695  SER759  ASP760  ASP761  ALA762  ILE779  LEU786  VAL792 
 PHE793  MET794  SER795  GLU796  ALA797  LYS798  CYS799  TRP800  GLU811  SER814 

> <Gold.Protein.RotatedAtoms>
  150.7139  134.0793  159.3891 H   0  0  0  0  0  0  0  0  0  0  0  0  # atno 6907 bound_to 6896
  151.8776  135.0463  160.0495 H   0  0  0  0  0  0  0  0  0  0  0  0  # atno 6908 bound_to 6896
  152.2593  133.5248  159.5409 H   0  0  0  0  0  0  0  0  0  0  0  0  # atno 6909 bound_to 6896
  145.1424  140.8785  143.3694 H   0  0  0  0  0  0  0  0  0  0  0  0  # atno 7974 bound_to 7965
  156.2937  140.2619  156.2609 H   0  0  0  0  0  0  0  0  0  0  0  0  # atno 8008 bound_to 7997
  154.9790  140.0390  157.2287 H   0  0  0  0  0  0  0  0  0  0  0  0  # atno 8009 bound_to 7997
  154.7789  140.2791  155.6084 H   0  0  0  0  0  0  0  0  0  0  0  0  # atno 8010 bound_to 7997
  139.6837  143.9538  152.2350 H   0  0  0  0  0  0  0  0  0  0  0  0  # atno 10167 bound_to 10162
  157.6748  131.0798  150.5671 H   0  0  0  0  0  0  0  0  0  0  0  0  # atno 10718 bound_to 10713
  153.2765  135.4184  155.1038 H   0  0  0  0  0  0  0  0  0  0  0  0  # atno 10763 bound_to 10752
  154.8474  135.3485  154.6171 H   0  0  0  0  0  0  0  0  0  0  0  0  # atno 10764 bound_to 10752
  153.6591  135.7049  153.5241 H   0  0  0  0  0  0  0  0  0  0  0  0  # atno 10765 bound_to 10752
  139.9283  134.7629  156.1439 H   0  0  0  0  0  0  0  0  0  0  0  0  # atno 11005 bound_to 11000
  145.0518  139.3176  143.5925 LP  0  0  0  0  0  0  0  0  0  0  0  0  # atno 17320 bound_to 7965
  146.3503  139.9928  142.8684 LP  0  0  0  0  0  0  0  0  0  0  0  0  # atno 17321 bound_to 7965
  139.9335  144.6726  150.8339 LP  0  0  0  0  0  0  0  0  0  0  0  0  # atno 17342 bound_to 10162
  140.7660  143.3292  151.2447 LP  0  0  0  0  0  0  0  0  0  0  0  0  # atno 17343 bound_to 10162
  156.5973  130.4345  149.5912 LP  0  0  0  0  0  0  0  0  0  0  0  0  # atno 17370 bound_to 10713
  156.2535  130.6921  151.1666 LP  0  0  0  0  0  0  0  0  0  0  0  0  # atno 17371 bound_to 10713
  141.0855  133.6736  156.2428 LP  0  0  0  0  0  0  0  0  0  0  0  0  # atno 17394 bound_to 11000
  140.6274  134.5300  157.5555 LP  0  0  0  0  0  0  0  0  0  0  0  0  # atno 17395 bound_to 11000

$$$$
