AV-unprocessed.smi:3198|AV-procd|sdf|12229|dock10
  -GOLD-   2272018 63D 1   1.00000     0.00000
 Structure written by MMmdl.
 37 38  0  0  0  0  0  0  0  0  1 V2000
  154.3388  141.3166  160.0698 C   0  0  0  0  0  0  0  0  0  0  0  0
  153.0615  141.5516  159.2913 C   0  0  0  0  0  0  0  0  0  0  0  0
  152.7103  142.8424  158.8458 C   0  0  0  0  0  0  0  0  0  0  0  0
  151.5098  142.9961  158.1272 C   0  0  0  0  0  0  0  0  0  0  0  0
  150.7113  141.8612  157.8864 C   0  0  0  0  0  0  0  0  0  0  0  0
  151.1424  140.6096  158.3749 C   0  0  0  0  0  0  0  0  0  0  0  0
  150.3420  139.4835  158.1325 N   0  0  0  0  0  0  0  0  0  0  0  0
  150.7396  138.1524  158.5760 C   0  0  0  0  0  0  0  0  0  0  0  0
  149.5459  137.1953  158.7037 C   0  0  0  0  0  0  0  0  0  0  0  0
  148.9684  137.3430  159.9905 O   0  0  0  0  0  0  0  0  0  0  0  0
  148.1910  136.2213  160.3740 C   0  0  0  0  0  0  0  0  0  0  0  0
  147.4744  136.5401  161.6917 C   0  0  2  0  0  0  0  0  0  0  0  0
  146.5390  135.4309  162.1685 C   0  0  0  0  0  0  0  0  0  0  0  0
  145.5319  136.1664  163.0390 C   0  0  0  0  0  0  0  0  0  0  0  0
  145.7076  137.6374  162.6498 C   0  0  0  0  0  0  0  0  0  0  0  0
  146.5767  137.6259  161.5256 O   0  0  0  0  0  0  0  0  0  0  0  0
  152.2997  140.4597  159.0627 N   0  0  0  0  0  0  0  0  0  0  0  0
  154.9446  142.2219  160.1193 H   0  0  0  0  0  0  0  0  0  0  0  0
  154.9344  140.5355  159.5963 H   0  0  0  0  0  0  0  0  0  0  0  0
  154.1081  141.0037  161.0885 H   0  0  0  0  0  0  0  0  0  0  0  0
  153.3428  143.6944  159.0472 H   0  0  0  0  0  0  0  0  0  0  0  0
  151.2060  143.9679  157.7670 H   0  0  0  0  0  0  0  0  0  0  0  0
  149.7853  141.9547  157.3379 H   0  0  0  0  0  0  0  0  0  0  0  0
  149.3950  139.6143  157.8074 H   0  0  0  0  0  0  0  0  0  0  0  0
  151.4604  137.7496  157.8642 H   0  0  0  0  0  0  0  0  0  0  0  0
  151.2643  138.2262  159.5292 H   0  0  0  0  0  0  0  0  0  0  0  0
  148.8023  137.4448  157.9454 H   0  0  0  0  0  0  0  0  0  0  0  0
  149.8505  136.1620  158.5305 H   0  0  0  0  0  0  0  0  0  0  0  0
  147.4698  135.9616  159.5974 H   0  0  0  0  0  0  0  0  0  0  0  0
  148.8492  135.3622  160.5138 H   0  0  0  0  0  0  0  0  0  0  0  0
  148.1966  136.7777  162.4753 H   0  0  0  0  0  0  0  0  0  0  0  0
  146.0246  134.9811  161.3180 H   0  0  0  0  0  0  0  0  0  0  0  0
  147.0629  134.6374  162.7020 H   0  0  0  0  0  0  0  0  0  0  0  0
  144.5179  135.8132  162.8486 H   0  0  0  0  0  0  0  0  0  0  0  0
  145.7439  136.0242  164.0992 H   0  0  0  0  0  0  0  0  0  0  0  0
  144.7620  138.1229  162.4076 H   0  0  0  0  0  0  0  0  0  0  0  0
  146.1783  138.1941  163.4614 H   0  0  0  0  0  0  0  0  0  0  0  0
  1  2  1  0  0  0  0
  1 18  1  0  0  0  0
  1 19  1  0  0  0  0
  1 20  1  0  0  0  0
  2 17  1  0  0  0  0
  2  3  2  0  0  0  0
  3  4  1  0  0  0  0
  3 21  1  0  0  0  0
  4  5  2  0  0  0  0
  4 22  1  0  0  0  0
  5  6  1  0  0  0  0
  5 23  1  0  0  0  0
  6  7  1  0  0  0  0
  6 17  2  0  0  0  0
  7  8  1  0  0  0  0
  7 24  1  0  0  0  0
  8  9  1  0  0  0  0
  8 25  1  0  0  0  0
  8 26  1  0  0  0  0
  9 10  1  0  0  0  0
  9 27  1  0  0  0  0
  9 28  1  0  0  0  0
 10 11  1  0  0  0  0
 11 12  1  0  0  0  0
 11 29  1  0  0  0  0
 11 30  1  0  0  0  0
 12 16  1  0  0  0  0
 12 13  1  0  0  0  0
 12 31  1  0  0  0  0
 13 14  1  0  0  0  0
 13 32  1  0  0  0  0
 13 33  1  0  0  0  0
 14 15  1  0  0  0  0
 14 34  1  0  0  0  0
 14 35  1  0  0  0  0
 15 16  1  0  0  0  0
 15 36  1  0  0  0  0
 15 37  1  0  0  0  0
M  END
> <s_m_source_file>
AV-unprocessed.smi

> <i_m_source_file_index>
3198

> <i_lp_mmshare_version>
43012

> <i_f3d_flags>
0

> <s_epik_input>
W0NIM11jMVtjSF1bY0hdW2NIXWMobjEpW05IXVtDSDJdW0NIMl1PW0NIMl1bQ0BASF0yW0NIMl1bQ0gyXVtDSDJdTzI=

> <s_epik_cmdline>
J2VwaWtfcHl0aG9uJywgJy1waCcsICc3LjAnLCAnLXRuJywgJzgnLCAnLW1hJywgJzIwMCcsICctbWV0YWxfYmluZGluZycsICctaW1hZScsICc8aW5maWxlLm1hZT4nLCAnLW9tYWUnLCAnPG91dGZpbGUubWFlPic=

> <r_lp_tautomer_probability>
1

> <r_epik_Ionization_Penalty>
1.29225

> <r_epik_Ionization_Penalty_Charging>
0

> <r_epik_Ionization_Penalty_Neutral>
1.29225

> <r_epik_State_Penalty>
1.3654

> <r_epik_Charging_Adjusted_Penalty>
1.3654

> <i_epik_Tot_Q>
0

> <i_epik_Tot_abs_Q>
0

> <r_epik_Metal_State_Penalty>
0.00531989

> <b_epik_Metal_Only>
0

> <s_lp_Force_Field>
OPLS_2005

> <r_lp_Energy>
18.1736

> <b_lp_Chiralities_Consistent>
1

> <s_lp_Variant>
AV-unprocessed.smi:3198-3

> <Gold.Version>
5.8.1

> <Gold.Id.Protein>
6NUR|6NUR_protein|mol2

> <Gold.PLP.Fitness>
38.0142

> <Gold.PLP.PLP>
-34.3697

> <Gold.PLP.part.hbond>
-2.3253

> <Gold.PLP.part.metal>
0.0000

> <Gold.PLP.part.buried>
-5.6127

> <Gold.PLP.part.nonpolar>
-27.6357

> <Gold.PLP.part.repulsive>
0.1352

> <Gold.PLP.ligand.clash>
0.0000

> <Gold.PLP.ligand.torsion>
0.4231

> <Gold.PLP.Chemscore.Hbond>
1.4800

> <Gold.PLP.Chemscore.CHOScore>
0.0000

> <Gold.PLP.Chemscore.Metal>
0.0000

> <Gold.Chemscore.Hbonds>
donor molecule, donor type, donor heavy atom, donor atom, acceptor molecule, acceptor atom, score
      P1  H  6931  6943       L1    10  0.32
      P1  H  6934  6947       L1    16  1.00

> <Gold.PLP.Chemscore.Internal.Correction>
0.0506

> <Gold.Rescore>
     Score         DG    S(hbond)    S(metal)    S(lipo)     H(rot)  DE(clash)    DE(int)     intcor
     16.49     -17.04       1.61        0.00      88.47       1.63       0.04       0.50       ----

> <Gold.Chemscore.Fitness>
16.4911

> <Gold.Chemscore.DG>
-17.0354

> <Gold.Chemscore.ZeroCoef>
-5.4800

> <Gold.Chemscore.Hbond>
1.6108

> <Gold.Chemscore.Metal>
0.0000

> <Gold.Chemscore.Lipo>
88.4709

> <Gold.Chemscore.Internal_Hbond>
0.0000

> <Gold.Chemscore.DEClash>
0.0421

> <Gold.Chemscore.DEInternal>
0.5022

> <Gold.Chemscore.Rot>
1.6311

> <Gold.Chemscore.Internal.Correction>
   9.000000E+99

> <Gold.Chemscore.Hbonds>
donor molecule, donor type, donor heavy atom, donor atom, acceptor molecule, acceptor atom, score
      P1  H  6931  6943       L1    10  0.06
      P1  H  6934  6947       L1    16  0.90

> <Gold.Chemscore.Hbond.Weighted>
-5.3800

> <Gold.Chemscore.Metal.Weighted>
-0.0000

> <Gold.Chemscore.Lipo.Weighted>
-10.3511

> <Gold.Chemscore.Internal_Hbond.Weighted>
0.0000

> <Gold.Chemscore.DEClash.Weighted>
0.0421

> <Gold.Chemscore.DEInternal.Weighted>
0.5022

> <Gold.Chemscore.Rot.Weighted>
4.1757

> <Gold.Chemscore.Internal.Correction.Weighted>
   9.000000E+99

> <Gold.Protein.RotatedTorsions>
[ 6907 6896 6895 6894 ] final   59.73 input  -60.11 | X-H torsion
[ 7974 7965 7964 7962 ] final  -40.67 input  175.53 | X-H torsion
[ 8008 7997 7996 7995 ] final -170.48 input   59.86 | X-H torsion
[ 10167 10162 10161 10158 ] final    2.04 input  -65.29 | X-H torsion
[ 10718 10713 10712 10709 ] final -146.04 input   66.30 | X-H torsion
[ 10763 10752 10751 10750 ] final   66.32 input  -60.55 | X-H torsion
[ 11005 11000 10999 10996 ] final  116.39 input  -57.11 | X-H torsion

> <Gold.Protein.ActiveResidues>
 VAL166  LYS551  ARG553  GLY616  TRP617  ASP618  TYR619  PRO620  LYS621  CYS622 
 ASP623  PHE694  ASN695  SER759  ASP760  ASP761  ALA762  ILE779  LEU786  VAL792 
 PHE793  MET794  SER795  GLU796  ALA797  LYS798  CYS799  TRP800  GLU811  SER814 

> <Gold.Protein.RotatedAtoms>
  152.3940  134.6395  160.0095 H   0  0  0  0  0  0  0  0  0  0  0  0  # atno 6907 bound_to 6896
  151.6620  133.3311  159.3184 H   0  0  0  0  0  0  0  0  0  0  0  0  # atno 6908 bound_to 6896
  150.7851  134.6873  159.6522 H   0  0  0  0  0  0  0  0  0  0  0  0  # atno 6909 bound_to 6896
  146.0283  140.6764  142.9145 H   0  0  0  0  0  0  0  0  0  0  0  0  # atno 7974 bound_to 7965
  155.9189  140.1070  157.1222 H   0  0  0  0  0  0  0  0  0  0  0  0  # atno 8008 bound_to 7997
  154.4051  140.1260  156.4718 H   0  0  0  0  0  0  0  0  0  0  0  0  # atno 8009 bound_to 7997
  155.7220  140.3469  155.5022 H   0  0  0  0  0  0  0  0  0  0  0  0  # atno 8010 bound_to 7997
  140.6654  143.7193  150.7817 H   0  0  0  0  0  0  0  0  0  0  0  0  # atno 10167 bound_to 10162
  156.3900  130.7880  151.2082 H   0  0  0  0  0  0  0  0  0  0  0  0  # atno 10718 bound_to 10713
  153.0134  135.5325  154.6805 H   0  0  0  0  0  0  0  0  0  0  0  0  # atno 10763 bound_to 10752
  154.5966  135.2864  155.0582 H   0  0  0  0  0  0  0  0  0  0  0  0  # atno 10764 bound_to 10752
  154.1655  135.6540  153.5049 H   0  0  0  0  0  0  0  0  0  0  0  0  # atno 10765 bound_to 10752
  139.9040  134.9597  156.7190 H   0  0  0  0  0  0  0  0  0  0  0  0  # atno 11005 bound_to 11000
  144.7019  140.3689  143.7149 LP  0  0  0  0  0  0  0  0  0  0  0  0  # atno 17320 bound_to 7965
  145.7082  139.1678  143.2554 LP  0  0  0  0  0  0  0  0  0  0  0  0  # atno 17321 bound_to 7965
  140.0869  143.4915  152.2500 LP  0  0  0  0  0  0  0  0  0  0  0  0  # atno 17342 bound_to 10162
  139.5901  144.7547  151.3421 LP  0  0  0  0  0  0  0  0  0  0  0  0  # atno 17343 bound_to 10162
  157.7498  131.0318  150.4200 LP  0  0  0  0  0  0  0  0  0  0  0  0  # atno 17370 bound_to 10713
  156.4459  130.4001  149.6667 LP  0  0  0  0  0  0  0  0  0  0  0  0  # atno 17371 bound_to 10713
  140.7015  133.9302  155.8027 LP  0  0  0  0  0  0  0  0  0  0  0  0  # atno 17394 bound_to 11000
  141.0368  134.0678  157.3950 LP  0  0  0  0  0  0  0  0  0  0  0  0  # atno 17395 bound_to 11000

$$$$
