AV-unprocessed.smi:794|AV-procd|sdf|3759|dock2
  -GOLD-   22720 1193D 1   1.00000     0.00000
 Structure written by MMmdl.
 41 43  0  0  0  0  0  0  0  0  1 V2000
  147.0377  136.3976  163.6665 C   0  0  0  0  0  0  0  0  0  0  0  0
  147.3902  136.1007  162.2411 C   0  0  0  0  0  0  0  0  0  0  0  0
  147.8753  137.1242  161.4216 N   0  0  0  0  0  0  0  0  0  0  0  0
  148.1426  136.6975  160.1832 C   0  0  0  0  0  0  0  0  0  0  0  0
  148.6436  137.5215  159.1418 N   0  0  0  0  0  0  0  0  0  0  0  0
  149.9111  137.6354  158.7084 C   0  0  0  0  0  0  0  0  0  0  0  0
  150.8747  137.0107  159.1524 O   0  0  0  0  0  0  0  0  0  0  0  0
  150.0048  138.5377  157.7210 N   0  0  0  0  0  0  0  0  0  0  0  0
  151.2376  138.9077  157.0244 C   0  0  1  0  0  0  0  0  0  0  0  0
  151.6698  137.7753  156.0677 C   0  0  2  0  0  0  0  0  0  0  0  0
  153.1347  138.0004  155.6510 C   0  0  0  0  0  0  0  0  0  0  0  0
  153.0311  139.2153  154.7093 C   0  0  0  0  0  0  0  0  0  0  0  0
  151.5200  139.5219  154.7088 C   0  0  1  0  0  0  0  0  0  0  0  0
  150.9270  138.1206  154.7826 C   0  0  0  0  0  0  0  0  0  0  0  0
  151.1190  140.1374  156.0725 C   0  0  1  0  0  0  0  0  0  0  0  0
  149.7466  140.8484  156.0433 C   0  0  0  0  0  0  0  0  0  0  0  0
  149.7975  141.9878  155.2106 O   0  0  0  0  0  0  0  0  0  0  0  0
  147.8134  134.9909  159.9400 S   0  0  0  0  0  0  0  0  0  0  0  0
  147.2910  134.8858  161.6029 C   0  0  0  0  0  0  0  0  0  0  0  0
  146.8131  133.5928  162.1751 C   0  0  0  0  0  0  0  0  0  0  0  0
  147.6226  135.7835  164.3514 H   0  0  0  0  0  0  0  0  0  0  0  0
  145.9838  136.1963  163.8596 H   0  0  0  0  0  0  0  0  0  0  0  0
  147.2245  137.4416  163.9203 H   0  0  0  0  0  0  0  0  0  0  0  0
  147.9578  138.1002  158.6802 H   0  0  0  0  0  0  0  0  0  0  0  0
  149.1607  139.0039  157.4224 H   0  0  0  0  0  0  0  0  0  0  0  0
  152.0223  139.0766  157.7647 H   0  0  0  0  0  0  0  0  0  0  0  0
  151.4836  136.7720  156.4531 H   0  0  0  0  0  0  0  0  0  0  0  0
  153.7886  138.1862  156.5038 H   0  0  0  0  0  0  0  0  0  0  0  0
  153.5235  137.1335  155.1154 H   0  0  0  0  0  0  0  0  0  0  0  0
  153.6276  140.0616  155.0519 H   0  0  0  0  0  0  0  0  0  0  0  0
  153.3727  138.9518  153.7077 H   0  0  0  0  0  0  0  0  0  0  0  0
  151.2055  140.1067  153.8441 H   0  0  0  0  0  0  0  0  0  0  0  0
  151.2064  137.4875  153.9386 H   0  0  0  0  0  0  0  0  0  0  0  0
  149.8415  138.1095  154.8899 H   0  0  0  0  0  0  0  0  0  0  0  0
  151.8607  140.8816  156.3675 H   0  0  0  0  0  0  0  0  0  0  0  0
  148.9568  140.1843  155.6920 H   0  0  0  0  0  0  0  0  0  0  0  0
  149.4696  141.1845  157.0426 H   0  0  0  0  0  0  0  0  0  0  0  0
  149.3603  142.7011  155.6504 H   0  0  0  0  0  0  0  0  0  0  0  0
  145.8457  133.7188  162.6616 H   0  0  0  0  0  0  0  0  0  0  0  0
  147.5176  133.2156  162.9164 H   0  0  0  0  0  0  0  0  0  0  0  0
  146.7014  132.8343  161.3999 H   0  0  0  0  0  0  0  0  0  0  0  0
  1  2  1  0  0  0  0
  1 21  1  0  0  0  0
  1 22  1  0  0  0  0
  1 23  1  0  0  0  0
  2 19  2  0  0  0  0
  2  3  1  0  0  0  0
  3  4  2  0  0  0  0
  4  5  1  0  0  0  0
  4 18  1  0  0  0  0
  5  6  1  0  0  0  0
  5 24  1  0  0  0  0
  6  7  2  0  0  0  0
  6  8  1  0  0  0  0
  8  9  1  0  0  0  0
  8 25  1  0  0  0  0
  9 15  1  0  0  0  0
  9 10  1  0  0  0  0
  9 26  1  0  0  0  0
 10 14  1  0  0  0  0
 10 11  1  0  0  0  0
 10 27  1  0  0  0  0
 11 12  1  0  0  0  0
 11 28  1  0  0  0  0
 11 29  1  0  0  0  0
 12 13  1  0  0  0  0
 12 30  1  0  0  0  0
 12 31  1  0  0  0  0
 13 14  1  0  0  0  0
 13 15  1  0  0  0  0
 13 32  1  0  0  0  0
 14 33  1  0  0  0  0
 14 34  1  0  0  0  0
 15 16  1  0  0  0  0
 15 35  1  0  0  0  0
 16 17  1  0  0  0  0
 16 36  1  0  0  0  0
 16 37  1  0  0  0  0
 17 38  1  0  0  0  0
 18 19  1  0  0  0  0
 19 20  1  0  0  0  0
 20 39  1  0  0  0  0
 20 40  1  0  0  0  0
 20 41  1  0  0  0  0
M  END
> <s_m_source_file>
AV-unprocessed.smi

> <i_m_source_file_index>
794

> <i_lp_mmshare_version>
43012

> <i_f3d_flags>
0

> <s_epik_input>
W0NIM11jMW5jKHNjMVtDSDNdKVtOSF1DKD1PKVtOSF1bQ0BIXShbQ0BASF0yMylbQ0BIXShbQ0gyXVtPSF0pW0NAQEhdKFtDSDJdMylbQ0gyXVtDSDJdMg==

> <s_epik_cmdline>
J2VwaWtfcHl0aG9uJywgJy1waCcsICc3LjAnLCAnLXRuJywgJzgnLCAnLW1hJywgJzIwMCcsICctbWV0YWxfYmluZGluZycsICctaW1hZScsICc8aW5maWxlLm1hZT4nLCAnLW9tYWUnLCAnPG91dGZpbGUubWFlPic=

> <r_lp_tautomer_probability>
0.999

> <r_epik_Ionization_Penalty>
0.000713029

> <r_epik_Ionization_Penalty_Charging>
0

> <r_epik_Ionization_Penalty_Neutral>
0.000713029

> <r_epik_State_Penalty>
0.000177984

> <r_epik_Charging_Adjusted_Penalty>
0.000177984

> <i_epik_Tot_Q>
0

> <i_epik_Tot_abs_Q>
0

> <r_epik_Metal_State_Penalty>
-0

> <b_epik_Metal_Only>
0

> <s_lp_Force_Field>
OPLS_2005

> <r_lp_Energy>
48.0104

> <b_lp_Chiralities_Consistent>
1

> <s_lp_Variant>
AV-unprocessed.smi:794-4

> <Gold.Version>
5.8.1

> <Gold.Id.Protein>
6NUR|6NUR_protein|mol2

> <Gold.PLP.Fitness>
39.9729

> <Gold.PLP.PLP>
-31.7363

> <Gold.PLP.part.hbond>
-4.1399

> <Gold.PLP.part.metal>
0.0000

> <Gold.PLP.part.buried>
2.1612

> <Gold.PLP.part.nonpolar>
-29.8362

> <Gold.PLP.part.repulsive>
0.2779

> <Gold.PLP.ligand.clash>
0.0000

> <Gold.PLP.ligand.torsion>
0.8606

> <Gold.PLP.Chemscore.Hbond>
3.3149

> <Gold.PLP.Chemscore.CHOScore>
0.0000

> <Gold.PLP.Chemscore.Metal>
0.0000

> <Gold.Chemscore.Hbonds>
donor molecule, donor type, donor heavy atom, donor atom, acceptor molecule, acceptor atom, score
      L1  H    17    38       P1  8028  0.84
      P1  H  6896  6909       L1     7  0.94
      P1  H  6931  6943       L1     3  1.00
      P1  H  6934  6947       L1     3  0.59

> <Gold.PLP.Chemscore.Internal.Correction>
0.0133

> <Gold.Rescore>
     Score         DG    S(hbond)    S(metal)    S(lipo)     H(rot)  DE(clash)    DE(int)     intcor
     17.84     -20.44       2.61        0.00      92.43       1.78       1.78       0.82       ----

> <Gold.Chemscore.Fitness>
17.8393

> <Gold.Chemscore.DG>
-20.4407

> <Gold.Chemscore.ZeroCoef>
-5.4800

> <Gold.Chemscore.Hbond>
2.6055

> <Gold.Chemscore.Metal>
0.0000

> <Gold.Chemscore.Lipo>
92.4323

> <Gold.Chemscore.Internal_Hbond>
0.0000

> <Gold.Chemscore.DEClash>
1.7830

> <Gold.Chemscore.DEInternal>
0.8184

> <Gold.Chemscore.Rot>
1.7798

> <Gold.Chemscore.Internal.Correction>
   9.000000E+99

> <Gold.Chemscore.Hbonds>
donor molecule, donor type, donor heavy atom, donor atom, acceptor molecule, acceptor atom, score
      L1  H    17    38       P1  8028  0.79
      P1  H  6896  6909       L1     7  0.90
      P1  H  6931  6943       L1     3  0.72
      P1  H  6934  6947       L1     3  0.11

> <Gold.Chemscore.Hbond.Weighted>
-8.7023

> <Gold.Chemscore.Metal.Weighted>
-0.0000

> <Gold.Chemscore.Lipo.Weighted>
-10.8146

> <Gold.Chemscore.Internal_Hbond.Weighted>
0.0000

> <Gold.Chemscore.DEClash.Weighted>
1.7830

> <Gold.Chemscore.DEInternal.Weighted>
0.8184

> <Gold.Chemscore.Rot.Weighted>
4.5562

> <Gold.Chemscore.Internal.Correction.Weighted>
   9.000000E+99

> <Gold.Protein.RotatedTorsions>
[ 6907 6896 6895 6894 ] final   99.18 input  -60.11 | X-H torsion
[ 7974 7965 7964 7962 ] final  -18.13 input  175.53 | X-H torsion
[ 8008 7997 7996 7995 ] final  -30.89 input   59.86 | X-H torsion
[ 10167 10162 10161 10158 ] final  -87.19 input  -65.29 | X-H torsion
[ 10718 10713 10712 10709 ] final   76.32 input   66.30 | X-H torsion
[ 10763 10752 10751 10750 ] final   96.56 input  -60.55 | X-H torsion
[ 11005 11000 10999 10996 ] final  -14.98 input  -57.11 | X-H torsion

> <Gold.Protein.ActiveResidues>
 VAL166  LYS551  ARG553  GLY616  TRP617  ASP618  TYR619  PRO620  LYS621  CYS622 
 ASP623  PHE694  ASN695  SER759  ASP760  ASP761  ALA762  ILE779  LEU786  VAL792 
 PHE793  MET794  SER795  GLU796  ALA797  LYS798  CYS799  TRP800  GLU811  SER814 

> <Gold.Protein.RotatedAtoms>
  152.5396  134.0468  159.8091 H   0  0  0  0  0  0  0  0  0  0  0  0  # atno 6907 bound_to 6896
  151.0615  133.5532  159.2641 H   0  0  0  0  0  0  0  0  0  0  0  0  # atno 6908 bound_to 6896
  151.2429  135.0603  159.9086 H   0  0  0  0  0  0  0  0  0  0  0  0  # atno 6909 bound_to 6896
  146.1907  140.3877  142.8459 H   0  0  0  0  0  0  0  0  0  0  0  0  # atno 7974 bound_to 7965
  154.4233  140.1779  156.1479 H   0  0  0  0  0  0  0  0  0  0  0  0  # atno 8008 bound_to 7997
  155.9939  140.3366  155.6754 H   0  0  0  0  0  0  0  0  0  0  0  0  # atno 8009 bound_to 7997
  155.6336  140.0672  157.2632 H   0  0  0  0  0  0  0  0  0  0  0  0  # atno 8010 bound_to 7997
  140.3869  143.2723  151.9314 H   0  0  0  0  0  0  0  0  0  0  0  0  # atno 10167 bound_to 10162
  157.6669  130.9768  150.1480 H   0  0  0  0  0  0  0  0  0  0  0  0  # atno 10718 bound_to 10713
  153.2664  135.4214  155.0945 H   0  0  0  0  0  0  0  0  0  0  0  0  # atno 10763 bound_to 10752
  154.8439  135.3461  154.6306 H   0  0  0  0  0  0  0  0  0  0  0  0  # atno 10764 bound_to 10752
  153.6725  135.7043  153.5200 H   0  0  0  0  0  0  0  0  0  0  0  0  # atno 10765 bound_to 10752
  140.7920  133.8281  155.9388 H   0  0  0  0  0  0  0  0  0  0  0  0  # atno 11005 bound_to 11000
  144.8482  140.6961  143.6185 LP  0  0  0  0  0  0  0  0  0  0  0  0  # atno 17320 bound_to 7965
  145.3800  139.1639  143.4286 LP  0  0  0  0  0  0  0  0  0  0  0  0  # atno 17321 bound_to 7965
  139.4791  144.5765  151.8002 LP  0  0  0  0  0  0  0  0  0  0  0  0  # atno 17342 bound_to 10162
  140.4880  144.1352  150.5945 LP  0  0  0  0  0  0  0  0  0  0  0  0  # atno 17343 bound_to 10162
  156.2286  130.3680  149.8471 LP  0  0  0  0  0  0  0  0  0  0  0  0  # atno 17370 bound_to 10713
  156.6304  130.8663  151.3494 LP  0  0  0  0  0  0  0  0  0  0  0  0  # atno 17371 bound_to 10713
  140.9380  134.1937  157.4817 LP  0  0  0  0  0  0  0  0  0  0  0  0  # atno 17394 bound_to 11000
  139.8730  134.9860  156.5307 LP  0  0  0  0  0  0  0  0  0  0  0  0  # atno 17395 bound_to 11000

$$$$
