AV-unprocessed.smi:585|AV-procd|sdf|3000|dock5
  -GOLD-   2262023503D 1   1.00000     0.00000
 Structure written by MMmdl.
 38 39  0  0  0  0  0  0  0  0  1 V2000
  145.6585  143.6568  153.5640 C   0  0  0  0  0  0  0  0  0  0  0  0
  145.9483  142.3494  154.0251 O   0  0  0  0  0  0  0  0  0  0  0  0
  147.3094  141.9960  153.8436 C   0  0  0  0  0  0  0  0  0  0  0  0
  147.4264  140.4957  153.5372 C   0  0  0  0  0  0  0  0  0  0  0  0
  148.8121  140.0426  153.4921 N   0  0  0  0  0  0  0  0  0  0  0  0
  149.6159  140.0177  154.6413 C   0  0  0  0  0  0  0  0  0  0  0  0
  148.9942  140.1799  155.8987 C   0  0  0  0  0  0  0  0  0  0  0  0
  149.7906  140.1606  157.0605 C   0  0  0  0  0  0  0  0  0  0  0  0
  151.1785  139.9791  156.9152 C   0  0  0  0  0  0  0  0  0  0  0  0
  152.2352  139.9527  158.3549 S   0  0  0  0  0  0  0  0  0  0  0  0
  151.4335  139.4824  159.4956 O   0  0  0  0  0  0  0  0  0  0  0  0
  153.5073  139.2931  158.0212 O   0  0  0  0  0  0  0  0  0  0  0  0
  152.5556  141.6350  158.6022 N   0  0  0  0  0  0  0  0  0  0  0  0
  151.5416  142.6196  158.2042 C   0  0  0  0  0  0  0  0  0  0  0  0
  151.3979  143.5669  159.3959 C   0  0  0  0  0  0  0  0  0  0  0  0
  152.7694  143.5151  160.0544 C   0  0  0  0  0  0  0  0  0  0  0  0
  153.1991  142.0626  159.8512 C   0  0  0  0  0  0  0  0  0  0  0  0
  151.7165  139.8277  155.6224 C   0  0  0  0  0  0  0  0  0  0  0  0
  150.9544  139.8507  154.5077 N   0  0  0  0  0  0  0  0  0  0  0  0
  144.6012  143.8728  153.7166 H   0  0  0  0  0  0  0  0  0  0  0  0
  145.8727  143.7572  152.4991 H   0  0  0  0  0  0  0  0  0  0  0  0
  146.2366  144.4035  154.1099 H   0  0  0  0  0  0  0  0  0  0  0  0
  147.7111  142.5643  153.0033 H   0  0  0  0  0  0  0  0  0  0  0  0
  147.9019  142.2561  154.7226 H   0  0  0  0  0  0  0  0  0  0  0  0
  146.8315  139.9061  154.2353 H   0  0  0  0  0  0  0  0  0  0  0  0
  147.0040  140.3068  152.5502 H   0  0  0  0  0  0  0  0  0  0  0  0
  149.2552  139.9643  152.5884 H   0  0  0  0  0  0  0  0  0  0  0  0
  147.9253  140.3161  155.9762 H   0  0  0  0  0  0  0  0  0  0  0  0
  149.3449  140.2838  158.0365 H   0  0  0  0  0  0  0  0  0  0  0  0
  151.8963  143.1519  157.3210 H   0  0  0  0  0  0  0  0  0  0  0  0
  150.5942  142.1396  157.9564 H   0  0  0  0  0  0  0  0  0  0  0  0
  151.1064  144.5754  159.1013 H   0  0  0  0  0  0  0  0  0  0  0  0
  150.6424  143.1847  160.0841 H   0  0  0  0  0  0  0  0  0  0  0  0
  153.4568  144.1827  159.5329 H   0  0  0  0  0  0  0  0  0  0  0  0
  152.7470  143.8064  161.1050 H   0  0  0  0  0  0  0  0  0  0  0  0
  152.8391  141.4473  160.6764 H   0  0  0  0  0  0  0  0  0  0  0  0
  154.2818  141.9499  159.7892 H   0  0  0  0  0  0  0  0  0  0  0  0
  152.7771  139.6924  155.4710 H   0  0  0  0  0  0  0  0  0  0  0  0
  1  2  1  0  0  0  0
  1 20  1  0  0  0  0
  1 21  1  0  0  0  0
  1 22  1  0  0  0  0
  2  3  1  0  0  0  0
  3  4  1  0  0  0  0
  3 23  1  0  0  0  0
  3 24  1  0  0  0  0
  4  5  1  0  0  0  0
  4 25  1  0  0  0  0
  4 26  1  0  0  0  0
  5  6  1  0  0  0  0
  5 27  1  0  0  0  0
  6 19  1  0  0  0  0
  6  7  2  0  0  0  0
  7  8  1  0  0  0  0
  7 28  1  0  0  0  0
  8  9  2  0  0  0  0
  8 29  1  0  0  0  0
  9 10  1  0  0  0  0
  9 18  1  0  0  0  0
 10 11  2  0  0  0  0
 10 12  2  0  0  0  0
 10 13  1  0  0  0  0
 13 17  1  0  0  0  0
 13 14  1  0  0  0  0
 14 15  1  0  0  0  0
 14 30  1  0  0  0  0
 14 31  1  0  0  0  0
 15 16  1  0  0  0  0
 15 32  1  0  0  0  0
 15 33  1  0  0  0  0
 16 17  1  0  0  0  0
 16 34  1  0  0  0  0
 16 35  1  0  0  0  0
 17 36  1  0  0  0  0
 17 37  1  0  0  0  0
 18 19  2  0  0  0  0
 18 38  1  0  0  0  0
M  END
> <s_m_source_file>
AV-unprocessed.smi

> <i_m_source_file_index>
585

> <i_lp_mmshare_version>
43012

> <i_f3d_flags>
0

> <s_epik_input>
W0NIM11PW0NIMl1bQ0gyXVtOSF1jMVtjSF1bY0hdYyhbY0hdbjEpUyg9TykoPU8pTjJbQ0gyXVtDSDJdW0NIMl1bQ0gyXTI=

> <s_epik_cmdline>
J2VwaWtfcHl0aG9uJywgJy1waCcsICc3LjAnLCAnLXRuJywgJzgnLCAnLW1hJywgJzIwMCcsICctbWV0YWxfYmluZGluZycsICctaW1hZScsICc8aW5maWxlLm1hZT4nLCAnLW9tYWUnLCAnPG91dGZpbGUubWFlPic=

> <r_lp_tautomer_probability>
1

> <r_epik_Ionization_Penalty>
0.000380006

> <r_epik_Ionization_Penalty_Charging>
0

> <r_epik_Ionization_Penalty_Neutral>
0.000380006

> <r_epik_State_Penalty>
0.000231905

> <r_epik_Charging_Adjusted_Penalty>
0.000231905

> <i_epik_Tot_Q>
0

> <i_epik_Tot_abs_Q>
0

> <r_epik_Metal_State_Penalty>
-0

> <b_epik_Metal_Only>
0

> <s_lp_Force_Field>
OPLS_2005

> <r_lp_Energy>
14.2821

> <b_lp_Chiralities_Consistent>
1

> <s_lp_Variant>
AV-unprocessed.smi:585-1

> <Gold.Version>
5.8.1

> <Gold.Id.Protein>
6NUR|6NUR_protein|mol2

> <Gold.PLP.Fitness>
43.5970

> <Gold.PLP.PLP>
-36.0683

> <Gold.PLP.part.hbond>
-3.3575

> <Gold.PLP.part.metal>
0.0000

> <Gold.PLP.part.buried>
-5.7104

> <Gold.PLP.part.nonpolar>
-28.3136

> <Gold.PLP.part.repulsive>
0.4300

> <Gold.PLP.ligand.clash>
0.0000

> <Gold.PLP.ligand.torsion>
1.9931

> <Gold.PLP.Chemscore.Hbond>
2.9750

> <Gold.PLP.Chemscore.CHOScore>
0.0000

> <Gold.PLP.Chemscore.Metal>
0.0000

> <Gold.Chemscore.Hbonds>
donor molecule, donor type, donor heavy atom, donor atom, acceptor molecule, acceptor atom, score
      L1  H     5    27       P1  7957  0.86
      P1  H  7989  7998       L1    19  1.00
      P1  H  7997  8010       L1    12  1.00

> <Gold.PLP.Chemscore.Internal.Correction>
2.5899

> <Gold.Rescore>
     Score         DG    S(hbond)    S(metal)    S(lipo)     H(rot)  DE(clash)    DE(int)     intcor
     17.65     -20.12       2.69        0.00      83.49       1.61       0.43       2.04       ----

> <Gold.Chemscore.Fitness>
17.6505

> <Gold.Chemscore.DG>
-20.1232

> <Gold.Chemscore.ZeroCoef>
-5.4800

> <Gold.Chemscore.Hbond>
2.6913

> <Gold.Chemscore.Metal>
0.0000

> <Gold.Chemscore.Lipo>
83.4859

> <Gold.Chemscore.Internal_Hbond>
0.0000

> <Gold.Chemscore.DEClash>
0.4312

> <Gold.Chemscore.DEInternal>
2.0415

> <Gold.Chemscore.Rot>
1.6068

> <Gold.Chemscore.Internal.Correction>
   9.000000E+99

> <Gold.Chemscore.Hbonds>
donor molecule, donor type, donor heavy atom, donor atom, acceptor molecule, acceptor atom, score
      L1  H     5    27       P1  7957  0.84
      P1  H  7989  7998       L1    19  0.52
      P1  H  7997  8010       L1    12  0.98

> <Gold.Chemscore.Hbond.Weighted>
-8.9888

> <Gold.Chemscore.Metal.Weighted>
-0.0000

> <Gold.Chemscore.Lipo.Weighted>
-9.7678

> <Gold.Chemscore.Internal_Hbond.Weighted>
0.0000

> <Gold.Chemscore.DEClash.Weighted>
0.4312

> <Gold.Chemscore.DEInternal.Weighted>
2.0415

> <Gold.Chemscore.Rot.Weighted>
4.1135

> <Gold.Chemscore.Internal.Correction.Weighted>
   9.000000E+99

> <Gold.Protein.RotatedTorsions>
[ 6907 6896 6895 6894 ] final -171.63 input  -60.11 | X-H torsion
[ 7974 7965 7964 7962 ] final   -8.44 input  175.53 | X-H torsion
[ 8008 7997 7996 7995 ] final   34.89 input   59.86 | X-H torsion
[ 10167 10162 10161 10158 ] final  145.10 input  -65.29 | X-H torsion
[ 10718 10713 10712 10709 ] final -131.83 input   66.30 | X-H torsion
[ 10763 10752 10751 10750 ] final  -92.13 input  -60.55 | X-H torsion
[ 11005 11000 10999 10996 ] final  -71.85 input  -57.11 | X-H torsion

> <Gold.Protein.ActiveResidues>
 VAL166  LYS551  ARG553  GLY616  TRP617  ASP618  TYR619  PRO620  LYS621  CYS622 
 ASP623  PHE694  ASN695  SER759  ASP760  ASP761  ALA762  ILE779  LEU786  VAL792 
 PHE793  MET794  SER795  GLU796  ALA797  LYS798  CYS799  TRP800  GLU811  SER814 

> <Gold.Protein.RotatedAtoms>
  151.5269  133.3456  159.2911 H   0  0  0  0  0  0  0  0  0  0  0  0  # atno 6907 bound_to 6896
  150.8617  134.7973  159.7099 H   0  0  0  0  0  0  0  0  0  0  0  0  # atno 6908 bound_to 6896
  152.4635  134.5139  159.9814 H   0  0  0  0  0  0  0  0  0  0  0  0  # atno 6909 bound_to 6896
  146.2280  140.2468  142.8345 H   0  0  0  0  0  0  0  0  0  0  0  0  # atno 7974 bound_to 7965
  155.1621  140.3284  155.4409 H   0  0  0  0  0  0  0  0  0  0  0  0  # atno 8008 bound_to 7997
  156.2539  140.1958  156.6679 H   0  0  0  0  0  0  0  0  0  0  0  0  # atno 8009 bound_to 7997
  154.6397  140.0572  156.9817 H   0  0  0  0  0  0  0  0  0  0  0  0  # atno 8010 bound_to 7997
  139.4933  144.5926  151.6650 H   0  0  0  0  0  0  0  0  0  0  0  0  # atno 10167 bound_to 10162
  156.2284  130.7022  151.0832 H   0  0  0  0  0  0  0  0  0  0  0  0  # atno 10718 bound_to 10713
  154.6830  135.5242  153.8289 H   0  0  0  0  0  0  0  0  0  0  0  0  # atno 10763 bound_to 10752
  153.0578  135.6557  154.0544 H   0  0  0  0  0  0  0  0  0  0  0  0  # atno 10764 bound_to 10752
  154.0429  135.2975  155.3332 H   0  0  0  0  0  0  0  0  0  0  0  0  # atno 10765 bound_to 10752
  141.1599  133.6829  156.6969 H   0  0  0  0  0  0  0  0  0  0  0  0  # atno 11005 bound_to 11000
  144.9442  140.8111  143.5611 LP  0  0  0  0  0  0  0  0  0  0  0  0  # atno 17320 bound_to 7965
  145.2422  139.2067  143.4986 LP  0  0  0  0  0  0  0  0  0  0  0  0  # atno 17321 bound_to 7965
  140.5556  144.0354  150.6146 LP  0  0  0  0  0  0  0  0  0  0  0  0  # atno 17342 bound_to 10162
  140.3422  143.3012  152.0576 LP  0  0  0  0  0  0  0  0  0  0  0  0  # atno 17343 bound_to 10162
  157.7121  131.0729  150.6461 LP  0  0  0  0  0  0  0  0  0  0  0  0  # atno 17370 bound_to 10713
  156.6528  130.4490  149.5714 LP  0  0  0  0  0  0  0  0  0  0  0  0  # atno 17371 bound_to 10713
  140.2988  134.8180  157.4080 LP  0  0  0  0  0  0  0  0  0  0  0  0  # atno 17394 bound_to 11000
  140.1280  134.5132  155.8128 LP  0  0  0  0  0  0  0  0  0  0  0  0  # atno 17395 bound_to 11000

$$$$
