AV-unprocessed.smi:576|AV-procd|sdf|2978|dock6
  -GOLD-   2262023483D 1   1.00000     0.00000
 Structure written by MMmdl.
 35 36  0  0  0  0  0  0  0  0  1 V2000
  147.7262  139.4587  155.4477 C   0  0  0  0  0  0  0  0  0  0  0  0
  148.6005  140.3940  154.5966 C   0  0  2  0  0  0  0  0  0  0  0  0
  149.9696  140.3886  155.1027 N   0  0  0  0  0  0  0  0  0  0  0  0
  150.3482  140.7605  156.3353 C   0  0  0  0  0  0  0  0  0  0  0  0
  149.5574  141.1467  157.1972 O   0  0  0  0  0  0  0  0  0  0  0  0
  151.8503  140.6602  156.6365 C   0  0  0  0  0  0  0  0  0  0  0  0
  152.2120  141.1915  157.9613 N   0  0  0  0  0  0  0  0  0  0  0  0
  151.7191  142.4677  158.2983 C   0  0  0  0  0  0  0  0  0  0  0  0
  151.9705  143.0618  159.4807 C   0  0  0  0  0  0  0  0  0  0  0  0
  151.4756  144.4658  159.7917 C   0  0  0  0  0  0  0  0  0  0  0  0
  151.9194  145.3170  158.8678 F   0  0  0  0  0  0  0  0  0  0  0  0
  150.1433  144.5155  159.7969 F   0  0  0  0  0  0  0  0  0  0  0  0
  151.9149  144.8791  160.9812 F   0  0  0  0  0  0  0  0  0  0  0  0
  152.8154  142.3296  160.4037 C   0  0  0  0  0  0  0  0  0  0  0  0
  153.3055  141.1138  160.0920 C   0  0  0  0  0  0  0  0  0  0  0  0
  153.0094  140.4739  158.8082 C   0  0  0  0  0  0  0  0  0  0  0  0
  153.4512  139.3633  158.5121 O   0  0  0  0  0  0  0  0  0  0  0  0
  148.0071  141.7894  154.5473 C   0  0  0  0  0  0  0  0  0  0  0  0
  146.7999  142.1526  155.3784 C   0  0  0  0  0  0  0  0  0  0  0  0
  146.6815  142.0512  153.8741 C   0  0  0  0  0  0  0  0  0  0  0  0
  146.7056  139.4226  155.0661 H   0  0  0  0  0  0  0  0  0  0  0  0
  147.6816  139.7925  156.4849 H   0  0  0  0  0  0  0  0  0  0  0  0
  148.1118  138.4386  155.4427 H   0  0  0  0  0  0  0  0  0  0  0  0
  148.6087  140.0104  153.5745 H   0  0  0  0  0  0  0  0  0  0  0  0
  150.6870  140.0801  154.4624 H   0  0  0  0  0  0  0  0  0  0  0  0
  152.1435  139.6131  156.5503 H   0  0  0  0  0  0  0  0  0  0  0  0
  152.4144  141.1783  155.8585 H   0  0  0  0  0  0  0  0  0  0  0  0
  151.1295  142.9396  157.5257 H   0  0  0  0  0  0  0  0  0  0  0  0
  153.0579  142.7614  161.3635 H   0  0  0  0  0  0  0  0  0  0  0  0
  153.9306  140.5965  160.8050 H   0  0  0  0  0  0  0  0  0  0  0  0
  148.7539  142.5744  154.4415 H   0  0  0  0  0  0  0  0  0  0  0  0
  146.3358  141.3673  155.9717 H   0  0  0  0  0  0  0  0  0  0  0  0
  146.7760  143.1467  155.8200 H   0  0  0  0  0  0  0  0  0  0  0  0
  146.5781  142.9778  153.3131 H   0  0  0  0  0  0  0  0  0  0  0  0
  146.1414  141.1979  153.4686 H   0  0  0  0  0  0  0  0  0  0  0  0
  1  2  1  0  0  0  0
  1 21  1  0  0  0  0
  1 22  1  0  0  0  0
  1 23  1  0  0  0  0
  2  3  1  0  0  0  0
  2 18  1  0  0  0  0
  2 24  1  0  0  0  0
  3  4  1  0  0  0  0
  3 25  1  0  0  0  0
  4  5  2  0  0  0  0
  4  6  1  0  0  0  0
  6  7  1  0  0  0  0
  6 26  1  0  0  0  0
  6 27  1  0  0  0  0
  7 16  1  0  0  0  0
  7  8  1  0  0  0  0
  8  9  2  0  0  0  0
  8 28  1  0  0  0  0
  9 10  1  0  0  0  0
  9 14  1  0  0  0  0
 10 11  1  0  0  0  0
 10 12  1  0  0  0  0
 10 13  1  0  0  0  0
 14 15  2  0  0  0  0
 14 29  1  0  0  0  0
 15 16  1  0  0  0  0
 15 30  1  0  0  0  0
 16 17  2  0  0  0  0
 18 20  1  0  0  0  0
 18 19  1  0  0  0  0
 18 31  1  0  0  0  0
 19 20  1  0  0  0  0
 19 32  1  0  0  0  0
 19 33  1  0  0  0  0
 20 34  1  0  0  0  0
 20 35  1  0  0  0  0
M  END
> <s_m_source_file>
AV-unprocessed.smi

> <i_m_source_file_index>
576

> <i_lp_mmshare_version>
43012

> <i_f3d_flags>
0

> <s_epik_input>
W0NIMl0xW0NIMl1bQ0hdMVtDQEhdKFtDSDNdKVtOSF1DKD1PKVtDSDJdbjJbY0hdYyhDKEYpKEYpRilbY0hdW2NIXWMyPU8=

> <s_epik_cmdline>
J2VwaWtfcHl0aG9uJywgJy1waCcsICc3LjAnLCAnLXRuJywgJzgnLCAnLW1hJywgJzIwMCcsICctbWV0YWxfYmluZGluZycsICctaW1hZScsICc8aW5maWxlLm1hZT4nLCAnLW9tYWUnLCAnPG91dGZpbGUubWFlPic=

> <r_lp_tautomer_probability>
1

> <r_epik_Ionization_Penalty>
3.84201e-08

> <r_epik_Ionization_Penalty_Charging>
1.91184e-08

> <r_epik_Ionization_Penalty_Neutral>
1.93017e-08

> <r_epik_State_Penalty>
-0

> <r_epik_Charging_Adjusted_Penalty>
1.91184e-08

> <i_epik_Tot_Q>
0

> <i_epik_Tot_abs_Q>
0

> <r_epik_Metal_State_Penalty>
-0

> <b_epik_Metal_Only>
0

> <s_lp_Force_Field>
OPLS_2005

> <r_lp_Energy>
24.7521

> <b_lp_Chiralities_Consistent>
1

> <s_lp_Variant>
AV-unprocessed.smi:576-1

> <Gold.Version>
5.8.1

> <Gold.Id.Protein>
6NUR|6NUR_protein|mol2

> <Gold.PLP.Fitness>
44.8379

> <Gold.PLP.PLP>
-43.3572

> <Gold.PLP.part.hbond>
-1.0000

> <Gold.PLP.part.metal>
0.0000

> <Gold.PLP.part.buried>
-5.0534

> <Gold.PLP.part.nonpolar>
-37.0381

> <Gold.PLP.part.repulsive>
0.1952

> <Gold.PLP.ligand.clash>
0.0000

> <Gold.PLP.ligand.torsion>
0.9390

> <Gold.PLP.Chemscore.Hbond>
0.7500

> <Gold.PLP.Chemscore.CHOScore>
0.0000

> <Gold.PLP.Chemscore.Metal>
0.0000

> <Gold.Chemscore.Hbonds>
donor molecule, donor type, donor heavy atom, donor atom, acceptor molecule, acceptor atom, score
      P1  H  7997  8010       L1    17  0.75

> <Gold.PLP.Chemscore.Internal.Correction>
1.1087

> <Gold.Rescore>
     Score         DG    S(hbond)    S(metal)    S(lipo)     H(rot)  DE(clash)    DE(int)     intcor
      8.68     -12.73       0.64        0.00      82.32       1.77       0.77       3.27       ----

> <Gold.Chemscore.Fitness>
8.6822

> <Gold.Chemscore.DG>
-12.7274

> <Gold.Chemscore.ZeroCoef>
-5.4800

> <Gold.Chemscore.Hbond>
0.6392

> <Gold.Chemscore.Metal>
0.0000

> <Gold.Chemscore.Lipo>
82.3222

> <Gold.Chemscore.Internal_Hbond>
0.0000

> <Gold.Chemscore.DEClash>
0.7720

> <Gold.Chemscore.DEInternal>
3.2732

> <Gold.Chemscore.Rot>
1.7653

> <Gold.Chemscore.Internal.Correction>
   9.000000E+99

> <Gold.Chemscore.Hbonds>
donor molecule, donor type, donor heavy atom, donor atom, acceptor molecule, acceptor atom, score
      P1  H  7997  8010       L1    17  0.09

> <Gold.Chemscore.Hbond.Weighted>
-2.1349

> <Gold.Chemscore.Metal.Weighted>
-0.0000

> <Gold.Chemscore.Lipo.Weighted>
-9.6317

> <Gold.Chemscore.Internal_Hbond.Weighted>
0.0000

> <Gold.Chemscore.DEClash.Weighted>
0.7720

> <Gold.Chemscore.DEInternal.Weighted>
3.2732

> <Gold.Chemscore.Rot.Weighted>
4.5191

> <Gold.Chemscore.Internal.Correction.Weighted>
   9.000000E+99

> <Gold.Protein.RotatedTorsions>
[ 6907 6896 6895 6894 ] final  -22.24 input  -60.11 | X-H torsion
[ 7974 7965 7964 7962 ] final  146.50 input  175.53 | X-H torsion
[ 8008 7997 7996 7995 ] final   34.89 input   59.86 | X-H torsion
[ 10167 10162 10161 10158 ] final  -11.91 input  -65.29 | X-H torsion
[ 10718 10713 10712 10709 ] final  121.44 input   66.30 | X-H torsion
[ 10763 10752 10751 10750 ] final  165.35 input  -60.55 | X-H torsion
[ 11005 11000 10999 10996 ] final -134.20 input  -57.11 | X-H torsion

> <Gold.Protein.ActiveResidues>
 VAL166  LYS551  ARG553  GLY616  TRP617  ASP618  TYR619  PRO620  LYS621  CYS622 
 ASP623  PHE694  ASN695  SER759  ASP760  ASP761  ALA762  ILE779  LEU786  VAL792 
 PHE793  MET794  SER795  GLU796  ALA797  LYS798  CYS799  TRP800  GLU811  SER814 

> <Gold.Protein.RotatedAtoms>
  151.2215  135.0520  159.8951 H   0  0  0  0  0  0  0  0  0  0  0  0  # atno 6907 bound_to 6896
  152.5415  134.0635  159.8173 H   0  0  0  0  0  0  0  0  0  0  0  0  # atno 6908 bound_to 6896
  151.0802  133.5348  159.2653 H   0  0  0  0  0  0  0  0  0  0  0  0  # atno 6909 bound_to 6896
  144.8666  139.5913  143.5906 H   0  0  0  0  0  0  0  0  0  0  0  0  # atno 7974 bound_to 7965
  155.1622  140.3284  155.4409 H   0  0  0  0  0  0  0  0  0  0  0  0  # atno 8008 bound_to 7997
  156.2539  140.1958  156.6680 H   0  0  0  0  0  0  0  0  0  0  0  0  # atno 8009 bound_to 7997
  154.6396  140.0572  156.9817 H   0  0  0  0  0  0  0  0  0  0  0  0  # atno 8010 bound_to 7997
  140.7149  143.5589  150.9217 H   0  0  0  0  0  0  0  0  0  0  0  0  # atno 10167 bound_to 10162
  157.5817  131.1074  150.8174 H   0  0  0  0  0  0  0  0  0  0  0  0  # atno 10718 bound_to 10713
  154.3227  135.2755  155.2511 H   0  0  0  0  0  0  0  0  0  0  0  0  # atno 10763 bound_to 10752
  154.4857  135.5846  153.6426 H   0  0  0  0  0  0  0  0  0  0  0  0  # atno 10764 bound_to 10752
  152.9875  135.6122  154.3413 H   0  0  0  0  0  0  0  0  0  0  0  0  # atno 10765 bound_to 10752
  140.9012  134.1688  157.4459 H   0  0  0  0  0  0  0  0  0  0  0  0  # atno 11005 bound_to 11000
  146.2900  139.7112  142.9168 LP  0  0  0  0  0  0  0  0  0  0  0  0  # atno 17320 bound_to 7965
  145.4210  141.0406  143.2963 LP  0  0  0  0  0  0  0  0  0  0  0  0  # atno 17321 bound_to 7965
  139.9314  143.6488  152.3075 LP  0  0  0  0  0  0  0  0  0  0  0  0  # atno 17342 bound_to 10162
  139.6940  144.7643  151.1388 LP  0  0  0  0  0  0  0  0  0  0  0  0  # atno 17343 bound_to 10162
  156.8618  130.5116  149.5303 LP  0  0  0  0  0  0  0  0  0  0  0  0  # atno 17370 bound_to 10713
  156.0863  130.5861  150.9655 LP  0  0  0  0  0  0  0  0  0  0  0  0  # atno 17371 bound_to 10713
  139.8742  134.9898  156.5476 LP  0  0  0  0  0  0  0  0  0  0  0  0  # atno 17394 bound_to 11000
  140.8228  133.8340  155.8911 LP  0  0  0  0  0  0  0  0  0  0  0  0  # atno 17395 bound_to 11000

$$$$
