AV-unprocessed.smi:2784|AV-procd|sdf|10727|dock4
  -GOLD-   2272015163D 1   1.00000     0.00000
 Structure written by MMmdl.
 31 32  0  0  0  0  0  0  0  0  1 V2000
  148.1681  138.8150  157.1066 C   0  0  0  0  0  0  0  0  0  0  0  0
  148.4910  139.9992  156.3957 O   0  0  0  0  0  0  0  0  0  0  0  0
  148.9420  139.7660  155.0639 C   0  0  1  0  0  0  0  0  0  0  0  0
  147.8087  139.1235  154.2567 C   0  0  0  0  0  0  0  0  0  0  0  0
  146.9245  140.3005  153.8537 C   0  0  0  0  0  0  0  0  0  0  0  0
  147.8989  141.4518  153.5883 C   0  0  0  0  0  0  0  0  0  0  0  0
  149.1967  141.1121  154.3478 C   0  0  1  0  0  0  0  0  0  0  0  0
  149.5736  142.1875  155.2629 N   0  0  0  0  0  0  0  0  0  0  0  0
  150.5231  142.0925  156.2046 C   0  0  0  0  0  0  0  0  0  0  0  0
  151.1925  141.0762  156.3936 O   0  0  0  0  0  0  0  0  0  0  0  0
  150.6368  143.2360  156.9003 N   0  0  0  0  0  0  0  0  0  0  0  0
  151.5209  143.5083  157.9743 C   0  0  0  0  0  0  0  0  0  0  0  0
  151.6371  144.6610  158.6358 N   0  0  0  0  0  0  0  0  0  0  0  0
  152.6243  144.4236  159.5812 C   0  0  0  0  0  0  0  0  0  0  0  0
  153.0528  143.1292  159.4363 C   0  0  0  0  0  0  0  0  0  0  0  0
  152.3592  142.5341  158.4168 O   0  0  0  0  0  0  0  0  0  0  0  0
  147.8200  139.0744  158.1063 H   0  0  0  0  0  0  0  0  0  0  0  0
  149.0430  138.1729  157.2142 H   0  0  0  0  0  0  0  0  0  0  0  0
  147.3781  138.2484  156.6136 H   0  0  0  0  0  0  0  0  0  0  0  0
  149.8474  139.1563  155.0642 H   0  0  0  0  0  0  0  0  0  0  0  0
  148.2205  138.6560  153.3613 H   0  0  0  0  0  0  0  0  0  0  0  0
  147.2604  138.3563  154.8031 H   0  0  0  0  0  0  0  0  0  0  0  0
  146.2956  140.0763  152.9920 H   0  0  0  0  0  0  0  0  0  0  0  0
  146.2672  140.5614  154.6842 H   0  0  0  0  0  0  0  0  0  0  0  0
  148.1090  141.5250  152.5205 H   0  0  0  0  0  0  0  0  0  0  0  0
  147.4646  142.4051  153.8935 H   0  0  0  0  0  0  0  0  0  0  0  0
  149.9900  140.9763  153.6102 H   0  0  0  0  0  0  0  0  0  0  0  0
  149.0652  143.0556  155.1796 H   0  0  0  0  0  0  0  0  0  0  0  0
  150.0231  143.9922  156.6362 H   0  0  0  0  0  0  0  0  0  0  0  0
  152.9415  145.1867  160.2764 H   0  0  0  0  0  0  0  0  0  0  0  0
  153.7893  142.5222  159.9417 H   0  0  0  0  0  0  0  0  0  0  0  0
  1  2  1  0  0  0  0
  1 17  1  0  0  0  0
  1 18  1  0  0  0  0
  1 19  1  0  0  0  0
  2  3  1  0  0  0  0
  3  7  1  0  0  0  0
  3  4  1  0  0  0  0
  3 20  1  0  0  0  0
  4  5  1  0  0  0  0
  4 21  1  0  0  0  0
  4 22  1  0  0  0  0
  5  6  1  0  0  0  0
  5 23  1  0  0  0  0
  5 24  1  0  0  0  0
  6  7  1  0  0  0  0
  6 25  1  0  0  0  0
  6 26  1  0  0  0  0
  7  8  1  0  0  0  0
  7 27  1  0  0  0  0
  8  9  1  0  0  0  0
  8 28  1  0  0  0  0
  9 10  2  0  0  0  0
  9 11  1  0  0  0  0
 11 12  1  0  0  0  0
 11 29  1  0  0  0  0
 12 16  1  0  0  0  0
 12 13  2  0  0  0  0
 13 14  1  0  0  0  0
 14 15  2  0  0  0  0
 14 30  1  0  0  0  0
 15 16  1  0  0  0  0
 15 31  1  0  0  0  0
M  END
> <s_m_source_file>
AV-unprocessed.smi

> <i_m_source_file_index>
2784

> <i_lp_mmshare_version>
43012

> <i_f3d_flags>
0

> <s_epik_input>
W0NIM11PW0NAQEhdMVtDSDJdW0NIMl1bQ0gyXVtDQEhdMVtOSF1DKD1PKVtOSF1jMm5bY0hdW2NIXW8y

> <s_epik_cmdline>
J2VwaWtfcHl0aG9uJywgJy1waCcsICc3LjAnLCAnLXRuJywgJzgnLCAnLW1hJywgJzIwMCcsICctbWV0YWxfYmluZGluZycsICctaW1hZScsICc8aW5maWxlLm1hZT4nLCAnLW9tYWUnLCAnPG91dGZpbGUubWFlPic=

> <r_lp_tautomer_probability>
0.785861

> <r_epik_Ionization_Penalty>
4.58897e-05

> <r_epik_Ionization_Penalty_Charging>
0

> <r_epik_Ionization_Penalty_Neutral>
4.58897e-05

> <r_epik_State_Penalty>
0.0380021

> <r_epik_Charging_Adjusted_Penalty>
0.0380021

> <i_epik_Tot_Q>
0

> <i_epik_Tot_abs_Q>
0

> <r_epik_Metal_State_Penalty>
0.0585611

> <b_epik_Metal_Only>
0

> <s_lp_Force_Field>
OPLS_2005

> <r_lp_Energy>
20.0634

> <b_lp_Chiralities_Consistent>
1

> <s_lp_Variant>
AV-unprocessed.smi:2784-2

> <Gold.Version>
5.8.1

> <Gold.Id.Protein>
6NUR|6NUR_protein|mol2

> <Gold.PLP.Fitness>
32.8597

> <Gold.PLP.PLP>
-27.0842

> <Gold.PLP.part.hbond>
-2.0000

> <Gold.PLP.part.metal>
0.0000

> <Gold.PLP.part.buried>
-3.8421

> <Gold.PLP.part.nonpolar>
-20.4529

> <Gold.PLP.part.repulsive>
0.3504

> <Gold.PLP.ligand.clash>
0.0000

> <Gold.PLP.ligand.torsion>
0.1184

> <Gold.PLP.Chemscore.Hbond>
2.0000

> <Gold.PLP.Chemscore.CHOScore>
0.0000

> <Gold.PLP.Chemscore.Metal>
0.0000

> <Gold.Chemscore.Hbonds>
donor molecule, donor type, donor heavy atom, donor atom, acceptor molecule, acceptor atom, score
      L1  H     8    28       P1  8028  0.99
      L1  H    11    29       P1  8028  1.00

> <Gold.PLP.Chemscore.Internal.Correction>
0.0123

> <Gold.Rescore>
     Score         DG    S(hbond)    S(metal)    S(lipo)     H(rot)  DE(clash)    DE(int)     intcor
     12.23     -15.01       1.86        0.00      57.32       1.32       0.79       2.00       ----

> <Gold.Chemscore.Fitness>
12.2318

> <Gold.Chemscore.DG>
-15.0141

> <Gold.Chemscore.ZeroCoef>
-5.4800

> <Gold.Chemscore.Hbond>
1.8609

> <Gold.Chemscore.Metal>
0.0000

> <Gold.Chemscore.Lipo>
57.3243

> <Gold.Chemscore.Internal_Hbond>
0.0000

> <Gold.Chemscore.DEClash>
0.7860

> <Gold.Chemscore.DEInternal>
1.9963

> <Gold.Chemscore.Rot>
1.3235

> <Gold.Chemscore.Internal.Correction>
   9.000000E+99

> <Gold.Chemscore.Hbonds>
donor molecule, donor type, donor heavy atom, donor atom, acceptor molecule, acceptor atom, score
      L1  H     8    28       P1  8028  0.93
      L1  H    11    29       P1  8028  0.98

> <Gold.Chemscore.Hbond.Weighted>
-6.2153

> <Gold.Chemscore.Metal.Weighted>
-0.0000

> <Gold.Chemscore.Lipo.Weighted>
-6.7069

> <Gold.Chemscore.Internal_Hbond.Weighted>
0.0000

> <Gold.Chemscore.DEClash.Weighted>
0.7860

> <Gold.Chemscore.DEInternal.Weighted>
1.9963

> <Gold.Chemscore.Rot.Weighted>
3.3882

> <Gold.Chemscore.Internal.Correction.Weighted>
   9.000000E+99

> <Gold.Protein.RotatedTorsions>
[ 6907 6896 6895 6894 ] final  -84.90 input  -60.11 | X-H torsion
[ 7974 7965 7964 7962 ] final -170.97 input  175.53 | X-H torsion
[ 8008 7997 7996 7995 ] final  100.53 input   59.86 | X-H torsion
[ 10167 10162 10161 10158 ] final  -98.77 input  -65.29 | X-H torsion
[ 10718 10713 10712 10709 ] final -152.31 input   66.30 | X-H torsion
[ 10763 10752 10751 10750 ] final  -83.75 input  -60.55 | X-H torsion
[ 11005 11000 10999 10996 ] final   37.46 input  -57.11 | X-H torsion

> <Gold.Protein.ActiveResidues>
 VAL166  LYS551  ARG553  GLY616  TRP617  ASP618  TYR619  PRO620  LYS621  CYS622 
 ASP623  PHE694  ASN695  SER759  ASP760  ASP761  ALA762  ILE779  LEU786  VAL792 
 PHE793  MET794  SER795  GLU796  ALA797  LYS798  CYS799  TRP800  GLU811  SER814 

> <Gold.Protein.RotatedAtoms>
  150.6873  134.3287  159.4817 H   0  0  0  0  0  0  0  0  0  0  0  0  # atno 6907 bound_to 6896
  152.1154  134.9241  160.0574 H   0  0  0  0  0  0  0  0  0  0  0  0  # atno 6908 bound_to 6896
  152.0468  133.3966  159.4397 H   0  0  0  0  0  0  0  0  0  0  0  0  # atno 6909 bound_to 6896
  144.7163  140.1992  143.6340 H   0  0  0  0  0  0  0  0  0  0  0  0  # atno 7974 bound_to 7965
  156.1212  140.3212  155.8211 H   0  0  0  0  0  0  0  0  0  0  0  0  # atno 8008 bound_to 7997
  155.4501  140.0532  157.3019 H   0  0  0  0  0  0  0  0  0  0  0  0  # atno 8009 bound_to 7997
  154.4829  140.2060  155.9736 H   0  0  0  0  0  0  0  0  0  0  0  0  # atno 8010 bound_to 7997
  140.2694  143.3354  152.0549 H   0  0  0  0  0  0  0  0  0  0  0  0  # atno 10167 bound_to 10162
  156.4708  130.8257  151.2487 H   0  0  0  0  0  0  0  0  0  0  0  0  # atno 10718 bound_to 10713
  154.5914  135.5545  153.7282 H   0  0  0  0  0  0  0  0  0  0  0  0  # atno 10763 bound_to 10752
  153.0118  135.6344  154.1844 H   0  0  0  0  0  0  0  0  0  0  0  0  # atno 10764 bound_to 10752
  154.1784  135.2888  155.3039 H   0  0  0  0  0  0  0  0  0  0  0  0  # atno 10765 bound_to 10752
  140.2223  134.3626  155.7999 H   0  0  0  0  0  0  0  0  0  0  0  0  # atno 11005 bound_to 11000
  145.8696  139.2265  143.1669 LP  0  0  0  0  0  0  0  0  0  0  0  0  # atno 17320 bound_to 7965
  146.0097  140.8446  142.9977 LP  0  0  0  0  0  0  0  0  0  0  0  0  # atno 17321 bound_to 7965
  139.4993  144.6666  151.6342 LP  0  0  0  0  0  0  0  0  0  0  0  0  # atno 17342 bound_to 10162
  140.5901  143.9794  150.6320 LP  0  0  0  0  0  0  0  0  0  0  0  0  # atno 17343 bound_to 10162
  157.7491  131.0077  150.3199 LP  0  0  0  0  0  0  0  0  0  0  0  0  # atno 17370 bound_to 10713
  156.3620  130.3848  149.7243 LP  0  0  0  0  0  0  0  0  0  0  0  0  # atno 17371 bound_to 10713
  141.2222  133.7200  156.8596 LP  0  0  0  0  0  0  0  0  0  0  0  0  # atno 17394 bound_to 11000
  140.1836  134.9015  157.2978 LP  0  0  0  0  0  0  0  0  0  0  0  0  # atno 17395 bound_to 11000

$$$$
