AV-unprocessed.smi:1518|AV-procd|sdf|6127|dock2
  -GOLD-   22720 6263D 1   1.00000     0.00000
 Structure written by MMmdl.
 46 48  0  0  0  0  0  0  0  0  2 V2000
  146.8912  131.9097  161.6765 C   0  0  0  0  0  0  0  0  0  0  0  0
  147.3417  132.9342  160.6363 C   0  0  0  0  0  0  0  0  0  0  0  0
  147.4883  132.5653  159.4716 O   0  0  0  0  0  0  0  0  0  0  0  0
  147.5809  134.3344  161.0918 C   0  0  0  0  0  0  0  0  0  0  0  0
  147.2332  134.6986  162.4123 C   0  0  0  0  0  0  0  0  0  0  0  0
  147.4484  136.0109  162.8702 C   0  0  0  0  0  0  0  0  0  0  0  0
  148.0133  136.9719  162.0132 C   0  0  0  0  0  0  0  0  0  0  0  0
  148.3699  136.6362  160.6926 C   0  0  0  0  0  0  0  0  0  0  0  0
  148.9194  137.6402  159.9245 O   0  0  0  0  0  0  0  0  0  0  0  0
  148.9894  137.4570  158.5158 C   0  0  0  0  0  0  0  0  0  0  0  0
  149.0931  138.8207  157.8135 C   0  0  1  0  0  0  0  0  0  0  0  0
  148.2211  139.7392  158.4417 O   0  0  0  0  0  0  0  0  0  0  0  0
  150.5341  139.3644  157.7337 C   0  0  0  0  0  0  0  0  0  0  0  0
  150.5971  140.7335  157.1966 N   0  0  0  0  0  0  0  0  0  0  0  0
  150.0148  141.2700  156.0851 C   0  0  0  0  0  0  0  0  0  0  0  0
  149.1305  140.5716  155.1050 C   0  0  0  0  0  0  0  0  0  0  0  0
  149.5783  140.7216  153.7761 O   0  0  0  0  0  0  0  0  0  0  0  0
  150.3794  142.5820  156.0316 N   0  3  0  0  0  0  0  0  0  0  0  0
  151.2016  142.8892  157.1161 C   0  0  0  0  0  0  0  0  0  0  0  0
  151.8135  144.0834  157.4845 C   0  0  0  0  0  0  0  0  0  0  0  0
  152.5900  144.0599  158.6616 C   0  0  0  0  0  0  0  0  0  0  0  0
  152.7334  142.8816  159.4225 C   0  0  0  0  0  0  0  0  0  0  0  0
  152.1090  141.6769  159.0380 C   0  0  0  0  0  0  0  0  0  0  0  0
  151.3446  141.7071  157.8713 C   0  0  0  0  0  0  0  0  0  0  0  0
  148.1491  135.3108  160.2377 C   0  0  0  0  0  0  0  0  0  0  0  0
  145.9374  132.2037  162.1145 H   0  0  0  0  0  0  0  0  0  0  0  0
  147.6313  131.8208  162.4718 H   0  0  0  0  0  0  0  0  0  0  0  0
  146.7663  130.9291  161.2167 H   0  0  0  0  0  0  0  0  0  0  0  0
  146.7976  133.9762  163.0878 H   0  0  0  0  0  0  0  0  0  0  0  0
  147.1797  136.2806  163.8808 H   0  0  0  0  0  0  0  0  0  0  0  0
  148.1751  137.9776  162.3729 H   0  0  0  0  0  0  0  0  0  0  0  0
  149.8811  136.8752  158.2768 H   0  0  0  0  0  0  0  0  0  0  0  0
  148.1231  136.9038  158.1481 H   0  0  0  0  0  0  0  0  0  0  0  0
  148.7148  138.6958  156.7986 H   0  0  0  0  0  0  0  0  0  0  0  0
  148.4757  140.6142  158.1907 H   0  0  0  0  0  0  0  0  0  0  0  0
  151.0255  139.3393  158.7061 H   0  0  0  0  0  0  0  0  0  0  0  0
  151.1336  138.7299  157.0808 H   0  0  0  0  0  0  0  0  0  0  0  0
  149.0904  139.5093  155.3469 H   0  0  0  0  0  0  0  0  0  0  0  0
  148.1137  140.9553  155.1869 H   0  0  0  0  0  0  0  0  0  0  0  0
  149.2789  139.9804  153.2718 H   0  0  0  0  0  0  0  0  0  0  0  0
  151.7030  144.9880  156.9045 H   0  0  0  0  0  0  0  0  0  0  0  0
  153.0833  144.9638  158.9884 H   0  0  0  0  0  0  0  0  0  0  0  0
  153.3335  142.9015  160.3207 H   0  0  0  0  0  0  0  0  0  0  0  0
  152.2210  140.7827  159.6330 H   0  0  0  0  0  0  0  0  0  0  0  0
  148.4165  135.0390  159.2291 H   0  0  0  0  0  0  0  0  0  0  0  0
  150.0804  143.2204  155.3058 H   0  0  0  0  0  0  0  0  0  0  0  0
  1  2  1  0  0  0  0
  1 26  1  0  0  0  0
  1 27  1  0  0  0  0
  1 28  1  0  0  0  0
  2  3  2  0  0  0  0
  2  4  1  0  0  0  0
  4 25  1  0  0  0  0
  4  5  2  0  0  0  0
  5  6  1  0  0  0  0
  5 29  1  0  0  0  0
  6  7  2  0  0  0  0
  6 30  1  0  0  0  0
  7  8  1  0  0  0  0
  7 31  1  0  0  0  0
  8  9  1  0  0  0  0
  8 25  2  0  0  0  0
  9 10  1  0  0  0  0
 10 11  1  0  0  0  0
 10 32  1  0  0  0  0
 10 33  1  0  0  0  0
 11 12  1  0  0  0  0
 11 13  1  0  0  0  0
 11 34  1  0  0  0  0
 12 35  1  0  0  0  0
 13 14  1  0  0  0  0
 13 36  1  0  0  0  0
 13 37  1  0  0  0  0
 14 24  1  0  0  0  0
 14 15  1  0  0  0  0
 15 16  1  0  0  0  0
 15 18  2  0  0  0  0
 16 17  1  0  0  0  0
 16 38  1  0  0  0  0
 16 39  1  0  0  0  0
 17 40  1  0  0  0  0
 18 19  1  0  0  0  0
 18 46  1  0  0  0  0
 19 24  2  0  0  0  0
 19 20  1  0  0  0  0
 20 21  2  0  0  0  0
 20 41  1  0  0  0  0
 21 22  1  0  0  0  0
 21 42  1  0  0  0  0
 22 23  2  0  0  0  0
 22 43  1  0  0  0  0
 23 24  1  0  0  0  0
 23 44  1  0  0  0  0
 25 45  1  0  0  0  0
M  CHG  1  18   1
M  END
> <s_m_source_file>
AV-unprocessed.smi

> <i_m_source_file_index>
1518

> <i_lp_mmshare_version>
43012

> <i_f3d_flags>
0

> <s_epik_input>
W0NIM11DKD1PKWMxW2NIXVtjSF1bY0hdYyhbY0hdMSlPW0NIMl1bQ0BIXShbT0hdKVtDSDJdbihjKG4yKVtDSDJdW09IXSljKGMyMylbY0hdW2NIXVtjSF1bY0hdMw==

> <s_epik_cmdline>
J2VwaWtfcHl0aG9uJywgJy1waCcsICc3LjAnLCAnLXRuJywgJzgnLCAnLW1hJywgJzIwMCcsICctbWV0YWxfYmluZGluZycsICctaW1hZScsICc8aW5maWxlLm1hZT4nLCAnLW9tYWUnLCAnPG91dGZpbGUubWFlPic=

> <r_lp_tautomer_probability>
0.99995

> <r_epik_Ionization_Penalty>
1.40416

> <r_epik_Ionization_Penalty_Charging>
1.4033

> <r_epik_Ionization_Penalty_Neutral>
0.000858184

> <r_epik_State_Penalty>
1.48564

> <r_epik_Charging_Adjusted_Penalty>
2.88894

> <i_epik_Tot_Q>
1

> <i_epik_Tot_abs_Q>
1

> <r_epik_Metal_State_Penalty>
5.52809

> <b_epik_Metal_Only>
0

> <s_lp_Force_Field>
OPLS_2005

> <r_lp_Energy>
25.8835

> <b_lp_Chiralities_Consistent>
1

> <s_lp_Variant>
AV-unprocessed.smi:1518-4

> <Gold.Version>
5.8.1

> <Gold.Id.Protein>
6NUR|6NUR_protein|mol2

> <Gold.PLP.Fitness>
60.0345

> <Gold.PLP.PLP>
-52.1952

> <Gold.PLP.part.hbond>
-6.4955

> <Gold.PLP.part.metal>
0.0000

> <Gold.PLP.part.buried>
-3.4539

> <Gold.PLP.part.nonpolar>
-43.1556

> <Gold.PLP.part.repulsive>
0.1236

> <Gold.PLP.ligand.clash>
0.0000

> <Gold.PLP.ligand.torsion>
0.7502

> <Gold.PLP.Chemscore.Hbond>
2.9848

> <Gold.PLP.Chemscore.CHOScore>
0.0000

> <Gold.PLP.Chemscore.Metal>
0.0000

> <Gold.Chemscore.Hbonds>
donor molecule, donor type, donor heavy atom, donor atom, acceptor molecule, acceptor atom, score
      L1  H    17    40       P1  7957  0.25
      L1  H    18    46       P1  8028  0.93
      P1  H  7989  7998       L1    17  0.46
      P1  H  8011  8017       L1    17  0.49

> <Gold.PLP.Chemscore.Internal.Correction>
0.3852

> <Gold.Rescore>
     Score         DG    S(hbond)    S(metal)    S(lipo)     H(rot)  DE(clash)    DE(int)     intcor
     15.77     -16.51       1.53        0.00     123.67       3.34       0.07       0.67       ----

> <Gold.Chemscore.Fitness>
15.7731

> <Gold.Chemscore.DG>
-16.5117

> <Gold.Chemscore.ZeroCoef>
-5.4800

> <Gold.Chemscore.Hbond>
1.5298

> <Gold.Chemscore.Metal>
0.0000

> <Gold.Chemscore.Lipo>
123.6690

> <Gold.Chemscore.Internal_Hbond>
0.0000

> <Gold.Chemscore.DEClash>
0.0650

> <Gold.Chemscore.DEInternal>
0.6736

> <Gold.Chemscore.Rot>
3.3387

> <Gold.Chemscore.Internal.Correction>
   9.000000E+99

> <Gold.Chemscore.Hbonds>
donor molecule, donor type, donor heavy atom, donor atom, acceptor molecule, acceptor atom, score
      L1  H    17    40       P1  7957  0.25
      L1  H    18    46       P1  8028  0.46
      P1  H  7989  7998       L1    17  0.25
      P1  H  8011  8017       L1    17  0.27

> <Gold.Chemscore.Hbond.Weighted>
-5.1096

> <Gold.Chemscore.Metal.Weighted>
-0.0000

> <Gold.Chemscore.Lipo.Weighted>
-14.4693

> <Gold.Chemscore.Internal_Hbond.Weighted>
0.0000

> <Gold.Chemscore.DEClash.Weighted>
0.0650

> <Gold.Chemscore.DEInternal.Weighted>
0.6736

> <Gold.Chemscore.Rot.Weighted>
8.5471

> <Gold.Chemscore.Internal.Correction.Weighted>
   9.000000E+99

> <Gold.Protein.RotatedTorsions>
[ 6907 6896 6895 6894 ] final   52.67 input  -60.11 | X-H torsion
[ 7974 7965 7964 7962 ] final   65.42 input  175.53 | X-H torsion
[ 8008 7997 7996 7995 ] final  168.87 input   59.86 | X-H torsion
[ 10167 10162 10161 10158 ] final -132.54 input  -65.29 | X-H torsion
[ 10718 10713 10712 10709 ] final   96.48 input   66.30 | X-H torsion
[ 10763 10752 10751 10750 ] final -138.16 input  -60.55 | X-H torsion
[ 11005 11000 10999 10996 ] final  -78.33 input  -57.11 | X-H torsion

> <Gold.Protein.ActiveResidues>
 VAL166  LYS551  ARG553  GLY616  TRP617  ASP618  TYR619  PRO620  LYS621  CYS622 
 ASP623  PHE694  ASN695  SER759  ASP760  ASP761  ALA762  ILE779  LEU786  VAL792 
 PHE793  MET794  SER795  GLU796  ALA797  LYS798  CYS799  TRP800  GLU811  SER814 

> <Gold.Protein.RotatedAtoms>
  152.3257  134.7323  160.0302 H   0  0  0  0  0  0  0  0  0  0  0  0  # atno 6907 bound_to 6896
  151.7757  133.3340  159.3465 H   0  0  0  0  0  0  0  0  0  0  0  0  # atno 6908 bound_to 6896
  150.7394  134.5909  159.6031 H   0  0  0  0  0  0  0  0  0  0  0  0  # atno 6909 bound_to 6896
  145.8386  139.3182  143.0945 H   0  0  0  0  0  0  0  0  0  0  0  0  # atno 7974 bound_to 7965
  156.1508  140.1579  156.8773 H   0  0  0  0  0  0  0  0  0  0  0  0  # atno 8008 bound_to 7997
  154.5069  140.0810  156.7950 H   0  0  0  0  0  0  0  0  0  0  0  0  # atno 8009 bound_to 7997
  155.3899  140.3409  155.4253 H   0  0  0  0  0  0  0  0  0  0  0  0  # atno 8010 bound_to 7997
  139.9075  143.6534  152.2582 H   0  0  0  0  0  0  0  0  0  0  0  0  # atno 10167 bound_to 10162
  157.6926  131.0579  150.4498 H   0  0  0  0  0  0  0  0  0  0  0  0  # atno 10718 bound_to 10713
  154.8644  135.3620  154.5341 H   0  0  0  0  0  0  0  0  0  0  0  0  # atno 10763 bound_to 10752
  153.5965  135.7014  153.5406 H   0  0  0  0  0  0  0  0  0  0  0  0  # atno 10764 bound_to 10752
  153.3328  135.4119  155.1470 H   0  0  0  0  0  0  0  0  0  0  0  0  # atno 10765 bound_to 10752
  141.1664  133.7059  156.7956 H   0  0  0  0  0  0  0  0  0  0  0  0  # atno 11005 bound_to 11000
  145.9490  140.8922  143.0268 LP  0  0  0  0  0  0  0  0  0  0  0  0  # atno 17320 bound_to 7965
  144.6735  140.1654  143.7419 LP  0  0  0  0  0  0  0  0  0  0  0  0  # atno 17321 bound_to 7965
  139.6971  144.7640  151.1337 LP  0  0  0  0  0  0  0  0  0  0  0  0  # atno 17342 bound_to 10162
  140.7693  143.5508  150.9207 LP  0  0  0  0  0  0  0  0  0  0  0  0  # atno 17343 bound_to 10162
  156.4850  130.4082  149.6439 LP  0  0  0  0  0  0  0  0  0  0  0  0  # atno 17370 bound_to 10713
  156.3471  130.7412  151.2366 LP  0  0  0  0  0  0  0  0  0  0  0  0  # atno 17371 bound_to 10713
  140.2294  134.8697  157.3460 LP  0  0  0  0  0  0  0  0  0  0  0  0  # atno 17394 bound_to 11000
  140.1907  134.4375  155.7718 LP  0  0  0  0  0  0  0  0  0  0  0  0  # atno 17395 bound_to 11000

$$$$
