AV-unprocessed.smi:2208|AV-procd|sdf|8946|dock3
  -GOLD-   2272012163D 1   1.00000     0.00000
 Structure written by MMmdl.
 35 36  0  0  0  0  0  0  0  0  1 V2000
  151.0391  136.9066  155.7621 C   0  0  0  0  0  0  0  0  0  0  0  0
  150.9002  138.3940  155.6040 C   0  0  0  0  0  0  0  0  0  0  0  0
  150.7349  138.8958  154.3920 N   0  0  0  0  0  0  0  0  0  0  0  0
  150.6218  140.2788  154.5604 O   0  0  0  0  0  0  0  0  0  0  0  0
  150.7254  140.5598  155.8836 C   0  0  0  0  0  0  0  0  0  0  0  0
  150.6108  141.9962  156.2679 C   0  0  0  0  0  0  0  0  0  0  0  0
  150.9080  139.4103  156.6039 C   0  0  0  0  0  0  0  0  0  0  0  0
  151.0620  139.2529  158.0959 C   0  0  0  0  0  0  0  0  0  0  0  0
  152.3038  140.0141  158.5565 C   0  0  0  0  0  0  0  0  0  0  0  0
  153.4126  139.7073  158.1192 O   0  0  0  0  0  0  0  0  0  0  0  0
  152.1047  140.9853  159.4604 N   0  0  0  0  0  0  0  0  0  0  0  0
  153.1570  141.7519  160.1146 C   0  0  0  0  0  0  0  0  0  0  0  0
  152.8113  143.2494  160.1420 C   0  0  1  0  0  0  0  0  0  0  0  0
  152.7564  143.8977  158.7622 C   0  0  0  0  0  0  0  0  0  0  0  0
  151.9107  145.1205  159.0401 C   0  0  0  0  0  0  0  0  0  0  0  0
  150.9057  144.5987  160.0662 C   0  0  0  0  0  0  0  0  0  0  0  0
  151.5052  143.4550  160.6712 O   0  0  0  0  0  0  0  0  0  0  0  0
  150.1111  136.3985  155.4988 H   0  0  0  0  0  0  0  0  0  0  0  0
  151.2840  136.6303  156.7870 H   0  0  0  0  0  0  0  0  0  0  0  0
  151.8278  136.5155  155.1189 H   0  0  0  0  0  0  0  0  0  0  0  0
  149.5657  142.3042  156.2930 H   0  0  0  0  0  0  0  0  0  0  0  0
  151.1345  142.6327  155.5546 H   0  0  0  0  0  0  0  0  0  0  0  0
  151.0386  142.1742  157.2546 H   0  0  0  0  0  0  0  0  0  0  0  0
  150.1955  139.6334  158.6365 H   0  0  0  0  0  0  0  0  0  0  0  0
  151.1487  138.2025  158.3771 H   0  0  0  0  0  0  0  0  0  0  0  0
  151.1578  141.1650  159.7615 H   0  0  0  0  0  0  0  0  0  0  0  0
  153.3176  141.3803  161.1281 H   0  0  0  0  0  0  0  0  0  0  0  0
  154.0892  141.5906  159.5727 H   0  0  0  0  0  0  0  0  0  0  0  0
  153.5225  143.7961  160.7640 H   0  0  0  0  0  0  0  0  0  0  0  0
  153.7428  144.1403  158.3661 H   0  0  0  0  0  0  0  0  0  0  0  0
  152.2493  143.2460  158.0493 H   0  0  0  0  0  0  0  0  0  0  0  0
  152.5265  145.9033  159.4853 H   0  0  0  0  0  0  0  0  0  0  0  0
  151.4365  145.5272  158.1466 H   0  0  0  0  0  0  0  0  0  0  0  0
  150.6590  145.3534  160.8130 H   0  0  0  0  0  0  0  0  0  0  0  0
  149.9804  144.2887  159.5800 H   0  0  0  0  0  0  0  0  0  0  0  0
  1  2  1  0  0  0  0
  1 18  1  0  0  0  0
  1 19  1  0  0  0  0
  1 20  1  0  0  0  0
  2  7  1  0  0  0  0
  2  3  2  0  0  0  0
  3  4  1  0  0  0  0
  4  5  1  0  0  0  0
  5  6  1  0  0  0  0
  5  7  2  0  0  0  0
  6 21  1  0  0  0  0
  6 22  1  0  0  0  0
  6 23  1  0  0  0  0
  7  8  1  0  0  0  0
  8  9  1  0  0  0  0
  8 24  1  0  0  0  0
  8 25  1  0  0  0  0
  9 10  2  0  0  0  0
  9 11  1  0  0  0  0
 11 12  1  0  0  0  0
 11 26  1  0  0  0  0
 12 13  1  0  0  0  0
 12 27  1  0  0  0  0
 12 28  1  0  0  0  0
 13 17  1  0  0  0  0
 13 14  1  0  0  0  0
 13 29  1  0  0  0  0
 14 15  1  0  0  0  0
 14 30  1  0  0  0  0
 14 31  1  0  0  0  0
 15 16  1  0  0  0  0
 15 32  1  0  0  0  0
 15 33  1  0  0  0  0
 16 17  1  0  0  0  0
 16 34  1  0  0  0  0
 16 35  1  0  0  0  0
M  END
> <s_m_source_file>
AV-unprocessed.smi

> <i_m_source_file_index>
2208

> <i_lp_mmshare_version>
43012

> <i_f3d_flags>
0

> <s_epik_input>
W0NIM11jMW5vYyhbQ0gzXSljMVtDSDJdQyg9TylbTkhdW0NIMl1bQ0BASF0yW0NIMl1bQ0gyXVtDSDJdTzI=

> <s_epik_cmdline>
J2VwaWtfcHl0aG9uJywgJy1waCcsICc3LjAnLCAnLXRuJywgJzgnLCAnLW1hJywgJzIwMCcsICctbWV0YWxfYmluZGluZycsICctaW1hZScsICc8aW5maWxlLm1hZT4nLCAnLW9tYWUnLCAnPG91dGZpbGUubWFlPic=

> <r_lp_tautomer_probability>
1

> <r_epik_Ionization_Penalty>
3.13901e-08

> <r_epik_Ionization_Penalty_Charging>
0

> <r_epik_Ionization_Penalty_Neutral>
3.13901e-08

> <r_epik_State_Penalty>
-0

> <r_epik_Charging_Adjusted_Penalty>
0

> <i_epik_Tot_Q>
0

> <i_epik_Tot_abs_Q>
0

> <r_epik_Metal_State_Penalty>
-0

> <b_epik_Metal_Only>
0

> <s_lp_Force_Field>
OPLS_2005

> <r_lp_Energy>
10.5641

> <b_lp_Chiralities_Consistent>
1

> <s_lp_Variant>
AV-unprocessed.smi:2208-2

> <Gold.Version>
5.8.1

> <Gold.Id.Protein>
6NUR|6NUR_protein|mol2

> <Gold.PLP.Fitness>
42.7913

> <Gold.PLP.PLP>
-37.0596

> <Gold.PLP.part.hbond>
-2.2715

> <Gold.PLP.part.metal>
0.0000

> <Gold.PLP.part.buried>
-6.6079

> <Gold.PLP.part.nonpolar>
-29.1530

> <Gold.PLP.part.repulsive>
0.5077

> <Gold.PLP.ligand.clash>
0.0000

> <Gold.PLP.ligand.torsion>
0.1263

> <Gold.PLP.Chemscore.Hbond>
1.9913

> <Gold.PLP.Chemscore.CHOScore>
0.0000

> <Gold.PLP.Chemscore.Metal>
0.0000

> <Gold.Chemscore.Hbonds>
donor molecule, donor type, donor heavy atom, donor atom, acceptor molecule, acceptor atom, score
      P1  H  7989  7998       L1     4  1.00
      P1  H  7997  8009       L1    10  1.00

> <Gold.PLP.Chemscore.Internal.Correction>
0.0106

> <Gold.Rescore>
     Score         DG    S(hbond)    S(metal)    S(lipo)     H(rot)  DE(clash)    DE(int)     intcor
     18.53     -18.62       1.94        0.00      91.10       1.56       0.00       0.09       ----

> <Gold.Chemscore.Fitness>
18.5314

> <Gold.Chemscore.DG>
-18.6243

> <Gold.Chemscore.ZeroCoef>
-5.4800

> <Gold.Chemscore.Hbond>
1.9359

> <Gold.Chemscore.Metal>
0.0000

> <Gold.Chemscore.Lipo>
91.1045

> <Gold.Chemscore.Internal_Hbond>
0.0000

> <Gold.Chemscore.DEClash>
0.0000

> <Gold.Chemscore.DEInternal>
0.0928

> <Gold.Chemscore.Rot>
1.5551

> <Gold.Chemscore.Internal.Correction>
   9.000000E+99

> <Gold.Chemscore.Hbonds>
donor molecule, donor type, donor heavy atom, donor atom, acceptor molecule, acceptor atom, score
      P1  H  7989  7998       L1     4  0.43
      P1  H  7997  8009       L1    10  0.99

> <Gold.Chemscore.Hbond.Weighted>
-6.4660

> <Gold.Chemscore.Metal.Weighted>
-0.0000

> <Gold.Chemscore.Lipo.Weighted>
-10.6592

> <Gold.Chemscore.Internal_Hbond.Weighted>
0.0000

> <Gold.Chemscore.DEClash.Weighted>
0.0000

> <Gold.Chemscore.DEInternal.Weighted>
0.0928

> <Gold.Chemscore.Rot.Weighted>
3.9809

> <Gold.Chemscore.Internal.Correction.Weighted>
   9.000000E+99

> <Gold.Protein.RotatedTorsions>
[ 6907 6896 6895 6894 ] final -100.93 input  -60.11 | X-H torsion
[ 7974 7965 7964 7962 ] final   25.79 input  175.53 | X-H torsion
[ 8008 7997 7996 7995 ] final  161.12 input   59.86 | X-H torsion
[ 10167 10162 10161 10158 ] final -103.61 input  -65.29 | X-H torsion
[ 10718 10713 10712 10709 ] final -135.55 input   66.30 | X-H torsion
[ 10763 10752 10751 10750 ] final  -19.80 input  -60.55 | X-H torsion
[ 11005 11000 10999 10996 ] final  -89.83 input  -57.11 | X-H torsion

> <Gold.Protein.ActiveResidues>
 VAL166  LYS551  ARG553  GLY616  TRP617  ASP618  TYR619  PRO620  LYS621  CYS622 
 ASP623  PHE694  ASN695  SER759  ASP760  ASP761  ALA762  ILE779  LEU786  VAL792 
 PHE793  MET794  SER795  GLU796  ALA797  LYS798  CYS799  TRP800  GLU811  SER814 

> <Gold.Protein.RotatedAtoms>
  150.7135  134.0812  159.3898 H   0  0  0  0  0  0  0  0  0  0  0  0  # atno 6907 bound_to 6896
  151.8796  135.0456  160.0496 H   0  0  0  0  0  0  0  0  0  0  0  0  # atno 6908 bound_to 6896
  152.2579  133.5236  159.5400 H   0  0  0  0  0  0  0  0  0  0  0  0  # atno 6909 bound_to 6896
  146.1871  139.7417  142.8859 H   0  0  0  0  0  0  0  0  0  0  0  0  # atno 7974 bound_to 7965
  156.2125  140.1786  156.7663 H   0  0  0  0  0  0  0  0  0  0  0  0  # atno 8008 bound_to 7997
  154.5743  140.0677  156.9041 H   0  0  0  0  0  0  0  0  0  0  0  0  # atno 8009 bound_to 7997
  155.2616  140.3336  155.4275 H   0  0  0  0  0  0  0  0  0  0  0  0  # atno 8010 bound_to 7997
  140.2181  143.3696  152.0993 H   0  0  0  0  0  0  0  0  0  0  0  0  # atno 10167 bound_to 10162
  156.2674  130.7245  151.1201 H   0  0  0  0  0  0  0  0  0  0  0  0  # atno 10718 bound_to 10713
  153.6104  135.6996  153.5349 H   0  0  0  0  0  0  0  0  0  0  0  0  # atno 10763 bound_to 10752
  153.3021  135.4126  155.1261 H   0  0  0  0  0  0  0  0  0  0  0  0  # atno 10764 bound_to 10752
  154.8564  135.3651  154.5643 H   0  0  0  0  0  0  0  0  0  0  0  0  # atno 10765 bound_to 10752
  141.1577  133.7654  156.9651 H   0  0  0  0  0  0  0  0  0  0  0  0  # atno 11005 bound_to 11000
  145.3907  141.0372  143.3126 LP  0  0  0  0  0  0  0  0  0  0  0  0  # atno 17320 bound_to 7965
  144.8416  139.5462  143.6897 LP  0  0  0  0  0  0  0  0  0  0  0  0  # atno 17321 bound_to 7965
  139.5154  144.6963  151.5622 LP  0  0  0  0  0  0  0  0  0  0  0  0  # atno 17342 bound_to 10162
  140.6275  143.9141  150.6577 LP  0  0  0  0  0  0  0  0  0  0  0  0  # atno 17343 bound_to 10162
  157.7272  131.0641  150.5876 LP  0  0  0  0  0  0  0  0  0  0  0  0  # atno 17370 bound_to 10713
  156.5969  130.4344  149.5913 LP  0  0  0  0  0  0  0  0  0  0  0  0  # atno 17371 bound_to 10713
  140.1167  134.9443  157.2144 LP  0  0  0  0  0  0  0  0  0  0  0  0  # atno 17394 bound_to 11000
  140.3124  134.3008  155.7264 LP  0  0  0  0  0  0  0  0  0  0  0  0  # atno 17395 bound_to 11000

$$$$
