AV-unprocessed.smi:550|AV-procd|sdf|2894|dock3
  -GOLD-   2262023393D 1   1.00000     0.00000
 Structure written by MMmdl.
 45 47  0  0  0  0  0  0  0  0  1 V2000
  149.2973  140.5018  156.4782 O   0  0  0  0  0  0  0  0  0  0  0  0
  149.1341  141.7044  156.2743 C   0  0  0  0  0  0  0  0  0  0  0  0
  148.3649  142.1907  155.2898 N   0  0  0  0  0  0  0  0  0  0  0  0
  147.6259  141.3910  154.3171 C   0  0  0  0  0  0  0  0  0  0  0  0
  146.1033  141.5929  154.4419 C   0  0  2  0  0  0  0  0  0  0  0  0
  145.6942  143.0683  154.2646 C   0  0  0  0  0  0  0  0  0  0  0  0
  144.2206  143.2186  154.6546 C   0  0  0  0  0  0  0  0  0  0  0  0
  143.9488  142.0271  156.0179 S   0  0  0  0  0  0  0  0  0  0  0  0
  144.0032  142.7350  157.3059 O   0  0  0  0  0  0  0  0  0  0  0  0
  142.8096  141.1617  155.6767 O   0  0  0  0  0  0  0  0  0  0  0  0
  145.5150  141.1052  155.7780 C   0  0  0  0  0  0  0  0  0  0  0  0
  149.6758  142.6963  157.0015 N   0  0  0  0  0  0  0  0  0  0  0  0
  150.5766  142.5984  158.0961 C   0  0  0  0  0  0  0  0  0  0  0  0
  150.8597  143.7674  158.8284 C   0  0  0  0  0  0  0  0  0  0  0  0
  151.7642  143.7039  159.9052 C   0  0  0  0  0  0  0  0  0  0  0  0
  152.3712  142.4655  160.2204 C   0  0  0  0  0  0  0  0  0  0  0  0
  153.2858  142.3575  161.2867 N   0  0  0  0  0  0  0  0  0  0  0  0
  154.2922  141.3077  161.3295 C   0  0  0  0  0  0  0  0  0  0  0  0
  154.9570  141.4660  162.6959 C   0  0  0  0  0  0  0  0  0  0  0  0
  153.8172  141.9757  163.5779 C   0  0  0  0  0  0  0  0  0  0  0  0
  152.9566  142.8178  162.6286 C   0  0  0  0  0  0  0  0  0  0  0  0
  152.1152  141.3454  159.5038 N   0  0  0  0  0  0  0  0  0  0  0  0
  151.2459  141.4101  158.4734 C   0  0  0  0  0  0  0  0  0  0  0  0
  148.2858  143.1934  155.2036 H   0  0  0  0  0  0  0  0  0  0  0  0
  147.9593  141.6053  153.3002 H   0  0  0  0  0  0  0  0  0  0  0  0
  147.8703  140.3443  154.4999 H   0  0  0  0  0  0  0  0  0  0  0  0
  145.6160  141.0290  153.6449 H   0  0  0  0  0  0  0  0  0  0  0  0
  146.2987  143.6902  154.9264 H   0  0  0  0  0  0  0  0  0  0  0  0
  145.8731  143.4185  153.2474 H   0  0  0  0  0  0  0  0  0  0  0  0
  143.9621  144.2276  154.9757 H   0  0  0  0  0  0  0  0  0  0  0  0
  143.5702  142.9372  153.8261 H   0  0  0  0  0  0  0  0  0  0  0  0
  145.3251  140.0318  155.7951 H   0  0  0  0  0  0  0  0  0  0  0  0
  146.1744  141.3524  156.6105 H   0  0  0  0  0  0  0  0  0  0  0  0
  149.3768  143.6321  156.7698 H   0  0  0  0  0  0  0  0  0  0  0  0
  150.3896  144.7056  158.5721 H   0  0  0  0  0  0  0  0  0  0  0  0
  151.9844  144.6006  160.4647 H   0  0  0  0  0  0  0  0  0  0  0  0
  153.8068  140.3342  161.2483 H   0  0  0  0  0  0  0  0  0  0  0  0
  155.0125  141.4052  160.5165 H   0  0  0  0  0  0  0  0  0  0  0  0
  155.4002  140.5397  163.0616 H   0  0  0  0  0  0  0  0  0  0  0  0
  155.7440  142.2194  162.6395 H   0  0  0  0  0  0  0  0  0  0  0  0
  153.2350  141.1286  163.9430 H   0  0  0  0  0  0  0  0  0  0  0  0
  154.1675  142.5388  164.4432 H   0  0  0  0  0  0  0  0  0  0  0  0
  153.2117  143.8747  162.7107 H   0  0  0  0  0  0  0  0  0  0  0  0
  151.8965  142.7007  162.8572 H   0  0  0  0  0  0  0  0  0  0  0  0
  151.1139  140.4831  157.9379 H   0  0  0  0  0  0  0  0  0  0  0  0
  1  2  2  0  0  0  0
  2  3  1  0  0  0  0
  2 12  1  0  0  0  0
  3  4  1  0  0  0  0
  3 24  1  0  0  0  0
  4  5  1  0  0  0  0
  4 25  1  0  0  0  0
  4 26  1  0  0  0  0
  5 11  1  0  0  0  0
  5  6  1  0  0  0  0
  5 27  1  0  0  0  0
  6  7  1  0  0  0  0
  6 28  1  0  0  0  0
  6 29  1  0  0  0  0
  7  8  1  0  0  0  0
  7 30  1  0  0  0  0
  7 31  1  0  0  0  0
  8  9  2  0  0  0  0
  8 10  2  0  0  0  0
  8 11  1  0  0  0  0
 11 32  1  0  0  0  0
 11 33  1  0  0  0  0
 12 13  1  0  0  0  0
 12 34  1  0  0  0  0
 13 23  1  0  0  0  0
 13 14  2  0  0  0  0
 14 15  1  0  0  0  0
 14 35  1  0  0  0  0
 15 16  2  0  0  0  0
 15 36  1  0  0  0  0
 16 17  1  0  0  0  0
 16 22  1  0  0  0  0
 17 21  1  0  0  0  0
 17 18  1  0  0  0  0
 18 19  1  0  0  0  0
 18 37  1  0  0  0  0
 18 38  1  0  0  0  0
 19 20  1  0  0  0  0
 19 39  1  0  0  0  0
 19 40  1  0  0  0  0
 20 21  1  0  0  0  0
 20 41  1  0  0  0  0
 20 42  1  0  0  0  0
 21 43  1  0  0  0  0
 21 44  1  0  0  0  0
 22 23  2  0  0  0  0
 23 45  1  0  0  0  0
M  END
> <s_m_source_file>
AV-unprocessed.smi

> <i_m_source_file_index>
550

> <i_lp_mmshare_version>
43012

> <i_f3d_flags>
0

> <s_epik_input>
Tz1TMSg9TylbQ0gyXVtDSDJdW0NASF0oW0NIMl0xKVtDSDJdW05IXUMoPU8pW05IXWMyW2NIXVtjSF1jKG5bY0hdMilOM1tDSDJdW0NIMl1bQ0gyXVtDSDJdMw==

> <s_epik_cmdline>
J2VwaWtfcHl0aG9uJywgJy1waCcsICc3LjAnLCAnLXRuJywgJzgnLCAnLW1hJywgJzIwMCcsICctbWV0YWxfYmluZGluZycsICctaW1hZScsICc8aW5maWxlLm1hZT4nLCAnLW9tYWUnLCAnPG91dGZpbGUubWFlPic=

> <r_lp_tautomer_probability>
1

> <r_epik_Ionization_Penalty>
0.0965651

> <r_epik_Ionization_Penalty_Charging>
0

> <r_epik_Ionization_Penalty_Neutral>
0.0965651

> <r_epik_State_Penalty>
0.0861592

> <r_epik_Charging_Adjusted_Penalty>
0.0861592

> <i_epik_Tot_Q>
0

> <i_epik_Tot_abs_Q>
0

> <r_epik_Metal_State_Penalty>
0.0740405

> <b_epik_Metal_Only>
0

> <s_lp_Force_Field>
OPLS_2005

> <r_lp_Energy>
29.4066

> <b_lp_Chiralities_Consistent>
1

> <s_lp_Variant>
AV-unprocessed.smi:550-1

> <Gold.Version>
5.8.1

> <Gold.Id.Protein>
6NUR|6NUR_protein|mol2

> <Gold.PLP.Fitness>
49.4083

> <Gold.PLP.PLP>
-45.4341

> <Gold.PLP.part.hbond>
-2.0000

> <Gold.PLP.part.metal>
0.0000

> <Gold.PLP.part.buried>
-2.1370

> <Gold.PLP.part.nonpolar>
-41.8661

> <Gold.PLP.part.repulsive>
0.4863

> <Gold.PLP.ligand.clash>
0.0000

> <Gold.PLP.ligand.torsion>
0.6300

> <Gold.PLP.Chemscore.Hbond>
1.6800

> <Gold.PLP.Chemscore.CHOScore>
0.0000

> <Gold.PLP.Chemscore.Metal>
0.0000

> <Gold.Chemscore.Hbonds>
donor molecule, donor type, donor heavy atom, donor atom, acceptor molecule, acceptor atom, score
      L1  H     3    24       P1  8028  0.98
      L1  H    12    34       P1  8028  1.00

> <Gold.PLP.Chemscore.Internal.Correction>
0.1942

> <Gold.Rescore>
     Score         DG    S(hbond)    S(metal)    S(lipo)     H(rot)  DE(clash)    DE(int)     intcor
     17.37     -19.48       1.82        0.00      95.16       1.25       0.04       2.07       ----

> <Gold.Chemscore.Fitness>
17.3715

> <Gold.Chemscore.DG>
-19.4833

> <Gold.Chemscore.ZeroCoef>
-5.4800

> <Gold.Chemscore.Hbond>
1.8179

> <Gold.Chemscore.Metal>
0.0000

> <Gold.Chemscore.Lipo>
95.1563

> <Gold.Chemscore.Internal_Hbond>
0.0000

> <Gold.Chemscore.DEClash>
0.0399

> <Gold.Chemscore.DEInternal>
2.0720

> <Gold.Chemscore.Rot>
1.2506

> <Gold.Chemscore.Internal.Correction>
   9.000000E+99

> <Gold.Chemscore.Hbonds>
donor molecule, donor type, donor heavy atom, donor atom, acceptor molecule, acceptor atom, score
      L1  H     3    24       P1  8028  0.91
      L1  H    12    34       P1  8028  0.91

> <Gold.Chemscore.Hbond.Weighted>
-6.0716

> <Gold.Chemscore.Metal.Weighted>
-0.0000

> <Gold.Chemscore.Lipo.Weighted>
-11.1333

> <Gold.Chemscore.Internal_Hbond.Weighted>
0.0000

> <Gold.Chemscore.DEClash.Weighted>
0.0399

> <Gold.Chemscore.DEInternal.Weighted>
2.0720

> <Gold.Chemscore.Rot.Weighted>
3.2016

> <Gold.Chemscore.Internal.Correction.Weighted>
   9.000000E+99

> <Gold.Protein.RotatedTorsions>
[ 6907 6896 6895 6894 ] final -173.78 input  -60.11 | X-H torsion
[ 7974 7965 7964 7962 ] final   95.61 input  175.53 | X-H torsion
[ 8008 7997 7996 7995 ] final  102.60 input   59.86 | X-H torsion
[ 10167 10162 10161 10158 ] final  124.95 input  -65.29 | X-H torsion
[ 10718 10713 10712 10709 ] final  111.94 input   66.30 | X-H torsion
[ 10763 10752 10751 10750 ] final   24.96 input  -60.55 | X-H torsion
[ 11005 11000 10999 10996 ] final   67.36 input  -57.11 | X-H torsion

> <Gold.Protein.ActiveResidues>
 VAL166  LYS551  ARG553  GLY616  TRP617  ASP618  TYR619  PRO620  LYS621  CYS622 
 ASP623  PHE694  ASN695  SER759  ASP760  ASP761  ALA762  ILE779  LEU786  VAL792 
 PHE793  MET794  SER795  GLU796  ALA797  LYS798  CYS799  TRP800  GLU811  SER814 

> <Gold.Protein.RotatedAtoms>
  151.5616  133.3402  159.2972 H   0  0  0  0  0  0  0  0  0  0  0  0  # atno 6907 bound_to 6896
  150.8419  134.7717  159.6950 H   0  0  0  0  0  0  0  0  0  0  0  0  # atno 6908 bound_to 6896
  152.4485  134.5452  159.9902 H   0  0  0  0  0  0  0  0  0  0  0  0  # atno 6909 bound_to 6896
  145.4499  139.2294  143.3045 H   0  0  0  0  0  0  0  0  0  0  0  0  # atno 7974 bound_to 7965
  156.1407  140.3178  155.8491 H   0  0  0  0  0  0  0  0  0  0  0  0  # atno 8008 bound_to 7997
  155.4159  140.0509  157.3046 H   0  0  0  0  0  0  0  0  0  0  0  0  # atno 8009 bound_to 7997
  154.4974  140.2116  155.9430 H   0  0  0  0  0  0  0  0  0  0  0  0  # atno 8010 bound_to 7997
  139.5713  144.6940  151.3772 H   0  0  0  0  0  0  0  0  0  0  0  0  # atno 10167 bound_to 10162
  157.6419  131.0959  150.6822 H   0  0  0  0  0  0  0  0  0  0  0  0  # atno 10718 bound_to 10713
  153.0726  135.6593  154.0215 H   0  0  0  0  0  0  0  0  0  0  0  0  # atno 10763 bound_to 10752
  153.9857  135.2951  155.3418 H   0  0  0  0  0  0  0  0  0  0  0  0  # atno 10764 bound_to 10752
  154.7104  135.5207  153.8728 H   0  0  0  0  0  0  0  0  0  0  0  0  # atno 10765 bound_to 10752
  139.9776  134.6797  156.0325 H   0  0  0  0  0  0  0  0  0  0  0  0  # atno 11005 bound_to 11000
  146.2510  140.5257  142.8893 LP  0  0  0  0  0  0  0  0  0  0  0  0  # atno 17320 bound_to 7965
  144.8068  140.6314  143.6441 LP  0  0  0  0  0  0  0  0  0  0  0  0  # atno 17321 bound_to 7965
  140.6997  143.7662  150.7383 LP  0  0  0  0  0  0  0  0  0  0  0  0  # atno 17342 bound_to 10162
  140.1169  143.4647  152.2336 LP  0  0  0  0  0  0  0  0  0  0  0  0  # atno 17343 bound_to 10162
  156.7144  130.4661  149.5539 LP  0  0  0  0  0  0  0  0  0  0  0  0  # atno 17370 bound_to 10713
  156.1708  130.6435  151.0834 LP  0  0  0  0  0  0  0  0  0  0  0  0  # atno 17371 bound_to 10713
  141.1451  133.6557  156.3844 LP  0  0  0  0  0  0  0  0  0  0  0  0  # atno 17394 bound_to 11000
  140.5163  134.6347  157.5302 LP  0  0  0  0  0  0  0  0  0  0  0  0  # atno 17395 bound_to 11000

$$$$
