AV-unprocessed.smi:145|AV-procd|sdf|1197|dock6
  -GOLD-   2262018353D 1   1.00000     0.00000
 Structure written by MMmdl.
 40 42  0  0  0  0  0  0  0  0  1 V2000
  153.1929  138.8176  157.4258 O   0  0  0  0  0  0  0  0  0  0  0  0
  151.9697  138.9386  157.5040 C   0  0  0  0  0  0  0  0  0  0  0  0
  151.0390  137.8713  156.9062 C   0  0  0  0  0  0  0  0  0  0  0  0
  149.6632  137.9084  157.4505 N   0  0  0  0  0  0  0  0  0  0  0  0
  148.6735  138.6390  156.7470 C   0  0  0  0  0  0  0  0  0  0  0  0
  148.9453  139.2511  155.7131 O   0  0  0  0  0  0  0  0  0  0  0  0
  147.3342  138.6005  157.3230 C   0  0  0  0  0  0  0  0  0  0  0  0
  146.3283  139.2519  156.7150 F   0  0  0  0  0  0  0  0  0  0  0  0
  147.0864  137.9153  158.4581 C   0  0  0  0  0  0  0  0  0  0  0  0
  148.0644  137.2250  159.1465 N   0  0  0  0  0  0  0  0  0  0  0  0
  147.6844  136.4435  160.3828 C   0  0  2  0  0  0  0  0  0  0  0  0
  146.1747  136.4670  160.6886 C   0  0  0  0  0  0  0  0  0  0  0  0
  146.1203  137.0593  162.0872 C   0  0  0  0  0  0  0  0  0  0  0  0
  147.5263  136.8040  162.6196 C   0  0  0  0  0  0  0  0  0  0  0  0
  148.3478  136.9943  161.4785 O   0  0  0  0  0  0  0  0  0  0  0  0
  149.3810  137.1815  158.6321 C   0  0  0  0  0  0  0  0  0  0  0  0
  150.2598  136.5230  159.1908 O   0  0  0  0  0  0  0  0  0  0  0  0
  151.3431  139.9855  158.0710 N   0  0  0  0  0  0  0  0  0  0  0  0
  151.9115  141.1216  158.7083 C   0  0  0  0  0  0  0  0  0  0  0  0
  153.0143  141.0513  159.5944 C   0  0  0  0  0  0  0  0  0  0  0  0
  153.5099  142.2208  160.2035 C   0  0  0  0  0  0  0  0  0  0  0  0
  152.9058  143.4649  159.9424 C   0  0  0  0  0  0  0  0  0  0  0  0
  151.7992  143.5391  159.0760 C   0  0  0  0  0  0  0  0  0  0  0  0
  150.8908  145.3833  158.6944 I   0  0  0  0  0  0  0  0  0  0  0  0
  151.3019  142.3707  158.4666 C   0  0  0  0  0  0  0  0  0  0  0  0
  151.0288  137.9878  155.8213 H   0  0  0  0  0  0  0  0  0  0  0  0
  151.4944  136.8919  157.0607 H   0  0  0  0  0  0  0  0  0  0  0  0
  146.0756  137.9137  158.8395 H   0  0  0  0  0  0  0  0  0  0  0  0
  148.0456  135.4271  160.2196 H   0  0  0  0  0  0  0  0  0  0  0  0
  145.6071  137.0447  159.9586 H   0  0  0  0  0  0  0  0  0  0  0  0
  145.8032  135.4417  160.6812 H   0  0  0  0  0  0  0  0  0  0  0  0
  145.9325  138.1319  162.0340 H   0  0  0  0  0  0  0  0  0  0  0  0
  145.3441  136.6124  162.7086 H   0  0  0  0  0  0  0  0  0  0  0  0
  147.8004  137.4798  163.4298 H   0  0  0  0  0  0  0  0  0  0  0  0
  147.6276  135.7774  162.9758 H   0  0  0  0  0  0  0  0  0  0  0  0
  150.3380  139.9996  157.9777 H   0  0  0  0  0  0  0  0  0  0  0  0
  153.4869  140.1110  159.8329 H   0  0  0  0  0  0  0  0  0  0  0  0
  154.3522  142.1611  160.8768 H   0  0  0  0  0  0  0  0  0  0  0  0
  153.2880  144.3594  160.4117 H   0  0  0  0  0  0  0  0  0  0  0  0
  150.4504  142.4385  157.8051 H   0  0  0  0  0  0  0  0  0  0  0  0
  1  2  2  0  0  0  0
  2  3  1  0  0  0  0
  2 18  1  0  0  0  0
  3  4  1  0  0  0  0
  3 26  1  0  0  0  0
  3 27  1  0  0  0  0
  4 16  1  0  0  0  0
  4  5  1  0  0  0  0
  5  6  2  0  0  0  0
  5  7  1  0  0  0  0
  7  8  1  0  0  0  0
  7  9  2  0  0  0  0
  9 10  1  0  0  0  0
  9 28  1  0  0  0  0
 10 11  1  0  0  0  0
 10 16  1  0  0  0  0
 11 15  1  0  0  0  0
 11 12  1  0  0  0  0
 11 29  1  0  0  0  0
 12 13  1  0  0  0  0
 12 30  1  0  0  0  0
 12 31  1  0  0  0  0
 13 14  1  0  0  0  0
 13 32  1  0  0  0  0
 13 33  1  0  0  0  0
 14 15  1  0  0  0  0
 14 34  1  0  0  0  0
 14 35  1  0  0  0  0
 16 17  2  0  0  0  0
 18 19  1  0  0  0  0
 18 36  1  0  0  0  0
 19 25  1  0  0  0  0
 19 20  2  0  0  0  0
 20 21  1  0  0  0  0
 20 37  1  0  0  0  0
 21 22  2  0  0  0  0
 21 38  1  0  0  0  0
 22 23  1  0  0  0  0
 22 39  1  0  0  0  0
 23 24  1  0  0  0  0
 23 25  2  0  0  0  0
 25 40  1  0  0  0  0
M  END
> <s_m_source_file>
AV-unprocessed.smi

> <i_m_source_file_index>
145

> <i_lp_mmshare_version>
43012

> <i_f3d_flags>
0

> <s_epik_input>
SWMoW2NIXTEpW2NIXVtjSF1bY0hdYzFbTkhdQyg9TylbQ0gyXW4yYyg9TyljKEYpW2NIXW4oYzI9TylbQ0BASF0zW0NIMl1bQ0gyXVtDSDJdTzM=

> <s_epik_cmdline>
J2VwaWtfcHl0aG9uJywgJy1waCcsICc3LjAnLCAnLXRuJywgJzgnLCAnLW1hJywgJzIwMCcsICctbWV0YWxfYmluZGluZycsICctaW1hZScsICc8aW5maWxlLm1hZT4nLCAnLW9tYWUnLCAnPG91dGZpbGUubWFlPic=

> <r_lp_tautomer_probability>
1

> <r_epik_Ionization_Penalty>
9.72367e-07

> <r_epik_Ionization_Penalty_Charging>
3.88729e-08

> <r_epik_Ionization_Penalty_Neutral>
9.33494e-07

> <r_epik_State_Penalty>
-0

> <r_epik_Charging_Adjusted_Penalty>
3.88729e-08

> <i_epik_Tot_Q>
0

> <i_epik_Tot_abs_Q>
0

> <r_epik_Metal_State_Penalty>
-0

> <b_epik_Metal_Only>
0

> <s_epik_Chemistry_Notes>
This compound contains an acetal/aminal-like group ( X-CH(R)-Y where X, Y are N, S, or O) that may be acid/base labile, releasing an aldehyde.

> <s_lp_Force_Field>
OPLS_2005

> <r_lp_Energy>
28.2642

> <b_lp_Chiralities_Consistent>
1

> <s_lp_Variant>
AV-unprocessed.smi:145-1

> <Gold.Version>
5.8.1

> <Gold.Id.Protein>
6NUR|6NUR_protein|mol2

> <Gold.PLP.Fitness>
48.1413

> <Gold.PLP.PLP>
-41.1664

> <Gold.PLP.part.hbond>
-3.0000

> <Gold.PLP.part.metal>
0.0000

> <Gold.PLP.part.buried>
-5.7174

> <Gold.PLP.part.nonpolar>
-31.9471

> <Gold.PLP.part.repulsive>
0.1120

> <Gold.PLP.ligand.clash>
0.0000

> <Gold.PLP.ligand.torsion>
1.0255

> <Gold.PLP.Chemscore.Hbond>
3.0000

> <Gold.PLP.Chemscore.CHOScore>
0.0000

> <Gold.PLP.Chemscore.Metal>
0.0000

> <Gold.Chemscore.Hbonds>
donor molecule, donor type, donor heavy atom, donor atom, acceptor molecule, acceptor atom, score
      P1  H  6896  6907       L1    17  1.00
      P1  H  6931  6943       L1    15  0.85
      P1  H  6934  6947       L1    15  0.01
      P1  H  7997  8008       L1     1  1.00

> <Gold.PLP.Chemscore.Internal.Correction>
0.0258

> <Gold.Rescore>
     Score         DG    S(hbond)    S(metal)    S(lipo)     H(rot)  DE(clash)    DE(int)     intcor
     20.76     -22.36       2.89        0.00      98.23       1.66       0.05       1.56       ----

> <Gold.Chemscore.Fitness>
20.7561

> <Gold.Chemscore.DG>
-22.3646

> <Gold.Chemscore.ZeroCoef>
-5.4800

> <Gold.Chemscore.Hbond>
2.8881

> <Gold.Chemscore.Metal>
0.0000

> <Gold.Chemscore.Lipo>
98.2329

> <Gold.Chemscore.Internal_Hbond>
0.0000

> <Gold.Chemscore.DEClash>
0.0533

> <Gold.Chemscore.DEInternal>
1.5552

> <Gold.Chemscore.Rot>
1.6621

> <Gold.Chemscore.Internal.Correction>
   9.000000E+99

> <Gold.Chemscore.Hbonds>
donor molecule, donor type, donor heavy atom, donor atom, acceptor molecule, acceptor atom, score
      P1  H  6896  6907       L1    17  1.00
      P1  H  6931  6943       L1    15  0.19
      P1  H  7997  8008       L1     1  1.00

> <Gold.Chemscore.Hbond.Weighted>
-9.6464

> <Gold.Chemscore.Metal.Weighted>
-0.0000

> <Gold.Chemscore.Lipo.Weighted>
-11.4932

> <Gold.Chemscore.Internal_Hbond.Weighted>
0.0000

> <Gold.Chemscore.DEClash.Weighted>
0.0533

> <Gold.Chemscore.DEInternal.Weighted>
1.5552

> <Gold.Chemscore.Rot.Weighted>
4.2550

> <Gold.Chemscore.Internal.Correction.Weighted>
   9.000000E+99

> <Gold.Protein.RotatedTorsions>
[ 6907 6896 6895 6894 ] final  -37.43 input  -60.11 | X-H torsion
[ 7974 7965 7964 7962 ] final  144.78 input  175.53 | X-H torsion
[ 8008 7997 7996 7995 ] final  -69.93 input   59.86 | X-H torsion
[ 10167 10162 10161 10158 ] final -149.64 input  -65.29 | X-H torsion
[ 10718 10713 10712 10709 ] final   54.46 input   66.30 | X-H torsion
[ 10763 10752 10751 10750 ] final -107.05 input  -60.55 | X-H torsion
[ 11005 11000 10999 10996 ] final  -85.03 input  -57.11 | X-H torsion

> <Gold.Protein.ActiveResidues>
 VAL166  LYS551  ARG553  GLY616  TRP617  ASP618  TYR619  PRO620  LYS621  CYS622 
 ASP623  PHE694  ASN695  SER759  ASP760  ASP761  ALA762  ILE779  LEU786  VAL792 
 PHE793  MET794  SER795  GLU796  ALA797  LYS798  CYS799  TRP800  GLU811  SER814 

> <Gold.Protein.RotatedAtoms>
  151.0148  134.9424  159.8026 H   0  0  0  0  0  0  0  0  0  0  0  0  # atno 6907 bound_to 6896
  152.5311  134.2981  159.9078 H   0  0  0  0  0  0  0  0  0  0  0  0  # atno 6908 bound_to 6896
  151.2988  133.4090  159.2672 H   0  0  0  0  0  0  0  0  0  0  0  0  # atno 6909 bound_to 6896
  144.8807  139.5703  143.5844 H   0  0  0  0  0  0  0  0  0  0  0  0  # atno 7974 bound_to 7965
  154.4975  140.0844  156.7727 H   0  0  0  0  0  0  0  0  0  0  0  0  # atno 8008 bound_to 7997
  155.4082  140.3440  155.4243 H   0  0  0  0  0  0  0  0  0  0  0  0  # atno 8009 bound_to 7997
  156.1413  140.1530  156.8904 H   0  0  0  0  0  0  0  0  0  0  0  0  # atno 8010 bound_to 7997
  139.7425  143.8641  152.2566 H   0  0  0  0  0  0  0  0  0  0  0  0  # atno 10167 bound_to 10162
  157.5258  130.8596  149.8620 H   0  0  0  0  0  0  0  0  0  0  0  0  # atno 10718 bound_to 10713
  154.8051  135.4689  154.0372 H   0  0  0  0  0  0  0  0  0  0  0  0  # atno 10763 bound_to 10752
  153.1847  135.6846  153.8437 H   0  0  0  0  0  0  0  0  0  0  0  0  # atno 10764 bound_to 10752
  153.7976  135.3234  155.3363 H   0  0  0  0  0  0  0  0  0  0  0  0  # atno 10765 bound_to 10752
  141.1645  133.7377  156.8955 H   0  0  0  0  0  0  0  0  0  0  0  0  # atno 11005 bound_to 11000
  146.2992  139.7374  142.9103 LP  0  0  0  0  0  0  0  0  0  0  0  0  # atno 17320 bound_to 7965
  145.3959  141.0379  143.3097 LP  0  0  0  0  0  0  0  0  0  0  0  0  # atno 17321 bound_to 7965
  139.8595  144.7124  150.9116 LP  0  0  0  0  0  0  0  0  0  0  0  0  # atno 17342 bound_to 10162
  140.7788  143.3829  151.1444 LP  0  0  0  0  0  0  0  0  0  0  0  0  # atno 17343 bound_to 10162
  156.0386  130.3745  150.1494 LP  0  0  0  0  0  0  0  0  0  0  0  0  # atno 17370 bound_to 10713
  156.9680  130.9826  151.3465 LP  0  0  0  0  0  0  0  0  0  0  0  0  # atno 17371 bound_to 10713
  140.1619  134.9160  157.2725 LP  0  0  0  0  0  0  0  0  0  0  0  0  # atno 17394 bound_to 11000
  140.2601  134.3581  155.7409 LP  0  0  0  0  0  0  0  0  0  0  0  0  # atno 17395 bound_to 11000

$$$$
