AV-unprocessed.smi:180|AV-procd|sdf|1451|dock4
  -GOLD-   2262019253D 1   1.00000     0.00000
 Structure written by MMmdl.
 54 57  0  0  0  0  0  0  0  0  1 V2000
  145.5803  133.8192  151.7542 C   0  0  0  0  0  0  0  0  0  0  0  0
  146.0252  133.6757  153.2061 C   0  0  0  0  0  0  0  0  0  0  0  0
  145.5413  134.4071  154.0691 O   0  0  0  0  0  0  0  0  0  0  0  0
  146.9457  132.7333  153.4606 N   0  0  0  0  0  0  0  0  0  0  0  0
  147.4907  132.4196  154.7788 C   0  0  0  0  0  0  0  0  0  0  0  0
  147.6572  133.6654  155.6708 C   0  0  2  0  0  0  0  0  0  0  0  0
  148.8596  134.5486  155.2770 C   0  0  0  0  0  0  0  0  0  0  0  0
  148.9827  135.6740  156.2001 N   0  0  0  0  0  0  0  0  0  0  0  0
  149.8236  136.6858  155.8635 C   0  0  0  0  0  0  0  0  0  0  0  0
  150.8656  136.4500  155.0215 N   0  0  0  0  0  0  0  0  0  0  0  0
  151.7013  137.4368  154.6853 C   0  0  0  0  0  0  0  0  0  0  0  0
  151.6773  138.7154  155.0647 N   0  0  0  0  0  0  0  0  0  0  0  0
  150.6289  138.9631  155.9006 C   0  0  0  0  0  0  0  0  0  0  0  0
  149.6659  138.0151  156.3498 C   0  0  0  0  0  0  0  0  0  0  0  0
  148.7463  138.6389  157.1851 N   0  0  0  0  0  0  0  0  0  0  0  0
  149.1494  139.8788  157.2362 C   0  0  0  0  0  0  0  0  0  0  0  0
  150.2643  140.1655  156.4814 N   0  0  0  0  0  0  0  0  0  0  0  0
  150.9209  141.4572  156.3507 C   0  0  0  0  0  0  0  0  0  0  0  0
  151.4744  142.0349  157.6785 C   0  0  0  0  0  0  0  0  0  0  0  0
  150.3318  142.3536  158.4524 O   0  0  0  0  0  0  0  0  0  0  0  0
  152.3305  141.0219  158.4697 C   0  0  0  0  0  0  0  0  0  0  0  0
  152.9424  141.6513  159.7343 C   0  0  0  0  0  0  0  0  0  0  0  0
  153.6993  142.8052  159.3872 O   0  0  0  0  0  0  0  0  0  0  0  0
  152.9090  143.8295  158.7947 C   0  0  0  0  0  0  0  0  0  0  0  0
  152.2965  143.3260  157.4752 C   0  0  0  0  0  0  0  0  0  0  0  0
  149.0333  135.2625  157.5994 C   0  0  0  0  0  0  0  0  0  0  0  0
  147.8315  134.3624  157.9287 C   0  0  0  0  0  0  0  0  0  0  0  0
  147.7957  133.2586  157.0302 O   0  0  0  0  0  0  0  0  0  0  0  0
  145.8748  132.9543  151.1584 H   0  0  0  0  0  0  0  0  0  0  0  0
  146.0268  134.7097  151.3116 H   0  0  0  0  0  0  0  0  0  0  0  0
  144.4956  133.9155  151.6991 H   0  0  0  0  0  0  0  0  0  0  0  0
  147.2866  132.1835  152.6854 H   0  0  0  0  0  0  0  0  0  0  0  0
  146.8014  131.7249  155.2591 H   0  0  0  0  0  0  0  0  0  0  0  0
  148.4398  131.8888  154.6874 H   0  0  0  0  0  0  0  0  0  0  0  0
  146.7428  134.2553  155.5852 H   0  0  0  0  0  0  0  0  0  0  0  0
  149.7836  133.9693  155.2999 H   0  0  0  0  0  0  0  0  0  0  0  0
  148.7269  134.9134  154.2575 H   0  0  0  0  0  0  0  0  0  0  0  0
  152.5031  137.1624  154.0158 H   0  0  0  0  0  0  0  0  0  0  0  0
  148.6347  140.6265  157.8223 H   0  0  0  0  0  0  0  0  0  0  0  0
  151.7272  141.3511  155.6234 H   0  0  0  0  0  0  0  0  0  0  0  0
  150.2067  142.1535  155.9086 H   0  0  0  0  0  0  0  0  0  0  0  0
  149.5970  142.4681  157.8694 H   0  0  0  0  0  0  0  0  0  0  0  0
  151.7401  140.1436  158.7333 H   0  0  0  0  0  0  0  0  0  0  0  0
  153.1511  140.6646  157.8476 H   0  0  0  0  0  0  0  0  0  0  0  0
  152.1703  141.9130  160.4595 H   0  0  0  0  0  0  0  0  0  0  0  0
  153.6028  140.9351  160.2232 H   0  0  0  0  0  0  0  0  0  0  0  0
  152.1350  144.1561  159.4909 H   0  0  0  0  0  0  0  0  0  0  0  0
  153.5444  144.6943  158.6035 H   0  0  0  0  0  0  0  0  0  0  0  0
  153.1145  143.1398  156.7797 H   0  0  0  0  0  0  0  0  0  0  0  0
  151.6810  144.1056  157.0246 H   0  0  0  0  0  0  0  0  0  0  0  0
  149.9629  134.7192  157.7741 H   0  0  0  0  0  0  0  0  0  0  0  0
  149.0373  136.1191  158.2718 H   0  0  0  0  0  0  0  0  0  0  0  0
  147.9131  133.9862  158.9485 H   0  0  0  0  0  0  0  0  0  0  0  0
  146.8977  134.9240  157.8703 H   0  0  0  0  0  0  0  0  0  0  0  0
  1  2  1  0  0  0  0
  1 29  1  0  0  0  0
  1 30  1  0  0  0  0
  1 31  1  0  0  0  0
  2  3  2  0  0  0  0
  2  4  1  0  0  0  0
  4  5  1  0  0  0  0
  4 32  1  0  0  0  0
  5  6  1  0  0  0  0
  5 33  1  0  0  0  0
  5 34  1  0  0  0  0
  6 28  1  0  0  0  0
  6  7  1  0  0  0  0
  6 35  1  0  0  0  0
  7  8  1  0  0  0  0
  7 36  1  0  0  0  0
  7 37  1  0  0  0  0
  8  9  1  0  0  0  0
  8 26  1  0  0  0  0
  9 14  1  0  0  0  0
  9 10  2  0  0  0  0
 10 11  1  0  0  0  0
 11 12  2  0  0  0  0
 11 38  1  0  0  0  0
 12 13  1  0  0  0  0
 13 17  1  0  0  0  0
 13 14  2  0  0  0  0
 14 15  1  0  0  0  0
 15 16  2  0  0  0  0
 16 17  1  0  0  0  0
 16 39  1  0  0  0  0
 17 18  1  0  0  0  0
 18 19  1  0  0  0  0
 18 40  1  0  0  0  0
 18 41  1  0  0  0  0
 19 25  1  0  0  0  0
 19 20  1  0  0  0  0
 19 21  1  0  0  0  0
 20 42  1  0  0  0  0
 21 22  1  0  0  0  0
 21 43  1  0  0  0  0
 21 44  1  0  0  0  0
 22 23  1  0  0  0  0
 22 45  1  0  0  0  0
 22 46  1  0  0  0  0
 23 24  1  0  0  0  0
 24 25  1  0  0  0  0
 24 47  1  0  0  0  0
 24 48  1  0  0  0  0
 25 49  1  0  0  0  0
 25 50  1  0  0  0  0
 26 27  1  0  0  0  0
 26 51  1  0  0  0  0
 26 52  1  0  0  0  0
 27 28  1  0  0  0  0
 27 53  1  0  0  0  0
 27 54  1  0  0  0  0
M  END
> <s_m_source_file>
AV-unprocessed.smi

> <i_m_source_file_index>
180

> <i_lp_mmshare_version>
43012

> <i_f3d_flags>
0

> <s_epik_input>
W0NIM11DKD1PKVtOSF1bQ0gyXVtDQEBIXTFbQ0gyXU4oW0NIMl1bQ0gyXU8xKWMobltjSF1uMiljKGMyMyluW2NIXW4zW0NIMl1DNChbT0hdKVtDSDJdW0NIMl1PW0NIMl1bQ0gyXTQ=

> <s_epik_cmdline>
J2VwaWtfcHl0aG9uJywgJy1waCcsICc3LjAnLCAnLXRuJywgJzgnLCAnLW1hJywgJzIwMCcsICctbWV0YWxfYmluZGluZycsICctaW1hZScsICc8aW5maWxlLm1hZT4nLCAnLW9tYWUnLCAnPG91dGZpbGUubWFlPic=

> <r_lp_tautomer_probability>
1

> <r_epik_Ionization_Penalty>
7.38871e-05

> <r_epik_Ionization_Penalty_Charging>
0

> <r_epik_Ionization_Penalty_Neutral>
7.38871e-05

> <r_epik_State_Penalty>
-0

> <r_epik_Charging_Adjusted_Penalty>
0

> <i_epik_Tot_Q>
0

> <i_epik_Tot_abs_Q>
0

> <r_epik_Metal_State_Penalty>
-0

> <b_epik_Metal_Only>
0

> <s_lp_Force_Field>
OPLS_2005

> <r_lp_Energy>
31.1245

> <b_lp_Chiralities_Consistent>
1

> <s_lp_Variant>
AV-unprocessed.smi:180-1

> <Gold.Version>
5.8.1

> <Gold.Id.Protein>
6NUR|6NUR_protein|mol2

> <Gold.PLP.Fitness>
52.8530

> <Gold.PLP.PLP>
-45.0071

> <Gold.PLP.part.hbond>
-3.2166

> <Gold.PLP.part.metal>
0.0000

> <Gold.PLP.part.buried>
-8.9297

> <Gold.PLP.part.nonpolar>
-33.4959

> <Gold.PLP.part.repulsive>
0.7024

> <Gold.PLP.ligand.clash>
0.0000

> <Gold.PLP.ligand.torsion>
0.7572

> <Gold.PLP.Chemscore.Hbond>
3.0000

> <Gold.PLP.Chemscore.CHOScore>
0.0000

> <Gold.PLP.Chemscore.Metal>
0.0000

> <Gold.PLP.Chemscore.Internal.Correction>
0.3603

> <Gold.Rescore>
     Score         DG    S(hbond)    S(metal)    S(lipo)     H(rot)  DE(clash)    DE(int)     intcor
     13.97     -16.79       2.57        0.00      88.78       2.99       0.11       2.72       ----

> <Gold.Chemscore.Fitness>
13.9651

> <Gold.Chemscore.DG>
-16.7946

> <Gold.Chemscore.ZeroCoef>
-5.4800

> <Gold.Chemscore.Hbond>
2.5683

> <Gold.Chemscore.Metal>
0.0000

> <Gold.Chemscore.Lipo>
88.7791

> <Gold.Chemscore.Internal_Hbond>
0.0000

> <Gold.Chemscore.DEClash>
0.1072

> <Gold.Chemscore.DEInternal>
2.7224

> <Gold.Chemscore.Rot>
2.9885

> <Gold.Chemscore.Internal.Correction>
   9.000000E+99

> <Gold.Chemscore.Hbond.Weighted>
-8.5781

> <Gold.Chemscore.Metal.Weighted>
-0.0000

> <Gold.Chemscore.Lipo.Weighted>
-10.3872

> <Gold.Chemscore.Internal_Hbond.Weighted>
0.0000

> <Gold.Chemscore.DEClash.Weighted>
0.1072

> <Gold.Chemscore.DEInternal.Weighted>
2.7224

> <Gold.Chemscore.Rot.Weighted>
7.6506

> <Gold.Chemscore.Internal.Correction.Weighted>
   9.000000E+99

> <Gold.Protein.RotatedTorsions>
[ 6907 6896 6895 6894 ] final   30.13 input  -60.11 | X-H torsion
[ 7974 7965 7964 7962 ] final  128.96 input  175.53 | X-H torsion
[ 8008 7997 7996 7995 ] final  -38.43 input   59.86 | X-H torsion
[ 10167 10162 10161 10158 ] final  129.00 input  -65.29 | X-H torsion
[ 10718 10713 10712 10709 ] final -109.80 input   66.30 | X-H torsion
[ 10763 10752 10751 10750 ] final   43.74 input  -60.55 | X-H torsion
[ 11005 11000 10999 10996 ] final   61.78 input  -57.11 | X-H torsion

> <Gold.Protein.ActiveResidues>
 VAL166  LYS551  ARG553  GLY616  TRP617  ASP618  TYR619  PRO620  LYS621  CYS622 
 ASP623  PHE694  ASN695  SER759  ASP760  ASP761  ALA762  ILE779  LEU786  VAL792 
 PHE793  MET794  SER795  GLU796  ALA797  LYS798  CYS799  TRP800  GLU811  SER814 

> <Gold.Protein.RotatedAtoms>
  152.0416  134.9708  160.0573 H   0  0  0  0  0  0  0  0  0  0  0  0  # atno 6907 bound_to 6896
  152.1144  133.4314  159.4654 H   0  0  0  0  0  0  0  0  0  0  0  0  # atno 6908 bound_to 6896
  150.6845  134.2528  159.4561 H   0  0  0  0  0  0  0  0  0  0  0  0  # atno 6909 bound_to 6896
  145.0338  139.4022  143.5136 H   0  0  0  0  0  0  0  0  0  0  0  0  # atno 7974 bound_to 7965
  154.4037  140.1578  156.2698 H   0  0  0  0  0  0  0  0  0  0  0  0  # atno 8008 bound_to 7997
  155.8963  140.3435  155.5971 H   0  0  0  0  0  0  0  0  0  0  0  0  # atno 8009 bound_to 7997
  155.7500  140.0803  157.2196 H   0  0  0  0  0  0  0  0  0  0  0  0  # atno 8010 bound_to 7997
  139.5499  144.6804  151.4356 H   0  0  0  0  0  0  0  0  0  0  0  0  # atno 10167 bound_to 10162
  156.0556  130.5783  150.8150 H   0  0  0  0  0  0  0  0  0  0  0  0  # atno 10718 bound_to 10713
  152.9854  135.6092  154.3160 H   0  0  0  0  0  0  0  0  0  0  0  0  # atno 10763 bound_to 10752
  154.2872  135.2775  155.2672 H   0  0  0  0  0  0  0  0  0  0  0  0  # atno 10764 bound_to 10752
  154.4984  135.5873  153.6569 H   0  0  0  0  0  0  0  0  0  0  0  0  # atno 10765 bound_to 10752
  140.0137  134.6257  155.9741 H   0  0  0  0  0  0  0  0  0  0  0  0  # atno 11005 bound_to 11000
  146.3502  139.9902  142.8686 LP  0  0  0  0  0  0  0  0  0  0  0  0  # atno 17320 bound_to 7965
  145.1736  140.9733  143.4307 LP  0  0  0  0  0  0  0  0  0  0  0  0  # atno 17321 bound_to 7965
  140.6758  143.8192  150.7057 LP  0  0  0  0  0  0  0  0  0  0  0  0  # atno 17342 bound_to 10162
  140.1630  143.4259  152.2054 LP  0  0  0  0  0  0  0  0  0  0  0  0  # atno 17343 bound_to 10162
  157.5523  131.0944  150.9677 LP  0  0  0  0  0  0  0  0  0  0  0  0  # atno 17370 bound_to 10713
  156.9934  130.5572  149.5305 LP  0  0  0  0  0  0  0  0  0  0  0  0  # atno 17371 bound_to 10713
  141.1728  133.6538  156.4717 LP  0  0  0  0  0  0  0  0  0  0  0  0  # atno 17394 bound_to 11000
  140.4508  134.6930  157.5039 LP  0  0  0  0  0  0  0  0  0  0  0  0  # atno 17395 bound_to 11000

$$$$
