AV-unprocessed.smi:861|AV-procd|sdf|3974|dock7
  -GOLD-   22720 1453D 1   1.00000     0.00000
 Structure written by MMmdl.
 45 46  0  0  0  0  0  0  0  0  3 V2000
  145.6616  132.1002  149.3146 C   0  0  0  0  0  0  0  0  0  0  0  0
  145.4942  132.5299  150.7821 C   0  0  0  0  0  0  0  0  0  0  0  0
  145.0109  131.3434  151.6310 C   0  0  0  0  0  0  0  0  0  0  0  0
  144.5473  133.7374  150.9433 C   0  0  0  0  0  0  0  0  0  0  0  0
  144.2070  134.0798  152.4073 C   0  0  0  0  0  0  0  0  0  0  0  0
  143.5714  135.4187  152.5381 N   0  3  1  0  0  0  0  0  0  0  0  0
  143.2945  135.8405  153.9352 C   0  0  0  0  0  0  0  0  0  0  0  0
  144.5695  136.3478  154.6351 C   0  0  0  0  0  0  0  0  0  0  0  0
  145.1596  137.3871  153.8636 O   0  0  0  0  0  0  0  0  0  0  0  0
  145.5510  136.9504  152.5656 C   0  0  2  0  0  0  0  0  0  0  0  0
  146.2433  138.1233  151.8552 C   0  0  0  0  0  0  0  0  0  0  0  0
  147.5020  138.4749  152.4957 N   0  0  0  0  0  0  0  0  0  0  0  0
  147.6275  139.6721  153.2132 C   0  0  0  0  0  0  0  0  0  0  0  0
  148.8132  140.0863  153.8633 C   0  0  0  0  0  0  0  0  0  0  0  0
  148.8029  141.3122  154.5502 C   0  0  0  0  0  0  0  0  0  0  0  0
  147.6072  142.0522  154.5451 C   0  0  0  0  0  0  0  0  0  0  0  0
  146.4841  141.6390  153.9170 N   0  0  0  0  0  0  0  0  0  0  0  0
  146.5252  140.4613  153.2694 N   0  3  0  0  0  0  0  0  0  0  0  0
  144.2866  136.4941  151.8065 C   0  0  0  0  0  0  0  0  0  0  0  0
  144.7023  131.8422  148.8649 H   0  0  0  0  0  0  0  0  0  0  0  0
  146.3082  131.2257  149.2359 H   0  0  0  0  0  0  0  0  0  0  0  0
  146.1151  132.8854  148.7106 H   0  0  0  0  0  0  0  0  0  0  0  0
  146.4759  132.8164  151.1618 H   0  0  0  0  0  0  0  0  0  0  0  0
  144.0289  130.9972  151.3067 H   0  0  0  0  0  0  0  0  0  0  0  0
  144.9371  131.6146  152.6846 H   0  0  0  0  0  0  0  0  0  0  0  0
  145.7001  130.5014  151.5597 H   0  0  0  0  0  0  0  0  0  0  0  0
  144.9820  134.6102  150.4539 H   0  0  0  0  0  0  0  0  0  0  0  0
  143.6268  133.5189  150.4029 H   0  0  0  0  0  0  0  0  0  0  0  0
  143.5746  133.3080  152.8460 H   0  0  0  0  0  0  0  0  0  0  0  0
  145.1323  134.0793  152.9828 H   0  0  0  0  0  0  0  0  0  0  0  0
  142.5610  136.6474  153.9056 H   0  0  0  0  0  0  0  0  0  0  0  0
  142.8360  135.0377  154.5111 H   0  0  0  0  0  0  0  0  0  0  0  0
  144.3204  136.7423  155.6203 H   0  0  0  0  0  0  0  0  0  0  0  0
  145.2869  135.5419  154.7939 H   0  0  0  0  0  0  0  0  0  0  0  0
  146.2536  136.1190  152.6490 H   0  0  0  0  0  0  0  0  0  0  0  0
  146.4503  137.8477  150.8204 H   0  0  0  0  0  0  0  0  0  0  0  0
  145.5839  138.9920  151.8340 H   0  0  0  0  0  0  0  0  0  0  0  0
  148.2376  137.7838  152.5378 H   0  0  0  0  0  0  0  0  0  0  0  0
  149.7134  139.4903  153.8460 H   0  0  0  0  0  0  0  0  0  0  0  0
  149.6807  141.6746  155.0646 H   0  0  0  0  0  0  0  0  0  0  0  0
  147.5485  143.0009  155.0583 H   0  0  0  0  0  0  0  0  0  0  0  0
  144.5338  136.1680  150.7955 H   0  0  0  0  0  0  0  0  0  0  0  0
  143.6058  137.3392  151.6936 H   0  0  0  0  0  0  0  0  0  0  0  0
  142.6747  135.3270  152.0815 H   0  0  0  0  0  0  0  0  0  0  0  0
  145.6804  140.1440  152.7935 H   0  0  0  0  0  0  0  0  0  0  0  0
  1  2  1  0  0  0  0
  1 20  1  0  0  0  0
  1 21  1  0  0  0  0
  1 22  1  0  0  0  0
  2  3  1  0  0  0  0
  2  4  1  0  0  0  0
  2 23  1  0  0  0  0
  3 24  1  0  0  0  0
  3 25  1  0  0  0  0
  3 26  1  0  0  0  0
  4  5  1  0  0  0  0
  4 27  1  0  0  0  0
  4 28  1  0  0  0  0
  5  6  1  0  0  0  0
  5 29  1  0  0  0  0
  5 30  1  0  0  0  0
  6 19  1  0  0  0  0
  6  7  1  0  0  0  0
  6 44  1  0  0  0  0
  7  8  1  0  0  0  0
  7 31  1  0  0  0  0
  7 32  1  0  0  0  0
  8  9  1  0  0  0  0
  8 33  1  0  0  0  0
  8 34  1  0  0  0  0
  9 10  1  0  0  0  0
 10 11  1  0  0  0  0
 10 19  1  0  0  0  0
 10 35  1  0  0  0  0
 11 12  1  0  0  0  0
 11 36  1  0  0  0  0
 11 37  1  0  0  0  0
 12 13  1  0  0  0  0
 12 38  1  0  0  0  0
 13 18  1  0  0  0  0
 13 14  2  0  0  0  0
 14 15  1  0  0  0  0
 14 39  1  0  0  0  0
 15 16  2  0  0  0  0
 15 40  1  0  0  0  0
 16 17  1  0  0  0  0
 16 41  1  0  0  0  0
 17 18  2  0  0  0  0
 18 45  1  0  0  0  0
 19 42  1  0  0  0  0
 19 43  1  0  0  0  0
M  CHG  1   6   1
M  CHG  1  18   1
M  END
> <s_m_source_file>
AV-unprocessed.smi

> <i_m_source_file_index>
861

> <i_lp_mmshare_version>
43012

> <i_f3d_flags>
0

> <s_epik_input>
W0NIM11bQ0hdKFtDSDNdKVtDSDJdW0NIMl1OMVtDSDJdW0NIMl1PW0NASF0oW0NIMl0xKVtDSDJdW05IXWMyW2NIXVtjSF1bY0hdbm4y

> <s_epik_cmdline>
J2VwaWtfcHl0aG9uJywgJy1waCcsICc3LjAnLCAnLXRuJywgJzgnLCAnLW1hJywgJzIwMCcsICctbWV0YWxfYmluZGluZycsICctaW1hZScsICc8aW5maWxlLm1hZT4nLCAnLW9tYWUnLCAnPG91dGZpbGUubWFlPic=

> <r_lp_tautomer_probability>
0.966961

> <r_epik_Ionization_Penalty>
2.478

> <r_epik_Ionization_Penalty_Charging>
2.47799

> <r_epik_Ionization_Penalty_Neutral>
3.15286e-06

> <r_epik_State_Penalty>
2.10794

> <r_epik_Charging_Adjusted_Penalty>
4.58594

> <i_epik_Tot_Q>
2

> <i_epik_Tot_abs_Q>
2

> <r_epik_Metal_State_Penalty>
2.11378

> <b_epik_Metal_Only>
0

> <s_lp_Force_Field>
OPLS_2005

> <r_lp_Energy>
35.7333

> <b_lp_Chiralities_Consistent>
1

> <s_lp_Variant>
AV-unprocessed.smi:861-9

> <Gold.Version>
5.8.1

> <Gold.Id.Protein>
6NUR|6NUR_protein|mol2

> <Gold.PLP.Fitness>
45.1590

> <Gold.PLP.PLP>
-30.9866

> <Gold.PLP.part.hbond>
-3.0000

> <Gold.PLP.part.metal>
0.0000

> <Gold.PLP.part.buried>
2.3637

> <Gold.PLP.part.nonpolar>
-29.6314

> <Gold.PLP.part.repulsive>
0.3850

> <Gold.PLP.ligand.clash>
0.1107

> <Gold.PLP.ligand.torsion>
0.2013

> <Gold.PLP.Chemscore.Hbond>
3.8720

> <Gold.PLP.Chemscore.CHOScore>
1.0000

> <Gold.PLP.Chemscore.Metal>
0.0000

> <Gold.Chemscore.Hbonds>
donor molecule, donor type, donor heavy atom, donor atom, acceptor molecule, acceptor atom, score
      L1  H    12    38       P1  7948  1.92
      L1  H    18    45       P1 10175  1.78
      L1  C    16    41       P1  8028  1.00

> <Gold.PLP.Chemscore.Internal.Correction>
0.0697

> <Gold.Rescore>
     Score         DG    S(hbond)    S(metal)    S(lipo)     H(rot)  DE(clash)    DE(int)     intcor
     16.03     -16.32       1.72        0.00      82.29       1.78       0.15       0.14       ----

> <Gold.Chemscore.Fitness>
16.0309

> <Gold.Chemscore.DG>
-16.3153

> <Gold.Chemscore.ZeroCoef>
-5.4800

> <Gold.Chemscore.Hbond>
1.7227

> <Gold.Chemscore.Metal>
0.0000

> <Gold.Chemscore.Lipo>
82.2875

> <Gold.Chemscore.Internal_Hbond>
0.0000

> <Gold.Chemscore.DEClash>
0.1454

> <Gold.Chemscore.DEInternal>
0.1390

> <Gold.Chemscore.Rot>
1.7759

> <Gold.Chemscore.Internal.Correction>
   9.000000E+99

> <Gold.Chemscore.Hbonds>
donor molecule, donor type, donor heavy atom, donor atom, acceptor molecule, acceptor atom, score
      L1  H    12    38       P1  7948  0.92
      L1  H    18    45       P1 10175  0.77

> <Gold.Chemscore.Hbond.Weighted>
-5.7538

> <Gold.Chemscore.Metal.Weighted>
-0.0000

> <Gold.Chemscore.Lipo.Weighted>
-9.6276

> <Gold.Chemscore.Internal_Hbond.Weighted>
0.0000

> <Gold.Chemscore.DEClash.Weighted>
0.1454

> <Gold.Chemscore.DEInternal.Weighted>
0.1390

> <Gold.Chemscore.Rot.Weighted>
4.5462

> <Gold.Chemscore.Internal.Correction.Weighted>
   9.000000E+99

> <Gold.Protein.RotatedTorsions>
[ 6907 6896 6895 6894 ] final   11.88 input  -60.11 | X-H torsion
[ 7974 7965 7964 7962 ] final -132.77 input  175.53 | X-H torsion
[ 8008 7997 7996 7995 ] final   88.00 input   59.86 | X-H torsion
[ 10167 10162 10161 10158 ] final  -94.73 input  -65.29 | X-H torsion
[ 10718 10713 10712 10709 ] final  153.33 input   66.30 | X-H torsion
[ 10763 10752 10751 10750 ] final   10.81 input  -60.55 | X-H torsion
[ 11005 11000 10999 10996 ] final -122.12 input  -57.11 | X-H torsion

> <Gold.Protein.ActiveResidues>
 VAL166  LYS551  ARG553  GLY616  TRP617  ASP618  TYR619  PRO620  LYS621  CYS622 
 ASP623  PHE694  ASN695  SER759  ASP760  ASP761  ALA762  ILE779  LEU786  VAL792 
 PHE793  MET794  SER795  GLU796  ALA797  LYS798  CYS799  TRP800  GLU811  SER814 

> <Gold.Protein.RotatedAtoms>
  151.7614  135.0809  160.0345 H   0  0  0  0  0  0  0  0  0  0  0  0  # atno 6907 bound_to 6896
  152.3350  133.5997  159.5845 H   0  0  0  0  0  0  0  0  0  0  0  0  # atno 6908 bound_to 6896
  150.7445  133.9725  159.3592 H   0  0  0  0  0  0  0  0  0  0  0  0  # atno 6909 bound_to 6896
  144.9255  140.7066  143.4938 H   0  0  0  0  0  0  0  0  0  0  0  0  # atno 7974 bound_to 7965
  155.9823  140.3376  155.6675 H   0  0  0  0  0  0  0  0  0  0  0  0  # atno 8008 bound_to 7997
  155.6532  140.0708  157.2598 H   0  0  0  0  0  0  0  0  0  0  0  0  # atno 8009 bound_to 7997
  154.4195  140.1722  156.1684 H   0  0  0  0  0  0  0  0  0  0  0  0  # atno 8010 bound_to 7997
  140.3114  143.3102  152.0144 H   0  0  0  0  0  0  0  0  0  0  0  0  # atno 10167 bound_to 10162
  157.2461  131.0769  151.1761 H   0  0  0  0  0  0  0  0  0  0  0  0  # atno 10718 bound_to 10713
  153.1992  135.6853  153.8253 H   0  0  0  0  0  0  0  0  0  0  0  0  # atno 10763 bound_to 10752
  153.7525  135.3222  155.3324 H   0  0  0  0  0  0  0  0  0  0  0  0  # atno 10764 bound_to 10752
  154.8162  135.4684  154.0751 H   0  0  0  0  0  0  0  0  0  0  0  0  # atno 10765 bound_to 10752
  141.0019  134.0390  157.3526 H   0  0  0  0  0  0  0  0  0  0  0  0  # atno 11005 bound_to 11000
  145.3226  139.1783  143.4579 LP  0  0  0  0  0  0  0  0  0  0  0  0  # atno 17320 bound_to 7965
  146.3224  140.3246  142.8636 LP  0  0  0  0  0  0  0  0  0  0  0  0  # atno 17321 bound_to 7965
  139.4893  144.6381  151.6933 LP  0  0  0  0  0  0  0  0  0  0  0  0  # atno 17342 bound_to 10162
  140.5564  144.0340  150.6150 LP  0  0  0  0  0  0  0  0  0  0  0  0  # atno 17343 bound_to 10162
  157.3327  130.6993  149.6334 LP  0  0  0  0  0  0  0  0  0  0  0  0  # atno 17370 bound_to 10713
  155.9668  130.4302  150.4869 LP  0  0  0  0  0  0  0  0  0  0  0  0  # atno 17371 bound_to 10713
  139.9043  135.0175  156.7415 LP  0  0  0  0  0  0  0  0  0  0  0  0  # atno 17394 bound_to 11000
  140.6875  133.9420  155.7946 LP  0  0  0  0  0  0  0  0  0  0  0  0  # atno 17395 bound_to 11000

$$$$
