AV-unprocessed.smi:720|AV-procd|sdf|3496|dock4
  -GOLD-   22720 0493D 1   1.00000     0.00000
 Structure written by MMmdl.
 47 49  0  0  0  0  0  0  0  0  2 V2000
  145.4690  136.0128  150.9378 C   0  0  0  0  0  0  0  0  0  0  0  0
  146.2029  136.3375  152.1827 N   0  3  0  0  0  0  0  0  0  0  0  0
  145.8014  135.4493  153.2960 C   0  0  0  0  0  0  0  0  0  0  0  0
  146.1245  137.7711  152.5589 C   0  0  0  0  0  0  0  0  0  0  0  0
  146.8327  138.0757  153.8923 C   0  0  0  0  0  0  0  0  0  0  0  0
  147.1400  139.4865  154.0251 N   0  0  0  0  0  0  0  0  0  0  0  0
  146.7918  140.5284  153.1885 C   0  0  0  0  0  0  0  0  0  0  0  0
  147.3116  141.6741  153.7217 C   0  0  0  0  0  0  0  0  0  0  0  0
  147.9689  141.2190  154.8976 C   0  0  0  0  0  0  0  0  0  0  0  0
  148.6502  142.1279  155.7459 N   0  0  0  0  0  0  0  0  0  0  0  0
  149.2317  141.8691  156.9339 C   0  0  0  0  0  0  0  0  0  0  0  0
  149.2286  140.7710  157.4877 O   0  0  0  0  0  0  0  0  0  0  0  0
  149.8273  142.9341  157.4999 N   0  0  0  0  0  0  0  0  0  0  0  0
  150.5428  142.9939  158.7766 C   0  0  1  0  0  0  0  0  0  0  0  0
  151.8146  142.1131  158.8002 C   0  0  0  0  0  0  0  0  0  0  0  0
  152.9289  143.1279  159.1167 C   0  0  2  0  0  0  0  0  0  0  0  0
  152.7799  143.6226  160.5683 C   0  0  0  0  0  0  0  0  0  0  0  0
  151.5336  144.5269  160.4956 C   0  0  0  0  0  0  0  0  0  0  0  0
  151.1177  144.4065  159.0177 C   0  0  1  0  0  0  0  0  0  0  0  0
  152.4746  144.3445  158.3221 C   0  0  0  0  0  0  0  0  0  0  0  0
  147.8687  139.9098  155.0796 N   0  0  0  0  0  0  0  0  0  0  0  0
  144.4078  136.2451  151.0367 H   0  0  0  0  0  0  0  0  0  0  0  0
  145.5629  134.9517  150.7039 H   0  0  0  0  0  0  0  0  0  0  0  0
  145.8643  136.5647  150.0856 H   0  0  0  0  0  0  0  0  0  0  0  0
  144.7525  135.5982  153.5560 H   0  0  0  0  0  0  0  0  0  0  0  0
  146.4048  135.6406  154.1841 H   0  0  0  0  0  0  0  0  0  0  0  0
  145.9409  134.4024  153.0241 H   0  0  0  0  0  0  0  0  0  0  0  0
  146.5305  138.3905  151.7577 H   0  0  0  0  0  0  0  0  0  0  0  0
  145.0719  138.0430  152.6561 H   0  0  0  0  0  0  0  0  0  0  0  0
  146.2044  137.7821  154.7346 H   0  0  0  0  0  0  0  0  0  0  0  0
  147.7641  137.5158  153.9797 H   0  0  0  0  0  0  0  0  0  0  0  0
  146.2101  140.3705  152.2922 H   0  0  0  0  0  0  0  0  0  0  0  0
  147.2344  142.6778  153.3303 H   0  0  0  0  0  0  0  0  0  0  0  0
  148.7103  143.0790  155.4133 H   0  0  0  0  0  0  0  0  0  0  0  0
  149.7645  143.8057  156.9936 H   0  0  0  0  0  0  0  0  0  0  0  0
  149.8586  142.7268  159.5843 H   0  0  0  0  0  0  0  0  0  0  0  0
  151.7536  141.3206  159.5470 H   0  0  0  0  0  0  0  0  0  0  0  0
  151.9956  141.6416  157.8330 H   0  0  0  0  0  0  0  0  0  0  0  0
  153.9296  142.7676  158.8766 H   0  0  0  0  0  0  0  0  0  0  0  0
  152.6579  142.8004  161.2745 H   0  0  0  0  0  0  0  0  0  0  0  0
  153.6536  144.1996  160.8738 H   0  0  0  0  0  0  0  0  0  0  0  0
  150.7459  144.2094  161.1797 H   0  0  0  0  0  0  0  0  0  0  0  0
  151.7939  145.5572  160.7418 H   0  0  0  0  0  0  0  0  0  0  0  0
  150.4649  145.2153  158.6871 H   0  0  0  0  0  0  0  0  0  0  0  0
  153.0901  145.2295  158.4938 H   0  0  0  0  0  0  0  0  0  0  0  0
  152.4058  144.1603  157.2486 H   0  0  0  0  0  0  0  0  0  0  0  0
  147.1783  136.1405  152.0075 H   0  0  0  0  0  0  0  0  0  0  0  0
  1  2  1  0  0  0  0
  1 22  1  0  0  0  0
  1 23  1  0  0  0  0
  1 24  1  0  0  0  0
  2  3  1  0  0  0  0
  2  4  1  0  0  0  0
  2 47  1  0  0  0  0
  3 25  1  0  0  0  0
  3 26  1  0  0  0  0
  3 27  1  0  0  0  0
  4  5  1  0  0  0  0
  4 28  1  0  0  0  0
  4 29  1  0  0  0  0
  5  6  1  0  0  0  0
  5 30  1  0  0  0  0
  5 31  1  0  0  0  0
  6 21  1  0  0  0  0
  6  7  1  0  0  0  0
  7  8  2  0  0  0  0
  7 32  1  0  0  0  0
  8  9  1  0  0  0  0
  8 33  1  0  0  0  0
  9 10  1  0  0  0  0
  9 21  2  0  0  0  0
 10 11  1  0  0  0  0
 10 34  1  0  0  0  0
 11 12  2  0  0  0  0
 11 13  1  0  0  0  0
 13 14  1  0  0  0  0
 13 35  1  0  0  0  0
 14 19  1  0  0  0  0
 14 15  1  0  0  0  0
 14 36  1  0  0  0  0
 15 16  1  0  0  0  0
 15 37  1  0  0  0  0
 15 38  1  0  0  0  0
 16 20  1  0  0  0  0
 16 17  1  0  0  0  0
 16 39  1  0  0  0  0
 17 18  1  0  0  0  0
 17 40  1  0  0  0  0
 17 41  1  0  0  0  0
 18 19  1  0  0  0  0
 18 42  1  0  0  0  0
 18 43  1  0  0  0  0
 19 20  1  0  0  0  0
 19 44  1  0  0  0  0
 20 45  1  0  0  0  0
 20 46  1  0  0  0  0
M  CHG  1   2   1
M  END
> <s_m_source_file>
AV-unprocessed.smi

> <i_m_source_file_index>
720

> <i_lp_mmshare_version>
43012

> <i_f3d_flags>
0

> <s_epik_input>
W0NIM11OKFtDSDNdKVtDSDJdW0NIMl1uMVtjSF1bY0hdYyhuMSlbTkhdQyg9TylbTkhdW0NASF0oW0NIMl1bQ0BIXTIzKVtDQEhdKFtDSDJdMylbQ0gyXVtDSDJdMg==

> <s_epik_cmdline>
J2VwaWtfcHl0aG9uJywgJy1waCcsICc3LjAnLCAnLXRuJywgJzgnLCAnLW1hJywgJzIwMCcsICctbWV0YWxfYmluZGluZycsICctaW1hZScsICc8aW5maWxlLm1hZT4nLCAnLW9tYWUnLCAnPG91dGZpbGUubWFlPic=

> <r_lp_tautomer_probability>
1

> <r_epik_Ionization_Penalty>
0.0272832

> <r_epik_Ionization_Penalty_Charging>
0.027243

> <r_epik_Ionization_Penalty_Neutral>
4.01867e-05

> <r_epik_State_Penalty>
0.0222865

> <r_epik_Charging_Adjusted_Penalty>
0.0495295

> <i_epik_Tot_Q>
1

> <i_epik_Tot_abs_Q>
1

> <r_epik_Metal_State_Penalty>
0.0222866

> <b_epik_Metal_Only>
0

> <s_lp_Force_Field>
OPLS_2005

> <r_lp_Energy>
59.8818

> <b_lp_Chiralities_Consistent>
1

> <s_lp_Variant>
AV-unprocessed.smi:720-2

> <Gold.Version>
5.8.1

> <Gold.Id.Protein>
6NUR|6NUR_protein|mol2

> <Gold.PLP.Fitness>
54.7569

> <Gold.PLP.PLP>
-40.8995

> <Gold.PLP.part.hbond>
-3.0000

> <Gold.PLP.part.metal>
0.0000

> <Gold.PLP.part.buried>
-4.5251

> <Gold.PLP.part.nonpolar>
-34.7564

> <Gold.PLP.part.repulsive>
0.2408

> <Gold.PLP.ligand.clash>
0.0000

> <Gold.PLP.ligand.torsion>
0.1637

> <Gold.PLP.Chemscore.Hbond>
3.9440

> <Gold.PLP.Chemscore.CHOScore>
0.7688

> <Gold.PLP.Chemscore.Metal>
0.0000

> <Gold.Chemscore.Hbonds>
donor molecule, donor type, donor heavy atom, donor atom, acceptor molecule, acceptor atom, score
      L1  H     2    47       P1  7948  2.00
      L1  H    10    34       P1  8028  1.00
      L1  H    13    35       P1  8028  0.93
      L1  C     7    32       P1 10175  0.78

> <Gold.PLP.Chemscore.Internal.Correction>
0.0463

> <Gold.Rescore>
     Score         DG    S(hbond)    S(metal)    S(lipo)     H(rot)  DE(clash)    DE(int)     intcor
     22.47     -23.94       2.86        0.00     111.63       1.62       0.07       1.41       ----

> <Gold.Chemscore.Fitness>
22.4711

> <Gold.Chemscore.DG>
-23.9427

> <Gold.Chemscore.ZeroCoef>
-5.4800

> <Gold.Chemscore.Hbond>
2.8599

> <Gold.Chemscore.Metal>
0.0000

> <Gold.Chemscore.Lipo>
111.6317

> <Gold.Chemscore.Internal_Hbond>
0.0000

> <Gold.Chemscore.DEClash>
0.0653

> <Gold.Chemscore.DEInternal>
1.4063

> <Gold.Chemscore.Rot>
1.6212

> <Gold.Chemscore.Internal.Correction>
   9.000000E+99

> <Gold.Chemscore.Hbonds>
donor molecule, donor type, donor heavy atom, donor atom, acceptor molecule, acceptor atom, score
      L1  H     2    47       P1  7948  1.00
      L1  H    10    34       P1  8028  0.97
      L1  H    13    35       P1  8028  0.85

> <Gold.Chemscore.Hbond.Weighted>
-9.5520

> <Gold.Chemscore.Metal.Weighted>
-0.0000

> <Gold.Chemscore.Lipo.Weighted>
-13.0609

> <Gold.Chemscore.Internal_Hbond.Weighted>
0.0000

> <Gold.Chemscore.DEClash.Weighted>
0.0653

> <Gold.Chemscore.DEInternal.Weighted>
1.4063

> <Gold.Chemscore.Rot.Weighted>
4.1502

> <Gold.Chemscore.Internal.Correction.Weighted>
   9.000000E+99

> <Gold.Protein.RotatedTorsions>
[ 6907 6896 6895 6894 ] final -143.13 input  -60.11 | X-H torsion
[ 7974 7965 7964 7962 ] final  -21.87 input  175.53 | X-H torsion
[ 8008 7997 7996 7995 ] final   51.36 input   59.86 | X-H torsion
[ 10167 10162 10161 10158 ] final   67.86 input  -65.29 | X-H torsion
[ 10718 10713 10712 10709 ] final   93.66 input   66.30 | X-H torsion
[ 10763 10752 10751 10750 ] final  -44.98 input  -60.55 | X-H torsion
[ 11005 11000 10999 10996 ] final -159.85 input  -57.11 | X-H torsion

> <Gold.Protein.ActiveResidues>
 VAL166  LYS551  ARG553  GLY616  TRP617  ASP618  TYR619  PRO620  LYS621  CYS622 
 ASP623  PHE694  ASN695  SER759  ASP760  ASP761  ALA762  ILE779  LEU786  VAL792 
 PHE793  MET794  SER795  GLU796  ALA797  LYS798  CYS799  TRP800  GLU811  SER814 

> <Gold.Protein.RotatedAtoms>
  151.0963  133.5277  159.2611 H   0  0  0  0  0  0  0  0  0  0  0  0  # atno 6907 bound_to 6896
  151.2125  135.0486  159.8927 H   0  0  0  0  0  0  0  0  0  0  0  0  # atno 6908 bound_to 6896
  152.5439  134.0777  159.8275 H   0  0  0  0  0  0  0  0  0  0  0  0  # atno 6909 bound_to 6896
  146.1708  140.4400  142.8533 H   0  0  0  0  0  0  0  0  0  0  0  0  # atno 7974 bound_to 7965
  155.4339  140.3451  155.4283 H   0  0  0  0  0  0  0  0  0  0  0  0  # atno 8008 bound_to 7997
  156.1319  140.1517  156.9083 H   0  0  0  0  0  0  0  0  0  0  0  0  # atno 8009 bound_to 7997
  154.4902  140.0843  156.7556 H   0  0  0  0  0  0  0  0  0  0  0  0  # atno 8010 bound_to 7997
  140.0849  144.5039  150.7137 H   0  0  0  0  0  0  0  0  0  0  0  0  # atno 10167 bound_to 10162
  157.6953  131.0486  150.4067 H   0  0  0  0  0  0  0  0  0  0  0  0  # atno 10718 bound_to 10713
  154.0210  135.6669  153.4772 H   0  0  0  0  0  0  0  0  0  0  0  0  # atno 10763 bound_to 10752
  153.0580  135.5044  154.8023 H   0  0  0  0  0  0  0  0  0  0  0  0  # atno 10764 bound_to 10752
  154.6937  135.3066  154.9406 H   0  0  0  0  0  0  0  0  0  0  0  0  # atno 10765 bound_to 10752
  140.6380  134.4581  157.5232 H   0  0  0  0  0  0  0  0  0  0  0  0  # atno 11005 bound_to 11000
  144.8161  140.6470  143.6383 LP  0  0  0  0  0  0  0  0  0  0  0  0  # atno 17320 bound_to 7965
  145.4344  139.1544  143.4004 LP  0  0  0  0  0  0  0  0  0  0  0  0  # atno 17321 bound_to 7965
  140.7058  143.2467  151.4729 LP  0  0  0  0  0  0  0  0  0  0  0  0  # atno 17342 bound_to 10162
  139.5758  144.1823  152.1901 LP  0  0  0  0  0  0  0  0  0  0  0  0  # atno 17343 bound_to 10162
  156.4455  130.4000  149.6669 LP  0  0  0  0  0  0  0  0  0  0  0  0  # atno 17370 bound_to 10713
  156.3838  130.7592  151.2587 LP  0  0  0  0  0  0  0  0  0  0  0  0  # atno 17371 bound_to 10713
  139.9091  134.8384  156.1595 LP  0  0  0  0  0  0  0  0  0  0  0  0  # atno 17394 bound_to 11000
  141.0627  133.6834  156.1985 LP  0  0  0  0  0  0  0  0  0  0  0  0  # atno 17395 bound_to 11000

$$$$
