AV-unprocessed.smi:1574|AV-procd|sdf|6336|dock10
  -GOLD-   22720 6553D 1   1.00000     0.00000
 Structure written by MMmdl.
 40 41  0  0  0  0  0  0  0  0  1 V2000
  153.2156  144.1936  158.2835 C   0  0  0  0  0  0  0  0  0  0  0  0
  153.6014  143.2736  159.4519 C   0  0  1  0  0  0  0  0  0  0  0  0
  153.1434  143.8536  160.8050 C   0  0  0  0  0  0  0  0  0  0  0  0
  153.5727  142.9582  161.9780 C   0  0  0  0  0  0  0  0  0  0  0  0
  153.0663  141.5194  161.7974 C   0  0  0  0  0  0  0  0  0  0  0  0
  153.5186  140.9337  160.4489 C   0  0  0  0  0  0  0  0  0  0  0  0
  153.0942  141.8234  159.2662 C   0  0  1  0  0  0  0  0  0  0  0  0
  151.6736  141.8095  159.2080 O   0  0  0  0  0  0  0  0  0  0  0  0
  151.1188  140.7454  158.4515 C   0  0  0  0  0  0  0  0  0  0  0  0
  151.5188  140.9144  156.9791 C   0  0  0  0  0  0  0  0  0  0  0  0
  151.3038  139.6853  156.2227 N   0  0  0  0  0  0  0  0  0  0  0  0
  150.8261  139.6193  154.9699 C   0  0  0  0  0  0  0  0  0  0  0  0
  150.4934  140.6060  154.3138 O   0  0  0  0  0  0  0  0  0  0  0  0
  150.7012  138.2238  154.3605 C   0  0  0  0  0  0  0  0  0  0  0  0
  149.7627  137.4162  155.1151 N   0  0  0  0  0  0  0  0  0  0  0  0
  148.5951  136.8726  154.7655 C   0  0  0  0  0  0  0  0  0  0  0  0
  148.0422  136.2132  155.7723 N   0  0  0  0  0  0  0  0  0  0  0  0
  148.9568  136.3815  156.7986 N   0  0  0  0  0  0  0  0  0  0  0  0
  149.9797  137.0947  156.4148 N   0  0  0  0  0  0  0  0  0  0  0  0
  152.1357  144.3305  158.2227 H   0  0  0  0  0  0  0  0  0  0  0  0
  153.5567  143.7851  157.3320 H   0  0  0  0  0  0  0  0  0  0  0  0
  153.6659  145.1797  158.3987 H   0  0  0  0  0  0  0  0  0  0  0  0
  154.6914  143.2315  159.4692 H   0  0  0  0  0  0  0  0  0  0  0  0
  153.5577  144.8531  160.9411 H   0  0  0  0  0  0  0  0  0  0  0  0
  152.0589  143.9686  160.8120 H   0  0  0  0  0  0  0  0  0  0  0  0
  154.6606  142.9550  162.0557 H   0  0  0  0  0  0  0  0  0  0  0  0
  153.1962  143.3690  162.9153 H   0  0  0  0  0  0  0  0  0  0  0  0
  153.4271  140.8933  162.6138 H   0  0  0  0  0  0  0  0  0  0  0  0
  151.9770  141.5058  161.8580 H   0  0  0  0  0  0  0  0  0  0  0  0
  154.6040  140.8266  160.4490 H   0  0  0  0  0  0  0  0  0  0  0  0
  153.1122  139.9296  160.3243 H   0  0  0  0  0  0  0  0  0  0  0  0
  153.5247  141.4021  158.3553 H   0  0  0  0  0  0  0  0  0  0  0  0
  151.4587  139.7780  158.8239 H   0  0  0  0  0  0  0  0  0  0  0  0
  150.0325  140.7681  158.5479 H   0  0  0  0  0  0  0  0  0  0  0  0
  150.9032  141.6910  156.5250 H   0  0  0  0  0  0  0  0  0  0  0  0
  152.5533  141.2515  156.8949 H   0  0  0  0  0  0  0  0  0  0  0  0
  151.5443  138.8199  156.6837 H   0  0  0  0  0  0  0  0  0  0  0  0
  150.3496  138.2994  153.3307 H   0  0  0  0  0  0  0  0  0  0  0  0
  151.6727  137.7275  154.3341 H   0  0  0  0  0  0  0  0  0  0  0  0
  148.1535  136.9630  153.7841 H   0  0  0  0  0  0  0  0  0  0  0  0
  1  2  1  0  0  0  0
  1 20  1  0  0  0  0
  1 21  1  0  0  0  0
  1 22  1  0  0  0  0
  2  7  1  0  0  0  0
  2  3  1  0  0  0  0
  2 23  1  0  0  0  0
  3  4  1  0  0  0  0
  3 24  1  0  0  0  0
  3 25  1  0  0  0  0
  4  5  1  0  0  0  0
  4 26  1  0  0  0  0
  4 27  1  0  0  0  0
  5  6  1  0  0  0  0
  5 28  1  0  0  0  0
  5 29  1  0  0  0  0
  6  7  1  0  0  0  0
  6 30  1  0  0  0  0
  6 31  1  0  0  0  0
  7  8  1  0  0  0  0
  7 32  1  0  0  0  0
  8  9  1  0  0  0  0
  9 10  1  0  0  0  0
  9 33  1  0  0  0  0
  9 34  1  0  0  0  0
 10 11  1  0  0  0  0
 10 35  1  0  0  0  0
 10 36  1  0  0  0  0
 11 12  1  0  0  0  0
 11 37  1  0  0  0  0
 12 13  2  0  0  0  0
 12 14  1  0  0  0  0
 14 15  1  0  0  0  0
 14 38  1  0  0  0  0
 14 39  1  0  0  0  0
 15 19  1  0  0  0  0
 15 16  1  0  0  0  0
 16 17  2  0  0  0  0
 16 40  1  0  0  0  0
 17 18  1  0  0  0  0
 18 19  2  0  0  0  0
M  END
> <s_m_source_file>
AV-unprocessed.smi

> <i_m_source_file_index>
1574

> <i_lp_mmshare_version>
43012

> <i_f3d_flags>
0

> <s_epik_input>
W0NIM11bQ0BASF0xW0NIMl1bQ0gyXVtDSDJdW0NIMl1bQ0BIXTFPW0NIMl1bQ0gyXVtOSF1DKD1PKVtDSDJdbjJbY0hdbm5uMg==

> <s_epik_cmdline>
J2VwaWtfcHl0aG9uJywgJy1waCcsICc3LjAnLCAnLXRuJywgJzgnLCAnLW1hJywgJzIwMCcsICctbWV0YWxfYmluZGluZycsICctaW1hZScsICc8aW5maWxlLm1hZT4nLCAnLW9tYWUnLCAnPG91dGZpbGUubWFlPic=

> <r_lp_tautomer_probability>
1

> <r_epik_Ionization_Penalty>
1.44269e-06

> <r_epik_Ionization_Penalty_Charging>
0

> <r_epik_Ionization_Penalty_Neutral>
1.44269e-06

> <r_epik_State_Penalty>
-0

> <r_epik_Charging_Adjusted_Penalty>
0

> <i_epik_Tot_Q>
0

> <i_epik_Tot_abs_Q>
0

> <r_epik_Metal_State_Penalty>
-0

> <b_epik_Metal_Only>
0

> <s_lp_Force_Field>
OPLS_2005

> <r_lp_Energy>
13.6049

> <b_lp_Chiralities_Consistent>
1

> <s_lp_Variant>
AV-unprocessed.smi:1574-2

> <Gold.Version>
5.8.1

> <Gold.Id.Protein>
6NUR|6NUR_protein|mol2

> <Gold.PLP.Fitness>
50.2470

> <Gold.PLP.PLP>
-45.3313

> <Gold.PLP.part.hbond>
-1.8859

> <Gold.PLP.part.metal>
0.0000

> <Gold.PLP.part.buried>
-6.8048

> <Gold.PLP.part.nonpolar>
-37.0083

> <Gold.PLP.part.repulsive>
0.2302

> <Gold.PLP.ligand.clash>
0.0000

> <Gold.PLP.ligand.torsion>
0.5568

> <Gold.PLP.Chemscore.Hbond>
1.0000

> <Gold.PLP.Chemscore.CHOScore>
0.9905

> <Gold.PLP.Chemscore.Metal>
0.0000

> <Gold.Chemscore.Hbonds>
donor molecule, donor type, donor heavy atom, donor atom, acceptor molecule, acceptor atom, score
      P1  H  7989  7998       L1    13  0.65
      L1  C    16    40       P1  7948  0.95

> <Gold.PLP.Chemscore.Internal.Correction>
0.0577

> <Gold.Rescore>
     Score         DG    S(hbond)    S(metal)    S(lipo)     H(rot)  DE(clash)    DE(int)     intcor
     12.30     -13.33       1.00        0.00     102.13       2.90       0.02       1.01       ----

> <Gold.Chemscore.Fitness>
12.2986

> <Gold.Chemscore.DG>
-13.3304

> <Gold.Chemscore.ZeroCoef>
-5.4800

> <Gold.Chemscore.Hbond>
0.9994

> <Gold.Chemscore.Metal>
0.0000

> <Gold.Chemscore.Lipo>
102.1295

> <Gold.Chemscore.Internal_Hbond>
0.0000

> <Gold.Chemscore.DEClash>
0.0209

> <Gold.Chemscore.DEInternal>
1.0109

> <Gold.Chemscore.Rot>
2.9050

> <Gold.Chemscore.Internal.Correction>
   9.000000E+99

> <Gold.Chemscore.Hbonds>
donor molecule, donor type, donor heavy atom, donor atom, acceptor molecule, acceptor atom, score
      P1  H  7989  7998       L1    13  0.31

> <Gold.Chemscore.Hbond.Weighted>
-3.3379

> <Gold.Chemscore.Metal.Weighted>
-0.0000

> <Gold.Chemscore.Lipo.Weighted>
-11.9492

> <Gold.Chemscore.Internal_Hbond.Weighted>
0.0000

> <Gold.Chemscore.DEClash.Weighted>
0.0209

> <Gold.Chemscore.DEInternal.Weighted>
1.0109

> <Gold.Chemscore.Rot.Weighted>
7.4367

> <Gold.Chemscore.Internal.Correction.Weighted>
   9.000000E+99

> <Gold.Protein.RotatedTorsions>
[ 6907 6896 6895 6894 ] final  156.91 input  -60.11 | X-H torsion
[ 7974 7965 7964 7962 ] final -176.77 input  175.53 | X-H torsion
[ 8008 7997 7996 7995 ] final -163.09 input   59.86 | X-H torsion
[ 10167 10162 10161 10158 ] final   47.55 input  -65.29 | X-H torsion
[ 10718 10713 10712 10709 ] final   34.50 input   66.30 | X-H torsion
[ 10763 10752 10751 10750 ] final  -39.93 input  -60.55 | X-H torsion
[ 11005 11000 10999 10996 ] final   70.05 input  -57.11 | X-H torsion

> <Gold.Protein.ActiveResidues>
 VAL166  LYS551  ARG553  GLY616  TRP617  ASP618  TYR619  PRO620  LYS621  CYS622 
 ASP623  PHE694  ASN695  SER759  ASP760  ASP761  ALA762  ILE779  LEU786  VAL792 
 PHE793  MET794  SER795  GLU796  ALA797  LYS798  CYS799  TRP800  GLU811  SER814 

> <Gold.Protein.RotatedAtoms>
  152.0227  133.3905  159.4264 H   0  0  0  0  0  0  0  0  0  0  0  0  # atno 6907 bound_to 6896
  150.6889  134.3608  159.4958 H   0  0  0  0  0  0  0  0  0  0  0  0  # atno 6908 bound_to 6896
  152.1384  134.9081  160.0606 H   0  0  0  0  0  0  0  0  0  0  0  0  # atno 6909 bound_to 6896
  144.7127  140.1119  143.6410 H   0  0  0  0  0  0  0  0  0  0  0  0  # atno 7974 bound_to 7965
  155.8163  140.0913  157.1875 H   0  0  0  0  0  0  0  0  0  0  0  0  # atno 8008 bound_to 7997
  154.3979  140.1445  156.3506 H   0  0  0  0  0  0  0  0  0  0  0  0  # atno 8009 bound_to 7997
  155.8313  140.3442  155.5576 H   0  0  0  0  0  0  0  0  0  0  0  0  # atno 8010 bound_to 7997
  140.3024  144.2918  150.6216 H   0  0  0  0  0  0  0  0  0  0  0  0  # atno 10167 bound_to 10162
  157.3111  130.7399  149.6725 H   0  0  0  0  0  0  0  0  0  0  0  0  # atno 10718 bound_to 10713
  153.9375  135.6765  153.4744 H   0  0  0  0  0  0  0  0  0  0  0  0  # atno 10763 bound_to 10752
  153.0948  135.4857  154.8755 H   0  0  0  0  0  0  0  0  0  0  0  0  # atno 10764 bound_to 10752
  154.7395  135.3157  154.8711 H   0  0  0  0  0  0  0  0  0  0  0  0  # atno 10765 bound_to 10752
  139.9619  134.7046  156.0628 H   0  0  0  0  0  0  0  0  0  0  0  0  # atno 11005 bound_to 11000
  145.9447  139.2692  143.1248 LP  0  0  0  0  0  0  0  0  0  0  0  0  # atno 17320 bound_to 7965
  145.9387  140.8996  143.0319 LP  0  0  0  0  0  0  0  0  0  0  0  0  # atno 17321 bound_to 7965
  140.5639  143.2188  151.7717 LP  0  0  0  0  0  0  0  0  0  0  0  0  # atno 17342 bound_to 10162
  139.4912  144.4310  151.9872 LP  0  0  0  0  0  0  0  0  0  0  0  0  # atno 17343 bound_to 10162
  155.9678  130.4251  150.4638 LP  0  0  0  0  0  0  0  0  0  0  0  0  # atno 17370 bound_to 10713
  157.2637  131.0572  151.2304 LP  0  0  0  0  0  0  0  0  0  0  0  0  # atno 17371 bound_to 10713
  141.1296  133.6590  156.3430 LP  0  0  0  0  0  0  0  0  0  0  0  0  # atno 17394 bound_to 11000
  140.5482  134.6054  157.5400 LP  0  0  0  0  0  0  0  0  0  0  0  0  # atno 17395 bound_to 11000

$$$$
