AV-unprocessed.smi:1383|AV-procd|sdf|5622|dock5
  -GOLD-   22720 5233D 1   1.00000     0.00000
 Structure written by MMmdl.
 31 31  0  0  0  0  0  0  0  0  1 V2000
  152.1587  144.3093  160.8614 C   0  0  0  0  0  0  0  0  0  0  0  0
  152.2645  143.5111  159.5522 C   0  0  0  0  0  0  0  0  0  0  0  0
  152.2778  141.9783  159.7422 C   0  0  2  0  0  0  0  0  0  0  0  0
  153.5916  141.5167  160.3961 C   0  0  0  0  0  0  0  0  0  0  0  0
  152.0565  141.2342  158.4159 C   0  0  0  0  0  0  0  0  0  0  0  0
  152.8671  140.3804  158.0540 O   0  0  0  0  0  0  0  0  0  0  0  0
  150.9570  141.5857  157.7229 N   0  0  0  0  0  0  0  0  0  0  0  0
  150.5012  141.0796  156.4780 C   0  0  0  0  0  0  0  0  0  0  0  0
  149.3724  141.4663  155.8735 N   0  0  0  0  0  0  0  0  0  0  0  0
  149.1720  140.8108  154.6538 C   0  0  0  0  0  0  0  0  0  0  0  0
  147.9562  141.1165  153.8265 C   0  0  0  0  0  0  0  0  0  0  0  0
  147.1881  139.8342  153.4949 C   0  0  0  0  0  0  0  0  0  0  0  0
  147.6928  139.0447  152.5422 N   0  0  0  0  0  0  0  0  0  0  0  0
  146.1561  139.5522  154.0998 O   0  0  0  0  0  0  0  0  0  0  0  0
  150.1666  139.9106  154.3544 C   0  0  0  0  0  0  0  0  0  0  0  0
  151.3996  139.8628  155.5857 S   0  0  0  0  0  0  0  0  0  0  0  0
  152.2182  145.3800  160.6653 H   0  0  0  0  0  0  0  0  0  0  0  0
  152.9678  144.0524  161.5456 H   0  0  0  0  0  0  0  0  0  0  0  0
  151.2138  144.1237  161.3726 H   0  0  0  0  0  0  0  0  0  0  0  0
  151.4486  143.7992  158.8876 H   0  0  0  0  0  0  0  0  0  0  0  0
  153.1812  143.8114  159.0434 H   0  0  0  0  0  0  0  0  0  0  0  0
  151.4663  141.7165  160.4237 H   0  0  0  0  0  0  0  0  0  0  0  0
  153.6207  140.4322  160.5097 H   0  0  0  0  0  0  0  0  0  0  0  0
  153.7055  141.9504  161.3900 H   0  0  0  0  0  0  0  0  0  0  0  0
  154.4599  141.8130  159.8061 H   0  0  0  0  0  0  0  0  0  0  0  0
  150.3800  142.3032  158.1368 H   0  0  0  0  0  0  0  0  0  0  0  0
  147.2920  141.8024  154.3539 H   0  0  0  0  0  0  0  0  0  0  0  0
  148.2399  141.6169  152.8996 H   0  0  0  0  0  0  0  0  0  0  0  0
  147.2242  138.1847  152.2975 H   0  0  0  0  0  0  0  0  0  0  0  0
  148.5488  139.3086  152.0762 H   0  0  0  0  0  0  0  0  0  0  0  0
  150.2493  139.2762  153.4845 H   0  0  0  0  0  0  0  0  0  0  0  0
  1  2  1  0  0  0  0
  1 17  1  0  0  0  0
  1 18  1  0  0  0  0
  1 19  1  0  0  0  0
  2  3  1  0  0  0  0
  2 20  1  0  0  0  0
  2 21  1  0  0  0  0
  3  4  1  0  0  0  0
  3  5  1  0  0  0  0
  3 22  1  0  0  0  0
  4 23  1  0  0  0  0
  4 24  1  0  0  0  0
  4 25  1  0  0  0  0
  5  6  2  0  0  0  0
  5  7  1  0  0  0  0
  7  8  1  0  0  0  0
  7 26  1  0  0  0  0
  8 16  1  0  0  0  0
  8  9  2  0  0  0  0
  9 10  1  0  0  0  0
 10 11  1  0  0  0  0
 10 15  2  0  0  0  0
 11 12  1  0  0  0  0
 11 27  1  0  0  0  0
 11 28  1  0  0  0  0
 12 13  1  0  0  0  0
 12 14  2  0  0  0  0
 13 29  1  0  0  0  0
 13 30  1  0  0  0  0
 15 16  1  0  0  0  0
 15 31  1  0  0  0  0
M  END
> <s_m_source_file>
AV-unprocessed.smi

> <i_m_source_file_index>
1383

> <i_lp_mmshare_version>
43012

> <i_f3d_flags>
0

> <s_epik_input>
W0NIM11bQ0gyXVtDQEhdKFtDSDNdKUMoPU8pW05IXWMxbmMoW2NIXXMxKVtDSDJdQyg9TylbTkgyXQ==

> <s_epik_cmdline>
J2VwaWtfcHl0aG9uJywgJy1waCcsICc3LjAnLCAnLXRuJywgJzgnLCAnLW1hJywgJzIwMCcsICctbWV0YWxfYmluZGluZycsICctaW1hZScsICc8aW5maWxlLm1hZT4nLCAnLW9tYWUnLCAnPG91dGZpbGUubWFlPic=

> <r_lp_tautomer_probability>
1

> <r_epik_Ionization_Penalty>
0.00017492

> <r_epik_Ionization_Penalty_Charging>
0

> <r_epik_Ionization_Penalty_Neutral>
0.00017492

> <r_epik_State_Penalty>
-0

> <r_epik_Charging_Adjusted_Penalty>
0

> <i_epik_Tot_Q>
0

> <i_epik_Tot_abs_Q>
0

> <r_epik_Metal_State_Penalty>
0.109333

> <b_epik_Metal_Only>
0

> <s_lp_Force_Field>
OPLS_2005

> <r_lp_Energy>
2.98053

> <b_lp_Chiralities_Consistent>
1

> <s_lp_Variant>
AV-unprocessed.smi:1383-1

> <Gold.Version>
5.8.1

> <Gold.Id.Protein>
6NUR|6NUR_protein|mol2

> <Gold.PLP.Fitness>
41.8991

> <Gold.PLP.PLP>
-34.3609

> <Gold.PLP.part.hbond>
-2.7045

> <Gold.PLP.part.metal>
0.0000

> <Gold.PLP.part.buried>
-1.0950

> <Gold.PLP.part.nonpolar>
-30.4288

> <Gold.PLP.part.repulsive>
0.4100

> <Gold.PLP.ligand.clash>
0.0000

> <Gold.PLP.ligand.torsion>
0.3676

> <Gold.PLP.Chemscore.Hbond>
1.8960

> <Gold.PLP.Chemscore.CHOScore>
0.8379

> <Gold.PLP.Chemscore.Metal>
0.0000

> <Gold.Chemscore.Hbonds>
donor molecule, donor type, donor heavy atom, donor atom, acceptor molecule, acceptor atom, score
      L1  H    13    30       P1  7957  1.00
      P1  H  7997  8009       L1     6  0.88
      L1  C    15    31       P1  7957  0.87

> <Gold.PLP.Chemscore.Internal.Correction>
0.0717

> <Gold.Rescore>
     Score         DG    S(hbond)    S(metal)    S(lipo)     H(rot)  DE(clash)    DE(int)     intcor
     13.21     -14.82       1.98        0.00      71.40       2.19       0.02       1.60       ----

> <Gold.Chemscore.Fitness>
13.2132

> <Gold.Chemscore.DG>
-14.8247

> <Gold.Chemscore.ZeroCoef>
-5.4800

> <Gold.Chemscore.Hbond>
1.9788

> <Gold.Chemscore.Metal>
0.0000

> <Gold.Chemscore.Lipo>
71.4034

> <Gold.Chemscore.Internal_Hbond>
0.0000

> <Gold.Chemscore.DEClash>
0.0153

> <Gold.Chemscore.DEInternal>
1.5962

> <Gold.Chemscore.Rot>
2.1948

> <Gold.Chemscore.Internal.Correction>
   9.000000E+99

> <Gold.Chemscore.Hbonds>
donor molecule, donor type, donor heavy atom, donor atom, acceptor molecule, acceptor atom, score
      L1  H    13    30       P1  7957  0.96
      P1  H  7997  8009       L1     6  0.82

> <Gold.Chemscore.Hbond.Weighted>
-6.6091

> <Gold.Chemscore.Metal.Weighted>
-0.0000

> <Gold.Chemscore.Lipo.Weighted>
-8.3542

> <Gold.Chemscore.Internal_Hbond.Weighted>
0.0000

> <Gold.Chemscore.DEClash.Weighted>
0.0153

> <Gold.Chemscore.DEInternal.Weighted>
1.5962

> <Gold.Chemscore.Rot.Weighted>
5.6186

> <Gold.Chemscore.Internal.Correction.Weighted>
   9.000000E+99

> <Gold.Protein.RotatedTorsions>
[ 6907 6896 6895 6894 ] final  116.02 input  -60.11 | X-H torsion
[ 7974 7965 7964 7962 ] final  131.44 input  175.53 | X-H torsion
[ 8008 7997 7996 7995 ] final  160.10 input   59.86 | X-H torsion
[ 10167 10162 10161 10158 ] final -164.78 input  -65.29 | X-H torsion
[ 10718 10713 10712 10709 ] final   23.45 input   66.30 | X-H torsion
[ 10763 10752 10751 10750 ] final  140.47 input  -60.55 | X-H torsion
[ 11005 11000 10999 10996 ] final   55.49 input  -57.11 | X-H torsion

> <Gold.Protein.ActiveResidues>
 VAL166  LYS551  ARG553  GLY616  TRP617  ASP618  TYR619  PRO620  LYS621  CYS622 
 ASP623  PHE694  ASN695  SER759  ASP760  ASP761  ALA762  ILE779  LEU786  VAL792 
 PHE793  MET794  SER795  GLU796  ALA797  LYS798  CYS799  TRP800  GLU811  SER814 

> <Gold.Protein.RotatedAtoms>
  152.4705  133.8018  159.6956 H   0  0  0  0  0  0  0  0  0  0  0  0  # atno 6907 bound_to 6896
  150.8691  133.7522  159.2973 H   0  0  0  0  0  0  0  0  0  0  0  0  # atno 6908 bound_to 6896
  151.5062  135.1067  159.9894 H   0  0  0  0  0  0  0  0  0  0  0  0  # atno 6909 bound_to 6896
  145.0073  139.4254  143.5262 H   0  0  0  0  0  0  0  0  0  0  0  0  # atno 7974 bound_to 7965
  156.2195  140.1813  156.7511 H   0  0  0  0  0  0  0  0  0  0  0  0  # atno 8008 bound_to 7997
  154.5842  140.0661  156.9177 H   0  0  0  0  0  0  0  0  0  0  0  0  # atno 8009 bound_to 7997
  155.2448  140.3324  155.4291 H   0  0  0  0  0  0  0  0  0  0  0  0  # atno 8010 bound_to 7997
  139.6227  144.0593  152.1947 H   0  0  0  0  0  0  0  0  0  0  0  0  # atno 10167 bound_to 10162
  157.1662  130.6739  149.6061 H   0  0  0  0  0  0  0  0  0  0  0  0  # atno 10718 bound_to 10713
  153.9232  135.2998  155.3447 H   0  0  0  0  0  0  0  0  0  0  0  0  # atno 10763 bound_to 10752
  154.7565  135.4955  153.9386 H   0  0  0  0  0  0  0  0  0  0  0  0  # atno 10764 bound_to 10752
  153.1130  135.6764  153.9570 H   0  0  0  0  0  0  0  0  0  0  0  0  # atno 10765 bound_to 10752
  140.0603  134.5611  155.9159 H   0  0  0  0  0  0  0  0  0  0  0  0  # atno 11005 bound_to 11000
  146.3463  139.9497  142.8730 LP  0  0  0  0  0  0  0  0  0  0  0  0  # atno 17320 bound_to 7965
  145.2071  140.9879  143.4122 LP  0  0  0  0  0  0  0  0  0  0  0  0  # atno 17321 bound_to 7965
  140.0239  144.6132  150.7543 LP  0  0  0  0  0  0  0  0  0  0  0  0  # atno 17342 bound_to 10162
  140.7392  143.2788  151.3662 LP  0  0  0  0  0  0  0  0  0  0  0  0  # atno 17343 bound_to 10162
  155.9745  130.4694  150.6395 LP  0  0  0  0  0  0  0  0  0  0  0  0  # atno 17370 bound_to 10713
  157.4086  131.0820  151.1242 LP  0  0  0  0  0  0  0  0  0  0  0  0  # atno 17371 bound_to 10713
  141.1970  133.6594  156.5720 LP  0  0  0  0  0  0  0  0  0  0  0  0  # atno 17394 bound_to 11000
  140.3780  134.7548  157.4642 LP  0  0  0  0  0  0  0  0  0  0  0  0  # atno 17395 bound_to 11000

$$$$
