AV-unprocessed.smi:2083|AV-procd|sdf|8502|dock5
  -GOLD-   2272011213D 1   1.00000     0.00000
 Structure written by MMmdl.
 44 45  0  0  0  0  0  0  0  0  3 V2000
  147.1438  133.0456  161.7168 C   0  0  0  0  0  0  0  0  0  0  0  0
  147.2367  134.4865  161.3461 C   0  0  0  0  0  0  0  0  0  0  0  0
  147.7028  135.1298  160.2347 C   0  0  0  0  0  0  0  0  0  0  0  0
  147.4901  136.5019  160.5403 C   0  0  0  0  0  0  0  0  0  0  0  0
  147.8059  137.5440  159.7562 N   0  5  0  0  0  0  0  0  0  0  0  0
  148.9920  137.5760  159.1070 C   0  0  0  0  0  0  0  0  0  0  0  0
  149.8081  136.6557  159.0208 O   0  0  0  0  0  0  0  0  0  0  0  0
  149.2493  138.7516  158.5200 N   0  0  0  0  0  0  0  0  0  0  0  0
  150.4472  139.0673  157.7516 C   0  0  0  0  0  0  0  0  0  0  0  0
  150.3884  140.4923  157.1520 C   0  0  2  0  0  0  0  0  0  0  0  0
  150.9743  140.4945  155.7184 C   0  0  0  0  0  0  0  0  0  0  0  0
  151.0508  141.4612  158.0861 N   0  3  1  0  0  0  0  0  0  0  0  0
  152.2953  140.9818  158.7555 C   0  0  0  0  0  0  0  0  0  0  0  0
  152.8069  141.9940  159.7941 C   0  0  0  0  0  0  0  0  0  0  0  0
  153.0223  143.3773  159.1699 C   0  0  0  0  0  0  0  0  0  0  0  0
  151.7539  143.8561  158.4451 C   0  0  2  0  0  0  0  0  0  0  0  0
  150.6367  144.2912  159.4096 C   0  0  0  0  0  0  0  0  0  0  0  0
  151.2766  142.7879  157.4413 C   0  0  0  0  0  0  0  0  0  0  0  0
  146.9568  136.6764  161.7378 N   0  0  0  0  0  0  0  0  0  0  0  0
  146.7854  135.3883  162.2589 O   0  0  0  0  0  0  0  0  0  0  0  0
  148.1302  132.5817  161.7092 H   0  0  0  0  0  0  0  0  0  0  0  0
  146.5109  132.5070  161.0115 H   0  0  0  0  0  0  0  0  0  0  0  0
  146.7200  132.9216  162.7138 H   0  0  0  0  0  0  0  0  0  0  0  0
  148.1259  134.6901  159.3440 H   0  0  0  0  0  0  0  0  0  0  0  0
  148.5549  139.4784  158.6135 H   0  0  0  0  0  0  0  0  0  0  0  0
  151.3032  138.9442  158.4141 H   0  0  0  0  0  0  0  0  0  0  0  0
  150.5658  138.3374  156.9487 H   0  0  0  0  0  0  0  0  0  0  0  0
  149.3414  140.7857  157.0574 H   0  0  0  0  0  0  0  0  0  0  0  0
  150.4720  139.7711  155.0761 H   0  0  0  0  0  0  0  0  0  0  0  0
  152.0352  140.2420  155.7198 H   0  0  0  0  0  0  0  0  0  0  0  0
  150.8501  141.4593  155.2268 H   0  0  0  0  0  0  0  0  0  0  0  0
  152.1177  140.0491  159.2892 H   0  0  0  0  0  0  0  0  0  0  0  0
  153.0634  140.7870  158.0053 H   0  0  0  0  0  0  0  0  0  0  0  0
  152.0969  142.0645  160.6188 H   0  0  0  0  0  0  0  0  0  0  0  0
  153.7409  141.6367  160.2288 H   0  0  0  0  0  0  0  0  0  0  0  0
  153.3258  144.0962  159.9318 H   0  0  0  0  0  0  0  0  0  0  0  0
  153.8455  143.3214  158.4563 H   0  0  0  0  0  0  0  0  0  0  0  0
  152.0260  144.7434  157.8720 H   0  0  0  0  0  0  0  0  0  0  0  0
  150.2641  143.4585  160.0063 H   0  0  0  0  0  0  0  0  0  0  0  0
  149.7900  144.7064  158.8623 H   0  0  0  0  0  0  0  0  0  0  0  0
  150.9902  145.0603  160.0970 H   0  0  0  0  0  0  0  0  0  0  0  0
  152.0222  142.6719  156.6527 H   0  0  0  0  0  0  0  0  0  0  0  0
  150.3733  143.1461  156.9499 H   0  0  0  0  0  0  0  0  0  0  0  0
  150.3872  141.6117  158.8325 H   0  0  0  0  0  0  0  0  0  0  0  0
  1  2  1  0  0  0  0
  1 21  1  0  0  0  0
  1 22  1  0  0  0  0
  1 23  1  0  0  0  0
  2 20  1  0  0  0  0
  2  3  2  0  0  0  0
  3  4  1  0  0  0  0
  3 24  1  0  0  0  0
  4  5  1  0  0  0  0
  4 19  2  0  0  0  0
  5  6  1  0  0  0  0
  6  7  2  0  0  0  0
  6  8  1  0  0  0  0
  8  9  1  0  0  0  0
  8 25  1  0  0  0  0
  9 10  1  0  0  0  0
  9 26  1  0  0  0  0
  9 27  1  0  0  0  0
 10 11  1  0  0  0  0
 10 12  1  0  0  0  0
 10 28  1  0  0  0  0
 11 29  1  0  0  0  0
 11 30  1  0  0  0  0
 11 31  1  0  0  0  0
 12 18  1  0  0  0  0
 12 13  1  0  0  0  0
 12 44  1  0  0  0  0
 13 14  1  0  0  0  0
 13 32  1  0  0  0  0
 13 33  1  0  0  0  0
 14 15  1  0  0  0  0
 14 34  1  0  0  0  0
 14 35  1  0  0  0  0
 15 16  1  0  0  0  0
 15 36  1  0  0  0  0
 15 37  1  0  0  0  0
 16 17  1  0  0  0  0
 16 18  1  0  0  0  0
 16 38  1  0  0  0  0
 17 39  1  0  0  0  0
 17 40  1  0  0  0  0
 17 41  1  0  0  0  0
 18 42  1  0  0  0  0
 18 43  1  0  0  0  0
 19 20  1  0  0  0  0
M  CHG  1   5  -1
M  CHG  1  12   1
M  END
> <s_m_source_file>
AV-unprocessed.smi

> <i_m_source_file_index>
2083

> <i_lp_mmshare_version>
43012

> <i_f3d_flags>
0

> <s_epik_input>
W0NIM11jMVtjSF1jKG5vMSlbTkhdQyg9TylbTkhdW0NIMl1bQ0BIXShbQ0gzXSlOMltDSDJdW0NIMl1bQ0gyXVtDQEBIXShbQ0gzXSlbQ0gyXTI=

> <s_epik_cmdline>
J2VwaWtfcHl0aG9uJywgJy1waCcsICc3LjAnLCAnLXRuJywgJzgnLCAnLW1hJywgJzIwMCcsICctbWV0YWxfYmluZGluZycsICctaW1hZScsICc8aW5maWxlLm1hZT4nLCAnLW9tYWUnLCAnPG91dGZpbGUubWFlPic=

> <r_epik_Ionization_Penalty>
6.22434

> <r_epik_Ionization_Penalty_Charging>
6.22425

> <r_epik_Ionization_Penalty_Neutral>
9.62407e-05

> <r_epik_State_Penalty>
6.22423

> <r_epik_Charging_Adjusted_Penalty>
12.4485

> <i_epik_Tot_Q>
0

> <i_epik_Tot_abs_Q>
2

> <r_epik_Metal_State_Penalty>
2.16764

> <b_epik_Metal_Only>
1

> <s_lp_Force_Field>
OPLS_2005

> <r_lp_Energy>
14.8953

> <b_lp_Chiralities_Consistent>
1

> <s_lp_Variant>
AV-unprocessed.smi:2083-13

> <Gold.Version>
5.8.1

> <Gold.Id.Protein>
6NUR|6NUR_protein|mol2

> <Gold.PLP.Fitness>
43.1090

> <Gold.PLP.PLP>
-38.6941

> <Gold.PLP.part.hbond>
-2.9254

> <Gold.PLP.part.metal>
0.0000

> <Gold.PLP.part.buried>
-5.7967

> <Gold.PLP.part.nonpolar>
-31.5208

> <Gold.PLP.part.repulsive>
0.2955

> <Gold.PLP.ligand.clash>
0.0000

> <Gold.PLP.ligand.torsion>
1.2103

> <Gold.PLP.Chemscore.Hbond>
2.2509

> <Gold.PLP.Chemscore.CHOScore>
0.0000

> <Gold.PLP.Chemscore.Metal>
0.0000

> <Gold.Chemscore.Hbonds>
donor molecule, donor type, donor heavy atom, donor atom, acceptor molecule, acceptor atom, score
      P1  H  6896  6908       L1     7  0.67
      P1  H  6934  6947       L1     5  1.34

> <Gold.PLP.Chemscore.Internal.Correction>
0.0828

> <Gold.Rescore>
     Score         DG    S(hbond)    S(metal)    S(lipo)     H(rot)  DE(clash)    DE(int)     intcor
     14.98     -17.71       1.55        0.00      93.51       1.52       0.59       2.14       ----

> <Gold.Chemscore.Fitness>
14.9813

> <Gold.Chemscore.DG>
-17.7063

> <Gold.Chemscore.ZeroCoef>
-5.4800

> <Gold.Chemscore.Hbond>
1.5492

> <Gold.Chemscore.Metal>
0.0000

> <Gold.Chemscore.Lipo>
93.5104

> <Gold.Chemscore.Internal_Hbond>
0.0000

> <Gold.Chemscore.DEClash>
0.5872

> <Gold.Chemscore.DEInternal>
2.1378

> <Gold.Chemscore.Rot>
1.5190

> <Gold.Chemscore.Internal.Correction>
   9.000000E+99

> <Gold.Chemscore.Hbonds>
donor molecule, donor type, donor heavy atom, donor atom, acceptor molecule, acceptor atom, score
      P1  H  6896  6908       L1     7  0.67
      P1  H  6934  6947       L1     5  0.17

> <Gold.Chemscore.Hbond.Weighted>
-5.1742

> <Gold.Chemscore.Metal.Weighted>
-0.0000

> <Gold.Chemscore.Lipo.Weighted>
-10.9407

> <Gold.Chemscore.Internal_Hbond.Weighted>
0.0000

> <Gold.Chemscore.DEClash.Weighted>
0.5872

> <Gold.Chemscore.DEInternal.Weighted>
2.1378

> <Gold.Chemscore.Rot.Weighted>
3.8886

> <Gold.Chemscore.Internal.Correction.Weighted>
   9.000000E+99

> <Gold.Protein.RotatedTorsions>
[ 6907 6896 6895 6894 ] final -168.58 input  -60.11 | X-H torsion
[ 7974 7965 7964 7962 ] final  141.00 input  175.53 | X-H torsion
[ 8008 7997 7996 7995 ] final  -57.93 input   59.86 | X-H torsion
[ 10167 10162 10161 10158 ] final   63.76 input  -65.29 | X-H torsion
[ 10718 10713 10712 10709 ] final -118.76 input   66.30 | X-H torsion
[ 10763 10752 10751 10750 ] final  -70.52 input  -60.55 | X-H torsion
[ 11005 11000 10999 10996 ] final   75.71 input  -57.11 | X-H torsion

> <Gold.Protein.ActiveResidues>
 VAL166  LYS551  ARG553  GLY616  TRP617  ASP618  TYR619  PRO620  LYS621  CYS622 
 ASP623  PHE694  ASN695  SER759  ASP760  ASP761  ALA762  ILE779  LEU786  VAL792 
 PHE793  MET794  SER795  GLU796  ALA797  LYS798  CYS799  TRP800  GLU811  SER814 

> <Gold.Protein.RotatedAtoms>
  151.4779  133.3553  159.2833 H   0  0  0  0  0  0  0  0  0  0  0  0  # atno 6907 bound_to 6896
  150.8917  134.8323  159.7309 H   0  0  0  0  0  0  0  0  0  0  0  0  # atno 6908 bound_to 6896
  152.4827  134.4689  159.9681 H   0  0  0  0  0  0  0  0  0  0  0  0  # atno 6909 bound_to 6896
  144.9136  139.5260  143.5697 H   0  0  0  0  0  0  0  0  0  0  0  0  # atno 7974 bound_to 7965
  154.4288  140.1095  156.5876 H   0  0  0  0  0  0  0  0  0  0  0  0  # atno 8008 bound_to 7997
  155.6046  140.3493  155.4585 H   0  0  0  0  0  0  0  0  0  0  0  0  # atno 8009 bound_to 7997
  156.0146  140.1226  157.0408 H   0  0  0  0  0  0  0  0  0  0  0  0  # atno 8010 bound_to 7997
  140.1296  144.4656  150.6873 H   0  0  0  0  0  0  0  0  0  0  0  0  # atno 10167 bound_to 10162
  156.1130  130.6264  150.9331 H   0  0  0  0  0  0  0  0  0  0  0  0  # atno 10718 bound_to 10713
  154.4188  135.5991  153.5997 H   0  0  0  0  0  0  0  0  0  0  0  0  # atno 10763 bound_to 10752
  152.9793  135.5947  154.3980 H   0  0  0  0  0  0  0  0  0  0  0  0  # atno 10764 bound_to 10752
  154.3803  135.2841  155.2194 H   0  0  0  0  0  0  0  0  0  0  0  0  # atno 10765 bound_to 10752
  139.9331  134.7540  156.1304 H   0  0  0  0  0  0  0  0  0  0  0  0  # atno 11005 bound_to 11000
  146.3171  139.7961  142.8975 LP  0  0  0  0  0  0  0  0  0  0  0  0  # atno 17320 bound_to 7965
  145.3413  141.0288  143.3390 LP  0  0  0  0  0  0  0  0  0  0  0  0  # atno 17321 bound_to 7965
  140.6825  143.2333  151.5347 LP  0  0  0  0  0  0  0  0  0  0  0  0  # atno 17342 bound_to 10162
  139.5527  144.2355  152.1558 LP  0  0  0  0  0  0  0  0  0  0  0  0  # atno 17343 bound_to 10162
  157.6312  131.0921  150.8437 LP  0  0  0  0  0  0  0  0  0  0  0  0  # atno 17370 bound_to 10713
  156.8545  130.5092  149.5309 LP  0  0  0  0  0  0  0  0  0  0  0  0  # atno 17371 bound_to 10713
  141.0931  133.6706  156.2584 LP  0  0  0  0  0  0  0  0  0  0  0  0  # atno 17394 bound_to 11000
  140.6147  134.5422  157.5539 LP  0  0  0  0  0  0  0  0  0  0  0  0  # atno 17395 bound_to 11000

$$$$
