AV-unprocessed.smi:33|AV-procd|sdf|206|dock3
  -GOLD-   2262015493D 1   1.00000     0.00000
 Structure written by MMmdl.
 67 72  0  0  0  0  0  0  0  0  1 V2000
  150.1527  142.1269  156.0305 O   0  0  0  0  0  0  0  0  0  0  0  0
  150.1434  141.9825  157.2549 C   0  0  0  0  0  0  0  0  0  0  0  0
  149.3049  141.1488  157.9012 O   0  0  0  0  0  0  0  0  0  0  0  0
  148.8054  139.9926  157.2480 C   0  0  0  0  0  0  0  0  0  0  0  0
  147.7270  140.4019  156.2383 C   0  0  1  0  0  0  0  0  0  0  0  0
  147.3780  141.7727  156.4224 O   0  0  0  0  0  0  0  0  0  0  0  0
  147.0110  142.3467  155.1996 C   0  0  2  0  0  0  0  0  0  0  0  0
  145.6093  142.8714  155.2909 N   0  0  0  0  0  0  0  0  0  0  0  0
  144.6973  142.6299  156.2947 C   0  0  0  0  0  0  0  0  0  0  0  0
  143.5370  143.2106  156.1520 N   0  0  0  0  0  0  0  0  0  0  0  0
  143.6567  143.9063  154.9567 C   0  0  0  0  0  0  0  0  0  0  0  0
  142.7853  144.7468  154.2131 C   0  0  0  0  0  0  0  0  0  0  0  0
  141.5294  145.0458  154.6196 N   0  0  0  0  0  0  0  0  0  0  0  0
  141.3696  145.5095  156.0057 C   0  0  0  0  0  0  0  0  0  0  0  0
  140.2869  145.3620  156.5759 O   0  0  0  0  0  0  0  0  0  0  0  0
  142.5272  146.1205  156.7429 C   0  0  0  0  0  0  0  0  0  0  0  0
  143.3798  147.0353  156.0870 C   0  0  0  0  0  0  0  0  0  0  0  0
  144.4745  147.6002  156.7697 C   0  0  0  0  0  0  0  0  0  0  0  0
  144.7350  147.2391  158.1054 C   0  0  0  0  0  0  0  0  0  0  0  0
  143.9059  146.3056  158.7559 C   0  0  0  0  0  0  0  0  0  0  0  0
  142.8102  145.7414  158.0747 C   0  0  0  0  0  0  0  0  0  0  0  0
  140.4458  144.8823  153.6396 C   0  0  0  0  0  0  0  0  0  0  0  0
  140.5874  144.0923  152.7041 O   0  0  0  0  0  0  0  0  0  0  0  0
  139.1497  145.6251  153.8026 C   0  0  0  0  0  0  0  0  0  0  0  0
  139.1528  147.0318  153.9263 C   0  0  0  0  0  0  0  0  0  0  0  0
  137.9427  147.7331  154.0913 C   0  0  0  0  0  0  0  0  0  0  0  0
  136.7239  147.0313  154.1536 C   0  0  0  0  0  0  0  0  0  0  0  0
  136.7160  145.6266  154.0594 C   0  0  0  0  0  0  0  0  0  0  0  0
  137.9255  144.9245  153.8930 C   0  0  0  0  0  0  0  0  0  0  0  0
  143.2443  145.2715  153.0478 N   0  0  0  0  0  0  0  0  0  0  0  0
  144.4848  144.9914  152.6386 C   0  0  0  0  0  0  0  0  0  0  0  0
  145.4067  144.2288  153.2304 N   0  0  0  0  0  0  0  0  0  0  0  0
  144.9489  143.6967  154.4009 C   0  0  0  0  0  0  0  0  0  0  0  0
  147.1902  141.2784  154.1019 C   0  0  2  0  0  0  0  0  0  0  0  0
  145.9880  140.6119  153.7528 O   0  0  0  0  0  0  0  0  0  0  0  0
  148.1757  140.3458  154.7801 C   0  0  2  0  0  0  0  0  0  0  0  0
  148.1840  139.1186  154.2567 F   0  0  0  0  0  0  0  0  0  0  0  0
  151.0630  142.7107  158.1763 C   0  0  0  0  0  0  0  0  0  0  0  0
  151.7513  141.9905  159.1807 C   0  0  0  0  0  0  0  0  0  0  0  0
  152.6263  142.6505  160.0653 C   0  0  0  0  0  0  0  0  0  0  0  0
  152.8243  144.0392  159.9562 C   0  0  0  0  0  0  0  0  0  0  0  0
  152.1456  144.7674  158.9616 C   0  0  0  0  0  0  0  0  0  0  0  0
  151.2701  144.1089  158.0757 C   0  0  0  0  0  0  0  0  0  0  0  0
  149.6276  139.4935  156.7340 H   0  0  0  0  0  0  0  0  0  0  0  0
  148.3945  139.2871  157.9716 H   0  0  0  0  0  0  0  0  0  0  0  0
  146.8308  139.7960  156.3777 H   0  0  0  0  0  0  0  0  0  0  0  0
  147.6261  143.2315  155.0305 H   0  0  0  0  0  0  0  0  0  0  0  0
  144.9233  142.0066  157.1477 H   0  0  0  0  0  0  0  0  0  0  0  0
  143.1888  147.3195  155.0621 H   0  0  0  0  0  0  0  0  0  0  0  0
  145.1151  148.3102  156.2678 H   0  0  0  0  0  0  0  0  0  0  0  0
  145.5745  147.6727  158.6283 H   0  0  0  0  0  0  0  0  0  0  0  0
  144.1106  146.0207  159.7775 H   0  0  0  0  0  0  0  0  0  0  0  0
  142.1834  145.0222  158.5822 H   0  0  0  0  0  0  0  0  0  0  0  0
  140.0823  147.5808  153.8798 H   0  0  0  0  0  0  0  0  0  0  0  0
  137.9500  148.8100  154.1712 H   0  0  0  0  0  0  0  0  0  0  0  0
  135.7963  147.5696  154.2805 H   0  0  0  0  0  0  0  0  0  0  0  0
  135.7825  145.0868  154.1158 H   0  0  0  0  0  0  0  0  0  0  0  0
  137.9073  143.8462  153.8266 H   0  0  0  0  0  0  0  0  0  0  0  0
  144.7822  145.4440  151.7042 H   0  0  0  0  0  0  0  0  0  0  0  0
  147.6084  141.7359  153.2049 H   0  0  0  0  0  0  0  0  0  0  0  0
  145.8972  140.6294  152.8123 H   0  0  0  0  0  0  0  0  0  0  0  0
  149.1870  140.7433  154.6830 H   0  0  0  0  0  0  0  0  0  0  0  0
  151.6148  140.9236  159.2846 H   0  0  0  0  0  0  0  0  0  0  0  0
  153.1466  142.0899  160.8280 H   0  0  0  0  0  0  0  0  0  0  0  0
  153.4957  144.5453  160.6341 H   0  0  0  0  0  0  0  0  0  0  0  0
  152.2971  145.8333  158.8762 H   0  0  0  0  0  0  0  0  0  0  0  0
  150.7663  144.6978  157.3232 H   0  0  0  0  0  0  0  0  0  0  0  0
  1  2  2  0  0  0  0
  2  3  1  0  0  0  0
  2 38  1  0  0  0  0
  3  4  1  0  0  0  0
  4  5  1  0  0  0  0
  4 44  1  0  0  0  0
  4 45  1  0  0  0  0
  5 36  1  0  0  0  0
  5  6  1  0  0  0  0
  5 46  1  0  0  0  0
  6  7  1  0  0  0  0
  7  8  1  0  0  0  0
  7 34  1  0  0  0  0
  7 47  1  0  0  0  0
  8 33  1  0  0  0  0
  8  9  1  0  0  0  0
  9 10  2  0  0  0  0
  9 48  1  0  0  0  0
 10 11  1  0  0  0  0
 11 33  2  0  0  0  0
 11 12  1  0  0  0  0
 12 13  1  0  0  0  0
 12 30  2  0  0  0  0
 13 14  1  0  0  0  0
 13 22  1  0  0  0  0
 14 15  2  0  0  0  0
 14 16  1  0  0  0  0
 16 21  1  0  0  0  0
 16 17  2  0  0  0  0
 17 18  1  0  0  0  0
 17 49  1  0  0  0  0
 18 19  2  0  0  0  0
 18 50  1  0  0  0  0
 19 20  1  0  0  0  0
 19 51  1  0  0  0  0
 20 21  2  0  0  0  0
 20 52  1  0  0  0  0
 21 53  1  0  0  0  0
 22 23  2  0  0  0  0
 22 24  1  0  0  0  0
 24 29  1  0  0  0  0
 24 25  2  0  0  0  0
 25 26  1  0  0  0  0
 25 54  1  0  0  0  0
 26 27  2  0  0  0  0
 26 55  1  0  0  0  0
 27 28  1  0  0  0  0
 27 56  1  0  0  0  0
 28 29  2  0  0  0  0
 28 57  1  0  0  0  0
 29 58  1  0  0  0  0
 30 31  1  0  0  0  0
 31 32  2  0  0  0  0
 31 59  1  0  0  0  0
 32 33  1  0  0  0  0
 34 35  1  0  0  0  0
 34 36  1  0  0  0  0
 34 60  1  0  0  0  0
 35 61  1  0  0  0  0
 36 37  1  0  0  0  0
 36 62  1  0  0  0  0
 38 43  1  0  0  0  0
 38 39  2  0  0  0  0
 39 40  1  0  0  0  0
 39 63  1  0  0  0  0
 40 41  2  0  0  0  0
 40 64  1  0  0  0  0
 41 42  1  0  0  0  0
 41 65  1  0  0  0  0
 42 43  2  0  0  0  0
 42 66  1  0  0  0  0
 43 67  1  0  0  0  0
M  END
> <s_m_source_file>
AV-unprocessed.smi

> <i_m_source_file_index>
33

> <i_lp_mmshare_version>
43012

> <i_f3d_flags>
0

> <s_epik_input>
W2NIXTFbY0hdW2NIXVtjSF1bY0hdYzFDKD1PKU9bQ0gyXVtDQEBIXTJPW0NASF0oW0NAQEhdKFtPSF0pW0NAQEhdMkYpbihbY0hdbjMpYyhjMzQpbltjSF1uYzROKEMoPU8pYzVbY0hdW2NIXVtjSF1bY0hdW2NIXTUpQyg9TyljNltjSF1bY0hdW2NIXVtjSF1bY0hdNg==

> <s_epik_cmdline>
J2VwaWtfcHl0aG9uJywgJy1waCcsICc3LjAnLCAnLXRuJywgJzgnLCAnLW1hJywgJzIwMCcsICctbWV0YWxfYmluZGluZycsICctaW1hZScsICc8aW5maWxlLm1hZT4nLCAnLW9tYWUnLCAnPG91dGZpbGUubWFlPic=

> <r_lp_tautomer_probability>
1

> <r_epik_Ionization_Penalty>
0.00067664

> <r_epik_Ionization_Penalty_Charging>
0

> <r_epik_Ionization_Penalty_Neutral>
0.00067664

> <r_epik_State_Penalty>
0.000428095

> <r_epik_Charging_Adjusted_Penalty>
0.000428095

> <i_epik_Tot_Q>
0

> <i_epik_Tot_abs_Q>
0

> <r_epik_Metal_State_Penalty>
-0

> <b_epik_Metal_Only>
0

> <s_epik_Chemistry_Notes>
This compound has an ester and may undergo hydrolysis at high or low pH. This compound contains an acetal/aminal-like group ( X-CH(R)-Y where X, Y are N, S, or O) that may be acid/base labile, releasing an aldehyde.

> <s_lp_Force_Field>
OPLS_2005

> <r_lp_Energy>
78.7548

> <b_lp_Chiralities_Consistent>
1

> <s_lp_Variant>
AV-unprocessed.smi:33-8

> <Gold.Version>
5.8.1

> <Gold.Id.Protein>
6NUR|6NUR_protein|mol2

> <Gold.PLP.Fitness>
60.0950

> <Gold.PLP.PLP>
-64.4054

> <Gold.PLP.part.hbond>
-2.9248

> <Gold.PLP.part.metal>
0.0000

> <Gold.PLP.part.buried>
-5.8570

> <Gold.PLP.part.nonpolar>
-57.7371

> <Gold.PLP.part.repulsive>
1.2768

> <Gold.PLP.ligand.clash>
0.0000

> <Gold.PLP.ligand.torsion>
5.1947

> <Gold.PLP.Chemscore.Hbond>
0.4826

> <Gold.PLP.Chemscore.CHOScore>
0.0000

> <Gold.PLP.Chemscore.Metal>
0.0000

> <Gold.Chemscore.Hbonds>
donor molecule, donor type, donor heavy atom, donor atom, acceptor molecule, acceptor atom, score
      L1  H    35    61       P1 10175  0.05

> <Gold.PLP.Chemscore.Internal.Correction>
4.6314

> <Gold.Rescore>
     Score         DG    S(hbond)    S(metal)    S(lipo)     H(rot)  DE(clash)    DE(int)     intcor
      7.40     -22.46       1.96        0.00     144.39       2.52       4.23      10.83       ----

> <Gold.Chemscore.Fitness>
7.4021

> <Gold.Chemscore.DG>
-22.4597

> <Gold.Chemscore.ZeroCoef>
-5.4800

> <Gold.Chemscore.Hbond>
1.9608

> <Gold.Chemscore.Metal>
0.0000

> <Gold.Chemscore.Lipo>
144.3917

> <Gold.Chemscore.Internal_Hbond>
0.0000

> <Gold.Chemscore.DEClash>
4.2322

> <Gold.Chemscore.DEInternal>
10.8254

> <Gold.Chemscore.Rot>
2.5247

> <Gold.Chemscore.Internal.Correction>
   9.000000E+99

> <Gold.Chemscore.Hbonds>
donor molecule, donor type, donor heavy atom, donor atom, acceptor molecule, acceptor atom, score
      L1  H    35    61       P1 10175  0.03

> <Gold.Chemscore.Hbond.Weighted>
-6.5492

> <Gold.Chemscore.Metal.Weighted>
-0.0000

> <Gold.Chemscore.Lipo.Weighted>
-16.8938

> <Gold.Chemscore.Internal_Hbond.Weighted>
0.0000

> <Gold.Chemscore.DEClash.Weighted>
4.2322

> <Gold.Chemscore.DEInternal.Weighted>
10.8254

> <Gold.Chemscore.Rot.Weighted>
6.4633

> <Gold.Chemscore.Internal.Correction.Weighted>
   9.000000E+99

> <Gold.Protein.RotatedTorsions>
[ 6907 6896 6895 6894 ] final   -9.75 input  -60.11 | X-H torsion
[ 7974 7965 7964 7962 ] final   15.59 input  175.53 | X-H torsion
[ 8008 7997 7996 7995 ] final -152.14 input   59.86 | X-H torsion
[ 10167 10162 10161 10158 ] final -167.05 input  -65.29 | X-H torsion
[ 10718 10713 10712 10709 ] final -104.85 input   66.30 | X-H torsion
[ 10763 10752 10751 10750 ] final  128.14 input  -60.55 | X-H torsion
[ 11005 11000 10999 10996 ] final  -92.34 input  -57.11 | X-H torsion

> <Gold.Protein.ActiveResidues>
 VAL166  LYS551  ARG553  GLY616  TRP617  ASP618  TYR619  PRO620  LYS621  CYS622 
 ASP623  PHE694  ASN695  SER759  ASP760  ASP761  ALA762  ILE779  LEU786  VAL792 
 PHE793  MET794  SER795  GLU796  ALA797  LYS798  CYS799  TRP800  GLU811  SER814 

> <Gold.Protein.RotatedAtoms>
  151.4128  135.0987  159.9589 H   0  0  0  0  0  0  0  0  0  0  0  0  # atno 6907 bound_to 6896
  152.5014  133.8781  159.7343 H   0  0  0  0  0  0  0  0  0  0  0  0  # atno 6908 bound_to 6896
  150.9280  133.6744  159.2845 H   0  0  0  0  0  0  0  0  0  0  0  0  # atno 6909 bound_to 6896
  146.2274  139.8871  142.8561 H   0  0  0  0  0  0  0  0  0  0  0  0  # atno 7974 bound_to 7965
  155.6504  140.0711  157.2589 H   0  0  0  0  0  0  0  0  0  0  0  0  # atno 8008 bound_to 7997
  154.4164  140.1734  156.1718 H   0  0  0  0  0  0  0  0  0  0  0  0  # atno 8009 bound_to 7997
  155.9781  140.3356  155.6641 H   0  0  0  0  0  0  0  0  0  0  0  0  # atno 8010 bound_to 7997
  139.6075  144.0883  152.1808 H   0  0  0  0  0  0  0  0  0  0  0  0  # atno 10167 bound_to 10162
  156.0321  130.5535  150.7455 H   0  0  0  0  0  0  0  0  0  0  0  0  # atno 10718 bound_to 10713
  153.7207  135.3254  155.3266 H   0  0  0  0  0  0  0  0  0  0  0  0  # atno 10763 bound_to 10752
  154.8357  135.4499  154.1220 H   0  0  0  0  0  0  0  0  0  0  0  0  # atno 10764 bound_to 10752
  153.2340  135.6963  153.7938 H   0  0  0  0  0  0  0  0  0  0  0  0  # atno 10765 bound_to 10752
  141.1524  133.7814  157.0006 H   0  0  0  0  0  0  0  0  0  0  0  0  # atno 11005 bound_to 11000
  145.2454  141.0025  143.3911 LP  0  0  0  0  0  0  0  0  0  0  0  0  # atno 17320 bound_to 7965
  144.9417  139.4181  143.6445 LP  0  0  0  0  0  0  0  0  0  0  0  0  # atno 17321 bound_to 7965
  140.0494  144.5945  150.7348 LP  0  0  0  0  0  0  0  0  0  0  0  0  # atno 17342 bound_to 10162
  140.7295  143.2673  151.4002 LP  0  0  0  0  0  0  0  0  0  0  0  0  # atno 17343 bound_to 10162
  157.5013  131.0919  151.0311 LP  0  0  0  0  0  0  0  0  0  0  0  0  # atno 17370 bound_to 10713
  157.0691  130.5857  149.5399 LP  0  0  0  0  0  0  0  0  0  0  0  0  # atno 17371 bound_to 10713
  140.0943  134.9574  157.1824 LP  0  0  0  0  0  0  0  0  0  0  0  0  # atno 17394 bound_to 11000
  140.3404  134.2710  155.7213 LP  0  0  0  0  0  0  0  0  0  0  0  0  # atno 17395 bound_to 11000

$$$$
