AV-unprocessed.smi:1023|AV-procd|sdf|4462|dock1
  -GOLD-   22720 2433D 1   1.00000     0.00000
 Structure written by MMmdl.
 32 33  0  0  0  0  0  0  0  0  1 V2000
  146.5416  142.2184  154.0799 C   0  0  0  0  0  0  0  0  0  0  0  0
  147.5273  141.3309  153.2997 C   0  0  0  0  0  0  0  0  0  0  0  0
  146.7955  140.1323  152.6779 C   0  0  0  0  0  0  0  0  0  0  0  0
  148.7142  140.8546  154.1627 C   0  0  0  0  0  0  0  0  0  0  0  0
  149.2253  141.9132  155.0286 N   0  0  0  0  0  0  0  0  0  0  0  0
  150.1477  141.7652  155.9945 C   0  0  0  0  0  0  0  0  0  0  0  0
  150.6855  140.6874  156.2427 O   0  0  0  0  0  0  0  0  0  0  0  0
  150.4677  142.8753  156.6937 N   0  0  0  0  0  0  0  0  0  0  0  0
  151.3826  143.0907  157.7653 C   0  0  0  0  0  0  0  0  0  0  0  0
  151.9554  144.2682  158.0546 N   0  0  0  0  0  0  0  0  0  0  0  0
  152.7912  144.1846  159.1585 N   0  0  0  0  0  0  0  0  0  0  0  0
  152.8237  142.9522  159.6785 C   0  0  0  0  0  0  0  0  0  0  0  0
  153.6515  142.6133  160.8732 C   0  0  0  0  0  0  0  0  0  0  0  0
  153.6775  141.2049  161.4209 C   0  0  0  0  0  0  0  0  0  0  0  0
  153.0195  142.3052  162.2133 C   0  0  0  0  0  0  0  0  0  0  0  0
  151.8136  141.7755  158.8458 S   0  0  0  0  0  0  0  0  0  0  0  0
  146.1411  141.6947  154.9484 H   0  0  0  0  0  0  0  0  0  0  0  0
  145.7005  142.5150  153.4531 H   0  0  0  0  0  0  0  0  0  0  0  0
  147.0169  143.1339  154.4324 H   0  0  0  0  0  0  0  0  0  0  0  0
  147.9281  141.9273  152.4787 H   0  0  0  0  0  0  0  0  0  0  0  0
  146.3638  139.4895  153.4458 H   0  0  0  0  0  0  0  0  0  0  0  0
  147.4740  139.5250  152.0782 H   0  0  0  0  0  0  0  0  0  0  0  0
  145.9862  140.4606  152.0250 H   0  0  0  0  0  0  0  0  0  0  0  0
  148.4337  139.9715  154.7391 H   0  0  0  0  0  0  0  0  0  0  0  0
  149.5347  140.5434  153.5155 H   0  0  0  0  0  0  0  0  0  0  0  0
  148.8355  142.8352  154.8921 H   0  0  0  0  0  0  0  0  0  0  0  0
  149.9979  143.7115  156.3786 H   0  0  0  0  0  0  0  0  0  0  0  0
  154.5834  143.1754  160.8672 H   0  0  0  0  0  0  0  0  0  0  0  0
  153.0285  140.4676  160.9522 H   0  0  0  0  0  0  0  0  0  0  0  0
  154.6314  140.8251  161.7809 H   0  0  0  0  0  0  0  0  0  0  0  0
  153.5344  142.6595  163.1038 H   0  0  0  0  0  0  0  0  0  0  0  0
  151.9335  142.2876  162.2796 H   0  0  0  0  0  0  0  0  0  0  0  0
  1  2  1  0  0  0  0
  1 17  1  0  0  0  0
  1 18  1  0  0  0  0
  1 19  1  0  0  0  0
  2  3  1  0  0  0  0
  2  4  1  0  0  0  0
  2 20  1  0  0  0  0
  3 21  1  0  0  0  0
  3 22  1  0  0  0  0
  3 23  1  0  0  0  0
  4  5  1  0  0  0  0
  4 24  1  0  0  0  0
  4 25  1  0  0  0  0
  5  6  1  0  0  0  0
  5 26  1  0  0  0  0
  6  7  2  0  0  0  0
  6  8  1  0  0  0  0
  8  9  1  0  0  0  0
  8 27  1  0  0  0  0
  9 16  1  0  0  0  0
  9 10  2  0  0  0  0
 10 11  1  0  0  0  0
 11 12  2  0  0  0  0
 12 13  1  0  0  0  0
 12 16  1  0  0  0  0
 13 15  1  0  0  0  0
 13 14  1  0  0  0  0
 13 28  1  0  0  0  0
 14 15  1  0  0  0  0
 14 29  1  0  0  0  0
 14 30  1  0  0  0  0
 15 31  1  0  0  0  0
 15 32  1  0  0  0  0
M  END
> <s_m_source_file>
AV-unprocessed.smi

> <i_m_source_file_index>
1023

> <i_lp_mmshare_version>
43012

> <i_f3d_flags>
0

> <s_epik_input>
W0NIM11bQ0hdKFtDSDNdKVtDSDJdW05IXUMoPU8pW05IXWMxbm5jKHMxKVtDSF0yW0NIMl1bQ0gyXTI=

> <s_epik_cmdline>
J2VwaWtfcHl0aG9uJywgJy1waCcsICc3LjAnLCAnLXRuJywgJzgnLCAnLW1hJywgJzIwMCcsICctbWV0YWxfYmluZGluZycsICctaW1hZScsICc8aW5maWxlLm1hZT4nLCAnLW9tYWUnLCAnPG91dGZpbGUubWFlPic=

> <r_lp_tautomer_probability>
1

> <r_epik_Ionization_Penalty>
0.000943136

> <r_epik_Ionization_Penalty_Charging>
0

> <r_epik_Ionization_Penalty_Neutral>
0.000943136

> <r_epik_State_Penalty>
-0

> <r_epik_Charging_Adjusted_Penalty>
0

> <i_epik_Tot_Q>
0

> <i_epik_Tot_abs_Q>
0

> <r_epik_Metal_State_Penalty>
0.281646

> <b_epik_Metal_Only>
0

> <s_lp_Force_Field>
OPLS_2005

> <r_lp_Energy>
5.4251

> <b_lp_Chiralities_Consistent>
1

> <s_lp_Variant>
AV-unprocessed.smi:1023-1

> <Gold.Version>
5.8.1

> <Gold.Id.Protein>
6NUR|6NUR_protein|mol2

> <Gold.PLP.Fitness>
40.3561

> <Gold.PLP.PLP>
-35.3980

> <Gold.PLP.part.hbond>
-2.0000

> <Gold.PLP.part.metal>
0.0000

> <Gold.PLP.part.buried>
-4.2824

> <Gold.PLP.part.nonpolar>
-28.1543

> <Gold.PLP.part.repulsive>
0.3637

> <Gold.PLP.ligand.clash>
0.0000

> <Gold.PLP.ligand.torsion>
0.4047

> <Gold.PLP.Chemscore.Hbond>
1.8640

> <Gold.PLP.Chemscore.CHOScore>
0.0000

> <Gold.PLP.Chemscore.Metal>
0.0000

> <Gold.Chemscore.Hbonds>
donor molecule, donor type, donor heavy atom, donor atom, acceptor molecule, acceptor atom, score
      L1  H     5    26       P1  8028  0.86
      L1  H     8    27       P1  8028  1.00

> <Gold.PLP.Chemscore.Internal.Correction>
0.1754

> <Gold.Rescore>
     Score         DG    S(hbond)    S(metal)    S(lipo)     H(rot)  DE(clash)    DE(int)     intcor
     16.72     -18.07       1.94        0.00      83.29       1.42       0.08       1.26       ----

> <Gold.Chemscore.Fitness>
16.7200

> <Gold.Chemscore.DG>
-18.0656

> <Gold.Chemscore.ZeroCoef>
-5.4800

> <Gold.Chemscore.Hbond>
1.9383

> <Gold.Chemscore.Metal>
0.0000

> <Gold.Chemscore.Lipo>
83.2893

> <Gold.Chemscore.Internal_Hbond>
0.0000

> <Gold.Chemscore.DEClash>
0.0813

> <Gold.Chemscore.DEInternal>
1.2643

> <Gold.Chemscore.Rot>
1.4193

> <Gold.Chemscore.Internal.Correction>
   9.000000E+99

> <Gold.Chemscore.Hbonds>
donor molecule, donor type, donor heavy atom, donor atom, acceptor molecule, acceptor atom, score
      L1  H     5    26       P1  8028  0.80
      L1  H     8    27       P1  8028  1.00

> <Gold.Chemscore.Hbond.Weighted>
-6.4740

> <Gold.Chemscore.Metal.Weighted>
-0.0000

> <Gold.Chemscore.Lipo.Weighted>
-9.7448

> <Gold.Chemscore.Internal_Hbond.Weighted>
0.0000

> <Gold.Chemscore.DEClash.Weighted>
0.0813

> <Gold.Chemscore.DEInternal.Weighted>
1.2643

> <Gold.Chemscore.Rot.Weighted>
3.6333

> <Gold.Chemscore.Internal.Correction.Weighted>
   9.000000E+99

> <Gold.Protein.RotatedTorsions>
[ 6907 6896 6895 6894 ] final  -98.03 input  -60.11 | X-H torsion
[ 7974 7965 7964 7962 ] final   56.95 input  175.53 | X-H torsion
[ 8008 7997 7996 7995 ] final   43.21 input   59.86 | X-H torsion
[ 10167 10162 10161 10158 ] final -161.58 input  -65.29 | X-H torsion
[ 10718 10713 10712 10709 ] final   18.00 input   66.30 | X-H torsion
[ 10763 10752 10751 10750 ] final   71.52 input  -60.55 | X-H torsion
[ 11005 11000 10999 10996 ] final -157.55 input  -57.11 | X-H torsion

> <Gold.Protein.ActiveResidues>
 VAL166  LYS551  ARG553  GLY616  TRP617  ASP618  TYR619  PRO620  LYS621  CYS622 
 ASP623  PHE694  ASN695  SER759  ASP760  ASP761  ALA762  ILE779  LEU786  VAL792 
 PHE793  MET794  SER795  GLU796  ALA797  LYS798  CYS799  TRP800  GLU811  SER814 

> <Gold.Protein.RotatedAtoms>
  150.7034  134.1257  159.4050 H   0  0  0  0  0  0  0  0  0  0  0  0  # atno 6907 bound_to 6896
  151.9243  135.0282  160.0534 H   0  0  0  0  0  0  0  0  0  0  0  0  # atno 6908 bound_to 6896
  152.2229  133.4963  159.5209 H   0  0  0  0  0  0  0  0  0  0  0  0  # atno 6909 bound_to 6896
  145.9343  139.3834  143.0402 H   0  0  0  0  0  0  0  0  0  0  0  0  # atno 7974 bound_to 7965
  155.2989  140.3384  155.4248 H   0  0  0  0  0  0  0  0  0  0  0  0  # atno 8008 bound_to 7997
  156.2010  140.1733  156.7938 H   0  0  0  0  0  0  0  0  0  0  0  0  # atno 8009 bound_to 7997
  154.5560  140.0696  156.8727 H   0  0  0  0  0  0  0  0  0  0  0  0  # atno 8010 bound_to 7997
  139.6454  144.0181  152.2123 H   0  0  0  0  0  0  0  0  0  0  0  0  # atno 10167 bound_to 10162
  157.0901  130.6424  149.5846 H   0  0  0  0  0  0  0  0  0  0  0  0  # atno 10718 bound_to 10713
  153.0403  135.5134  154.7605 H   0  0  0  0  0  0  0  0  0  0  0  0  # atno 10763 bound_to 10752
  154.6547  135.2930  154.9944 H   0  0  0  0  0  0  0  0  0  0  0  0  # atno 10764 bound_to 10752
  154.0816  135.6663  153.4891 H   0  0  0  0  0  0  0  0  0  0  0  0  # atno 10765 bound_to 10752
  140.6633  134.4325  157.5234 H   0  0  0  0  0  0  0  0  0  0  0  0  # atno 11005 bound_to 11000
  145.8385  140.9593  143.0812 LP  0  0  0  0  0  0  0  0  0  0  0  0  # atno 17320 bound_to 7965
  144.6769  140.0253  143.7483 LP  0  0  0  0  0  0  0  0  0  0  0  0  # atno 17321 bound_to 7965
  139.9881  144.6381  150.7839 LP  0  0  0  0  0  0  0  0  0  0  0  0  # atno 17342 bound_to 10162
  140.7512  143.2969  151.3182 LP  0  0  0  0  0  0  0  0  0  0  0  0  # atno 17343 bound_to 10162
  155.9900  130.4950  150.7239 LP  0  0  0  0  0  0  0  0  0  0  0  0  # atno 17370 bound_to 10713
  157.4728  131.0895  151.0623 LP  0  0  0  0  0  0  0  0  0  0  0  0  # atno 17371 bound_to 10713
  139.9005  134.8566  156.1915 LP  0  0  0  0  0  0  0  0  0  0  0  0  # atno 17394 bound_to 11000
  141.0448  133.6919  156.1663 LP  0  0  0  0  0  0  0  0  0  0  0  0  # atno 17395 bound_to 11000

$$$$
