AV-unprocessed.smi:2911|AV-procd|sdf|11178|dock3
  -GOLD-   2272016 73D 1   1.00000     0.00000
 Structure written by MMmdl.
 41 42  0  0  0  0  0  0  0  0  1 V2000
  155.8293  134.3289  157.3031 C   0  0  0  0  0  0  0  0  0  0  0  0
  154.8288  135.0218  158.1635 C   0  0  0  0  0  0  0  0  0  0  0  0
  154.7358  134.7594  159.4615 N   0  0  0  0  0  0  0  0  0  0  0  0
  153.6925  135.5947  159.8860 O   0  0  0  0  0  0  0  0  0  0  0  0
  153.2923  136.2749  158.7850 C   0  0  0  0  0  0  0  0  0  0  0  0
  152.1472  137.2242  158.9014 C   0  0  0  0  0  0  0  0  0  0  0  0
  152.2928  138.1739  160.1010 C   0  0  0  0  0  0  0  0  0  0  0  0
  152.3461  139.5691  159.6790 N   0  0  0  0  0  0  0  0  0  0  0  0
  151.3611  140.2294  159.0461 C   0  0  0  0  0  0  0  0  0  0  0  0
  150.2854  139.6894  158.7826 O   0  0  0  0  0  0  0  0  0  0  0  0
  151.6250  141.5372  158.7825 N   0  0  0  0  0  0  0  0  0  0  0  0
  152.9205  142.2070  159.0321 C   0  0  0  0  0  0  0  0  0  0  0  0
  152.7237  143.4872  159.8564 C   0  0  0  0  0  0  0  0  0  0  0  0
  151.7605  144.4511  159.1473 C   0  0  2  0  0  0  0  0  0  0  0  0
  151.5291  145.7265  159.9694 C   0  0  0  0  0  0  0  0  0  0  0  0
  150.4385  143.7299  158.8345 C   0  0  0  0  0  0  0  0  0  0  0  0
  150.6339  142.3901  158.0906 C   0  0  1  0  0  0  0  0  0  0  0  0
  150.9594  142.5433  156.5937 C   0  0  0  0  0  0  0  0  0  0  0  0
  153.9528  135.9440  157.6782 N   0  0  0  0  0  0  0  0  0  0  0  0
  156.6829  133.9953  157.8943 H   0  0  0  0  0  0  0  0  0  0  0  0
  156.1930  135.0009  156.5255 H   0  0  0  0  0  0  0  0  0  0  0  0
  155.3760  133.4596  156.8265 H   0  0  0  0  0  0  0  0  0  0  0  0
  152.0755  137.7958  157.9754 H   0  0  0  0  0  0  0  0  0  0  0  0
  151.2264  136.6454  158.9839 H   0  0  0  0  0  0  0  0  0  0  0  0
  151.4750  138.0259  160.8086 H   0  0  0  0  0  0  0  0  0  0  0  0
  153.2138  137.9508  160.6404 H   0  0  0  0  0  0  0  0  0  0  0  0
  153.1936  140.0763  159.8885 H   0  0  0  0  0  0  0  0  0  0  0  0
  153.6556  141.5825  159.5386 H   0  0  0  0  0  0  0  0  0  0  0  0
  153.3797  142.4531  158.0747 H   0  0  0  0  0  0  0  0  0  0  0  0
  152.3385  143.2302  160.8443 H   0  0  0  0  0  0  0  0  0  0  0  0
  153.6866  143.9734  160.0151 H   0  0  0  0  0  0  0  0  0  0  0  0
  152.2165  144.7493  158.2024 H   0  0  0  0  0  0  0  0  0  0  0  0
  151.0739  145.4999  160.9339 H   0  0  0  0  0  0  0  0  0  0  0  0
  150.8697  146.4178  159.4438 H   0  0  0  0  0  0  0  0  0  0  0  0
  152.4685  146.2466  160.1587 H   0  0  0  0  0  0  0  0  0  0  0  0
  149.9179  143.5310  159.7726 H   0  0  0  0  0  0  0  0  0  0  0  0
  149.7805  144.3825  158.2593 H   0  0  0  0  0  0  0  0  0  0  0  0
  149.6521  141.9154  158.1264 H   0  0  0  0  0  0  0  0  0  0  0  0
  150.1705  143.0932  156.0801 H   0  0  0  0  0  0  0  0  0  0  0  0
  151.0463  141.5697  156.1103 H   0  0  0  0  0  0  0  0  0  0  0  0
  151.8917  143.0821  156.4275 H   0  0  0  0  0  0  0  0  0  0  0  0
  1  2  1  0  0  0  0
  1 20  1  0  0  0  0
  1 21  1  0  0  0  0
  1 22  1  0  0  0  0
  2 19  1  0  0  0  0
  2  3  2  0  0  0  0
  3  4  1  0  0  0  0
  4  5  1  0  0  0  0
  5  6  1  0  0  0  0
  5 19  2  0  0  0  0
  6  7  1  0  0  0  0
  6 23  1  0  0  0  0
  6 24  1  0  0  0  0
  7  8  1  0  0  0  0
  7 25  1  0  0  0  0
  7 26  1  0  0  0  0
  8  9  1  0  0  0  0
  8 27  1  0  0  0  0
  9 10  2  0  0  0  0
  9 11  1  0  0  0  0
 11 17  1  0  0  0  0
 11 12  1  0  0  0  0
 12 13  1  0  0  0  0
 12 28  1  0  0  0  0
 12 29  1  0  0  0  0
 13 14  1  0  0  0  0
 13 30  1  0  0  0  0
 13 31  1  0  0  0  0
 14 15  1  0  0  0  0
 14 16  1  0  0  0  0
 14 32  1  0  0  0  0
 15 33  1  0  0  0  0
 15 34  1  0  0  0  0
 15 35  1  0  0  0  0
 16 17  1  0  0  0  0
 16 36  1  0  0  0  0
 16 37  1  0  0  0  0
 17 18  1  0  0  0  0
 17 38  1  0  0  0  0
 18 39  1  0  0  0  0
 18 40  1  0  0  0  0
 18 41  1  0  0  0  0
M  END
> <s_m_source_file>
AV-unprocessed.smi

> <i_m_source_file_index>
2911

> <i_lp_mmshare_version>
43012

> <i_f3d_flags>
0

> <s_epik_input>
W0NIM11jMW5vYyhuMSlbQ0gyXVtDSDJdW05IXUMoPU8pTjJbQ0gyXVtDSDJdW0NAQEhdKFtDSDNdKVtDSDJdW0NASF0yW0NIM10=

> <s_epik_cmdline>
J2VwaWtfcHl0aG9uJywgJy1waCcsICc3LjAnLCAnLXRuJywgJzgnLCAnLW1hJywgJzIwMCcsICctbWV0YWxfYmluZGluZycsICctaW1hZScsICc8aW5maWxlLm1hZT4nLCAnLW9tYWUnLCAnPG91dGZpbGUubWFlPic=

> <r_lp_tautomer_probability>
1

> <r_epik_Ionization_Penalty>
6.61671e-05

> <r_epik_Ionization_Penalty_Charging>
0

> <r_epik_Ionization_Penalty_Neutral>
6.61671e-05

> <r_epik_State_Penalty>
-0

> <r_epik_Charging_Adjusted_Penalty>
0

> <i_epik_Tot_Q>
0

> <i_epik_Tot_abs_Q>
0

> <r_epik_Metal_State_Penalty>
-0

> <b_epik_Metal_Only>
0

> <s_lp_Force_Field>
OPLS_2005

> <r_lp_Energy>
30.9139

> <b_lp_Chiralities_Consistent>
1

> <s_lp_Variant>
AV-unprocessed.smi:2911-2

> <Gold.Version>
5.8.1

> <Gold.Id.Protein>
6NUR|6NUR_protein|mol2

> <Gold.PLP.Fitness>
36.1969

> <Gold.PLP.PLP>
-31.2567

> <Gold.PLP.part.hbond>
-2.0000

> <Gold.PLP.part.metal>
0.0000

> <Gold.PLP.part.buried>
-4.6286

> <Gold.PLP.part.nonpolar>
-24.8065

> <Gold.PLP.part.repulsive>
0.1131

> <Gold.PLP.ligand.clash>
0.0000

> <Gold.PLP.ligand.torsion>
0.5419

> <Gold.PLP.Chemscore.Hbond>
2.0000

> <Gold.PLP.Chemscore.CHOScore>
0.0000

> <Gold.PLP.Chemscore.Metal>
0.0000

> <Gold.Chemscore.Hbonds>
donor molecule, donor type, donor heavy atom, donor atom, acceptor molecule, acceptor atom, score
      P1  H  6896  6908       L1     4  0.90
      P1  H 10752 10765       L1    19  0.19

> <Gold.PLP.Chemscore.Internal.Correction>
0.0239

> <Gold.Rescore>
     Score         DG    S(hbond)    S(metal)    S(lipo)     H(rot)  DE(clash)    DE(int)     intcor
     15.81     -16.41       1.73        0.00      79.15       1.61       0.01       0.59       ----

> <Gold.Chemscore.Fitness>
15.8110

> <Gold.Chemscore.DG>
-16.4131

> <Gold.Chemscore.ZeroCoef>
-5.4800

> <Gold.Chemscore.Hbond>
1.7340

> <Gold.Chemscore.Metal>
0.0000

> <Gold.Chemscore.Lipo>
79.1473

> <Gold.Chemscore.Internal_Hbond>
0.0000

> <Gold.Chemscore.DEClash>
0.0089

> <Gold.Chemscore.DEInternal>
0.5932

> <Gold.Chemscore.Rot>
1.6088

> <Gold.Chemscore.Internal.Correction>
   9.000000E+99

> <Gold.Chemscore.Hbonds>
donor molecule, donor type, donor heavy atom, donor atom, acceptor molecule, acceptor atom, score
      P1  H  6896  6908       L1     4  0.08
      P1  H 10752 10765       L1    19  0.05

> <Gold.Chemscore.Hbond.Weighted>
-5.7915

> <Gold.Chemscore.Metal.Weighted>
-0.0000

> <Gold.Chemscore.Lipo.Weighted>
-9.2602

> <Gold.Chemscore.Internal_Hbond.Weighted>
0.0000

> <Gold.Chemscore.DEClash.Weighted>
0.0089

> <Gold.Chemscore.DEInternal.Weighted>
0.5932

> <Gold.Chemscore.Rot.Weighted>
4.1186

> <Gold.Chemscore.Internal.Correction.Weighted>
   9.000000E+99

> <Gold.Protein.RotatedTorsions>
[ 6907 6896 6895 6894 ] final  -58.24 input  -60.11 | X-H torsion
[ 7974 7965 7964 7962 ] final  -43.83 input  175.53 | X-H torsion
[ 8008 7997 7996 7995 ] final  -93.33 input   59.86 | X-H torsion
[ 10167 10162 10161 10158 ] final  -39.12 input  -65.29 | X-H torsion
[ 10718 10713 10712 10709 ] final   50.06 input   66.30 | X-H torsion
[ 10763 10752 10751 10750 ] final  -97.01 input  -60.55 | X-H torsion
[ 11005 11000 10999 10996 ] final -125.17 input  -57.11 | X-H torsion

> <Gold.Protein.ActiveResidues>
 VAL166  LYS551  ARG553  GLY616  TRP617  ASP618  TYR619  PRO620  LYS621  CYS622 
 ASP623  PHE694  ASN695  SER759  ASP760  ASP761  ALA762  ILE779  LEU786  VAL792 
 PHE793  MET794  SER795  GLU796  ALA797  LYS798  CYS799  TRP800  GLU811  SER814 

> <Gold.Protein.RotatedAtoms>
  150.8022  134.7123  159.6610 H   0  0  0  0  0  0  0  0  0  0  0  0  # atno 6907 bound_to 6896
  152.4140  134.6072  160.0025 H   0  0  0  0  0  0  0  0  0  0  0  0  # atno 6908 bound_to 6896
  151.6306  133.3295  159.3144 H   0  0  0  0  0  0  0  0  0  0  0  0  # atno 6909 bound_to 6896
  145.9981  140.7106  142.9284 H   0  0  0  0  0  0  0  0  0  0  0  0  # atno 7974 bound_to 7965
  154.7343  140.0500  157.0754 H   0  0  0  0  0  0  0  0  0  0  0  0  # atno 8008 bound_to 7997
  155.0261  140.3152  155.4756 H   0  0  0  0  0  0  0  0  0  0  0  0  # atno 8009 bound_to 7997
  156.2849  140.2158  156.5380 H   0  0  0  0  0  0  0  0  0  0  0  0  # atno 8010 bound_to 7997
  140.7073  143.3234  151.2738 H   0  0  0  0  0  0  0  0  0  0  0  0  # atno 10167 bound_to 10162
  157.4848  130.8338  149.8134 H   0  0  0  0  0  0  0  0  0  0  0  0  # atno 10718 bound_to 10713
  154.7291  135.5062  153.8934 H   0  0  0  0  0  0  0  0  0  0  0  0  # atno 10763 bound_to 10752
  153.0932  135.6665  153.9822 H   0  0  0  0  0  0  0  0  0  0  0  0  # atno 10764 bound_to 10752
  153.9627  135.3046  155.3412 H   0  0  0  0  0  0  0  0  0  0  0  0  # atno 10765 bound_to 10752
  140.9783  134.0709  157.3794 H   0  0  0  0  0  0  0  0  0  0  0  0  # atno 11005 bound_to 11000
  144.6910  140.3185  143.7236 LP  0  0  0  0  0  0  0  0  0  0  0  0  # atno 17320 bound_to 7965
  145.7530  139.1799  143.2311 LP  0  0  0  0  0  0  0  0  0  0  0  0  # atno 17321 bound_to 7965
  139.6695  144.0046  152.2744 LP  0  0  0  0  0  0  0  0  0  0  0  0  # atno 17342 bound_to 10162
  139.9640  144.6539  150.8052 LP  0  0  0  0  0  0  0  0  0  0  0  0  # atno 17343 bound_to 10162
  156.0141  130.3821  150.2169 LP  0  0  0  0  0  0  0  0  0  0  0  0  # atno 17370 bound_to 10713
  157.0356  131.0020  151.3299 LP  0  0  0  0  0  0  0  0  0  0  0  0  # atno 17371 bound_to 10713
  139.8939  135.0133  156.6926 LP  0  0  0  0  0  0  0  0  0  0  0  0  # atno 17394 bound_to 11000
  140.7225  133.9128  155.8156 LP  0  0  0  0  0  0  0  0  0  0  0  0  # atno 17395 bound_to 11000

$$$$
