AV-unprocessed.smi:2379|AV-procd|sdf|9452|dock10
  -GOLD-   2272013 83D 1   1.00000     0.00000
 Structure written by MMmdl.
 53 55  0  0  0  0  0  0  0  0  2 V2000
  152.1367  145.8925  160.2049 C   0  0  0  0  0  0  0  0  0  0  0  0
  152.0363  144.4902  159.6419 C   0  0  0  0  0  0  0  0  0  0  0  0
  152.8053  143.4394  160.1776 C   0  0  0  0  0  0  0  0  0  0  0  0
  152.6667  142.1578  159.6093 C   0  0  0  0  0  0  0  0  0  0  0  0
  153.4583  140.9806  160.1390 C   0  0  0  0  0  0  0  0  0  0  0  0
  151.8382  141.8956  158.5761 N   0  0  0  0  0  0  0  0  0  0  0  0
  151.0947  142.9005  158.0503 C   0  0  0  0  0  0  0  0  0  0  0  0
  150.1934  142.7277  156.9663 N   0  0  0  0  0  0  0  0  0  0  0  0
  150.0994  141.6829  156.1248 C   0  0  0  0  0  0  0  0  0  0  0  0
  150.8164  140.6820  156.1467 O   0  0  0  0  0  0  0  0  0  0  0  0
  149.1151  141.8632  155.2315 N   0  0  0  0  0  0  0  0  0  0  0  0
  148.7749  140.9308  154.1602 C   0  0  2  0  0  0  0  0  0  0  0  0
  147.5958  141.4801  153.3416 C   0  0  0  0  0  0  0  0  0  0  0  0
  147.1614  140.4851  152.2516 C   0  0  0  0  0  0  0  0  0  0  0  0
  146.8217  139.1605  152.8342 N   0  3  1  0  0  0  0  0  0  0  0  0
  146.2660  138.2158  151.8297 C   0  0  0  0  0  0  0  0  0  0  0  0
  145.5816  137.0004  152.4859 C   0  0  1  0  0  0  0  0  0  0  0  0
  144.1433  137.2648  152.8862 C   0  0  0  0  0  0  0  0  0  0  0  0
  143.5928  135.8530  153.0604 C   0  0  0  0  0  0  0  0  0  0  0  0
  144.3101  135.0433  152.1346 O   0  0  0  0  0  0  0  0  0  0  0  0
  145.4003  135.7760  151.5860 C   0  0  0  0  0  0  0  0  0  0  0  0
  147.9657  138.5956  153.5974 C   0  0  0  0  0  0  0  0  0  0  0  0
  148.4052  139.5459  154.7227 C   0  0  0  0  0  0  0  0  0  0  0  0
  151.1688  144.2142  158.5657 C   0  0  0  0  0  0  0  0  0  0  0  0
  152.7581  145.9166  161.1006 H   0  0  0  0  0  0  0  0  0  0  0  0
  151.1472  146.2675  160.4673 H   0  0  0  0  0  0  0  0  0  0  0  0
  152.5748  146.5645  159.4668 H   0  0  0  0  0  0  0  0  0  0  0  0
  153.4824  143.6104  161.0018 H   0  0  0  0  0  0  0  0  0  0  0  0
  153.9746  141.2361  161.0648 H   0  0  0  0  0  0  0  0  0  0  0  0
  154.2029  140.6659  159.4075 H   0  0  0  0  0  0  0  0  0  0  0  0
  152.7974  140.1374  160.3417 H   0  0  0  0  0  0  0  0  0  0  0  0
  149.5514  143.4907  156.8114 H   0  0  0  0  0  0  0  0  0  0  0  0
  148.5746  142.7141  155.2860 H   0  0  0  0  0  0  0  0  0  0  0  0
  149.6353  140.8279  153.4958 H   0  0  0  0  0  0  0  0  0  0  0  0
  146.7502  141.6867  153.9997 H   0  0  0  0  0  0  0  0  0  0  0  0
  147.8698  142.4310  152.8827 H   0  0  0  0  0  0  0  0  0  0  0  0
  146.2944  140.8911  151.7288 H   0  0  0  0  0  0  0  0  0  0  0  0
  147.9540  140.3663  151.5108 H   0  0  0  0  0  0  0  0  0  0  0  0
  145.5091  138.7299  151.2354 H   0  0  0  0  0  0  0  0  0  0  0  0
  147.0348  137.9064  151.1198 H   0  0  0  0  0  0  0  0  0  0  0  0
  146.1341  136.7072  153.3803 H   0  0  0  0  0  0  0  0  0  0  0  0
  144.0529  137.8675  153.7906 H   0  0  0  0  0  0  0  0  0  0  0  0
  143.6108  137.7753  152.0820 H   0  0  0  0  0  0  0  0  0  0  0  0
  143.7923  135.4873  154.0683 H   0  0  0  0  0  0  0  0  0  0  0  0
  142.5178  135.8006  152.8873 H   0  0  0  0  0  0  0  0  0  0  0  0
  145.1343  136.0757  150.5715 H   0  0  0  0  0  0  0  0  0  0  0  0
  146.2970  135.1582  151.5345 H   0  0  0  0  0  0  0  0  0  0  0  0
  147.6971  137.6335  154.0298 H   0  0  0  0  0  0  0  0  0  0  0  0
  148.8007  138.4104  152.9195 H   0  0  0  0  0  0  0  0  0  0  0  0
  149.2541  139.1125  155.2529 H   0  0  0  0  0  0  0  0  0  0  0  0
  147.6008  139.6422  155.4536 H   0  0  0  0  0  0  0  0  0  0  0  0
  150.5701  145.0063  158.1393 H   0  0  0  0  0  0  0  0  0  0  0  0
  146.0806  139.3332  153.4984 H   0  0  0  0  0  0  0  0  0  0  0  0
  1  2  1  0  0  0  0
  1 25  1  0  0  0  0
  1 26  1  0  0  0  0
  1 27  1  0  0  0  0
  2 24  1  0  0  0  0
  2  3  2  0  0  0  0
  3  4  1  0  0  0  0
  3 28  1  0  0  0  0
  4  5  1  0  0  0  0
  4  6  2  0  0  0  0
  5 29  1  0  0  0  0
  5 30  1  0  0  0  0
  5 31  1  0  0  0  0
  6  7  1  0  0  0  0
  7  8  1  0  0  0  0
  7 24  2  0  0  0  0
  8  9  1  0  0  0  0
  8 32  1  0  0  0  0
  9 10  2  0  0  0  0
  9 11  1  0  0  0  0
 11 12  1  0  0  0  0
 11 33  1  0  0  0  0
 12 23  1  0  0  0  0
 12 13  1  0  0  0  0
 12 34  1  0  0  0  0
 13 14  1  0  0  0  0
 13 35  1  0  0  0  0
 13 36  1  0  0  0  0
 14 15  1  0  0  0  0
 14 37  1  0  0  0  0
 14 38  1  0  0  0  0
 15 16  1  0  0  0  0
 15 22  1  0  0  0  0
 15 53  1  0  0  0  0
 16 17  1  0  0  0  0
 16 39  1  0  0  0  0
 16 40  1  0  0  0  0
 17 21  1  0  0  0  0
 17 18  1  0  0  0  0
 17 41  1  0  0  0  0
 18 19  1  0  0  0  0
 18 42  1  0  0  0  0
 18 43  1  0  0  0  0
 19 20  1  0  0  0  0
 19 44  1  0  0  0  0
 19 45  1  0  0  0  0
 20 21  1  0  0  0  0
 21 46  1  0  0  0  0
 21 47  1  0  0  0  0
 22 23  1  0  0  0  0
 22 48  1  0  0  0  0
 22 49  1  0  0  0  0
 23 50  1  0  0  0  0
 23 51  1  0  0  0  0
 24 52  1  0  0  0  0
M  CHG  1  15   1
M  END
> <s_m_source_file>
AV-unprocessed.smi

> <i_m_source_file_index>
2379

> <i_lp_mmshare_version>
43012

> <i_f3d_flags>
0

> <s_epik_input>
W0NIM11jMVtjSF1jKFtDSDNdKW5jKFtjSF0xKVtOSF1DKD1PKVtOSF1bQ0hdMltDSDJdW0NIMl1OKFtDSDJdW0NIMl0yKVtDSDJdW0NAQEhdM1tDSDJdW0NIMl1PW0NIMl0z

> <s_epik_cmdline>
J2VwaWtfcHl0aG9uJywgJy1waCcsICc3LjAnLCAnLXRuJywgJzgnLCAnLW1hJywgJzIwMCcsICctbWV0YWxfYmluZGluZycsICctaW1hZScsICc8aW5maWxlLm1hZT4nLCAnLW9tYWUnLCAnPG91dGZpbGUubWFlPic=

> <r_epik_Ionization_Penalty>
0.00766556

> <r_epik_Ionization_Penalty_Charging>
0.00747775

> <r_epik_Ionization_Penalty_Neutral>
0.00018781

> <r_epik_State_Penalty>
0.00558817

> <r_epik_Charging_Adjusted_Penalty>
0.0130659

> <i_epik_Tot_Q>
1

> <i_epik_Tot_abs_Q>
1

> <r_epik_Metal_State_Penalty>
-0

> <b_epik_Metal_Only>
0

> <s_lp_Force_Field>
OPLS_2005

> <r_lp_Energy>
35.6798

> <b_lp_Chiralities_Consistent>
1

> <s_lp_Variant>
AV-unprocessed.smi:2379-2

> <Gold.Version>
5.8.1

> <Gold.Id.Protein>
6NUR|6NUR_protein|mol2

> <Gold.PLP.Fitness>
50.5931

> <Gold.PLP.PLP>
-46.3128

> <Gold.PLP.part.hbond>
-2.0000

> <Gold.PLP.part.metal>
0.0000

> <Gold.PLP.part.buried>
-2.5773

> <Gold.PLP.part.nonpolar>
-42.0377

> <Gold.PLP.part.repulsive>
0.3532

> <Gold.PLP.ligand.clash>
0.0000

> <Gold.PLP.ligand.torsion>
0.3344

> <Gold.PLP.Chemscore.Hbond>
1.6330

> <Gold.PLP.Chemscore.CHOScore>
0.0000

> <Gold.PLP.Chemscore.Metal>
0.0000

> <Gold.Chemscore.Hbonds>
donor molecule, donor type, donor heavy atom, donor atom, acceptor molecule, acceptor atom, score
      L1  H     8    32       P1  8028  0.96
      L1  H    11    33       P1  8028  0.74

> <Gold.PLP.Chemscore.Internal.Correction>
0.0502

> <Gold.Rescore>
     Score         DG    S(hbond)    S(metal)    S(lipo)     H(rot)  DE(clash)    DE(int)     intcor
     17.58     -21.78       1.43        0.00     128.54       1.37       1.50       2.71       ----

> <Gold.Chemscore.Fitness>
17.5796

> <Gold.Chemscore.DG>
-21.7824

> <Gold.Chemscore.ZeroCoef>
-5.4800

> <Gold.Chemscore.Hbond>
1.4303

> <Gold.Chemscore.Metal>
0.0000

> <Gold.Chemscore.Lipo>
128.5357

> <Gold.Chemscore.Internal_Hbond>
0.0000

> <Gold.Chemscore.DEClash>
1.4963

> <Gold.Chemscore.DEInternal>
2.7064

> <Gold.Chemscore.Rot>
1.3725

> <Gold.Chemscore.Internal.Correction>
   9.000000E+99

> <Gold.Chemscore.Hbonds>
donor molecule, donor type, donor heavy atom, donor atom, acceptor molecule, acceptor atom, score
      L1  H     8    32       P1  8028  0.91
      L1  H    11    33       P1  8028  0.70

> <Gold.Chemscore.Hbond.Weighted>
-4.7773

> <Gold.Chemscore.Metal.Weighted>
-0.0000

> <Gold.Chemscore.Lipo.Weighted>
-15.0387

> <Gold.Chemscore.Internal_Hbond.Weighted>
0.0000

> <Gold.Chemscore.DEClash.Weighted>
1.4963

> <Gold.Chemscore.DEInternal.Weighted>
2.7064

> <Gold.Chemscore.Rot.Weighted>
3.5136

> <Gold.Chemscore.Internal.Correction.Weighted>
   9.000000E+99

> <Gold.Protein.RotatedTorsions>
[ 6907 6896 6895 6894 ] final   62.18 input  -60.11 | X-H torsion
[ 7974 7965 7964 7962 ] final   72.07 input  175.53 | X-H torsion
[ 8008 7997 7996 7995 ] final -111.11 input   59.86 | X-H torsion
[ 10167 10162 10161 10158 ] final  126.59 input  -65.29 | X-H torsion
[ 10718 10713 10712 10709 ] final  -61.23 input   66.30 | X-H torsion
[ 10763 10752 10751 10750 ] final   -3.63 input  -60.55 | X-H torsion
[ 11005 11000 10999 10996 ] final  -41.10 input  -57.11 | X-H torsion

> <Gold.Protein.ActiveResidues>
 VAL166  LYS551  ARG553  GLY616  TRP617  ASP618  TYR619  PRO620  LYS621  CYS622 
 ASP623  PHE694  ASN695  SER759  ASP760  ASP761  ALA762  ILE779  LEU786  VAL792 
 PHE793  MET794  SER795  GLU796  ALA797  LYS798  CYS799  TRP800  GLU811  SER814 

> <Gold.Protein.RotatedAtoms>
  152.4150  134.6057  160.0011 H   0  0  0  0  0  0  0  0  0  0  0  0  # atno 6907 bound_to 6896
  151.6223  133.3332  159.3098 H   0  0  0  0  0  0  0  0  0  0  0  0  # atno 6908 bound_to 6896
  150.8039  134.7191  159.6692 H   0  0  0  0  0  0  0  0  0  0  0  0  # atno 6909 bound_to 6896
  145.7579  139.2788  143.1393 H   0  0  0  0  0  0  0  0  0  0  0  0  # atno 7974 bound_to 7965
  154.9848  140.0396  157.2293 H   0  0  0  0  0  0  0  0  0  0  0  0  # atno 8008 bound_to 7997
  154.7681  140.2797  155.6137 H   0  0  0  0  0  0  0  0  0  0  0  0  # atno 8009 bound_to 7997
  156.2916  140.2615  156.2477 H   0  0  0  0  0  0  0  0  0  0  0  0  # atno 8010 bound_to 7997
  139.5623  144.6889  151.4009 H   0  0  0  0  0  0  0  0  0  0  0  0  # atno 10167 bound_to 10162
  156.0936  130.4196  150.0964 H   0  0  0  0  0  0  0  0  0  0  0  0  # atno 10718 bound_to 10713
  153.3740  135.6995  153.6616 H   0  0  0  0  0  0  0  0  0  0  0  0  # atno 10763 bound_to 10752
  153.5255  135.3603  155.2652 H   0  0  0  0  0  0  0  0  0  0  0  0  # atno 10764 bound_to 10752
  154.8685  135.4168  154.3024 H   0  0  0  0  0  0  0  0  0  0  0  0  # atno 10765 bound_to 10752
  141.0222  133.6858  156.2411 H   0  0  0  0  0  0  0  0  0  0  0  0  # atno 11005 bound_to 11000
  146.0293  140.8273  142.9884 LP  0  0  0  0  0  0  0  0  0  0  0  0  # atno 17320 bound_to 7965
  144.6836  140.2744  143.7301 LP  0  0  0  0  0  0  0  0  0  0  0  0  # atno 17321 bound_to 7965
  140.6904  143.7876  150.7246 LP  0  0  0  0  0  0  0  0  0  0  0  0  # atno 17342 bound_to 10162
  140.1356  143.4487  152.2226 LP  0  0  0  0  0  0  0  0  0  0  0  0  # atno 17343 bound_to 10162
  156.8968  130.9607  151.3581 LP  0  0  0  0  0  0  0  0  0  0  0  0  # atno 17370 bound_to 10713
  157.6092  130.8570  149.8924 LP  0  0  0  0  0  0  0  0  0  0  0  0  # atno 17371 bound_to 10713
  140.6554  134.5024  157.5580 LP  0  0  0  0  0  0  0  0  0  0  0  0  # atno 17394 bound_to 11000
  139.9153  134.8259  156.1388 LP  0  0  0  0  0  0  0  0  0  0  0  0  # atno 17395 bound_to 11000

$$$$
