AV-unprocessed.smi:713|AV-procd|sdf|3476|dock2
  -GOLD-   22720 0463D 1   1.00000     0.00000
 Structure written by MMmdl.
 41 42  0  0  0  0  0  0  0  0  1 V2000
  154.7862  143.0567  162.7491 C   0  0  0  0  0  0  0  0  0  0  0  0
  153.8853  142.1908  161.8448 C   0  0  2  0  0  0  0  0  0  0  0  0
  154.6802  141.1756  161.0092 C   0  0  0  0  0  0  0  0  0  0  0  0
  155.3153  141.5350  160.0168 O   0  0  0  0  0  0  0  0  0  0  0  0
  154.6253  139.8989  161.4212 N   0  0  0  0  0  0  0  0  0  0  0  0
  155.2603  138.7684  160.7524 C   0  0  1  0  0  0  0  0  0  0  0  0
  155.1780  137.5239  161.6541 C   0  0  0  0  0  0  0  0  0  0  0  0
  155.7763  136.2912  160.9600 C   0  0  0  0  0  0  0  0  0  0  0  0
  155.0974  136.0314  159.6068 C   0  0  0  0  0  0  0  0  0  0  0  0
  155.1813  137.2656  158.6906 C   0  0  1  0  0  0  0  0  0  0  0  0
  154.3161  136.9167  157.0924 S   0  0  0  0  0  0  0  0  0  0  0  0
  155.6453  137.1712  155.8448 C   0  0  0  0  0  0  0  0  0  0  0  0
  153.9316  135.4971  157.0775 O   0  0  0  0  0  0  0  0  0  0  0  0
  153.2897  137.9480  156.8778 O   0  0  0  0  0  0  0  0  0  0  0  0
  154.5885  138.5057  159.3888 C   0  0  0  0  0  0  0  0  0  0  0  0
  153.0329  142.9967  160.9780 N   0  0  0  0  0  0  0  0  0  0  0  0
  152.8879  142.9037  159.6085 C   0  0  0  0  0  0  0  0  0  0  0  0
  152.0223  143.8849  159.2188 C   0  0  0  0  0  0  0  0  0  0  0  0
  151.6936  144.5473  160.4337 C   0  0  0  0  0  0  0  0  0  0  0  0
  152.3049  144.0208  161.4817 N   0  0  0  0  0  0  0  0  0  0  0  0
  155.3733  142.4364  163.4273 H   0  0  0  0  0  0  0  0  0  0  0  0
  154.1867  143.7307  163.3617 H   0  0  0  0  0  0  0  0  0  0  0  0
  155.4836  143.6665  162.1733 H   0  0  0  0  0  0  0  0  0  0  0  0
  153.2256  141.6225  162.5025 H   0  0  0  0  0  0  0  0  0  0  0  0
  154.0817  139.6914  162.2461 H   0  0  0  0  0  0  0  0  0  0  0  0
  156.3150  138.9981  160.5884 H   0  0  0  0  0  0  0  0  0  0  0  0
  155.7021  137.7064  162.5931 H   0  0  0  0  0  0  0  0  0  0  0  0
  154.1376  137.3217  161.9136 H   0  0  0  0  0  0  0  0  0  0  0  0
  156.8466  136.4385  160.8098 H   0  0  0  0  0  0  0  0  0  0  0  0
  155.6718  135.4161  161.6018 H   0  0  0  0  0  0  0  0  0  0  0  0
  155.5631  135.1727  159.1228 H   0  0  0  0  0  0  0  0  0  0  0  0
  154.0522  135.7643  159.7692 H   0  0  0  0  0  0  0  0  0  0  0  0
  156.2279  137.4553  158.4496 H   0  0  0  0  0  0  0  0  0  0  0  0
  155.2720  136.8894  154.8606 H   0  0  0  0  0  0  0  0  0  0  0  0
  156.5060  136.5512  156.0944 H   0  0  0  0  0  0  0  0  0  0  0  0
  155.9415  138.2191  155.8229 H   0  0  0  0  0  0  0  0  0  0  0  0
  153.5155  138.3687  159.5317 H   0  0  0  0  0  0  0  0  0  0  0  0
  154.7049  139.3828  158.7530 H   0  0  0  0  0  0  0  0  0  0  0  0
  153.4090  142.1546  159.0306 H   0  0  0  0  0  0  0  0  0  0  0  0
  151.6802  144.1009  158.2176 H   0  0  0  0  0  0  0  0  0  0  0  0
  151.0374  145.3920  160.5837 H   0  0  0  0  0  0  0  0  0  0  0  0
  1  2  1  0  0  0  0
  1 21  1  0  0  0  0
  1 22  1  0  0  0  0
  1 23  1  0  0  0  0
  2  3  1  0  0  0  0
  2 16  1  0  0  0  0
  2 24  1  0  0  0  0
  3  4  2  0  0  0  0
  3  5  1  0  0  0  0
  5  6  1  0  0  0  0
  5 25  1  0  0  0  0
  6 15  1  0  0  0  0
  6  7  1  0  0  0  0
  6 26  1  0  0  0  0
  7  8  1  0  0  0  0
  7 27  1  0  0  0  0
  7 28  1  0  0  0  0
  8  9  1  0  0  0  0
  8 29  1  0  0  0  0
  8 30  1  0  0  0  0
  9 10  1  0  0  0  0
  9 31  1  0  0  0  0
  9 32  1  0  0  0  0
 10 11  1  0  0  0  0
 10 15  1  0  0  0  0
 10 33  1  0  0  0  0
 11 12  1  0  0  0  0
 11 13  2  0  0  0  0
 11 14  2  0  0  0  0
 12 34  1  0  0  0  0
 12 35  1  0  0  0  0
 12 36  1  0  0  0  0
 15 37  1  0  0  0  0
 15 38  1  0  0  0  0
 16 20  1  0  0  0  0
 16 17  1  0  0  0  0
 17 18  2  0  0  0  0
 17 39  1  0  0  0  0
 18 19  1  0  0  0  0
 18 40  1  0  0  0  0
 19 20  2  0  0  0  0
 19 41  1  0  0  0  0
M  END
> <s_m_source_file>
AV-unprocessed.smi

> <i_m_source_file_index>
713

> <i_lp_mmshare_version>
43012

> <i_f3d_flags>
0

> <s_epik_input>
bjFbY0hdW2NIXVtjSF1uMVtDQEhdKFtDSDNdKUMoPU8pW05IXVtDQEBIXTJbQ0gyXVtDSDJdW0NIMl1bQ0BIXShbQ0gyXTIpUyg9TykoPU8pW0NIM10=

> <s_epik_cmdline>
J2VwaWtfcHl0aG9uJywgJy1waCcsICc3LjAnLCAnLXRuJywgJzgnLCAnLW1hJywgJzIwMCcsICctbWV0YWxfYmluZGluZycsICctaW1hZScsICc8aW5maWxlLm1hZT4nLCAnLW9tYWUnLCAnPG91dGZpbGUubWFlPic=

> <r_lp_tautomer_probability>
1

> <r_epik_Ionization_Penalty>
4.07816e-05

> <r_epik_Ionization_Penalty_Charging>
0

> <r_epik_Ionization_Penalty_Neutral>
4.07816e-05

> <r_epik_State_Penalty>
-0

> <r_epik_Charging_Adjusted_Penalty>
0

> <i_epik_Tot_Q>
0

> <i_epik_Tot_abs_Q>
0

> <r_epik_Metal_State_Penalty>
-0

> <b_epik_Metal_Only>
0

> <s_lp_Force_Field>
OPLS_2005

> <r_lp_Energy>
6.63175

> <b_lp_Chiralities_Consistent>
1

> <s_lp_Variant>
AV-unprocessed.smi:713-3

> <Gold.Version>
5.8.1

> <Gold.Id.Protein>
6NUR|6NUR_protein|mol2

> <Gold.PLP.Fitness>
40.1579

> <Gold.PLP.PLP>
-35.9805

> <Gold.PLP.part.hbond>
-3.0000

> <Gold.PLP.part.metal>
0.0000

> <Gold.PLP.part.buried>
-1.7043

> <Gold.PLP.part.nonpolar>
-31.0597

> <Gold.PLP.part.repulsive>
0.1923

> <Gold.PLP.ligand.clash>
0.0000

> <Gold.PLP.ligand.torsion>
0.5449

> <Gold.PLP.Chemscore.Hbond>
1.6720

> <Gold.PLP.Chemscore.CHOScore>
0.0000

> <Gold.PLP.Chemscore.Metal>
0.0000

> <Gold.Chemscore.Hbonds>
donor molecule, donor type, donor heavy atom, donor atom, acceptor molecule, acceptor atom, score
      P1  H  7997  8009       L1    14  0.07
      P1  H 10752 10763       L1    13  0.85

> <Gold.PLP.Chemscore.Internal.Correction>
0.2512

> <Gold.Rescore>
     Score         DG    S(hbond)    S(metal)    S(lipo)     H(rot)  DE(clash)    DE(int)     intcor
     14.96     -17.88       1.83        0.00      91.39       1.72       2.10       0.82       ----

> <Gold.Chemscore.Fitness>
14.9557

> <Gold.Chemscore.DG>
-17.8785

> <Gold.Chemscore.ZeroCoef>
-5.4800

> <Gold.Chemscore.Hbond>
1.8329

> <Gold.Chemscore.Metal>
0.0000

> <Gold.Chemscore.Lipo>
91.3869

> <Gold.Chemscore.Internal_Hbond>
0.0000

> <Gold.Chemscore.DEClash>
2.0986

> <Gold.Chemscore.DEInternal>
0.8243

> <Gold.Chemscore.Rot>
1.7249

> <Gold.Chemscore.Internal.Correction>
   9.000000E+99

> <Gold.Chemscore.Hbonds>
donor molecule, donor type, donor heavy atom, donor atom, acceptor molecule, acceptor atom, score
      P1  H  7997  8009       L1    14  0.05
      P1  H 10752 10763       L1    13  0.15

> <Gold.Chemscore.Hbond.Weighted>
-6.1220

> <Gold.Chemscore.Metal.Weighted>
-0.0000

> <Gold.Chemscore.Lipo.Weighted>
-10.6923

> <Gold.Chemscore.Internal_Hbond.Weighted>
0.0000

> <Gold.Chemscore.DEClash.Weighted>
2.0986

> <Gold.Chemscore.DEInternal.Weighted>
0.8243

> <Gold.Chemscore.Rot.Weighted>
4.4157

> <Gold.Chemscore.Internal.Correction.Weighted>
   9.000000E+99

> <Gold.Protein.RotatedTorsions>
[ 6907 6896 6895 6894 ] final  -34.92 input  -60.11 | X-H torsion
[ 7974 7965 7964 7962 ] final  -99.81 input  175.53 | X-H torsion
[ 8008 7997 7996 7995 ] final  164.80 input   59.86 | X-H torsion
[ 10167 10162 10161 10158 ] final   82.57 input  -65.29 | X-H torsion
[ 10718 10713 10712 10709 ] final   53.16 input   66.30 | X-H torsion
[ 10763 10752 10751 10750 ] final  144.66 input  -60.55 | X-H torsion
[ 11005 11000 10999 10996 ] final -124.94 input  -57.11 | X-H torsion

> <Gold.Protein.ActiveResidues>
 VAL166  LYS551  ARG553  GLY616  TRP617  ASP618  TYR619  PRO620  LYS621  CYS622 
 ASP623  PHE694  ASN695  SER759  ASP760  ASP761  ALA762  ILE779  LEU786  VAL792 
 PHE793  MET794  SER795  GLU796  ALA797  LYS798  CYS799  TRP800  GLU811  SER814 

> <Gold.Protein.RotatedAtoms>
  151.0464  134.9642  159.8188 H   0  0  0  0  0  0  0  0  0  0  0  0  # atno 6907 bound_to 6896
  152.5373  134.2593  159.8939 H   0  0  0  0  0  0  0  0  0  0  0  0  # atno 6908 bound_to 6896
  151.2607  133.4261  159.2650 H   0  0  0  0  0  0  0  0  0  0  0  0  # atno 6909 bound_to 6896
  145.3027  140.9381  143.2814 H   0  0  0  0  0  0  0  0  0  0  0  0  # atno 7974 bound_to 7965
  156.1851  140.1687  156.8200 H   0  0  0  0  0  0  0  0  0  0  0  0  # atno 8008 bound_to 7997
  154.5405  140.0738  156.8534 H   0  0  0  0  0  0  0  0  0  0  0  0  # atno 8009 bound_to 7997
  155.3225  140.3374  155.4243 H   0  0  0  0  0  0  0  0  0  0  0  0  # atno 8010 bound_to 7997
  139.9274  144.6174  150.8379 H   0  0  0  0  0  0  0  0  0  0  0  0  # atno 10167 bound_to 10162
  157.5141  130.8521  149.8473 H   0  0  0  0  0  0  0  0  0  0  0  0  # atno 10718 bound_to 10713
  153.9925  135.2931  155.3410 H   0  0  0  0  0  0  0  0  0  0  0  0  # atno 10763 bound_to 10752
  154.7206  135.5110  153.8809 H   0  0  0  0  0  0  0  0  0  0  0  0  # atno 10764 bound_to 10752
  153.0803  135.6677  154.0176 H   0  0  0  0  0  0  0  0  0  0  0  0  # atno 10765 bound_to 10752
  140.9801  134.0685  157.3774 H   0  0  0  0  0  0  0  0  0  0  0  0  # atno 11005 bound_to 11000
  144.9080  139.4564  143.6600 LP  0  0  0  0  0  0  0  0  0  0  0  0  # atno 17320 bound_to 7965
  146.3146  139.7872  142.8993 LP  0  0  0  0  0  0  0  0  0  0  0  0  # atno 17321 bound_to 7965
  140.7646  143.3254  151.2528 LP  0  0  0  0  0  0  0  0  0  0  0  0  # atno 17342 bound_to 10162
  139.6810  143.9854  152.2808 LP  0  0  0  0  0  0  0  0  0  0  0  0  # atno 17343 bound_to 10162
  156.0309  130.3765  150.1691 LP  0  0  0  0  0  0  0  0  0  0  0  0  # atno 17370 bound_to 10713
  156.9881  130.9885  151.3421 LP  0  0  0  0  0  0  0  0  0  0  0  0  # atno 17371 bound_to 10713
  139.8947  135.0137  156.6962 LP  0  0  0  0  0  0  0  0  0  0  0  0  # atno 17394 bound_to 11000
  140.7199  133.9150  155.8140 LP  0  0  0  0  0  0  0  0  0  0  0  0  # atno 17395 bound_to 11000

$$$$
