AV-unprocessed.smi:1414|AV-procd|sdf|5762|dock3
  -GOLD-   22720 5403D 1   1.00000     0.00000
 Structure written by MMmdl.
 45 46  0  0  0  0  0  0  0  0  1 V2000
  148.6431  140.1298  154.0470 C   0  0  0  0  0  0  0  0  0  0  0  0
  149.7516  139.5112  154.9059 C   0  0  1  0  0  0  0  0  0  0  0  0
  150.0354  138.0539  154.5121 C   0  0  0  0  0  0  0  0  0  0  0  0
  151.1926  137.5229  155.2465 N   0  0  0  0  0  0  0  0  0  0  0  0
  151.0397  136.1267  156.2679 S   0  0  0  0  0  0  0  0  0  0  0  0
  152.4022  135.6505  156.5515 O   0  0  0  0  0  0  0  0  0  0  0  0
  150.1414  136.4790  157.3787 O   0  0  0  0  0  0  0  0  0  0  0  0
  150.2156  134.8733  155.1868 C   0  0  0  0  0  0  0  0  0  0  0  0
  148.7009  135.1152  155.0660 C   0  0  0  0  0  0  0  0  0  0  0  0
  148.2020  134.8126  153.7288 N   0  0  0  0  0  0  0  0  0  0  0  0
  147.0830  134.1324  153.4440 C   0  0  0  0  0  0  0  0  0  0  0  0
  146.3217  133.6836  154.2994 O   0  0  0  0  0  0  0  0  0  0  0  0
  146.9244  133.9921  152.1170 N   0  0  0  0  0  0  0  0  0  0  0  0
  145.8533  133.3680  151.4235 C   0  0  0  0  0  0  0  0  0  0  0  0
  144.5505  133.5096  151.9439 C   0  0  0  0  0  0  0  0  0  0  0  0
  143.4771  132.8813  151.2843 C   0  0  0  0  0  0  0  0  0  0  0  0
  143.7520  132.1229  150.1298 C   0  0  0  0  0  0  0  0  0  0  0  0
  144.9946  131.9636  149.6277 N   0  0  0  0  0  0  0  0  0  0  0  0
  146.0194  132.5714  150.2635 C   0  0  0  0  0  0  0  0  0  0  0  0
  152.3847  138.3879  155.2948 C   0  0  0  0  0  0  0  0  0  0  0  0
  152.0393  139.8760  155.5199 C   0  0  2  0  0  0  0  0  0  0  0  0
  151.8483  140.2539  156.9965 C   0  0  0  0  0  0  0  0  0  0  0  0
  150.9308  140.2854  154.7222 O   0  0  0  0  0  0  0  0  0  0  0  0
  147.7094  139.5772  154.1541 H   0  0  0  0  0  0  0  0  0  0  0  0
  148.9134  140.1289  152.9906 H   0  0  0  0  0  0  0  0  0  0  0  0
  148.4535  141.1623  154.3414 H   0  0  0  0  0  0  0  0  0  0  0  0
  149.4285  139.5557  155.9456 H   0  0  0  0  0  0  0  0  0  0  0  0
  149.1552  137.4384  154.6972 H   0  0  0  0  0  0  0  0  0  0  0  0
  150.2481  137.9878  153.4447 H   0  0  0  0  0  0  0  0  0  0  0  0
  150.7121  134.8585  154.2172 H   0  0  0  0  0  0  0  0  0  0  0  0
  150.3876  133.9004  155.6474 H   0  0  0  0  0  0  0  0  0  0  0  0
  148.1658  134.4627  155.7557 H   0  0  0  0  0  0  0  0  0  0  0  0
  148.4463  136.1375  155.3461 H   0  0  0  0  0  0  0  0  0  0  0  0
  148.7639  135.1384  152.9558 H   0  0  0  0  0  0  0  0  0  0  0  0
  147.6818  134.3250  151.5386 H   0  0  0  0  0  0  0  0  0  0  0  0
  144.3723  134.0956  152.8338 H   0  0  0  0  0  0  0  0  0  0  0  0
  142.4670  132.9769  151.6545 H   0  0  0  0  0  0  0  0  0  0  0  0
  142.9532  131.6261  149.5993 H   0  0  0  0  0  0  0  0  0  0  0  0
  146.9914  132.3864  149.8333 H   0  0  0  0  0  0  0  0  0  0  0  0
  153.0831  138.0397  156.0556 H   0  0  0  0  0  0  0  0  0  0  0  0
  152.8991  138.2855  154.3390 H   0  0  0  0  0  0  0  0  0  0  0  0
  152.8895  140.4604  155.1669 H   0  0  0  0  0  0  0  0  0  0  0  0
  152.7502  140.0470  157.5727 H   0  0  0  0  0  0  0  0  0  0  0  0
  151.0360  139.6963  157.4534 H   0  0  0  0  0  0  0  0  0  0  0  0
  151.6252  141.3155  157.1021 H   0  0  0  0  0  0  0  0  0  0  0  0
  1  2  1  0  0  0  0
  1 24  1  0  0  0  0
  1 25  1  0  0  0  0
  1 26  1  0  0  0  0
  2 23  1  0  0  0  0
  2  3  1  0  0  0  0
  2 27  1  0  0  0  0
  3  4  1  0  0  0  0
  3 28  1  0  0  0  0
  3 29  1  0  0  0  0
  4  5  1  0  0  0  0
  4 20  1  0  0  0  0
  5  6  2  0  0  0  0
  5  7  2  0  0  0  0
  5  8  1  0  0  0  0
  8  9  1  0  0  0  0
  8 30  1  0  0  0  0
  8 31  1  0  0  0  0
  9 10  1  0  0  0  0
  9 32  1  0  0  0  0
  9 33  1  0  0  0  0
 10 11  1  0  0  0  0
 10 34  1  0  0  0  0
 11 12  2  0  0  0  0
 11 13  1  0  0  0  0
 13 14  1  0  0  0  0
 13 35  1  0  0  0  0
 14 19  1  0  0  0  0
 14 15  2  0  0  0  0
 15 16  1  0  0  0  0
 15 36  1  0  0  0  0
 16 17  2  0  0  0  0
 16 37  1  0  0  0  0
 17 18  1  0  0  0  0
 17 38  1  0  0  0  0
 18 19  2  0  0  0  0
 19 39  1  0  0  0  0
 20 21  1  0  0  0  0
 20 40  1  0  0  0  0
 20 41  1  0  0  0  0
 21 22  1  0  0  0  0
 21 23  1  0  0  0  0
 21 42  1  0  0  0  0
 22 43  1  0  0  0  0
 22 44  1  0  0  0  0
 22 45  1  0  0  0  0
M  END
> <s_m_source_file>
AV-unprocessed.smi

> <i_m_source_file_index>
1414

> <i_lp_mmshare_version>
43012

> <i_f3d_flags>
0

> <s_epik_input>
W0NIM11bQ0BASF0xW0NIMl1OKFtDSDJdW0NASF0oTzEpW0NIM10pUyg9TykoPU8pW0NIMl1bQ0gyXVtOSF1DKD1PKVtOSF1jMltjSF1bY0hdW2NIXW5bY0hdMg==

> <s_epik_cmdline>
J2VwaWtfcHl0aG9uJywgJy1waCcsICc3LjAnLCAnLXRuJywgJzgnLCAnLW1hJywgJzIwMCcsICctbWV0YWxfYmluZGluZycsICctaW1hZScsICc8aW5maWxlLm1hZT4nLCAnLW9tYWUnLCAnPG91dGZpbGUubWFlPic=

> <r_epik_Ionization_Penalty>
0.00437531

> <r_epik_Ionization_Penalty_Charging>
0

> <r_epik_Ionization_Penalty_Neutral>
0.00437531

> <r_epik_State_Penalty>
0.00312896

> <r_epik_Charging_Adjusted_Penalty>
0.00312896

> <i_epik_Tot_Q>
0

> <i_epik_Tot_abs_Q>
0

> <r_epik_Metal_State_Penalty>
-0

> <b_epik_Metal_Only>
0

> <s_lp_Force_Field>
OPLS_2005

> <r_lp_Energy>
7.0755

> <b_lp_Chiralities_Consistent>
1

> <s_lp_Variant>
AV-unprocessed.smi:1414-3

> <Gold.Version>
5.8.1

> <Gold.Id.Protein>
6NUR|6NUR_protein|mol2

> <Gold.PLP.Fitness>
52.2584

> <Gold.PLP.PLP>
-38.6368

> <Gold.PLP.part.hbond>
-3.7355

> <Gold.PLP.part.metal>
0.0000

> <Gold.PLP.part.buried>
-4.1389

> <Gold.PLP.part.nonpolar>
-30.6644

> <Gold.PLP.part.repulsive>
0.3161

> <Gold.PLP.ligand.clash>
0.0000

> <Gold.PLP.ligand.torsion>
2.1404

> <Gold.PLP.Chemscore.Hbond>
3.2575

> <Gold.PLP.Chemscore.CHOScore>
2.0000

> <Gold.PLP.Chemscore.Metal>
0.0000

> <Gold.Chemscore.Hbonds>
donor molecule, donor type, donor heavy atom, donor atom, acceptor molecule, acceptor atom, score
      L1  H    10    34       P1  7948  0.95
      L1  H    13    35       P1  7948  0.20
      P1  H  7989  7998       L1    23  0.99
      P1  H 10752 10764       L1     6  1.00
      L1  C    17    38       P1 10952  1.00
      L1  C    19    39       P1 10747  1.00

> <Gold.PLP.Chemscore.Internal.Correction>
2.1299

> <Gold.Rescore>
     Score         DG    S(hbond)    S(metal)    S(lipo)     H(rot)  DE(clash)    DE(int)     intcor
     19.85     -23.42       3.67        0.00      82.93       1.57       0.15       3.42       ----

> <Gold.Chemscore.Fitness>
19.8501

> <Gold.Chemscore.DG>
-23.4228

> <Gold.Chemscore.ZeroCoef>
-5.4800

> <Gold.Chemscore.Hbond>
3.6694

> <Gold.Chemscore.Metal>
0.0000

> <Gold.Chemscore.Lipo>
82.9315

> <Gold.Chemscore.Internal_Hbond>
0.0000

> <Gold.Chemscore.DEClash>
0.1538

> <Gold.Chemscore.DEInternal>
3.4188

> <Gold.Chemscore.Rot>
1.5687

> <Gold.Chemscore.Internal.Correction>
   9.000000E+99

> <Gold.Chemscore.Hbonds>
donor molecule, donor type, donor heavy atom, donor atom, acceptor molecule, acceptor atom, score
      L1  H    10    34       P1  7948  0.38
      L1  H    13    35       P1  7948  0.02
      P1  H  7989  7998       L1    23  0.32
      P1  H 10752 10764       L1     6  0.97

> <Gold.Chemscore.Hbond.Weighted>
-12.2558

> <Gold.Chemscore.Metal.Weighted>
-0.0000

> <Gold.Chemscore.Lipo.Weighted>
-9.7030

> <Gold.Chemscore.Internal_Hbond.Weighted>
0.0000

> <Gold.Chemscore.DEClash.Weighted>
0.1538

> <Gold.Chemscore.DEInternal.Weighted>
3.4188

> <Gold.Chemscore.Rot.Weighted>
4.0160

> <Gold.Chemscore.Internal.Correction.Weighted>
   9.000000E+99

> <Gold.Protein.RotatedTorsions>
[ 6907 6896 6895 6894 ] final  150.15 input  -60.11 | X-H torsion
[ 7974 7965 7964 7962 ] final   76.43 input  175.53 | X-H torsion
[ 8008 7997 7996 7995 ] final   12.56 input   59.86 | X-H torsion
[ 10167 10162 10161 10158 ] final   43.17 input  -65.29 | X-H torsion
[ 10718 10713 10712 10709 ] final  155.83 input   66.30 | X-H torsion
[ 10763 10752 10751 10750 ] final    1.45 input  -60.55 | X-H torsion
[ 11005 11000 10999 10996 ] final   92.65 input  -57.11 | X-H torsion

> <Gold.Protein.ActiveResidues>
 VAL166  LYS551  ARG553  GLY616  TRP617  ASP618  TYR619  PRO620  LYS621  CYS622 
 ASP623  PHE694  ASN695  SER759  ASP760  ASP761  ALA762  ILE779  LEU786  VAL792 
 PHE793  MET794  SER795  GLU796  ALA797  LYS798  CYS799  TRP800  GLU811  SER814 

> <Gold.Protein.RotatedAtoms>
  152.1184  133.4339  159.4663 H   0  0  0  0  0  0  0  0  0  0  0  0  # atno 6907 bound_to 6896
  150.6870  134.2565  159.4541 H   0  0  0  0  0  0  0  0  0  0  0  0  # atno 6908 bound_to 6896
  152.0439  134.9694  160.0625 H   0  0  0  0  0  0  0  0  0  0  0  0  # atno 6909 bound_to 6896
  145.7030  139.2589  143.1694 H   0  0  0  0  0  0  0  0  0  0  0  0  # atno 7974 bound_to 7965
  154.8224  140.2886  155.5778 H   0  0  0  0  0  0  0  0  0  0  0  0  # atno 8008 bound_to 7997
  156.2999  140.2547  156.3064 H   0  0  0  0  0  0  0  0  0  0  0  0  # atno 8009 bound_to 7997
  154.9324  140.0383  157.2044 H   0  0  0  0  0  0  0  0  0  0  0  0  # atno 8010 bound_to 7997
  140.3470  144.2398  150.6149 H   0  0  0  0  0  0  0  0  0  0  0  0  # atno 10167 bound_to 10162
  157.2132  131.0702  151.1957 H   0  0  0  0  0  0  0  0  0  0  0  0  # atno 10718 bound_to 10713
  153.3079  135.6960  153.7142 H   0  0  0  0  0  0  0  0  0  0  0  0  # atno 10763 bound_to 10752
  153.6031  135.3458  155.2953 H   0  0  0  0  0  0  0  0  0  0  0  0  # atno 10764 bound_to 10752
  154.8568  135.4345  154.2209 H   0  0  0  0  0  0  0  0  0  0  0  0  # atno 10765 bound_to 10752
  139.8820  134.8745  156.3603 H   0  0  0  0  0  0  0  0  0  0  0  0  # atno 11005 bound_to 11000
  146.0781  140.7795  142.9655 LP  0  0  0  0  0  0  0  0  0  0  0  0  # atno 17320 bound_to 7965
  144.6963  140.3446  143.7193 LP  0  0  0  0  0  0  0  0  0  0  0  0  # atno 17321 bound_to 7965
  140.5255  143.2255  151.8322 LP  0  0  0  0  0  0  0  0  0  0  0  0  # atno 17342 bound_to 10162
  139.4832  144.4785  151.9337 LP  0  0  0  0  0  0  0  0  0  0  0  0  # atno 17343 bound_to 10162
  157.3651  130.7152  149.6528 LP  0  0  0  0  0  0  0  0  0  0  0  0  # atno 17370 bound_to 10713
  155.9689  130.4214  150.4469 LP  0  0  0  0  0  0  0  0  0  0  0  0  # atno 17371 bound_to 10713
  140.9534  133.7436  156.0302 LP  0  0  0  0  0  0  0  0  0  0  0  0  # atno 17394 bound_to 11000
  140.8078  134.3434  157.5421 LP  0  0  0  0  0  0  0  0  0  0  0  0  # atno 17395 bound_to 11000

$$$$
