AV-unprocessed.smi:2322|AV-procd|sdf|9287|dock2
  -GOLD-   2272012513D 1   1.00000     0.00000
 Structure written by MMmdl.
 38 40  0  0  0  0  0  0  0  0  1 V2000
  150.7934  138.2690  154.2873 C   0  0  0  0  0  0  0  0  0  0  0  0
  149.8850  139.3958  154.1967 N   0  0  0  0  0  0  0  0  0  0  0  0
  150.2239  140.6027  154.7075 N   0  0  0  0  0  0  0  0  0  0  0  0
  149.1539  141.3479  154.4335 C   0  0  0  0  0  0  0  0  0  0  0  0
  148.1353  140.7147  153.7805 N   0  0  0  0  0  0  0  0  0  0  0  0
  148.6617  139.4978  153.6667 C   0  0  0  0  0  0  0  0  0  0  0  0
  148.0610  138.3565  153.0569 N   0  0  0  0  0  0  0  0  0  0  0  0
  146.7675  137.9917  152.9332 C   0  0  0  0  0  0  0  0  0  0  0  0
  145.8649  138.6928  153.3877 O   0  0  0  0  0  0  0  0  0  0  0  0
  146.5365  136.8351  152.2909 N   0  0  0  0  0  0  0  0  0  0  0  0
  145.2237  136.2548  152.0299 C   0  0  2  0  0  0  0  0  0  0  0  0
  144.4946  135.9310  153.3443 C   0  0  0  0  0  0  0  0  0  0  0  0
  143.1886  135.1703  153.0644 C   0  0  0  0  0  0  0  0  0  0  0  0
  143.4597  133.9940  152.3091 O   0  0  0  0  0  0  0  0  0  0  0  0
  144.0213  134.2664  151.0285 C   0  0  2  0  0  0  0  0  0  0  0  0
  144.1598  132.9527  150.2850 C   0  0  0  0  0  0  0  0  0  0  0  0
  144.8022  131.7565  150.9482 C   0  0  0  0  0  0  0  0  0  0  0  0
  145.5118  132.4645  149.8196 C   0  0  0  0  0  0  0  0  0  0  0  0
  145.3800  134.9685  151.2065 C   0  0  0  0  0  0  0  0  0  0  0  0
  150.4049  137.5432  155.0020 H   0  0  0  0  0  0  0  0  0  0  0  0
  151.7800  138.5981  154.6159 H   0  0  0  0  0  0  0  0  0  0  0  0
  150.8897  137.7929  153.3113 H   0  0  0  0  0  0  0  0  0  0  0  0
  149.1057  142.3894  154.7154 H   0  0  0  0  0  0  0  0  0  0  0  0
  148.7184  137.7106  152.6444 H   0  0  0  0  0  0  0  0  0  0  0  0
  147.3373  136.3206  151.9520 H   0  0  0  0  0  0  0  0  0  0  0  0
  144.6233  136.9606  151.4523 H   0  0  0  0  0  0  0  0  0  0  0  0
  145.1349  135.3209  153.9832 H   0  0  0  0  0  0  0  0  0  0  0  0
  144.2812  136.8459  153.8979 H   0  0  0  0  0  0  0  0  0  0  0  0
  142.7145  134.8839  154.0034 H   0  0  0  0  0  0  0  0  0  0  0  0
  142.4777  135.8021  152.5299 H   0  0  0  0  0  0  0  0  0  0  0  0
  143.3428  134.9127  150.4682 H   0  0  0  0  0  0  0  0  0  0  0  0
  143.3213  132.7319  149.6268 H   0  0  0  0  0  0  0  0  0  0  0  0
  145.2007  131.8870  151.9525 H   0  0  0  0  0  0  0  0  0  0  0  0
  144.3744  130.7782  150.7396 H   0  0  0  0  0  0  0  0  0  0  0  0
  145.5580  131.9586  148.8574 H   0  0  0  0  0  0  0  0  0  0  0  0
  146.3833  133.0650  150.0728 H   0  0  0  0  0  0  0  0  0  0  0  0
  145.8138  135.1984  150.2325 H   0  0  0  0  0  0  0  0  0  0  0  0
  146.0754  134.2921  151.7062 H   0  0  0  0  0  0  0  0  0  0  0  0
  1  2  1  0  0  0  0
  1 20  1  0  0  0  0
  1 21  1  0  0  0  0
  1 22  1  0  0  0  0
  2  6  1  0  0  0  0
  2  3  1  0  0  0  0
  3  4  2  0  0  0  0
  4  5  1  0  0  0  0
  4 23  1  0  0  0  0
  5  6  2  0  0  0  0
  6  7  1  0  0  0  0
  7  8  1  0  0  0  0
  7 24  1  0  0  0  0
  8  9  2  0  0  0  0
  8 10  1  0  0  0  0
 10 11  1  0  0  0  0
 10 25  1  0  0  0  0
 11 19  1  0  0  0  0
 11 12  1  0  0  0  0
 11 26  1  0  0  0  0
 12 13  1  0  0  0  0
 12 27  1  0  0  0  0
 12 28  1  0  0  0  0
 13 14  1  0  0  0  0
 13 29  1  0  0  0  0
 13 30  1  0  0  0  0
 14 15  1  0  0  0  0
 15 16  1  0  0  0  0
 15 19  1  0  0  0  0
 15 31  1  0  0  0  0
 16 18  1  0  0  0  0
 16 17  1  0  0  0  0
 16 32  1  0  0  0  0
 17 18  1  0  0  0  0
 17 33  1  0  0  0  0
 17 34  1  0  0  0  0
 18 35  1  0  0  0  0
 18 36  1  0  0  0  0
 19 37  1  0  0  0  0
 19 38  1  0  0  0  0
M  END
> <s_m_source_file>
AV-unprocessed.smi

> <i_m_source_file_index>
2322

> <i_lp_mmshare_version>
43012

> <i_f3d_flags>
0

> <s_epik_input>
W0NIM11uMW5bY0hdbmMxW05IXUMoPU8pW05IXVtDQEBIXTJbQ0gyXVtDSDJdT1tDQEhdKFtDSDJdMilbQ0hdM1tDSDJdW0NIMl0z

> <s_epik_cmdline>
J2VwaWtfcHl0aG9uJywgJy1waCcsICc3LjAnLCAnLXRuJywgJzgnLCAnLW1hJywgJzIwMCcsICctbWV0YWxfYmluZGluZycsICctaW1hZScsICc8aW5maWxlLm1hZT4nLCAnLW9tYWUnLCAnPG91dGZpbGUubWFlPic=

> <r_lp_tautomer_probability>
1

> <r_epik_Ionization_Penalty>
2.16399e-05

> <r_epik_Ionization_Penalty_Charging>
0

> <r_epik_Ionization_Penalty_Neutral>
2.16399e-05

> <r_epik_State_Penalty>
-0

> <r_epik_Charging_Adjusted_Penalty>
0

> <i_epik_Tot_Q>
0

> <i_epik_Tot_abs_Q>
0

> <r_epik_Metal_State_Penalty>
-0

> <b_epik_Metal_Only>
0

> <s_lp_Force_Field>
OPLS_2005

> <r_lp_Energy>
20.3547

> <b_lp_Chiralities_Consistent>
1

> <s_lp_Variant>
AV-unprocessed.smi:2322-3

> <Gold.Version>
5.8.1

> <Gold.Id.Protein>
6NUR|6NUR_protein|mol2

> <Gold.PLP.Fitness>
42.1386

> <Gold.PLP.PLP>
-32.1381

> <Gold.PLP.part.hbond>
-3.9404

> <Gold.PLP.part.metal>
0.0000

> <Gold.PLP.part.buried>
-2.5670

> <Gold.PLP.part.nonpolar>
-28.1312

> <Gold.PLP.part.repulsive>
1.6596

> <Gold.PLP.ligand.clash>
0.0000

> <Gold.PLP.ligand.torsion>
1.0047

> <Gold.PLP.Chemscore.Hbond>
2.6440

> <Gold.PLP.Chemscore.CHOScore>
1.0000

> <Gold.PLP.Chemscore.Metal>
0.0000

> <Gold.Chemscore.Hbonds>
donor molecule, donor type, donor heavy atom, donor atom, acceptor molecule, acceptor atom, score
      L1  H     7    24       P1  7948  0.98
      L1  H    10    25       P1  7948  0.96
      P1  H  7989  7998       L1     3  0.67
      L1  C     4    23       P1  8028  1.00

> <Gold.PLP.Chemscore.Internal.Correction>
1.0778

> <Gold.Rescore>
     Score         DG    S(hbond)    S(metal)    S(lipo)     H(rot)  DE(clash)    DE(int)     intcor
     12.87     -15.35       1.93        0.00      57.88       1.31       1.40       1.07       ----

> <Gold.Chemscore.Fitness>
12.8734

> <Gold.Chemscore.DG>
-15.3493

> <Gold.Chemscore.ZeroCoef>
-5.4800

> <Gold.Chemscore.Hbond>
1.9292

> <Gold.Chemscore.Metal>
0.0000

> <Gold.Chemscore.Lipo>
57.8821

> <Gold.Chemscore.Internal_Hbond>
0.0000

> <Gold.Chemscore.DEClash>
1.4040

> <Gold.Chemscore.DEInternal>
1.0719

> <Gold.Chemscore.Rot>
1.3072

> <Gold.Chemscore.Internal.Correction>
   9.000000E+99

> <Gold.Chemscore.Hbonds>
donor molecule, donor type, donor heavy atom, donor atom, acceptor molecule, acceptor atom, score
      L1  H     7    24       P1  7948  0.92
      L1  H    10    25       P1  7948  0.91
      P1  H  7989  7998       L1     3  0.07

> <Gold.Chemscore.Hbond.Weighted>
-6.4436

> <Gold.Chemscore.Metal.Weighted>
-0.0000

> <Gold.Chemscore.Lipo.Weighted>
-6.7722

> <Gold.Chemscore.Internal_Hbond.Weighted>
0.0000

> <Gold.Chemscore.DEClash.Weighted>
1.4040

> <Gold.Chemscore.DEInternal.Weighted>
1.0719

> <Gold.Chemscore.Rot.Weighted>
3.3464

> <Gold.Chemscore.Internal.Correction.Weighted>
   9.000000E+99

> <Gold.Protein.RotatedTorsions>
[ 6907 6896 6895 6894 ] final  -84.49 input  -60.11 | X-H torsion
[ 7974 7965 7964 7962 ] final -149.95 input  175.53 | X-H torsion
[ 8008 7997 7996 7995 ] final  -11.72 input   59.86 | X-H torsion
[ 10167 10162 10161 10158 ] final  -22.91 input  -65.29 | X-H torsion
[ 10718 10713 10712 10709 ] final -148.49 input   66.30 | X-H torsion
[ 10763 10752 10751 10750 ] final  130.98 input  -60.55 | X-H torsion
[ 11005 11000 10999 10996 ] final   89.71 input  -57.11 | X-H torsion

> <Gold.Protein.ActiveResidues>
 VAL166  LYS551  ARG553  GLY616  TRP617  ASP618  TYR619  PRO620  LYS621  CYS622 
 ASP623  PHE694  ASN695  SER759  ASP760  ASP761  ALA762  ILE779  LEU786  VAL792 
 PHE793  MET794  SER795  GLU796  ALA797  LYS798  CYS799  TRP800  GLU811  SER814 

> <Gold.Protein.RotatedAtoms>
  150.6876  134.3350  159.4843 H   0  0  0  0  0  0  0  0  0  0  0  0  # atno 6907 bound_to 6896
  152.1210  134.9203  160.0572 H   0  0  0  0  0  0  0  0  0  0  0  0  # atno 6908 bound_to 6896
  152.0409  133.3942  159.4373 H   0  0  0  0  0  0  0  0  0  0  0  0  # atno 6909 bound_to 6896
  144.7937  140.4997  143.5755 H   0  0  0  0  0  0  0  0  0  0  0  0  # atno 7974 bound_to 7965
  154.5439  140.2295  155.8594 H   0  0  0  0  0  0  0  0  0  0  0  0  # atno 8008 bound_to 7997
  156.1885  140.3083  155.9247 H   0  0  0  0  0  0  0  0  0  0  0  0  # atno 8009 bound_to 7997
  155.3202  140.0440  157.3029 H   0  0  0  0  0  0  0  0  0  0  0  0  # atno 8010 bound_to 7997
  140.7287  143.4491  151.0542 H   0  0  0  0  0  0  0  0  0  0  0  0  # atno 10167 bound_to 10162
  156.4210  130.8028  151.2251 H   0  0  0  0  0  0  0  0  0  0  0  0  # atno 10718 bound_to 10713
  153.7669  135.3187  155.3346 H   0  0  0  0  0  0  0  0  0  0  0  0  # atno 10763 bound_to 10752
  154.8210  135.4603  154.0782 H   0  0  0  0  0  0  0  0  0  0  0  0  # atno 10764 bound_to 10752
  153.2030  135.6925  153.8292 H   0  0  0  0  0  0  0  0  0  0  0  0  # atno 10765 bound_to 10752
  139.8870  134.8568  156.3181 H   0  0  0  0  0  0  0  0  0  0  0  0  # atno 11005 bound_to 11000
  145.5729  139.1484  143.3278 LP  0  0  0  0  0  0  0  0  0  0  0  0  # atno 17320 bound_to 7965
  146.2198  140.5862  142.9022 LP  0  0  0  0  0  0  0  0  0  0  0  0  # atno 17321 bound_to 7965
  139.8166  143.7877  152.3174 LP  0  0  0  0  0  0  0  0  0  0  0  0  # atno 17342 bound_to 10162
  139.7945  144.7397  150.9909 LP  0  0  0  0  0  0  0  0  0  0  0  0  # atno 17343 bound_to 10162
  157.7508  131.0228  150.3808 LP  0  0  0  0  0  0  0  0  0  0  0  0  # atno 17370 bound_to 10713
  156.4125  130.3937  149.6881 LP  0  0  0  0  0  0  0  0  0  0  0  0  # atno 17371 bound_to 10713
  140.9805  133.7270  156.0665 LP  0  0  0  0  0  0  0  0  0  0  0  0  # atno 17394 bound_to 11000
  140.7755  134.3784  157.5499 LP  0  0  0  0  0  0  0  0  0  0  0  0  # atno 17395 bound_to 11000

$$$$
