AV-unprocessed.smi:276|AV-procd|sdf|2070|dock7
  -GOLD-   2262021323D 1   1.00000     0.00000
 Structure written by MMmdl.
 57 61  0  0  0  0  0  0  0  0  1 V2000
  145.2650  132.8955  162.2295 C   0  0  0  0  0  0  0  0  0  0  0  0
  145.8225  134.1850  162.4122 O   0  0  0  0  0  0  0  0  0  0  0  0
  146.3715  134.7176  161.2170 C   0  0  2  0  0  0  0  0  0  0  0  0
  147.6479  134.0174  160.7351 C   0  0  0  0  0  0  0  0  0  0  0  0
  148.2312  135.4036  160.3959 C   0  0  1  0  0  0  0  0  0  0  0  0
  147.9808  135.7692  158.9940 N   0  0  0  0  0  0  0  0  0  0  0  0
  148.4105  134.8006  157.9901 C   0  0  0  0  0  0  0  0  0  0  0  0
  148.3749  137.0094  158.6277 C   0  0  0  0  0  0  0  0  0  0  0  0
  147.4230  137.8325  158.1218 N   0  0  0  0  0  0  0  0  0  0  0  0
  147.7423  139.0765  157.7523 C   0  0  0  0  0  0  0  0  0  0  0  0
  148.9304  139.6829  157.7989 N   0  0  0  0  0  0  0  0  0  0  0  0
  149.8925  138.8513  158.2924 C   0  0  0  0  0  0  0  0  0  0  0  0
  149.7067  137.5071  158.7218 C   0  0  0  0  0  0  0  0  0  0  0  0
  150.9176  136.9778  159.1535 N   0  0  0  0  0  0  0  0  0  0  0  0
  151.7662  137.9574  159.0038 C   0  0  0  0  0  0  0  0  0  0  0  0
  151.2345  139.1197  158.4944 N   0  0  0  0  0  0  0  0  0  0  0  0
  151.9482  140.3586  158.2361 C   0  0  0  0  0  0  0  0  0  0  0  0
  151.5510  141.4871  159.2158 C   0  0  2  0  0  0  0  0  0  0  0  0
  150.2785  141.9692  158.8245 O   0  0  0  0  0  0  0  0  0  0  0  0
  152.5173  142.6957  159.2179 C   0  0  2  0  0  0  0  0  0  0  0  0
  152.4214  143.6168  160.4474 C   0  0  0  0  0  0  0  0  0  0  0  0
  151.4481  144.6867  160.0106 C   0  0  0  0  0  0  0  0  0  0  0  0
  151.8393  144.8512  158.5517 C   0  0  0  0  0  0  0  0  0  0  0  0
  152.1465  143.5329  158.1175 O   0  0  0  0  0  0  0  0  0  0  0  0
  147.2268  135.9795  161.4313 C   0  0  0  0  0  0  0  0  0  0  0  0
  147.7227  136.3382  162.8443 C   0  0  0  0  0  0  0  0  0  0  0  0
  146.5905  137.3660  162.9215 C   0  0  0  0  0  0  0  0  0  0  0  0
  146.5935  137.3838  161.3911 C   0  0  0  0  0  0  0  0  0  0  0  0
  144.8471  132.5415  163.1719 H   0  0  0  0  0  0  0  0  0  0  0  0
  146.0203  132.1782  161.9062 H   0  0  0  0  0  0  0  0  0  0  0  0
  144.4624  132.9153  161.4914 H   0  0  0  0  0  0  0  0  0  0  0  0
  145.6360  134.8556  160.4215 H   0  0  0  0  0  0  0  0  0  0  0  0
  148.1887  133.5288  161.5474 H   0  0  0  0  0  0  0  0  0  0  0  0
  147.4935  133.3322  159.9021 H   0  0  0  0  0  0  0  0  0  0  0  0
  149.2738  135.4923  160.7007 H   0  0  0  0  0  0  0  0  0  0  0  0
  148.4428  135.2325  156.9882 H   0  0  0  0  0  0  0  0  0  0  0  0
  147.7217  133.9573  157.9533 H   0  0  0  0  0  0  0  0  0  0  0  0
  149.4047  134.4193  158.2255 H   0  0  0  0  0  0  0  0  0  0  0  0
  146.9282  139.6724  157.3668 H   0  0  0  0  0  0  0  0  0  0  0  0
  152.8097  137.8603  159.2660 H   0  0  0  0  0  0  0  0  0  0  0  0
  153.0118  140.1355  158.3053 H   0  0  0  0  0  0  0  0  0  0  0  0
  151.7596  140.6636  157.2059 H   0  0  0  0  0  0  0  0  0  0  0  0
  151.4695  141.0763  160.2230 H   0  0  0  0  0  0  0  0  0  0  0  0
  149.7254  142.0133  159.5894 H   0  0  0  0  0  0  0  0  0  0  0  0
  153.5466  142.3542  159.0988 H   0  0  0  0  0  0  0  0  0  0  0  0
  152.1229  143.1287  161.3725 H   0  0  0  0  0  0  0  0  0  0  0  0
  153.3946  144.0748  160.6301 H   0  0  0  0  0  0  0  0  0  0  0  0
  150.4226  144.3240  160.0923 H   0  0  0  0  0  0  0  0  0  0  0  0
  151.5365  145.6098  160.5838 H   0  0  0  0  0  0  0  0  0  0  0  0
  151.0481  145.2984  157.9496 H   0  0  0  0  0  0  0  0  0  0  0  0
  152.7321  145.4715  158.4616 H   0  0  0  0  0  0  0  0  0  0  0  0
  147.6688  135.5377  163.5824 H   0  0  0  0  0  0  0  0  0  0  0  0
  148.7094  136.8044  162.8355 H   0  0  0  0  0  0  0  0  0  0  0  0
  145.6707  136.9524  163.3379 H   0  0  0  0  0  0  0  0  0  0  0  0
  146.8612  138.3116  163.3919 H   0  0  0  0  0  0  0  0  0  0  0  0
  147.2539  138.1623  161.0097 H   0  0  0  0  0  0  0  0  0  0  0  0
  145.6066  137.4316  160.9306 H   0  0  0  0  0  0  0  0  0  0  0  0
  1  2  1  0  0  0  0
  1 29  1  0  0  0  0
  1 30  1  0  0  0  0
  1 31  1  0  0  0  0
  2  3  1  0  0  0  0
  3 25  1  0  0  0  0
  3  4  1  0  0  0  0
  3 32  1  0  0  0  0
  4  5  1  0  0  0  0
  4 33  1  0  0  0  0
  4 34  1  0  0  0  0
  5  6  1  0  0  0  0
  5 25  1  0  0  0  0
  5 35  1  0  0  0  0
  6  7  1  0  0  0  0
  6  8  1  0  0  0  0
  7 36  1  0  0  0  0
  7 37  1  0  0  0  0
  7 38  1  0  0  0  0
  8 13  1  0  0  0  0
  8  9  2  0  0  0  0
  9 10  1  0  0  0  0
 10 11  2  0  0  0  0
 10 39  1  0  0  0  0
 11 12  1  0  0  0  0
 12 16  1  0  0  0  0
 12 13  2  0  0  0  0
 13 14  1  0  0  0  0
 14 15  2  0  0  0  0
 15 16  1  0  0  0  0
 15 40  1  0  0  0  0
 16 17  1  0  0  0  0
 17 18  1  0  0  0  0
 17 41  1  0  0  0  0
 17 42  1  0  0  0  0
 18 19  1  0  0  0  0
 18 20  1  0  0  0  0
 18 43  1  0  0  0  0
 19 44  1  0  0  0  0
 20 24  1  0  0  0  0
 20 21  1  0  0  0  0
 20 45  1  0  0  0  0
 21 22  1  0  0  0  0
 21 46  1  0  0  0  0
 21 47  1  0  0  0  0
 22 23  1  0  0  0  0
 22 48  1  0  0  0  0
 22 49  1  0  0  0  0
 23 24  1  0  0  0  0
 23 50  1  0  0  0  0
 23 51  1  0  0  0  0
 25 28  1  0  0  0  0
 25 26  1  0  0  0  0
 26 27  1  0  0  0  0
 26 52  1  0  0  0  0
 26 53  1  0  0  0  0
 27 28  1  0  0  0  0
 27 54  1  0  0  0  0
 27 55  1  0  0  0  0
 28 56  1  0  0  0  0
 28 57  1  0  0  0  0
M  END
> <s_m_source_file>
AV-unprocessed.smi

> <i_m_source_file_index>
276

> <i_lp_mmshare_version>
43012

> <i_f3d_flags>
0

> <s_epik_input>
W0NIMl0xW0NIMl1bQ0gyXUMxMltDQEhdKE9bQ0gzXSlbQ0gyXVtDQEhdMk4oW0NIM10pYyhuW2NIXW4zKWMoYzM0KW5bY0hdbjRbQ0gyXVtDQEhdKFtPSF0pW0NAQEhdNVtDSDJdW0NIMl1bQ0gyXU81

> <s_epik_cmdline>
J2VwaWtfcHl0aG9uJywgJy1waCcsICc3LjAnLCAnLXRuJywgJzgnLCAnLW1hJywgJzIwMCcsICctbWV0YWxfYmluZGluZycsICctaW1hZScsICc8aW5maWxlLm1hZT4nLCAnLW9tYWUnLCAnPG91dGZpbGUubWFlPic=

> <r_lp_tautomer_probability>
1

> <r_epik_Ionization_Penalty>
0.00204117

> <r_epik_Ionization_Penalty_Charging>
0

> <r_epik_Ionization_Penalty_Neutral>
0.00204117

> <r_epik_State_Penalty>
0.00127401

> <r_epik_Charging_Adjusted_Penalty>
0.00127401

> <i_epik_Tot_Q>
0

> <i_epik_Tot_abs_Q>
0

> <r_epik_Metal_State_Penalty>
-0

> <b_epik_Metal_Only>
0

> <s_lp_Force_Field>
OPLS_2005

> <r_lp_Energy>
59.1309

> <b_lp_Chiralities_Consistent>
1

> <s_lp_Variant>
AV-unprocessed.smi:276-1

> <Gold.Version>
5.8.1

> <Gold.Id.Protein>
6NUR|6NUR_protein|mol2

> <Gold.PLP.Fitness>
48.6244

> <Gold.PLP.PLP>
-47.1752

> <Gold.PLP.part.hbond>
-1.6742

> <Gold.PLP.part.metal>
0.0000

> <Gold.PLP.part.buried>
-4.1016

> <Gold.PLP.part.nonpolar>
-41.2058

> <Gold.PLP.part.repulsive>
0.0329

> <Gold.PLP.ligand.clash>
0.0000

> <Gold.PLP.ligand.torsion>
1.1493

> <Gold.PLP.Chemscore.Hbond>
1.0000

> <Gold.PLP.Chemscore.CHOScore>
0.0000

> <Gold.PLP.Chemscore.Metal>
0.0000

> <Gold.Chemscore.Hbonds>
donor molecule, donor type, donor heavy atom, donor atom, acceptor molecule, acceptor atom, score
      P1  H  6896  6908       L1    14  0.96

> <Gold.PLP.Chemscore.Internal.Correction>
0.7478

> <Gold.Rescore>
     Score         DG    S(hbond)    S(metal)    S(lipo)     H(rot)  DE(clash)    DE(int)     intcor
     14.86     -17.39       0.99        0.00     133.06       2.72       1.60       0.92       ----

> <Gold.Chemscore.Fitness>
14.8642

> <Gold.Chemscore.DG>
-17.3856

> <Gold.Chemscore.ZeroCoef>
-5.4800

> <Gold.Chemscore.Hbond>
0.9860

> <Gold.Chemscore.Metal>
0.0000

> <Gold.Chemscore.Lipo>
133.0631

> <Gold.Chemscore.Internal_Hbond>
0.0000

> <Gold.Chemscore.DEClash>
1.6036

> <Gold.Chemscore.DEInternal>
0.9179

> <Gold.Chemscore.Rot>
2.7172

> <Gold.Chemscore.Internal.Correction>
   9.000000E+99

> <Gold.Chemscore.Hbonds>
donor molecule, donor type, donor heavy atom, donor atom, acceptor molecule, acceptor atom, score
      P1  H  6896  6908       L1    14  0.86

> <Gold.Chemscore.Hbond.Weighted>
-3.2932

> <Gold.Chemscore.Metal.Weighted>
-0.0000

> <Gold.Chemscore.Lipo.Weighted>
-15.5684

> <Gold.Chemscore.Internal_Hbond.Weighted>
0.0000

> <Gold.Chemscore.DEClash.Weighted>
1.6036

> <Gold.Chemscore.DEInternal.Weighted>
0.9179

> <Gold.Chemscore.Rot.Weighted>
6.9560

> <Gold.Chemscore.Internal.Correction.Weighted>
   9.000000E+99

> <Gold.Protein.RotatedTorsions>
[ 6907 6896 6895 6894 ] final -154.18 input  -60.11 | X-H torsion
[ 7974 7965 7964 7962 ] final  -77.99 input  175.53 | X-H torsion
[ 8008 7997 7996 7995 ] final -154.08 input   59.86 | X-H torsion
[ 10167 10162 10161 10158 ] final  107.03 input  -65.29 | X-H torsion
[ 10718 10713 10712 10709 ] final  -25.87 input   66.30 | X-H torsion
[ 10763 10752 10751 10750 ] final   52.05 input  -60.55 | X-H torsion
[ 11005 11000 10999 10996 ] final  -43.59 input  -57.11 | X-H torsion

> <Gold.Protein.ActiveResidues>
 VAL166  LYS551  ARG553  GLY616  TRP617  ASP618  TYR619  PRO620  LYS621  CYS622 
 ASP623  PHE694  ASN695  SER759  ASP760  ASP761  ALA762  ILE779  LEU786  VAL792 
 PHE793  MET794  SER795  GLU796  ALA797  LYS798  CYS799  TRP800  GLU811  SER814 

> <Gold.Protein.RotatedAtoms>
  151.2536  133.4337  159.2612 H   0  0  0  0  0  0  0  0  0  0  0  0  # atno 6907 bound_to 6896
  151.0595  134.9727  159.8263 H   0  0  0  0  0  0  0  0  0  0  0  0  # atno 6908 bound_to 6896
  152.5396  134.2487  159.8943 H   0  0  0  0  0  0  0  0  0  0  0  0  # atno 6909 bound_to 6896
  145.5924  140.9426  143.1285 H   0  0  0  0  0  0  0  0  0  0  0  0  # atno 7974 bound_to 7965
  155.6809  140.0744  157.2485 H   0  0  0  0  0  0  0  0  0  0  0  0  # atno 8008 bound_to 7997
  154.4106  140.1682  156.2033 H   0  0  0  0  0  0  0  0  0  0  0  0  # atno 8009 bound_to 7997
  155.9536  140.3375  155.6432 H   0  0  0  0  0  0  0  0  0  0  0  0  # atno 8010 bound_to 7997
  139.6961  144.7101  151.1265 H   0  0  0  0  0  0  0  0  0  0  0  0  # atno 10167 bound_to 10162
  156.4587  130.4499  149.6942 H   0  0  0  0  0  0  0  0  0  0  0  0  # atno 10718 bound_to 10713
  152.9787  135.5825  154.4516 H   0  0  0  0  0  0  0  0  0  0  0  0  # atno 10763 bound_to 10752
  154.4104  135.2770  155.2042 H   0  0  0  0  0  0  0  0  0  0  0  0  # atno 10764 bound_to 10752
  154.3835  135.6141  153.5857 H   0  0  0  0  0  0  0  0  0  0  0  0  # atno 10765 bound_to 10752
  141.0394  133.6786  156.2754 H   0  0  0  0  0  0  0  0  0  0  0  0  # atno 11005 bound_to 11000
  144.7345  139.7625  143.7334 LP  0  0  0  0  0  0  0  0  0  0  0  0  # atno 17320 bound_to 7965
  146.1637  139.4761  142.9972 LP  0  0  0  0  0  0  0  0  0  0  0  0  # atno 17321 bound_to 7965
  140.7696  143.5490  150.9226 LP  0  0  0  0  0  0  0  0  0  0  0  0  # atno 17342 bound_to 10162
  139.9170  143.6652  152.3104 LP  0  0  0  0  0  0  0  0  0  0  0  0  # atno 17343 bound_to 10162
  156.3739  130.7544  151.2531 LP  0  0  0  0  0  0  0  0  0  0  0  0  # atno 17370 bound_to 10713
  157.7499  131.0315  150.4185 LP  0  0  0  0  0  0  0  0  0  0  0  0  # atno 17371 bound_to 10713
  140.6262  134.5311  157.5554 LP  0  0  0  0  0  0  0  0  0  0  0  0  # atno 17394 bound_to 11000
  139.9264  134.8047  156.1055 LP  0  0  0  0  0  0  0  0  0  0  0  0  # atno 17395 bound_to 11000

$$$$
