AV-unprocessed.smi:3314|AV-procd|sdf|12746|dock5
  -GOLD-   2272019 83D 1   1.00000     0.00000
 Structure written by MMmdl.
 37 38  0  0  0  0  0  0  0  0  3 V2000
  154.4218  140.9704  161.2191 C   0  0  0  0  0  0  0  0  0  0  0  0
  153.4265  141.4254  160.1728 C   0  0  0  0  0  0  0  0  0  0  0  0
  153.0592  142.7806  160.0754 C   0  0  0  0  0  0  0  0  0  0  0  0
  152.1338  143.1469  159.0790 C   0  0  0  0  0  0  0  0  0  0  0  0
  151.6946  144.5874  158.9223 C   0  0  0  0  0  0  0  0  0  0  0  0
  151.5833  142.2607  158.2210 N   0  0  0  0  0  0  0  0  0  0  0  0
  151.9224  140.9526  158.3088 C   0  0  0  0  0  0  0  0  0  0  0  0
  151.3765  140.0854  157.4443 N   0  5  0  0  0  0  0  0  0  0  0  0
  150.8429  140.5336  156.2813 C   0  0  0  0  0  0  0  0  0  0  0  0
  151.2760  140.4103  155.1338 O   0  0  0  0  0  0  0  0  0  0  0  0
  149.5307  141.2921  156.5214 C   0  0  1  0  0  0  0  0  0  0  0  0
  148.5369  141.0675  155.3609 C   0  0  0  0  0  0  0  0  0  0  0  0
  147.2481  141.7363  155.6476 N   0  3  1  0  0  0  0  0  0  0  0  0
  146.2730  141.5914  154.5461 C   0  0  0  0  0  0  0  0  0  0  0  0
  146.7055  141.3004  156.9539 C   0  0  0  0  0  0  0  0  0  0  0  0
  147.7485  141.5194  158.0618 C   0  0  0  0  0  0  0  0  0  0  0  0
  148.9434  140.8229  157.7337 O   0  0  0  0  0  0  0  0  0  0  0  0
  152.8534  140.5030  159.2743 C   0  0  0  0  0  0  0  0  0  0  0  0
  154.2952  141.5358  162.1428 H   0  0  0  0  0  0  0  0  0  0  0  0
  155.4398  141.1203  160.8592 H   0  0  0  0  0  0  0  0  0  0  0  0
  154.2902  139.9127  161.4491 H   0  0  0  0  0  0  0  0  0  0  0  0
  153.4766  143.5186  160.7447 H   0  0  0  0  0  0  0  0  0  0  0  0
  152.4478  145.2698  159.3165 H   0  0  0  0  0  0  0  0  0  0  0  0
  150.7623  144.7553  159.4615 H   0  0  0  0  0  0  0  0  0  0  0  0
  151.5337  144.8329  157.8719 H   0  0  0  0  0  0  0  0  0  0  0  0
  149.7463  142.3580  156.6303 H   0  0  0  0  0  0  0  0  0  0  0  0
  148.9478  141.4643  154.4313 H   0  0  0  0  0  0  0  0  0  0  0  0
  148.3672  140.0001  155.2064 H   0  0  0  0  0  0  0  0  0  0  0  0
  146.0083  140.5444  154.3926 H   0  0  0  0  0  0  0  0  0  0  0  0
  146.6852  141.9809  153.6148 H   0  0  0  0  0  0  0  0  0  0  0  0
  145.3605  142.1470  154.7649 H   0  0  0  0  0  0  0  0  0  0  0  0
  145.7976  141.8599  157.1821 H   0  0  0  0  0  0  0  0  0  0  0  0
  146.4304  140.2457  156.9035 H   0  0  0  0  0  0  0  0  0  0  0  0
  147.9571  142.5817  158.1981 H   0  0  0  0  0  0  0  0  0  0  0  0
  147.3712  141.1443  159.0130 H   0  0  0  0  0  0  0  0  0  0  0  0
  153.1213  139.4575  159.3263 H   0  0  0  0  0  0  0  0  0  0  0  0
  147.4501  142.7224  155.7314 H   0  0  0  0  0  0  0  0  0  0  0  0
  1  2  1  0  0  0  0
  1 19  1  0  0  0  0
  1 20  1  0  0  0  0
  1 21  1  0  0  0  0
  2 18  2  0  0  0  0
  2  3  1  0  0  0  0
  3  4  2  0  0  0  0
  3 22  1  0  0  0  0
  4  5  1  0  0  0  0
  4  6  1  0  0  0  0
  5 23  1  0  0  0  0
  5 24  1  0  0  0  0
  5 25  1  0  0  0  0
  6  7  2  0  0  0  0
  7  8  1  0  0  0  0
  7 18  1  0  0  0  0
  8  9  1  0  0  0  0
  9 10  2  0  0  0  0
  9 11  1  0  0  0  0
 11 17  1  0  0  0  0
 11 12  1  0  0  0  0
 11 26  1  0  0  0  0
 12 13  1  0  0  0  0
 12 27  1  0  0  0  0
 12 28  1  0  0  0  0
 13 14  1  0  0  0  0
 13 15  1  0  0  0  0
 13 37  1  0  0  0  0
 14 29  1  0  0  0  0
 14 30  1  0  0  0  0
 14 31  1  0  0  0  0
 15 16  1  0  0  0  0
 15 32  1  0  0  0  0
 15 33  1  0  0  0  0
 16 17  1  0  0  0  0
 16 34  1  0  0  0  0
 16 35  1  0  0  0  0
 18 36  1  0  0  0  0
M  CHG  1   8  -1
M  CHG  1  13   1
M  END
> <s_m_source_file>
AV-unprocessed.smi

> <i_m_source_file_index>
3314

> <i_lp_mmshare_version>
43012

> <i_f3d_flags>
0

> <s_epik_input>
W0NIM11jMVtjSF1jKFtDSDNdKW5jKFtjSF0xKVtOSF1DKD1PKVtDQEBIXTJbQ0gyXU4oW0NIM10pW0NIMl1bQ0gyXU8y

> <s_epik_cmdline>
J2VwaWtfcHl0aG9uJywgJy1waCcsICc3LjAnLCAnLXRuJywgJzgnLCAnLW1hJywgJzIwMCcsICctbWV0YWxfYmluZGluZycsICctaW1hZScsICc8aW5maWxlLm1hZT4nLCAnLW9tYWUnLCAnPG91dGZpbGUubWFlPic=

> <r_epik_Ionization_Penalty>
13.8964

> <r_epik_Ionization_Penalty_Charging>
7.88995

> <r_epik_Ionization_Penalty_Neutral>
6.00641

> <r_epik_State_Penalty>
8.39989

> <r_epik_Charging_Adjusted_Penalty>
16.2898

> <i_epik_Tot_Q>
0

> <i_epik_Tot_abs_Q>
2

> <r_epik_Metal_State_Penalty>
4.31145

> <b_epik_Metal_Only>
1

> <s_lp_Force_Field>
OPLS_2005

> <r_lp_Energy>
9.09812

> <b_lp_Chiralities_Consistent>
1

> <s_lp_Variant>
AV-unprocessed.smi:3314-16

> <Gold.Version>
5.8.1

> <Gold.Id.Protein>
6NUR|6NUR_protein|mol2

> <Gold.PLP.Fitness>
45.7587

> <Gold.PLP.PLP>
-40.0680

> <Gold.PLP.part.hbond>
-2.0000

> <Gold.PLP.part.metal>
0.0000

> <Gold.PLP.part.buried>
-5.8969

> <Gold.PLP.part.nonpolar>
-33.5573

> <Gold.PLP.part.repulsive>
0.2258

> <Gold.PLP.ligand.clash>
0.0000

> <Gold.PLP.ligand.torsion>
1.4801

> <Gold.PLP.Chemscore.Hbond>
2.8800

> <Gold.PLP.Chemscore.CHOScore>
0.0000

> <Gold.PLP.Chemscore.Metal>
0.0000

> <Gold.Chemscore.Hbonds>
donor molecule, donor type, donor heavy atom, donor atom, acceptor molecule, acceptor atom, score
      P1  H  7989  7998       L1    10  0.99

> <Gold.PLP.Chemscore.Internal.Correction>
0.0109

> <Gold.Rescore>
     Score         DG    S(hbond)    S(metal)    S(lipo)     H(rot)  DE(clash)    DE(int)     intcor
     17.43     -19.81       1.84        0.00      91.95       1.00       0.03       2.35       ----

> <Gold.Chemscore.Fitness>
17.4339

> <Gold.Chemscore.DG>
-19.8138

> <Gold.Chemscore.ZeroCoef>
-5.4800

> <Gold.Chemscore.Hbond>
1.8370

> <Gold.Chemscore.Metal>
0.0000

> <Gold.Chemscore.Lipo>
91.9509

> <Gold.Chemscore.Internal_Hbond>
0.0000

> <Gold.Chemscore.DEClash>
0.0274

> <Gold.Chemscore.DEInternal>
2.3525

> <Gold.Chemscore.Rot>
1.0000

> <Gold.Chemscore.Internal.Correction>
   9.000000E+99

> <Gold.Chemscore.Hbonds>
donor molecule, donor type, donor heavy atom, donor atom, acceptor molecule, acceptor atom, score
      L1  H    13    37       P1  8028  0.02
      P1  H  7989  7998       L1    10  0.93

> <Gold.Chemscore.Hbond.Weighted>
-6.1356

> <Gold.Chemscore.Metal.Weighted>
-0.0000

> <Gold.Chemscore.Lipo.Weighted>
-10.7583

> <Gold.Chemscore.Internal_Hbond.Weighted>
0.0000

> <Gold.Chemscore.DEClash.Weighted>
0.0274

> <Gold.Chemscore.DEInternal.Weighted>
2.3525

> <Gold.Chemscore.Rot.Weighted>
2.5600

> <Gold.Chemscore.Internal.Correction.Weighted>
   9.000000E+99

> <Gold.Protein.RotatedTorsions>
[ 6907 6896 6895 6894 ] final  -48.76 input  -60.11 | X-H torsion
[ 7974 7965 7964 7962 ] final   48.41 input  175.53 | X-H torsion
[ 8008 7997 7996 7995 ] final  150.27 input   59.86 | X-H torsion
[ 10167 10162 10161 10158 ] final   76.44 input  -65.29 | X-H torsion
[ 10718 10713 10712 10709 ] final   74.81 input   66.30 | X-H torsion
[ 10763 10752 10751 10750 ] final  -95.90 input  -60.55 | X-H torsion
[ 11005 11000 10999 10996 ] final  119.41 input  -57.11 | X-H torsion

> <Gold.Protein.ActiveResidues>
 VAL166  LYS551  ARG553  GLY616  TRP617  ASP618  TYR619  PRO620  LYS621  CYS622 
 ASP623  PHE694  ASN695  SER759  ASP760  ASP761  ALA762  ILE779  LEU786  VAL792 
 PHE793  MET794  SER795  GLU796  ALA797  LYS798  CYS799  TRP800  GLU811  SER814 

> <Gold.Protein.RotatedAtoms>
  150.8873  134.8272  159.7267 H   0  0  0  0  0  0  0  0  0  0  0  0  # atno 6907 bound_to 6896
  152.4815  134.4703  159.9643 H   0  0  0  0  0  0  0  0  0  0  0  0  # atno 6908 bound_to 6896
  151.4770  133.3516  159.2867 H   0  0  0  0  0  0  0  0  0  0  0  0  # atno 6909 bound_to 6896
  146.0207  139.4648  142.9899 H   0  0  0  0  0  0  0  0  0  0  0  0  # atno 7974 bound_to 7965
  156.2722  140.2079  156.5990 H   0  0  0  0  0  0  0  0  0  0  0  0  # atno 8008 bound_to 7997
  154.6921  140.0529  157.0398 H   0  0  0  0  0  0  0  0  0  0  0  0  # atno 8009 bound_to 7997
  155.0851  140.3190  155.4593 H   0  0  0  0  0  0  0  0  0  0  0  0  # atno 8010 bound_to 7997
  139.9922  144.5748  150.7808 H   0  0  0  0  0  0  0  0  0  0  0  0  # atno 10167 bound_to 10162
  157.6608  130.9696  150.1263 H   0  0  0  0  0  0  0  0  0  0  0  0  # atno 10718 bound_to 10713
  154.7191  135.5103  153.8784 H   0  0  0  0  0  0  0  0  0  0  0  0  # atno 10763 bound_to 10752
  153.0846  135.6641  153.9983 H   0  0  0  0  0  0  0  0  0  0  0  0  # atno 10764 bound_to 10752
  153.9810  135.3029  155.3399 H   0  0  0  0  0  0  0  0  0  0  0  0  # atno 10765 bound_to 10752
  139.9145  134.9628  156.7651 H   0  0  0  0  0  0  0  0  0  0  0  0  # atno 11005 bound_to 11000
  145.7197  141.0079  143.1409 LP  0  0  0  0  0  0  0  0  0  0  0  0  # atno 17320 bound_to 7965
  144.6989  139.8856  143.7450 LP  0  0  0  0  0  0  0  0  0  0  0  0  # atno 17321 bound_to 7965
  140.7450  143.2869  151.3438 LP  0  0  0  0  0  0  0  0  0  0  0  0  # atno 17342 bound_to 10162
  139.6331  144.0682  152.2493 LP  0  0  0  0  0  0  0  0  0  0  0  0  # atno 17343 bound_to 10162
  156.2121  130.3667  149.8657 LP  0  0  0  0  0  0  0  0  0  0  0  0  # atno 17370 bound_to 10713
  156.6533  130.8752  151.3535 LP  0  0  0  0  0  0  0  0  0  0  0  0  # atno 17371 bound_to 10713
  140.6666  133.9597  155.7833 LP  0  0  0  0  0  0  0  0  0  0  0  0  # atno 17394 bound_to 11000
  141.0607  134.0351  157.3662 LP  0  0  0  0  0  0  0  0  0  0  0  0  # atno 17395 bound_to 11000

$$$$
