AV-unprocessed.smi:1418|AV-procd|sdf|5773|dock3
  -GOLD-   22720 5413D 1   1.00000     0.00000
 Structure written by MMmdl.
 39 41  0  0  0  0  0  0  0  0  1 V2000
  152.0576  136.2871  156.4034 O   0  0  0  0  0  0  0  0  0  0  0  0
  151.3732  136.3625  155.3833 C   0  0  0  0  0  0  0  0  0  0  0  0
  151.5101  137.5722  154.4580 C   0  0  0  0  0  0  0  0  0  0  0  0
  150.9607  138.7994  155.1289 C   0  0  0  0  0  0  0  0  0  0  0  0
  149.8588  139.5284  154.7490 C   0  0  0  0  0  0  0  0  0  0  0  0
  149.5744  140.8844  155.8042 S   0  0  0  0  0  0  0  0  0  0  0  0
  150.9819  140.3974  156.7534 C   0  0  0  0  0  0  0  0  0  0  0  0
  151.4793  141.0465  157.9230 N   0  0  0  0  0  0  0  0  0  0  0  0
  150.8153  142.2140  158.4954 C   0  0  0  0  0  0  0  0  0  0  0  0
  151.7565  142.7439  159.5826 C   0  0  0  0  0  0  0  0  0  0  0  0
  152.7586  141.6194  159.8328 C   0  0  0  0  0  0  0  0  0  0  0  0
  152.5527  140.6879  158.6495 C   0  0  0  0  0  0  0  0  0  0  0  0
  153.3075  139.7393  158.4406 O   0  0  0  0  0  0  0  0  0  0  0  0
  151.5847  139.3034  156.2749 N   0  0  0  0  0  0  0  0  0  0  0  0
  150.5015  135.4155  155.0017 N   0  0  0  0  0  0  0  0  0  0  0  0
  150.2924  134.1395  155.6748 C   0  0  0  0  0  0  0  0  0  0  0  0
  149.2722  133.2891  154.9218 C   0  0  0  0  0  0  0  0  0  0  0  0
  148.6632  132.0537  155.6013 C   0  0  0  0  0  0  0  0  0  0  0  0
  148.6364  131.3693  154.2321 C   0  0  0  0  0  0  0  0  0  0  0  0
  149.7313  132.3466  153.7977 C   0  0  0  0  0  0  0  0  0  0  0  0
  152.5575  137.7188  154.1911 H   0  0  0  0  0  0  0  0  0  0  0  0
  150.9821  137.3648  153.5262 H   0  0  0  0  0  0  0  0  0  0  0  0
  149.2037  139.3545  153.9083 H   0  0  0  0  0  0  0  0  0  0  0  0
  150.6191  142.9757  157.7394 H   0  0  0  0  0  0  0  0  0  0  0  0
  149.8604  141.9084  158.9253 H   0  0  0  0  0  0  0  0  0  0  0  0
  152.2788  143.6328  159.2265 H   0  0  0  0  0  0  0  0  0  0  0  0
  151.2153  143.0206  160.4879 H   0  0  0  0  0  0  0  0  0  0  0  0
  153.7848  141.9853  159.8796 H   0  0  0  0  0  0  0  0  0  0  0  0
  152.5344  141.0852  160.7565 H   0  0  0  0  0  0  0  0  0  0  0  0
  149.9785  135.5702  154.1520 H   0  0  0  0  0  0  0  0  0  0  0  0
  151.2361  133.6043  155.7931 H   0  0  0  0  0  0  0  0  0  0  0  0
  149.9345  134.3476  156.6832 H   0  0  0  0  0  0  0  0  0  0  0  0
  148.4576  133.9108  154.5435 H   0  0  0  0  0  0  0  0  0  0  0  0
  149.3497  131.5713  156.2992 H   0  0  0  0  0  0  0  0  0  0  0  0
  147.6829  132.2164  156.0501 H   0  0  0  0  0  0  0  0  0  0  0  0
  148.9353  130.3208  154.2387 H   0  0  0  0  0  0  0  0  0  0  0  0
  147.6969  131.5222  153.6989 H   0  0  0  0  0  0  0  0  0  0  0  0
  149.6159  132.7493  152.7909 H   0  0  0  0  0  0  0  0  0  0  0  0
  150.7355  131.9510  153.9588 H   0  0  0  0  0  0  0  0  0  0  0  0
  1  2  2  0  0  0  0
  2  3  1  0  0  0  0
  2 15  1  0  0  0  0
  3  4  1  0  0  0  0
  3 21  1  0  0  0  0
  3 22  1  0  0  0  0
  4 14  1  0  0  0  0
  4  5  2  0  0  0  0
  5  6  1  0  0  0  0
  5 23  1  0  0  0  0
  6  7  1  0  0  0  0
  7  8  1  0  0  0  0
  7 14  2  0  0  0  0
  8 12  1  0  0  0  0
  8  9  1  0  0  0  0
  9 10  1  0  0  0  0
  9 24  1  0  0  0  0
  9 25  1  0  0  0  0
 10 11  1  0  0  0  0
 10 26  1  0  0  0  0
 10 27  1  0  0  0  0
 11 12  1  0  0  0  0
 11 28  1  0  0  0  0
 11 29  1  0  0  0  0
 12 13  2  0  0  0  0
 15 16  1  0  0  0  0
 15 30  1  0  0  0  0
 16 17  1  0  0  0  0
 16 31  1  0  0  0  0
 16 32  1  0  0  0  0
 17 20  1  0  0  0  0
 17 18  1  0  0  0  0
 17 33  1  0  0  0  0
 18 19  1  0  0  0  0
 18 34  1  0  0  0  0
 18 35  1  0  0  0  0
 19 20  1  0  0  0  0
 19 36  1  0  0  0  0
 19 37  1  0  0  0  0
 20 38  1  0  0  0  0
 20 39  1  0  0  0  0
M  END
> <s_m_source_file>
AV-unprocessed.smi

> <i_m_source_file_index>
1418

> <i_lp_mmshare_version>
43012

> <i_f3d_flags>
0

> <s_epik_input>
W0NIMl0xW0NIMl1bQ0gyXVtDSF0xW0NIMl1bTkhdQyg9TylbQ0gyXWMyW2NIXXNjKG4yKU4zW0NIMl1bQ0gyXVtDSDJdQzM9Tw==

> <s_epik_cmdline>
J2VwaWtfcHl0aG9uJywgJy1waCcsICc3LjAnLCAnLXRuJywgJzgnLCAnLW1hJywgJzIwMCcsICctbWV0YWxfYmluZGluZycsICctaW1hZScsICc8aW5maWxlLm1hZT4nLCAnLW9tYWUnLCAnPG91dGZpbGUubWFlPic=

> <r_lp_tautomer_probability>
1

> <r_epik_Ionization_Penalty>
2.96456e-05

> <r_epik_Ionization_Penalty_Charging>
0

> <r_epik_Ionization_Penalty_Neutral>
2.96456e-05

> <r_epik_State_Penalty>
-0

> <r_epik_Charging_Adjusted_Penalty>
0

> <i_epik_Tot_Q>
0

> <i_epik_Tot_abs_Q>
0

> <r_epik_Metal_State_Penalty>
-0

> <b_epik_Metal_Only>
0

> <s_lp_Force_Field>
OPLS_2005

> <r_lp_Energy>
26.2197

> <b_lp_Chiralities_Consistent>
1

> <s_lp_Variant>
AV-unprocessed.smi:1418-1

> <Gold.Version>
5.8.1

> <Gold.Id.Protein>
6NUR|6NUR_protein|mol2

> <Gold.PLP.Fitness>
50.0964

> <Gold.PLP.PLP>
-38.6814

> <Gold.PLP.part.hbond>
-3.7726

> <Gold.PLP.part.metal>
0.0000

> <Gold.PLP.part.buried>
-1.3150

> <Gold.PLP.part.nonpolar>
-32.8929

> <Gold.PLP.part.repulsive>
0.0970

> <Gold.PLP.ligand.clash>
0.0000

> <Gold.PLP.ligand.torsion>
0.3235

> <Gold.PLP.Chemscore.Hbond>
3.0000

> <Gold.PLP.Chemscore.CHOScore>
0.9953

> <Gold.PLP.Chemscore.Metal>
0.0000

> <Gold.Chemscore.Hbonds>
donor molecule, donor type, donor heavy atom, donor atom, acceptor molecule, acceptor atom, score
      P1  H  7997  8008       L1    13  1.00
      L1  C     5    23       P1  7957  0.17

> <Gold.PLP.Chemscore.Internal.Correction>
0.0762

> <Gold.Rescore>
     Score         DG    S(hbond)    S(metal)    S(lipo)     H(rot)  DE(clash)    DE(int)     intcor
     17.04     -19.04       2.56        0.00      77.91       1.60       0.23       1.76       ----

> <Gold.Chemscore.Fitness>
17.0431

> <Gold.Chemscore.DG>
-19.0368

> <Gold.Chemscore.ZeroCoef>
-5.4800

> <Gold.Chemscore.Hbond>
2.5591

> <Gold.Chemscore.Metal>
0.0000

> <Gold.Chemscore.Lipo>
77.9054

> <Gold.Chemscore.Internal_Hbond>
0.0000

> <Gold.Chemscore.DEClash>
0.2300

> <Gold.Chemscore.DEInternal>
1.7637

> <Gold.Chemscore.Rot>
1.6038

> <Gold.Chemscore.Internal.Correction>
   9.000000E+99

> <Gold.Chemscore.Hbonds>
donor molecule, donor type, donor heavy atom, donor atom, acceptor molecule, acceptor atom, score
      P1  H  7997  8008       L1    13  0.93

> <Gold.Chemscore.Hbond.Weighted>
-8.5475

> <Gold.Chemscore.Metal.Weighted>
-0.0000

> <Gold.Chemscore.Lipo.Weighted>
-9.1149

> <Gold.Chemscore.Internal_Hbond.Weighted>
0.0000

> <Gold.Chemscore.DEClash.Weighted>
0.2300

> <Gold.Chemscore.DEInternal.Weighted>
1.7637

> <Gold.Chemscore.Rot.Weighted>
4.1056

> <Gold.Chemscore.Internal.Correction.Weighted>
   9.000000E+99

> <Gold.Protein.RotatedTorsions>
[ 6907 6896 6895 6894 ] final  137.57 input  -60.11 | X-H torsion
[ 7974 7965 7964 7962 ] final  -18.70 input  175.53 | X-H torsion
[ 8008 7997 7996 7995 ] final  -98.03 input   59.86 | X-H torsion
[ 10167 10162 10161 10158 ] final -109.13 input  -65.29 | X-H torsion
[ 10718 10713 10712 10709 ] final  -17.11 input   66.30 | X-H torsion
[ 10763 10752 10751 10750 ] final -149.82 input  -60.55 | X-H torsion
[ 11005 11000 10999 10996 ] final -138.37 input  -57.11 | X-H torsion

> <Gold.Protein.ActiveResidues>
 VAL166  LYS551  ARG553  GLY616  TRP617  ASP618  TYR619  PRO620  LYS621  CYS622 
 ASP623  PHE694  ASN695  SER759  ASP760  ASP761  ALA762  ILE779  LEU786  VAL792 
 PHE793  MET794  SER795  GLU796  ALA797  LYS798  CYS799  TRP800  GLU811  SER814 

> <Gold.Protein.RotatedAtoms>
  152.2765  133.5430  159.5470 H   0  0  0  0  0  0  0  0  0  0  0  0  # atno 6907 bound_to 6896
  150.7179  134.0624  159.3845 H   0  0  0  0  0  0  0  0  0  0  0  0  # atno 6908 bound_to 6896
  151.8537  135.0549  160.0512 H   0  0  0  0  0  0  0  0  0  0  0  0  # atno 6909 bound_to 6896
  146.1879  140.3959  142.8469 H   0  0  0  0  0  0  0  0  0  0  0  0  # atno 7974 bound_to 7965
  154.7956  140.0458  157.1234 H   0  0  0  0  0  0  0  0  0  0  0  0  # atno 8008 bound_to 7997
  154.9539  140.3068  155.5042 H   0  0  0  0  0  0  0  0  0  0  0  0  # atno 8009 bound_to 7997
  156.2955  140.2283  156.4619 H   0  0  0  0  0  0  0  0  0  0  0  0  # atno 8010 bound_to 7997
  140.1587  143.4138  152.1442 H   0  0  0  0  0  0  0  0  0  0  0  0  # atno 10167 bound_to 10162
  156.5782  130.4767  149.6332 H   0  0  0  0  0  0  0  0  0  0  0  0  # atno 10718 bound_to 10713
  154.8155  135.3299  154.7188 H   0  0  0  0  0  0  0  0  0  0  0  0  # atno 10763 bound_to 10752
  153.7830  135.6917  153.4889 H   0  0  0  0  0  0  0  0  0  0  0  0  # atno 10764 bound_to 10752
  153.1967  135.4531  155.0164 H   0  0  0  0  0  0  0  0  0  0  0  0  # atno 10765 bound_to 10752
  140.8622  134.2154  157.4700 H   0  0  0  0  0  0  0  0  0  0  0  0  # atno 11005 bound_to 11000
  144.8431  140.6887  143.6217 LP  0  0  0  0  0  0  0  0  0  0  0  0  # atno 17320 bound_to 7965
  145.3884  139.1622  143.4243 LP  0  0  0  0  0  0  0  0  0  0  0  0  # atno 17321 bound_to 7965
  139.5391  144.7239  151.4792 LP  0  0  0  0  0  0  0  0  0  0  0  0  # atno 17342 bound_to 10162
  140.6657  143.8403  150.6939 LP  0  0  0  0  0  0  0  0  0  0  0  0  # atno 17343 bound_to 10162
  156.2655  130.6987  151.1768 LP  0  0  0  0  0  0  0  0  0  0  0  0  # atno 17370 bound_to 10713
  157.7333  131.0592  150.5586 LP  0  0  0  0  0  0  0  0  0  0  0  0  # atno 17371 bound_to 10713
  139.8707  134.9735  156.4811 LP  0  0  0  0  0  0  0  0  0  0  0  0  # atno 17394 bound_to 11000
  140.8669  133.8017  155.9324 LP  0  0  0  0  0  0  0  0  0  0  0  0  # atno 17395 bound_to 11000

$$$$
