AV-unprocessed.smi:422|AV-procd|sdf|2537|dock9
  -GOLD-   2262022503D 1   1.00000     0.00000
 Structure written by MMmdl.
 43 45  0  0  0  0  0  0  0  0  1 V2000
  149.5205  142.3552  156.1525 C   0  0  0  0  0  0  0  0  0  0  0  0
  150.5374  141.3501  156.4376 N   0  0  0  0  0  0  0  0  0  0  0  0
  150.9191  140.3315  155.6320 C   0  0  0  0  0  0  0  0  0  0  0  0
  150.4640  140.0808  154.5161 O   0  0  0  0  0  0  0  0  0  0  0  0
  151.8766  139.6239  156.2763 N   0  0  0  0  0  0  0  0  0  0  0  0
  152.5569  138.4297  155.7801 C   0  0  0  0  0  0  0  0  0  0  0  0
  151.5579  137.4042  155.2065 C   0  0  1  0  0  0  0  0  0  0  0  0
  151.9697  136.9821  153.9220 O   0  0  0  0  0  0  0  0  0  0  0  0
  151.4075  136.1507  156.0851 C   0  0  0  0  0  0  0  0  0  0  0  0
  151.0806  135.0269  155.2825 O   0  0  0  0  0  0  0  0  0  0  0  0
  150.7831  133.8713  156.0462 C   0  0  0  0  0  0  0  0  0  0  0  0
  150.2976  132.7406  155.1614 C   0  0  0  0  0  0  0  0  0  0  0  0
  149.2204  132.9517  154.2751 C   0  0  0  0  0  0  0  0  0  0  0  0
  148.7683  131.9054  153.4476 C   0  0  0  0  0  0  0  0  0  0  0  0
  149.3928  130.6444  153.5017 C   0  0  0  0  0  0  0  0  0  0  0  0
  150.4701  130.4306  154.3832 C   0  0  0  0  0  0  0  0  0  0  0  0
  150.9238  131.4760  155.2114 C   0  0  0  0  0  0  0  0  0  0  0  0
  151.9631  131.2598  156.0531 F   0  0  0  0  0  0  0  0  0  0  0  0
  152.0948  140.1911  157.5402 C   0  0  0  0  0  0  0  0  0  0  0  0
  152.9574  139.8190  158.5862 C   0  0  0  0  0  0  0  0  0  0  0  0
  152.9330  140.6127  159.7570 C   0  0  0  0  0  0  0  0  0  0  0  0
  152.0669  141.7326  159.8586 C   0  0  0  0  0  0  0  0  0  0  0  0
  151.2060  142.0824  158.7919 C   0  0  0  0  0  0  0  0  0  0  0  0
  151.2522  141.2782  157.6403 C   0  0  0  0  0  0  0  0  0  0  0  0
  149.3087  142.4252  155.0849 H   0  0  0  0  0  0  0  0  0  0  0  0
  149.8475  143.3390  156.4898 H   0  0  0  0  0  0  0  0  0  0  0  0
  148.5928  142.1067  156.6686 H   0  0  0  0  0  0  0  0  0  0  0  0
  153.3185  138.6916  155.0434 H   0  0  0  0  0  0  0  0  0  0  0  0
  153.1002  137.9868  156.6156 H   0  0  0  0  0  0  0  0  0  0  0  0
  150.5722  137.8599  155.1017 H   0  0  0  0  0  0  0  0  0  0  0  0
  151.2037  136.8855  153.3766 H   0  0  0  0  0  0  0  0  0  0  0  0
  152.3551  135.9553  156.5896 H   0  0  0  0  0  0  0  0  0  0  0  0
  150.6580  136.3091  156.8626 H   0  0  0  0  0  0  0  0  0  0  0  0
  151.6684  133.5429  156.5935 H   0  0  0  0  0  0  0  0  0  0  0  0
  150.0189  134.1043  156.7897 H   0  0  0  0  0  0  0  0  0  0  0  0
  148.7391  133.9176  154.2259 H   0  0  0  0  0  0  0  0  0  0  0  0
  147.9432  132.0709  152.7706 H   0  0  0  0  0  0  0  0  0  0  0  0
  149.0466  129.8419  152.8672 H   0  0  0  0  0  0  0  0  0  0  0  0
  150.9498  129.4638  154.4237 H   0  0  0  0  0  0  0  0  0  0  0  0
  153.6114  138.9632  158.5053 H   0  0  0  0  0  0  0  0  0  0  0  0
  153.5805  140.3620  160.5843 H   0  0  0  0  0  0  0  0  0  0  0  0
  152.0630  142.3242  160.7621 H   0  0  0  0  0  0  0  0  0  0  0  0
  150.5417  142.9308  158.8642 H   0  0  0  0  0  0  0  0  0  0  0  0
  1  2  1  0  0  0  0
  1 25  1  0  0  0  0
  1 26  1  0  0  0  0
  1 27  1  0  0  0  0
  2 24  1  0  0  0  0
  2  3  1  0  0  0  0
  3  4  2  0  0  0  0
  3  5  1  0  0  0  0
  5  6  1  0  0  0  0
  5 19  1  0  0  0  0
  6  7  1  0  0  0  0
  6 28  1  0  0  0  0
  6 29  1  0  0  0  0
  7  8  1  0  0  0  0
  7  9  1  0  0  0  0
  7 30  1  0  0  0  0
  8 31  1  0  0  0  0
  9 10  1  0  0  0  0
  9 32  1  0  0  0  0
  9 33  1  0  0  0  0
 10 11  1  0  0  0  0
 11 12  1  0  0  0  0
 11 34  1  0  0  0  0
 11 35  1  0  0  0  0
 12 17  1  0  0  0  0
 12 13  2  0  0  0  0
 13 14  1  0  0  0  0
 13 36  1  0  0  0  0
 14 15  2  0  0  0  0
 14 37  1  0  0  0  0
 15 16  1  0  0  0  0
 15 38  1  0  0  0  0
 16 17  2  0  0  0  0
 16 39  1  0  0  0  0
 17 18  1  0  0  0  0
 19 24  2  0  0  0  0
 19 20  1  0  0  0  0
 20 21  2  0  0  0  0
 20 40  1  0  0  0  0
 21 22  1  0  0  0  0
 21 41  1  0  0  0  0
 22 23  2  0  0  0  0
 22 42  1  0  0  0  0
 23 24  1  0  0  0  0
 23 43  1  0  0  0  0
M  END
> <s_m_source_file>
AV-unprocessed.smi

> <i_m_source_file_index>
422

> <i_lp_mmshare_version>
43012

> <i_f3d_flags>
0

> <s_epik_input>
W2NIXTFbY0hdW2NIXVtjSF1jKGMxMiluKFtDSDNdKWMoPU8pbjJbQ0gyXVtDQEhdKFtPSF0pW0NIMl1PW0NIMl1jM1tjSF1bY0hdW2NIXVtjSF1jM0Y=

> <s_epik_cmdline>
J2VwaWtfcHl0aG9uJywgJy1waCcsICc3LjAnLCAnLXRuJywgJzgnLCAnLW1hJywgJzIwMCcsICctbWV0YWxfYmluZGluZycsICctaW1hZScsICc8aW5maWxlLm1hZT4nLCAnLW9tYWUnLCAnPG91dGZpbGUubWFlPic=

> <r_lp_tautomer_probability>
1

> <r_epik_Ionization_Penalty>
1.0795e-06

> <r_epik_Ionization_Penalty_Charging>
2.82452e-09

> <r_epik_Ionization_Penalty_Neutral>
1.07667e-06

> <r_epik_State_Penalty>
-0

> <r_epik_Charging_Adjusted_Penalty>
2.82452e-09

> <i_epik_Tot_Q>
0

> <i_epik_Tot_abs_Q>
0

> <r_epik_Metal_State_Penalty>
-0

> <b_epik_Metal_Only>
0

> <s_lp_Force_Field>
OPLS_2005

> <r_lp_Energy>
48.6782

> <b_lp_Chiralities_Consistent>
1

> <s_lp_Variant>
AV-unprocessed.smi:422-2

> <Gold.Version>
5.8.1

> <Gold.Id.Protein>
6NUR|6NUR_protein|mol2

> <Gold.PLP.Fitness>
48.7885

> <Gold.PLP.PLP>
-43.8812

> <Gold.PLP.part.hbond>
-3.9105

> <Gold.PLP.part.metal>
0.0000

> <Gold.PLP.part.buried>
2.5186

> <Gold.PLP.part.nonpolar>
-41.8327

> <Gold.PLP.part.repulsive>
0.2067

> <Gold.PLP.ligand.clash>
0.0000

> <Gold.PLP.ligand.torsion>
1.2650

> <Gold.PLP.Chemscore.Hbond>
2.4326

> <Gold.PLP.Chemscore.CHOScore>
0.0000

> <Gold.PLP.Chemscore.Metal>
0.0000

> <Gold.Chemscore.Hbonds>
donor molecule, donor type, donor heavy atom, donor atom, acceptor molecule, acceptor atom, score
      L1  H     8    31       P1  7949  0.44
      P1  H  7989  7998       L1     4  1.00
      P1  H 10752 10765       L1     8  1.00

> <Gold.PLP.Chemscore.Internal.Correction>
0.1393

> <Gold.Rescore>
     Score         DG    S(hbond)    S(metal)    S(lipo)     H(rot)  DE(clash)    DE(int)     intcor
     16.29     -17.62       1.87        0.00     102.43       2.38       0.04       1.29       ----

> <Gold.Chemscore.Fitness>
16.2909

> <Gold.Chemscore.DG>
-17.6213

> <Gold.Chemscore.ZeroCoef>
-5.4800

> <Gold.Chemscore.Hbond>
1.8719

> <Gold.Chemscore.Metal>
0.0000

> <Gold.Chemscore.Lipo>
102.4303

> <Gold.Chemscore.Internal_Hbond>
0.0000

> <Gold.Chemscore.DEClash>
0.0405

> <Gold.Chemscore.DEInternal>
1.2898

> <Gold.Chemscore.Rot>
2.3809

> <Gold.Chemscore.Internal.Correction>
   9.000000E+99

> <Gold.Chemscore.Hbonds>
donor molecule, donor type, donor heavy atom, donor atom, acceptor molecule, acceptor atom, score
      L1  H     8    31       P1  7949  0.23
      P1  H  7989  7998       L1     4  0.30
      P1  H 10752 10765       L1     8  0.75

> <Gold.Chemscore.Hbond.Weighted>
-6.2520

> <Gold.Chemscore.Metal.Weighted>
-0.0000

> <Gold.Chemscore.Lipo.Weighted>
-11.9844

> <Gold.Chemscore.Internal_Hbond.Weighted>
0.0000

> <Gold.Chemscore.DEClash.Weighted>
0.0405

> <Gold.Chemscore.DEInternal.Weighted>
1.2898

> <Gold.Chemscore.Rot.Weighted>
6.0951

> <Gold.Chemscore.Internal.Correction.Weighted>
   9.000000E+99

> <Gold.Protein.RotatedTorsions>
[ 6907 6896 6895 6894 ] final  174.05 input  -60.11 | X-H torsion
[ 7974 7965 7964 7962 ] final   46.64 input  175.53 | X-H torsion
[ 8008 7997 7996 7995 ] final  -10.62 input   59.86 | X-H torsion
[ 10167 10162 10161 10158 ] final   38.47 input  -65.29 | X-H torsion
[ 10718 10713 10712 10709 ] final  -86.65 input   66.30 | X-H torsion
[ 10763 10752 10751 10750 ] final  145.97 input  -60.55 | X-H torsion
[ 11005 11000 10999 10996 ] final  -11.24 input  -57.11 | X-H torsion

> <Gold.Protein.ActiveResidues>
 VAL166  LYS551  ARG553  GLY616  TRP617  ASP618  TYR619  PRO620  LYS621  CYS622 
 ASP623  PHE694  ASN695  SER759  ASP760  ASP761  ALA762  ILE779  LEU786  VAL792 
 PHE793  MET794  SER795  GLU796  ALA797  LYS798  CYS799  TRP800  GLU811  SER814 

> <Gold.Protein.RotatedAtoms>
  151.7585  133.3332  159.3411 H   0  0  0  0  0  0  0  0  0  0  0  0  # atno 6907 bound_to 6896
  150.7507  134.6127  159.6104 H   0  0  0  0  0  0  0  0  0  0  0  0  # atno 6908 bound_to 6896
  152.3421  134.7123  160.0312 H   0  0  0  0  0  0  0  0  0  0  0  0  # atno 6909 bound_to 6896
  146.0371  139.4834  142.9801 H   0  0  0  0  0  0  0  0  0  0  0  0  # atno 7974 bound_to 7965
  154.5538  140.2324  155.8442 H   0  0  0  0  0  0  0  0  0  0  0  0  # atno 8008 bound_to 7997
  156.1970  140.3062  155.9409 H   0  0  0  0  0  0  0  0  0  0  0  0  # atno 8009 bound_to 7997
  155.3019  140.0431  157.3020 H   0  0  0  0  0  0  0  0  0  0  0  0  # atno 8010 bound_to 7997
  140.3934  144.1822  150.6131 H   0  0  0  0  0  0  0  0  0  0  0  0  # atno 10167 bound_to 10162
  155.9989  130.4772  150.4748 H   0  0  0  0  0  0  0  0  0  0  0  0  # atno 10718 bound_to 10713
  154.0141  135.2912  155.3389 H   0  0  0  0  0  0  0  0  0  0  0  0  # atno 10763 bound_to 10752
  154.7085  135.5159  153.8634 H   0  0  0  0  0  0  0  0  0  0  0  0  # atno 10764 bound_to 10752
  153.0710  135.6647  154.0370 H   0  0  0  0  0  0  0  0  0  0  0  0  # atno 10765 bound_to 10752
  140.7532  133.8575  155.9062 H   0  0  0  0  0  0  0  0  0  0  0  0  # atno 11005 bound_to 11000
  145.6945  141.0154  143.1537 LP  0  0  0  0  0  0  0  0  0  0  0  0  # atno 17320 bound_to 7965
  144.7057  139.8572  143.7430 LP  0  0  0  0  0  0  0  0  0  0  0  0  # atno 17321 bound_to 7965
  140.4816  143.2377  151.8947 LP  0  0  0  0  0  0  0  0  0  0  0  0  # atno 17342 bound_to 10162
  139.4788  144.5263  151.8730 LP  0  0  0  0  0  0  0  0  0  0  0  0  # atno 17343 bound_to 10162
  157.2759  131.0597  151.2229 LP  0  0  0  0  0  0  0  0  0  0  0  0  # atno 17370 bound_to 10713
  157.3293  130.6977  149.6315 LP  0  0  0  0  0  0  0  0  0  0  0  0  # atno 17371 bound_to 10713
  140.9732  134.1504  157.4559 LP  0  0  0  0  0  0  0  0  0  0  0  0  # atno 17394 bound_to 11000
  139.8784  134.9985  156.5906 LP  0  0  0  0  0  0  0  0  0  0  0  0  # atno 17395 bound_to 11000

$$$$
