AV-unprocessed.smi:3264|AV-procd|sdf|12495|dock4
  -GOLD-   2272018393D 1   1.00000     0.00000
 Structure written by MMmdl.
 32 33  0  0  0  0  0  0  0  0  1 V2000
  152.0665  145.0927  159.1607 C   0  0  0  0  0  0  0  0  0  0  0  0
  152.5521  143.9166  159.9367 C   0  0  0  0  0  0  0  0  0  0  0  0
  153.2244  142.8982  159.3938 N   0  0  0  0  0  0  0  0  0  0  0  0
  153.5630  141.9164  160.3305 C   0  0  0  0  0  0  0  0  0  0  0  0
  154.3232  140.6994  159.8982 C   0  0  0  0  0  0  0  0  0  0  0  0
  153.4601  139.4307  159.9321 C   0  0  0  0  0  0  0  0  0  0  0  0
  153.3371  138.8607  158.5973 N   0  0  0  0  0  0  0  0  0  0  0  0
  152.8622  137.6356  158.3303 C   0  0  0  0  0  0  0  0  0  0  0  0
  152.4737  136.8586  159.2031 O   0  0  0  0  0  0  0  0  0  0  0  0
  152.8078  137.2431  156.8489 C   0  0  1  0  0  0  0  0  0  0  0  0
  151.3903  136.9984  156.2951 C   0  0  0  0  0  0  0  0  0  0  0  0
  151.1810  138.1427  155.3222 C   0  0  0  0  0  0  0  0  0  0  0  0
  152.6052  138.4447  154.8797 C   0  0  0  0  0  0  0  0  0  0  0  0
  153.3429  138.3218  156.0849 O   0  0  0  0  0  0  0  0  0  0  0  0
  153.1368  142.2114  161.6015 C   0  0  0  0  0  0  0  0  0  0  0  0
  152.2913  143.7332  161.6668 S   0  0  0  0  0  0  0  0  0  0  0  0
  152.3880  145.0274  158.1206 H   0  0  0  0  0  0  0  0  0  0  0  0
  152.4618  146.0126  159.5917 H   0  0  0  0  0  0  0  0  0  0  0  0
  150.9774  145.1321  159.1880 H   0  0  0  0  0  0  0  0  0  0  0  0
  154.7114  140.8456  158.8893 H   0  0  0  0  0  0  0  0  0  0  0  0
  155.1969  140.5630  160.5371 H   0  0  0  0  0  0  0  0  0  0  0  0
  153.9040  138.6871  160.5956 H   0  0  0  0  0  0  0  0  0  0  0  0
  152.4711  139.6683  160.3286 H   0  0  0  0  0  0  0  0  0  0  0  0
  153.6299  139.4372  157.8216 H   0  0  0  0  0  0  0  0  0  0  0  0
  153.4192  136.3547  156.6804 H   0  0  0  0  0  0  0  0  0  0  0  0
  151.3668  136.0476  155.7610 H   0  0  0  0  0  0  0  0  0  0  0  0
  150.6077  136.9596  157.0539 H   0  0  0  0  0  0  0  0  0  0  0  0
  150.5207  137.8862  154.4935 H   0  0  0  0  0  0  0  0  0  0  0  0
  150.7621  139.0052  155.8422 H   0  0  0  0  0  0  0  0  0  0  0  0
  152.9563  137.7064  154.1569 H   0  0  0  0  0  0  0  0  0  0  0  0
  152.7110  139.4376  154.4422 H   0  0  0  0  0  0  0  0  0  0  0  0
  153.2694  141.6284  162.5008 H   0  0  0  0  0  0  0  0  0  0  0  0
  1  2  1  0  0  0  0
  1 17  1  0  0  0  0
  1 18  1  0  0  0  0
  1 19  1  0  0  0  0
  2 16  1  0  0  0  0
  2  3  2  0  0  0  0
  3  4  1  0  0  0  0
  4  5  1  0  0  0  0
  4 15  2  0  0  0  0
  5  6  1  0  0  0  0
  5 20  1  0  0  0  0
  5 21  1  0  0  0  0
  6  7  1  0  0  0  0
  6 22  1  0  0  0  0
  6 23  1  0  0  0  0
  7  8  1  0  0  0  0
  7 24  1  0  0  0  0
  8  9  2  0  0  0  0
  8 10  1  0  0  0  0
 10 14  1  0  0  0  0
 10 11  1  0  0  0  0
 10 25  1  0  0  0  0
 11 12  1  0  0  0  0
 11 26  1  0  0  0  0
 11 27  1  0  0  0  0
 12 13  1  0  0  0  0
 12 28  1  0  0  0  0
 12 29  1  0  0  0  0
 13 14  1  0  0  0  0
 13 30  1  0  0  0  0
 13 31  1  0  0  0  0
 15 16  1  0  0  0  0
 15 32  1  0  0  0  0
M  END
> <s_m_source_file>
AV-unprocessed.smi

> <i_m_source_file_index>
3264

> <i_lp_mmshare_version>
43012

> <i_f3d_flags>
0

> <s_epik_input>
W0NIM11jMW5jKFtjSF1zMSlbQ0gyXVtDSDJdW05IXUMoPU8pW0NAQEhdMltDSDJdW0NIMl1bQ0gyXU8y

> <s_epik_cmdline>
J2VwaWtfcHl0aG9uJywgJy1waCcsICc3LjAnLCAnLXRuJywgJzgnLCAnLW1hJywgJzIwMCcsICctbWV0YWxfYmluZGluZycsICctaW1hZScsICc8aW5maWxlLm1hZT4nLCAnLW9tYWUnLCAnPG91dGZpbGUubWFlPic=

> <r_epik_Ionization_Penalty>
0.00112246

> <r_epik_Ionization_Penalty_Charging>
0

> <r_epik_Ionization_Penalty_Neutral>
0.00112246

> <r_epik_State_Penalty>
0.000737392

> <r_epik_Charging_Adjusted_Penalty>
0.000737392

> <i_epik_Tot_Q>
0

> <i_epik_Tot_abs_Q>
0

> <r_epik_Metal_State_Penalty>
-0

> <b_epik_Metal_Only>
0

> <s_lp_Force_Field>
OPLS_2005

> <r_lp_Energy>
13.6214

> <b_lp_Chiralities_Consistent>
1

> <s_lp_Variant>
AV-unprocessed.smi:3264-2

> <Gold.Version>
5.8.1

> <Gold.Id.Protein>
6NUR|6NUR_protein|mol2

> <Gold.PLP.Fitness>
41.3852

> <Gold.PLP.PLP>
-37.1298

> <Gold.PLP.part.hbond>
-2.0000

> <Gold.PLP.part.metal>
0.0000

> <Gold.PLP.part.buried>
-6.1642

> <Gold.PLP.part.nonpolar>
-30.1459

> <Gold.PLP.part.repulsive>
0.0895

> <Gold.PLP.ligand.clash>
0.0000

> <Gold.PLP.ligand.torsion>
0.5656

> <Gold.PLP.Chemscore.Hbond>
1.7908

> <Gold.PLP.Chemscore.CHOScore>
0.0000

> <Gold.PLP.Chemscore.Metal>
0.0000

> <Gold.Chemscore.Hbonds>
donor molecule, donor type, donor heavy atom, donor atom, acceptor molecule, acceptor atom, score
      P1  H  6896  6908       L1     9  1.00
      P1  H  7997  8008       L1    14  0.80

> <Gold.PLP.Chemscore.Internal.Correction>
0.0143

> <Gold.Rescore>
     Score         DG    S(hbond)    S(metal)    S(lipo)     H(rot)  DE(clash)    DE(int)     intcor
     18.33     -18.92       1.64        0.00     101.19       1.52       0.00       0.59       ----

> <Gold.Chemscore.Fitness>
18.3348

> <Gold.Chemscore.DG>
-18.9209

> <Gold.Chemscore.ZeroCoef>
-5.4800

> <Gold.Chemscore.Hbond>
1.6412

> <Gold.Chemscore.Metal>
0.0000

> <Gold.Chemscore.Lipo>
101.1949

> <Gold.Chemscore.Internal_Hbond>
0.0000

> <Gold.Chemscore.DEClash>
0.0000

> <Gold.Chemscore.DEInternal>
0.5861

> <Gold.Chemscore.Rot>
1.5159

> <Gold.Chemscore.Internal.Correction>
   9.000000E+99

> <Gold.Chemscore.Hbonds>
donor molecule, donor type, donor heavy atom, donor atom, acceptor molecule, acceptor atom, score
      P1  H  6896  6908       L1     9  0.90
      P1  H  7997  8008       L1    14  0.49

> <Gold.Chemscore.Hbond.Weighted>
-5.4817

> <Gold.Chemscore.Metal.Weighted>
-0.0000

> <Gold.Chemscore.Lipo.Weighted>
-11.8398

> <Gold.Chemscore.Internal_Hbond.Weighted>
0.0000

> <Gold.Chemscore.DEClash.Weighted>
0.0000

> <Gold.Chemscore.DEInternal.Weighted>
0.5861

> <Gold.Chemscore.Rot.Weighted>
3.8807

> <Gold.Chemscore.Internal.Correction.Weighted>
   9.000000E+99

> <Gold.Protein.RotatedTorsions>
[ 6907 6896 6895 6894 ] final -109.47 input  -60.11 | X-H torsion
[ 7974 7965 7964 7962 ] final   55.24 input  175.53 | X-H torsion
[ 8008 7997 7996 7995 ] final  -45.60 input   59.86 | X-H torsion
[ 10167 10162 10161 10158 ] final -153.07 input  -65.29 | X-H torsion
[ 10718 10713 10712 10709 ] final -124.39 input   66.30 | X-H torsion
[ 10763 10752 10751 10750 ] final  -78.42 input  -60.55 | X-H torsion
[ 11005 11000 10999 10996 ] final   13.24 input  -57.11 | X-H torsion

> <Gold.Protein.ActiveResidues>
 VAL166  LYS551  ARG553  GLY616  TRP617  ASP618  TYR619  PRO620  LYS621  CYS622 
 ASP623  PHE694  ASN695  SER759  ASP760  ASP761  ALA762  ILE779  LEU786  VAL792 
 PHE793  MET794  SER795  GLU796  ALA797  LYS798  CYS799  TRP800  GLU811  SER814 

> <Gold.Protein.RotatedAtoms>
  150.7564  133.9525  159.3489 H   0  0  0  0  0  0  0  0  0  0  0  0  # atno 6907 bound_to 6896
  151.7443  135.0845  160.0330 H   0  0  0  0  0  0  0  0  0  0  0  0  # atno 6908 bound_to 6896
  152.3508  133.6140  159.5979 H   0  0  0  0  0  0  0  0  0  0  0  0  # atno 6909 bound_to 6896
  145.9524  139.3984  143.0298 H   0  0  0  0  0  0  0  0  0  0  0  0  # atno 7974 bound_to 7965
  154.4002  140.1392  156.3874 H   0  0  0  0  0  0  0  0  0  0  0  0  # atno 8008 bound_to 7997
  155.7947  140.3478  155.5348 H   0  0  0  0  0  0  0  0  0  0  0  0  # atno 8009 bound_to 7997
  155.8544  140.0946  157.1644 H   0  0  0  0  0  0  0  0  0  0  0  0  # atno 8010 bound_to 7997
  139.7128  143.9082  152.2474 H   0  0  0  0  0  0  0  0  0  0  0  0  # atno 10167 bound_to 10162
  156.1584  130.6584  151.0014 H   0  0  0  0  0  0  0  0  0  0  0  0  # atno 10718 bound_to 10713
  154.5256  135.5730  153.6717 H   0  0  0  0  0  0  0  0  0  0  0  0  # atno 10763 bound_to 10752
  152.9927  135.6192  154.2696 H   0  0  0  0  0  0  0  0  0  0  0  0  # atno 10764 bound_to 10752
  154.2620  135.2856  155.2754 H   0  0  0  0  0  0  0  0  0  0  0  0  # atno 10765 bound_to 10752
  140.4830  134.0916  155.7755 H   0  0  0  0  0  0  0  0  0  0  0  0  # atno 11005 bound_to 11000
  145.8152  140.9706  143.0927 LP  0  0  0  0  0  0  0  0  0  0  0  0  # atno 17320 bound_to 7965
  144.6798  139.9972  143.7484 LP  0  0  0  0  0  0  0  0  0  0  0  0  # atno 17321 bound_to 7965
  139.8955  144.6941  150.8722 LP  0  0  0  0  0  0  0  0  0  0  0  0  # atno 17342 bound_to 10162
  140.7737  143.3553  151.1933 LP  0  0  0  0  0  0  0  0  0  0  0  0  # atno 17343 bound_to 10162
  157.6713  131.0860  150.7605 LP  0  0  0  0  0  0  0  0  0  0  0  0  # atno 17370 bound_to 10713
  156.7669  130.4816  149.5426 LP  0  0  0  0  0  0  0  0  0  0  0  0  # atno 17371 bound_to 10713
  141.1522  133.8948  157.2069 LP  0  0  0  0  0  0  0  0  0  0  0  0  # atno 17394 bound_to 11000
  139.9815  135.0096  156.9760 LP  0  0  0  0  0  0  0  0  0  0  0  0  # atno 17395 bound_to 11000

$$$$
