AV-unprocessed.smi:148|AV-procd|sdf|1216|dock9
  -GOLD-   2262018403D 1   1.00000     0.00000
 Structure written by MMmdl.
 63 67  0  0  0  0  0  0  0  0  1 V2000
  150.3498  140.5643  154.5835 O   0  0  0  0  0  0  0  0  0  0  0  0
  149.1575  141.2405  154.2428 C   0  0  0  0  0  0  0  0  0  0  0  0
  148.0515  141.0019  155.2983 C   0  0  2  0  0  0  0  0  0  0  0  0
  148.0806  139.5460  155.8315 C   0  0  0  0  0  0  0  0  0  0  0  0
  147.5386  138.5941  154.8785 N   0  0  0  0  0  0  0  0  0  0  0  0
  147.3518  138.7997  153.5299 C   0  0  0  0  0  0  0  0  0  0  0  0
  146.8290  137.7953  152.8806 N   0  0  0  0  0  0  0  0  0  0  0  0
  146.6446  136.8254  153.8574 C   0  0  0  0  0  0  0  0  0  0  0  0
  146.1007  135.5150  153.8549 C   0  0  0  0  0  0  0  0  0  0  0  0
  145.6029  134.9508  152.7307 N   0  0  0  0  0  0  0  0  0  0  0  0
  146.5962  134.0492  152.1466 C   0  0  0  0  0  0  0  0  0  0  0  0
  146.1612  133.5583  150.7607 C   0  0  0  0  0  0  0  0  0  0  0  0
  144.7813  132.9002  150.8441 C   0  0  0  0  0  0  0  0  0  0  0  0
  143.7679  133.8842  151.4429 C   0  0  0  0  0  0  0  0  0  0  0  0
  144.2272  134.4254  152.8229 C   0  0  2  0  0  0  0  0  0  0  0  0
  143.2289  135.4560  153.4422 C   0  0  1  0  0  0  0  0  0  0  0  0
  143.3181  136.8982  152.9047 C   0  0  0  0  0  0  0  0  0  0  0  0
  141.9103  137.5010  153.0427 C   0  0  0  0  0  0  0  0  0  0  0  0
  141.0422  136.4203  153.6948 C   0  0  0  0  0  0  0  0  0  0  0  0
  141.7371  135.1073  153.3362 C   0  0  2  0  0  0  0  0  0  0  0  0
  141.3662  134.0696  154.2201 O   0  0  0  0  0  0  0  0  0  0  0  0
  146.0828  134.8288  155.0287 N   0  0  0  0  0  0  0  0  0  0  0  0
  146.5543  135.4006  156.1410 C   0  0  0  0  0  0  0  0  0  0  0  0
  147.0732  136.6208  156.2976 N   0  0  0  0  0  0  0  0  0  0  0  0
  147.0987  137.3041  155.1169 C   0  0  0  0  0  0  0  0  0  0  0  0
  146.6537  141.4381  154.7788 C   0  0  2  0  0  0  0  0  0  0  0  0
  146.5818  142.8317  154.1523 C   0  0  0  0  0  0  0  0  0  0  0  0
  145.3252  143.4541  154.7640 C   0  0  0  0  0  0  0  0  0  0  0  0
  144.5798  142.3471  155.2458 O   0  0  0  0  0  0  0  0  0  0  0  0
  145.5151  141.4413  155.8057 C   0  0  0  0  0  0  0  0  0  0  0  0
  150.4120  140.5214  155.5255 H   0  0  0  0  0  0  0  0  0  0  0  0
  149.3638  142.3049  154.1290 H   0  0  0  0  0  0  0  0  0  0  0  0
  148.8542  140.8707  153.2640 H   0  0  0  0  0  0  0  0  0  0  0  0
  148.2799  141.6516  156.1449 H   0  0  0  0  0  0  0  0  0  0  0  0
  149.0954  139.2285  156.0672 H   0  0  0  0  0  0  0  0  0  0  0  0
  147.5121  139.4615  156.7573 H   0  0  0  0  0  0  0  0  0  0  0  0
  147.6093  139.7287  153.0420 H   0  0  0  0  0  0  0  0  0  0  0  0
  147.5578  134.5585  152.0650 H   0  0  0  0  0  0  0  0  0  0  0  0
  146.7442  133.1946  152.8086 H   0  0  0  0  0  0  0  0  0  0  0  0
  146.1309  134.3970  150.0640 H   0  0  0  0  0  0  0  0  0  0  0  0
  146.8918  132.8506  150.3679 H   0  0  0  0  0  0  0  0  0  0  0  0
  144.4557  132.5805  149.8538 H   0  0  0  0  0  0  0  0  0  0  0  0
  144.8356  132.0029  151.4618 H   0  0  0  0  0  0  0  0  0  0  0  0
  143.6214  134.7023  150.7385 H   0  0  0  0  0  0  0  0  0  0  0  0
  142.8101  133.3733  151.5270 H   0  0  0  0  0  0  0  0  0  0  0  0
  144.2648  133.5690  153.4979 H   0  0  0  0  0  0  0  0  0  0  0  0
  143.4276  135.5231  154.5131 H   0  0  0  0  0  0  0  0  0  0  0  0
  144.0508  137.4775  153.4664 H   0  0  0  0  0  0  0  0  0  0  0  0
  143.6256  136.9293  151.8605 H   0  0  0  0  0  0  0  0  0  0  0  0
  141.9141  138.4199  153.6299 H   0  0  0  0  0  0  0  0  0  0  0  0
  141.5185  137.7468  152.0550 H   0  0  0  0  0  0  0  0  0  0  0  0
  141.0451  136.5619  154.7768 H   0  0  0  0  0  0  0  0  0  0  0  0
  140.0053  136.4542  153.3593 H   0  0  0  0  0  0  0  0  0  0  0  0
  141.4593  134.8357  152.3189 H   0  0  0  0  0  0  0  0  0  0  0  0
  142.1121  133.5040  154.3487 H   0  0  0  0  0  0  0  0  0  0  0  0
  146.5043  134.7958  157.0344 H   0  0  0  0  0  0  0  0  0  0  0  0
  146.3550  140.7490  153.9879 H   0  0  0  0  0  0  0  0  0  0  0  0
  147.4593  143.4493  154.3402 H   0  0  0  0  0  0  0  0  0  0  0  0
  146.4774  142.7459  153.0701 H   0  0  0  0  0  0  0  0  0  0  0  0
  145.5871  144.1024  155.6015 H   0  0  0  0  0  0  0  0  0  0  0  0
  144.7528  144.0401  154.0449 H   0  0  0  0  0  0  0  0  0  0  0  0
  145.0772  140.4532  155.9490 H   0  0  0  0  0  0  0  0  0  0  0  0
  145.8278  141.8198  156.7786 H   0  0  0  0  0  0  0  0  0  0  0  0
  1  2  1  0  0  0  0
  1 31  1  0  0  0  0
  2  3  1  0  0  0  0
  2 32  1  0  0  0  0
  2 33  1  0  0  0  0
  3  4  1  0  0  0  0
  3 26  1  0  0  0  0
  3 34  1  0  0  0  0
  4  5  1  0  0  0  0
  4 35  1  0  0  0  0
  4 36  1  0  0  0  0
  5 25  1  0  0  0  0
  5  6  1  0  0  0  0
  6  7  2  0  0  0  0
  6 37  1  0  0  0  0
  7  8  1  0  0  0  0
  8 25  2  0  0  0  0
  8  9  1  0  0  0  0
  9 10  1  0  0  0  0
  9 22  2  0  0  0  0
 10 15  1  0  0  0  0
 10 11  1  0  0  0  0
 11 12  1  0  0  0  0
 11 38  1  0  0  0  0
 11 39  1  0  0  0  0
 12 13  1  0  0  0  0
 12 40  1  0  0  0  0
 12 41  1  0  0  0  0
 13 14  1  0  0  0  0
 13 42  1  0  0  0  0
 13 43  1  0  0  0  0
 14 15  1  0  0  0  0
 14 44  1  0  0  0  0
 14 45  1  0  0  0  0
 15 16  1  0  0  0  0
 15 46  1  0  0  0  0
 16 20  1  0  0  0  0
 16 17  1  0  0  0  0
 16 47  1  0  0  0  0
 17 18  1  0  0  0  0
 17 48  1  0  0  0  0
 17 49  1  0  0  0  0
 18 19  1  0  0  0  0
 18 50  1  0  0  0  0
 18 51  1  0  0  0  0
 19 20  1  0  0  0  0
 19 52  1  0  0  0  0
 19 53  1  0  0  0  0
 20 21  1  0  0  0  0
 20 54  1  0  0  0  0
 21 55  1  0  0  0  0
 22 23  1  0  0  0  0
 23 24  2  0  0  0  0
 23 56  1  0  0  0  0
 24 25  1  0  0  0  0
 26 30  1  0  0  0  0
 26 27  1  0  0  0  0
 26 57  1  0  0  0  0
 27 28  1  0  0  0  0
 27 58  1  0  0  0  0
 27 59  1  0  0  0  0
 28 29  1  0  0  0  0
 28 60  1  0  0  0  0
 28 61  1  0  0  0  0
 29 30  1  0  0  0  0
 30 62  1  0  0  0  0
 30 63  1  0  0  0  0
M  END
> <s_m_source_file>
AV-unprocessed.smi

> <i_m_source_file_index>
148

> <i_lp_mmshare_version>
43012

> <i_f3d_flags>
0

> <s_epik_input>
W0NIMl0xT1tDSDJdW0NIMl1bQ0BIXTFbQ0BIXShbQ0gyXVtPSF0pW0NIMl1uKFtjSF1uMiljKGMyMyluW2NIXW5jM040W0NIMl1bQ0gyXVtDSDJdW0NIMl1bQ0BIXTRbQ0BASF01W0NIMl1bQ0gyXVtDSDJdW0NASF01W09IXQ==

> <s_epik_cmdline>
J2VwaWtfcHl0aG9uJywgJy1waCcsICc3LjAnLCAnLXRuJywgJzgnLCAnLW1hJywgJzIwMCcsICctbWV0YWxfYmluZGluZycsICctaW1hZScsICc8aW5maWxlLm1hZT4nLCAnLW9tYWUnLCAnPG91dGZpbGUubWFlPic=

> <r_lp_tautomer_probability>
1

> <r_epik_Ionization_Penalty>
0.00556303

> <r_epik_Ionization_Penalty_Charging>
0

> <r_epik_Ionization_Penalty_Neutral>
0.00556303

> <r_epik_State_Penalty>
0.00401767

> <r_epik_Charging_Adjusted_Penalty>
0.00401767

> <i_epik_Tot_Q>
0

> <i_epik_Tot_abs_Q>
0

> <r_epik_Metal_State_Penalty>
-0

> <b_epik_Metal_Only>
0

> <s_lp_Force_Field>
OPLS_2005

> <r_lp_Energy>
68.7662

> <b_lp_Chiralities_Consistent>
1

> <s_lp_Variant>
AV-unprocessed.smi:148-15

> <Gold.Version>
5.8.1

> <Gold.Id.Protein>
6NUR|6NUR_protein|mol2

> <Gold.PLP.Fitness>
48.0697

> <Gold.PLP.PLP>
-39.5087

> <Gold.PLP.part.hbond>
-3.9818

> <Gold.PLP.part.metal>
0.0000

> <Gold.PLP.part.buried>
-6.2998

> <Gold.PLP.part.nonpolar>
-30.7885

> <Gold.PLP.part.repulsive>
2.5601

> <Gold.PLP.ligand.clash>
0.0000

> <Gold.PLP.ligand.torsion>
1.1130

> <Gold.PLP.Chemscore.Hbond>
2.9360

> <Gold.PLP.Chemscore.CHOScore>
0.5258

> <Gold.PLP.Chemscore.Metal>
0.0000

> <Gold.Chemscore.Hbonds>
donor molecule, donor type, donor heavy atom, donor atom, acceptor molecule, acceptor atom, score
      L1  H    21    55       P1 10957  0.86
      P1  H  7989  7998       L1     1  0.93
      P1  H 11000 11005       L1    21  0.98
      L1  C     6    37       P1  7957  0.41

> <Gold.PLP.Chemscore.Internal.Correction>
0.4014

> <Gold.Rescore>
     Score         DG    S(hbond)    S(metal)    S(lipo)     H(rot)  DE(clash)    DE(int)     intcor
     11.33     -14.60       2.55        0.00      77.82       3.32       1.69       1.58       ----

> <Gold.Chemscore.Fitness>
11.3250

> <Gold.Chemscore.DG>
-14.6032

> <Gold.Chemscore.ZeroCoef>
-5.4800

> <Gold.Chemscore.Hbond>
2.5502

> <Gold.Chemscore.Metal>
0.0000

> <Gold.Chemscore.Lipo>
77.8249

> <Gold.Chemscore.Internal_Hbond>
0.0000

> <Gold.Chemscore.DEClash>
1.6946

> <Gold.Chemscore.DEInternal>
1.5835

> <Gold.Chemscore.Rot>
3.3203

> <Gold.Chemscore.Internal.Correction>
   9.000000E+99

> <Gold.Chemscore.Hbonds>
donor molecule, donor type, donor heavy atom, donor atom, acceptor molecule, acceptor atom, score
      L1  H    21    55       P1 10957  0.86
      P1  H  7989  7998       L1     1  0.75
      P1  H 11000 11005       L1    21  0.73

> <Gold.Chemscore.Hbond.Weighted>
-8.5177

> <Gold.Chemscore.Metal.Weighted>
-0.0000

> <Gold.Chemscore.Lipo.Weighted>
-9.1055

> <Gold.Chemscore.Internal_Hbond.Weighted>
0.0000

> <Gold.Chemscore.DEClash.Weighted>
1.6946

> <Gold.Chemscore.DEInternal.Weighted>
1.5835

> <Gold.Chemscore.Rot.Weighted>
8.5000

> <Gold.Chemscore.Internal.Correction.Weighted>
   9.000000E+99

> <Gold.Protein.RotatedTorsions>
[ 6907 6896 6895 6894 ] final   29.60 input  -60.11 | X-H torsion
[ 7974 7965 7964 7962 ] final -139.71 input  175.53 | X-H torsion
[ 8008 7997 7996 7995 ] final -156.69 input   59.86 | X-H torsion
[ 10167 10162 10161 10158 ] final -115.22 input  -65.29 | X-H torsion
[ 10718 10713 10712 10709 ] final -171.16 input   66.30 | X-H torsion
[ 10763 10752 10751 10750 ] final   84.26 input  -60.55 | X-H torsion
[ 11005 11000 10999 10996 ] final   23.42 input  -57.11 | X-H torsion

> <Gold.Protein.ActiveResidues>
 VAL166  LYS551  ARG553  GLY616  TRP617  ASP618  TYR619  PRO620  LYS621  CYS622 
 ASP623  PHE694  ASN695  SER759  ASP760  ASP761  ALA762  ILE779  LEU786  VAL792 
 PHE793  MET794  SER795  GLU796  ALA797  LYS798  CYS799  TRP800  GLU811  SER814 

> <Gold.Protein.RotatedAtoms>
  152.0339  134.9751  160.0572 H   0  0  0  0  0  0  0  0  0  0  0  0  # atno 6907 bound_to 6896
  152.1217  133.4352  159.4687 H   0  0  0  0  0  0  0  0  0  0  0  0  # atno 6908 bound_to 6896
  150.6849  134.2446  159.4529 H   0  0  0  0  0  0  0  0  0  0  0  0  # atno 6909 bound_to 6896
  144.8655  140.6286  143.5301 H   0  0  0  0  0  0  0  0  0  0  0  0  # atno 7974 bound_to 7965
  155.7210  140.0790  157.2331 H   0  0  0  0  0  0  0  0  0  0  0  0  # atno 8008 bound_to 7997
  154.4045  140.1613  156.2456 H   0  0  0  0  0  0  0  0  0  0  0  0  # atno 8009 bound_to 7997
  155.9196  140.3398  155.6165 H   0  0  0  0  0  0  0  0  0  0  0  0  # atno 8010 bound_to 7997
  140.0925  143.4687  152.1861 H   0  0  0  0  0  0  0  0  0  0  0  0  # atno 10167 bound_to 10162
  156.7367  130.9327  151.3108 H   0  0  0  0  0  0  0  0  0  0  0  0  # atno 10718 bound_to 10713
  153.1365  135.4661  154.9430 H   0  0  0  0  0  0  0  0  0  0  0  0  # atno 10763 bound_to 10752
  154.7710  135.3159  154.8191 H   0  0  0  0  0  0  0  0  0  0  0  0  # atno 10764 bound_to 10752
  153.8722  135.6902  153.4827 H   0  0  0  0  0  0  0  0  0  0  0  0  # atno 10765 bound_to 10752
  140.3698  134.2035  155.7667 H   0  0  0  0  0  0  0  0  0  0  0  0  # atno 11005 bound_to 11000
  145.4230  139.1561  143.4063 LP  0  0  0  0  0  0  0  0  0  0  0  0  # atno 17320 bound_to 7965
  146.2892  140.4342  142.8746 LP  0  0  0  0  0  0  0  0  0  0  0  0  # atno 17321 bound_to 7965
  139.5717  144.7466  151.3874 LP  0  0  0  0  0  0  0  0  0  0  0  0  # atno 17342 bound_to 10162
  140.7021  143.7606  150.7420 LP  0  0  0  0  0  0  0  0  0  0  0  0  # atno 17343 bound_to 10162
  157.6836  130.9163  150.0329 LP  0  0  0  0  0  0  0  0  0  0  0  0  # atno 17370 bound_to 10713
  156.1492  130.3642  149.9464 LP  0  0  0  0  0  0  0  0  0  0  0  0  # atno 17371 bound_to 10713
  141.1958  133.8097  157.0699 LP  0  0  0  0  0  0  0  0  0  0  0  0  # atno 17394 bound_to 11000
  140.0561  134.9780  157.1222 LP  0  0  0  0  0  0  0  0  0  0  0  0  # atno 17395 bound_to 11000

$$$$
