AV-unprocessed.smi:1461|AV-procd|sdf|5930|dock3
  -GOLD-   22720 6 13D 1   1.00000     0.00000
 Structure written by MMmdl.
 41 42  0  0  0  0  0  0  0  0  1 V2000
  151.7209  139.6278  155.4109 C   0  0  0  0  0  0  0  0  0  0  0  0
  150.9924  138.5785  154.5525 C   0  0  0  0  0  0  0  0  0  0  0  0
  149.5234  138.9769  154.3492 C   0  0  0  0  0  0  0  0  0  0  0  0
  151.0923  137.1528  155.1348 C   0  0  0  0  0  0  0  0  0  0  0  0
  150.1803  136.2209  154.4776 N   0  0  0  0  0  0  0  0  0  0  0  0
  150.0317  134.9257  154.7903 C   0  0  0  0  0  0  0  0  0  0  0  0
  150.6464  134.3652  155.6980 O   0  0  0  0  0  0  0  0  0  0  0  0
  149.1530  134.3274  153.9696 N   0  0  0  0  0  0  0  0  0  0  0  0
  148.8171  132.9461  153.9190 C   0  0  0  0  0  0  0  0  0  0  0  0
  149.4945  131.9976  154.7229 C   0  0  0  0  0  0  0  0  0  0  0  0
  149.0859  130.6533  154.6956 C   0  0  0  0  0  0  0  0  0  0  0  0
  148.0001  130.3063  153.8747 C   0  0  0  0  0  0  0  0  0  0  0  0
  147.3363  131.1996  153.1140 N   0  0  0  0  0  0  0  0  0  0  0  0
  147.7278  132.4980  153.1176 C   0  0  0  0  0  0  0  0  0  0  0  0
  147.0062  133.3849  152.2851 N   0  0  0  0  0  0  0  0  0  0  0  0
  146.3296  134.5467  152.8516 C   0  0  0  0  0  0  0  0  0  0  0  0
  145.3763  135.0209  151.7587 C   0  0  0  0  0  0  0  0  0  0  0  0
  144.9352  133.7076  151.1200 C   0  0  0  0  0  0  0  0  0  0  0  0
  146.1781  132.8174  151.2244 C   0  0  0  0  0  0  0  0  0  0  0  0
  151.3285  139.6473  156.4281 H   0  0  0  0  0  0  0  0  0  0  0  0
  151.6049  140.6271  154.9906 H   0  0  0  0  0  0  0  0  0  0  0  0
  152.7907  139.4277  155.4698 H   0  0  0  0  0  0  0  0  0  0  0  0
  151.4654  138.5727  153.5695 H   0  0  0  0  0  0  0  0  0  0  0  0
  148.9867  139.0070  155.2978 H   0  0  0  0  0  0  0  0  0  0  0  0
  149.0095  138.2692  153.6984 H   0  0  0  0  0  0  0  0  0  0  0  0
  149.4420  139.9621  153.8897 H   0  0  0  0  0  0  0  0  0  0  0  0
  152.1224  136.7956  155.0882 H   0  0  0  0  0  0  0  0  0  0  0  0
  150.8286  137.1708  156.1927 H   0  0  0  0  0  0  0  0  0  0  0  0
  149.6324  136.5889  153.7138 H   0  0  0  0  0  0  0  0  0  0  0  0
  148.7952  134.8895  153.2111 H   0  0  0  0  0  0  0  0  0  0  0  0
  150.3052  132.2859  155.3751 H   0  0  0  0  0  0  0  0  0  0  0  0
  149.5847  129.9095  155.2992 H   0  0  0  0  0  0  0  0  0  0  0  0
  147.6508  129.2853  153.8315 H   0  0  0  0  0  0  0  0  0  0  0  0
  145.7559  134.2664  153.7360 H   0  0  0  0  0  0  0  0  0  0  0  0
  147.0409  135.3229  153.1345 H   0  0  0  0  0  0  0  0  0  0  0  0
  144.5444  135.6098  152.1456 H   0  0  0  0  0  0  0  0  0  0  0  0
  145.9149  135.6282  151.0300 H   0  0  0  0  0  0  0  0  0  0  0  0
  144.1225  133.2723  151.7031 H   0  0  0  0  0  0  0  0  0  0  0  0
  144.5858  133.8279  150.0942 H   0  0  0  0  0  0  0  0  0  0  0  0
  146.7354  132.8496  150.2880 H   0  0  0  0  0  0  0  0  0  0  0  0
  145.9088  131.7791  151.4229 H   0  0  0  0  0  0  0  0  0  0  0  0
  1  2  1  0  0  0  0
  1 20  1  0  0  0  0
  1 21  1  0  0  0  0
  1 22  1  0  0  0  0
  2  3  1  0  0  0  0
  2  4  1  0  0  0  0
  2 23  1  0  0  0  0
  3 24  1  0  0  0  0
  3 25  1  0  0  0  0
  3 26  1  0  0  0  0
  4  5  1  0  0  0  0
  4 27  1  0  0  0  0
  4 28  1  0  0  0  0
  5  6  1  0  0  0  0
  5 29  1  0  0  0  0
  6  7  2  0  0  0  0
  6  8  1  0  0  0  0
  8  9  1  0  0  0  0
  8 30  1  0  0  0  0
  9 14  1  0  0  0  0
  9 10  2  0  0  0  0
 10 11  1  0  0  0  0
 10 31  1  0  0  0  0
 11 12  2  0  0  0  0
 11 32  1  0  0  0  0
 12 13  1  0  0  0  0
 12 33  1  0  0  0  0
 13 14  2  0  0  0  0
 14 15  1  0  0  0  0
 15 19  1  0  0  0  0
 15 16  1  0  0  0  0
 16 17  1  0  0  0  0
 16 34  1  0  0  0  0
 16 35  1  0  0  0  0
 17 18  1  0  0  0  0
 17 36  1  0  0  0  0
 17 37  1  0  0  0  0
 18 19  1  0  0  0  0
 18 38  1  0  0  0  0
 18 39  1  0  0  0  0
 19 40  1  0  0  0  0
 19 41  1  0  0  0  0
M  END
> <s_m_source_file>
AV-unprocessed.smi

> <i_m_source_file_index>
1461

> <i_lp_mmshare_version>
43012

> <i_f3d_flags>
0

> <s_epik_input>
W0NIM11bQ0hdKFtDSDNdKVtDSDJdW05IXUMoPU8pW05IXWMxW2NIXVtjSF1bY0hdbmMxTjJbQ0gyXVtDSDJdW0NIMl1bQ0gyXTI=

> <s_epik_cmdline>
J2VwaWtfcHl0aG9uJywgJy1waCcsICc3LjAnLCAnLXRuJywgJzgnLCAnLW1hJywgJzIwMCcsICctbWV0YWxfYmluZGluZycsICctaW1hZScsICc8aW5maWxlLm1hZT4nLCAnLW9tYWUnLCAnPG91dGZpbGUubWFlPic=

> <r_lp_tautomer_probability>
1

> <r_epik_Ionization_Penalty>
0.101487

> <r_epik_Ionization_Penalty_Charging>
0

> <r_epik_Ionization_Penalty_Neutral>
0.101487

> <r_epik_State_Penalty>
0.0909146

> <r_epik_Charging_Adjusted_Penalty>
0.0909146

> <i_epik_Tot_Q>
0

> <i_epik_Tot_abs_Q>
0

> <r_epik_Metal_State_Penalty>
0.0775598

> <b_epik_Metal_Only>
0

> <s_lp_Force_Field>
OPLS_2005

> <r_lp_Energy>
32.2638

> <b_lp_Chiralities_Consistent>
1

> <s_lp_Variant>
AV-unprocessed.smi:1461-1

> <Gold.Version>
5.8.1

> <Gold.Id.Protein>
6NUR|6NUR_protein|mol2

> <Gold.PLP.Fitness>
39.7849

> <Gold.PLP.PLP>
-34.4207

> <Gold.PLP.part.hbond>
-2.9273

> <Gold.PLP.part.metal>
0.0000

> <Gold.PLP.part.buried>
-2.0090

> <Gold.PLP.part.nonpolar>
-29.7247

> <Gold.PLP.part.repulsive>
0.3952

> <Gold.PLP.ligand.clash>
0.0000

> <Gold.PLP.ligand.torsion>
0.3422

> <Gold.PLP.Chemscore.Hbond>
1.8960

> <Gold.PLP.Chemscore.CHOScore>
0.0000

> <Gold.PLP.Chemscore.Metal>
0.0000

> <Gold.Chemscore.Hbonds>
donor molecule, donor type, donor heavy atom, donor atom, acceptor molecule, acceptor atom, score
      L1  H     5    29       P1  7948  0.88
      L1  H     8    30       P1  7948  1.00

> <Gold.PLP.Chemscore.Internal.Correction>
0.3604

> <Gold.Rescore>
     Score         DG    S(hbond)    S(metal)    S(lipo)     H(rot)  DE(clash)    DE(int)     intcor
     11.45     -14.21       1.34        0.00      65.34       1.32       0.09       2.67       ----

> <Gold.Chemscore.Fitness>
11.4454

> <Gold.Chemscore.DG>
-14.2079

> <Gold.Chemscore.ZeroCoef>
-5.4800

> <Gold.Chemscore.Hbond>
1.3395

> <Gold.Chemscore.Metal>
0.0000

> <Gold.Chemscore.Lipo>
65.3448

> <Gold.Chemscore.Internal_Hbond>
0.0000

> <Gold.Chemscore.DEClash>
0.0877

> <Gold.Chemscore.DEInternal>
2.6748

> <Gold.Chemscore.Rot>
1.3248

> <Gold.Chemscore.Internal.Correction>
   9.000000E+99

> <Gold.Chemscore.Hbonds>
donor molecule, donor type, donor heavy atom, donor atom, acceptor molecule, acceptor atom, score
      L1  H     5    29       P1  7948  0.55
      L1  H     8    30       P1  7948  0.33

> <Gold.Chemscore.Hbond.Weighted>
-4.4741

> <Gold.Chemscore.Metal.Weighted>
-0.0000

> <Gold.Chemscore.Lipo.Weighted>
-7.6453

> <Gold.Chemscore.Internal_Hbond.Weighted>
0.0000

> <Gold.Chemscore.DEClash.Weighted>
0.0877

> <Gold.Chemscore.DEInternal.Weighted>
2.6748

> <Gold.Chemscore.Rot.Weighted>
3.3915

> <Gold.Chemscore.Internal.Correction.Weighted>
   9.000000E+99

> <Gold.Protein.RotatedTorsions>
[ 6907 6896 6895 6894 ] final  -13.66 input  -60.11 | X-H torsion
[ 7974 7965 7964 7962 ] final -157.34 input  175.53 | X-H torsion
[ 8008 7997 7996 7995 ] final -147.66 input   59.86 | X-H torsion
[ 10167 10162 10161 10158 ] final   42.25 input  -65.29 | X-H torsion
[ 10718 10713 10712 10709 ] final -158.16 input   66.30 | X-H torsion
[ 10763 10752 10751 10750 ] final -147.10 input  -60.55 | X-H torsion
[ 11005 11000 10999 10996 ] final  -16.70 input  -57.11 | X-H torsion

> <Gold.Protein.ActiveResidues>
 VAL166  LYS551  ARG553  GLY616  TRP617  ASP618  TYR619  PRO620  LYS621  CYS622 
 ASP623  PHE694  ASN695  SER759  ASP760  ASP761  ALA762  ILE779  LEU786  VAL792 
 PHE793  MET794  SER795  GLU796  ALA797  LYS798  CYS799  TRP800  GLU811  SER814 

> <Gold.Protein.RotatedAtoms>
  151.3514  135.0885  159.9404 H   0  0  0  0  0  0  0  0  0  0  0  0  # atno 6907 bound_to 6896
  152.5186  133.9348  159.7608 H   0  0  0  0  0  0  0  0  0  0  0  0  # atno 6908 bound_to 6896
  150.9725  133.6276  159.2765 H   0  0  0  0  0  0  0  0  0  0  0  0  # atno 6909 bound_to 6896
  144.7552  140.3982  143.6017 H   0  0  0  0  0  0  0  0  0  0  0  0  # atno 7974 bound_to 7965
  155.5791  140.0641  157.2787 H   0  0  0  0  0  0  0  0  0  0  0  0  # atno 8008 bound_to 7997
  154.4338  140.1855  156.1004 H   0  0  0  0  0  0  0  0  0  0  0  0  # atno 8009 bound_to 7997
  156.0319  140.3305  155.7152 H   0  0  0  0  0  0  0  0  0  0  0  0  # atno 8010 bound_to 7997
  140.3562  144.2287  150.6141 H   0  0  0  0  0  0  0  0  0  0  0  0  # atno 10167 bound_to 10162
  156.5503  130.8602  151.2778 H   0  0  0  0  0  0  0  0  0  0  0  0  # atno 10718 bound_to 10713
  154.8303  135.3369  154.6765 H   0  0  0  0  0  0  0  0  0  0  0  0  # atno 10763 bound_to 10752
  153.7386  135.6947  153.4977 H   0  0  0  0  0  0  0  0  0  0  0  0  # atno 10764 bound_to 10752
  153.2260  135.4432  155.0494 H   0  0  0  0  0  0  0  0  0  0  0  0  # atno 10765 bound_to 10752
  140.8094  133.8152  155.9548 H   0  0  0  0  0  0  0  0  0  0  0  0  # atno 11005 bound_to 11000
  145.6803  139.1617  143.2704 LP  0  0  0  0  0  0  0  0  0  0  0  0  # atno 17320 bound_to 7965
  146.1554  140.6865  142.9302 LP  0  0  0  0  0  0  0  0  0  0  0  0  # atno 17321 bound_to 7965
  140.5171  143.2275  151.8446 LP  0  0  0  0  0  0  0  0  0  0  0  0  # atno 17342 bound_to 10162
  139.4820  144.4881  151.9221 LP  0  0  0  0  0  0  0  0  0  0  0  0  # atno 17343 bound_to 10162
  157.7389  130.9821  150.2278 LP  0  0  0  0  0  0  0  0  0  0  0  0  # atno 17370 bound_to 10713
  156.2890  130.3743  149.7860 LP  0  0  0  0  0  0  0  0  0  0  0  0  # atno 17371 bound_to 10713
  140.9213  134.2138  157.4924 LP  0  0  0  0  0  0  0  0  0  0  0  0  # atno 17394 bound_to 11000
  139.8715  134.9793  156.5033 LP  0  0  0  0  0  0  0  0  0  0  0  0  # atno 17395 bound_to 11000

$$$$
