AV-unprocessed.smi:2538|AV-procd|sdf|9981|dock10
  -GOLD-   2272014 23D 1   1.00000     0.00000
 Structure written by MMmdl.
 48 49  0  0  0  0  0  0  0  0  1 V2000
  153.6104  142.1766  161.9568 C   0  0  0  0  0  0  0  0  0  0  0  0
  152.9563  142.0506  160.5921 C   0  0  0  0  0  0  0  0  0  0  0  0
  153.1724  140.8785  159.8327 C   0  0  0  0  0  0  0  0  0  0  0  0
  152.5834  140.7218  158.5590 C   0  0  0  0  0  0  0  0  0  0  0  0
  152.6582  139.6750  157.6560 N   0  0  0  0  0  0  0  0  0  0  0  0
  151.8971  140.1236  156.6620 C   0  0  0  0  0  0  0  0  0  0  0  0
  151.3364  141.3385  156.8155 N   0  0  0  0  0  0  0  0  0  0  0  0
  150.4715  142.0330  155.8789 C   0  0  0  0  0  0  0  0  0  0  0  0
  149.1835  141.2430  155.5766 C   0  0  2  0  0  0  0  0  0  0  0  0
  148.3165  142.0794  154.8356 O   0  0  0  0  0  0  0  0  0  0  0  0
  148.4627  140.7997  156.8681 C   0  0  0  0  0  0  0  0  0  0  0  0
  147.7454  141.8994  157.5416 N   0  0  0  0  0  0  0  0  0  0  0  0
  148.5483  142.7334  158.4458 C   0  0  0  0  0  0  0  0  0  0  0  0
  146.0311  141.7982  157.8060 S   0  0  0  0  0  0  0  0  0  0  0  0
  145.5329  140.7064  156.9547 O   0  0  0  0  0  0  0  0  0  0  0  0
  145.8091  141.7470  159.2596 O   0  0  0  0  0  0  0  0  0  0  0  0
  145.3841  143.4100  157.1412 C   0  0  0  0  0  0  0  0  0  0  0  0
  144.6775  144.2064  158.2474 C   0  0  0  0  0  0  0  0  0  0  0  0
  144.4568  143.1706  155.9410 C   0  0  0  0  0  0  0  0  0  0  0  0
  151.7662  141.7786  158.0620 C   0  0  0  0  0  0  0  0  0  0  0  0
  151.5436  142.9498  158.8076 C   0  0  0  0  0  0  0  0  0  0  0  0
  152.1382  143.0892  160.0792 C   0  0  0  0  0  0  0  0  0  0  0  0
  151.8898  144.3563  160.8780 C   0  0  0  0  0  0  0  0  0  0  0  0
  154.2540  141.3227  162.1702 H   0  0  0  0  0  0  0  0  0  0  0  0
  152.8528  142.2298  162.7391 H   0  0  0  0  0  0  0  0  0  0  0  0
  154.2241  143.0763  162.0067 H   0  0  0  0  0  0  0  0  0  0  0  0
  153.7942  140.0867  160.2234 H   0  0  0  0  0  0  0  0  0  0  0  0
  151.7347  139.5338  155.7718 H   0  0  0  0  0  0  0  0  0  0  0  0
  150.2253  143.0046  156.3091 H   0  0  0  0  0  0  0  0  0  0  0  0
  151.0283  142.2287  154.9612 H   0  0  0  0  0  0  0  0  0  0  0  0
  149.4493  140.3827  154.9639 H   0  0  0  0  0  0  0  0  0  0  0  0
  148.5299  142.9797  155.0273 H   0  0  0  0  0  0  0  0  0  0  0  0
  147.7244  140.0347  156.6253 H   0  0  0  0  0  0  0  0  0  0  0  0
  149.1492  140.3140  157.5625 H   0  0  0  0  0  0  0  0  0  0  0  0
  148.6284  142.2674  159.4277 H   0  0  0  0  0  0  0  0  0  0  0  0
  148.0841  143.7118  158.5690 H   0  0  0  0  0  0  0  0  0  0  0  0
  149.5518  142.8854  158.0479 H   0  0  0  0  0  0  0  0  0  0  0  0
  146.2363  143.9935  156.8005 H   0  0  0  0  0  0  0  0  0  0  0  0
  144.3067  145.1586  157.8676 H   0  0  0  0  0  0  0  0  0  0  0  0
  145.3544  144.4265  159.0727 H   0  0  0  0  0  0  0  0  0  0  0  0
  143.8280  143.6541  158.6498 H   0  0  0  0  0  0  0  0  0  0  0  0
  144.1146  144.1144  155.5160 H   0  0  0  0  0  0  0  0  0  0  0  0
  143.5753  142.5961  156.2278 H   0  0  0  0  0  0  0  0  0  0  0  0
  144.9718  142.6231  155.1511 H   0  0  0  0  0  0  0  0  0  0  0  0
  150.9188  143.7331  158.4041 H   0  0  0  0  0  0  0  0  0  0  0  0
  151.1942  145.0205  160.3644 H   0  0  0  0  0  0  0  0  0  0  0  0
  152.8226  144.8995  161.0299 H   0  0  0  0  0  0  0  0  0  0  0  0
  151.4647  144.1177  161.8530 H   0  0  0  0  0  0  0  0  0  0  0  0
  1  2  1  0  0  0  0
  1 24  1  0  0  0  0
  1 25  1  0  0  0  0
  1 26  1  0  0  0  0
  2 22  1  0  0  0  0
  2  3  2  0  0  0  0
  3  4  1  0  0  0  0
  3 27  1  0  0  0  0
  4 20  2  0  0  0  0
  4  5  1  0  0  0  0
  5  6  2  0  0  0  0
  6  7  1  0  0  0  0
  6 28  1  0  0  0  0
  7  8  1  0  0  0  0
  7 20  1  0  0  0  0
  8  9  1  0  0  0  0
  8 29  1  0  0  0  0
  8 30  1  0  0  0  0
  9 10  1  0  0  0  0
  9 11  1  0  0  0  0
  9 31  1  0  0  0  0
 10 32  1  0  0  0  0
 11 12  1  0  0  0  0
 11 33  1  0  0  0  0
 11 34  1  0  0  0  0
 12 13  1  0  0  0  0
 12 14  1  0  0  0  0
 13 35  1  0  0  0  0
 13 36  1  0  0  0  0
 13 37  1  0  0  0  0
 14 15  2  0  0  0  0
 14 16  2  0  0  0  0
 14 17  1  0  0  0  0
 17 18  1  0  0  0  0
 17 19  1  0  0  0  0
 17 38  1  0  0  0  0
 18 39  1  0  0  0  0
 18 40  1  0  0  0  0
 18 41  1  0  0  0  0
 19 42  1  0  0  0  0
 19 43  1  0  0  0  0
 19 44  1  0  0  0  0
 20 21  1  0  0  0  0
 21 22  2  0  0  0  0
 21 45  1  0  0  0  0
 22 23  1  0  0  0  0
 23 46  1  0  0  0  0
 23 47  1  0  0  0  0
 23 48  1  0  0  0  0
M  END
> <s_m_source_file>
AV-unprocessed.smi

> <i_m_source_file_index>
2538

> <i_lp_mmshare_version>
43012

> <i_f3d_flags>
0

> <s_epik_input>
W0NIM11jKFtjSF0xKWMoW0NIM10pW2NIXWMoYzEyKW4oW2NIXW4yKVtDSDJdW0NASF0oW09IXSlbQ0gyXU4oW0NIM10pUyg9TykoPU8pW0NIXShbQ0gzXSlbQ0gzXQ==

> <s_epik_cmdline>
J2VwaWtfcHl0aG9uJywgJy1waCcsICc3LjAnLCAnLXRuJywgJzgnLCAnLW1hJywgJzIwMCcsICctbWV0YWxfYmluZGluZycsICctaW1hZScsICc8aW5maWxlLm1hZT4nLCAnLW9tYWUnLCAnPG91dGZpbGUubWFlPic=

> <r_epik_Ionization_Penalty>
0.105018

> <r_epik_Ionization_Penalty_Charging>
0

> <r_epik_Ionization_Penalty_Neutral>
0.105018

> <r_epik_State_Penalty>
0.094904

> <r_epik_Charging_Adjusted_Penalty>
0.094904

> <i_epik_Tot_Q>
0

> <i_epik_Tot_abs_Q>
0

> <r_epik_Metal_State_Penalty>
0.000102919

> <b_epik_Metal_Only>
0

> <s_lp_Force_Field>
OPLS_2005

> <r_lp_Energy>
2.81525

> <b_lp_Chiralities_Consistent>
1

> <s_lp_Variant>
AV-unprocessed.smi:2538-1

> <Gold.Version>
5.8.1

> <Gold.Id.Protein>
6NUR|6NUR_protein|mol2

> <Gold.PLP.Fitness>
49.7403

> <Gold.PLP.PLP>
-41.3162

> <Gold.PLP.part.hbond>
-3.0000

> <Gold.PLP.part.metal>
0.0000

> <Gold.PLP.part.buried>
-5.4485

> <Gold.PLP.part.nonpolar>
-32.6867

> <Gold.PLP.part.repulsive>
0.0050

> <Gold.PLP.ligand.clash>
0.0000

> <Gold.PLP.ligand.torsion>
1.5006

> <Gold.PLP.Chemscore.Hbond>
2.9500

> <Gold.PLP.Chemscore.CHOScore>
0.0000

> <Gold.PLP.Chemscore.Metal>
0.0000

> <Gold.Chemscore.Hbonds>
donor molecule, donor type, donor heavy atom, donor atom, acceptor molecule, acceptor atom, score
      L1  H    10    32       P1  8028  1.00
      P1  H  6934  6946       L1    16  1.00
      P1  H  7997  8010       L1     5  0.80

> <Gold.PLP.Chemscore.Internal.Correction>
2.5752

> <Gold.Rescore>
     Score         DG    S(hbond)    S(metal)    S(lipo)     H(rot)  DE(clash)    DE(int)     intcor
     17.09     -18.82       2.11        0.00     103.83       2.29       0.25       1.48       ----

> <Gold.Chemscore.Fitness>
17.0880

> <Gold.Chemscore.DG>
-18.8174

> <Gold.Chemscore.ZeroCoef>
-5.4800

> <Gold.Chemscore.Hbond>
2.1125

> <Gold.Chemscore.Metal>
0.0000

> <Gold.Chemscore.Lipo>
103.8342

> <Gold.Chemscore.Internal_Hbond>
0.0000

> <Gold.Chemscore.DEClash>
0.2471

> <Gold.Chemscore.DEInternal>
1.4823

> <Gold.Chemscore.Rot>
2.2917

> <Gold.Chemscore.Internal.Correction>
   9.000000E+99

> <Gold.Chemscore.Hbonds>
donor molecule, donor type, donor heavy atom, donor atom, acceptor molecule, acceptor atom, score
      L1  H    10    32       P1  8028  1.00
      P1  H  6934  6946       L1    16  0.90
      P1  H  7997  8010       L1     5  0.03

> <Gold.Chemscore.Hbond.Weighted>
-7.0557

> <Gold.Chemscore.Metal.Weighted>
-0.0000

> <Gold.Chemscore.Lipo.Weighted>
-12.1486

> <Gold.Chemscore.Internal_Hbond.Weighted>
0.0000

> <Gold.Chemscore.DEClash.Weighted>
0.2471

> <Gold.Chemscore.DEInternal.Weighted>
1.4823

> <Gold.Chemscore.Rot.Weighted>
5.8669

> <Gold.Chemscore.Internal.Correction.Weighted>
   9.000000E+99

> <Gold.Protein.RotatedTorsions>
[ 6907 6896 6895 6894 ] final  176.01 input  -60.11 | X-H torsion
[ 7974 7965 7964 7962 ] final  -38.25 input  175.53 | X-H torsion
[ 8008 7997 7996 7995 ] final   52.71 input   59.86 | X-H torsion
[ 10167 10162 10161 10158 ] final  107.10 input  -65.29 | X-H torsion
[ 10718 10713 10712 10709 ] final -118.77 input   66.30 | X-H torsion
[ 10763 10752 10751 10750 ] final   42.19 input  -60.55 | X-H torsion
[ 11005 11000 10999 10996 ] final -143.47 input  -57.11 | X-H torsion

> <Gold.Protein.ActiveResidues>
 VAL166  LYS551  ARG553  GLY616  TRP617  ASP618  TYR619  PRO620  LYS621  CYS622 
 ASP623  PHE694  ASN695  SER759  ASP760  ASP761  ALA762  ILE779  LEU786  VAL792 
 PHE793  MET794  SER795  GLU796  ALA797  LYS798  CYS799  TRP800  GLU811  SER814 

> <Gold.Protein.RotatedAtoms>
  151.7270  133.3316  159.3329 H   0  0  0  0  0  0  0  0  0  0  0  0  # atno 6907 bound_to 6896
  150.7629  134.6397  159.6240 H   0  0  0  0  0  0  0  0  0  0  0  0  # atno 6908 bound_to 6896
  152.3616  134.6866  160.0257 H   0  0  0  0  0  0  0  0  0  0  0  0  # atno 6909 bound_to 6896
  146.0503  140.6489  142.9045 H   0  0  0  0  0  0  0  0  0  0  0  0  # atno 7974 bound_to 7965
  155.4563  140.3460  155.4307 H   0  0  0  0  0  0  0  0  0  0  0  0  # atno 8008 bound_to 7997
  156.1189  140.1481  156.9263 H   0  0  0  0  0  0  0  0  0  0  0  0  # atno 8009 bound_to 7997
  154.4809  140.0870  156.7353 H   0  0  0  0  0  0  0  0  0  0  0  0  # atno 8010 bound_to 7997
  139.6954  144.7102  151.1276 H   0  0  0  0  0  0  0  0  0  0  0  0  # atno 10167 bound_to 10162
  156.1131  130.6264  150.9333 H   0  0  0  0  0  0  0  0  0  0  0  0  # atno 10718 bound_to 10713
  152.9889  135.6139  154.2909 H   0  0  0  0  0  0  0  0  0  0  0  0  # atno 10763 bound_to 10752
  154.2634  135.2781  155.2770 H   0  0  0  0  0  0  0  0  0  0  0  0  # atno 10764 bound_to 10752
  154.5185  135.5821  153.6719 H   0  0  0  0  0  0  0  0  0  0  0  0  # atno 10765 bound_to 10752
  140.8122  134.2731  157.4936 H   0  0  0  0  0  0  0  0  0  0  0  0  # atno 11005 bound_to 11000
  144.7119  140.4071  143.7074 LP  0  0  0  0  0  0  0  0  0  0  0  0  # atno 17320 bound_to 7965
  145.6735  139.1604  143.2741 LP  0  0  0  0  0  0  0  0  0  0  0  0  # atno 17321 bound_to 7965
  140.7695  143.5499  150.9217 LP  0  0  0  0  0  0  0  0  0  0  0  0  # atno 17342 bound_to 10162
  139.9178  143.6642  152.3103 LP  0  0  0  0  0  0  0  0  0  0  0  0  # atno 17343 bound_to 10162
  157.6313  131.0921  150.8435 LP  0  0  0  0  0  0  0  0  0  0  0  0  # atno 17370 bound_to 10713
  156.8543  130.5091  149.5309 LP  0  0  0  0  0  0  0  0  0  0  0  0  # atno 17371 bound_to 10713
  139.8713  134.9489  156.4011 LP  0  0  0  0  0  0  0  0  0  0  0  0  # atno 17394 bound_to 11000
  140.9186  133.7661  155.9878 LP  0  0  0  0  0  0  0  0  0  0  0  0  # atno 17395 bound_to 11000

$$$$
