AV-unprocessed.smi:1211|AV-procd|sdf|5078|dock4
  -GOLD-   22720 4123D 1   1.00000     0.00000
 Structure written by MMmdl.
 47 49  0  0  0  0  0  0  0  0  1 V2000
  147.5076  132.8824  152.5416 C   0  0  0  0  0  0  0  0  0  0  0  0
  146.3140  133.0973  151.6250 C   0  0  0  0  0  0  0  0  0  0  0  0
  145.6950  131.9801  151.0249 C   0  0  0  0  0  0  0  0  0  0  0  0
  144.5910  132.1801  150.1785 C   0  0  0  0  0  0  0  0  0  0  0  0
  144.1492  133.4975  149.9680 C   0  0  0  0  0  0  0  0  0  0  0  0
  144.7344  134.5707  150.5374 N   0  0  0  0  0  0  0  0  0  0  0  0
  145.8019  134.3951  151.3563 C   0  0  0  0  0  0  0  0  0  0  0  0
  146.4714  135.4802  151.9887 N   0  0  0  0  0  0  0  0  0  0  0  0
  145.9564  136.4303  152.7888 C   0  0  0  0  0  0  0  0  0  0  0  0
  144.7756  136.5202  153.1260 O   0  0  0  0  0  0  0  0  0  0  0  0
  146.9035  137.2870  153.1897 N   0  0  0  0  0  0  0  0  0  0  0  0
  146.6761  138.4208  154.0801 C   0  0  0  0  0  0  0  0  0  0  0  0
  148.0014  139.1843  154.4005 C   0  0  1  0  0  0  0  0  0  0  0  0
  149.1462  138.2250  154.4742 N   0  0  0  0  0  0  0  0  0  0  0  0
  150.4732  138.8146  154.7035 C   0  0  0  0  0  0  0  0  0  0  0  0
  151.5945  137.7609  154.6787 C   0  0  0  0  0  0  0  0  0  0  0  0
  151.3269  136.7482  155.6390 O   0  0  0  0  0  0  0  0  0  0  0  0
  150.0841  136.1007  155.4027 C   0  0  0  0  0  0  0  0  0  0  0  0
  148.9474  137.1353  155.4396 C   0  0  0  0  0  0  0  0  0  0  0  0
  148.1834  140.2821  153.3120 C   0  0  0  0  0  0  0  0  0  0  0  0
  147.1475  141.3904  153.5318 C   0  0  0  0  0  0  0  0  0  0  0  0
  146.8438  141.5011  155.3110 S   0  0  0  0  0  0  0  0  0  0  0  0
  147.7921  140.0040  155.6993 C   0  0  0  0  0  0  0  0  0  0  0  0
  147.7604  131.8248  152.6225 H   0  0  0  0  0  0  0  0  0  0  0  0
  147.2909  133.2531  153.5440 H   0  0  0  0  0  0  0  0  0  0  0  0
  148.3829  133.4078  152.1589 H   0  0  0  0  0  0  0  0  0  0  0  0
  146.0595  130.9802  151.2092 H   0  0  0  0  0  0  0  0  0  0  0  0
  144.0957  131.3460  149.7038 H   0  0  0  0  0  0  0  0  0  0  0  0
  143.3041  133.6953  149.3255 H   0  0  0  0  0  0  0  0  0  0  0  0
  147.4628  135.5374  151.8096 H   0  0  0  0  0  0  0  0  0  0  0  0
  147.8511  137.1426  152.8727 H   0  0  0  0  0  0  0  0  0  0  0  0
  145.9366  139.0768  153.6216 H   0  0  0  0  0  0  0  0  0  0  0  0
  146.1907  138.0650  154.9888 H   0  0  0  0  0  0  0  0  0  0  0  0
  150.7179  139.5419  153.9333 H   0  0  0  0  0  0  0  0  0  0  0  0
  150.5035  139.3350  155.6599 H   0  0  0  0  0  0  0  0  0  0  0  0
  151.6853  137.3166  153.6863 H   0  0  0  0  0  0  0  0  0  0  0  0
  152.5534  138.2249  154.9096 H   0  0  0  0  0  0  0  0  0  0  0  0
  150.1076  135.5876  154.4400 H   0  0  0  0  0  0  0  0  0  0  0  0
  149.9285  135.3398  156.1674 H   0  0  0  0  0  0  0  0  0  0  0  0
  148.8695  137.5411  156.4489 H   0  0  0  0  0  0  0  0  0  0  0  0
  148.0208  136.6006  155.2437 H   0  0  0  0  0  0  0  0  0  0  0  0
  149.1486  140.7743  153.4041 H   0  0  0  0  0  0  0  0  0  0  0  0
  148.1370  139.8844  152.2978 H   0  0  0  0  0  0  0  0  0  0  0  0
  147.4899  142.3481  153.1396 H   0  0  0  0  0  0  0  0  0  0  0  0
  146.2106  141.1520  153.0281 H   0  0  0  0  0  0  0  0  0  0  0  0
  147.2904  139.4319  156.4804 H   0  0  0  0  0  0  0  0  0  0  0  0
  148.7395  140.3429  156.1152 H   0  0  0  0  0  0  0  0  0  0  0  0
  1  2  1  0  0  0  0
  1 24  1  0  0  0  0
  1 25  1  0  0  0  0
  1 26  1  0  0  0  0
  2  7  1  0  0  0  0
  2  3  2  0  0  0  0
  3  4  1  0  0  0  0
  3 27  1  0  0  0  0
  4  5  2  0  0  0  0
  4 28  1  0  0  0  0
  5  6  1  0  0  0  0
  5 29  1  0  0  0  0
  6  7  2  0  0  0  0
  7  8  1  0  0  0  0
  8  9  1  0  0  0  0
  8 30  1  0  0  0  0
  9 10  2  0  0  0  0
  9 11  1  0  0  0  0
 11 12  1  0  0  0  0
 11 31  1  0  0  0  0
 12 13  1  0  0  0  0
 12 32  1  0  0  0  0
 12 33  1  0  0  0  0
 13 23  1  0  0  0  0
 13 14  1  0  0  0  0
 13 20  1  0  0  0  0
 14 19  1  0  0  0  0
 14 15  1  0  0  0  0
 15 16  1  0  0  0  0
 15 34  1  0  0  0  0
 15 35  1  0  0  0  0
 16 17  1  0  0  0  0
 16 36  1  0  0  0  0
 16 37  1  0  0  0  0
 17 18  1  0  0  0  0
 18 19  1  0  0  0  0
 18 38  1  0  0  0  0
 18 39  1  0  0  0  0
 19 40  1  0  0  0  0
 19 41  1  0  0  0  0
 20 21  1  0  0  0  0
 20 42  1  0  0  0  0
 20 43  1  0  0  0  0
 21 22  1  0  0  0  0
 21 44  1  0  0  0  0
 21 45  1  0  0  0  0
 22 23  1  0  0  0  0
 23 46  1  0  0  0  0
 23 47  1  0  0  0  0
M  END
> <s_m_source_file>
AV-unprocessed.smi

> <i_m_source_file_index>
1211

> <i_lp_mmshare_version>
43012

> <i_f3d_flags>
0

> <s_epik_input>
W0NIM11jMVtjSF1bY0hdW2NIXW5jMVtOSF1DKD1PKVtOSF1bQ0gyXVtDQF0yKFtDSDJdW0NIMl1TW0NIMl0yKU4zW0NIMl1bQ0gyXU9bQ0gyXVtDSDJdMw==

> <s_epik_cmdline>
J2VwaWtfcHl0aG9uJywgJy1waCcsICc3LjAnLCAnLXRuJywgJzgnLCAnLW1hJywgJzIwMCcsICctbWV0YWxfYmluZGluZycsICctaW1hZScsICc8aW5maWxlLm1hZT4nLCAnLW9tYWUnLCAnPG91dGZpbGUubWFlPic=

> <r_epik_Ionization_Penalty>
0.0195636

> <r_epik_Ionization_Penalty_Charging>
0

> <r_epik_Ionization_Penalty_Neutral>
0.0195636

> <r_epik_State_Penalty>
0.0155843

> <r_epik_Charging_Adjusted_Penalty>
0.0155843

> <i_epik_Tot_Q>
0

> <i_epik_Tot_abs_Q>
0

> <r_epik_Metal_State_Penalty>
0.0155842

> <b_epik_Metal_Only>
0

> <s_lp_Force_Field>
OPLS_2005

> <r_lp_Energy>
55.2683

> <b_lp_Chiralities_Consistent>
1

> <s_lp_Variant>
AV-unprocessed.smi:1211-1

> <Gold.Version>
5.8.1

> <Gold.Id.Protein>
6NUR|6NUR_protein|mol2

> <Gold.PLP.Fitness>
44.2202

> <Gold.PLP.PLP>
-34.1764

> <Gold.PLP.part.hbond>
-3.0000

> <Gold.PLP.part.metal>
0.0000

> <Gold.PLP.part.buried>
-2.8141

> <Gold.PLP.part.nonpolar>
-29.6627

> <Gold.PLP.part.repulsive>
0.6788

> <Gold.PLP.ligand.clash>
0.0000

> <Gold.PLP.ligand.torsion>
0.9614

> <Gold.PLP.Chemscore.Hbond>
2.9600

> <Gold.PLP.Chemscore.CHOScore>
1.0000

> <Gold.PLP.Chemscore.Metal>
0.0000

> <Gold.Chemscore.Hbonds>
donor molecule, donor type, donor heavy atom, donor atom, acceptor molecule, acceptor atom, score
      L1  H     8    30       P1  7948  1.00
      L1  H    11    31       P1  7948  0.96
      P1  H 10752 10763       L1    17  0.26
      L1  C     5    29       P1 10186  1.00

> <Gold.PLP.Chemscore.Internal.Correction>
0.0866

> <Gold.Rescore>
     Score         DG    S(hbond)    S(metal)    S(lipo)     H(rot)  DE(clash)    DE(int)     intcor
     17.91     -20.60       2.35        0.00      93.62       1.44       1.81       0.88       ----

> <Gold.Chemscore.Fitness>
17.9108

> <Gold.Chemscore.DG>
-20.5978

> <Gold.Chemscore.ZeroCoef>
-5.4800

> <Gold.Chemscore.Hbond>
2.3508

> <Gold.Chemscore.Metal>
0.0000

> <Gold.Chemscore.Lipo>
93.6220

> <Gold.Chemscore.Internal_Hbond>
0.0000

> <Gold.Chemscore.DEClash>
1.8091

> <Gold.Chemscore.DEInternal>
0.8779

> <Gold.Chemscore.Rot>
1.4405

> <Gold.Chemscore.Internal.Correction>
   9.000000E+99

> <Gold.Chemscore.Hbonds>
donor molecule, donor type, donor heavy atom, donor atom, acceptor molecule, acceptor atom, score
      L1  H     8    30       P1  7948  0.97
      L1  H    11    31       P1  7948  0.92
      P1  H 10752 10763       L1    17  0.01

> <Gold.Chemscore.Hbond.Weighted>
-7.8516

> <Gold.Chemscore.Metal.Weighted>
-0.0000

> <Gold.Chemscore.Lipo.Weighted>
-10.9538

> <Gold.Chemscore.Internal_Hbond.Weighted>
0.0000

> <Gold.Chemscore.DEClash.Weighted>
1.8091

> <Gold.Chemscore.DEInternal.Weighted>
0.8779

> <Gold.Chemscore.Rot.Weighted>
3.6876

> <Gold.Chemscore.Internal.Correction.Weighted>
   9.000000E+99

> <Gold.Protein.RotatedTorsions>
[ 6907 6896 6895 6894 ] final -155.41 input  -60.11 | X-H torsion
[ 7974 7965 7964 7962 ] final  143.35 input  175.53 | X-H torsion
[ 8008 7997 7996 7995 ] final  -23.58 input   59.86 | X-H torsion
[ 10167 10162 10161 10158 ] final  -30.94 input  -65.29 | X-H torsion
[ 10718 10713 10712 10709 ] final   -7.79 input   66.30 | X-H torsion
[ 10763 10752 10751 10750 ] final   74.94 input  -60.55 | X-H torsion
[ 11005 11000 10999 10996 ] final   91.37 input  -57.11 | X-H torsion

> <Gold.Protein.ActiveResidues>
 VAL166  LYS551  ARG553  GLY616  TRP617  ASP618  TYR619  PRO620  LYS621  CYS622 
 ASP623  PHE694  ASN695  SER759  ASP760  ASP761  ALA762  ILE779  LEU786  VAL792 
 PHE793  MET794  SER795  GLU796  ALA797  LYS798  CYS799  TRP800  GLU811  SER814 

> <Gold.Protein.RotatedAtoms>
  151.2721  133.4250  159.2621 H   0  0  0  0  0  0  0  0  0  0  0  0  # atno 6907 bound_to 6896
  151.0435  134.9624  159.8184 H   0  0  0  0  0  0  0  0  0  0  0  0  # atno 6908 bound_to 6896
  152.5369  134.2679  159.9013 H   0  0  0  0  0  0  0  0  0  0  0  0  # atno 6909 bound_to 6896
  144.8929  139.5533  143.5790 H   0  0  0  0  0  0  0  0  0  0  0  0  # atno 7974 bound_to 7965
  154.4577  140.1977  156.0332 H   0  0  0  0  0  0  0  0  0  0  0  0  # atno 8008 bound_to 7997
  156.0779  140.3275  155.7629 H   0  0  0  0  0  0  0  0  0  0  0  0  # atno 8009 bound_to 7997
  155.5158  140.0565  157.2906 H   0  0  0  0  0  0  0  0  0  0  0  0  # atno 8010 bound_to 7997
  140.7243  143.3810  151.1601 H   0  0  0  0  0  0  0  0  0  0  0  0  # atno 10167 bound_to 10162
  156.7121  130.5125  149.5889 H   0  0  0  0  0  0  0  0  0  0  0  0  # atno 10718 bound_to 10713
  153.0621  135.5007  154.8117 H   0  0  0  0  0  0  0  0  0  0  0  0  # atno 10763 bound_to 10752
  154.6898  135.2982  154.9498 H   0  0  0  0  0  0  0  0  0  0  0  0  # atno 10764 bound_to 10752
  154.0256  135.6736  153.4829 H   0  0  0  0  0  0  0  0  0  0  0  0  # atno 10765 bound_to 10752
  139.8840  134.8670  156.3418 H   0  0  0  0  0  0  0  0  0  0  0  0  # atno 11005 bound_to 11000
  146.3064  139.7595  142.9053 LP  0  0  0  0  0  0  0  0  0  0  0  0  # atno 17320 bound_to 7965
  145.3752  141.0349  143.3209 LP  0  0  0  0  0  0  0  0  0  0  0  0  # atno 17321 bound_to 7965
  139.7398  143.8941  152.3046 LP  0  0  0  0  0  0  0  0  0  0  0  0  # atno 17342 bound_to 10162
  139.8759  144.7044  150.8934 LP  0  0  0  0  0  0  0  0  0  0  0  0  # atno 17343 bound_to 10162
  156.1654  130.6402  151.0771 LP  0  0  0  0  0  0  0  0  0  0  0  0  # atno 17370 bound_to 10713
  157.6932  131.0803  150.7046 LP  0  0  0  0  0  0  0  0  0  0  0  0  # atno 17371 bound_to 10713
  140.9653  133.7362  156.0459 LP  0  0  0  0  0  0  0  0  0  0  0  0  # atno 17394 bound_to 11000
  140.7938  134.3587  157.5458 LP  0  0  0  0  0  0  0  0  0  0  0  0  # atno 17395 bound_to 11000

$$$$
