AV-unprocessed.smi:2057|AV-procd|sdf|8341|dock6
  -GOLD-   2272011 13D 1   1.00000     0.00000
 Structure written by MMmdl.
 44 46  0  0  0  0  0  0  0  0  1 V2000
  144.7844  144.8696  158.3150 C   0  0  0  0  0  0  0  0  0  0  0  0
  144.6058  144.3694  156.9978 O   0  0  0  0  0  0  0  0  0  0  0  0
  145.5275  143.4649  156.5156 C   0  0  0  0  0  0  0  0  0  0  0  0
  145.3292  142.9840  155.2086 C   0  0  0  0  0  0  0  0  0  0  0  0
  146.2151  142.0509  154.6404 C   0  0  0  0  0  0  0  0  0  0  0  0
  147.3329  141.5777  155.3712 C   0  0  0  0  0  0  0  0  0  0  0  0
  148.2267  140.6505  154.8736 O   0  0  0  0  0  0  0  0  0  0  0  0
  147.9654  140.0699  153.6044 C   0  0  0  0  0  0  0  0  0  0  0  0
  147.5487  142.0692  156.6823 C   0  0  0  0  0  0  0  0  0  0  0  0
  148.7397  141.5764  157.4991 C   0  0  1  0  0  0  0  0  0  0  0  0
  148.5699  140.2554  157.9781 O   0  0  0  0  0  0  0  0  0  0  0  0
  150.0456  141.6757  156.6868 C   0  0  0  0  0  0  0  0  0  0  0  0
  151.2011  141.1905  157.4288 N   0  0  0  0  0  0  0  0  0  0  0  0
  151.9372  140.0708  157.2143 C   0  0  0  0  0  0  0  0  0  0  0  0
  151.6186  139.1254  156.0910 C   0  0  0  0  0  0  0  0  0  0  0  0
  151.9215  139.6374  154.8090 O   0  0  0  0  0  0  0  0  0  0  0  0
  152.9490  139.8761  158.0643 N   0  0  0  0  0  0  0  0  0  0  0  0
  152.8626  140.9716  158.9009 C   0  0  0  0  0  0  0  0  0  0  0  0
  153.6550  141.3477  160.0092 C   0  0  0  0  0  0  0  0  0  0  0  0
  153.3703  142.5316  160.7213 C   0  0  0  0  0  0  0  0  0  0  0  0
  152.2917  143.3546  160.3368 C   0  0  0  0  0  0  0  0  0  0  0  0
  151.4896  142.9978  159.2360 C   0  0  0  0  0  0  0  0  0  0  0  0
  151.7787  141.8151  158.5288 C   0  0  0  0  0  0  0  0  0  0  0  0
  146.6446  142.9967  157.2483 C   0  0  0  0  0  0  0  0  0  0  0  0
  143.9777  145.5647  158.5481 H   0  0  0  0  0  0  0  0  0  0  0  0
  145.7253  145.4128  158.4121 H   0  0  0  0  0  0  0  0  0  0  0  0
  144.7519  144.0674  159.0535 H   0  0  0  0  0  0  0  0  0  0  0  0
  144.4825  143.3303  154.6342 H   0  0  0  0  0  0  0  0  0  0  0  0
  146.0097  141.7106  153.6371 H   0  0  0  0  0  0  0  0  0  0  0  0
  148.7596  139.3634  153.3634 H   0  0  0  0  0  0  0  0  0  0  0  0
  147.9455  140.8242  152.8166 H   0  0  0  0  0  0  0  0  0  0  0  0
  147.0239  139.5193  153.6040 H   0  0  0  0  0  0  0  0  0  0  0  0
  148.8310  142.1951  158.3921 H   0  0  0  0  0  0  0  0  0  0  0  0
  147.6691  140.1478  158.2431 H   0  0  0  0  0  0  0  0  0  0  0  0
  149.9550  141.1391  155.7423 H   0  0  0  0  0  0  0  0  0  0  0  0
  150.2369  142.7170  156.4243 H   0  0  0  0  0  0  0  0  0  0  0  0
  152.1729  138.1976  156.2318 H   0  0  0  0  0  0  0  0  0  0  0  0
  150.5566  138.8811  156.1213 H   0  0  0  0  0  0  0  0  0  0  0  0
  152.5245  139.0435  154.3881 H   0  0  0  0  0  0  0  0  0  0  0  0
  154.4833  140.7245  160.3117 H   0  0  0  0  0  0  0  0  0  0  0  0
  153.9829  142.8097  161.5665 H   0  0  0  0  0  0  0  0  0  0  0  0
  152.0805  144.2598  160.8873 H   0  0  0  0  0  0  0  0  0  0  0  0
  150.6620  143.6248  158.9384 H   0  0  0  0  0  0  0  0  0  0  0  0
  146.8227  143.3382  158.2565 H   0  0  0  0  0  0  0  0  0  0  0  0
  1  2  1  0  0  0  0
  1 25  1  0  0  0  0
  1 26  1  0  0  0  0
  1 27  1  0  0  0  0
  2  3  1  0  0  0  0
  3 24  1  0  0  0  0
  3  4  2  0  0  0  0
  4  5  1  0  0  0  0
  4 28  1  0  0  0  0
  5  6  2  0  0  0  0
  5 29  1  0  0  0  0
  6  7  1  0  0  0  0
  6  9  1  0  0  0  0
  7  8  1  0  0  0  0
  8 30  1  0  0  0  0
  8 31  1  0  0  0  0
  8 32  1  0  0  0  0
  9 10  1  0  0  0  0
  9 24  2  0  0  0  0
 10 11  1  0  0  0  0
 10 12  1  0  0  0  0
 10 33  1  0  0  0  0
 11 34  1  0  0  0  0
 12 13  1  0  0  0  0
 12 35  1  0  0  0  0
 12 36  1  0  0  0  0
 13 23  1  0  0  0  0
 13 14  1  0  0  0  0
 14 15  1  0  0  0  0
 14 17  2  0  0  0  0
 15 16  1  0  0  0  0
 15 37  1  0  0  0  0
 15 38  1  0  0  0  0
 16 39  1  0  0  0  0
 17 18  1  0  0  0  0
 18 23  2  0  0  0  0
 18 19  1  0  0  0  0
 19 20  2  0  0  0  0
 19 40  1  0  0  0  0
 20 21  1  0  0  0  0
 20 41  1  0  0  0  0
 21 22  2  0  0  0  0
 21 42  1  0  0  0  0
 22 23  1  0  0  0  0
 22 43  1  0  0  0  0
 24 44  1  0  0  0  0
M  END
> <s_m_source_file>
AV-unprocessed.smi

> <i_m_source_file_index>
2057

> <i_lp_mmshare_version>
43012

> <i_f3d_flags>
0

> <s_epik_input>
W0NIM11PYzFbY0hdW2NIXWMoT1tDSDNdKWMoW2NIXTEpW0NASF0oW09IXSlbQ0gyXW4oYyhuMilbQ0gyXVtPSF0pYyhjMjMpW2NIXVtjSF1bY0hdW2NIXTM=

> <s_epik_cmdline>
J2VwaWtfcHl0aG9uJywgJy1waCcsICc3LjAnLCAnLXRuJywgJzgnLCAnLW1hJywgJzIwMCcsICctbWV0YWxfYmluZGluZycsICctaW1hZScsICc8aW5maWxlLm1hZT4nLCAnLW9tYWUnLCAnPG91dGZpbGUubWFlPic=

> <r_lp_tautomer_probability>
1

> <r_epik_Ionization_Penalty>
0.0634722

> <r_epik_Ionization_Penalty_Charging>
0

> <r_epik_Ionization_Penalty_Neutral>
0.0634722

> <r_epik_State_Penalty>
0.0551572

> <r_epik_Charging_Adjusted_Penalty>
0.0551572

> <i_epik_Tot_Q>
0

> <i_epik_Tot_abs_Q>
0

> <r_epik_Metal_State_Penalty>
5.78034e-05

> <b_epik_Metal_Only>
0

> <s_lp_Force_Field>
OPLS_2005

> <r_lp_Energy>
19.4747

> <b_lp_Chiralities_Consistent>
1

> <s_lp_Variant>
AV-unprocessed.smi:2057-2

> <Gold.Version>
5.8.1

> <Gold.Id.Protein>
6NUR|6NUR_protein|mol2

> <Gold.PLP.Fitness>
44.8288

> <Gold.PLP.PLP>
-39.8954

> <Gold.PLP.part.hbond>
-2.4783

> <Gold.PLP.part.metal>
0.0000

> <Gold.PLP.part.buried>
-4.2985

> <Gold.PLP.part.nonpolar>
-32.3974

> <Gold.PLP.part.repulsive>
0.1791

> <Gold.PLP.ligand.clash>
0.0000

> <Gold.PLP.ligand.torsion>
0.5121

> <Gold.PLP.Chemscore.Hbond>
1.9600

> <Gold.PLP.Chemscore.CHOScore>
0.0000

> <Gold.PLP.Chemscore.Metal>
0.0000

> <Gold.Chemscore.Hbonds>
donor molecule, donor type, donor heavy atom, donor atom, acceptor molecule, acceptor atom, score
      P1  H  7989  7998       L1    16  0.96
      P1  H  7997  8010       L1    17  1.00

> <Gold.PLP.Chemscore.Internal.Correction>
0.0777

> <Gold.Rescore>
     Score         DG    S(hbond)    S(metal)    S(lipo)     H(rot)  DE(clash)    DE(int)     intcor
     12.57     -14.62       1.40        0.00     107.40       3.17       0.23       1.82       ----

> <Gold.Chemscore.Fitness>
12.5664

> <Gold.Chemscore.DG>
-14.6183

> <Gold.Chemscore.ZeroCoef>
-5.4800

> <Gold.Chemscore.Hbond>
1.4008

> <Gold.Chemscore.Metal>
0.0000

> <Gold.Chemscore.Lipo>
107.4000

> <Gold.Chemscore.Internal_Hbond>
0.0000

> <Gold.Chemscore.DEClash>
0.2324

> <Gold.Chemscore.DEInternal>
1.8195

> <Gold.Chemscore.Rot>
3.1665

> <Gold.Chemscore.Internal.Correction>
   9.000000E+99

> <Gold.Chemscore.Hbonds>
donor molecule, donor type, donor heavy atom, donor atom, acceptor molecule, acceptor atom, score
      P1  H  7989  7998       L1    16  0.28
      P1  H  7997  8010       L1    17  0.32

> <Gold.Chemscore.Hbond.Weighted>
-4.6787

> <Gold.Chemscore.Metal.Weighted>
-0.0000

> <Gold.Chemscore.Lipo.Weighted>
-12.5658

> <Gold.Chemscore.Internal_Hbond.Weighted>
0.0000

> <Gold.Chemscore.DEClash.Weighted>
0.2324

> <Gold.Chemscore.DEInternal.Weighted>
1.8195

> <Gold.Chemscore.Rot.Weighted>
8.1062

> <Gold.Chemscore.Internal.Correction.Weighted>
   9.000000E+99

> <Gold.Protein.RotatedTorsions>
[ 6907 6896 6895 6894 ] final   66.28 input  -60.11 | X-H torsion
[ 7974 7965 7964 7962 ] final   58.67 input  175.53 | X-H torsion
[ 8008 7997 7996 7995 ] final   37.15 input   59.86 | X-H torsion
[ 10167 10162 10161 10158 ] final   75.93 input  -65.29 | X-H torsion
[ 10718 10713 10712 10709 ] final    9.29 input   66.30 | X-H torsion
[ 10763 10752 10751 10750 ] final  -25.48 input  -60.55 | X-H torsion
[ 11005 11000 10999 10996 ] final   18.07 input  -57.11 | X-H torsion

> <Gold.Protein.ActiveResidues>
 VAL166  LYS551  ARG553  GLY616  TRP617  ASP618  TYR619  PRO620  LYS621  CYS622 
 ASP623  PHE694  ASN695  SER759  ASP760  ASP761  ALA762  ILE779  LEU786  VAL792 
 PHE793  MET794  SER795  GLU796  ALA797  LYS798  CYS799  TRP800  GLU811  SER814 

> <Gold.Protein.RotatedAtoms>
  152.4469  134.5475  159.9856 H   0  0  0  0  0  0  0  0  0  0  0  0  # atno 6907 bound_to 6896
  151.5558  133.3405  159.2969 H   0  0  0  0  0  0  0  0  0  0  0  0  # atno 6908 bound_to 6896
  150.8388  134.7704  159.6978 H   0  0  0  0  0  0  0  0  0  0  0  0  # atno 6909 bound_to 6896
  145.9156  139.3688  143.0509 H   0  0  0  0  0  0  0  0  0  0  0  0  # atno 7974 bound_to 7965
  155.1991  140.3314  155.4346 H   0  0  0  0  0  0  0  0  0  0  0  0  # atno 8008 bound_to 7997
  156.2413  140.1897  156.7029 H   0  0  0  0  0  0  0  0  0  0  0  0  # atno 8009 bound_to 7997
  154.6153  140.0603  156.9532 H   0  0  0  0  0  0  0  0  0  0  0  0  # atno 8010 bound_to 7997
  139.9977  144.5710  150.7764 H   0  0  0  0  0  0  0  0  0  0  0  0  # atno 10167 bound_to 10162
  156.9641  130.5944  149.5664 H   0  0  0  0  0  0  0  0  0  0  0  0  # atno 10718 bound_to 10713
  153.7006  135.6956  153.5064 H   0  0  0  0  0  0  0  0  0  0  0  0  # atno 10763 bound_to 10752
  153.2345  135.4326  155.0631 H   0  0  0  0  0  0  0  0  0  0  0  0  # atno 10764 bound_to 10752
  154.8345  135.3492  154.6545 H   0  0  0  0  0  0  0  0  0  0  0  0  # atno 10765 bound_to 10752
  140.4289  134.1441  155.7679 H   0  0  0  0  0  0  0  0  0  0  0  0  # atno 11005 bound_to 11000
  145.8616  140.9472  143.0697 LP  0  0  0  0  0  0  0  0  0  0  0  0  # atno 17320 bound_to 7965
  144.6747  140.0537  143.7478 LP  0  0  0  0  0  0  0  0  0  0  0  0  # atno 17321 bound_to 7965
  140.7431  143.2841  151.3514 LP  0  0  0  0  0  0  0  0  0  0  0  0  # atno 17342 bound_to 10162
  139.6294  144.0750  152.2463 LP  0  0  0  0  0  0  0  0  0  0  0  0  # atno 17343 bound_to 10162
  156.0310  130.5401  150.8533 LP  0  0  0  0  0  0  0  0  0  0  0  0  # atno 17370 bound_to 10713
  157.5637  131.0946  150.9521 LP  0  0  0  0  0  0  0  0  0  0  0  0  # atno 17371 bound_to 10713
  141.1754  133.8525  157.1439 LP  0  0  0  0  0  0  0  0  0  0  0  0  # atno 17394 bound_to 11000
  140.0148  134.9972  157.0470 LP  0  0  0  0  0  0  0  0  0  0  0  0  # atno 17395 bound_to 11000

$$$$
