AV-unprocessed.smi:949|AV-procd|sdf|4249|dock1
  -GOLD-   22720 2153D 1   1.00000     0.00000
 Structure written by MMmdl.
 32 33  0  0  0  0  0  0  0  0  1 V2000
  149.3193  140.6297  157.8488 C   0  0  0  0  0  0  0  0  0  0  0  0
  150.2063  141.5929  157.0379 C   0  0  1  0  0  0  0  0  0  0  0  0
  149.4980  142.0505  155.8481 N   0  0  0  0  0  0  0  0  0  0  0  0
  148.7731  141.1860  155.0085 C   0  0  0  0  0  0  0  0  0  0  0  0
  149.1888  139.8625  154.7278 C   0  0  0  0  0  0  0  0  0  0  0  0
  148.4007  139.0676  153.8726 C   0  0  0  0  0  0  0  0  0  0  0  0
  147.2597  139.4991  153.2979 N   0  0  0  0  0  0  0  0  0  0  0  0
  146.8623  140.7601  153.5642 C   0  0  0  0  0  0  0  0  0  0  0  0
  147.5740  141.6409  154.4059 C   0  0  0  0  0  0  0  0  0  0  0  0
  147.0831  142.9310  154.6234 N   0  0  0  0  0  0  0  0  0  0  0  0
  150.6383  142.8096  157.8793 C   0  0  1  0  0  0  0  0  0  0  0  0
  151.5700  142.4854  159.0486 C   0  0  0  0  0  0  0  0  0  0  0  0
  152.3253  143.7848  159.2792 C   0  0  0  0  0  0  0  0  0  0  0  0
  152.0810  144.5885  157.9995 C   0  0  0  0  0  0  0  0  0  0  0  0
  151.4501  143.6815  157.1067 O   0  0  0  0  0  0  0  0  0  0  0  0
  149.8517  140.2292  158.7113 H   0  0  0  0  0  0  0  0  0  0  0  0
  148.9954  139.7783  157.2506 H   0  0  0  0  0  0  0  0  0  0  0  0
  148.4237  141.1327  158.2155 H   0  0  0  0  0  0  0  0  0  0  0  0
  151.1120  141.0694  156.7312 H   0  0  0  0  0  0  0  0  0  0  0  0
  149.6327  143.0079  155.5574 H   0  0  0  0  0  0  0  0  0  0  0  0
  150.0886  139.4419  155.1489 H   0  0  0  0  0  0  0  0  0  0  0  0
  148.6970  138.0545  153.6439 H   0  0  0  0  0  0  0  0  0  0  0  0
  145.9448  141.0758  153.0889 H   0  0  0  0  0  0  0  0  0  0  0  0
  147.5686  143.5857  155.2201 H   0  0  0  0  0  0  0  0  0  0  0  0
  146.1964  143.2287  154.2432 H   0  0  0  0  0  0  0  0  0  0  0  0
  149.7664  143.3595  158.2403 H   0  0  0  0  0  0  0  0  0  0  0  0
  151.0330  142.1477  159.9356 H   0  0  0  0  0  0  0  0  0  0  0  0
  152.2733  141.7021  158.7627 H   0  0  0  0  0  0  0  0  0  0  0  0
  151.9401  144.3210  160.1472 H   0  0  0  0  0  0  0  0  0  0  0  0
  153.3867  143.5964  159.4439 H   0  0  0  0  0  0  0  0  0  0  0  0
  151.4100  145.4261  158.1948 H   0  0  0  0  0  0  0  0  0  0  0  0
  153.0018  144.9831  157.5698 H   0  0  0  0  0  0  0  0  0  0  0  0
  1  2  1  0  0  0  0
  1 16  1  0  0  0  0
  1 17  1  0  0  0  0
  1 18  1  0  0  0  0
  2  3  1  0  0  0  0
  2 11  1  0  0  0  0
  2 19  1  0  0  0  0
  3  4  1  0  0  0  0
  3 20  1  0  0  0  0
  4  9  1  0  0  0  0
  4  5  2  0  0  0  0
  5  6  1  0  0  0  0
  5 21  1  0  0  0  0
  6  7  2  0  0  0  0
  6 22  1  0  0  0  0
  7  8  1  0  0  0  0
  8  9  2  0  0  0  0
  8 23  1  0  0  0  0
  9 10  1  0  0  0  0
 10 24  1  0  0  0  0
 10 25  1  0  0  0  0
 11 15  1  0  0  0  0
 11 12  1  0  0  0  0
 11 26  1  0  0  0  0
 12 13  1  0  0  0  0
 12 27  1  0  0  0  0
 12 28  1  0  0  0  0
 13 14  1  0  0  0  0
 13 29  1  0  0  0  0
 13 30  1  0  0  0  0
 14 15  1  0  0  0  0
 14 31  1  0  0  0  0
 14 32  1  0  0  0  0
M  END
> <s_m_source_file>
AV-unprocessed.smi

> <i_m_source_file_index>
949

> <i_lp_mmshare_version>
43012

> <i_f3d_flags>
0

> <s_epik_input>
TzFbQ0gyXVtDSDJdW0NIMl1bQ0BIXTFbQ0BIXShbQ0gzXSlbTkhdYzJbY0hdW2NIXW5bY0hdYzJbTkgyXQ==

> <s_epik_cmdline>
J2VwaWtfcHl0aG9uJywgJy1waCcsICc3LjAnLCAnLXRuJywgJzgnLCAnLW1hJywgJzIwMCcsICctbWV0YWxfYmluZGluZycsICctaW1hZScsICc8aW5maWxlLm1hZT4nLCAnLW9tYWUnLCAnPG91dGZpbGUubWFlPic=

> <r_epik_Ionization_Penalty>
3.88091

> <r_epik_Ionization_Penalty_Charging>
0

> <r_epik_Ionization_Penalty_Neutral>
3.88091

> <r_epik_State_Penalty>
3.88049

> <r_epik_Charging_Adjusted_Penalty>
3.88049

> <i_epik_Tot_Q>
0

> <i_epik_Tot_abs_Q>
0

> <r_epik_Metal_State_Penalty>
0.313783

> <b_epik_Metal_Only>
1

> <s_lp_Force_Field>
OPLS_2005

> <r_lp_Energy>
24.4145

> <b_lp_Chiralities_Consistent>
1

> <s_lp_Variant>
AV-unprocessed.smi:949-8

> <Gold.Version>
5.8.1

> <Gold.Id.Protein>
6NUR|6NUR_protein|mol2

> <Gold.PLP.Fitness>
39.5727

> <Gold.PLP.PLP>
-29.1870

> <Gold.PLP.part.hbond>
-2.0000

> <Gold.PLP.part.metal>
0.0000

> <Gold.PLP.part.buried>
-3.1569

> <Gold.PLP.part.nonpolar>
-26.0693

> <Gold.PLP.part.repulsive>
1.5824

> <Gold.PLP.ligand.clash>
0.0000

> <Gold.PLP.ligand.torsion>
0.4469

> <Gold.PLP.Chemscore.Hbond>
1.7520

> <Gold.PLP.Chemscore.CHOScore>
1.9988

> <Gold.PLP.Chemscore.Metal>
0.0000

> <Gold.Chemscore.Hbonds>
donor molecule, donor type, donor heavy atom, donor atom, acceptor molecule, acceptor atom, score
      L1  H     3    20       P1  8028  0.86
      L1  H    10    24       P1  8028  0.70
      L1  C     6    22       P1  7948  0.96
      L1  C     8    23       P1 10175  1.00

> <Gold.PLP.Chemscore.Internal.Correction>
0.0271

> <Gold.Rescore>
     Score         DG    S(hbond)    S(metal)    S(lipo)     H(rot)  DE(clash)    DE(int)     intcor
     15.89     -16.49       1.26        0.00      84.62       1.22       0.06       0.54       ----

> <Gold.Chemscore.Fitness>
15.8879

> <Gold.Chemscore.DG>
-16.4869

> <Gold.Chemscore.ZeroCoef>
-5.4800

> <Gold.Chemscore.Hbond>
1.2640

> <Gold.Chemscore.Metal>
0.0000

> <Gold.Chemscore.Lipo>
84.6172

> <Gold.Chemscore.Internal_Hbond>
0.0000

> <Gold.Chemscore.DEClash>
0.0551

> <Gold.Chemscore.DEInternal>
0.5439

> <Gold.Chemscore.Rot>
1.2169

> <Gold.Chemscore.Internal.Correction>
   9.000000E+99

> <Gold.Chemscore.Hbonds>
donor molecule, donor type, donor heavy atom, donor atom, acceptor molecule, acceptor atom, score
      L1  H     3    20       P1  8028  0.85
      L1  H    10    24       P1  8028  0.07

> <Gold.Chemscore.Hbond.Weighted>
-4.2219

> <Gold.Chemscore.Metal.Weighted>
-0.0000

> <Gold.Chemscore.Lipo.Weighted>
-9.9002

> <Gold.Chemscore.Internal_Hbond.Weighted>
0.0000

> <Gold.Chemscore.DEClash.Weighted>
0.0551

> <Gold.Chemscore.DEInternal.Weighted>
0.5439

> <Gold.Chemscore.Rot.Weighted>
3.1152

> <Gold.Chemscore.Internal.Correction.Weighted>
   9.000000E+99

> <Gold.Protein.RotatedTorsions>
[ 6907 6896 6895 6894 ] final  -37.40 input  -60.11 | X-H torsion
[ 7974 7965 7964 7962 ] final -124.48 input  175.53 | X-H torsion
[ 8008 7997 7996 7995 ] final -140.93 input   59.86 | X-H torsion
[ 10167 10162 10161 10158 ] final  -59.80 input  -65.29 | X-H torsion
[ 10718 10713 10712 10709 ] final  -96.26 input   66.30 | X-H torsion
[ 10763 10752 10751 10750 ] final  -91.31 input  -60.55 | X-H torsion
[ 11005 11000 10999 10996 ] final  126.13 input  -57.11 | X-H torsion

> <Gold.Protein.ActiveResidues>
 VAL166  LYS551  ARG553  GLY616  TRP617  ASP618  TYR619  PRO620  LYS621  CYS622 
 ASP623  PHE694  ASN695  SER759  ASP760  ASP761  ALA762  ILE779  LEU786  VAL792 
 PHE793  MET794  SER795  GLU796  ALA797  LYS798  CYS799  TRP800  GLU811  SER814 

> <Gold.Protein.RotatedAtoms>
  151.0152  134.9427  159.8028 H   0  0  0  0  0  0  0  0  0  0  0  0  # atno 6907 bound_to 6896
  152.5312  134.2976  159.9076 H   0  0  0  0  0  0  0  0  0  0  0  0  # atno 6908 bound_to 6896
  151.2982  133.4092  159.2672 H   0  0  0  0  0  0  0  0  0  0  0  0  # atno 6909 bound_to 6896
  145.0076  140.7877  143.4458 H   0  0  0  0  0  0  0  0  0  0  0  0  # atno 7974 bound_to 7965
  155.4695  140.0552  157.2981 H   0  0  0  0  0  0  0  0  0  0  0  0  # atno 8008 bound_to 7997
  154.4704  140.2038  155.9963 H   0  0  0  0  0  0  0  0  0  0  0  0  # atno 8009 bound_to 7997
  156.1046  140.3214  155.7993 H   0  0  0  0  0  0  0  0  0  0  0  0  # atno 8010 bound_to 7997
  140.6112  143.2388  151.5705 H   0  0  0  0  0  0  0  0  0  0  0  0  # atno 10167 bound_to 10162
  156.0059  130.5144  150.6199 H   0  0  0  0  0  0  0  0  0  0  0  0  # atno 10718 bound_to 10713
  154.6748  135.5272  153.8185 H   0  0  0  0  0  0  0  0  0  0  0  0  # atno 10763 bound_to 10752
  153.0525  135.6538  154.0668 H   0  0  0  0  0  0  0  0  0  0  0  0  # atno 10764 bound_to 10752
  154.0563  135.2965  155.3312 H   0  0  0  0  0  0  0  0  0  0  0  0  # atno 10765 bound_to 10752
  139.9441  134.9632  156.8662 H   0  0  0  0  0  0  0  0  0  0  0  0  # atno 11005 bound_to 11000
  145.2067  139.2225  143.5164 LP  0  0  0  0  0  0  0  0  0  0  0  0  # atno 17320 bound_to 7965
  146.3464  140.1896  142.8589 LP  0  0  0  0  0  0  0  0  0  0  0  0  # atno 17321 bound_to 7965
  139.5363  144.2773  152.1257 LP  0  0  0  0  0  0  0  0  0  0  0  0  # atno 17342 bound_to 10162
  140.1972  144.4693  150.6449 LP  0  0  0  0  0  0  0  0  0  0  0  0  # atno 17343 bound_to 10162
  157.4017  131.0811  151.1303 LP  0  0  0  0  0  0  0  0  0  0  0  0  # atno 17370 bound_to 10713
  157.1962  130.6374  149.5722 LP  0  0  0  0  0  0  0  0  0  0  0  0  # atno 17371 bound_to 10713
  140.5879  134.0290  155.7488 LP  0  0  0  0  0  0  0  0  0  0  0  0  # atno 17394 bound_to 11000
  141.1085  133.9654  157.2952 LP  0  0  0  0  0  0  0  0  0  0  0  0  # atno 17395 bound_to 11000

$$$$
