AV-unprocessed.smi:3336|AV-procd|sdf|12856|dock1
  -GOLD-   2272019253D 1   1.00000     0.00000
 Structure written by MMmdl.
 42 43  0  0  0  0  0  0  0  0  2 V2000
  143.6016  137.2469  153.0174 C   0  0  0  0  0  0  0  0  0  0  0  0
  145.1295  137.0932  152.8841 C   0  0  1  0  0  0  0  0  0  0  0  0
  145.5383  136.3422  151.6002 C   0  0  0  0  0  0  0  0  0  0  0  0
  144.9335  135.0263  151.4945 N   0  0  0  0  0  0  0  0  0  0  0  0
  145.0967  134.0870  150.4980 C   0  0  0  0  0  0  0  0  0  0  0  0
  144.3291  133.0072  150.8281 C   0  0  0  0  0  0  0  0  0  0  0  0
  143.7229  133.3864  152.0583 C   0  0  0  0  0  0  0  0  0  0  0  0
  144.0856  134.5962  152.4537 N   0  0  0  0  0  0  0  0  0  0  0  0
  145.7965  138.4163  152.8979 N   0  3  0  0  0  0  0  0  0  0  0  0
  146.4623  138.8218  154.1617 C   0  0  1  0  0  0  0  0  0  0  0  0
  145.6510  138.3374  155.3804 C   0  0  0  0  0  0  0  0  0  0  0  0
  147.8955  138.2522  154.2180 C   0  0  0  0  0  0  0  0  0  0  0  0
  148.0329  137.0558  154.4811 O   0  0  0  0  0  0  0  0  0  0  0  0
  148.9635  139.0587  153.9901 N   0  0  0  0  0  0  0  0  0  0  0  0
  150.3475  138.5724  154.0311 C   0  0  0  0  0  0  0  0  0  0  0  0
  151.0875  139.2904  155.1726 C   0  0  0  0  0  0  0  0  0  0  0  0
  151.0428  140.6972  154.9533 O   0  0  0  0  0  0  0  0  0  0  0  0
  149.7142  141.2066  154.8854 C   0  0  0  0  0  0  0  0  0  0  0  0
  148.9418  140.5072  153.7509 C   0  0  0  0  0  0  0  0  0  0  0  0
  143.1047  136.2774  153.0535 H   0  0  0  0  0  0  0  0  0  0  0  0
  143.1861  137.7996  152.1743 H   0  0  0  0  0  0  0  0  0  0  0  0
  143.3216  137.7741  153.9286 H   0  0  0  0  0  0  0  0  0  0  0  0
  145.4896  136.5088  153.7305 H   0  0  0  0  0  0  0  0  0  0  0  0
  145.2709  136.9256  150.7172 H   0  0  0  0  0  0  0  0  0  0  0  0
  146.6212  136.2148  151.5691 H   0  0  0  0  0  0  0  0  0  0  0  0
  145.7384  134.2623  149.6469 H   0  0  0  0  0  0  0  0  0  0  0  0
  144.2160  132.0867  150.2746 H   0  0  0  0  0  0  0  0  0  0  0  0
  143.0350  132.8228  152.6712 H   0  0  0  0  0  0  0  0  0  0  0  0
  146.4995  138.4296  152.1728 H   0  0  0  0  0  0  0  0  0  0  0  0
  146.5221  139.9080  154.1566 H   0  0  0  0  0  0  0  0  0  0  0  0
  146.1448  138.5831  156.3203 H   0  0  0  0  0  0  0  0  0  0  0  0
  145.5121  137.2556  155.3592 H   0  0  0  0  0  0  0  0  0  0  0  0
  144.6632  138.7952  155.4180 H   0  0  0  0  0  0  0  0  0  0  0  0
  150.4209  137.4932  154.1704 H   0  0  0  0  0  0  0  0  0  0  0  0
  150.8335  138.7847  153.0777 H   0  0  0  0  0  0  0  0  0  0  0  0
  150.6435  139.0470  156.1392 H   0  0  0  0  0  0  0  0  0  0  0  0
  152.1291  138.9713  155.2088 H   0  0  0  0  0  0  0  0  0  0  0  0
  149.2132  141.0639  155.8440 H   0  0  0  0  0  0  0  0  0  0  0  0
  149.7585  142.2809  154.7055 H   0  0  0  0  0  0  0  0  0  0  0  0
  149.4168  140.7174  152.7915 H   0  0  0  0  0  0  0  0  0  0  0  0
  147.9448  140.9367  153.6895 H   0  0  0  0  0  0  0  0  0  0  0  0
  145.1010  139.1122  152.6684 H   0  0  0  0  0  0  0  0  0  0  0  0
  1  2  1  0  0  0  0
  1 20  1  0  0  0  0
  1 21  1  0  0  0  0
  1 22  1  0  0  0  0
  2  3  1  0  0  0  0
  2  9  1  0  0  0  0
  2 23  1  0  0  0  0
  3  4  1  0  0  0  0
  3 24  1  0  0  0  0
  3 25  1  0  0  0  0
  4  8  1  0  0  0  0
  4  5  1  0  0  0  0
  5  6  2  0  0  0  0
  5 26  1  0  0  0  0
  6  7  1  0  0  0  0
  6 27  1  0  0  0  0
  7  8  2  0  0  0  0
  7 28  1  0  0  0  0
  9 10  1  0  0  0  0
  9 29  1  0  0  0  0
  9 42  1  0  0  0  0
 10 11  1  0  0  0  0
 10 12  1  0  0  0  0
 10 30  1  0  0  0  0
 11 31  1  0  0  0  0
 11 32  1  0  0  0  0
 11 33  1  0  0  0  0
 12 13  2  0  0  0  0
 12 14  1  0  0  0  0
 14 19  1  0  0  0  0
 14 15  1  0  0  0  0
 15 16  1  0  0  0  0
 15 34  1  0  0  0  0
 15 35  1  0  0  0  0
 16 17  1  0  0  0  0
 16 36  1  0  0  0  0
 16 37  1  0  0  0  0
 17 18  1  0  0  0  0
 18 19  1  0  0  0  0
 18 38  1  0  0  0  0
 18 39  1  0  0  0  0
 19 40  1  0  0  0  0
 19 41  1  0  0  0  0
M  CHG  1   9   1
M  END
> <s_m_source_file>
AV-unprocessed.smi

> <i_m_source_file_index>
3336

> <i_lp_mmshare_version>
43012

> <i_f3d_flags>
0

> <s_epik_input>
bjFbY0hdW2NIXVtjSF1uMVtDSDJdW0NAQEhdKFtDSDNdKVtOSF1bQ0BIXShbQ0gzXSlDKD1PKU4yW0NIMl1bQ0gyXU9bQ0gyXVtDSDJdMg==

> <s_epik_cmdline>
J2VwaWtfcHl0aG9uJywgJy1waCcsICc3LjAnLCAnLXRuJywgJzgnLCAnLW1hJywgJzIwMCcsICctbWV0YWxfYmluZGluZycsICctaW1hZScsICc8aW5maWxlLm1hZT4nLCAnLW9tYWUnLCAnPG91dGZpbGUubWFlPic=

> <r_lp_tautomer_probability>
1

> <r_epik_Ionization_Penalty>
0.200288

> <r_epik_Ionization_Penalty_Charging>
0.200285

> <r_epik_Ionization_Penalty_Neutral>
3.37705e-06

> <r_epik_State_Penalty>
0.190126

> <r_epik_Charging_Adjusted_Penalty>
0.39041

> <i_epik_Tot_Q>
1

> <i_epik_Tot_abs_Q>
1

> <r_epik_Metal_State_Penalty>
0.190133

> <b_epik_Metal_Only>
0

> <s_lp_Force_Field>
OPLS_2005

> <r_lp_Energy>
28.672

> <b_lp_Chiralities_Consistent>
1

> <s_lp_Variant>
AV-unprocessed.smi:3336-4

> <Gold.Version>
5.8.1

> <Gold.Id.Protein>
6NUR|6NUR_protein|mol2

> <Gold.PLP.Fitness>
41.7004

> <Gold.PLP.PLP>
-28.9403

> <Gold.PLP.part.hbond>
-2.0000

> <Gold.PLP.part.metal>
0.0000

> <Gold.PLP.part.buried>
-0.7872

> <Gold.PLP.part.nonpolar>
-27.3511

> <Gold.PLP.part.repulsive>
0.5482

> <Gold.PLP.ligand.clash>
0.0000

> <Gold.PLP.ligand.torsion>
1.2844

> <Gold.PLP.Chemscore.Hbond>
2.9760

> <Gold.PLP.Chemscore.CHOScore>
1.9927

> <Gold.PLP.Chemscore.Metal>
0.0000

> <Gold.Chemscore.Hbonds>
donor molecule, donor type, donor heavy atom, donor atom, acceptor molecule, acceptor atom, score
      L1  H     9    42       P1 10175  2.00
      P1  H  7989  7998       L1    17  0.90
      L1  C     5    26       P1  7921  1.00
      L1  C     7    28       P1 10957  0.89

> <Gold.PLP.Chemscore.Internal.Correction>
0.4227

> <Gold.Rescore>
     Score         DG    S(hbond)    S(metal)    S(lipo)     H(rot)  DE(clash)    DE(int)     intcor
      9.20     -12.37       1.23        0.00      64.47       1.85       0.42       2.75       ----

> <Gold.Chemscore.Fitness>
9.2000

> <Gold.Chemscore.DG>
-12.3679

> <Gold.Chemscore.ZeroCoef>
-5.4800

> <Gold.Chemscore.Hbond>
1.2250

> <Gold.Chemscore.Metal>
0.0000

> <Gold.Chemscore.Lipo>
64.4690

> <Gold.Chemscore.Internal_Hbond>
0.0000

> <Gold.Chemscore.DEClash>
0.4181

> <Gold.Chemscore.DEInternal>
2.7499

> <Gold.Chemscore.Rot>
1.8541

> <Gold.Chemscore.Internal.Correction>
   9.000000E+99

> <Gold.Chemscore.Hbonds>
donor molecule, donor type, donor heavy atom, donor atom, acceptor molecule, acceptor atom, score
      L1  H     9    42       P1 10175  0.98
      P1  H  7989  7998       L1    17  0.21

> <Gold.Chemscore.Hbond.Weighted>
-4.0916

> <Gold.Chemscore.Metal.Weighted>
-0.0000

> <Gold.Chemscore.Lipo.Weighted>
-7.5429

> <Gold.Chemscore.Internal_Hbond.Weighted>
0.0000

> <Gold.Chemscore.DEClash.Weighted>
0.4181

> <Gold.Chemscore.DEInternal.Weighted>
2.7499

> <Gold.Chemscore.Rot.Weighted>
4.7465

> <Gold.Chemscore.Internal.Correction.Weighted>
   9.000000E+99

> <Gold.Protein.RotatedTorsions>
[ 6907 6896 6895 6894 ] final -124.54 input  -60.11 | X-H torsion
[ 7974 7965 7964 7962 ] final   77.56 input  175.53 | X-H torsion
[ 8008 7997 7996 7995 ] final -163.79 input   59.86 | X-H torsion
[ 10167 10162 10161 10158 ] final -127.57 input  -65.29 | X-H torsion
[ 10718 10713 10712 10709 ] final -168.65 input   66.30 | X-H torsion
[ 10763 10752 10751 10750 ] final  -31.03 input  -60.55 | X-H torsion
[ 11005 11000 10999 10996 ] final -148.27 input  -57.11 | X-H torsion

> <Gold.Protein.ActiveResidues>
 VAL166  LYS551  ARG553  GLY616  TRP617  ASP618  TYR619  PRO620  LYS621  CYS622 
 ASP623  PHE694  ASN695  SER759  ASP760  ASP761  ALA762  ILE779  LEU786  VAL792 
 PHE793  MET794  SER795  GLU796  ALA797  LYS798  CYS799  TRP800  GLU811  SER814 

> <Gold.Protein.RotatedAtoms>
  150.8778  133.7415  159.2941 H   0  0  0  0  0  0  0  0  0  0  0  0  # atno 6907 bound_to 6896
  151.5006  135.1060  159.9837 H   0  0  0  0  0  0  0  0  0  0  0  0  # atno 6908 bound_to 6896
  152.4739  133.8047  159.7027 H   0  0  0  0  0  0  0  0  0  0  0  0  # atno 6909 bound_to 6896
  145.6884  139.2545  143.1774 H   0  0  0  0  0  0  0  0  0  0  0  0  # atno 7974 bound_to 7965
  155.8264  140.0927  157.1819 H   0  0  0  0  0  0  0  0  0  0  0  0  # atno 8008 bound_to 7997
  154.3979  140.1427  156.3622 H   0  0  0  0  0  0  0  0  0  0  0  0  # atno 8009 bound_to 7997
  155.8212  140.3446  155.5518 H   0  0  0  0  0  0  0  0  0  0  0  0  # atno 8010 bound_to 7997
  139.9595  143.5966  152.2450 H   0  0  0  0  0  0  0  0  0  0  0  0  # atno 10167 bound_to 10162
  156.7000  130.9193  151.3078 H   0  0  0  0  0  0  0  0  0  0  0  0  # atno 10718 bound_to 10713
  153.7907  135.6898  153.4872 H   0  0  0  0  0  0  0  0  0  0  0  0  # atno 10763 bound_to 10752
  153.1751  135.4527  154.9953 H   0  0  0  0  0  0  0  0  0  0  0  0  # atno 10764 bound_to 10752
  154.8046  135.3351  154.7403 H   0  0  0  0  0  0  0  0  0  0  0  0  # atno 10765 bound_to 10752
  140.7629  134.3277  157.5096 H   0  0  0  0  0  0  0  0  0  0  0  0  # atno 11005 bound_to 11000
  146.0903  140.7663  142.9598 LP  0  0  0  0  0  0  0  0  0  0  0  0  # atno 17320 bound_to 7965
  144.7004  140.3627  143.7160 LP  0  0  0  0  0  0  0  0  0  0  0  0  # atno 17321 bound_to 7965
  139.6565  144.7662  151.2045 LP  0  0  0  0  0  0  0  0  0  0  0  0  # atno 17342 bound_to 10162
  140.7558  143.6077  150.8636 LP  0  0  0  0  0  0  0  0  0  0  0  0  # atno 17343 bound_to 10162
  157.6976  130.9299  150.0691 LP  0  0  0  0  0  0  0  0  0  0  0  0  # atno 17370 bound_to 10713
  156.1735  130.3647  149.9132 LP  0  0  0  0  0  0  0  0  0  0  0  0  # atno 17371 bound_to 10713
  139.8768  134.9213  156.3273 LP  0  0  0  0  0  0  0  0  0  0  0  0  # atno 17394 bound_to 11000
  140.9646  133.7366  156.0449 LP  0  0  0  0  0  0  0  0  0  0  0  0  # atno 17395 bound_to 11000

$$$$
