AV-unprocessed.smi:2909|AV-procd|sdf|11172|dock4
  -GOLD-   2272016 63D 1   1.00000     0.00000
 Structure written by MMmdl.
 44 45  0  0  0  0  0  0  0  0  1 V2000
  147.6238  133.6576  162.2021 C   0  0  0  0  0  0  0  0  0  0  0  0
  147.6997  134.9486  161.4602 C   0  0  0  0  0  0  0  0  0  0  0  0
  147.9763  135.2226  160.1506 C   0  0  0  0  0  0  0  0  0  0  0  0
  147.9045  136.6449  160.0640 C   0  0  0  0  0  0  0  0  0  0  0  0
  148.1291  137.5103  158.8505 C   0  0  0  0  0  0  0  0  0  0  0  0
  149.5985  137.4939  158.4163 C   0  0  0  0  0  0  0  0  0  0  0  0
  150.3108  136.5309  158.6993 O   0  0  0  0  0  0  0  0  0  0  0  0
  150.0472  138.5725  157.7538 N   0  0  0  0  0  0  0  0  0  0  0  0
  151.4115  138.7747  157.2717 C   0  0  2  0  0  0  0  0  0  0  0  0
  152.4026  138.9138  158.4409 C   0  0  0  0  0  0  0  0  0  0  0  0
  152.1857  140.2127  159.2366 C   0  0  0  0  0  0  0  0  0  0  0  0
  152.2514  141.4778  158.3450 C   0  0  2  0  0  0  0  0  0  0  0  0
  152.0024  142.7846  159.1550 C   0  0  0  0  0  0  0  0  0  0  0  0
  152.1935  144.0568  158.3062 C   0  0  0  0  0  0  0  0  0  0  0  0
  152.8919  142.8876  160.4093 C   0  0  0  0  0  0  0  0  0  0  0  0
  151.2627  141.3235  157.1623 C   0  0  0  0  0  0  0  0  0  0  0  0
  151.4776  140.0198  156.3728 C   0  0  0  0  0  0  0  0  0  0  0  0
  147.5991  137.2058  161.2261 N   0  0  0  0  0  0  0  0  0  0  0  0
  147.4805  136.1630  162.0686 N   0  0  0  0  0  0  0  0  0  0  0  0
  147.2510  136.2935  163.0439 H   0  0  0  0  0  0  0  0  0  0  0  0
  147.3390  132.8430  161.5356 H   0  0  0  0  0  0  0  0  0  0  0  0
  146.8870  133.7081  163.0041 H   0  0  0  0  0  0  0  0  0  0  0  0
  148.5891  133.4104  162.6440 H   0  0  0  0  0  0  0  0  0  0  0  0
  148.2033  134.5135  159.3682 H   0  0  0  0  0  0  0  0  0  0  0  0
  147.5177  137.1603  158.0181 H   0  0  0  0  0  0  0  0  0  0  0  0
  147.8197  138.5374  159.0499 H   0  0  0  0  0  0  0  0  0  0  0  0
  149.3887  139.3147  157.5668 H   0  0  0  0  0  0  0  0  0  0  0  0
  151.6964  137.9102  156.6695 H   0  0  0  0  0  0  0  0  0  0  0  0
  152.3285  138.0527  159.1061 H   0  0  0  0  0  0  0  0  0  0  0  0
  153.4203  138.9034  158.0485 H   0  0  0  0  0  0  0  0  0  0  0  0
  151.2240  140.1728  159.7498 H   0  0  0  0  0  0  0  0  0  0  0  0
  152.9466  140.2514  160.0149 H   0  0  0  0  0  0  0  0  0  0  0  0
  153.2579  141.5327  157.9271 H   0  0  0  0  0  0  0  0  0  0  0  0
  150.9661  142.7784  159.4961 H   0  0  0  0  0  0  0  0  0  0  0  0
  153.1809  144.0810  157.8443 H   0  0  0  0  0  0  0  0  0  0  0  0
  152.0927  144.9557  158.9154 H   0  0  0  0  0  0  0  0  0  0  0  0
  151.4479  144.1375  157.5161 H   0  0  0  0  0  0  0  0  0  0  0  0
  153.9483  142.7961  160.1553 H   0  0  0  0  0  0  0  0  0  0  0  0
  152.6524  142.1206  161.1449 H   0  0  0  0  0  0  0  0  0  0  0  0
  152.7553  143.8462  160.9109 H   0  0  0  0  0  0  0  0  0  0  0  0
  150.2372  141.3647  157.5316 H   0  0  0  0  0  0  0  0  0  0  0  0
  151.3692  142.1515  156.4628 H   0  0  0  0  0  0  0  0  0  0  0  0
  152.4520  140.0568  155.8838 H   0  0  0  0  0  0  0  0  0  0  0  0
  150.7411  139.9442  155.5718 H   0  0  0  0  0  0  0  0  0  0  0  0
  1  2  1  0  0  0  0
  1 21  1  0  0  0  0
  1 22  1  0  0  0  0
  1 23  1  0  0  0  0
  2 19  1  0  0  0  0
  2  3  2  0  0  0  0
  3  4  1  0  0  0  0
  3 24  1  0  0  0  0
  4  5  1  0  0  0  0
  4 18  2  0  0  0  0
  5  6  1  0  0  0  0
  5 25  1  0  0  0  0
  5 26  1  0  0  0  0
  6  7  2  0  0  0  0
  6  8  1  0  0  0  0
  8  9  1  0  0  0  0
  8 27  1  0  0  0  0
  9 17  1  0  0  0  0
  9 10  1  0  0  0  0
  9 28  1  0  0  0  0
 10 11  1  0  0  0  0
 10 29  1  0  0  0  0
 10 30  1  0  0  0  0
 11 12  1  0  0  0  0
 11 31  1  0  0  0  0
 11 32  1  0  0  0  0
 12 13  1  0  0  0  0
 12 16  1  0  0  0  0
 12 33  1  0  0  0  0
 13 14  1  0  0  0  0
 13 15  1  0  0  0  0
 13 34  1  0  0  0  0
 14 35  1  0  0  0  0
 14 36  1  0  0  0  0
 14 37  1  0  0  0  0
 15 38  1  0  0  0  0
 15 39  1  0  0  0  0
 15 40  1  0  0  0  0
 16 17  1  0  0  0  0
 16 41  1  0  0  0  0
 16 42  1  0  0  0  0
 17 43  1  0  0  0  0
 17 44  1  0  0  0  0
 18 19  1  0  0  0  0
 19 20  1  0  0  0  0
M  END
> <s_m_source_file>
AV-unprocessed.smi

> <i_m_source_file_index>
2909

> <i_lp_mmshare_version>
43012

> <i_f3d_flags>
0

> <s_epik_input>
W0NIM11jMVtjSF1jKG5bbkhdMSlbQ0gyXUMoPU8pW05IXVtDQEBIXTJbQ0gyXVtDSDJdW0NAQEhdKFtDSF0oW0NIM10pW0NIM10pW0NIMl1bQ0gyXTI=

> <s_epik_cmdline>
J2VwaWtfcHl0aG9uJywgJy1waCcsICc3LjAnLCAnLXRuJywgJzgnLCAnLW1hJywgJzIwMCcsICctbWV0YWxfYmluZGluZycsICctaW1hZScsICc8aW5maWxlLm1hZT4nLCAnLW9tYWUnLCAnPG91dGZpbGUubWFlPic=

> <r_lp_tautomer_probability>
0.5

> <r_epik_Ionization_Penalty>
9.34828e-05

> <r_epik_Ionization_Penalty_Charging>
0

> <r_epik_Ionization_Penalty_Neutral>
9.34828e-05

> <r_epik_State_Penalty>
0.41068

> <r_epik_Charging_Adjusted_Penalty>
0.41068

> <i_epik_Tot_Q>
0

> <i_epik_Tot_abs_Q>
0

> <r_epik_Metal_State_Penalty>
0.4107

> <b_epik_Metal_Only>
0

> <s_lp_Force_Field>
OPLS_2005

> <r_lp_Energy>
10.758

> <b_lp_Chiralities_Consistent>
1

> <s_lp_Variant>
AV-unprocessed.smi:2909-2

> <Gold.Version>
5.8.1

> <Gold.Id.Protein>
6NUR|6NUR_protein|mol2

> <Gold.PLP.Fitness>
44.7675

> <Gold.PLP.PLP>
-37.3471

> <Gold.PLP.part.hbond>
-3.0000

> <Gold.PLP.part.metal>
0.0000

> <Gold.PLP.part.buried>
-5.1664

> <Gold.PLP.part.nonpolar>
-28.6102

> <Gold.PLP.part.repulsive>
0.2127

> <Gold.PLP.ligand.clash>
0.0000

> <Gold.PLP.ligand.torsion>
0.5261

> <Gold.PLP.Chemscore.Hbond>
2.8160

> <Gold.PLP.Chemscore.CHOScore>
0.0000

> <Gold.PLP.Chemscore.Metal>
0.0000

> <Gold.Chemscore.Hbonds>
donor molecule, donor type, donor heavy atom, donor atom, acceptor molecule, acceptor atom, score
      P1  H  6896  6908       L1     7  0.99
      P1  H  6931  6943       L1    18  0.91
      P1  H  6934  6947       L1    18  0.90

> <Gold.PLP.Chemscore.Internal.Correction>
0.0246

> <Gold.Rescore>
     Score         DG    S(hbond)    S(metal)    S(lipo)     H(rot)  DE(clash)    DE(int)     intcor
     20.19     -20.89       2.36        0.00      97.26       1.50       0.00       0.70       ----

> <Gold.Chemscore.Fitness>
20.1911

> <Gold.Chemscore.DG>
-20.8942

> <Gold.Chemscore.ZeroCoef>
-5.4800

> <Gold.Chemscore.Hbond>
2.3584

> <Gold.Chemscore.Metal>
0.0000

> <Gold.Chemscore.Lipo>
97.2644

> <Gold.Chemscore.Internal_Hbond>
0.0000

> <Gold.Chemscore.DEClash>
0.0009

> <Gold.Chemscore.DEInternal>
0.7022

> <Gold.Chemscore.Rot>
1.5011

> <Gold.Chemscore.Internal.Correction>
   9.000000E+99

> <Gold.Chemscore.Hbonds>
donor molecule, donor type, donor heavy atom, donor atom, acceptor molecule, acceptor atom, score
      P1  H  6896  6908       L1     7  0.88
      P1  H  6931  6943       L1    18  0.41
      P1  H  6934  6947       L1    18  0.62

> <Gold.Chemscore.Hbond.Weighted>
-7.8772

> <Gold.Chemscore.Metal.Weighted>
-0.0000

> <Gold.Chemscore.Lipo.Weighted>
-11.3799

> <Gold.Chemscore.Internal_Hbond.Weighted>
0.0000

> <Gold.Chemscore.DEClash.Weighted>
0.0009

> <Gold.Chemscore.DEInternal.Weighted>
0.7022

> <Gold.Chemscore.Rot.Weighted>
3.8429

> <Gold.Chemscore.Internal.Correction.Weighted>
   9.000000E+99

> <Gold.Protein.RotatedTorsions>
[ 6907 6896 6895 6894 ] final -174.38 input  -60.11 | X-H torsion
[ 7974 7965 7964 7962 ] final -115.09 input  175.53 | X-H torsion
[ 8008 7997 7996 7995 ] final -127.85 input   59.86 | X-H torsion
[ 10167 10162 10161 10158 ] final  -60.92 input  -65.29 | X-H torsion
[ 10718 10713 10712 10709 ] final  -48.81 input   66.30 | X-H torsion
[ 10763 10752 10751 10750 ] final -170.20 input  -60.55 | X-H torsion
[ 11005 11000 10999 10996 ] final   69.97 input  -57.11 | X-H torsion

> <Gold.Protein.ActiveResidues>
 VAL166  LYS551  ARG553  GLY616  TRP617  ASP618  TYR619  PRO620  LYS621  CYS622 
 ASP623  PHE694  ASN695  SER759  ASP760  ASP761  ALA762  ILE779  LEU786  VAL792 
 PHE793  MET794  SER795  GLU796  ALA797  LYS798  CYS799  TRP800  GLU811  SER814 

> <Gold.Protein.RotatedAtoms>
  151.5714  133.3389  159.2990 H   0  0  0  0  0  0  0  0  0  0  0  0  # atno 6907 bound_to 6896
  150.8365  134.7643  159.6908 H   0  0  0  0  0  0  0  0  0  0  0  0  # atno 6908 bound_to 6896
  152.4440  134.5539  159.9926 H   0  0  0  0  0  0  0  0  0  0  0  0  # atno 6909 bound_to 6896
  145.1124  140.8620  143.3862 H   0  0  0  0  0  0  0  0  0  0  0  0  # atno 7974 bound_to 7965
  155.2529  140.0433  157.2989 H   0  0  0  0  0  0  0  0  0  0  0  0  # atno 8008 bound_to 7997
  154.5758  140.2386  155.8095 H   0  0  0  0  0  0  0  0  0  0  0  0  # atno 8009 bound_to 7997
  156.2156  140.2985  155.9841 H   0  0  0  0  0  0  0  0  0  0  0  0  # atno 8010 bound_to 7997
  140.6040  143.2368  151.5864 H   0  0  0  0  0  0  0  0  0  0  0  0  # atno 10167 bound_to 10162
  156.1952  130.4154  149.9316 H   0  0  0  0  0  0  0  0  0  0  0  0  # atno 10718 bound_to 10713
  154.6440  135.2902  155.0068 H   0  0  0  0  0  0  0  0  0  0  0  0  # atno 10763 bound_to 10752
  154.1185  135.6552  153.4902 H   0  0  0  0  0  0  0  0  0  0  0  0  # atno 10764 bound_to 10752
  153.0341  135.5282  154.7320 H   0  0  0  0  0  0  0  0  0  0  0  0  # atno 10765 bound_to 10752
  139.9624  134.7039  156.0618 H   0  0  0  0  0  0  0  0  0  0  0  0  # atno 11005 bound_to 11000
  145.0832  139.2944  143.5773 LP  0  0  0  0  0  0  0  0  0  0  0  0  # atno 17320 bound_to 7965
  146.3525  140.0345  142.8648 LP  0  0  0  0  0  0  0  0  0  0  0  0  # atno 17321 bound_to 7965
  139.5311  144.2913  152.1150 LP  0  0  0  0  0  0  0  0  0  0  0  0  # atno 17342 bound_to 10162
  140.2099  144.4573  150.6391 LP  0  0  0  0  0  0  0  0  0  0  0  0  # atno 17343 bound_to 10162
  156.7043  130.8945  151.3603 LP  0  0  0  0  0  0  0  0  0  0  0  0  # atno 17370 bound_to 10713
  157.6953  130.9276  150.0628 LP  0  0  0  0  0  0  0  0  0  0  0  0  # atno 17371 bound_to 10713
  141.1301  133.6588  156.3442 LP  0  0  0  0  0  0  0  0  0  0  0  0  # atno 17394 bound_to 11000
  140.5472  134.6063  157.5397 LP  0  0  0  0  0  0  0  0  0  0  0  0  # atno 17395 bound_to 11000

$$$$
