AV-unprocessed.smi:2061|AV-procd|sdf|8376|dock1
  -GOLD-   2272011 53D 1   1.00000     0.00000
 Structure written by MMmdl.
 44 45  0  0  0  0  0  0  0  0  2 V2000
  145.6433  136.2821  162.2398 C   0  0  0  0  0  0  0  0  0  0  0  0
  146.6328  136.3193  161.1258 C   0  0  0  0  0  0  0  0  0  0  0  0
  147.3535  135.3471  160.4921 C   0  0  0  0  0  0  0  0  0  0  0  0
  148.0991  136.0740  159.5241 C   0  0  0  0  0  0  0  0  0  0  0  0
  148.9787  135.5552  158.6536 N   0  5  0  0  0  0  0  0  0  0  0  0
  148.9301  135.9022  157.3467 C   0  0  0  0  0  0  0  0  0  0  0  0
  147.9194  135.9595  156.6423 O   0  0  0  0  0  0  0  0  0  0  0  0
  150.1284  136.1959  156.8215 N   0  0  0  0  0  0  0  0  0  0  0  0
  150.3852  136.5816  155.4355 C   0  0  0  0  0  0  0  0  0  0  0  0
  151.2740  137.8533  155.2983 C   0  0  2  0  0  0  0  0  0  0  0  0
  152.4426  137.7568  156.3126 C   0  0  0  0  0  0  0  0  0  0  0  0
  150.5137  139.1200  155.4215 N   0  0  0  0  0  0  0  0  0  0  0  0
  151.3857  140.2738  155.6718 C   0  0  0  0  0  0  0  0  0  0  0  0
  150.6284  141.6126  155.7783 C   0  0  2  0  0  0  0  0  0  0  0  0
  149.8521  141.7713  157.0968 C   0  0  0  0  0  0  0  0  0  0  0  0
  149.7903  141.8026  154.6407 O   0  0  0  0  0  0  0  0  0  0  0  0
  148.9040  140.7228  154.3682 C   0  0  1  0  0  0  0  0  0  0  0  0
  148.1296  141.0565  153.0887 C   0  0  0  0  0  0  0  0  0  0  0  0
  149.7070  139.4164  154.2340 C   0  0  0  0  0  0  0  0  0  0  0  0
  147.8646  137.3745  159.5777 N   0  0  0  0  0  0  0  0  0  0  0  0
  146.9202  137.5394  160.5978 O   0  0  0  0  0  0  0  0  0  0  0  0
  146.1409  136.0863  163.1895 H   0  0  0  0  0  0  0  0  0  0  0  0
  144.9063  135.4961  162.0748 H   0  0  0  0  0  0  0  0  0  0  0  0
  145.1117  137.2302  162.3255 H   0  0  0  0  0  0  0  0  0  0  0  0
  147.3473  134.2851  160.6862 H   0  0  0  0  0  0  0  0  0  0  0  0
  150.9286  136.1379  157.4340 H   0  0  0  0  0  0  0  0  0  0  0  0
  150.8304  135.7136  154.9514 H   0  0  0  0  0  0  0  0  0  0  0  0
  149.4244  136.7465  154.9475 H   0  0  0  0  0  0  0  0  0  0  0  0
  151.7174  137.8285  154.3018 H   0  0  0  0  0  0  0  0  0  0  0  0
  152.9657  136.8029  156.2564 H   0  0  0  0  0  0  0  0  0  0  0  0
  152.0864  137.8744  157.3363 H   0  0  0  0  0  0  0  0  0  0  0  0
  153.2104  138.5078  156.1330 H   0  0  0  0  0  0  0  0  0  0  0  0
  151.9453  140.1452  156.5964 H   0  0  0  0  0  0  0  0  0  0  0  0
  152.1223  140.3483  154.8702 H   0  0  0  0  0  0  0  0  0  0  0  0
  151.3659  142.4151  155.7481 H   0  0  0  0  0  0  0  0  0  0  0  0
  150.5306  141.7500  157.9500 H   0  0  0  0  0  0  0  0  0  0  0  0
  149.1230  140.9746  157.2425 H   0  0  0  0  0  0  0  0  0  0  0  0
  149.3195  142.7222  157.1222 H   0  0  0  0  0  0  0  0  0  0  0  0
  148.1874  140.6257  155.1842 H   0  0  0  0  0  0  0  0  0  0  0  0
  147.4267  140.2619  152.8370 H   0  0  0  0  0  0  0  0  0  0  0  0
  148.8042  141.1877  152.2421 H   0  0  0  0  0  0  0  0  0  0  0  0
  147.5599  141.9784  153.2071 H   0  0  0  0  0  0  0  0  0  0  0  0
  150.3502  139.4663  153.3538 H   0  0  0  0  0  0  0  0  0  0  0  0
  148.9832  138.6252  154.0528 H   0  0  0  0  0  0  0  0  0  0  0  0
  1  2  1  0  0  0  0
  1 22  1  0  0  0  0
  1 23  1  0  0  0  0
  1 24  1  0  0  0  0
  2 21  1  0  0  0  0
  2  3  2  0  0  0  0
  3  4  1  0  0  0  0
  3 25  1  0  0  0  0
  4  5  1  0  0  0  0
  4 20  2  0  0  0  0
  5  6  1  0  0  0  0
  6  7  2  0  0  0  0
  6  8  1  0  0  0  0
  8  9  1  0  0  0  0
  8 26  1  0  0  0  0
  9 10  1  0  0  0  0
  9 27  1  0  0  0  0
  9 28  1  0  0  0  0
 10 11  1  0  0  0  0
 10 12  1  0  0  0  0
 10 29  1  0  0  0  0
 11 30  1  0  0  0  0
 11 31  1  0  0  0  0
 11 32  1  0  0  0  0
 12 19  1  0  0  0  0
 12 13  1  0  0  0  0
 13 14  1  0  0  0  0
 13 33  1  0  0  0  0
 13 34  1  0  0  0  0
 14 15  1  0  0  0  0
 14 16  1  0  0  0  0
 14 35  1  0  0  0  0
 15 36  1  0  0  0  0
 15 37  1  0  0  0  0
 15 38  1  0  0  0  0
 16 17  1  0  0  0  0
 17 18  1  0  0  0  0
 17 19  1  0  0  0  0
 17 39  1  0  0  0  0
 18 40  1  0  0  0  0
 18 41  1  0  0  0  0
 18 42  1  0  0  0  0
 19 43  1  0  0  0  0
 19 44  1  0  0  0  0
 20 21  1  0  0  0  0
M  CHG  1   5  -1
M  END
> <s_m_source_file>
AV-unprocessed.smi

> <i_m_source_file_index>
2061

> <i_lp_mmshare_version>
43012

> <i_f3d_flags>
0

> <s_epik_input>
W0NIM11jMVtjSF1jKG5vMSlbTkhdQyg9TylbTkhdW0NIMl1bQ0BIXShbQ0gzXSlOMltDSDJdW0NAQEhdKFtDSDNdKU9bQ0BASF0oW0NIM10pW0NIMl0y

> <s_epik_cmdline>
J2VwaWtfcHl0aG9uJywgJy1waCcsICc3LjAnLCAnLXRuJywgJzgnLCAnLW1hJywgJzIwMCcsICctbWV0YWxfYmluZGluZycsICctaW1hZScsICc8aW5maWxlLm1hZT4nLCAnLW9tYWUnLCAnPG91dGZpbGUubWFlPic=

> <r_epik_Ionization_Penalty>
6.88367

> <r_epik_Ionization_Penalty_Charging>
6.57198

> <r_epik_Ionization_Penalty_Neutral>
0.311681

> <r_epik_State_Penalty>
6.77619

> <r_epik_Charging_Adjusted_Penalty>
13.3482

> <i_epik_Tot_Q>
-1

> <i_epik_Tot_abs_Q>
1

> <r_epik_Metal_State_Penalty>
2.70524

> <b_epik_Metal_Only>
1

> <s_lp_Force_Field>
OPLS_2005

> <r_lp_Energy>
24.3932

> <b_lp_Chiralities_Consistent>
1

> <s_lp_Variant>
AV-unprocessed.smi:2061-17

> <Gold.Version>
5.8.1

> <Gold.Id.Protein>
6NUR|6NUR_protein|mol2

> <Gold.PLP.Fitness>
40.8917

> <Gold.PLP.PLP>
-33.1910

> <Gold.PLP.part.hbond>
-4.5275

> <Gold.PLP.part.metal>
0.0000

> <Gold.PLP.part.buried>
-3.3607

> <Gold.PLP.part.nonpolar>
-26.2789

> <Gold.PLP.part.repulsive>
0.8922

> <Gold.PLP.ligand.clash>
0.0000

> <Gold.PLP.ligand.torsion>
1.3363

> <Gold.PLP.Chemscore.Hbond>
3.4383

> <Gold.PLP.Chemscore.CHOScore>
0.0000

> <Gold.PLP.Chemscore.Metal>
0.0000

> <Gold.Chemscore.Hbonds>
donor molecule, donor type, donor heavy atom, donor atom, acceptor molecule, acceptor atom, score
      P1  H  6896  6908       L1     5  1.24
      P1  H  6934  6947       L1    21  0.95
      P1  H  7989  7998       L1    16  0.01
      P1  H  8011  8017       L1    16  0.03

> <Gold.PLP.Chemscore.Internal.Correction>
0.0582

> <Gold.Rescore>
     Score         DG    S(hbond)    S(metal)    S(lipo)     H(rot)  DE(clash)    DE(int)     intcor
     15.45     -16.83       1.72        0.00      81.07       1.52       0.32       1.06       ----

> <Gold.Chemscore.Fitness>
15.4472

> <Gold.Chemscore.DG>
-16.8255

> <Gold.Chemscore.ZeroCoef>
-5.4800

> <Gold.Chemscore.Hbond>
1.7212

> <Gold.Chemscore.Metal>
0.0000

> <Gold.Chemscore.Lipo>
81.0719

> <Gold.Chemscore.Internal_Hbond>
0.0000

> <Gold.Chemscore.DEClash>
0.3206

> <Gold.Chemscore.DEInternal>
1.0578

> <Gold.Chemscore.Rot>
1.5190

> <Gold.Chemscore.Internal.Correction>
   9.000000E+99

> <Gold.Chemscore.Hbonds>
donor molecule, donor type, donor heavy atom, donor atom, acceptor molecule, acceptor atom, score
      P1  H  6896  6908       L1     5  0.59
      P1  H  6934  6947       L1    21  0.20

> <Gold.Chemscore.Hbond.Weighted>
-5.7487

> <Gold.Chemscore.Metal.Weighted>
-0.0000

> <Gold.Chemscore.Lipo.Weighted>
-9.4854

> <Gold.Chemscore.Internal_Hbond.Weighted>
0.0000

> <Gold.Chemscore.DEClash.Weighted>
0.3206

> <Gold.Chemscore.DEInternal.Weighted>
1.0578

> <Gold.Chemscore.Rot.Weighted>
3.8886

> <Gold.Chemscore.Internal.Correction.Weighted>
   9.000000E+99

> <Gold.Protein.RotatedTorsions>
[ 6907 6896 6895 6894 ] final  156.17 input  -60.11 | X-H torsion
[ 7974 7965 7964 7962 ] final  168.09 input  175.53 | X-H torsion
[ 8008 7997 7996 7995 ] final   27.82 input   59.86 | X-H torsion
[ 10167 10162 10161 10158 ] final   19.81 input  -65.29 | X-H torsion
[ 10718 10713 10712 10709 ] final  -79.15 input   66.30 | X-H torsion
[ 10763 10752 10751 10750 ] final   66.39 input  -60.55 | X-H torsion
[ 11005 11000 10999 10996 ] final -118.14 input  -57.11 | X-H torsion

> <Gold.Protein.ActiveResidues>
 VAL166  LYS551  ARG553  GLY616  TRP617  ASP618  TYR619  PRO620  LYS621  CYS622 
 ASP623  PHE694  ASN695  SER759  ASP760  ASP761  ALA762  ILE779  LEU786  VAL792 
 PHE793  MET794  SER795  GLU796  ALA797  LYS798  CYS799  TRP800  GLU811  SER814 

> <Gold.Protein.RotatedAtoms>
  152.0335  133.3947  159.4306 H   0  0  0  0  0  0  0  0  0  0  0  0  # atno 6907 bound_to 6896
  150.6880  134.3494  159.4912 H   0  0  0  0  0  0  0  0  0  0  0  0  # atno 6908 bound_to 6896
  152.1283  134.9153  160.0610 H   0  0  0  0  0  0  0  0  0  0  0  0  # atno 6909 bound_to 6896
  144.7401  139.8857  143.6399 H   0  0  0  0  0  0  0  0  0  0  0  0  # atno 7974 bound_to 7965
  155.0490  140.3177  155.4698 H   0  0  0  0  0  0  0  0  0  0  0  0  # atno 8008 bound_to 7997
  156.2838  140.2149  156.5559 H   0  0  0  0  0  0  0  0  0  0  0  0  # atno 8009 bound_to 7997
  154.7226  140.0488  157.0641 H   0  0  0  0  0  0  0  0  0  0  0  0  # atno 8010 bound_to 7997
  140.5551  143.9440  150.6603 H   0  0  0  0  0  0  0  0  0  0  0  0  # atno 10167 bound_to 10162
  156.0099  130.4538  150.3605 H   0  0  0  0  0  0  0  0  0  0  0  0  # atno 10718 bound_to 10713
  153.0138  135.5322  154.6817 H   0  0  0  0  0  0  0  0  0  0  0  0  # atno 10763 bound_to 10752
  154.5975  135.2865  155.0573 H   0  0  0  0  0  0  0  0  0  0  0  0  # atno 10764 bound_to 10752
  154.1642  135.6542  153.5046 H   0  0  0  0  0  0  0  0  0  0  0  0  # atno 10765 bound_to 10752
  141.0306  133.9986  157.3148 H   0  0  0  0  0  0  0  0  0  0  0  0  # atno 11005 bound_to 11000
  146.1179  139.4193  143.0247 LP  0  0  0  0  0  0  0  0  0  0  0  0  # atno 17320 bound_to 7965
  145.7348  141.0029  143.1332 LP  0  0  0  0  0  0  0  0  0  0  0  0  # atno 17321 bound_to 7965
  140.2876  143.3346  152.1093 LP  0  0  0  0  0  0  0  0  0  0  0  0  # atno 17342 bound_to 10162
  139.5044  144.6775  151.6092 LP  0  0  0  0  0  0  0  0  0  0  0  0  # atno 17343 bound_to 10162
  157.1694  131.0365  151.2803 LP  0  0  0  0  0  0  0  0  0  0  0  0  # atno 17370 bound_to 10713
  157.4242  130.7454  149.6938 LP  0  0  0  0  0  0  0  0  0  0  0  0  # atno 17371 bound_to 10713
  139.9206  135.0200  156.8048 LP  0  0  0  0  0  0  0  0  0  0  0  0  # atno 17394 bound_to 11000
  140.6412  133.9816  155.7709 LP  0  0  0  0  0  0  0  0  0  0  0  0  # atno 17395 bound_to 11000

$$$$
