AV-unprocessed.smi:851|AV-procd|sdf|3950|dock3
  -GOLD-   22720 1423D 1   1.00000     0.00000
 Structure written by MMmdl.
 34 35  0  0  0  0  0  0  0  0  1 V2000
  144.7019  138.1371  161.6247 C   0  0  0  0  0  0  0  0  0  0  0  0
  145.9517  137.6836  161.1174 O   0  0  0  0  0  0  0  0  0  0  0  0
  146.3470  136.3885  161.3949 C   0  0  0  0  0  0  0  0  0  0  0  0
  145.5249  135.6064  162.1386 N   0  0  0  0  0  0  0  0  0  0  0  0
  145.9142  134.3441  162.4123 C   0  0  0  0  0  0  0  0  0  0  0  0
  147.1344  133.8010  161.9698 C   0  0  0  0  0  0  0  0  0  0  0  0
  147.9885  134.6102  161.1979 C   0  0  0  0  0  0  0  0  0  0  0  0
  147.5868  135.9325  160.8905 C   0  0  0  0  0  0  0  0  0  0  0  0
  148.3731  136.8451  160.1363 N   0  0  0  0  0  0  0  0  0  0  0  0
  149.2357  136.5974  159.1321 C   0  0  0  0  0  0  0  0  0  0  0  0
  149.5169  135.4790  158.7076 O   0  0  0  0  0  0  0  0  0  0  0  0
  149.7728  137.7043  158.5874 N   0  0  0  0  0  0  0  0  0  0  0  0
  150.7367  137.7941  157.4888 C   0  0  1  0  0  0  0  0  0  0  0  0
  150.2170  137.0634  156.2367 C   0  0  0  0  0  0  0  0  0  0  0  0
  151.0781  137.4721  155.0348 C   0  0  0  0  0  0  0  0  0  0  0  0
  151.6417  139.1843  155.3707 S   0  0  0  0  0  0  0  0  0  0  0  0
  153.1123  139.2075  155.3804 O   0  0  0  0  0  0  0  0  0  0  0  0
  150.8744  140.1293  154.5456 O   0  0  0  0  0  0  0  0  0  0  0  0
  151.0226  139.2522  157.0927 C   0  0  0  0  0  0  0  0  0  0  0  0
  144.5420  139.1700  161.3154 H   0  0  0  0  0  0  0  0  0  0  0  0
  144.6810  138.1115  162.7150 H   0  0  0  0  0  0  0  0  0  0  0  0
  143.8733  137.5436  161.2355 H   0  0  0  0  0  0  0  0  0  0  0  0
  145.2352  133.7510  163.0070 H   0  0  0  0  0  0  0  0  0  0  0  0
  147.4113  132.7879  162.2208 H   0  0  0  0  0  0  0  0  0  0  0  0
  148.9342  134.2059  160.8726 H   0  0  0  0  0  0  0  0  0  0  0  0
  148.1926  137.8202  160.3264 H   0  0  0  0  0  0  0  0  0  0  0  0
  149.4604  138.5860  158.9684 H   0  0  0  0  0  0  0  0  0  0  0  0
  151.6749  137.3165  157.7777 H   0  0  0  0  0  0  0  0  0  0  0  0
  150.2084  135.9814  156.3723 H   0  0  0  0  0  0  0  0  0  0  0  0
  149.1868  137.3678  156.0455 H   0  0  0  0  0  0  0  0  0  0  0  0
  151.9610  136.8371  154.9582 H   0  0  0  0  0  0  0  0  0  0  0  0
  150.5362  137.4306  154.0898 H   0  0  0  0  0  0  0  0  0  0  0  0
  150.1086  139.8474  157.0938 H   0  0  0  0  0  0  0  0  0  0  0  0
  151.7562  139.7405  157.7347 H   0  0  0  0  0  0  0  0  0  0  0  0
  1  2  1  0  0  0  0
  1 20  1  0  0  0  0
  1 21  1  0  0  0  0
  1 22  1  0  0  0  0
  2  3  1  0  0  0  0
  3  8  1  0  0  0  0
  3  4  2  0  0  0  0
  4  5  1  0  0  0  0
  5  6  2  0  0  0  0
  5 23  1  0  0  0  0
  6  7  1  0  0  0  0
  6 24  1  0  0  0  0
  7  8  2  0  0  0  0
  7 25  1  0  0  0  0
  8  9  1  0  0  0  0
  9 10  1  0  0  0  0
  9 26  1  0  0  0  0
 10 11  2  0  0  0  0
 10 12  1  0  0  0  0
 12 13  1  0  0  0  0
 12 27  1  0  0  0  0
 13 19  1  0  0  0  0
 13 14  1  0  0  0  0
 13 28  1  0  0  0  0
 14 15  1  0  0  0  0
 14 29  1  0  0  0  0
 14 30  1  0  0  0  0
 15 16  1  0  0  0  0
 15 31  1  0  0  0  0
 15 32  1  0  0  0  0
 16 17  2  0  0  0  0
 16 18  2  0  0  0  0
 16 19  1  0  0  0  0
 19 33  1  0  0  0  0
 19 34  1  0  0  0  0
M  END
> <s_m_source_file>
AV-unprocessed.smi

> <i_m_source_file_index>
851

> <i_lp_mmshare_version>
43012

> <i_f3d_flags>
0

> <s_epik_input>
W0NIM11PYzFuW2NIXVtjSF1bY0hdYzFbTkhdQyg9TylbTkhdW0NAQEhdKFtDSDJdMilbQ0gyXVtDSDJdUzIoPU8pPU8=

> <s_epik_cmdline>
J2VwaWtfcHl0aG9uJywgJy1waCcsICc3LjAnLCAnLXRuJywgJzgnLCAnLW1hJywgJzIwMCcsICctbWV0YWxfYmluZGluZycsICctaW1hZScsICc8aW5maWxlLm1hZT4nLCAnLW9tYWUnLCAnPG91dGZpbGUubWFlPic=

> <r_lp_tautomer_probability>
1

> <r_epik_Ionization_Penalty>
7.64927e-05

> <r_epik_Ionization_Penalty_Charging>
0

> <r_epik_Ionization_Penalty_Neutral>
7.64927e-05

> <r_epik_State_Penalty>
-0

> <r_epik_Charging_Adjusted_Penalty>
0

> <i_epik_Tot_Q>
0

> <i_epik_Tot_abs_Q>
0

> <r_epik_Metal_State_Penalty>
-0

> <b_epik_Metal_Only>
0

> <s_lp_Force_Field>
OPLS_2005

> <r_lp_Energy>
17.9576

> <b_lp_Chiralities_Consistent>
1

> <s_lp_Variant>
AV-unprocessed.smi:851-2

> <Gold.Version>
5.8.1

> <Gold.Id.Protein>
6NUR|6NUR_protein|mol2

> <Gold.PLP.Fitness>
39.1923

> <Gold.PLP.PLP>
-27.6370

> <Gold.PLP.part.hbond>
-4.0000

> <Gold.PLP.part.metal>
0.0000

> <Gold.PLP.part.buried>
-6.4873

> <Gold.PLP.part.nonpolar>
-18.0302

> <Gold.PLP.part.repulsive>
0.4861

> <Gold.PLP.ligand.clash>
0.0000

> <Gold.PLP.ligand.torsion>
0.2230

> <Gold.PLP.Chemscore.Hbond>
4.0000

> <Gold.PLP.Chemscore.CHOScore>
0.0000

> <Gold.PLP.Chemscore.Metal>
0.0000

> <Gold.Chemscore.Hbonds>
donor molecule, donor type, donor heavy atom, donor atom, acceptor molecule, acceptor atom, score
      P1  H  6896  6908       L1    11  1.00
      P1  H  6934  6947       L1     2  1.00
      P1  H  7989  7998       L1    18  0.89
      P1  H  7997  8010       L1    17  1.00

> <Gold.PLP.Chemscore.Internal.Correction>
0.0013

> <Gold.Rescore>
     Score         DG    S(hbond)    S(metal)    S(lipo)     H(rot)  DE(clash)    DE(int)     intcor
     20.07     -20.61       3.80        0.00      49.52       1.31       0.18       0.36       ----

> <Gold.Chemscore.Fitness>
20.0714

> <Gold.Chemscore.DG>
-20.6100

> <Gold.Chemscore.ZeroCoef>
-5.4800

> <Gold.Chemscore.Hbond>
3.8001

> <Gold.Chemscore.Metal>
0.0000

> <Gold.Chemscore.Lipo>
49.5176

> <Gold.Chemscore.Internal_Hbond>
0.0000

> <Gold.Chemscore.DEClash>
0.1790

> <Gold.Chemscore.DEInternal>
0.3596

> <Gold.Chemscore.Rot>
1.3109

> <Gold.Chemscore.Internal.Correction>
   9.000000E+99

> <Gold.Chemscore.Hbonds>
donor molecule, donor type, donor heavy atom, donor atom, acceptor molecule, acceptor atom, score
      P1  H  6896  6908       L1    11  0.97
      P1  H  6934  6947       L1     2  0.79
      P1  H  7989  7998       L1    18  0.82
      P1  H  7997  8010       L1    17  1.00

> <Gold.Chemscore.Hbond.Weighted>
-12.6923

> <Gold.Chemscore.Metal.Weighted>
-0.0000

> <Gold.Chemscore.Lipo.Weighted>
-5.7936

> <Gold.Chemscore.Internal_Hbond.Weighted>
0.0000

> <Gold.Chemscore.DEClash.Weighted>
0.1790

> <Gold.Chemscore.DEInternal.Weighted>
0.3596

> <Gold.Chemscore.Rot.Weighted>
3.3559

> <Gold.Chemscore.Internal.Correction.Weighted>
   9.000000E+99

> <Gold.Protein.RotatedTorsions>
[ 6907 6896 6895 6894 ] final  154.05 input  -60.11 | X-H torsion
[ 7974 7965 7964 7962 ] final  113.49 input  175.53 | X-H torsion
[ 8008 7997 7996 7995 ] final   92.55 input   59.86 | X-H torsion
[ 10167 10162 10161 10158 ] final -124.91 input  -65.29 | X-H torsion
[ 10718 10713 10712 10709 ] final   19.75 input   66.30 | X-H torsion
[ 10763 10752 10751 10750 ] final   51.79 input  -60.55 | X-H torsion
[ 11005 11000 10999 10996 ] final -101.67 input  -57.11 | X-H torsion

> <Gold.Protein.ActiveResidues>
 VAL166  LYS551  ARG553  GLY616  TRP617  ASP618  TYR619  PRO620  LYS621  CYS622 
 ASP623  PHE694  ASN695  SER759  ASP760  ASP761  ALA762  ILE779  LEU786  VAL792 
 PHE793  MET794  SER795  GLU796  ALA797  LYS798  CYS799  TRP800  GLU811  SER814 

> <Gold.Protein.RotatedAtoms>
  152.0640  133.4075  159.4429 H   0  0  0  0  0  0  0  0  0  0  0  0  # atno 6907 bound_to 6896
  150.6865  134.3168  159.4778 H   0  0  0  0  0  0  0  0  0  0  0  0  # atno 6908 bound_to 6896
  152.0992  134.9353  160.0620 H   0  0  0  0  0  0  0  0  0  0  0  0  # atno 6909 bound_to 6896
  145.2163  139.2883  143.4242 H   0  0  0  0  0  0  0  0  0  0  0  0  # atno 7974 bound_to 7965
  156.0366  140.3324  155.7198 H   0  0  0  0  0  0  0  0  0  0  0  0  # atno 8008 bound_to 7997
  155.5806  140.0636  157.2802 H   0  0  0  0  0  0  0  0  0  0  0  0  # atno 8009 bound_to 7997
  154.4375  140.1844  156.0961 H   0  0  0  0  0  0  0  0  0  0  0  0  # atno 8010 bound_to 7997
  139.9877  143.5674  152.2354 H   0  0  0  0  0  0  0  0  0  0  0  0  # atno 10167 bound_to 10162
  157.1148  130.6524  149.5907 H   0  0  0  0  0  0  0  0  0  0  0  0  # atno 10718 bound_to 10713
  152.9786  135.5834  154.4472 H   0  0  0  0  0  0  0  0  0  0  0  0  # atno 10763 bound_to 10752
  154.4066  135.2769  155.2065 H   0  0  0  0  0  0  0  0  0  0  0  0  # atno 10764 bound_to 10752
  154.3873  135.6133  153.5878 H   0  0  0  0  0  0  0  0  0  0  0  0  # atno 10765 bound_to 10752
  141.1221  133.8496  157.1261 H   0  0  0  0  0  0  0  0  0  0  0  0  # atno 11005 bound_to 11000
  146.3386  140.2455  142.8597 LP  0  0  0  0  0  0  0  0  0  0  0  0  # atno 17320 bound_to 7965
  144.9808  140.8457  143.5398 LP  0  0  0  0  0  0  0  0  0  0  0  0  # atno 17321 bound_to 7965
  139.6363  144.7650  151.2431 LP  0  0  0  0  0  0  0  0  0  0  0  0  # atno 17342 bound_to 10162
  140.7466  143.6393  150.8350 LP  0  0  0  0  0  0  0  0  0  0  0  0  # atno 17343 bound_to 10162
  155.9842  130.4865  150.6971 LP  0  0  0  0  0  0  0  0  0  0  0  0  # atno 17370 bound_to 10713
  157.4528  131.0874  151.0828 LP  0  0  0  0  0  0  0  0  0  0  0  0  # atno 17371 bound_to 10713
  140.0188  134.9955  157.0548 LP  0  0  0  0  0  0  0  0  0  0  0  0  # atno 17394 bound_to 11000
  140.4475  134.1616  155.7178 LP  0  0  0  0  0  0  0  0  0  0  0  0  # atno 17395 bound_to 11000

$$$$
