AV-unprocessed.smi:1323|AV-procd|sdf|5467|dock9
  -GOLD-   22720 5 33D 1   1.00000     0.00000
 Structure written by MMmdl.
 45 46  0  0  0  0  0  0  0  0  1 V2000
  151.0863  141.8910  157.1417 C   0  0  0  0  0  0  0  0  0  0  0  0
  151.0704  142.9954  158.2088 C   0  0  2  0  0  0  0  0  0  0  0  0
  151.6673  144.3141  157.6776 C   0  0  0  0  0  0  0  0  0  0  0  0
  151.5858  145.4322  158.7284 C   0  0  0  0  0  0  0  0  0  0  0  0
  152.2633  145.0137  160.0418 C   0  0  0  0  0  0  0  0  0  0  0  0
  151.6827  143.6927  160.5753 C   0  0  0  0  0  0  0  0  0  0  0  0
  151.7587  142.5671  159.5273 C   0  0  2  0  0  0  0  0  0  0  0  0
  153.1349  142.2953  159.2945 O   0  0  0  0  0  0  0  0  0  0  0  0
  153.8886  141.9751  160.4530 C   0  0  0  0  0  0  0  0  0  0  0  0
  154.6043  140.6351  160.2300 C   0  0  0  0  0  0  0  0  0  0  0  0
  153.6794  139.5092  160.3200 N   0  0  0  0  0  0  0  0  0  0  0  0
  153.4633  138.6045  159.3523 C   0  0  0  0  0  0  0  0  0  0  0  0
  154.0519  138.6200  158.2704 O   0  0  0  0  0  0  0  0  0  0  0  0
  152.4433  137.5029  159.6736 C   0  0  0  0  0  0  0  0  0  0  0  0
  151.4403  137.3181  158.6114 N   0  0  0  0  0  0  0  0  0  0  0  0
  150.1277  137.7496  158.8889 C   0  0  0  0  0  0  0  0  0  0  0  0
  149.1323  137.6147  157.9985 C   0  0  0  0  0  0  0  0  0  0  0  0
  149.4343  137.0061  156.7245 C   0  0  0  0  0  0  0  0  0  0  0  0
  150.6866  136.5908  156.4483 C   0  0  0  0  0  0  0  0  0  0  0  0
  151.7784  136.7420  157.4168 C   0  0  0  0  0  0  0  0  0  0  0  0
  152.9261  136.3743  157.1668 O   0  0  0  0  0  0  0  0  0  0  0  0
  152.1025  141.6557  156.8257 H   0  0  0  0  0  0  0  0  0  0  0  0
  150.5293  142.1956  156.2553 H   0  0  0  0  0  0  0  0  0  0  0  0
  150.6319  140.9744  157.5179 H   0  0  0  0  0  0  0  0  0  0  0  0
  150.0216  143.1858  158.4411 H   0  0  0  0  0  0  0  0  0  0  0  0
  152.7082  144.1612  157.3911 H   0  0  0  0  0  0  0  0  0  0  0  0
  151.1436  144.6252  156.7733 H   0  0  0  0  0  0  0  0  0  0  0  0
  152.0530  146.3385  158.3424 H   0  0  0  0  0  0  0  0  0  0  0  0
  150.5409  145.6794  158.9186 H   0  0  0  0  0  0  0  0  0  0  0  0
  153.3364  144.9043  159.8792 H   0  0  0  0  0  0  0  0  0  0  0  0
  152.1444  145.7997  160.7879 H   0  0  0  0  0  0  0  0  0  0  0  0
  152.2110  143.3940  161.4814 H   0  0  0  0  0  0  0  0  0  0  0  0
  150.6424  143.8474  160.8641 H   0  0  0  0  0  0  0  0  0  0  0  0
  151.2538  141.6893  159.9360 H   0  0  0  0  0  0  0  0  0  0  0  0
  154.6209  142.7638  160.6300 H   0  0  0  0  0  0  0  0  0  0  0  0
  153.2530  141.9191  161.3376 H   0  0  0  0  0  0  0  0  0  0  0  0
  155.1313  140.6336  159.2744 H   0  0  0  0  0  0  0  0  0  0  0  0
  155.3634  140.4986  161.0002 H   0  0  0  0  0  0  0  0  0  0  0  0
  153.1572  139.4169  161.1791 H   0  0  0  0  0  0  0  0  0  0  0  0
  152.9896  136.5736  159.8409 H   0  0  0  0  0  0  0  0  0  0  0  0
  151.9572  137.7221  160.6262 H   0  0  0  0  0  0  0  0  0  0  0  0
  149.9846  138.1853  159.8672 H   0  0  0  0  0  0  0  0  0  0  0  0
  148.1316  137.9479  158.2308 H   0  0  0  0  0  0  0  0  0  0  0  0
  148.6519  136.8810  155.9905 H   0  0  0  0  0  0  0  0  0  0  0  0
  150.8937  136.1353  155.4910 H   0  0  0  0  0  0  0  0  0  0  0  0
  1  2  1  0  0  0  0
  1 22  1  0  0  0  0
  1 23  1  0  0  0  0
  1 24  1  0  0  0  0
  2  7  1  0  0  0  0
  2  3  1  0  0  0  0
  2 25  1  0  0  0  0
  3  4  1  0  0  0  0
  3 26  1  0  0  0  0
  3 27  1  0  0  0  0
  4  5  1  0  0  0  0
  4 28  1  0  0  0  0
  4 29  1  0  0  0  0
  5  6  1  0  0  0  0
  5 30  1  0  0  0  0
  5 31  1  0  0  0  0
  6  7  1  0  0  0  0
  6 32  1  0  0  0  0
  6 33  1  0  0  0  0
  7  8  1  0  0  0  0
  7 34  1  0  0  0  0
  8  9  1  0  0  0  0
  9 10  1  0  0  0  0
  9 35  1  0  0  0  0
  9 36  1  0  0  0  0
 10 11  1  0  0  0  0
 10 37  1  0  0  0  0
 10 38  1  0  0  0  0
 11 12  1  0  0  0  0
 11 39  1  0  0  0  0
 12 13  2  0  0  0  0
 12 14  1  0  0  0  0
 14 15  1  0  0  0  0
 14 40  1  0  0  0  0
 14 41  1  0  0  0  0
 15 20  1  0  0  0  0
 15 16  1  0  0  0  0
 16 17  2  0  0  0  0
 16 42  1  0  0  0  0
 17 18  1  0  0  0  0
 17 43  1  0  0  0  0
 18 19  2  0  0  0  0
 18 44  1  0  0  0  0
 19 20  1  0  0  0  0
 19 45  1  0  0  0  0
 20 21  2  0  0  0  0
M  END
> <s_m_source_file>
AV-unprocessed.smi

> <i_m_source_file_index>
1323

> <i_lp_mmshare_version>
43012

> <i_f3d_flags>
0

> <s_epik_input>
W0NIM11bQ0BASF0xW0NIMl1bQ0gyXVtDSDJdW0NIMl1bQ0BIXTFPW0NIMl1bQ0gyXVtOSF1DKD1PKVtDSDJdbjJbY0hdW2NIXVtjSF1bY0hdYzI9Tw==

> <s_epik_cmdline>
J2VwaWtfcHl0aG9uJywgJy1waCcsICc3LjAnLCAnLXRuJywgJzgnLCAnLW1hJywgJzIwMCcsICctbWV0YWxfYmluZGluZycsICctaW1hZScsICc8aW5maWxlLm1hZT4nLCAnLW9tYWUnLCAnPG91dGZpbGUubWFlPic=

> <r_lp_tautomer_probability>
1

> <r_epik_Ionization_Penalty>
4.02412e-07

> <r_epik_Ionization_Penalty_Charging>
3.74552e-07

> <r_epik_Ionization_Penalty_Neutral>
2.78599e-08

> <r_epik_State_Penalty>
-0

> <r_epik_Charging_Adjusted_Penalty>
3.74552e-07

> <i_epik_Tot_Q>
0

> <i_epik_Tot_abs_Q>
0

> <r_epik_Metal_State_Penalty>
-0

> <b_epik_Metal_Only>
0

> <s_lp_Force_Field>
OPLS_2005

> <r_lp_Energy>
19.1209

> <b_lp_Chiralities_Consistent>
1

> <s_lp_Variant>
AV-unprocessed.smi:1323-3

> <Gold.Version>
5.8.1

> <Gold.Id.Protein>
6NUR|6NUR_protein|mol2

> <Gold.PLP.Fitness>
42.5778

> <Gold.PLP.PLP>
-37.8287

> <Gold.PLP.part.hbond>
-2.0000

> <Gold.PLP.part.metal>
0.0000

> <Gold.PLP.part.buried>
-5.5420

> <Gold.PLP.part.nonpolar>
-30.0303

> <Gold.PLP.part.repulsive>
0.0621

> <Gold.PLP.ligand.clash>
0.0000

> <Gold.PLP.ligand.torsion>
0.6498

> <Gold.PLP.Chemscore.Hbond>
2.0000

> <Gold.PLP.Chemscore.CHOScore>
0.0000

> <Gold.PLP.Chemscore.Metal>
0.0000

> <Gold.Chemscore.Hbonds>
donor molecule, donor type, donor heavy atom, donor atom, acceptor molecule, acceptor atom, score
      P1  H  7997  8010       L1    13  1.00
      P1  H 10752 10765       L1    21  0.59

> <Gold.PLP.Chemscore.Internal.Correction>
0.0487

> <Gold.Rescore>
     Score         DG    S(hbond)    S(metal)    S(lipo)     H(rot)  DE(clash)    DE(int)     intcor
     19.19     -20.16       1.99        0.00     111.14       1.94       0.15       0.82       ----

> <Gold.Chemscore.Fitness>
19.1869

> <Gold.Chemscore.DG>
-20.1576

> <Gold.Chemscore.ZeroCoef>
-5.4800

> <Gold.Chemscore.Hbond>
1.9880

> <Gold.Chemscore.Metal>
0.0000

> <Gold.Chemscore.Lipo>
111.1417

> <Gold.Chemscore.Internal_Hbond>
0.0000

> <Gold.Chemscore.DEClash>
0.1461

> <Gold.Chemscore.DEInternal>
0.8246

> <Gold.Chemscore.Rot>
1.9398

> <Gold.Chemscore.Internal.Correction>
   9.000000E+99

> <Gold.Chemscore.Hbonds>
donor molecule, donor type, donor heavy atom, donor atom, acceptor molecule, acceptor atom, score
      P1  H  7997  8010       L1    13  0.99
      P1  H 10752 10765       L1    21  0.56

> <Gold.Chemscore.Hbond.Weighted>
-6.6399

> <Gold.Chemscore.Metal.Weighted>
-0.0000

> <Gold.Chemscore.Lipo.Weighted>
-13.0036

> <Gold.Chemscore.Internal_Hbond.Weighted>
0.0000

> <Gold.Chemscore.DEClash.Weighted>
0.1461

> <Gold.Chemscore.DEInternal.Weighted>
0.8246

> <Gold.Chemscore.Rot.Weighted>
4.9659

> <Gold.Chemscore.Internal.Correction.Weighted>
   9.000000E+99

> <Gold.Protein.RotatedTorsions>
[ 6907 6896 6895 6894 ] final   14.50 input  -60.11 | X-H torsion
[ 7974 7965 7964 7962 ] final   46.56 input  175.53 | X-H torsion
[ 8008 7997 7996 7995 ] final   12.73 input   59.86 | X-H torsion
[ 10167 10162 10161 10158 ] final   54.46 input  -65.29 | X-H torsion
[ 10718 10713 10712 10709 ] final  119.96 input   66.30 | X-H torsion
[ 10763 10752 10751 10750 ] final -135.83 input  -60.55 | X-H torsion
[ 11005 11000 10999 10996 ] final  -68.09 input  -57.11 | X-H torsion

> <Gold.Protein.ActiveResidues>
 VAL166  LYS551  ARG553  GLY616  TRP617  ASP618  TYR619  PRO620  LYS621  CYS622 
 ASP623  PHE694  ASN695  SER759  ASP760  ASP761  ALA762  ILE779  LEU786  VAL792 
 PHE793  MET794  SER795  GLU796  ALA797  LYS798  CYS799  TRP800  GLU811  SER814 

> <Gold.Protein.RotatedAtoms>
  151.8031  135.0703  160.0402 H   0  0  0  0  0  0  0  0  0  0  0  0  # atno 6907 bound_to 6896
  152.3074  133.5713  159.5667 H   0  0  0  0  0  0  0  0  0  0  0  0  # atno 6908 bound_to 6896
  150.7303  134.0118  159.3714 H   0  0  0  0  0  0  0  0  0  0  0  0  # atno 6909 bound_to 6896
  146.0379  139.4843  142.9797 H   0  0  0  0  0  0  0  0  0  0  0  0  # atno 7974 bound_to 7965
  154.8247  140.2889  155.5763 H   0  0  0  0  0  0  0  0  0  0  0  0  # atno 8008 bound_to 7997
  156.3000  140.2543  156.3091 H   0  0  0  0  0  0  0  0  0  0  0  0  # atno 8009 bound_to 7997
  154.9299  140.0384  157.2032 H   0  0  0  0  0  0  0  0  0  0  0  0  # atno 8010 bound_to 7997
  140.2299  144.3698  150.6418 H   0  0  0  0  0  0  0  0  0  0  0  0  # atno 10167 bound_to 10162
  157.5924  131.1062  150.7970 H   0  0  0  0  0  0  0  0  0  0  0  0  # atno 10718 bound_to 10713
  154.8695  135.3691  154.4962 H   0  0  0  0  0  0  0  0  0  0  0  0  # atno 10763 bound_to 10752
  153.5605  135.7023  153.5554 H   0  0  0  0  0  0  0  0  0  0  0  0  # atno 10764 bound_to 10752
  153.3632  135.4041  155.1697 H   0  0  0  0  0  0  0  0  0  0  0  0  # atno 10765 bound_to 10752
  141.1524  133.6733  156.6393 H   0  0  0  0  0  0  0  0  0  0  0  0  # atno 11005 bound_to 11000
  145.6933  141.0158  143.1543 LP  0  0  0  0  0  0  0  0  0  0  0  0  # atno 17320 bound_to 7965
  144.7060  139.8559  143.7429 LP  0  0  0  0  0  0  0  0  0  0  0  0  # atno 17321 bound_to 7965
  140.6193  143.2175  151.6727 LP  0  0  0  0  0  0  0  0  0  0  0  0  # atno 17342 bound_to 10162
  139.5114  144.3511  152.0651 LP  0  0  0  0  0  0  0  0  0  0  0  0  # atno 17343 bound_to 10162
  156.8388  130.5041  149.5323 LP  0  0  0  0  0  0  0  0  0  0  0  0  # atno 17370 bound_to 10713
  156.0981  130.5948  150.9848 LP  0  0  0  0  0  0  0  0  0  0  0  0  # atno 17371 bound_to 10713
  140.3406  134.7852  157.4394 LP  0  0  0  0  0  0  0  0  0  0  0  0  # atno 17394 bound_to 11000
  140.0941  134.5561  155.8415 LP  0  0  0  0  0  0  0  0  0  0  0  0  # atno 17395 bound_to 11000

$$$$
