AV-unprocessed.smi:1510|AV-procd|sdf|6094|dock3
  -GOLD-   22720 6223D 1   1.00000     0.00000
 Structure written by MMmdl.
 32 33  0  0  0  0  0  0  0  0  2 V2000
  150.8719  137.2759  159.7216 O   0  0  0  0  0  0  0  0  0  0  0  0
  150.0121  137.7702  158.9907 C   0  0  0  0  0  0  0  0  0  0  0  0
  148.6374  137.1044  158.8209 C   0  0  0  0  0  0  0  0  0  0  0  0
  148.1769  136.3730  160.0105 N   0  0  0  0  0  0  0  0  0  0  0  0
  147.7540  137.2375  161.1090 N   0  5  0  0  0  0  0  0  0  0  0  0
  147.2865  136.6730  162.2539 C   0  0  0  0  0  0  0  0  0  0  0  0
  146.8962  137.3355  163.2125 O   0  0  0  0  0  0  0  0  0  0  0  0
  147.2556  135.2223  162.3387 C   0  0  0  0  0  0  0  0  0  0  0  0
  147.6780  134.4489  161.3191 C   0  0  0  0  0  0  0  0  0  0  0  0
  148.1831  135.0105  160.0723 C   0  0  0  0  0  0  0  0  0  0  0  0
  148.5828  134.3100  159.1419 O   0  0  0  0  0  0  0  0  0  0  0  0
  150.2069  138.8938  158.2835 N   0  0  0  0  0  0  0  0  0  0  0  0
  151.4273  139.6938  158.2794 C   0  0  0  0  0  0  0  0  0  0  0  0
  151.1278  141.1958  158.4215 C   0  0  2  0  0  0  0  0  0  0  0  0
  150.9769  141.9560  157.1027 C   0  0  0  0  0  0  0  0  0  0  0  0
  151.3282  143.3647  157.5217 C   0  0  0  0  0  0  0  0  0  0  0  0
  152.4620  143.1170  158.5121 C   0  0  0  0  0  0  0  0  0  0  0  0
  152.1966  141.8475  159.1038 O   0  0  0  0  0  0  0  0  0  0  0  0
  147.8981  137.8628  158.5567 H   0  0  0  0  0  0  0  0  0  0  0  0
  148.6929  136.4370  157.9591 H   0  0  0  0  0  0  0  0  0  0  0  0
  146.8885  134.7545  163.2404 H   0  0  0  0  0  0  0  0  0  0  0  0
  147.6389  133.3751  161.4265 H   0  0  0  0  0  0  0  0  0  0  0  0
  149.4471  139.2219  157.7054 H   0  0  0  0  0  0  0  0  0  0  0  0
  152.0378  139.3658  159.1208 H   0  0  0  0  0  0  0  0  0  0  0  0
  152.0202  139.5042  157.3830 H   0  0  0  0  0  0  0  0  0  0  0  0
  150.2276  141.3393  159.0215 H   0  0  0  0  0  0  0  0  0  0  0  0
  151.6971  141.5975  156.3656 H   0  0  0  0  0  0  0  0  0  0  0  0
  149.9780  141.8726  156.6738 H   0  0  0  0  0  0  0  0  0  0  0  0
  151.6212  144.0022  156.6872 H   0  0  0  0  0  0  0  0  0  0  0  0
  150.4796  143.8277  158.0270 H   0  0  0  0  0  0  0  0  0  0  0  0
  153.4177  143.0607  157.9897 H   0  0  0  0  0  0  0  0  0  0  0  0
  152.5341  143.9010  159.2663 H   0  0  0  0  0  0  0  0  0  0  0  0
  1  2  2  0  0  0  0
  2  3  1  0  0  0  0
  2 12  1  0  0  0  0
  3 19  1  0  0  0  0
  3 20  1  0  0  0  0
  3  4  1  0  0  0  0
  4  5  1  0  0  0  0
  4 10  1  0  0  0  0
  5  6  1  0  0  0  0
  6  7  2  0  0  0  0
  6  8  1  0  0  0  0
  8 21  1  0  0  0  0
  8  9  2  0  0  0  0
  9 22  1  0  0  0  0
  9 10  1  0  0  0  0
 10 11  2  0  0  0  0
 12 13  1  0  0  0  0
 12 23  1  0  0  0  0
 13 14  1  0  0  0  0
 13 24  1  0  0  0  0
 13 25  1  0  0  0  0
 14 18  1  0  0  0  0
 14 15  1  0  0  0  0
 14 26  1  0  0  0  0
 15 16  1  0  0  0  0
 15 27  1  0  0  0  0
 15 28  1  0  0  0  0
 16 17  1  0  0  0  0
 16 29  1  0  0  0  0
 16 30  1  0  0  0  0
 17 18  1  0  0  0  0
 17 31  1  0  0  0  0
 17 32  1  0  0  0  0
M  CHG  1   5  -1
M  END
> <s_m_source_file>
AV-unprocessed.smi

> <i_m_source_file_index>
1510

> <i_lp_mmshare_version>
43012

> <i_f3d_flags>
0

> <s_epik_input>
TzFbQ0gyXVtDSDJdW0NIMl1bQ0BIXTFbQ0gyXVtOSF1DKD1PKVtDSDJdbjJbbkhdYyg9TylbY0hdW2NIXWMyPU8=

> <s_epik_cmdline>
J2VwaWtfcHl0aG9uJywgJy1waCcsICc3LjAnLCAnLXRuJywgJzgnLCAnLW1hJywgJzIwMCcsICctbWV0YWxfYmluZGluZycsICctaW1hZScsICc8aW5maWxlLm1hZT4nLCAnLW9tYWUnLCAnPG91dGZpbGUubWFlPic=

> <r_lp_tautomer_probability>
1

> <r_epik_Ionization_Penalty>
0.0970799

> <r_epik_Ionization_Penalty_Charging>
0.0970799

> <r_epik_Ionization_Penalty_Neutral>
2.6859e-08

> <r_epik_State_Penalty>
0.0341592

> <r_epik_Charging_Adjusted_Penalty>
0.131239

> <i_epik_Tot_Q>
-1

> <i_epik_Tot_abs_Q>
1

> <r_epik_Metal_State_Penalty>
0.0341592

> <b_epik_Metal_Only>
0

> <s_lp_Force_Field>
OPLS_2005

> <r_lp_Energy>
32.5095

> <b_lp_Chiralities_Consistent>
1

> <s_lp_Variant>
AV-unprocessed.smi:1510-1

> <Gold.Version>
5.8.1

> <Gold.Id.Protein>
6NUR|6NUR_protein|mol2

> <Gold.PLP.Fitness>
43.7791

> <Gold.PLP.PLP>
-31.5787

> <Gold.PLP.part.hbond>
-3.9218

> <Gold.PLP.part.metal>
0.0000

> <Gold.PLP.part.buried>
-3.3230

> <Gold.PLP.part.nonpolar>
-25.5762

> <Gold.PLP.part.repulsive>
0.1618

> <Gold.PLP.ligand.clash>
0.0000

> <Gold.PLP.ligand.torsion>
1.0258

> <Gold.PLP.Chemscore.Hbond>
4.7463

> <Gold.PLP.Chemscore.CHOScore>
0.0000

> <Gold.PLP.Chemscore.Metal>
0.0000

> <Gold.Chemscore.Hbonds>
donor molecule, donor type, donor heavy atom, donor atom, acceptor molecule, acceptor atom, score
      P1  H  6896  6907       L1     1  0.10
      P1  H  6896  6909       L1    11  0.84
      P1  H  6931  6943       L1     5  1.46
      P1  H  6934  6947       L1     5  1.66

> <Gold.PLP.Chemscore.Internal.Correction>
0.0130

> <Gold.Rescore>
     Score         DG    S(hbond)    S(metal)    S(lipo)     H(rot)  DE(clash)    DE(int)     intcor
     13.16     -14.37       2.10        0.00      60.77       2.05       0.05       1.15       ----

> <Gold.Chemscore.Fitness>
13.1641

> <Gold.Chemscore.DG>
-14.3673

> <Gold.Chemscore.ZeroCoef>
-5.4800

> <Gold.Chemscore.Hbond>
2.1006

> <Gold.Chemscore.Metal>
0.0000

> <Gold.Chemscore.Lipo>
60.7680

> <Gold.Chemscore.Internal_Hbond>
0.0000

> <Gold.Chemscore.DEClash>
0.0533

> <Gold.Chemscore.DEInternal>
1.1498

> <Gold.Chemscore.Rot>
2.0463

> <Gold.Chemscore.Internal.Correction>
   9.000000E+99

> <Gold.Chemscore.Hbonds>
donor molecule, donor type, donor heavy atom, donor atom, acceptor molecule, acceptor atom, score
      P1  H  6896  6907       L1     1  0.12
      P1  H  6896  6909       L1    11  0.51
      P1  H  6931  6943       L1     5  0.10
      P1  H  6934  6947       L1     5  0.68

> <Gold.Chemscore.Hbond.Weighted>
-7.0160

> <Gold.Chemscore.Metal.Weighted>
-0.0000

> <Gold.Chemscore.Lipo.Weighted>
-7.1099

> <Gold.Chemscore.Internal_Hbond.Weighted>
0.0000

> <Gold.Chemscore.DEClash.Weighted>
0.0533

> <Gold.Chemscore.DEInternal.Weighted>
1.1498

> <Gold.Chemscore.Rot.Weighted>
5.2386

> <Gold.Chemscore.Internal.Correction.Weighted>
   9.000000E+99

> <Gold.Protein.RotatedTorsions>
[ 6907 6896 6895 6894 ] final   17.60 input  -60.11 | X-H torsion
[ 7974 7965 7964 7962 ] final  165.13 input  175.53 | X-H torsion
[ 8008 7997 7996 7995 ] final   40.45 input   59.86 | X-H torsion
[ 10167 10162 10161 10158 ] final  170.73 input  -65.29 | X-H torsion
[ 10718 10713 10712 10709 ] final   -8.02 input   66.30 | X-H torsion
[ 10763 10752 10751 10750 ] final -137.71 input  -60.55 | X-H torsion
[ 11005 11000 10999 10996 ] final   -7.49 input  -57.11 | X-H torsion

> <Gold.Protein.ActiveResidues>
 VAL166  LYS551  ARG553  GLY616  TRP617  ASP618  TYR619  PRO620  LYS621  CYS622 
 ASP623  PHE694  ASN695  SER759  ASP760  ASP761  ALA762  ILE779  LEU786  VAL792 
 PHE793  MET794  SER795  GLU796  ALA797  LYS798  CYS799  TRP800  GLU811  SER814 

> <Gold.Protein.RotatedAtoms>
  151.8522  135.0554  160.0459 H   0  0  0  0  0  0  0  0  0  0  0  0  # atno 6907 bound_to 6896
  152.2728  133.5393  159.5458 H   0  0  0  0  0  0  0  0  0  0  0  0  # atno 6908 bound_to 6896
  150.7158  134.0590  159.3867 H   0  0  0  0  0  0  0  0  0  0  0  0  # atno 6909 bound_to 6896
  144.7515  139.8426  143.6364 H   0  0  0  0  0  0  0  0  0  0  0  0  # atno 7974 bound_to 7965
  155.2533  140.3354  155.4280 H   0  0  0  0  0  0  0  0  0  0  0  0  # atno 8008 bound_to 7997
  156.2206  140.1807  156.7528 H   0  0  0  0  0  0  0  0  0  0  0  0  # atno 8009 bound_to 7997
  154.5820  140.0652  156.9102 H   0  0  0  0  0  0  0  0  0  0  0  0  # atno 8010 bound_to 7997
  139.5026  144.3564  151.9869 H   0  0  0  0  0  0  0  0  0  0  0  0  # atno 10167 bound_to 10162
  156.7088  130.5115  149.5897 H   0  0  0  0  0  0  0  0  0  0  0  0  # atno 10718 bound_to 10713
  154.8655  135.3634  154.5266 H   0  0  0  0  0  0  0  0  0  0  0  0  # atno 10763 bound_to 10752
  153.5894  135.7016  153.5434 H   0  0  0  0  0  0  0  0  0  0  0  0  # atno 10764 bound_to 10752
  153.3387  135.4104  155.1516 H   0  0  0  0  0  0  0  0  0  0  0  0  # atno 10765 bound_to 10752
  140.7133  133.8890  155.8767 H   0  0  0  0  0  0  0  0  0  0  0  0  # atno 11005 bound_to 11000
  146.1472  139.4544  143.0072 LP  0  0  0  0  0  0  0  0  0  0  0  0  # atno 17320 bound_to 7965
  145.6927  141.0159  143.1547 LP  0  0  0  0  0  0  0  0  0  0  0  0  # atno 17321 bound_to 7965
  140.3001  144.3656  150.6063 LP  0  0  0  0  0  0  0  0  0  0  0  0  # atno 17342 bound_to 10162
  140.5880  143.2169  151.7306 LP  0  0  0  0  0  0  0  0  0  0  0  0  # atno 17343 bound_to 10162
  156.1676  130.6416  151.0797 LP  0  0  0  0  0  0  0  0  0  0  0  0  # atno 17370 bound_to 10713
  157.6944  131.0799  150.7012 LP  0  0  0  0  0  0  0  0  0  0  0  0  # atno 17371 bound_to 10713
  141.0066  134.1078  157.4264 LP  0  0  0  0  0  0  0  0  0  0  0  0  # atno 17394 bound_to 11000
  139.8866  135.0083  156.6509 LP  0  0  0  0  0  0  0  0  0  0  0  0  # atno 17395 bound_to 11000

$$$$
