AV-unprocessed.smi:2775|AV-procd|sdf|10695|dock3
  -GOLD-   2272015133D 1   1.00000     0.00000
 Structure written by MMmdl.
 42 45  0  0  0  0  0  0  0  0  1 V2000
  145.0180  131.4095  151.2281 C   0  0  0  0  0  0  0  0  0  0  0  0
  144.7959  132.8368  151.6918 C   0  0  0  0  0  0  0  0  0  0  0  0
  143.5174  133.2714  151.6543 N   0  0  0  0  0  0  0  0  0  0  0  0
  143.2633  134.5316  152.0619 C   0  0  0  0  0  0  0  0  0  0  0  0
  144.2613  135.4156  152.5140 C   0  0  0  0  0  0  0  0  0  0  0  0
  145.6045  134.9698  152.5376 C   0  0  0  0  0  0  0  0  0  0  0  0
  146.6909  135.7719  152.9843 N   0  0  0  0  0  0  0  0  0  0  0  0
  146.7456  136.6241  154.0266 C   0  0  0  0  0  0  0  0  0  0  0  0
  145.8412  136.8051  154.8388 O   0  0  0  0  0  0  0  0  0  0  0  0
  147.9024  137.3028  154.1121 N   0  0  0  0  0  0  0  0  0  0  0  0
  148.2781  138.3003  155.1236 C   0  0  1  0  0  0  0  0  0  0  0  0
  149.7893  138.4147  155.3675 C   0  0  1  0  0  0  0  0  0  0  0  0
  150.9612  137.5159  155.2031 C   0  0  0  0  0  0  0  0  0  0  0  0
  151.9493  138.5850  154.6721 C   0  0  0  0  0  0  0  0  0  0  0  0
  151.1551  139.7752  154.4371 O   0  0  0  0  0  0  0  0  0  0  0  0
  149.8641  139.2852  154.1234 C   0  0  2  0  0  0  0  0  0  0  0  0
  148.4535  139.7399  154.5406 C   0  0  0  0  0  0  0  0  0  0  0  0
  147.4775  140.3331  153.5169 C   0  0  0  0  0  0  0  0  0  0  0  0
  147.7607  141.7127  154.1202 C   0  0  0  0  0  0  0  0  0  0  0  0
  148.2559  141.0075  155.3873 C   0  0  0  0  0  0  0  0  0  0  0  0
  145.8732  133.6416  152.1308 C   0  0  0  0  0  0  0  0  0  0  0  0
  147.4876  133.0145  152.1639 Cl  0  0  0  0  0  0  0  0  0  0  0  0
  145.7128  131.3881  150.3881 H   0  0  0  0  0  0  0  0  0  0  0  0
  144.0860  130.9429  150.9057 H   0  0  0  0  0  0  0  0  0  0  0  0
  145.4350  130.8085  152.0364 H   0  0  0  0  0  0  0  0  0  0  0  0
  142.2301  134.8444  152.0320 H   0  0  0  0  0  0  0  0  0  0  0  0
  143.9752  136.4031  152.8407 H   0  0  0  0  0  0  0  0  0  0  0  0
  147.4952  135.7790  152.3741 H   0  0  0  0  0  0  0  0  0  0  0  0
  148.5987  137.1040  153.4080 H   0  0  0  0  0  0  0  0  0  0  0  0
  147.6762  138.2724  156.0332 H   0  0  0  0  0  0  0  0  0  0  0  0
  149.9244  139.0023  156.2831 H   0  0  0  0  0  0  0  0  0  0  0  0
  151.2911  137.0706  156.1416 H   0  0  0  0  0  0  0  0  0  0  0  0
  150.7808  136.7273  154.4720 H   0  0  0  0  0  0  0  0  0  0  0  0
  152.7386  138.8053  155.3915 H   0  0  0  0  0  0  0  0  0  0  0  0
  152.4179  138.2521  153.7451 H   0  0  0  0  0  0  0  0  0  0  0  0
  149.8678  138.7239  153.1842 H   0  0  0  0  0  0  0  0  0  0  0  0
  147.7808  140.2194  152.4757 H   0  0  0  0  0  0  0  0  0  0  0  0
  146.4490  140.0064  153.6778 H   0  0  0  0  0  0  0  0  0  0  0  0
  148.5566  142.2449  153.5968 H   0  0  0  0  0  0  0  0  0  0  0  0
  146.8790  142.3385  154.2604 H   0  0  0  0  0  0  0  0  0  0  0  0
  147.4741  140.8942  156.1397 H   0  0  0  0  0  0  0  0  0  0  0  0
  149.1692  141.4257  155.8118 H   0  0  0  0  0  0  0  0  0  0  0  0
  1  2  1  0  0  0  0
  1 23  1  0  0  0  0
  1 24  1  0  0  0  0
  1 25  1  0  0  0  0
  2 21  1  0  0  0  0
  2  3  2  0  0  0  0
  3  4  1  0  0  0  0
  4  5  2  0  0  0  0
  4 26  1  0  0  0  0
  5  6  1  0  0  0  0
  5 27  1  0  0  0  0
  6  7  1  0  0  0  0
  6 21  2  0  0  0  0
  7  8  1  0  0  0  0
  7 28  1  0  0  0  0
  8  9  2  0  0  0  0
  8 10  1  0  0  0  0
 10 11  1  0  0  0  0
 10 29  1  0  0  0  0
 11 17  1  0  0  0  0
 11 12  1  0  0  0  0
 11 30  1  0  0  0  0
 12 16  1  0  0  0  0
 12 13  1  0  0  0  0
 12 31  1  0  0  0  0
 13 14  1  0  0  0  0
 13 32  1  0  0  0  0
 13 33  1  0  0  0  0
 14 15  1  0  0  0  0
 14 34  1  0  0  0  0
 14 35  1  0  0  0  0
 15 16  1  0  0  0  0
 16 17  1  0  0  0  0
 16 36  1  0  0  0  0
 17 20  1  0  0  0  0
 17 18  1  0  0  0  0
 18 19  1  0  0  0  0
 18 37  1  0  0  0  0
 18 38  1  0  0  0  0
 19 20  1  0  0  0  0
 19 39  1  0  0  0  0
 19 40  1  0  0  0  0
 20 41  1  0  0  0  0
 20 42  1  0  0  0  0
 21 22  1  0  0  0  0
M  END
> <s_m_source_file>
AV-unprocessed.smi

> <i_m_source_file_index>
2775

> <i_lp_mmshare_version>
43012

> <i_f3d_flags>
0

> <s_epik_input>
W0NIM11jMW5bY0hdW2NIXWMoYzFDbClbTkhdQyg9TylbTkhdW0NAQEhdMltDQEhdKFtDSDJdW0NIMl1PMylbQ0BASF0zQzI0W0NIMl1bQ0gyXVtDSDJdNA==

> <s_epik_cmdline>
J2VwaWtfcHl0aG9uJywgJy1waCcsICc3LjAnLCAnLXRuJywgJzgnLCAnLW1hJywgJzIwMCcsICctbWV0YWxfYmluZGluZycsICctaW1hZScsICc8aW5maWxlLm1hZT4nLCAnLW9tYWUnLCAnPG91dGZpbGUubWFlPic=

> <r_epik_Ionization_Penalty>
0.01026

> <r_epik_Ionization_Penalty_Charging>
0

> <r_epik_Ionization_Penalty_Neutral>
0.01026

> <r_epik_State_Penalty>
0.00780685

> <r_epik_Charging_Adjusted_Penalty>
0.00780685

> <i_epik_Tot_Q>
0

> <i_epik_Tot_abs_Q>
0

> <r_epik_Metal_State_Penalty>
0.00767411

> <b_epik_Metal_Only>
0

> <s_lp_Force_Field>
OPLS_2005

> <r_lp_Energy>
81.7367

> <b_lp_Chiralities_Consistent>
1

> <s_lp_Variant>
AV-unprocessed.smi:2775-8

> <Gold.Version>
5.8.1

> <Gold.Id.Protein>
6NUR|6NUR_protein|mol2

> <Gold.PLP.Fitness>
41.8220

> <Gold.PLP.PLP>
-33.7184

> <Gold.PLP.part.hbond>
-3.0000

> <Gold.PLP.part.metal>
0.0000

> <Gold.PLP.part.buried>
-3.3343

> <Gold.PLP.part.nonpolar>
-27.9930

> <Gold.PLP.part.repulsive>
0.3491

> <Gold.PLP.ligand.clash>
0.0000

> <Gold.PLP.ligand.torsion>
0.5227

> <Gold.PLP.Chemscore.Hbond>
2.9440

> <Gold.PLP.Chemscore.CHOScore>
0.0000

> <Gold.PLP.Chemscore.Metal>
0.0000

> <Gold.Chemscore.Hbonds>
donor molecule, donor type, donor heavy atom, donor atom, acceptor molecule, acceptor atom, score
      L1  H     7    28       P1  7948  1.00
      L1  H    10    29       P1  7948  0.93
      P1  H  7989  7998       L1    15  0.96

> <Gold.PLP.Chemscore.Internal.Correction>
0.3169

> <Gold.Rescore>
     Score         DG    S(hbond)    S(metal)    S(lipo)     H(rot)  DE(clash)    DE(int)     intcor
     22.20     -22.79       2.89        0.00      87.34       1.00       0.08       0.51       ----

> <Gold.Chemscore.Fitness>
22.2032

> <Gold.Chemscore.DG>
-22.7889

> <Gold.Chemscore.ZeroCoef>
-5.4800

> <Gold.Chemscore.Hbond>
2.8893

> <Gold.Chemscore.Metal>
0.0000

> <Gold.Chemscore.Lipo>
87.3397

> <Gold.Chemscore.Internal_Hbond>
0.0000

> <Gold.Chemscore.DEClash>
0.0765

> <Gold.Chemscore.DEInternal>
0.5091

> <Gold.Chemscore.Rot>
1.0000

> <Gold.Chemscore.Internal.Correction>
   9.000000E+99

> <Gold.Chemscore.Hbonds>
donor molecule, donor type, donor heavy atom, donor atom, acceptor molecule, acceptor atom, score
      L1  H     7    28       P1  7948  0.97
      L1  H    10    29       P1  7948  0.91
      P1  H  7989  7998       L1    15  0.79

> <Gold.Chemscore.Hbond.Weighted>
-9.6501

> <Gold.Chemscore.Metal.Weighted>
-0.0000

> <Gold.Chemscore.Lipo.Weighted>
-10.2187

> <Gold.Chemscore.Internal_Hbond.Weighted>
0.0000

> <Gold.Chemscore.DEClash.Weighted>
0.0765

> <Gold.Chemscore.DEInternal.Weighted>
0.5091

> <Gold.Chemscore.Rot.Weighted>
2.5600

> <Gold.Chemscore.Internal.Correction.Weighted>
   9.000000E+99

> <Gold.Protein.RotatedTorsions>
[ 6907 6896 6895 6894 ] final -164.05 input  -60.11 | X-H torsion
[ 7974 7965 7964 7962 ] final    8.18 input  175.53 | X-H torsion
[ 8008 7997 7996 7995 ] final   14.82 input   59.86 | X-H torsion
[ 10167 10162 10161 10158 ] final  114.01 input  -65.29 | X-H torsion
[ 10718 10713 10712 10709 ] final  161.05 input   66.30 | X-H torsion
[ 10763 10752 10751 10750 ] final   14.45 input  -60.55 | X-H torsion
[ 11005 11000 10999 10996 ] final  157.69 input  -57.11 | X-H torsion

> <Gold.Protein.ActiveResidues>
 VAL166  LYS551  ARG553  GLY616  TRP617  ASP618  TYR619  PRO620  LYS621  CYS622 
 ASP623  PHE694  ASN695  SER759  ASP760  ASP761  ALA762  ILE779  LEU786  VAL792 
 PHE793  MET794  SER795  GLU796  ALA797  LYS798  CYS799  TRP800  GLU811  SER814 

> <Gold.Protein.RotatedAtoms>
  151.4057  133.3743  159.2737 H   0  0  0  0  0  0  0  0  0  0  0  0  # atno 6907 bound_to 6896
  150.9400  134.8811  159.7616 H   0  0  0  0  0  0  0  0  0  0  0  0  # atno 6908 bound_to 6896
  152.5067  134.4007  159.9468 H   0  0  0  0  0  0  0  0  0  0  0  0  # atno 6909 bound_to 6896
  146.2419  139.9972  142.8419 H   0  0  0  0  0  0  0  0  0  0  0  0  # atno 7974 bound_to 7965
  154.8539  140.2934  155.5581 H   0  0  0  0  0  0  0  0  0  0  0  0  # atno 8008 bound_to 7997
  156.3017  140.2491  156.3434 H   0  0  0  0  0  0  0  0  0  0  0  0  # atno 8009 bound_to 7997
  154.8992  140.0392  157.1872 H   0  0  0  0  0  0  0  0  0  0  0  0  # atno 8010 bound_to 7997
  139.6419  144.7124  151.2219 H   0  0  0  0  0  0  0  0  0  0  0  0  # atno 10167 bound_to 10162
  157.1420  131.0543  151.2322 H   0  0  0  0  0  0  0  0  0  0  0  0  # atno 10718 bound_to 10713
  153.1621  135.6798  153.8727 H   0  0  0  0  0  0  0  0  0  0  0  0  # atno 10763 bound_to 10752
  153.8119  135.3142  155.3403 H   0  0  0  0  0  0  0  0  0  0  0  0  # atno 10764 bound_to 10752
  154.7940  135.4818  154.0207 H   0  0  0  0  0  0  0  0  0  0  0  0  # atno 10765 bound_to 10752
  140.1793  134.8487  157.2784 H   0  0  0  0  0  0  0  0  0  0  0  0  # atno 11005 bound_to 11000
  145.1448  140.9591  143.4467 LP  0  0  0  0  0  0  0  0  0  0  0  0  # atno 17320 bound_to 7965
  145.0261  139.3381  143.6048 LP  0  0  0  0  0  0  0  0  0  0  0  0  # atno 17321 bound_to 7965
  140.7495  143.6297  150.8435 LP  0  0  0  0  0  0  0  0  0  0  0  0  # atno 17342 bound_to 10162
  139.9935  143.5821  152.2901 LP  0  0  0  0  0  0  0  0  0  0  0  0  # atno 17343 bound_to 10162
  157.4299  130.7484  149.6981 LP  0  0  0  0  0  0  0  0  0  0  0  0  # atno 17370 bound_to 10713
  155.9787  130.4048  150.3634 LP  0  0  0  0  0  0  0  0  0  0  0  0  # atno 17371 bound_to 10713
  140.2286  134.3937  155.7532 LP  0  0  0  0  0  0  0  0  0  0  0  0  # atno 17394 bound_to 11000
  141.2222  133.7203  156.8604 LP  0  0  0  0  0  0  0  0  0  0  0  0  # atno 17395 bound_to 11000

$$$$
