AV-unprocessed.smi:232|AV-procd|sdf|1768|dock8
  -GOLD-   2262020303D 1   1.00000     0.00000
 Structure written by MMmdl.
 52 55  0  0  0  0  0  0  0  0  1 V2000
  154.2995  141.1715  161.8549 C   0  0  0  0  0  0  0  0  0  0  0  0
  154.1059  141.1953  160.3337 C   0  0  0  0  0  0  0  0  0  0  0  0
  152.7005  141.6723  159.9088 C   0  0  1  0  0  0  0  0  0  0  0  0
  152.4991  143.1911  160.0221 C   0  0  0  0  0  0  0  0  0  0  0  0
  151.5324  143.5474  158.8862 C   0  0  0  0  0  0  0  0  0  0  0  0
  151.2322  142.2096  158.2012 C   0  0  1  0  0  0  0  0  0  0  0  0
  150.9787  142.3368  156.6903 C   0  0  0  0  0  0  0  0  0  0  0  0
  152.3789  141.3659  158.5195 N   0  0  0  0  0  0  0  0  0  0  0  0
  152.2507  140.0459  158.2455 C   0  0  0  0  0  0  0  0  0  0  0  0
  153.3463  139.2434  158.1756 N   0  0  0  0  0  0  0  0  0  0  0  0
  153.2065  137.9466  157.8830 C   0  0  0  0  0  0  0  0  0  0  0  0
  152.0883  137.2638  157.6250 N   0  0  0  0  0  0  0  0  0  0  0  0
  150.9903  138.0705  157.6923 C   0  0  0  0  0  0  0  0  0  0  0  0
  150.9827  139.4598  157.9958 C   0  0  0  0  0  0  0  0  0  0  0  0
  149.6826  139.9484  157.9709 N   0  0  0  0  0  0  0  0  0  0  0  0
  148.9600  138.9050  157.6646 C   0  0  0  0  0  0  0  0  0  0  0  0
  149.6657  137.7376  157.4771 N   0  0  0  0  0  0  0  0  0  0  0  0
  149.1235  136.4385  157.1228 C   0  0  0  0  0  0  0  0  0  0  0  0
  149.6260  135.9522  155.7496 C   0  0  2  0  0  0  0  0  0  0  0  0
  149.1840  136.8201  154.7225 O   0  0  0  0  0  0  0  0  0  0  0  0
  149.2217  134.4955  155.4456 C   0  0  2  0  0  0  0  0  0  0  0  0
  149.7665  133.8931  154.1474 C   0  0  0  0  0  0  0  0  0  0  0  0
  148.7601  132.7950  153.8872 C   0  0  0  0  0  0  0  0  0  0  0  0
  147.4572  133.4575  154.3275 C   0  0  0  0  0  0  0  0  0  0  0  0
  147.8062  134.3309  155.3980 O   0  0  0  0  0  0  0  0  0  0  0  0
  155.2878  140.7902  162.1123 H   0  0  0  0  0  0  0  0  0  0  0  0
  153.5603  140.5291  162.3344 H   0  0  0  0  0  0  0  0  0  0  0  0
  154.2082  142.1688  162.2852 H   0  0  0  0  0  0  0  0  0  0  0  0
  154.8669  141.8295  159.8772 H   0  0  0  0  0  0  0  0  0  0  0  0
  154.2852  140.1879  159.9573 H   0  0  0  0  0  0  0  0  0  0  0  0
  151.9584  141.1802  160.5400 H   0  0  0  0  0  0  0  0  0  0  0  0
  152.1089  143.4708  161.0011 H   0  0  0  0  0  0  0  0  0  0  0  0
  153.4407  143.7226  159.8771 H   0  0  0  0  0  0  0  0  0  0  0  0
  150.6220  144.0252  159.2492 H   0  0  0  0  0  0  0  0  0  0  0  0
  152.0179  144.2397  158.1972 H   0  0  0  0  0  0  0  0  0  0  0  0
  150.3420  141.7883  158.6710 H   0  0  0  0  0  0  0  0  0  0  0  0
  150.1432  143.0085  156.4921 H   0  0  0  0  0  0  0  0  0  0  0  0
  150.7359  141.3715  156.2453 H   0  0  0  0  0  0  0  0  0  0  0  0
  151.8542  142.7308  156.1735 H   0  0  0  0  0  0  0  0  0  0  0  0
  154.1220  137.3748  157.8481 H   0  0  0  0  0  0  0  0  0  0  0  0
  147.8861  138.9592  157.5597 H   0  0  0  0  0  0  0  0  0  0  0  0
  149.4040  135.7285  157.9017 H   0  0  0  0  0  0  0  0  0  0  0  0
  148.0345  136.5009  157.1337 H   0  0  0  0  0  0  0  0  0  0  0  0
  150.7158  135.9996  155.7444 H   0  0  0  0  0  0  0  0  0  0  0  0
  149.3203  136.3938  153.8903 H   0  0  0  0  0  0  0  0  0  0  0  0
  149.5643  133.8674  156.2699 H   0  0  0  0  0  0  0  0  0  0  0  0
  149.7418  134.6104  153.3268 H   0  0  0  0  0  0  0  0  0  0  0  0
  150.7875  133.5235  154.2467 H   0  0  0  0  0  0  0  0  0  0  0  0
  148.7411  132.4655  152.8481 H   0  0  0  0  0  0  0  0  0  0  0  0
  148.9754  131.9312  154.5176 H   0  0  0  0  0  0  0  0  0  0  0  0
  147.0437  134.0555  153.5146 H   0  0  0  0  0  0  0  0  0  0  0  0
  146.7025  132.7327  154.6331 H   0  0  0  0  0  0  0  0  0  0  0  0
  1  2  1  0  0  0  0
  1 26  1  0  0  0  0
  1 27  1  0  0  0  0
  1 28  1  0  0  0  0
  2  3  1  0  0  0  0
  2 29  1  0  0  0  0
  2 30  1  0  0  0  0
  3  8  1  0  0  0  0
  3  4  1  0  0  0  0
  3 31  1  0  0  0  0
  4  5  1  0  0  0  0
  4 32  1  0  0  0  0
  4 33  1  0  0  0  0
  5  6  1  0  0  0  0
  5 34  1  0  0  0  0
  5 35  1  0  0  0  0
  6  7  1  0  0  0  0
  6  8  1  0  0  0  0
  6 36  1  0  0  0  0
  7 37  1  0  0  0  0
  7 38  1  0  0  0  0
  7 39  1  0  0  0  0
  8  9  1  0  0  0  0
  9 14  1  0  0  0  0
  9 10  2  0  0  0  0
 10 11  1  0  0  0  0
 11 12  2  0  0  0  0
 11 40  1  0  0  0  0
 12 13  1  0  0  0  0
 13 17  1  0  0  0  0
 13 14  2  0  0  0  0
 14 15  1  0  0  0  0
 15 16  2  0  0  0  0
 16 17  1  0  0  0  0
 16 41  1  0  0  0  0
 17 18  1  0  0  0  0
 18 19  1  0  0  0  0
 18 42  1  0  0  0  0
 18 43  1  0  0  0  0
 19 20  1  0  0  0  0
 19 21  1  0  0  0  0
 19 44  1  0  0  0  0
 20 45  1  0  0  0  0
 21 25  1  0  0  0  0
 21 22  1  0  0  0  0
 21 46  1  0  0  0  0
 22 23  1  0  0  0  0
 22 47  1  0  0  0  0
 22 48  1  0  0  0  0
 23 24  1  0  0  0  0
 23 49  1  0  0  0  0
 23 50  1  0  0  0  0
 24 25  1  0  0  0  0
 24 51  1  0  0  0  0
 24 52  1  0  0  0  0
M  END
> <s_m_source_file>
AV-unprocessed.smi

> <i_m_source_file_index>
232

> <i_lp_mmshare_version>
43012

> <i_f3d_flags>
0

> <s_epik_input>
W0NIM11bQ0gyXVtDQEBIXTFbQ0gyXVtDSDJdW0NAQEhdKFtDSDNdKU4xYyhuW2NIXW4yKWMoYzIzKW5bY0hdbjNbQ0gyXVtDQEhdKFtPSF0pW0NAQEhdNFtDSDJdW0NIMl1bQ0gyXU80

> <s_epik_cmdline>
J2VwaWtfcHl0aG9uJywgJy1waCcsICc3LjAnLCAnLXRuJywgJzgnLCAnLW1hJywgJzIwMCcsICctbWV0YWxfYmluZGluZycsICctaW1hZScsICc8aW5maWxlLm1hZT4nLCAnLW9tYWUnLCAnPG91dGZpbGUubWFlPic=

> <r_lp_tautomer_probability>
1

> <r_epik_Ionization_Penalty>
0.00258048

> <r_epik_Ionization_Penalty_Charging>
0

> <r_epik_Ionization_Penalty_Neutral>
0.00258048

> <r_epik_State_Penalty>
0.00168551

> <r_epik_Charging_Adjusted_Penalty>
0.00168551

> <i_epik_Tot_Q>
0

> <i_epik_Tot_abs_Q>
0

> <r_epik_Metal_State_Penalty>
-0

> <b_epik_Metal_Only>
0

> <s_lp_Force_Field>
OPLS_2005

> <r_lp_Energy>
54.3711

> <b_lp_Chiralities_Consistent>
1

> <s_lp_Variant>
AV-unprocessed.smi:232-2

> <Gold.Version>
5.8.1

> <Gold.Id.Protein>
6NUR|6NUR_protein|mol2

> <Gold.PLP.Fitness>
42.6507

> <Gold.PLP.PLP>
-37.6186

> <Gold.PLP.part.hbond>
-2.0000

> <Gold.PLP.part.metal>
0.0000

> <Gold.PLP.part.buried>
-4.9975

> <Gold.PLP.part.nonpolar>
-30.2616

> <Gold.PLP.part.repulsive>
0.0459

> <Gold.PLP.ligand.clash>
0.0000

> <Gold.PLP.ligand.torsion>
0.5262

> <Gold.PLP.Chemscore.Hbond>
2.0000

> <Gold.PLP.Chemscore.CHOScore>
0.0000

> <Gold.PLP.Chemscore.Metal>
0.0000

> <Gold.Chemscore.Hbonds>
donor molecule, donor type, donor heavy atom, donor atom, acceptor molecule, acceptor atom, score
      L1  H    20    45       P1  7948  0.96
      P1  H  7997  8008       L1    10  1.00

> <Gold.PLP.Chemscore.Internal.Correction>
0.0844

> <Gold.Rescore>
     Score         DG    S(hbond)    S(metal)    S(lipo)     H(rot)  DE(clash)    DE(int)     intcor
     14.16     -17.10       1.86        0.00      99.42       2.43       0.15       2.79       ----

> <Gold.Chemscore.Fitness>
14.1561

> <Gold.Chemscore.DG>
-17.0974

> <Gold.Chemscore.ZeroCoef>
-5.4800

> <Gold.Chemscore.Hbond>
1.8552

> <Gold.Chemscore.Metal>
0.0000

> <Gold.Chemscore.Lipo>
99.4179

> <Gold.Chemscore.Internal_Hbond>
0.0000

> <Gold.Chemscore.DEClash>
0.1543

> <Gold.Chemscore.DEInternal>
2.7870

> <Gold.Chemscore.Rot>
2.4260

> <Gold.Chemscore.Internal.Correction>
   9.000000E+99

> <Gold.Chemscore.Hbonds>
donor molecule, donor type, donor heavy atom, donor atom, acceptor molecule, acceptor atom, score
      L1  H    20    45       P1  7948  0.80
      P1  H  7997  8008       L1    10  0.49

> <Gold.Chemscore.Hbond.Weighted>
-6.1962

> <Gold.Chemscore.Metal.Weighted>
-0.0000

> <Gold.Chemscore.Lipo.Weighted>
-11.6319

> <Gold.Chemscore.Internal_Hbond.Weighted>
0.0000

> <Gold.Chemscore.DEClash.Weighted>
0.1543

> <Gold.Chemscore.DEInternal.Weighted>
2.7870

> <Gold.Chemscore.Rot.Weighted>
6.2107

> <Gold.Chemscore.Internal.Correction.Weighted>
   9.000000E+99

> <Gold.Protein.RotatedTorsions>
[ 6907 6896 6895 6894 ] final  125.41 input  -60.11 | X-H torsion
[ 7974 7965 7964 7962 ] final  -78.48 input  175.53 | X-H torsion
[ 8008 7997 7996 7995 ] final  -83.51 input   59.86 | X-H torsion
[ 10167 10162 10161 10158 ] final  -37.41 input  -65.29 | X-H torsion
[ 10718 10713 10712 10709 ] final   74.02 input   66.30 | X-H torsion
[ 10763 10752 10751 10750 ] final  155.05 input  -60.55 | X-H torsion
[ 11005 11000 10999 10996 ] final  -31.22 input  -57.11 | X-H torsion

> <Gold.Protein.ActiveResidues>
 VAL166  LYS551  ARG553  GLY616  TRP617  ASP618  TYR619  PRO620  LYS621  CYS622 
 ASP623  PHE694  ASN695  SER759  ASP760  ASP761  ALA762  ILE779  LEU786  VAL792 
 PHE793  MET794  SER795  GLU796  ALA797  LYS798  CYS799  TRP800  GLU811  SER814 

> <Gold.Protein.RotatedAtoms>
  152.3994  133.6795  159.6303 H   0  0  0  0  0  0  0  0  0  0  0  0  # atno 6907 bound_to 6896
  150.7888  133.8817  159.3296 H   0  0  0  0  0  0  0  0  0  0  0  0  # atno 6908 bound_to 6896
  151.6586  135.0994  160.0226 H   0  0  0  0  0  0  0  0  0  0  0  0  # atno 6909 bound_to 6896
  145.5859  140.9439  143.1318 H   0  0  0  0  0  0  0  0  0  0  0  0  # atno 7974 bound_to 7965
  154.6199  140.0618  156.9601 H   0  0  0  0  0  0  0  0  0  0  0  0  # atno 8008 bound_to 7997
  155.1835  140.3301  155.4352 H   0  0  0  0  0  0  0  0  0  0  0  0  # atno 8009 bound_to 7997
  156.2425  140.1893  156.6930 H   0  0  0  0  0  0  0  0  0  0  0  0  # atno 8010 bound_to 7997
  140.7119  143.3344  151.2496 H   0  0  0  0  0  0  0  0  0  0  0  0  # atno 10167 bound_to 10162
  157.6573  130.9657  150.1151 H   0  0  0  0  0  0  0  0  0  0  0  0  # atno 10718 bound_to 10713
  154.1622  135.2809  155.3105 H   0  0  0  0  0  0  0  0  0  0  0  0  # atno 10763 bound_to 10752
  154.6138  135.5490  153.7505 H   0  0  0  0  0  0  0  0  0  0  0  0  # atno 10764 bound_to 10752
  153.0189  135.6422  154.1764 H   0  0  0  0  0  0  0  0  0  0  0  0  # atno 10765 bound_to 10752
  140.9449  133.7256  156.1132 H   0  0  0  0  0  0  0  0  0  0  0  0  # atno 11005 bound_to 11000
  144.7373  139.7550  143.7324 LP  0  0  0  0  0  0  0  0  0  0  0  0  # atno 17320 bound_to 7965
  146.1682  139.4822  142.9944 LP  0  0  0  0  0  0  0  0  0  0  0  0  # atno 17321 bound_to 7965
  139.6835  143.9814  152.2821 LP  0  0  0  0  0  0  0  0  0  0  0  0  # atno 17342 bound_to 10162
  139.9452  144.6656  150.8227 LP  0  0  0  0  0  0  0  0  0  0  0  0  # atno 17343 bound_to 10162
  156.2037  130.3662  149.8756 LP  0  0  0  0  0  0  0  0  0  0  0  0  # atno 17370 bound_to 10713
  156.6653  130.8798  151.3554 LP  0  0  0  0  0  0  0  0  0  0  0  0  # atno 17371 bound_to 10713
  140.7683  134.3862  157.5513 LP  0  0  0  0  0  0  0  0  0  0  0  0  # atno 17394 bound_to 11000
  139.8830  134.9005  156.2791 LP  0  0  0  0  0  0  0  0  0  0  0  0  # atno 17395 bound_to 11000

$$$$
