AV-unprocessed.smi:1703|AV-procd|sdf|6873|dock3
  -GOLD-   22720 8 73D 1   1.00000     0.00000
 Structure written by MMmdl.
 50 52  0  0  0  0  0  0  0  0  3 V2000
  146.9781  139.1033  152.8345 C   0  0  0  0  0  0  0  0  0  0  0  0
  147.6534  138.9766  154.2044 C   0  0  2  0  0  0  0  0  0  0  0  0
  149.1349  138.5761  154.0837 C   0  0  0  0  0  0  0  0  0  0  0  0
  149.7267  138.3791  155.4265 N   0  3  2  0  0  0  0  0  0  0  0  0
  151.1867  138.1115  155.3762 C   0  0  0  0  0  0  0  0  0  0  0  0
  152.0242  139.3185  155.8434 C   0  0  2  0  0  0  0  0  0  0  0  0
  153.3930  138.9604  155.8203 O   0  0  0  0  0  0  0  0  0  0  0  0
  151.6330  139.7727  157.2638 C   0  0  0  0  0  0  0  0  0  0  0  0
  151.2525  141.1944  157.3224 N   0  0  0  0  0  0  0  0  0  0  0  0
  150.4746  141.9278  156.4739 C   0  0  0  0  0  0  0  0  0  0  0  0
  149.7986  141.4359  155.2333 C   0  0  0  0  0  0  0  0  0  0  0  0
  148.4358  141.7983  155.1601 O   0  0  0  0  0  0  0  0  0  0  0  0
  150.4407  143.2019  156.9588 N   0  3  0  0  0  0  0  0  0  0  0  0
  151.1970  143.2852  158.1278 C   0  0  0  0  0  0  0  0  0  0  0  0
  151.4566  144.3634  158.9680 C   0  0  0  0  0  0  0  0  0  0  0  0
  152.2778  144.1108  160.0862 C   0  0  0  0  0  0  0  0  0  0  0  0
  152.8053  142.8271  160.3336 C   0  0  0  0  0  0  0  0  0  0  0  0
  152.5347  141.7416  159.4745 C   0  0  0  0  0  0  0  0  0  0  0  0
  151.7214  141.9986  158.3701 C   0  0  0  0  0  0  0  0  0  0  0  0
  148.9578  137.3599  156.1819 C   0  0  0  0  0  0  0  0  0  0  0  0
  147.4659  137.7393  156.2584 C   0  0  1  0  0  0  0  0  0  0  0  0
  147.1783  138.9011  157.2260 C   0  0  0  0  0  0  0  0  0  0  0  0
  146.9521  137.9840  154.9489 O   0  0  0  0  0  0  0  0  0  0  0  0
  147.4701  139.8590  152.2219 H   0  0  0  0  0  0  0  0  0  0  0  0
  145.9322  139.3925  152.9412 H   0  0  0  0  0  0  0  0  0  0  0  0
  147.0080  138.1592  152.2898 H   0  0  0  0  0  0  0  0  0  0  0  0
  147.5749  139.9398  154.7091 H   0  0  0  0  0  0  0  0  0  0  0  0
  149.2372  137.6584  153.5018 H   0  0  0  0  0  0  0  0  0  0  0  0
  149.6797  139.3568  153.5509 H   0  0  0  0  0  0  0  0  0  0  0  0
  151.4118  137.2307  155.9799 H   0  0  0  0  0  0  0  0  0  0  0  0
  151.4801  137.8619  154.3552 H   0  0  0  0  0  0  0  0  0  0  0  0
  151.8857  140.1586  155.1636 H   0  0  0  0  0  0  0  0  0  0  0  0
  153.4705  138.0416  156.0273 H   0  0  0  0  0  0  0  0  0  0  0  0
  150.7782  139.1945  157.6155 H   0  0  0  0  0  0  0  0  0  0  0  0
  152.4345  139.5809  157.9770 H   0  0  0  0  0  0  0  0  0  0  0  0
  150.3188  141.8383  154.3640 H   0  0  0  0  0  0  0  0  0  0  0  0
  149.8721  140.3497  155.1818 H   0  0  0  0  0  0  0  0  0  0  0  0
  148.3611  142.7274  155.3176 H   0  0  0  0  0  0  0  0  0  0  0  0
  151.0544  145.3481  158.7799 H   0  0  0  0  0  0  0  0  0  0  0  0
  152.5081  144.9176  160.7670 H   0  0  0  0  0  0  0  0  0  0  0  0
  153.4315  142.6718  161.2002 H   0  0  0  0  0  0  0  0  0  0  0  0
  152.9489  140.7656  159.6771 H   0  0  0  0  0  0  0  0  0  0  0  0
  149.0630  136.3946  155.6842 H   0  0  0  0  0  0  0  0  0  0  0  0
  149.3557  137.2372  157.1886 H   0  0  0  0  0  0  0  0  0  0  0  0
  146.9228  136.8730  156.6374 H   0  0  0  0  0  0  0  0  0  0  0  0
  147.4631  138.6346  158.2440 H   0  0  0  0  0  0  0  0  0  0  0  0
  146.1156  139.1452  157.2358 H   0  0  0  0  0  0  0  0  0  0  0  0
  147.7274  139.8052  156.9645 H   0  0  0  0  0  0  0  0  0  0  0  0
  149.6160  139.2565  155.9151 H   0  0  0  0  0  0  0  0  0  0  0  0
  149.9367  143.9590  156.5147 H   0  0  0  0  0  0  0  0  0  0  0  0
  1  2  1  0  0  0  0
  1 24  1  0  0  0  0
  1 25  1  0  0  0  0
  1 26  1  0  0  0  0
  2 23  1  0  0  0  0
  2  3  1  0  0  0  0
  2 27  1  0  0  0  0
  3  4  1  0  0  0  0
  3 28  1  0  0  0  0
  3 29  1  0  0  0  0
  4  5  1  0  0  0  0
  4 20  1  0  0  0  0
  4 49  1  0  0  0  0
  5  6  1  0  0  0  0
  5 30  1  0  0  0  0
  5 31  1  0  0  0  0
  6  7  1  0  0  0  0
  6  8  1  0  0  0  0
  6 32  1  0  0  0  0
  7 33  1  0  0  0  0
  8  9  1  0  0  0  0
  8 34  1  0  0  0  0
  8 35  1  0  0  0  0
  9 19  1  0  0  0  0
  9 10  1  0  0  0  0
 10 11  1  0  0  0  0
 10 13  2  0  0  0  0
 11 12  1  0  0  0  0
 11 36  1  0  0  0  0
 11 37  1  0  0  0  0
 12 38  1  0  0  0  0
 13 14  1  0  0  0  0
 13 50  1  0  0  0  0
 14 19  2  0  0  0  0
 14 15  1  0  0  0  0
 15 16  2  0  0  0  0
 15 39  1  0  0  0  0
 16 17  1  0  0  0  0
 16 40  1  0  0  0  0
 17 18  2  0  0  0  0
 17 41  1  0  0  0  0
 18 19  1  0  0  0  0
 18 42  1  0  0  0  0
 20 21  1  0  0  0  0
 20 43  1  0  0  0  0
 20 44  1  0  0  0  0
 21 22  1  0  0  0  0
 21 23  1  0  0  0  0
 21 45  1  0  0  0  0
 22 46  1  0  0  0  0
 22 47  1  0  0  0  0
 22 48  1  0  0  0  0
M  CHG  1   4   1
M  CHG  1  13   1
M  END
> <s_m_source_file>
AV-unprocessed.smi

> <i_m_source_file_index>
1703

> <i_lp_mmshare_version>
43012

> <i_f3d_flags>
0

> <s_epik_input>
W0NIM11bQ0BASF0xW0NIMl1OKFtDSDJdW0NASF0oTzEpW0NIM10pW0NIMl1bQ0BIXShbT0hdKVtDSDJdbihjKG4yKVtDSDJdW09IXSljKGMyMylbY0hdW2NIXVtjSF1bY0hdMw==

> <s_epik_cmdline>
J2VwaWtfcHl0aG9uJywgJy1waCcsICc3LjAnLCAnLXRuJywgJzgnLCAnLW1hJywgJzIwMCcsICctbWV0YWxfYmluZGluZycsICctaW1hZScsICc8aW5maWxlLm1hZT4nLCAnLW9tYWUnLCAnPG91dGZpbGUubWFlPic=

> <r_epik_Ionization_Penalty>
2.22579

> <r_epik_Ionization_Penalty_Charging>
2.22492

> <r_epik_Ionization_Penalty_Neutral>
0.000870007

> <r_epik_State_Penalty>
2.3141

> <r_epik_Charging_Adjusted_Penalty>
4.53902

> <i_epik_Tot_Q>
2

> <i_epik_Tot_abs_Q>
2

> <r_epik_Metal_State_Penalty>
6.36517

> <b_epik_Metal_Only>
0

> <s_lp_Force_Field>
OPLS_2005

> <r_lp_Energy>
31.3711

> <b_lp_Chiralities_Consistent>
1

> <s_lp_Variant>
AV-unprocessed.smi:1703-21

> <Gold.Version>
5.8.1

> <Gold.Id.Protein>
6NUR|6NUR_protein|mol2

> <Gold.PLP.Fitness>
50.9990

> <Gold.PLP.PLP>
-42.4677

> <Gold.PLP.part.hbond>
-2.8203

> <Gold.PLP.part.metal>
0.0000

> <Gold.PLP.part.buried>
-6.1092

> <Gold.PLP.part.nonpolar>
-34.8074

> <Gold.PLP.part.repulsive>
0.0833

> <Gold.PLP.ligand.clash>
0.0000

> <Gold.PLP.ligand.torsion>
1.7619

> <Gold.PLP.Chemscore.Hbond>
4.0000

> <Gold.PLP.Chemscore.CHOScore>
0.0000

> <Gold.PLP.Chemscore.Metal>
0.0000

> <Gold.Chemscore.Hbonds>
donor molecule, donor type, donor heavy atom, donor atom, acceptor molecule, acceptor atom, score
      L1  H    12    38       P1  8028  0.89
      L1  H    13    50       P1  8028  2.00
      P1  H  7997  8008       L1     7  1.00

> <Gold.PLP.Chemscore.Internal.Correction>
0.0551

> <Gold.Rescore>
     Score         DG    S(hbond)    S(metal)    S(lipo)     H(rot)  DE(clash)    DE(int)     intcor
     18.35     -20.10       2.73        0.00     113.53       3.04       0.07       1.68       ----

> <Gold.Chemscore.Fitness>
18.3528

> <Gold.Chemscore.DG>
-20.1037

> <Gold.Chemscore.ZeroCoef>
-5.4800

> <Gold.Chemscore.Hbond>
2.7298

> <Gold.Chemscore.Metal>
0.0000

> <Gold.Chemscore.Lipo>
113.5297

> <Gold.Chemscore.Internal_Hbond>
0.0000

> <Gold.Chemscore.DEClash>
0.0708

> <Gold.Chemscore.DEInternal>
1.6802

> <Gold.Chemscore.Rot>
3.0378

> <Gold.Chemscore.Internal.Correction>
   9.000000E+99

> <Gold.Chemscore.Hbonds>
donor molecule, donor type, donor heavy atom, donor atom, acceptor molecule, acceptor atom, score
      L1  H    12    38       P1  8028  0.87
      L1  H    13    50       P1  8028  0.94
      P1  H  7997  8008       L1     7  0.81

> <Gold.Chemscore.Hbond.Weighted>
-9.1174

> <Gold.Chemscore.Metal.Weighted>
-0.0000

> <Gold.Chemscore.Lipo.Weighted>
-13.2830

> <Gold.Chemscore.Internal_Hbond.Weighted>
0.0000

> <Gold.Chemscore.DEClash.Weighted>
0.0708

> <Gold.Chemscore.DEInternal.Weighted>
1.6802

> <Gold.Chemscore.Rot.Weighted>
7.7767

> <Gold.Chemscore.Internal.Correction.Weighted>
   9.000000E+99

> <Gold.Protein.RotatedTorsions>
[ 6907 6896 6895 6894 ] final -156.26 input  -60.11 | X-H torsion
[ 7974 7965 7964 7962 ] final  128.17 input  175.53 | X-H torsion
[ 8008 7997 7996 7995 ] final  -34.44 input   59.86 | X-H torsion
[ 10167 10162 10161 10158 ] final  -82.75 input  -65.29 | X-H torsion
[ 10718 10713 10712 10709 ] final  -56.56 input   66.30 | X-H torsion
[ 10763 10752 10751 10750 ] final  -43.02 input  -60.55 | X-H torsion
[ 11005 11000 10999 10996 ] final  -83.90 input  -57.11 | X-H torsion

> <Gold.Protein.ActiveResidues>
 VAL166  LYS551  ARG553  GLY616  TRP617  ASP618  TYR619  PRO620  LYS621  CYS622 
 ASP623  PHE694  ASN695  SER759  ASP760  ASP761  ALA762  ILE779  LEU786  VAL792 
 PHE793  MET794  SER795  GLU796  ALA797  LYS798  CYS799  TRP800  GLU811  SER814 

> <Gold.Protein.RotatedAtoms>
  151.2850  133.4192  159.2629 H   0  0  0  0  0  0  0  0  0  0  0  0  # atno 6907 bound_to 6896
  151.0327  134.9551  159.8130 H   0  0  0  0  0  0  0  0  0  0  0  0  # atno 6908 bound_to 6896
  152.5349  134.2810  159.9060 H   0  0  0  0  0  0  0  0  0  0  0  0  # atno 6909 bound_to 6896
  145.0425  139.3951  143.5095 H   0  0  0  0  0  0  0  0  0  0  0  0  # atno 7974 bound_to 7965
  154.4121  140.1684  156.2050 H   0  0  0  0  0  0  0  0  0  0  0  0  # atno 8008 bound_to 7997
  155.9492  140.3402  155.6370 H   0  0  0  0  0  0  0  0  0  0  0  0  # atno 8009 bound_to 7997
  155.6891  140.0731  157.2446 H   0  0  0  0  0  0  0  0  0  0  0  0  # atno 8010 bound_to 7997
  140.4290  143.2555  151.8785 H   0  0  0  0  0  0  0  0  0  0  0  0  # atno 10167 bound_to 10162
  156.1279  130.4161  150.0322 H   0  0  0  0  0  0  0  0  0  0  0  0  # atno 10718 bound_to 10713
  153.9887  135.6708  153.4753 H   0  0  0  0  0  0  0  0  0  0  0  0  # atno 10763 bound_to 10752
  153.0715  135.4972  154.8311 H   0  0  0  0  0  0  0  0  0  0  0  0  # atno 10764 bound_to 10752
  154.7122  135.3099  154.9142 H   0  0  0  0  0  0  0  0  0  0  0  0  # atno 10765 bound_to 10752
  141.1654  133.7318  156.8788 H   0  0  0  0  0  0  0  0  0  0  0  0  # atno 11005 bound_to 11000
  146.3510  140.0033  142.8674 LP  0  0  0  0  0  0  0  0  0  0  0  0  # atno 17320 bound_to 7965
  145.1630  140.9682  143.4366 LP  0  0  0  0  0  0  0  0  0  0  0  0  # atno 17321 bound_to 7965
  139.4784  144.5355  151.8605 LP  0  0  0  0  0  0  0  0  0  0  0  0  # atno 17342 bound_to 10162
  140.4448  144.1936  150.5893 LP  0  0  0  0  0  0  0  0  0  0  0  0  # atno 17343 bound_to 10162
  156.8242  130.9369  151.3640 LP  0  0  0  0  0  0  0  0  0  0  0  0  # atno 17370 bound_to 10713
  157.6459  130.8844  149.9538 LP  0  0  0  0  0  0  0  0  0  0  0  0  # atno 17371 bound_to 10713
  140.1729  134.9087  157.2856 LP  0  0  0  0  0  0  0  0  0  0  0  0  # atno 17394 bound_to 11000
  140.2481  134.3715  155.7453 LP  0  0  0  0  0  0  0  0  0  0  0  0  # atno 17395 bound_to 11000

$$$$
