AV-unprocessed.smi:308|AV-procd|sdf|2288|dock4
  -GOLD-   2262022183D 1   1.00000     0.00000
 Structure written by MMmdl.
 50 51  0  0  0  0  0  0  0  0  2 V2000
  144.4076  132.9506  152.0788 C   0  0  0  0  0  0  0  0  0  0  0  0
  145.8787  133.3950  152.0003 C   0  0  2  0  0  0  0  0  0  0  0  0
  146.3852  134.0126  153.3161 C   0  0  0  0  0  0  0  0  0  0  0  0
  145.8270  135.4284  153.5488 C   0  0  0  0  0  0  0  0  0  0  0  0
  146.1265  136.3246  152.4021 N   0  3  2  0  0  0  0  0  0  0  0  0
  145.7040  137.7239  152.6625 C   0  0  0  0  0  0  0  0  0  0  0  0
  146.7686  138.7517  152.2322 C   0  0  0  0  0  0  0  0  0  0  0  0
  147.9402  138.7049  153.0998 N   0  0  0  0  0  0  0  0  0  0  0  0
  148.2969  139.6725  153.9566 C   0  0  0  0  0  0  0  0  0  0  0  0
  147.6537  140.7112  154.1070 O   0  0  0  0  0  0  0  0  0  0  0  0
  149.4355  139.3599  154.5987 N   0  0  0  0  0  0  0  0  0  0  0  0
  150.1430  140.1229  155.5666 C   0  0  0  0  0  0  0  0  0  0  0  0
  151.1724  139.6126  156.3905 C   0  0  0  0  0  0  0  0  0  0  0  0
  151.8066  140.4749  157.3055 C   0  0  0  0  0  0  0  0  0  0  0  0
  151.4060  141.8325  157.3745 C   0  0  0  0  0  0  0  0  0  0  0  0
  152.0093  142.7347  158.2805 N   0  0  0  0  0  0  0  0  0  0  0  0
  152.8191  142.2248  159.3824 C   0  0  0  0  0  0  0  0  0  0  0  0
  151.8976  144.1723  158.0669 C   0  0  0  0  0  0  0  0  0  0  0  0
  150.4304  142.3185  156.5685 N   0  0  0  0  0  0  0  0  0  0  0  0
  149.8254  141.4891  155.6934 C   0  0  0  0  0  0  0  0  0  0  0  0
  145.5877  135.7795  151.1273 C   0  0  0  0  0  0  0  0  0  0  0  0
  146.1453  134.3733  150.8422 C   0  0  0  0  0  0  0  0  0  0  0  0
  143.7332  133.7856  152.2660 H   0  0  0  0  0  0  0  0  0  0  0  0
  144.2620  132.2248  152.8793 H   0  0  0  0  0  0  0  0  0  0  0  0
  144.0934  132.4763  151.1486 H   0  0  0  0  0  0  0  0  0  0  0  0
  146.4632  132.4934  151.8121 H   0  0  0  0  0  0  0  0  0  0  0  0
  146.1327  133.3673  154.1582 H   0  0  0  0  0  0  0  0  0  0  0  0
  147.4747  134.0623  153.2906 H   0  0  0  0  0  0  0  0  0  0  0  0
  144.7495  135.3940  153.7160 H   0  0  0  0  0  0  0  0  0  0  0  0
  146.2716  135.8360  154.4576 H   0  0  0  0  0  0  0  0  0  0  0  0
  144.7493  137.9123  152.1687 H   0  0  0  0  0  0  0  0  0  0  0  0
  145.5271  137.8537  153.7312 H   0  0  0  0  0  0  0  0  0  0  0  0
  147.0942  138.5431  151.2127 H   0  0  0  0  0  0  0  0  0  0  0  0
  146.3706  139.7666  152.2289 H   0  0  0  0  0  0  0  0  0  0  0  0
  148.5278  137.8866  153.0330 H   0  0  0  0  0  0  0  0  0  0  0  0
  149.8866  138.5032  154.3125 H   0  0  0  0  0  0  0  0  0  0  0  0
  151.4983  138.5860  156.3324 H   0  0  0  0  0  0  0  0  0  0  0  0
  152.5907  140.0779  157.9322 H   0  0  0  0  0  0  0  0  0  0  0  0
  153.6821  141.6776  159.0016 H   0  0  0  0  0  0  0  0  0  0  0  0
  152.2326  141.5542  160.0115 H   0  0  0  0  0  0  0  0  0  0  0  0
  153.1870  143.0339  160.0135 H   0  0  0  0  0  0  0  0  0  0  0  0
  150.8591  144.4922  158.1555 H   0  0  0  0  0  0  0  0  0  0  0  0
  152.2649  144.4442  157.0768 H   0  0  0  0  0  0  0  0  0  0  0  0
  152.4816  144.7292  158.7997 H   0  0  0  0  0  0  0  0  0  0  0  0
  149.0561  141.9329  155.0783 H   0  0  0  0  0  0  0  0  0  0  0  0
  144.4980  135.7560  151.1693 H   0  0  0  0  0  0  0  0  0  0  0  0
  145.8499  136.4314  150.2954 H   0  0  0  0  0  0  0  0  0  0  0  0
  147.2211  134.4466  150.6769 H   0  0  0  0  0  0  0  0  0  0  0  0
  145.7239  133.9847  149.9143 H   0  0  0  0  0  0  0  0  0  0  0  0
  147.1326  136.3395  152.3145 H   0  0  0  0  0  0  0  0  0  0  0  0
  1  2  1  0  0  0  0
  1 23  1  0  0  0  0
  1 24  1  0  0  0  0
  1 25  1  0  0  0  0
  2 22  1  0  0  0  0
  2  3  1  0  0  0  0
  2 26  1  0  0  0  0
  3  4  1  0  0  0  0
  3 27  1  0  0  0  0
  3 28  1  0  0  0  0
  4  5  1  0  0  0  0
  4 29  1  0  0  0  0
  4 30  1  0  0  0  0
  5  6  1  0  0  0  0
  5 21  1  0  0  0  0
  5 50  1  0  0  0  0
  6  7  1  0  0  0  0
  6 31  1  0  0  0  0
  6 32  1  0  0  0  0
  7  8  1  0  0  0  0
  7 33  1  0  0  0  0
  7 34  1  0  0  0  0
  8  9  1  0  0  0  0
  8 35  1  0  0  0  0
  9 10  2  0  0  0  0
  9 11  1  0  0  0  0
 11 12  1  0  0  0  0
 11 36  1  0  0  0  0
 12 20  1  0  0  0  0
 12 13  2  0  0  0  0
 13 14  1  0  0  0  0
 13 37  1  0  0  0  0
 14 15  2  0  0  0  0
 14 38  1  0  0  0  0
 15 16  1  0  0  0  0
 15 19  1  0  0  0  0
 16 17  1  0  0  0  0
 16 18  1  0  0  0  0
 17 39  1  0  0  0  0
 17 40  1  0  0  0  0
 17 41  1  0  0  0  0
 18 42  1  0  0  0  0
 18 43  1  0  0  0  0
 18 44  1  0  0  0  0
 19 20  2  0  0  0  0
 20 45  1  0  0  0  0
 21 22  1  0  0  0  0
 21 46  1  0  0  0  0
 21 47  1  0  0  0  0
 22 48  1  0  0  0  0
 22 49  1  0  0  0  0
M  CHG  1   5   1
M  END
> <s_m_source_file>
AV-unprocessed.smi

> <i_m_source_file_index>
308

> <i_lp_mmshare_version>
43012

> <i_f3d_flags>
0

> <s_epik_input>
W0NIM11bQ0hdMVtDSDJdW0NIMl1OKFtDSDJdW0NIMl0xKVtDSDJdW0NIMl1bTkhdQyg9TylbTkhdYzJbY0hdW2NIXWMoTihbQ0gzXSlbQ0gzXSluW2NIXTI=

> <s_epik_cmdline>
J2VwaWtfcHl0aG9uJywgJy1waCcsICc3LjAnLCAnLXRuJywgJzgnLCAnLW1hJywgJzIwMCcsICctbWV0YWxfYmluZGluZycsICctaW1hZScsICc8aW5maWxlLm1hZT4nLCAnLW9tYWUnLCAnPG91dGZpbGUubWFlPic=

> <r_lp_tautomer_probability>
1

> <r_epik_Ionization_Penalty>
0.536661

> <r_epik_Ionization_Penalty_Charging>
0.00139388

> <r_epik_Ionization_Penalty_Neutral>
0.535267

> <r_epik_State_Penalty>
0.543381

> <r_epik_Charging_Adjusted_Penalty>
0.544775

> <i_epik_Tot_Q>
1

> <i_epik_Tot_abs_Q>
1

> <r_epik_Metal_State_Penalty>
0.284523

> <b_epik_Metal_Only>
0

> <s_lp_Force_Field>
OPLS_2005

> <r_lp_Energy>
22.9976

> <b_lp_Chiralities_Consistent>
1

> <s_lp_Variant>
AV-unprocessed.smi:308-4

> <Gold.Version>
5.8.1

> <Gold.Id.Protein>
6NUR|6NUR_protein|mol2

> <Gold.PLP.Fitness>
47.2492

> <Gold.PLP.PLP>
-39.7969

> <Gold.PLP.part.hbond>
-3.0000

> <Gold.PLP.part.metal>
0.0000

> <Gold.PLP.part.buried>
-5.2563

> <Gold.PLP.part.nonpolar>
-33.4852

> <Gold.PLP.part.repulsive>
1.1963

> <Gold.PLP.ligand.clash>
0.0000

> <Gold.PLP.ligand.torsion>
0.8084

> <Gold.PLP.Chemscore.Hbond>
2.8882

> <Gold.PLP.Chemscore.CHOScore>
0.1193

> <Gold.PLP.Chemscore.Metal>
0.0000

> <Gold.Chemscore.Hbonds>
donor molecule, donor type, donor heavy atom, donor atom, acceptor molecule, acceptor atom, score
      L1  H     5    50       P1  7948  2.00
      L1  H     8    35       P1  7948  0.81
      L1  C    20    45       P1  8028  0.13

> <Gold.PLP.Chemscore.Internal.Correction>
0.0466

> <Gold.Rescore>
     Score         DG    S(hbond)    S(metal)    S(lipo)     H(rot)  DE(clash)    DE(int)     intcor
     16.58     -18.79       1.90        0.00      90.60       1.42       0.02       2.19       ----

> <Gold.Chemscore.Fitness>
16.5829

> <Gold.Chemscore.DG>
-18.7898

> <Gold.Chemscore.ZeroCoef>
-5.4800

> <Gold.Chemscore.Hbond>
1.9026

> <Gold.Chemscore.Metal>
0.0000

> <Gold.Chemscore.Lipo>
90.6042

> <Gold.Chemscore.Internal_Hbond>
0.0000

> <Gold.Chemscore.DEClash>
0.0204

> <Gold.Chemscore.DEInternal>
2.1865

> <Gold.Chemscore.Rot>
1.4241

> <Gold.Chemscore.Internal.Correction>
   9.000000E+99

> <Gold.Chemscore.Hbonds>
donor molecule, donor type, donor heavy atom, donor atom, acceptor molecule, acceptor atom, score
      L1  H     5    50       P1  7948  1.00
      L1  H     8    35       P1  7948  0.78

> <Gold.Chemscore.Hbond.Weighted>
-6.3547

> <Gold.Chemscore.Metal.Weighted>
-0.0000

> <Gold.Chemscore.Lipo.Weighted>
-10.6007

> <Gold.Chemscore.Internal_Hbond.Weighted>
0.0000

> <Gold.Chemscore.DEClash.Weighted>
0.0204

> <Gold.Chemscore.DEInternal.Weighted>
2.1865

> <Gold.Chemscore.Rot.Weighted>
3.6456

> <Gold.Chemscore.Internal.Correction.Weighted>
   9.000000E+99

> <Gold.Protein.RotatedTorsions>
[ 6907 6896 6895 6894 ] final -149.48 input  -60.11 | X-H torsion
[ 7974 7965 7964 7962 ] final -119.32 input  175.53 | X-H torsion
[ 8008 7997 7996 7995 ] final  113.87 input   59.86 | X-H torsion
[ 10167 10162 10161 10158 ] final -155.00 input  -65.29 | X-H torsion
[ 10718 10713 10712 10709 ] final  147.39 input   66.30 | X-H torsion
[ 10763 10752 10751 10750 ] final   45.19 input  -60.55 | X-H torsion
[ 11005 11000 10999 10996 ] final  -25.55 input  -57.11 | X-H torsion

> <Gold.Protein.ActiveResidues>
 VAL166  LYS551  ARG553  GLY616  TRP617  ASP618  TYR619  PRO620  LYS621  CYS622 
 ASP623  PHE694  ASN695  SER759  ASP760  ASP761  ALA762  ILE779  LEU786  VAL792 
 PHE793  MET794  SER795  GLU796  ALA797  LYS798  CYS799  TRP800  GLU811  SER814 

> <Gold.Protein.RotatedAtoms>
  151.1847  133.4703  159.2594 H   0  0  0  0  0  0  0  0  0  0  0  0  # atno 6907 bound_to 6896
  151.1223  135.0086  159.8554 H   0  0  0  0  0  0  0  0  0  0  0  0  # atno 6908 bound_to 6896
  152.5456  134.1757  159.8668 H   0  0  0  0  0  0  0  0  0  0  0  0  # atno 6909 bound_to 6896
  145.0639  140.8310  143.4136 H   0  0  0  0  0  0  0  0  0  0  0  0  # atno 7974 bound_to 7965
  156.2285  140.2971  156.0129 H   0  0  0  0  0  0  0  0  0  0  0  0  # atno 8008 bound_to 7997
  155.2289  140.0418  157.2976 H   0  0  0  0  0  0  0  0  0  0  0  0  # atno 8009 bound_to 7997
  154.5956  140.2413  155.7869 H   0  0  0  0  0  0  0  0  0  0  0  0  # atno 8010 bound_to 7997
  139.6967  143.9330  152.2410 H   0  0  0  0  0  0  0  0  0  0  0  0  # atno 10167 bound_to 10162
  157.3215  131.0905  151.1236 H   0  0  0  0  0  0  0  0  0  0  0  0  # atno 10718 bound_to 10713
  152.9828  135.6047  154.3396 H   0  0  0  0  0  0  0  0  0  0  0  0  # atno 10763 bound_to 10752
  154.3094  135.2771  155.2575 H   0  0  0  0  0  0  0  0  0  0  0  0  # atno 10764 bound_to 10752
  154.4791  135.5922  153.6433 H   0  0  0  0  0  0  0  0  0  0  0  0  # atno 10765 bound_to 10752
  140.8948  133.7564  156.0467 H   0  0  0  0  0  0  0  0  0  0  0  0  # atno 11005 bound_to 11000
  145.1375  139.2593  143.5507 LP  0  0  0  0  0  0  0  0  0  0  0  0  # atno 17320 bound_to 7965
  146.3526  140.1043  142.8606 LP  0  0  0  0  0  0  0  0  0  0  0  0  # atno 17321 bound_to 7965
  139.9161  144.6827  150.8510 LP  0  0  0  0  0  0  0  0  0  0  0  0  # atno 17342 bound_to 10162
  140.7698  143.3408  151.2212 LP  0  0  0  0  0  0  0  0  0  0  0  0  # atno 17343 bound_to 10162
  157.2520  130.6618  149.5935 LP  0  0  0  0  0  0  0  0  0  0  0  0  # atno 17370 bound_to 10713
  155.9686  130.4535  150.5816 LP  0  0  0  0  0  0  0  0  0  0  0  0  # atno 17371 bound_to 10713
  140.8303  134.3186  157.5351 LP  0  0  0  0  0  0  0  0  0  0  0  0  # atno 17394 bound_to 11000
  139.8734  134.9359  156.3646 LP  0  0  0  0  0  0  0  0  0  0  0  0  # atno 17395 bound_to 11000

$$$$
