AV-unprocessed.smi:3249|AV-procd|sdf|12417|dock3
  -GOLD-   2272018303D 1   1.00000     0.00000
 Structure written by MMmdl.
 44 45  0  0  0  0  0  0  0  0  2 V2000
  146.9518  141.7145  153.8138 C   0  0  0  0  0  0  0  0  0  0  0  0
  148.2350  141.1153  154.3132 C   0  0  0  0  0  0  0  0  0  0  0  0
  149.2153  141.7199  155.1500 C   0  0  0  0  0  0  0  0  0  0  0  0
  150.2334  140.9169  155.4117 N   0  0  0  0  0  0  0  0  0  0  0  0
  149.9445  139.7743  154.7527 N   0  0  0  0  0  0  0  0  0  0  0  0
  150.8602  138.6427  154.8332 C   0  0  2  0  0  0  0  0  0  0  0  0
  150.0702  137.3498  155.1092 C   0  0  0  0  0  0  0  0  0  0  0  0
  151.9923  138.8819  155.8664 C   0  0  2  0  0  0  0  0  0  0  0  0
  153.2246  137.9834  155.6288 C   0  0  0  0  0  0  0  0  0  0  0  0
  151.4690  138.6717  157.2356 N   0  3  0  0  0  0  0  0  0  0  0  0
  150.8651  139.8617  157.8715 C   0  0  0  0  0  0  0  0  0  0  0  0
  151.9492  140.8271  158.3706 C   0  0  2  0  0  0  0  0  0  0  0  0
  152.6217  140.3178  159.6605 C   0  0  0  0  0  0  0  0  0  0  0  0
  153.6249  141.3488  160.1900 C   0  0  0  0  0  0  0  0  0  0  0  0
  152.9361  142.7092  160.3383 C   0  0  0  0  0  0  0  0  0  0  0  0
  152.2423  143.1016  159.0246 C   0  0  0  0  0  0  0  0  0  0  0  0
  151.3259  142.0822  158.6366 O   0  0  0  0  0  0  0  0  0  0  0  0
  148.7410  139.8677  154.0823 C   0  0  0  0  0  0  0  0  0  0  0  0
  146.9543  142.8018  153.8936 H   0  0  0  0  0  0  0  0  0  0  0  0
  146.0933  141.3528  154.3799 H   0  0  0  0  0  0  0  0  0  0  0  0
  146.7730  141.4707  152.7663 H   0  0  0  0  0  0  0  0  0  0  0  0
  149.2159  142.7131  155.5746 H   0  0  0  0  0  0  0  0  0  0  0  0
  151.3248  138.5346  153.8507 H   0  0  0  0  0  0  0  0  0  0  0  0
  150.7122  136.4700  155.0666 H   0  0  0  0  0  0  0  0  0  0  0  0
  149.2816  137.2098  154.3692 H   0  0  0  0  0  0  0  0  0  0  0  0
  149.6008  137.3694  156.0933 H   0  0  0  0  0  0  0  0  0  0  0  0
  152.3090  139.9225  155.7775 H   0  0  0  0  0  0  0  0  0  0  0  0
  153.6878  138.1782  154.6615 H   0  0  0  0  0  0  0  0  0  0  0  0
  152.9530  136.9278  155.6589 H   0  0  0  0  0  0  0  0  0  0  0  0
  153.9977  138.1459  156.3790 H   0  0  0  0  0  0  0  0  0  0  0  0
  150.7513  137.9628  157.1853 H   0  0  0  0  0  0  0  0  0  0  0  0
  150.2053  140.3764  157.1732 H   0  0  0  0  0  0  0  0  0  0  0  0
  150.2502  139.5315  158.7097 H   0  0  0  0  0  0  0  0  0  0  0  0
  152.7049  140.9522  157.5927 H   0  0  0  0  0  0  0  0  0  0  0  0
  151.8631  140.1262  160.4207 H   0  0  0  0  0  0  0  0  0  0  0  0
  153.1261  139.3688  159.4767 H   0  0  0  0  0  0  0  0  0  0  0  0
  154.0363  141.0244  161.1461 H   0  0  0  0  0  0  0  0  0  0  0  0
  154.4646  141.4348  159.4991 H   0  0  0  0  0  0  0  0  0  0  0  0
  152.1973  142.6606  161.1393 H   0  0  0  0  0  0  0  0  0  0  0  0
  153.6605  143.4713  160.6267 H   0  0  0  0  0  0  0  0  0  0  0  0
  151.6953  144.0353  159.1550 H   0  0  0  0  0  0  0  0  0  0  0  0
  152.9735  143.2693  158.2324 H   0  0  0  0  0  0  0  0  0  0  0  0
  148.3455  139.0455  153.5041 H   0  0  0  0  0  0  0  0  0  0  0  0
  152.2171  138.3261  157.8201 H   0  0  0  0  0  0  0  0  0  0  0  0
  1  2  1  0  0  0  0
  1 19  1  0  0  0  0
  1 20  1  0  0  0  0
  1 21  1  0  0  0  0
  2 18  2  0  0  0  0
  2  3  1  0  0  0  0
  3  4  2  0  0  0  0
  3 22  1  0  0  0  0
  4  5  1  0  0  0  0
  5  6  1  0  0  0  0
  5 18  1  0  0  0  0
  6  7  1  0  0  0  0
  6  8  1  0  0  0  0
  6 23  1  0  0  0  0
  7 24  1  0  0  0  0
  7 25  1  0  0  0  0
  7 26  1  0  0  0  0
  8  9  1  0  0  0  0
  8 10  1  0  0  0  0
  8 27  1  0  0  0  0
  9 28  1  0  0  0  0
  9 29  1  0  0  0  0
  9 30  1  0  0  0  0
 10 11  1  0  0  0  0
 10 31  1  0  0  0  0
 10 44  1  0  0  0  0
 11 12  1  0  0  0  0
 11 32  1  0  0  0  0
 11 33  1  0  0  0  0
 12 17  1  0  0  0  0
 12 13  1  0  0  0  0
 12 34  1  0  0  0  0
 13 14  1  0  0  0  0
 13 35  1  0  0  0  0
 13 36  1  0  0  0  0
 14 15  1  0  0  0  0
 14 37  1  0  0  0  0
 14 38  1  0  0  0  0
 15 16  1  0  0  0  0
 15 39  1  0  0  0  0
 15 40  1  0  0  0  0
 16 17  1  0  0  0  0
 16 41  1  0  0  0  0
 16 42  1  0  0  0  0
 18 43  1  0  0  0  0
M  CHG  1  10   1
M  END
> <s_m_source_file>
AV-unprocessed.smi

> <i_m_source_file_index>
3249

> <i_lp_mmshare_version>
43012

> <i_f3d_flags>
0

> <s_epik_input>
W0NIM11jMVtjSF1ubihbY0hdMSlbQ0BIXShbQ0gzXSlbQ0BIXShbQ0gzXSlbTkhdW0NIMl1bQ0BASF0yW0NIMl1bQ0gyXVtDSDJdW0NIMl1PMg==

> <s_epik_cmdline>
J2VwaWtfcHl0aG9uJywgJy1waCcsICc3LjAnLCAnLXRuJywgJzgnLCAnLW1hJywgJzIwMCcsICctbWV0YWxfYmluZGluZycsICctaW1hZScsICc8aW5maWxlLm1hZT4nLCAnLW9tYWUnLCAnPG91dGZpbGUubWFlPic=

> <r_lp_tautomer_probability>
1

> <r_epik_Ionization_Penalty>
0.00659207

> <r_epik_Ionization_Penalty_Charging>
0.00656881

> <r_epik_Ionization_Penalty_Neutral>
2.32662e-05

> <r_epik_State_Penalty>
0.0048654

> <r_epik_Charging_Adjusted_Penalty>
0.0114342

> <i_epik_Tot_Q>
1

> <i_epik_Tot_abs_Q>
1

> <r_epik_Metal_State_Penalty>
-0

> <b_epik_Metal_Only>
0

> <s_lp_Force_Field>
OPLS_2005

> <r_lp_Energy>
18.0263

> <b_lp_Chiralities_Consistent>
1

> <s_lp_Variant>
AV-unprocessed.smi:3249-1

> <Gold.Version>
5.8.1

> <Gold.Id.Protein>
6NUR|6NUR_protein|mol2

> <Gold.PLP.Fitness>
39.6792

> <Gold.PLP.PLP>
-37.7950

> <Gold.PLP.part.hbond>
-1.0000

> <Gold.PLP.part.metal>
0.0000

> <Gold.PLP.part.buried>
2.8173

> <Gold.PLP.part.nonpolar>
-39.5732

> <Gold.PLP.part.repulsive>
0.1509

> <Gold.PLP.ligand.clash>
0.0000

> <Gold.PLP.ligand.torsion>
1.0883

> <Gold.PLP.Chemscore.Hbond>
0.0000

> <Gold.PLP.Chemscore.CHOScore>
1.3315

> <Gold.PLP.Chemscore.Metal>
0.0000

> <Gold.Chemscore.Hbonds>
donor molecule, donor type, donor heavy atom, donor atom, acceptor molecule, acceptor atom, score
      L1  C     3    22       P1  8028  1.00
      L1  C    18    43       P1  7957  0.05

> <Gold.PLP.Chemscore.Internal.Correction>
0.0661

> <Gold.Rescore>
     Score         DG    S(hbond)    S(metal)    S(lipo)     H(rot)  DE(clash)    DE(int)     intcor
     11.85     -14.66       0.00        0.00     111.99       1.53       0.31       2.50       ----

> <Gold.Chemscore.Fitness>
11.8465

> <Gold.Chemscore.DG>
-14.6572

> <Gold.Chemscore.ZeroCoef>
-5.4800

> <Gold.Chemscore.Hbond>
0.0000

> <Gold.Chemscore.Metal>
0.0000

> <Gold.Chemscore.Lipo>
111.9861

> <Gold.Chemscore.Internal_Hbond>
0.0000

> <Gold.Chemscore.DEClash>
0.3137

> <Gold.Chemscore.DEInternal>
2.4970

> <Gold.Chemscore.Rot>
1.5333

> <Gold.Chemscore.Internal.Correction>
   9.000000E+99

> <Gold.Chemscore.Hbond.Weighted>
-0.0000

> <Gold.Chemscore.Metal.Weighted>
-0.0000

> <Gold.Chemscore.Lipo.Weighted>
-13.1024

> <Gold.Chemscore.Internal_Hbond.Weighted>
0.0000

> <Gold.Chemscore.DEClash.Weighted>
0.3137

> <Gold.Chemscore.DEInternal.Weighted>
2.4970

> <Gold.Chemscore.Rot.Weighted>
3.9252

> <Gold.Chemscore.Internal.Correction.Weighted>
   9.000000E+99

> <Gold.Protein.RotatedTorsions>
[ 6907 6896 6895 6894 ] final -174.86 input  -60.11 | X-H torsion
[ 7974 7965 7964 7962 ] final -123.09 input  175.53 | X-H torsion
[ 8008 7997 7996 7995 ] final   74.46 input   59.86 | X-H torsion
[ 10167 10162 10161 10158 ] final   28.63 input  -65.29 | X-H torsion
[ 10718 10713 10712 10709 ] final   61.18 input   66.30 | X-H torsion
[ 10763 10752 10751 10750 ] final  -94.70 input  -60.55 | X-H torsion
[ 11005 11000 10999 10996 ] final   10.41 input  -57.11 | X-H torsion

> <Gold.Protein.ActiveResidues>
 VAL166  LYS551  ARG553  GLY616  TRP617  ASP618  TYR619  PRO620  LYS621  CYS622 
 ASP623  PHE694  ASN695  SER759  ASP760  ASP761  ALA762  ILE779  LEU786  VAL792 
 PHE793  MET794  SER795  GLU796  ALA797  LYS798  CYS799  TRP800  GLU811  SER814 

> <Gold.Protein.RotatedAtoms>
  151.5792  133.3380  159.3004 H   0  0  0  0  0  0  0  0  0  0  0  0  # atno 6907 bound_to 6896
  150.8323  134.7585  159.6875 H   0  0  0  0  0  0  0  0  0  0  0  0  # atno 6908 bound_to 6896
  152.4405  134.5607  159.9945 H   0  0  0  0  0  0  0  0  0  0  0  0  # atno 6909 bound_to 6896
  145.0224  140.7999  143.4373 H   0  0  0  0  0  0  0  0  0  0  0  0  # atno 7974 bound_to 7965
  155.7987  140.3477  155.5390 H   0  0  0  0  0  0  0  0  0  0  0  0  # atno 8008 bound_to 7997
  155.8560  140.0963  157.1665 H   0  0  0  0  0  0  0  0  0  0  0  0  # atno 8009 bound_to 7997
  154.4009  140.1367  156.3889 H   0  0  0  0  0  0  0  0  0  0  0  0  # atno 8010 bound_to 7997
  140.4835  144.0578  150.6273 H   0  0  0  0  0  0  0  0  0  0  0  0  # atno 10167 bound_to 10162
  157.5809  130.8980  149.9429 H   0  0  0  0  0  0  0  0  0  0  0  0  # atno 10718 bound_to 10713
  154.7080  135.5148  153.8624 H   0  0  0  0  0  0  0  0  0  0  0  0  # atno 10763 bound_to 10752
  153.0757  135.6615  154.0160 H   0  0  0  0  0  0  0  0  0  0  0  0  # atno 10764 bound_to 10752
  154.0007  135.3011  155.3382 H   0  0  0  0  0  0  0  0  0  0  0  0  # atno 10765 bound_to 10752
  140.5148  134.0617  155.7828 H   0  0  0  0  0  0  0  0  0  0  0  0  # atno 11005 bound_to 11000
  145.1878  139.2317  143.5258 LP  0  0  0  0  0  0  0  0  0  0  0  0  # atno 17320 bound_to 7965
  146.3487  140.1667  142.8590 LP  0  0  0  0  0  0  0  0  0  0  0  0  # atno 17321 bound_to 7965
  140.3827  143.2794  152.0152 LP  0  0  0  0  0  0  0  0  0  0  0  0  # atno 17342 bound_to 10162
  139.4838  144.6142  151.7378 LP  0  0  0  0  0  0  0  0  0  0  0  0  # atno 17343 bound_to 10162
  156.0855  130.3668  150.0496 LP  0  0  0  0  0  0  0  0  0  0  0  0  # atno 17370 bound_to 10713
  156.8636  130.9500  151.3616 LP  0  0  0  0  0  0  0  0  0  0  0  0  # atno 17371 bound_to 10713
  141.1366  133.9210  157.2419 LP  0  0  0  0  0  0  0  0  0  0  0  0  # atno 17394 bound_to 11000
  139.9639  135.0147  156.9334 LP  0  0  0  0  0  0  0  0  0  0  0  0  # atno 17395 bound_to 11000

$$$$
