AV-unprocessed.smi:1484|AV-procd|sdf|6000|dock8
  -GOLD-   22720 6 93D 1   1.00000     0.00000
 Structure written by MMmdl.
 38 39  0  0  0  0  0  0  0  0  1 V2000
  152.8323  142.8637  162.7872 C   0  0  0  0  0  0  0  0  0  0  0  0
  152.3061  142.9878  161.3507 C   0  0  1  0  0  0  0  0  0  0  0  0
  152.0250  144.4558  160.9772 C   0  0  0  0  0  0  0  0  0  0  0  0
  151.5044  144.5859  159.5365 C   0  0  0  0  0  0  0  0  0  0  0  0
  152.4661  143.9322  158.5275 C   0  0  0  0  0  0  0  0  0  0  0  0
  152.7670  142.4628  158.8813 C   0  0  2  0  0  0  0  0  0  0  0  0
  151.5725  141.6470  158.6763 N   0  0  0  0  0  0  0  0  0  0  0  0
  151.4817  140.5760  157.8741 C   0  0  0  0  0  0  0  0  0  0  0  0
  152.3918  140.1967  157.1376 O   0  0  0  0  0  0  0  0  0  0  0  0
  150.1583  139.8078  157.9272 C   0  0  0  0  0  0  0  0  0  0  0  0
  150.1807  138.6650  157.0052 N   0  0  0  0  0  0  0  0  0  0  0  0
  150.2622  139.0280  155.6685 N   0  0  0  0  0  0  0  0  0  0  0  0
  150.2432  138.1218  154.7509 C   0  0  0  0  0  0  0  0  0  0  0  0
  150.3187  138.5278  153.4414 O   0  0  0  0  0  0  0  0  0  0  0  0
  150.1452  136.7189  155.0872 C   0  0  0  0  0  0  0  0  0  0  0  0
  150.0705  136.3741  156.3913 C   0  0  0  0  0  0  0  0  0  0  0  0
  150.0829  137.3771  157.4579 C   0  0  0  0  0  0  0  0  0  0  0  0
  150.0058  137.0898  158.6519 O   0  0  0  0  0  0  0  0  0  0  0  0
  153.2800  142.3532  160.3357 C   0  0  0  0  0  0  0  0  0  0  0  0
  149.8795  137.8548  152.9445 H   0  0  0  0  0  0  0  0  0  0  0  0
  153.7779  143.3924  162.9114 H   0  0  0  0  0  0  0  0  0  0  0  0
  152.9961  141.8195  163.0553 H   0  0  0  0  0  0  0  0  0  0  0  0
  152.1214  143.2788  163.5022 H   0  0  0  0  0  0  0  0  0  0  0  0
  151.3627  142.4413  161.3063 H   0  0  0  0  0  0  0  0  0  0  0  0
  151.2973  144.8838  161.6675 H   0  0  0  0  0  0  0  0  0  0  0  0
  152.9367  145.0446  161.0867 H   0  0  0  0  0  0  0  0  0  0  0  0
  150.5189  144.1247  159.4616 H   0  0  0  0  0  0  0  0  0  0  0  0
  151.3683  145.6387  159.2874 H   0  0  0  0  0  0  0  0  0  0  0  0
  152.0551  144.0021  157.5195 H   0  0  0  0  0  0  0  0  0  0  0  0
  153.4007  144.4942  158.5127 H   0  0  0  0  0  0  0  0  0  0  0  0
  153.5427  142.1007  158.2041 H   0  0  0  0  0  0  0  0  0  0  0  0
  150.7658  141.8816  159.2363 H   0  0  0  0  0  0  0  0  0  0  0  0
  149.9701  139.4659  158.9469 H   0  0  0  0  0  0  0  0  0  0  0  0
  149.3375  140.4880  157.6938 H   0  0  0  0  0  0  0  0  0  0  0  0
  150.1331  135.9718  154.3072 H   0  0  0  0  0  0  0  0  0  0  0  0
  149.9974  135.3297  156.6565 H   0  0  0  0  0  0  0  0  0  0  0  0
  154.2485  142.8502  160.4072 H   0  0  0  0  0  0  0  0  0  0  0  0
  153.4633  141.3102  160.5958 H   0  0  0  0  0  0  0  0  0  0  0  0
  1  2  1  0  0  0  0
  1 21  1  0  0  0  0
  1 22  1  0  0  0  0
  1 23  1  0  0  0  0
  2 19  1  0  0  0  0
  2  3  1  0  0  0  0
  2 24  1  0  0  0  0
  3  4  1  0  0  0  0
  3 25  1  0  0  0  0
  3 26  1  0  0  0  0
  4  5  1  0  0  0  0
  4 27  1  0  0  0  0
  4 28  1  0  0  0  0
  5  6  1  0  0  0  0
  5 29  1  0  0  0  0
  5 30  1  0  0  0  0
  6  7  1  0  0  0  0
  6 19  1  0  0  0  0
  6 31  1  0  0  0  0
  7  8  1  0  0  0  0
  7 32  1  0  0  0  0
  8  9  2  0  0  0  0
  8 10  1  0  0  0  0
 10 33  1  0  0  0  0
 10 34  1  0  0  0  0
 10 11  1  0  0  0  0
 11 12  1  0  0  0  0
 11 17  1  0  0  0  0
 12 13  2  0  0  0  0
 13 14  1  0  0  0  0
 13 15  1  0  0  0  0
 14 20  1  0  0  0  0
 15 35  1  0  0  0  0
 15 16  2  0  0  0  0
 16 36  1  0  0  0  0
 16 17  1  0  0  0  0
 17 18  2  0  0  0  0
 19 37  1  0  0  0  0
 19 38  1  0  0  0  0
M  END
> <s_m_source_file>
AV-unprocessed.smi

> <i_m_source_file_index>
1484

> <i_lp_mmshare_version>
43012

> <i_f3d_flags>
0

> <s_epik_input>
W0NIM11bQ0BASF0xW0NIMl1bQ0gyXVtDSDJdW0NASF0oW0NIMl0xKVtOSF1DKD1PKVtDSDJdbjJbbkhdYyg9TylbY0hdW2NIXWMyPU8=

> <s_epik_cmdline>
J2VwaWtfcHl0aG9uJywgJy1waCcsICc3LjAnLCAnLXRuJywgJzgnLCAnLW1hJywgJzIwMCcsICctbWV0YWxfYmluZGluZycsICctaW1hZScsICc8aW5maWxlLm1hZT4nLCAnLW9tYWUnLCAnPG91dGZpbGUubWFlPic=

> <r_lp_tautomer_probability>
0.9996

> <r_epik_Ionization_Penalty>
2.10343

> <r_epik_Ionization_Penalty_Charging>
3.97871e-08

> <r_epik_Ionization_Penalty_Neutral>
2.10343

> <r_epik_State_Penalty>
1.67966

> <r_epik_Charging_Adjusted_Penalty>
1.67966

> <i_epik_Tot_Q>
0

> <i_epik_Tot_abs_Q>
0

> <r_epik_Metal_State_Penalty>
1.67966

> <b_epik_Metal_Only>
0

> <s_lp_Force_Field>
OPLS_2005

> <r_lp_Energy>
21.1153

> <b_lp_Chiralities_Consistent>
1

> <s_lp_Variant>
AV-unprocessed.smi:1484-8

> <Gold.Version>
5.8.1

> <Gold.Id.Protein>
6NUR|6NUR_protein|mol2

> <Gold.PLP.Fitness>
49.5232

> <Gold.PLP.PLP>
-40.6419

> <Gold.PLP.part.hbond>
-3.7467

> <Gold.PLP.part.metal>
0.0000

> <Gold.PLP.part.buried>
-6.2043

> <Gold.PLP.part.nonpolar>
-30.7695

> <Gold.PLP.part.repulsive>
0.1170

> <Gold.PLP.ligand.clash>
0.0000

> <Gold.PLP.ligand.torsion>
0.0382

> <Gold.PLP.Chemscore.Hbond>
2.9833

> <Gold.PLP.Chemscore.CHOScore>
0.0000

> <Gold.PLP.Chemscore.Metal>
0.0000

> <Gold.Chemscore.Hbonds>
donor molecule, donor type, donor heavy atom, donor atom, acceptor molecule, acceptor atom, score
      L1  H    14    20       P1  7948  0.80
      P1  H  7997  8010       L1     9  0.89

> <Gold.PLP.Chemscore.Internal.Correction>
0.0079

> <Gold.Rescore>
     Score         DG    S(hbond)    S(metal)    S(lipo)     H(rot)  DE(clash)    DE(int)     intcor
     18.56     -20.10       2.79        0.00      94.37       2.24       0.10       1.44       ----

> <Gold.Chemscore.Fitness>
18.5595

> <Gold.Chemscore.DG>
-20.0988

> <Gold.Chemscore.ZeroCoef>
-5.4800

> <Gold.Chemscore.Hbond>
2.7897

> <Gold.Chemscore.Metal>
0.0000

> <Gold.Chemscore.Lipo>
94.3665

> <Gold.Chemscore.Internal_Hbond>
0.0000

> <Gold.Chemscore.DEClash>
0.0956

> <Gold.Chemscore.DEInternal>
1.4437

> <Gold.Chemscore.Rot>
2.2421

> <Gold.Chemscore.Internal.Correction>
   9.000000E+99

> <Gold.Chemscore.Hbonds>
donor molecule, donor type, donor heavy atom, donor atom, acceptor molecule, acceptor atom, score
      L1  H    14    20       P1  7948  0.31
      P1  H  7997  8010       L1     9  0.81

> <Gold.Chemscore.Hbond.Weighted>
-9.3177

> <Gold.Chemscore.Metal.Weighted>
-0.0000

> <Gold.Chemscore.Lipo.Weighted>
-11.0409

> <Gold.Chemscore.Internal_Hbond.Weighted>
0.0000

> <Gold.Chemscore.DEClash.Weighted>
0.0956

> <Gold.Chemscore.DEInternal.Weighted>
1.4437

> <Gold.Chemscore.Rot.Weighted>
5.7398

> <Gold.Chemscore.Internal.Correction.Weighted>
   9.000000E+99

> <Gold.Protein.RotatedTorsions>
[ 6907 6896 6895 6894 ] final  -39.56 input  -60.11 | X-H torsion
[ 7974 7965 7964 7962 ] final  -95.43 input  175.53 | X-H torsion
[ 8008 7997 7996 7995 ] final   72.73 input   59.86 | X-H torsion
[ 10167 10162 10161 10158 ] final  154.53 input  -65.29 | X-H torsion
[ 10718 10713 10712 10709 ] final   73.57 input   66.30 | X-H torsion
[ 10763 10752 10751 10750 ] final  165.21 input  -60.55 | X-H torsion
[ 11005 11000 10999 10996 ] final  -19.12 input  -57.11 | X-H torsion

> <Gold.Protein.ActiveResidues>
 VAL166  LYS551  ARG553  GLY616  TRP617  ASP618  TYR619  PRO620  LYS621  CYS622 
 ASP623  PHE694  ASN695  SER759  ASP760  ASP761  ALA762  ILE779  LEU786  VAL792 
 PHE793  MET794  SER795  GLU796  ALA797  LYS798  CYS799  TRP800  GLU811  SER814 

> <Gold.Protein.RotatedAtoms>
  150.9889  134.9228  159.7887 H   0  0  0  0  0  0  0  0  0  0  0  0  # atno 6907 bound_to 6896
  152.5245  134.3309  159.9192 H   0  0  0  0  0  0  0  0  0  0  0  0  # atno 6908 bound_to 6896
  151.3315  133.3957  159.2697 H   0  0  0  0  0  0  0  0  0  0  0  0  # atno 6909 bound_to 6896
  145.3601  140.9490  143.2505 H   0  0  0  0  0  0  0  0  0  0  0  0  # atno 7974 bound_to 7965
  155.7732  140.3484  155.5258 H   0  0  0  0  0  0  0  0  0  0  0  0  # atno 8008 bound_to 7997
  155.8801  140.1000  157.1512 H   0  0  0  0  0  0  0  0  0  0  0  0  # atno 8009 bound_to 7997
  154.4024  140.1324  156.4173 H   0  0  0  0  0  0  0  0  0  0  0  0  # atno 8010 bound_to 7997
  139.4823  144.5179  151.7923 H   0  0  0  0  0  0  0  0  0  0  0  0  # atno 10167 bound_to 10162
  157.6554  130.9635  150.1088 H   0  0  0  0  0  0  0  0  0  0  0  0  # atno 10718 bound_to 10713
  154.3206  135.2756  155.2521 H   0  0  0  0  0  0  0  0  0  0  0  0  # atno 10763 bound_to 10752
  154.4877  135.5842  153.6439 H   0  0  0  0  0  0  0  0  0  0  0  0  # atno 10764 bound_to 10752
  152.9877  135.6127  154.3390 H   0  0  0  0  0  0  0  0  0  0  0  0  # atno 10765 bound_to 10752
  140.8335  133.7979  155.9784 H   0  0  0  0  0  0  0  0  0  0  0  0  # atno 11005 bound_to 11000
  144.8652  139.5118  143.6793 LP  0  0  0  0  0  0  0  0  0  0  0  0  # atno 17320 bound_to 7965
  146.2931  139.7197  142.9146 LP  0  0  0  0  0  0  0  0  0  0  0  0  # atno 17321 bound_to 7965
  140.4689  144.1615  150.5915 LP  0  0  0  0  0  0  0  0  0  0  0  0  # atno 17342 bound_to 10162
  140.4403  143.2529  151.9481 LP  0  0  0  0  0  0  0  0  0  0  0  0  # atno 17343 bound_to 10162
  156.1991  130.3659  149.8811 LP  0  0  0  0  0  0  0  0  0  0  0  0  # atno 17370 bound_to 10713
  156.6720  130.8824  151.3563 LP  0  0  0  0  0  0  0  0  0  0  0  0  # atno 17371 bound_to 10713
  140.8972  134.2423  157.5062 LP  0  0  0  0  0  0  0  0  0  0  0  0  # atno 17394 bound_to 11000
  139.8704  134.9689  156.4649 LP  0  0  0  0  0  0  0  0  0  0  0  0  # atno 17395 bound_to 11000

$$$$
