AV-unprocessed.smi:909|AV-procd|sdf|4115|dock4
  -GOLD-   22720 2 13D 1   1.00000     0.00000
 Structure written by MMmdl.
 39 40  0  0  0  0  0  0  0  0  2 V2000
  147.9904  141.3192  154.1345 C   0  0  0  0  0  0  0  0  0  0  0  0
  149.3366  140.9226  154.6685 C   0  0  0  0  0  0  0  0  0  0  0  0
  150.0943  141.8286  155.2636 N   0  0  0  0  0  0  0  0  0  0  0  0
  151.2584  141.1586  155.6516 O   0  0  0  0  0  0  0  0  0  0  0  0
  151.1565  139.8610  155.2660 C   0  0  0  0  0  0  0  0  0  0  0  0
  152.3043  138.9699  155.6022 C   0  0  0  0  0  0  0  0  0  0  0  0
  149.9649  139.6450  154.6294 C   0  0  0  0  0  0  0  0  0  0  0  0
  149.4297  138.3666  154.0370 C   0  0  0  0  0  0  0  0  0  0  0  0
  149.4065  137.2777  155.1086 C   0  0  0  0  0  0  0  0  0  0  0  0
  149.3804  137.6019  156.2942 O   0  0  0  0  0  0  0  0  0  0  0  0
  149.4410  136.0144  154.6453 N   0  0  0  0  0  0  0  0  0  0  0  0
  149.4428  134.7045  155.3181 C   0  0  0  0  0  0  0  0  0  0  0  0
  150.4952  134.8389  156.4470 C   0  0  0  0  0  0  0  0  0  0  0  0
  150.1281  134.6167  157.6226 O   0  0  0  0  0  0  0  0  0  0  0  0
  151.6488  135.2084  156.1296 O   0  5  0  0  0  0  0  0  0  0  0  0
  148.0777  134.2289  155.9172 C   0  0  0  0  0  0  0  0  0  0  0  0
  147.0396  133.7954  154.8623 C   0  0  0  0  0  0  0  0  0  0  0  0
  147.6118  132.7435  153.9067 C   0  0  0  0  0  0  0  0  0  0  0  0
  148.8917  133.2619  153.2429 C   0  0  0  0  0  0  0  0  0  0  0  0
  149.9458  133.6447  154.2948 C   0  0  0  0  0  0  0  0  0  0  0  0
  148.0547  141.5934  153.0817 H   0  0  0  0  0  0  0  0  0  0  0  0
  147.5795  142.1712  154.6772 H   0  0  0  0  0  0  0  0  0  0  0  0
  147.2761  140.5005  154.2226 H   0  0  0  0  0  0  0  0  0  0  0  0
  152.0738  138.3605  156.4760 H   0  0  0  0  0  0  0  0  0  0  0  0
  153.2008  139.5501  155.8226 H   0  0  0  0  0  0  0  0  0  0  0  0
  152.5317  138.2997  154.7732 H   0  0  0  0  0  0  0  0  0  0  0  0
  148.4210  138.5014  153.6448 H   0  0  0  0  0  0  0  0  0  0  0  0
  150.0368  138.0317  153.1949 H   0  0  0  0  0  0  0  0  0  0  0  0
  149.4904  135.9404  153.6399 H   0  0  0  0  0  0  0  0  0  0  0  0
  148.2605  133.3650  156.5585 H   0  0  0  0  0  0  0  0  0  0  0  0
  147.6455  134.9792  156.5796 H   0  0  0  0  0  0  0  0  0  0  0  0
  146.1556  133.3974  155.3611 H   0  0  0  0  0  0  0  0  0  0  0  0
  146.6992  134.6531  154.2840 H   0  0  0  0  0  0  0  0  0  0  0  0
  147.8254  131.8244  154.4535 H   0  0  0  0  0  0  0  0  0  0  0  0
  146.8730  132.4895  153.1464 H   0  0  0  0  0  0  0  0  0  0  0  0
  149.2960  132.4993  152.5768 H   0  0  0  0  0  0  0  0  0  0  0  0
  148.6602  134.1256  152.6185 H   0  0  0  0  0  0  0  0  0  0  0  0
  150.8407  133.9992  153.7802 H   0  0  0  0  0  0  0  0  0  0  0  0
  150.2449  132.7371  154.8225 H   0  0  0  0  0  0  0  0  0  0  0  0
  1  2  1  0  0  0  0
  1 21  1  0  0  0  0
  1 22  1  0  0  0  0
  1 23  1  0  0  0  0
  2  7  1  0  0  0  0
  2  3  2  0  0  0  0
  3  4  1  0  0  0  0
  4  5  1  0  0  0  0
  5  6  1  0  0  0  0
  5  7  2  0  0  0  0
  6 24  1  0  0  0  0
  6 25  1  0  0  0  0
  6 26  1  0  0  0  0
  7  8  1  0  0  0  0
  8  9  1  0  0  0  0
  8 27  1  0  0  0  0
  8 28  1  0  0  0  0
  9 10  2  0  0  0  0
  9 11  1  0  0  0  0
 11 12  1  0  0  0  0
 11 29  1  0  0  0  0
 12 20  1  0  0  0  0
 12 13  1  0  0  0  0
 12 16  1  0  0  0  0
 13 14  2  0  0  0  0
 13 15  1  0  0  0  0
 16 17  1  0  0  0  0
 16 30  1  0  0  0  0
 16 31  1  0  0  0  0
 17 18  1  0  0  0  0
 17 32  1  0  0  0  0
 17 33  1  0  0  0  0
 18 19  1  0  0  0  0
 18 34  1  0  0  0  0
 18 35  1  0  0  0  0
 19 20  1  0  0  0  0
 19 36  1  0  0  0  0
 19 37  1  0  0  0  0
 20 38  1  0  0  0  0
 20 39  1  0  0  0  0
M  CHG  1  15  -1
M  END
> <s_m_source_file>
AV-unprocessed.smi

> <i_m_source_file_index>
909

> <i_lp_mmshare_version>
43012

> <i_f3d_flags>
0

> <s_epik_input>
W0NIM11jMW5vYyhbQ0gzXSljMVtDSDJdQyg9TylbTkhdQzIoQyg9TylbT0hdKVtDSDJdW0NIMl1bQ0gyXVtDSDJdW0NIMl0y

> <s_epik_cmdline>
J2VwaWtfcHl0aG9uJywgJy1waCcsICc3LjAnLCAnLXRuJywgJzgnLCAnLW1hJywgJzIwMCcsICctbWV0YWxfYmluZGluZycsICctaW1hZScsICc8aW5maWxlLm1hZT4nLCAnLW9tYWUnLCAnPG91dGZpbGUubWFlPic=

> <r_epik_Ionization_Penalty>
0.000391234

> <r_epik_Ionization_Penalty_Charging>
0.000391215

> <r_epik_Ionization_Penalty_Neutral>
1.90707e-08

> <r_epik_State_Penalty>
0.000239413

> <r_epik_Charging_Adjusted_Penalty>
0.000630628

> <i_epik_Tot_Q>
-1

> <i_epik_Tot_abs_Q>
1

> <r_epik_Metal_State_Penalty>
-0

> <b_epik_Metal_Only>
0

> <s_lp_Force_Field>
OPLS_2005

> <r_lp_Energy>
2.68806

> <b_lp_Chiralities_Consistent>
1

> <s_lp_Variant>
AV-unprocessed.smi:909-1

> <Gold.Version>
5.8.1

> <Gold.Id.Protein>
6NUR|6NUR_protein|mol2

> <Gold.PLP.Fitness>
42.4354

> <Gold.PLP.PLP>
-29.1244

> <Gold.PLP.part.hbond>
-4.7993

> <Gold.PLP.part.metal>
0.0000

> <Gold.PLP.part.buried>
1.6604

> <Gold.PLP.part.nonpolar>
-25.1960

> <Gold.PLP.part.repulsive>
0.2130

> <Gold.PLP.ligand.clash>
0.0000

> <Gold.PLP.ligand.torsion>
0.6615

> <Gold.PLP.Chemscore.Hbond>
4.8560

> <Gold.PLP.Chemscore.CHOScore>
0.0000

> <Gold.PLP.Chemscore.Metal>
0.0000

> <Gold.Chemscore.Hbonds>
donor molecule, donor type, donor heavy atom, donor atom, acceptor molecule, acceptor atom, score
      L1  H    11    29       P1  7948  1.00
      P1  H  6896  6907       L1    14  1.60
      P1  H 10752 10763       L1    15  2.00

> <Gold.PLP.Chemscore.Internal.Correction>
0.0659

> <Gold.Rescore>
     Score         DG    S(hbond)    S(metal)    S(lipo)     H(rot)  DE(clash)    DE(int)     intcor
     13.53     -17.06       2.71        0.00      63.71       1.93       1.20       2.33       ----

> <Gold.Chemscore.Fitness>
13.5298

> <Gold.Chemscore.DG>
-17.0573

> <Gold.Chemscore.ZeroCoef>
-5.4800

> <Gold.Chemscore.Hbond>
2.7129

> <Gold.Chemscore.Metal>
0.0000

> <Gold.Chemscore.Lipo>
63.7113

> <Gold.Chemscore.Internal_Hbond>
0.0000

> <Gold.Chemscore.DEClash>
1.1952

> <Gold.Chemscore.DEInternal>
2.3323

> <Gold.Chemscore.Rot>
1.9289

> <Gold.Chemscore.Internal.Correction>
   9.000000E+99

> <Gold.Chemscore.Hbonds>
donor molecule, donor type, donor heavy atom, donor atom, acceptor molecule, acceptor atom, score
      L1  H    11    29       P1  7948  0.44
      P1  H  6896  6907       L1    14  0.80
      P1  H 10752 10763       L1    15  0.98

> <Gold.Chemscore.Hbond.Weighted>
-9.0610

> <Gold.Chemscore.Metal.Weighted>
-0.0000

> <Gold.Chemscore.Lipo.Weighted>
-7.4542

> <Gold.Chemscore.Internal_Hbond.Weighted>
0.0000

> <Gold.Chemscore.DEClash.Weighted>
1.1952

> <Gold.Chemscore.DEInternal.Weighted>
2.3323

> <Gold.Chemscore.Rot.Weighted>
4.9379

> <Gold.Chemscore.Internal.Correction.Weighted>
   9.000000E+99

> <Gold.Protein.RotatedTorsions>
[ 6907 6896 6895 6894 ] final  -96.47 input  -60.11 | X-H torsion
[ 7974 7965 7964 7962 ] final -160.62 input  175.53 | X-H torsion
[ 8008 7997 7996 7995 ] final  104.57 input   59.86 | X-H torsion
[ 10167 10162 10161 10158 ] final   66.98 input  -65.29 | X-H torsion
[ 10718 10713 10712 10709 ] final    7.46 input   66.30 | X-H torsion
[ 10763 10752 10751 10750 ] final   83.22 input  -60.55 | X-H torsion
[ 11005 11000 10999 10996 ] final  110.36 input  -57.11 | X-H torsion

> <Gold.Protein.ActiveResidues>
 VAL166  LYS551  ARG553  GLY616  TRP617  ASP618  TYR619  PRO620  LYS621  CYS622 
 ASP623  PHE694  ASN695  SER759  ASP760  ASP761  ALA762  ILE779  LEU786  VAL792 
 PHE793  MET794  SER795  GLU796  ALA797  LYS798  CYS799  TRP800  GLU811  SER814 

> <Gold.Protein.RotatedAtoms>
  150.6990  134.1497  159.4135 H   0  0  0  0  0  0  0  0  0  0  0  0  # atno 6907 bound_to 6896
  151.9480  135.0180  160.0549 H   0  0  0  0  0  0  0  0  0  0  0  0  # atno 6908 bound_to 6896
  152.2035  133.4823  159.5108 H   0  0  0  0  0  0  0  0  0  0  0  0  # atno 6909 bound_to 6896
  144.7420  140.3516  143.6114 H   0  0  0  0  0  0  0  0  0  0  0  0  # atno 7974 bound_to 7965
  156.1584  140.3145  155.8765 H   0  0  0  0  0  0  0  0  0  0  0  0  # atno 8008 bound_to 7997
  155.3832  140.0489  157.3060 H   0  0  0  0  0  0  0  0  0  0  0  0  # atno 8009 bound_to 7997
  154.5123  140.2169  155.9143 H   0  0  0  0  0  0  0  0  0  0  0  0  # atno 8010 bound_to 7997
  140.0945  144.4958  150.7077 H   0  0  0  0  0  0  0  0  0  0  0  0  # atno 10167 bound_to 10162
  156.9372  130.5848  149.5651 H   0  0  0  0  0  0  0  0  0  0  0  0  # atno 10718 bound_to 10713
  153.1272  135.4699  154.9291 H   0  0  0  0  0  0  0  0  0  0  0  0  # atno 10763 bound_to 10752
  154.7631  135.3137  154.8342 H   0  0  0  0  0  0  0  0  0  0  0  0  # atno 10764 bound_to 10752
  153.8892  135.6886  153.4815 H   0  0  0  0  0  0  0  0  0  0  0  0  # atno 10765 bound_to 10752
  139.8880  134.9482  156.6267 H   0  0  0  0  0  0  0  0  0  0  0  0  # atno 11005 bound_to 11000
  145.7270  139.1725  143.2452 LP  0  0  0  0  0  0  0  0  0  0  0  0  # atno 17320 bound_to 7965
  146.1234  140.7279  142.9446 LP  0  0  0  0  0  0  0  0  0  0  0  0  # atno 17321 bound_to 7965
  140.7011  143.2435  151.4862 LP  0  0  0  0  0  0  0  0  0  0  0  0  # atno 17342 bound_to 10162
  139.5706  144.1938  152.1830 LP  0  0  0  0  0  0  0  0  0  0  0  0  # atno 17343 bound_to 10162
  156.0421  130.5502  150.8794 LP  0  0  0  0  0  0  0  0  0  0  0  0  # atno 17370 bound_to 10713
  157.5809  131.0946  150.9273 LP  0  0  0  0  0  0  0  0  0  0  0  0  # atno 17371 bound_to 10713
  140.7698  133.8748  155.8483 LP  0  0  0  0  0  0  0  0  0  0  0  0  # atno 17394 bound_to 11000
  140.9851  134.1353  157.4459 LP  0  0  0  0  0  0  0  0  0  0  0  0  # atno 17395 bound_to 11000

$$$$
