AV-unprocessed.smi:1626|AV-procd|sdf|6507|dock2
  -GOLD-   22720 7173D 1   1.00000     0.00000
 Structure written by MMmdl.
 48 50  0  0  0  0  0  0  0  0  2 V2000
  153.4063  142.6540  160.3745 C   0  0  0  0  0  0  0  0  0  0  0  0
  152.5619  142.3444  159.1508 C   0  0  0  0  0  0  0  0  0  0  0  0
  152.4978  141.0138  158.6796 C   0  0  0  0  0  0  0  0  0  0  0  0
  151.7229  140.6835  157.5467 C   0  0  0  0  0  0  0  0  0  0  0  0
  151.5192  139.4657  156.9206 N   0  0  0  0  0  0  0  0  0  0  0  0
  150.7010  139.8068  155.9295 C   0  0  0  0  0  0  0  0  0  0  0  0
  150.3555  141.1054  155.8346 N   0  0  0  0  0  0  0  0  0  0  0  0
  149.4818  141.7105  154.8454 C   0  0  0  0  0  0  0  0  0  0  0  0
  147.9944  141.3994  155.1007 C   0  0  1  0  0  0  0  0  0  0  0  0
  147.4813  142.3129  156.0514 O   0  0  0  0  0  0  0  0  0  0  0  0
  147.1613  141.5122  153.8089 C   0  0  0  0  0  0  0  0  0  0  0  0
  146.4220  140.2626  153.4938 N   0  3  2  0  0  0  0  0  0  0  0  0
  146.0899  139.4562  154.6996 C   0  0  0  0  0  0  0  0  0  0  0  0
  145.2191  138.2419  154.3353 C   0  0  0  0  0  0  0  0  0  0  0  0
  145.9097  137.3731  153.2743 C   0  0  1  0  0  0  0  0  0  0  0  0
  145.0534  136.3211  152.8843 O   0  0  0  0  0  0  0  0  0  0  0  0
  146.2634  138.2310  152.0514 C   0  0  0  0  0  0  0  0  0  0  0  0
  147.1123  139.4458  152.4616 C   0  0  0  0  0  0  0  0  0  0  0  0
  151.0078  141.7291  156.8924 C   0  0  0  0  0  0  0  0  0  0  0  0
  151.0628  143.0567  157.3519 C   0  0  0  0  0  0  0  0  0  0  0  0
  151.8423  143.3695  158.4854 C   0  0  0  0  0  0  0  0  0  0  0  0
  151.8963  144.8059  158.9746 C   0  0  0  0  0  0  0  0  0  0  0  0
  153.9242  141.7651  160.7361 H   0  0  0  0  0  0  0  0  0  0  0  0
  152.7803  143.0297  161.1841 H   0  0  0  0  0  0  0  0  0  0  0  0
  154.1598  143.4065  160.1408 H   0  0  0  0  0  0  0  0  0  0  0  0
  153.0445  140.2326  159.1870 H   0  0  0  0  0  0  0  0  0  0  0  0
  150.3347  139.0701  155.2290 H   0  0  0  0  0  0  0  0  0  0  0  0
  149.6524  142.7882  154.8409 H   0  0  0  0  0  0  0  0  0  0  0  0
  149.7800  141.3436  153.8624 H   0  0  0  0  0  0  0  0  0  0  0  0
  147.9167  140.3964  155.5189 H   0  0  0  0  0  0  0  0  0  0  0  0
  148.0081  143.0981  156.0285 H   0  0  0  0  0  0  0  0  0  0  0  0
  146.4590  142.3392  153.9255 H   0  0  0  0  0  0  0  0  0  0  0  0
  147.7979  141.7751  152.9625 H   0  0  0  0  0  0  0  0  0  0  0  0
  147.0114  139.1229  155.1801 H   0  0  0  0  0  0  0  0  0  0  0  0
  145.5580  140.0639  155.4304 H   0  0  0  0  0  0  0  0  0  0  0  0
  145.0139  137.6517  155.2292 H   0  0  0  0  0  0  0  0  0  0  0  0
  144.2534  138.5878  153.9633 H   0  0  0  0  0  0  0  0  0  0  0  0
  146.8187  136.9368  153.6906 H   0  0  0  0  0  0  0  0  0  0  0  0
  145.1284  135.6185  153.5122 H   0  0  0  0  0  0  0  0  0  0  0  0
  146.8032  137.6329  151.3161 H   0  0  0  0  0  0  0  0  0  0  0  0
  145.3514  138.5754  151.5615 H   0  0  0  0  0  0  0  0  0  0  0  0
  147.3077  140.0558  151.5789 H   0  0  0  0  0  0  0  0  0  0  0  0
  148.0809  139.1181  152.8427 H   0  0  0  0  0  0  0  0  0  0  0  0
  150.5090  143.8277  156.8371 H   0  0  0  0  0  0  0  0  0  0  0  0
  151.2692  145.4581  158.3662 H   0  0  0  0  0  0  0  0  0  0  0  0
  152.9171  145.1861  158.9294 H   0  0  0  0  0  0  0  0  0  0  0  0
  151.5468  144.8722  160.0050 H   0  0  0  0  0  0  0  0  0  0  0  0
  145.5470  140.5534  153.0802 H   0  0  0  0  0  0  0  0  0  0  0  0
  1  2  1  0  0  0  0
  1 23  1  0  0  0  0
  1 24  1  0  0  0  0
  1 25  1  0  0  0  0
  2 21  1  0  0  0  0
  2  3  2  0  0  0  0
  3  4  1  0  0  0  0
  3 26  1  0  0  0  0
  4 19  2  0  0  0  0
  4  5  1  0  0  0  0
  5  6  2  0  0  0  0
  6  7  1  0  0  0  0
  6 27  1  0  0  0  0
  7  8  1  0  0  0  0
  7 19  1  0  0  0  0
  8  9  1  0  0  0  0
  8 28  1  0  0  0  0
  8 29  1  0  0  0  0
  9 10  1  0  0  0  0
  9 11  1  0  0  0  0
  9 30  1  0  0  0  0
 10 31  1  0  0  0  0
 11 12  1  0  0  0  0
 11 32  1  0  0  0  0
 11 33  1  0  0  0  0
 12 18  1  0  0  0  0
 12 13  1  0  0  0  0
 12 48  1  0  0  0  0
 13 14  1  0  0  0  0
 13 34  1  0  0  0  0
 13 35  1  0  0  0  0
 14 15  1  0  0  0  0
 14 36  1  0  0  0  0
 14 37  1  0  0  0  0
 15 16  1  0  0  0  0
 15 17  1  0  0  0  0
 15 38  1  0  0  0  0
 16 39  1  0  0  0  0
 17 18  1  0  0  0  0
 17 40  1  0  0  0  0
 17 41  1  0  0  0  0
 18 42  1  0  0  0  0
 18 43  1  0  0  0  0
 19 20  1  0  0  0  0
 20 21  2  0  0  0  0
 20 44  1  0  0  0  0
 21 22  1  0  0  0  0
 22 45  1  0  0  0  0
 22 46  1  0  0  0  0
 22 47  1  0  0  0  0
M  CHG  1  12   1
M  END
> <s_m_source_file>
AV-unprocessed.smi

> <i_m_source_file_index>
1626

> <i_lp_mmshare_version>
43012

> <i_f3d_flags>
0

> <s_epik_input>
W0NIM11jKFtjSF0xKWMoW0NIM10pW2NIXWMoYzEyKW4oW2NIXW4yKVtDSDJdW0NASF0oW09IXSlbQ0gyXU4zW0NIMl1bQ0gyXVtDSF0oW09IXSlbQ0gyXVtDSDJdMw==

> <s_epik_cmdline>
J2VwaWtfcHl0aG9uJywgJy1waCcsICc3LjAnLCAnLXRuJywgJzgnLCAnLW1hJywgJzIwMCcsICctbWV0YWxfYmluZGluZycsICctaW1hZScsICc8aW5maWxlLm1hZT4nLCAnLW9tYWUnLCAnPG91dGZpbGUubWFlPic=

> <r_epik_Ionization_Penalty>
0.106584

> <r_epik_Ionization_Penalty_Charging>
0.0185694

> <r_epik_Ionization_Penalty_Neutral>
0.0880147

> <r_epik_State_Penalty>
0.0908428

> <r_epik_Charging_Adjusted_Penalty>
0.109412

> <i_epik_Tot_Q>
1

> <i_epik_Tot_abs_Q>
1

> <r_epik_Metal_State_Penalty>
0.0153739

> <b_epik_Metal_Only>
0

> <s_lp_Force_Field>
OPLS_2005

> <r_lp_Energy>
20.8081

> <b_lp_Chiralities_Consistent>
1

> <s_lp_Variant>
AV-unprocessed.smi:1626-2

> <Gold.Version>
5.8.1

> <Gold.Id.Protein>
6NUR|6NUR_protein|mol2

> <Gold.PLP.Fitness>
49.9695

> <Gold.PLP.PLP>
-44.2317

> <Gold.PLP.part.hbond>
-2.0000

> <Gold.PLP.part.metal>
0.0000

> <Gold.PLP.part.buried>
-0.7177

> <Gold.PLP.part.nonpolar>
-42.2323

> <Gold.PLP.part.repulsive>
0.0000

> <Gold.PLP.ligand.clash>
0.0000

> <Gold.PLP.ligand.torsion>
1.6808

> <Gold.PLP.Chemscore.Hbond>
3.0000

> <Gold.PLP.Chemscore.CHOScore>
0.0000

> <Gold.PLP.Chemscore.Metal>
0.0000

> <Gold.Chemscore.Hbonds>
donor molecule, donor type, donor heavy atom, donor atom, acceptor molecule, acceptor atom, score
      L1  H    10    31       P1  8028  1.00
      L1  H    12    48       P1 10175  2.00

> <Gold.PLP.Chemscore.Internal.Correction>
0.0994

> <Gold.Rescore>
     Score         DG    S(hbond)    S(metal)    S(lipo)     H(rot)  DE(clash)    DE(int)     intcor
     16.98     -18.64       1.67        0.00     123.37       2.67       0.04       1.62       ----

> <Gold.Chemscore.Fitness>
16.9834

> <Gold.Chemscore.DG>
-18.6427

> <Gold.Chemscore.ZeroCoef>
-5.4800

> <Gold.Chemscore.Hbond>
1.6668

> <Gold.Chemscore.Metal>
0.0000

> <Gold.Chemscore.Lipo>
123.3656

> <Gold.Chemscore.Internal_Hbond>
0.0000

> <Gold.Chemscore.DEClash>
0.0421

> <Gold.Chemscore.DEInternal>
1.6172

> <Gold.Chemscore.Rot>
2.6712

> <Gold.Chemscore.Internal.Correction>
   9.000000E+99

> <Gold.Chemscore.Hbonds>
donor molecule, donor type, donor heavy atom, donor atom, acceptor molecule, acceptor atom, score
      L1  H    10    31       P1  8028  0.50
      L1  H    12    48       P1 10175  0.84

> <Gold.Chemscore.Hbond.Weighted>
-5.5673

> <Gold.Chemscore.Metal.Weighted>
-0.0000

> <Gold.Chemscore.Lipo.Weighted>
-14.4338

> <Gold.Chemscore.Internal_Hbond.Weighted>
0.0000

> <Gold.Chemscore.DEClash.Weighted>
0.0421

> <Gold.Chemscore.DEInternal.Weighted>
1.6172

> <Gold.Chemscore.Rot.Weighted>
6.8383

> <Gold.Chemscore.Internal.Correction.Weighted>
   9.000000E+99

> <Gold.Protein.RotatedTorsions>
[ 6907 6896 6895 6894 ] final   56.40 input  -60.11 | X-H torsion
[ 7974 7965 7964 7962 ] final -118.65 input  175.53 | X-H torsion
[ 8008 7997 7996 7995 ] final -177.94 input   59.86 | X-H torsion
[ 10167 10162 10161 10158 ] final -108.94 input  -65.29 | X-H torsion
[ 10718 10713 10712 10709 ] final  -78.55 input   66.30 | X-H torsion
[ 10763 10752 10751 10750 ] final   74.47 input  -60.55 | X-H torsion
[ 11005 11000 10999 10996 ] final -122.05 input  -57.11 | X-H torsion

> <Gold.Protein.ActiveResidues>
 VAL166  LYS551  ARG553  GLY616  TRP617  ASP618  TYR619  PRO620  LYS621  CYS622 
 ASP623  PHE694  ASN695  SER759  ASP760  ASP761  ALA762  ILE779  LEU786  VAL792 
 PHE793  MET794  SER795  GLU796  ALA797  LYS798  CYS799  TRP800  GLU811  SER814 

> <Gold.Protein.RotatedAtoms>
  152.3632  134.6841  160.0200 H   0  0  0  0  0  0  0  0  0  0  0  0  # atno 6907 bound_to 6896
  151.7158  133.3308  159.3310 H   0  0  0  0  0  0  0  0  0  0  0  0  # atno 6908 bound_to 6896
  150.7620  134.6426  159.6290 H   0  0  0  0  0  0  0  0  0  0  0  0  # atno 6909 bound_to 6896
  145.0714  140.8362  143.4093 H   0  0  0  0  0  0  0  0  0  0  0  0  # atno 7974 bound_to 7965
  156.0129  140.1244  157.0436 H   0  0  0  0  0  0  0  0  0  0  0  0  # atno 8008 bound_to 7997
  154.4282  140.1084  156.5924 H   0  0  0  0  0  0  0  0  0  0  0  0  # atno 8009 bound_to 7997
  155.6054  140.3471  155.4608 H   0  0  0  0  0  0  0  0  0  0  0  0  # atno 8010 bound_to 7997
  140.1607  143.4122  152.1427 H   0  0  0  0  0  0  0  0  0  0  0  0  # atno 10167 bound_to 10162
  156.0115  130.4521  150.3513 H   0  0  0  0  0  0  0  0  0  0  0  0  # atno 10718 bound_to 10713
  153.0589  135.5024  154.8047 H   0  0  0  0  0  0  0  0  0  0  0  0  # atno 10763 bound_to 10752
  154.6852  135.2975  154.9560 H   0  0  0  0  0  0  0  0  0  0  0  0  # atno 10764 bound_to 10752
  154.0333  135.6726  153.4835 H   0  0  0  0  0  0  0  0  0  0  0  0  # atno 10765 bound_to 10752
  141.0024  134.0383  157.3520 H   0  0  0  0  0  0  0  0  0  0  0  0  # atno 11005 bound_to 11000
  145.1287  139.2646  143.5550 LP  0  0  0  0  0  0  0  0  0  0  0  0  # atno 17320 bound_to 7965
  146.3529  140.0932  142.8611 LP  0  0  0  0  0  0  0  0  0  0  0  0  # atno 17321 bound_to 7965
  139.5382  144.7231  151.4821 LP  0  0  0  0  0  0  0  0  0  0  0  0  # atno 17342 bound_to 10162
  140.6644  143.8428  150.6925 LP  0  0  0  0  0  0  0  0  0  0  0  0  # atno 17343 bound_to 10162
  157.1605  131.0344  151.2843 LP  0  0  0  0  0  0  0  0  0  0  0  0  # atno 17370 bound_to 10713
  157.4315  130.7493  149.6994 LP  0  0  0  0  0  0  0  0  0  0  0  0  # atno 17371 bound_to 10713
  139.9046  135.0175  156.7426 LP  0  0  0  0  0  0  0  0  0  0  0  0  # atno 17394 bound_to 11000
  140.6867  133.9426  155.7942 LP  0  0  0  0  0  0  0  0  0  0  0  0  # atno 17395 bound_to 11000

$$$$
