AV-unprocessed.smi:2846|AV-procd|sdf|10951|dock10
  -GOLD-   2272015403D 1   1.00000     0.00000
 Structure written by MMmdl.
 48 50  0  0  0  0  0  0  0  0  1 V2000
  152.7146  139.6224  159.5475 O   0  0  0  0  0  0  0  0  0  0  0  0
  153.7422  140.0119  160.1033 C   0  0  0  0  0  0  0  0  0  0  0  0
  154.3069  141.4055  159.8172 C   0  0  0  0  0  0  0  0  0  0  0  0
  153.3843  142.5790  160.1039 C   0  0  0  0  0  0  0  0  0  0  0  0
  152.9640  142.8721  161.3499 C   0  0  0  0  0  0  0  0  0  0  0  0
  152.0546  144.0397  161.6893 C   0  0  0  0  0  0  0  0  0  0  0  0
  151.9484  145.0520  160.5361 C   0  0  0  0  0  0  0  0  0  0  0  0
  151.7766  144.3401  159.1882 C   0  0  0  0  0  0  0  0  0  0  0  0
  152.9595  143.4001  158.8924 C   0  0  0  0  0  0  0  0  0  0  0  0
  154.4295  139.2716  160.9857 N   0  0  0  0  0  0  0  0  0  0  0  0
  154.0734  137.9239  161.4255 C   0  0  0  0  0  0  0  0  0  0  0  0
  155.2099  137.2167  162.2158 C   0  0  0  0  0  0  0  0  0  0  0  0
  156.5034  137.2233  161.3867 C   0  0  0  0  0  0  0  0  0  0  0  0
  157.6833  137.8064  161.9031 C   0  0  0  0  0  0  0  0  0  0  0  0
  158.8576  137.7758  161.1253 C   0  0  0  0  0  0  0  0  0  0  0  0
  158.9233  137.2083  159.9031 N   0  0  0  0  0  0  0  0  0  0  0  0
  157.8011  136.6415  159.4136 C   0  0  0  0  0  0  0  0  0  0  0  0
  156.5766  136.6177  160.1099 C   0  0  0  0  0  0  0  0  0  0  0  0
  155.3928  137.8257  163.6248 C   0  0  0  0  0  0  0  0  0  0  0  0
  154.2767  137.2404  164.4943 C   0  0  0  0  0  0  0  0  0  0  0  0
  153.9148  135.8961  163.8539 C   0  0  0  0  0  0  0  0  0  0  0  0
  154.7736  135.7837  162.5875 C   0  0  0  0  0  0  0  0  0  0  0  0
  155.2056  141.5208  160.4251 H   0  0  0  0  0  0  0  0  0  0  0  0
  154.6369  141.4586  158.7789 H   0  0  0  0  0  0  0  0  0  0  0  0
  153.2679  142.2490  162.1784 H   0  0  0  0  0  0  0  0  0  0  0  0
  151.0699  143.6396  161.9321 H   0  0  0  0  0  0  0  0  0  0  0  0
  152.4260  144.5363  162.5860 H   0  0  0  0  0  0  0  0  0  0  0  0
  151.1176  145.7350  160.7148 H   0  0  0  0  0  0  0  0  0  0  0  0
  152.8504  145.6644  160.5043 H   0  0  0  0  0  0  0  0  0  0  0  0
  150.8507  143.7635  159.2051 H   0  0  0  0  0  0  0  0  0  0  0  0
  151.6712  145.0691  158.3844 H   0  0  0  0  0  0  0  0  0  0  0  0
  153.8217  143.9784  158.5588 H   0  0  0  0  0  0  0  0  0  0  0  0
  152.6931  142.7305  158.0738 H   0  0  0  0  0  0  0  0  0  0  0  0
  155.2598  139.6758  161.3946 H   0  0  0  0  0  0  0  0  0  0  0  0
  153.1427  137.9355  161.9944 H   0  0  0  0  0  0  0  0  0  0  0  0
  153.8535  137.3515  160.5237 H   0  0  0  0  0  0  0  0  0  0  0  0
  157.6992  138.2670  162.8796 H   0  0  0  0  0  0  0  0  0  0  0  0
  159.7705  138.2161  161.4985 H   0  0  0  0  0  0  0  0  0  0  0  0
  157.8819  136.1868  158.4375 H   0  0  0  0  0  0  0  0  0  0  0  0
  155.7215  136.1340  159.6627 H   0  0  0  0  0  0  0  0  0  0  0  0
  156.3428  137.4906  164.0447 H   0  0  0  0  0  0  0  0  0  0  0  0
  155.4090  138.9151  163.6396 H   0  0  0  0  0  0  0  0  0  0  0  0
  154.5910  137.1308  165.5327 H   0  0  0  0  0  0  0  0  0  0  0  0
  153.4089  137.9013  164.4837 H   0  0  0  0  0  0  0  0  0  0  0  0
  154.0999  135.0613  164.5305 H   0  0  0  0  0  0  0  0  0  0  0  0
  152.8547  135.8798  163.5985 H   0  0  0  0  0  0  0  0  0  0  0  0
  154.2583  135.2645  161.7789 H   0  0  0  0  0  0  0  0  0  0  0  0
  155.6559  135.1903  162.8340 H   0  0  0  0  0  0  0  0  0  0  0  0
  1  2  2  0  0  0  0
  2  3  1  0  0  0  0
  2 10  1  0  0  0  0
  3  4  1  0  0  0  0
  3 23  1  0  0  0  0
  3 24  1  0  0  0  0
  4  9  1  0  0  0  0
  4  5  2  0  0  0  0
  5  6  1  0  0  0  0
  5 25  1  0  0  0  0
  6  7  1  0  0  0  0
  6 26  1  0  0  0  0
  6 27  1  0  0  0  0
  7  8  1  0  0  0  0
  7 28  1  0  0  0  0
  7 29  1  0  0  0  0
  8  9  1  0  0  0  0
  8 30  1  0  0  0  0
  8 31  1  0  0  0  0
  9 32  1  0  0  0  0
  9 33  1  0  0  0  0
 10 11  1  0  0  0  0
 10 34  1  0  0  0  0
 11 12  1  0  0  0  0
 11 35  1  0  0  0  0
 11 36  1  0  0  0  0
 12 22  1  0  0  0  0
 12 13  1  0  0  0  0
 12 19  1  0  0  0  0
 13 18  1  0  0  0  0
 13 14  2  0  0  0  0
 14 15  1  0  0  0  0
 14 37  1  0  0  0  0
 15 16  2  0  0  0  0
 15 38  1  0  0  0  0
 16 17  1  0  0  0  0
 17 18  2  0  0  0  0
 17 39  1  0  0  0  0
 18 40  1  0  0  0  0
 19 20  1  0  0  0  0
 19 41  1  0  0  0  0
 19 42  1  0  0  0  0
 20 21  1  0  0  0  0
 20 43  1  0  0  0  0
 20 44  1  0  0  0  0
 21 22  1  0  0  0  0
 21 45  1  0  0  0  0
 21 46  1  0  0  0  0
 22 47  1  0  0  0  0
 22 48  1  0  0  0  0
M  END
> <s_m_source_file>
AV-unprocessed.smi

> <i_m_source_file_index>
2846

> <i_lp_mmshare_version>
43012

> <i_f3d_flags>
0

> <s_epik_input>
W0NIMl0xW0NIMl1bQ0gyXVtDSDJdW0NIXT1DMVtDSDJdQyg9TylbTkhdW0NIMl1DMihbQ0gyXVtDSDJdW0NIMl1bQ0gyXTIpYzNbY0hdW2NIXW5bY0hdW2NIXTM=

> <s_epik_cmdline>
J2VwaWtfcHl0aG9uJywgJy1waCcsICc3LjAnLCAnLXRuJywgJzgnLCAnLW1hJywgJzIwMCcsICctbWV0YWxfYmluZGluZycsICctaW1hZScsICc8aW5maWxlLm1hZT4nLCAnLW9tYWUnLCAnPG91dGZpbGUubWFlPic=

> <r_epik_Ionization_Penalty>
0.0617419

> <r_epik_Ionization_Penalty_Charging>
0

> <r_epik_Ionization_Penalty_Neutral>
0.0617419

> <r_epik_State_Penalty>
0.0536117

> <r_epik_Charging_Adjusted_Penalty>
0.0536117

> <i_epik_Tot_Q>
0

> <i_epik_Tot_abs_Q>
0

> <r_epik_Metal_State_Penalty>
0.0485218

> <b_epik_Metal_Only>
0

> <s_lp_Force_Field>
OPLS_2005

> <r_lp_Energy>
29.944

> <b_lp_Chiralities_Consistent>
1

> <s_lp_Variant>
AV-unprocessed.smi:2846-1

> <Gold.Version>
5.8.1

> <Gold.Id.Protein>
6NUR|6NUR_protein|mol2

> <Gold.PLP.Fitness>
43.6362

> <Gold.PLP.PLP>
-43.8415

> <Gold.PLP.part.hbond>
0.0000

> <Gold.PLP.part.metal>
0.0000

> <Gold.PLP.part.buried>
-5.0732

> <Gold.PLP.part.nonpolar>
-38.5898

> <Gold.PLP.part.repulsive>
0.1425

> <Gold.PLP.ligand.clash>
0.0000

> <Gold.PLP.ligand.torsion>
0.1708

> <Gold.PLP.Chemscore.Hbond>
0.0000

> <Gold.PLP.Chemscore.CHOScore>
0.0000

> <Gold.PLP.Chemscore.Metal>
0.0000

> <Gold.PLP.Chemscore.Internal.Correction>
0.1365

> <Gold.Rescore>
     Score         DG    S(hbond)    S(metal)    S(lipo)     H(rot)  DE(clash)    DE(int)     intcor
     17.01     -17.15       0.00        0.00     129.95       1.38       0.03       0.12       ----

> <Gold.Chemscore.Fitness>
17.0137

> <Gold.Chemscore.DG>
-17.1544

> <Gold.Chemscore.ZeroCoef>
-5.4800

> <Gold.Chemscore.Hbond>
0.0000

> <Gold.Chemscore.Metal>
0.0000

> <Gold.Chemscore.Lipo>
129.9517

> <Gold.Chemscore.Internal_Hbond>
0.0000

> <Gold.Chemscore.DEClash>
0.0257

> <Gold.Chemscore.DEInternal>
0.1150

> <Gold.Chemscore.Rot>
1.3789

> <Gold.Chemscore.Internal.Correction>
   9.000000E+99

> <Gold.Chemscore.Hbond.Weighted>
-0.0000

> <Gold.Chemscore.Metal.Weighted>
-0.0000

> <Gold.Chemscore.Lipo.Weighted>
-15.2044

> <Gold.Chemscore.Internal_Hbond.Weighted>
0.0000

> <Gold.Chemscore.DEClash.Weighted>
0.0257

> <Gold.Chemscore.DEInternal.Weighted>
0.1150

> <Gold.Chemscore.Rot.Weighted>
3.5299

> <Gold.Chemscore.Internal.Correction.Weighted>
   9.000000E+99

> <Gold.Protein.RotatedTorsions>
[ 6907 6896 6895 6894 ] final  162.28 input  -60.11 | X-H torsion
[ 7974 7965 7964 7962 ] final -174.34 input  175.53 | X-H torsion
[ 8008 7997 7996 7995 ] final -142.35 input   59.86 | X-H torsion
[ 10167 10162 10161 10158 ] final -135.08 input  -65.29 | X-H torsion
[ 10718 10713 10712 10709 ] final   10.84 input   66.30 | X-H torsion
[ 10763 10752 10751 10750 ] final   45.05 input  -60.55 | X-H torsion
[ 11005 11000 10999 10996 ] final -167.49 input  -57.11 | X-H torsion

> <Gold.Protein.ActiveResidues>
 VAL166  LYS551  ARG553  GLY616  TRP617  ASP618  TYR619  PRO620  LYS621  CYS622 
 ASP623  PHE694  ASN695  SER759  ASP760  ASP761  ALA762  ILE779  LEU786  VAL792 
 PHE793  MET794  SER795  GLU796  ALA797  LYS798  CYS799  TRP800  GLU811  SER814 

> <Gold.Protein.RotatedAtoms>
  151.9429  133.3643  159.3971 H   0  0  0  0  0  0  0  0  0  0  0  0  # atno 6907 bound_to 6896
  150.6995  134.4421  159.5306 H   0  0  0  0  0  0  0  0  0  0  0  0  # atno 6908 bound_to 6896
  152.2080  134.8527  160.0551 H   0  0  0  0  0  0  0  0  0  0  0  0  # atno 6909 bound_to 6896
  144.7132  140.1486  143.6386 H   0  0  0  0  0  0  0  0  0  0  0  0  # atno 7974 bound_to 7965
  155.4928  140.0569  157.2951 H   0  0  0  0  0  0  0  0  0  0  0  0  # atno 8008 bound_to 7997
  154.4616  140.1999  156.0179 H   0  0  0  0  0  0  0  0  0  0  0  0  # atno 8009 bound_to 7997
  156.0901  140.3234  155.7809 H   0  0  0  0  0  0  0  0  0  0  0  0  # atno 8010 bound_to 7997
  139.8815  143.6833  152.2626 H   0  0  0  0  0  0  0  0  0  0  0  0  # atno 10167 bound_to 10162
  156.9869  130.6027  149.5682 H   0  0  0  0  0  0  0  0  0  0  0  0  # atno 10718 bound_to 10713
  152.9831  135.6051  154.3374 H   0  0  0  0  0  0  0  0  0  0  0  0  # atno 10763 bound_to 10752
  154.3073  135.2772  155.2585 H   0  0  0  0  0  0  0  0  0  0  0  0  # atno 10764 bound_to 10752
  154.4810  135.5917  153.6445 H   0  0  0  0  0  0  0  0  0  0  0  0  # atno 10765 bound_to 10752
  140.5527  134.5412  157.5126 H   0  0  0  0  0  0  0  0  0  0  0  0  # atno 11005 bound_to 11000
  145.9137  139.2503  143.1422 LP  0  0  0  0  0  0  0  0  0  0  0  0  # atno 17320 bound_to 7965
  145.9690  140.8775  143.0172 LP  0  0  0  0  0  0  0  0  0  0  0  0  # atno 17321 bound_to 7965
  139.7191  144.7606  151.0985 LP  0  0  0  0  0  0  0  0  0  0  0  0  # atno 17342 bound_to 10162
  140.7743  143.5231  150.9513 LP  0  0  0  0  0  0  0  0  0  0  0  0  # atno 17343 bound_to 10162
  156.0222  130.5317  150.8308 LP  0  0  0  0  0  0  0  0  0  0  0  0  # atno 17370 bound_to 10713
  157.5487  131.0943  150.9727 LP  0  0  0  0  0  0  0  0  0  0  0  0  # atno 17371 bound_to 10713
  139.9447  134.7723  156.0591 LP  0  0  0  0  0  0  0  0  0  0  0  0  # atno 17394 bound_to 11000
  141.1162  133.6627  156.3100 LP  0  0  0  0  0  0  0  0  0  0  0  0  # atno 17395 bound_to 11000

$$$$
