AV-unprocessed.smi:1328|AV-procd|sdf|5482|dock7
  -GOLD-   22720 5 53D 1   1.00000     0.00000
 Structure written by MMmdl.
 38 39  0  0  0  0  0  0  0  0  1 V2000
  150.2539  135.5956  156.4478 C   0  0  0  0  0  0  0  0  0  0  0  0
  150.0112  134.1140  156.4043 C   0  0  0  0  0  0  0  0  0  0  0  0
  150.1828  133.3917  157.4988 N   0  0  0  0  0  0  0  0  0  0  0  0
  149.8799  132.0746  157.1401 O   0  0  0  0  0  0  0  0  0  0  0  0
  149.5354  132.0555  155.8273 C   0  0  0  0  0  0  0  0  0  0  0  0
  149.1661  130.7316  155.2485 C   0  0  0  0  0  0  0  0  0  0  0  0
  149.5998  133.3153  155.2988 C   0  0  0  0  0  0  0  0  0  0  0  0
  149.3025  133.7589  153.8901 C   0  0  0  0  0  0  0  0  0  0  0  0
  147.8229  133.5285  153.5834 C   0  0  0  0  0  0  0  0  0  0  0  0
  147.2254  132.5895  154.1089 O   0  0  0  0  0  0  0  0  0  0  0  0
  147.2468  134.3986  152.7388 N   0  0  0  0  0  0  0  0  0  0  0  0
  145.8402  134.4108  152.3428 C   0  0  1  0  0  0  0  0  0  0  0  0
  145.5714  135.6906  151.5381 C   0  0  0  0  0  0  0  0  0  0  0  0
  145.4904  133.1433  151.5357 C   0  0  1  0  0  0  0  0  0  0  0  0
  144.0727  133.1071  150.9620 C   0  0  0  0  0  0  0  0  0  0  0  0
  144.1897  132.1569  149.7813 C   0  0  0  0  0  0  0  0  0  0  0  0
  145.6954  132.0796  149.5137 C   0  0  0  0  0  0  0  0  0  0  0  0
  146.2785  133.0625  150.3584 O   0  0  0  0  0  0  0  0  0  0  0  0
  151.1868  135.8509  155.9453 H   0  0  0  0  0  0  0  0  0  0  0  0
  150.3159  135.9649  157.4719 H   0  0  0  0  0  0  0  0  0  0  0  0
  149.4499  136.1395  155.9523 H   0  0  0  0  0  0  0  0  0  0  0  0
  148.0903  130.6720  155.0830 H   0  0  0  0  0  0  0  0  0  0  0  0
  149.4519  129.9172  155.9146 H   0  0  0  0  0  0  0  0  0  0  0  0
  149.6648  130.5749  154.2920 H   0  0  0  0  0  0  0  0  0  0  0  0
  149.5544  134.8103  153.7436 H   0  0  0  0  0  0  0  0  0  0  0  0
  149.8971  133.2033  153.1643 H   0  0  0  0  0  0  0  0  0  0  0  0
  147.8268  135.1306  152.3553 H   0  0  0  0  0  0  0  0  0  0  0  0
  145.2080  134.4437  153.2320 H   0  0  0  0  0  0  0  0  0  0  0  0
  144.5212  135.7648  151.2549 H   0  0  0  0  0  0  0  0  0  0  0  0
  146.1647  135.7178  150.6235 H   0  0  0  0  0  0  0  0  0  0  0  0
  145.8160  136.5793  152.1207 H   0  0  0  0  0  0  0  0  0  0  0  0
  145.6670  132.2495  152.1377 H   0  0  0  0  0  0  0  0  0  0  0  0
  143.3287  132.7875  151.6921 H   0  0  0  0  0  0  0  0  0  0  0  0
  143.7881  134.0971  150.6028 H   0  0  0  0  0  0  0  0  0  0  0  0
  143.7945  131.1702  150.0251 H   0  0  0  0  0  0  0  0  0  0  0  0
  143.6410  132.5343  148.9180 H   0  0  0  0  0  0  0  0  0  0  0  0
  146.0822  131.0963  149.7849 H   0  0  0  0  0  0  0  0  0  0  0  0
  145.9450  132.2670  148.4692 H   0  0  0  0  0  0  0  0  0  0  0  0
  1  2  1  0  0  0  0
  1 19  1  0  0  0  0
  1 20  1  0  0  0  0
  1 21  1  0  0  0  0
  2  7  1  0  0  0  0
  2  3  2  0  0  0  0
  3  4  1  0  0  0  0
  4  5  1  0  0  0  0
  5  6  1  0  0  0  0
  5  7  2  0  0  0  0
  6 22  1  0  0  0  0
  6 23  1  0  0  0  0
  6 24  1  0  0  0  0
  7  8  1  0  0  0  0
  8  9  1  0  0  0  0
  8 25  1  0  0  0  0
  8 26  1  0  0  0  0
  9 10  2  0  0  0  0
  9 11  1  0  0  0  0
 11 12  1  0  0  0  0
 11 27  1  0  0  0  0
 12 13  1  0  0  0  0
 12 14  1  0  0  0  0
 12 28  1  0  0  0  0
 13 29  1  0  0  0  0
 13 30  1  0  0  0  0
 13 31  1  0  0  0  0
 14 18  1  0  0  0  0
 14 15  1  0  0  0  0
 14 32  1  0  0  0  0
 15 16  1  0  0  0  0
 15 33  1  0  0  0  0
 15 34  1  0  0  0  0
 16 17  1  0  0  0  0
 16 35  1  0  0  0  0
 16 36  1  0  0  0  0
 17 18  1  0  0  0  0
 17 37  1  0  0  0  0
 17 38  1  0  0  0  0
M  END
> <s_m_source_file>
AV-unprocessed.smi

> <i_m_source_file_index>
1328

> <i_lp_mmshare_version>
43012

> <i_f3d_flags>
0

> <s_epik_input>
W0NIM11jMW5vYyhbQ0gzXSljMVtDSDJdQyg9TylbTkhdW0NASF0oW0NIM10pW0NAQEhdMltDSDJdW0NIMl1bQ0gyXU8y

> <s_epik_cmdline>
J2VwaWtfcHl0aG9uJywgJy1waCcsICc3LjAnLCAnLXRuJywgJzgnLCAnLW1hJywgJzIwMCcsICctbWV0YWxfYmluZGluZycsICctaW1hZScsICc8aW5maWxlLm1hZT4nLCAnLW9tYWUnLCAnPG91dGZpbGUubWFlPic=

> <r_lp_tautomer_probability>
1

> <r_epik_Ionization_Penalty>
2.66156e-08

> <r_epik_Ionization_Penalty_Charging>
0

> <r_epik_Ionization_Penalty_Neutral>
2.66156e-08

> <r_epik_State_Penalty>
-0

> <r_epik_Charging_Adjusted_Penalty>
0

> <i_epik_Tot_Q>
0

> <i_epik_Tot_abs_Q>
0

> <r_epik_Metal_State_Penalty>
-0

> <b_epik_Metal_Only>
0

> <s_lp_Force_Field>
OPLS_2005

> <r_lp_Energy>
12.2386

> <b_lp_Chiralities_Consistent>
1

> <s_lp_Variant>
AV-unprocessed.smi:1328-4

> <Gold.Version>
5.8.1

> <Gold.Id.Protein>
6NUR|6NUR_protein|mol2

> <Gold.PLP.Fitness>
37.4780

> <Gold.PLP.PLP>
-32.3720

> <Gold.PLP.part.hbond>
-2.0000

> <Gold.PLP.part.metal>
0.0000

> <Gold.PLP.part.buried>
-5.0878

> <Gold.PLP.part.nonpolar>
-26.0728

> <Gold.PLP.part.repulsive>
0.2623

> <Gold.PLP.ligand.clash>
0.0000

> <Gold.PLP.ligand.torsion>
0.4630

> <Gold.PLP.Chemscore.Hbond>
2.0000

> <Gold.PLP.Chemscore.CHOScore>
0.0000

> <Gold.PLP.Chemscore.Metal>
0.0000

> <Gold.Chemscore.Hbonds>
donor molecule, donor type, donor heavy atom, donor atom, acceptor molecule, acceptor atom, score
      L1  H    11    27       P1  7948  1.00
      P1  H  6896  6907       L1     3  0.83

> <Gold.PLP.Chemscore.Internal.Correction>
0.0320

> <Gold.Rescore>
     Score         DG    S(hbond)    S(metal)    S(lipo)     H(rot)  DE(clash)    DE(int)     intcor
     15.24     -16.66       1.92        0.00      73.87       1.52       0.00       1.42       ----

> <Gold.Chemscore.Fitness>
15.2369

> <Gold.Chemscore.DG>
-16.6559

> <Gold.Chemscore.ZeroCoef>
-5.4800

> <Gold.Chemscore.Hbond>
1.9203

> <Gold.Chemscore.Metal>
0.0000

> <Gold.Chemscore.Lipo>
73.8702

> <Gold.Chemscore.Internal_Hbond>
0.0000

> <Gold.Chemscore.DEClash>
0.0029

> <Gold.Chemscore.DEInternal>
1.4161

> <Gold.Chemscore.Rot>
1.5159

> <Gold.Chemscore.Internal.Correction>
   9.000000E+99

> <Gold.Chemscore.Hbonds>
donor molecule, donor type, donor heavy atom, donor atom, acceptor molecule, acceptor atom, score
      L1  H    11    27       P1  7948  0.95
      P1  H  6896  6907       L1     3  0.62

> <Gold.Chemscore.Hbond.Weighted>
-6.4139

> <Gold.Chemscore.Metal.Weighted>
-0.0000

> <Gold.Chemscore.Lipo.Weighted>
-8.6428

> <Gold.Chemscore.Internal_Hbond.Weighted>
0.0000

> <Gold.Chemscore.DEClash.Weighted>
0.0029

> <Gold.Chemscore.DEInternal.Weighted>
1.4161

> <Gold.Chemscore.Rot.Weighted>
3.8807

> <Gold.Chemscore.Internal.Correction.Weighted>
   9.000000E+99

> <Gold.Protein.RotatedTorsions>
[ 6907 6896 6895 6894 ] final -152.20 input  -60.11 | X-H torsion
[ 7974 7965 7964 7962 ] final  124.52 input  175.53 | X-H torsion
[ 8008 7997 7996 7995 ] final -121.29 input   59.86 | X-H torsion
[ 10167 10162 10161 10158 ] final -113.30 input  -65.29 | X-H torsion
[ 10718 10713 10712 10709 ] final  152.91 input   66.30 | X-H torsion
[ 10763 10752 10751 10750 ] final -158.87 input  -60.55 | X-H torsion
[ 11005 11000 10999 10996 ] final  163.69 input  -57.11 | X-H torsion

> <Gold.Protein.ActiveResidues>
 VAL166  LYS551  ARG553  GLY616  TRP617  ASP618  TYR619  PRO620  LYS621  CYS622 
 ASP623  PHE694  ASN695  SER759  ASP760  ASP761  ALA762  ILE779  LEU786  VAL792 
 PHE793  MET794  SER795  GLU796  ALA797  LYS798  CYS799  TRP800  GLU811  SER814 

> <Gold.Protein.RotatedAtoms>
  151.2243  133.4485  159.2601 H   0  0  0  0  0  0  0  0  0  0  0  0  # atno 6907 bound_to 6896
  151.0854  134.9884  159.8387 H   0  0  0  0  0  0  0  0  0  0  0  0  # atno 6908 bound_to 6896
  152.5429  134.2180  159.8829 H   0  0  0  0  0  0  0  0  0  0  0  0  # atno 6909 bound_to 6896
  145.0834  139.3640  143.4897 H   0  0  0  0  0  0  0  0  0  0  0  0  # atno 7974 bound_to 7965
  155.1456  140.0403  157.2809 H   0  0  0  0  0  0  0  0  0  0  0  0  # atno 8008 bound_to 7997
  154.6441  140.2554  155.7262 H   0  0  0  0  0  0  0  0  0  0  0  0  # atno 8009 bound_to 7997
  156.2546  140.2849  156.0847 H   0  0  0  0  0  0  0  0  0  0  0  0  # atno 8010 bound_to 7997
  140.1133  143.4508  152.1738 H   0  0  0  0  0  0  0  0  0  0  0  0  # atno 10167 bound_to 10162
  157.2516  131.0780  151.1726 H   0  0  0  0  0  0  0  0  0  0  0  0  # atno 10718 bound_to 10713
  154.7521  135.3095  154.8537 H   0  0  0  0  0  0  0  0  0  0  0  0  # atno 10763 bound_to 10752
  153.9321  135.6784  153.4749 H   0  0  0  0  0  0  0  0  0  0  0  0  # atno 10764 bound_to 10752
  153.1118  135.4863  154.8976 H   0  0  0  0  0  0  0  0  0  0  0  0  # atno 10765 bound_to 10752
  140.2383  134.8070  157.3386 H   0  0  0  0  0  0  0  0  0  0  0  0  # atno 11005 bound_to 11000
  146.3531  140.0635  142.8628 LP  0  0  0  0  0  0  0  0  0  0  0  0  # atno 17320 bound_to 7965
  145.1151  140.9429  143.4633 LP  0  0  0  0  0  0  0  0  0  0  0  0  # atno 17321 bound_to 7965
  139.5607  144.7404  151.4163 LP  0  0  0  0  0  0  0  0  0  0  0  0  # atno 17342 bound_to 10162
  140.6913  143.7854  150.7260 LP  0  0  0  0  0  0  0  0  0  0  0  0  # atno 17343 bound_to 10162
  157.3272  130.6966  149.6303 LP  0  0  0  0  0  0  0  0  0  0  0  0  # atno 17370 bound_to 10713
  155.9666  130.4318  150.4936 LP  0  0  0  0  0  0  0  0  0  0  0  0  # atno 17371 bound_to 10713
  140.1679  134.4645  155.7851 LP  0  0  0  0  0  0  0  0  0  0  0  0  # atno 17394 bound_to 11000
  141.2212  133.6929  156.7657 LP  0  0  0  0  0  0  0  0  0  0  0  0  # atno 17395 bound_to 11000

$$$$
