AV-unprocessed.smi:556|AV-procd|sdf|2912|dock5
  -GOLD-   2262023403D 1   1.00000     0.00000
 Structure written by MMmdl.
 38 39  0  0  0  0  0  0  0  0  1 V2000
  147.4567  141.3648  157.0568 C   0  0  0  0  0  0  0  0  0  0  0  0
  148.5570  141.8240  156.0850 C   0  0  2  0  0  0  0  0  0  0  0  0
  148.2220  141.5446  154.6043 C   0  0  0  0  0  0  0  0  0  0  0  0
  148.3588  140.1660  154.2948 O   0  0  0  0  0  0  0  0  0  0  0  0
  149.6861  139.7112  154.5064 C   0  0  0  0  0  0  0  0  0  0  0  0
  150.0308  139.8464  155.9956 C   0  0  0  0  0  0  0  0  0  0  0  0
  149.8677  141.2380  156.4490 N   0  0  0  0  0  0  0  0  0  0  0  0
  150.8519  141.8701  157.1413 C   0  0  0  0  0  0  0  0  0  0  0  0
  151.7615  141.2763  157.7226 O   0  0  0  0  0  0  0  0  0  0  0  0
  150.7366  143.2074  157.1928 N   0  0  0  0  0  0  0  0  0  0  0  0
  151.6542  144.0937  157.8946 C   0  0  0  0  0  0  0  0  0  0  0  0
  151.1010  144.4536  159.2795 C   0  0  0  0  0  0  0  0  0  0  0  0
  151.7344  143.6226  160.3599 C   0  0  0  0  0  0  0  0  0  0  0  0
  151.6581  143.8169  161.7687 C   0  0  0  0  0  0  0  0  0  0  0  0
  152.3319  142.9060  162.4518 N   0  0  0  0  0  0  0  0  0  0  0  0
  152.8593  142.1006  161.5071 N   0  0  0  0  0  0  0  0  0  0  0  0
  153.6725  140.9721  161.9057 C   0  0  0  0  0  0  0  0  0  0  0  0
  152.5167  142.5090  160.2359 C   0  0  0  0  0  0  0  0  0  0  0  0
  146.5080  141.8516  156.8293 H   0  0  0  0  0  0  0  0  0  0  0  0
  147.7134  141.6116  158.0873 H   0  0  0  0  0  0  0  0  0  0  0  0
  147.2934  140.2883  157.0017 H   0  0  0  0  0  0  0  0  0  0  0  0
  148.5864  142.9119  156.1517 H   0  0  0  0  0  0  0  0  0  0  0  0
  147.2031  141.8597  154.3785 H   0  0  0  0  0  0  0  0  0  0  0  0
  148.8759  142.1264  153.9524 H   0  0  0  0  0  0  0  0  0  0  0  0
  149.7538  138.6674  154.1993 H   0  0  0  0  0  0  0  0  0  0  0  0
  150.3880  140.2723  153.8870 H   0  0  0  0  0  0  0  0  0  0  0  0
  149.3757  139.2055  156.5863 H   0  0  0  0  0  0  0  0  0  0  0  0
  151.0393  139.4620  156.1528 H   0  0  0  0  0  0  0  0  0  0  0  0
  149.9590  143.6371  156.7133 H   0  0  0  0  0  0  0  0  0  0  0  0
  152.6259  143.6074  157.9944 H   0  0  0  0  0  0  0  0  0  0  0  0
  151.8027  144.9976  157.3015 H   0  0  0  0  0  0  0  0  0  0  0  0
  151.2689  145.5144  159.4704 H   0  0  0  0  0  0  0  0  0  0  0  0
  150.0183  144.3205  159.2801 H   0  0  0  0  0  0  0  0  0  0  0  0
  151.1355  144.5907  162.3117 H   0  0  0  0  0  0  0  0  0  0  0  0
  153.9564  140.3874  161.0303 H   0  0  0  0  0  0  0  0  0  0  0  0
  153.1111  140.3348  162.5899 H   0  0  0  0  0  0  0  0  0  0  0  0
  154.5753  141.3261  162.4044 H   0  0  0  0  0  0  0  0  0  0  0  0
  152.8539  141.9794  159.3569 H   0  0  0  0  0  0  0  0  0  0  0  0
  1  2  1  0  0  0  0
  1 19  1  0  0  0  0
  1 20  1  0  0  0  0
  1 21  1  0  0  0  0
  2  7  1  0  0  0  0
  2  3  1  0  0  0  0
  2 22  1  0  0  0  0
  3  4  1  0  0  0  0
  3 23  1  0  0  0  0
  3 24  1  0  0  0  0
  4  5  1  0  0  0  0
  5  6  1  0  0  0  0
  5 25  1  0  0  0  0
  5 26  1  0  0  0  0
  6  7  1  0  0  0  0
  6 27  1  0  0  0  0
  6 28  1  0  0  0  0
  7  8  1  0  0  0  0
  8  9  2  0  0  0  0
  8 10  1  0  0  0  0
 10 11  1  0  0  0  0
 10 29  1  0  0  0  0
 11 12  1  0  0  0  0
 11 30  1  0  0  0  0
 11 31  1  0  0  0  0
 12 13  1  0  0  0  0
 12 32  1  0  0  0  0
 12 33  1  0  0  0  0
 13 18  2  0  0  0  0
 13 14  1  0  0  0  0
 14 15  2  0  0  0  0
 14 34  1  0  0  0  0
 15 16  1  0  0  0  0
 16 17  1  0  0  0  0
 16 18  1  0  0  0  0
 17 35  1  0  0  0  0
 17 36  1  0  0  0  0
 17 37  1  0  0  0  0
 18 38  1  0  0  0  0
M  END
> <s_m_source_file>
AV-unprocessed.smi

> <i_m_source_file_index>
556

> <i_lp_mmshare_version>
43012

> <i_f3d_flags>
0

> <s_epik_input>
W0NIM11bQ0BASF0xW0NIMl1PW0NIMl1bQ0gyXU4xQyg9TylbTkhdW0NIMl1bQ0gyXWMyW2NIXW5uKFtDSDNdKVtjSF0y

> <s_epik_cmdline>
J2VwaWtfcHl0aG9uJywgJy1waCcsICc3LjAnLCAnLXRuJywgJzgnLCAnLW1hJywgJzIwMCcsICctbWV0YWxfYmluZGluZycsICctaW1hZScsICc8aW5maWxlLm1hZT4nLCAnLW9tYWUnLCAnPG91dGZpbGUubWFlPic=

> <r_lp_tautomer_probability>
1

> <r_epik_Ionization_Penalty>
0.000536334

> <r_epik_Ionization_Penalty_Charging>
0

> <r_epik_Ionization_Penalty_Neutral>
0.000536334

> <r_epik_State_Penalty>
-0

> <r_epik_Charging_Adjusted_Penalty>
0

> <i_epik_Tot_Q>
0

> <i_epik_Tot_abs_Q>
0

> <r_epik_Metal_State_Penalty>
-0

> <b_epik_Metal_Only>
0

> <s_lp_Force_Field>
OPLS_2005

> <r_lp_Energy>
29.3296

> <b_lp_Chiralities_Consistent>
1

> <s_lp_Variant>
AV-unprocessed.smi:556-1

> <Gold.Version>
5.8.1

> <Gold.Id.Protein>
6NUR|6NUR_protein|mol2

> <Gold.PLP.Fitness>
43.1125

> <Gold.PLP.PLP>
-41.5213

> <Gold.PLP.part.hbond>
-1.0000

> <Gold.PLP.part.metal>
0.0000

> <Gold.PLP.part.buried>
-2.0656

> <Gold.PLP.part.nonpolar>
-37.8873

> <Gold.PLP.part.repulsive>
0.2307

> <Gold.PLP.ligand.clash>
0.0000

> <Gold.PLP.ligand.torsion>
0.7089

> <Gold.PLP.Chemscore.Hbond>
1.0000

> <Gold.PLP.Chemscore.CHOScore>
0.0000

> <Gold.PLP.Chemscore.Metal>
0.0000

> <Gold.Chemscore.Hbonds>
donor molecule, donor type, donor heavy atom, donor atom, acceptor molecule, acceptor atom, score
      L1  H    10    29       P1  8028  1.00

> <Gold.PLP.Chemscore.Internal.Correction>
0.0091

> <Gold.Rescore>
     Score         DG    S(hbond)    S(metal)    S(lipo)     H(rot)  DE(clash)    DE(int)     intcor
     15.50     -16.11       0.99        0.00      93.30       1.40       0.09       0.52       ----

> <Gold.Chemscore.Fitness>
15.5028

> <Gold.Chemscore.DG>
-16.1141

> <Gold.Chemscore.ZeroCoef>
-5.4800

> <Gold.Chemscore.Hbond>
0.9886

> <Gold.Chemscore.Metal>
0.0000

> <Gold.Chemscore.Lipo>
93.3025

> <Gold.Chemscore.Internal_Hbond>
0.0000

> <Gold.Chemscore.DEClash>
0.0900

> <Gold.Chemscore.DEInternal>
0.5212

> <Gold.Chemscore.Rot>
1.4001

> <Gold.Chemscore.Internal.Correction>
   9.000000E+99

> <Gold.Chemscore.Hbonds>
donor molecule, donor type, donor heavy atom, donor atom, acceptor molecule, acceptor atom, score
      L1  H    10    29       P1  8028  1.00

> <Gold.Chemscore.Hbond.Weighted>
-3.3019

> <Gold.Chemscore.Metal.Weighted>
-0.0000

> <Gold.Chemscore.Lipo.Weighted>
-10.9164

> <Gold.Chemscore.Internal_Hbond.Weighted>
0.0000

> <Gold.Chemscore.DEClash.Weighted>
0.0900

> <Gold.Chemscore.DEInternal.Weighted>
0.5212

> <Gold.Chemscore.Rot.Weighted>
3.5842

> <Gold.Chemscore.Internal.Correction.Weighted>
   9.000000E+99

> <Gold.Protein.RotatedTorsions>
[ 6907 6896 6895 6894 ] final -105.70 input  -60.11 | X-H torsion
[ 7974 7965 7964 7962 ] final   88.48 input  175.53 | X-H torsion
[ 8008 7997 7996 7995 ] final  -49.05 input   59.86 | X-H torsion
[ 10167 10162 10161 10158 ] final   90.53 input  -65.29 | X-H torsion
[ 10718 10713 10712 10709 ] final   72.29 input   66.30 | X-H torsion
[ 10763 10752 10751 10750 ] final -149.25 input  -60.55 | X-H torsion
[ 11005 11000 10999 10996 ] final   -8.81 input  -57.11 | X-H torsion

> <Gold.Protein.ActiveResidues>
 VAL166  LYS551  ARG553  GLY616  TRP617  ASP618  TYR619  PRO620  LYS621  CYS622 
 ASP623  PHE694  ASN695  SER759  ASP760  ASP761  ALA762  ILE779  LEU786  VAL792 
 PHE793  MET794  SER795  GLU796  ALA797  LYS798  CYS799  TRP800  GLU811  SER814 

> <Gold.Protein.RotatedAtoms>
  150.7350  134.0087  159.3661 H   0  0  0  0  0  0  0  0  0  0  0  0  # atno 6907 bound_to 6896
  151.8045  135.0697  160.0414 H   0  0  0  0  0  0  0  0  0  0  0  0  # atno 6908 bound_to 6896
  152.3117  133.5723  159.5721 H   0  0  0  0  0  0  0  0  0  0  0  0  # atno 6909 bound_to 6896
  145.5451  139.2291  143.2544 H   0  0  0  0  0  0  0  0  0  0  0  0  # atno 7974 bound_to 7965
  154.4038  140.1306  156.4440 H   0  0  0  0  0  0  0  0  0  0  0  0  # atno 8008 bound_to 7997
  155.7431  140.3489  155.5094 H   0  0  0  0  0  0  0  0  0  0  0  0  # atno 8009 bound_to 7997
  155.9020  140.1021  157.1333 H   0  0  0  0  0  0  0  0  0  0  0  0  # atno 8010 bound_to 7997
  139.8464  144.6615  150.9221 H   0  0  0  0  0  0  0  0  0  0  0  0  # atno 10167 bound_to 10162
  157.6494  130.9571  150.0908 H   0  0  0  0  0  0  0  0  0  0  0  0  # atno 10718 bound_to 10713
  154.8188  135.3314  154.7100 H   0  0  0  0  0  0  0  0  0  0  0  0  # atno 10763 bound_to 10752
  153.7736  135.6924  153.4906 H   0  0  0  0  0  0  0  0  0  0  0  0  # atno 10764 bound_to 10752
  153.2028  135.4510  155.0235 H   0  0  0  0  0  0  0  0  0  0  0  0  # atno 10765 bound_to 10752
  140.7275  133.8777  155.8867 H   0  0  0  0  0  0  0  0  0  0  0  0  # atno 11005 bound_to 11000
  146.1955  140.6272  142.9126 LP  0  0  0  0  0  0  0  0  0  0  0  0  # atno 17320 bound_to 7965
  144.7557  140.5302  143.6770 LP  0  0  0  0  0  0  0  0  0  0  0  0  # atno 17321 bound_to 7965
  140.7792  143.3866  151.1383 LP  0  0  0  0  0  0  0  0  0  0  0  0  # atno 17342 bound_to 10162
  139.7508  143.8782  152.3076 LP  0  0  0  0  0  0  0  0  0  0  0  0  # atno 17343 bound_to 10162
  156.1858  130.3652  149.8975 LP  0  0  0  0  0  0  0  0  0  0  0  0  # atno 17370 bound_to 10713
  156.6916  130.8898  151.3589 LP  0  0  0  0  0  0  0  0  0  0  0  0  # atno 17371 bound_to 10713
  140.9950  134.1227  157.4372 LP  0  0  0  0  0  0  0  0  0  0  0  0  # atno 17394 bound_to 11000
  139.8834  135.0052  156.6296 LP  0  0  0  0  0  0  0  0  0  0  0  0  # atno 17395 bound_to 11000

$$$$
