AV-unprocessed.smi:1107|AV-procd|sdf|4781|dock8
  -GOLD-   22720 3323D 1   1.00000     0.00000
 Structure written by MMmdl.
 49 50  0  0  0  0  0  0  0  0  2 V2000
  150.3584  143.2974  157.9972 C   0  0  0  0  0  0  0  0  0  0  0  0
  150.4810  142.1178  157.0563 C   0  0  0  0  0  0  0  0  0  0  0  0
  151.2587  141.1068  157.2648 N   0  0  0  0  0  0  0  0  0  0  0  0
  151.2846  140.0692  156.3222 C   0  0  0  0  0  0  0  0  0  0  0  0
  152.2191  138.9159  156.6453 C   0  0  0  0  0  0  0  0  0  0  0  0
  150.5091  140.1052  155.1988 C   0  0  0  0  0  0  0  0  0  0  0  0
  150.5035  138.9987  154.1464 C   0  0  0  0  0  0  0  0  0  0  0  0
  150.3739  137.5745  154.6901 C   0  0  0  0  0  0  0  0  0  0  0  0
  151.2525  136.7424  154.4665 O   0  0  0  0  0  0  0  0  0  0  0  0
  149.2713  137.3079  155.4081 N   0  0  0  0  0  0  0  0  0  0  0  0
  148.9185  136.0151  155.9958 C   0  0  2  0  0  0  0  0  0  0  0  0
  149.5559  135.9082  157.3877 C   0  0  0  0  0  0  0  0  0  0  0  0
  149.3574  134.8451  155.0857 C   0  0  0  0  0  0  0  0  0  0  0  0
  148.3995  134.5720  153.9833 N   0  3  0  0  0  0  0  0  0  0  0  0
  148.5753  133.2225  153.3881 C   0  0  0  0  0  0  0  0  0  0  0  0
  147.6806  133.0461  152.1494 C   0  0  0  0  0  0  0  0  0  0  0  0
  146.2076  133.3077  152.4912 C   0  0  0  0  0  0  0  0  0  0  0  0
  146.0573  134.6891  153.1422 C   0  0  0  0  0  0  0  0  0  0  0  0
  146.9837  134.8244  154.3616 C   0  0  0  0  0  0  0  0  0  0  0  0
  149.6320  141.2685  154.9662 C   0  0  0  0  0  0  0  0  0  0  0  0
  148.9088  141.4068  153.9809 O   0  0  0  0  0  0  0  0  0  0  0  0
  149.6692  142.2179  155.9276 N   0  0  0  0  0  0  0  0  0  0  0  0
  149.0851  143.0339  155.8152 H   0  0  0  0  0  0  0  0  0  0  0  0
  150.0485  142.9576  158.9857 H   0  0  0  0  0  0  0  0  0  0  0  0
  149.6255  144.0230  157.6413 H   0  0  0  0  0  0  0  0  0  0  0  0
  151.3198  143.8022  158.0938 H   0  0  0  0  0  0  0  0  0  0  0  0
  152.9132  138.7361  155.8250 H   0  0  0  0  0  0  0  0  0  0  0  0
  151.6498  138.0040  156.8260 H   0  0  0  0  0  0  0  0  0  0  0  0
  152.8090  139.1234  157.5386 H   0  0  0  0  0  0  0  0  0  0  0  0
  149.6790  139.1579  153.4522 H   0  0  0  0  0  0  0  0  0  0  0  0
  151.4001  139.0803  153.5295 H   0  0  0  0  0  0  0  0  0  0  0  0
  148.6032  138.0557  155.5306 H   0  0  0  0  0  0  0  0  0  0  0  0
  147.8385  135.9707  156.1424 H   0  0  0  0  0  0  0  0  0  0  0  0
  149.2830  134.9706  157.8728 H   0  0  0  0  0  0  0  0  0  0  0  0
  149.2244  136.7208  158.0353 H   0  0  0  0  0  0  0  0  0  0  0  0
  150.6443  135.9496  157.3326 H   0  0  0  0  0  0  0  0  0  0  0  0
  150.3298  135.0991  154.6606 H   0  0  0  0  0  0  0  0  0  0  0  0
  149.5122  133.9369  155.6699 H   0  0  0  0  0  0  0  0  0  0  0  0
  149.6166  133.0799  153.0966 H   0  0  0  0  0  0  0  0  0  0  0  0
  148.3457  132.4605  154.1347 H   0  0  0  0  0  0  0  0  0  0  0  0
  148.0016  133.7344  151.3661 H   0  0  0  0  0  0  0  0  0  0  0  0
  147.7967  132.0404  151.7445 H   0  0  0  0  0  0  0  0  0  0  0  0
  145.5940  133.2453  151.5921 H   0  0  0  0  0  0  0  0  0  0  0  0
  145.8444  132.5371  153.1724 H   0  0  0  0  0  0  0  0  0  0  0  0
  146.2943  135.4667  152.4143 H   0  0  0  0  0  0  0  0  0  0  0  0
  145.0209  134.8500  153.4405 H   0  0  0  0  0  0  0  0  0  0  0  0
  146.6827  134.1233  155.1416 H   0  0  0  0  0  0  0  0  0  0  0  0
  146.8763  135.8248  154.7799 H   0  0  0  0  0  0  0  0  0  0  0  0
  148.6250  135.2304  153.2507 H   0  0  0  0  0  0  0  0  0  0  0  0
  1  2  1  0  0  0  0
  1 24  1  0  0  0  0
  1 25  1  0  0  0  0
  1 26  1  0  0  0  0
  2 22  1  0  0  0  0
  2  3  2  0  0  0  0
  3  4  1  0  0  0  0
  4  5  1  0  0  0  0
  4  6  2  0  0  0  0
  5 27  1  0  0  0  0
  5 28  1  0  0  0  0
  5 29  1  0  0  0  0
  6  7  1  0  0  0  0
  6 20  1  0  0  0  0
  7  8  1  0  0  0  0
  7 30  1  0  0  0  0
  7 31  1  0  0  0  0
  8  9  2  0  0  0  0
  8 10  1  0  0  0  0
 10 11  1  0  0  0  0
 10 32  1  0  0  0  0
 11 12  1  0  0  0  0
 11 13  1  0  0  0  0
 11 33  1  0  0  0  0
 12 34  1  0  0  0  0
 12 35  1  0  0  0  0
 12 36  1  0  0  0  0
 13 14  1  0  0  0  0
 13 37  1  0  0  0  0
 13 38  1  0  0  0  0
 14 19  1  0  0  0  0
 14 15  1  0  0  0  0
 14 49  1  0  0  0  0
 15 16  1  0  0  0  0
 15 39  1  0  0  0  0
 15 40  1  0  0  0  0
 16 17  1  0  0  0  0
 16 41  1  0  0  0  0
 16 42  1  0  0  0  0
 17 18  1  0  0  0  0
 17 43  1  0  0  0  0
 17 44  1  0  0  0  0
 18 19  1  0  0  0  0
 18 45  1  0  0  0  0
 18 46  1  0  0  0  0
 19 47  1  0  0  0  0
 19 48  1  0  0  0  0
 20 21  2  0  0  0  0
 20 22  1  0  0  0  0
 22 23  1  0  0  0  0
M  CHG  1  14   1
M  END
> <s_m_source_file>
AV-unprocessed.smi

> <i_m_source_file_index>
1107

> <i_lp_mmshare_version>
43012

> <i_f3d_flags>
0

> <s_epik_input>
W0NIM11jMW5jKFtDSDNdKWMoYyg9TylbbkhdMSlbQ0gyXUMoPU8pW05IXVtDQEhdKFtDSDNdKVtDSDJdTjJbQ0gyXVtDSDJdW0NIMl1bQ0gyXVtDSDJdMg==

> <s_epik_cmdline>
J2VwaWtfcHl0aG9uJywgJy1waCcsICc3LjAnLCAnLXRuJywgJzgnLCAnLW1hJywgJzIwMCcsICctbWV0YWxfYmluZGluZycsICctaW1hZScsICc8aW5maWxlLm1hZT4nLCAnLW9tYWUnLCAnPG91dGZpbGUubWFlPic=

> <r_lp_tautomer_probability>
0.839158

> <r_epik_Ionization_Penalty>
0.00280224

> <r_epik_Ionization_Penalty_Charging>
0.00277925

> <r_epik_Ionization_Penalty_Neutral>
2.29856e-05

> <r_epik_State_Penalty>
0.09125

> <r_epik_Charging_Adjusted_Penalty>
0.0940293

> <i_epik_Tot_Q>
1

> <i_epik_Tot_abs_Q>
1

> <r_epik_Metal_State_Penalty>
0.283823

> <b_epik_Metal_Only>
0

> <s_lp_Force_Field>
OPLS_2005

> <r_lp_Energy>
24.1286

> <b_lp_Chiralities_Consistent>
1

> <s_lp_Variant>
AV-unprocessed.smi:1107-1

> <Gold.Version>
5.8.1

> <Gold.Id.Protein>
6NUR|6NUR_protein|mol2

> <Gold.PLP.Fitness>
46.5781

> <Gold.PLP.PLP>
-34.4146

> <Gold.PLP.part.hbond>
-4.8081

> <Gold.PLP.part.metal>
0.0000

> <Gold.PLP.part.buried>
-1.3983

> <Gold.PLP.part.nonpolar>
-27.6596

> <Gold.PLP.part.repulsive>
0.8448

> <Gold.PLP.ligand.clash>
0.0000

> <Gold.PLP.ligand.torsion>
0.9555

> <Gold.PLP.Chemscore.Hbond>
4.6750

> <Gold.PLP.Chemscore.CHOScore>
0.0000

> <Gold.PLP.Chemscore.Metal>
0.0000

> <Gold.Chemscore.Hbonds>
donor molecule, donor type, donor heavy atom, donor atom, acceptor molecule, acceptor atom, score
      L1  H    14    49       P1  7948  2.00
      L1  H    22    23       P1  8028  1.00
      P1  H  8011  8017       L1    21  0.55
      P1  H 10752 10764       L1     9  1.00

> <Gold.PLP.Chemscore.Internal.Correction>
0.0496

> <Gold.Rescore>
     Score         DG    S(hbond)    S(metal)    S(lipo)     H(rot)  DE(clash)    DE(int)     intcor
     17.58     -20.07       3.68        0.00      62.93       1.98       0.20       2.28       ----

> <Gold.Chemscore.Fitness>
17.5848

> <Gold.Chemscore.DG>
-20.0656

> <Gold.Chemscore.ZeroCoef>
-5.4800

> <Gold.Chemscore.Hbond>
3.6829

> <Gold.Chemscore.Metal>
0.0000

> <Gold.Chemscore.Lipo>
62.9325

> <Gold.Chemscore.Internal_Hbond>
0.0000

> <Gold.Chemscore.DEClash>
0.1962

> <Gold.Chemscore.DEInternal>
2.2846

> <Gold.Chemscore.Rot>
1.9837

> <Gold.Chemscore.Internal.Correction>
   9.000000E+99

> <Gold.Chemscore.Hbonds>
donor molecule, donor type, donor heavy atom, donor atom, acceptor molecule, acceptor atom, score
      L1  H    14    49       P1  7948  0.82
      L1  H    22    23       P1  8028  0.96
      P1  H  8011  8017       L1    21  0.50
      P1  H 10752 10764       L1     9  0.96

> <Gold.Chemscore.Hbond.Weighted>
-12.3008

> <Gold.Chemscore.Metal.Weighted>
-0.0000

> <Gold.Chemscore.Lipo.Weighted>
-7.3631

> <Gold.Chemscore.Internal_Hbond.Weighted>
0.0000

> <Gold.Chemscore.DEClash.Weighted>
0.1962

> <Gold.Chemscore.DEInternal.Weighted>
2.2846

> <Gold.Chemscore.Rot.Weighted>
5.0783

> <Gold.Chemscore.Internal.Correction.Weighted>
   9.000000E+99

> <Gold.Protein.RotatedTorsions>
[ 6907 6896 6895 6894 ] final  124.08 input  -60.11 | X-H torsion
[ 7974 7965 7964 7962 ] final -129.93 input  175.53 | X-H torsion
[ 8008 7997 7996 7995 ] final  179.72 input   59.86 | X-H torsion
[ 10167 10162 10161 10158 ] final   29.80 input  -65.29 | X-H torsion
[ 10718 10713 10712 10709 ] final   24.92 input   66.30 | X-H torsion
[ 10763 10752 10751 10750 ] final  -73.26 input  -60.55 | X-H torsion
[ 11005 11000 10999 10996 ] final  126.37 input  -57.11 | X-H torsion

> <Gold.Protein.ActiveResidues>
 VAL166  LYS551  ARG553  GLY616  TRP617  ASP618  TYR619  PRO620  LYS621  CYS622 
 ASP623  PHE694  ASN695  SER759  ASP760  ASP761  ALA762  ILE779  LEU786  VAL792 
 PHE793  MET794  SER795  GLU796  ALA797  LYS798  CYS799  TRP800  GLU811  SER814 

> <Gold.Protein.RotatedAtoms>
  152.4108  133.6960  159.6395 H   0  0  0  0  0  0  0  0  0  0  0  0  # atno 6907 bound_to 6896
  150.7988  133.8627  159.3245 H   0  0  0  0  0  0  0  0  0  0  0  0  # atno 6908 bound_to 6896
  151.6370  135.1018  160.0185 H   0  0  0  0  0  0  0  0  0  0  0  0  # atno 6909 bound_to 6896
  144.9524  140.7359  143.4779 H   0  0  0  0  0  0  0  0  0  0  0  0  # atno 7974 bound_to 7965
  156.0401  140.1301  157.0164 H   0  0  0  0  0  0  0  0  0  0  0  0  # atno 8008 bound_to 7997
  154.4387  140.1032  156.6296 H   0  0  0  0  0  0  0  0  0  0  0  0  # atno 8009 bound_to 7997
  155.5679  140.3466  155.4510 H   0  0  0  0  0  0  0  0  0  0  0  0  # atno 8010 bound_to 7997
  140.4734  144.0728  150.6243 H   0  0  0  0  0  0  0  0  0  0  0  0  # atno 10167 bound_to 10162
  157.1864  130.6826  149.6133 H   0  0  0  0  0  0  0  0  0  0  0  0  # atno 10718 bound_to 10713
  154.4570  135.5903  153.6230 H   0  0  0  0  0  0  0  0  0  0  0  0  # atno 10763 bound_to 10752
  152.9819  135.6034  154.3534 H   0  0  0  0  0  0  0  0  0  0  0  0  # atno 10764 bound_to 10752
  154.3401  135.2842  155.2406 H   0  0  0  0  0  0  0  0  0  0  0  0  # atno 10765 bound_to 10752
  139.9453  134.9630  156.8697 H   0  0  0  0  0  0  0  0  0  0  0  0  # atno 11005 bound_to 11000
  145.2823  139.1914  143.4784 LP  0  0  0  0  0  0  0  0  0  0  0  0  # atno 17320 bound_to 7965
  146.3326  140.2787  142.8609 LP  0  0  0  0  0  0  0  0  0  0  0  0  # atno 17321 bound_to 7965
  140.3949  143.2733  152.0016 LP  0  0  0  0  0  0  0  0  0  0  0  0  # atno 17342 bound_to 10162
  139.4822  144.6046  151.7544 LP  0  0  0  0  0  0  0  0  0  0  0  0  # atno 17343 bound_to 10162
  155.9717  130.4629  150.6163 LP  0  0  0  0  0  0  0  0  0  0  0  0  # atno 17370 bound_to 10713
  157.3903  131.0794  151.1399 LP  0  0  0  0  0  0  0  0  0  0  0  0  # atno 17371 bound_to 10713
  140.5851  134.0315  155.7478 LP  0  0  0  0  0  0  0  0  0  0  0  0  # atno 17394 bound_to 11000
  141.1101  133.9630  157.2926 LP  0  0  0  0  0  0  0  0  0  0  0  0  # atno 17395 bound_to 11000

$$$$
