AV-unprocessed.smi:12|AV-procd|sdf|65|dock8
  -GOLD-   2262015183D 1   1.00000     0.00000
 Structure written by MMmdl.
 41 44  0  0  0  0  0  0  0  0  1 V2000
  146.0027  139.3894  157.4255 C   0  0  0  0  0  0  0  0  0  0  0  0
  147.2363  139.5176  156.5497 C   0  0  0  0  0  0  0  0  0  0  0  0
  148.3097  138.7081  156.7098 C   0  0  0  0  0  0  0  0  0  0  0  0
  149.3981  138.8688  155.8989 N   0  0  0  0  0  0  0  0  0  0  0  0
  149.3811  139.8594  154.8908 C   0  0  0  0  0  0  0  0  0  0  0  0
  148.3926  140.6703  154.6743 N   0  0  0  0  0  0  0  0  0  0  0  0
  147.2534  140.5625  155.4952 C   0  0  0  0  0  0  0  0  0  0  0  0
  146.2953  141.3175  155.3352 O   0  0  0  0  0  0  0  0  0  0  0  0
  150.5511  139.8049  154.1945 O   0  0  0  0  0  0  0  0  0  0  0  0
  151.3914  138.7836  154.7514 C   0  0  1  0  0  0  0  0  0  0  0  0
  152.6520  139.3315  155.4266 C   0  0  1  0  0  0  0  0  0  0  0  0
  152.5618  140.7227  155.6816 O   0  0  0  0  0  0  0  0  0  0  0  0
  152.7013  138.5412  156.7429 C   0  0  1  0  0  0  0  0  0  0  0  0
  153.4711  139.1791  157.9102 C   0  0  0  0  0  0  0  0  0  0  0  0
  152.9529  140.4737  158.1711 O   0  0  0  0  0  0  0  0  0  0  0  0
  153.6392  141.3263  158.9575 C   0  0  0  0  0  0  0  0  0  0  0  0
  154.7696  141.0943  159.3911 O   0  0  0  0  0  0  0  0  0  0  0  0
  152.8897  142.5828  159.2474 C   0  0  0  0  0  0  0  0  0  0  0  0
  152.0368  143.1235  158.2570 C   0  0  0  0  0  0  0  0  0  0  0  0
  151.3122  144.3062  158.5015 C   0  0  0  0  0  0  0  0  0  0  0  0
  151.4323  144.9634  159.7397 C   0  0  0  0  0  0  0  0  0  0  0  0
  152.2783  144.4364  160.7329 C   0  0  0  0  0  0  0  0  0  0  0  0
  153.0040  143.2535  160.4902 C   0  0  0  0  0  0  0  0  0  0  0  0
  151.3333  138.3559  157.0759 O   0  0  0  0  0  0  0  0  0  0  0  0
  150.6369  138.0910  155.9008 C   0  0  1  0  0  0  0  0  0  0  0  0
  146.1162  138.5867  158.1547 H   0  0  0  0  0  0  0  0  0  0  0  0
  145.1236  139.1709  156.8184 H   0  0  0  0  0  0  0  0  0  0  0  0
  145.8238  140.3166  157.9709 H   0  0  0  0  0  0  0  0  0  0  0  0
  148.3211  137.9415  157.4709 H   0  0  0  0  0  0  0  0  0  0  0  0
  151.6380  138.0348  153.9978 H   0  0  0  0  0  0  0  0  0  0  0  0
  153.5415  139.1543  154.8212 H   0  0  0  0  0  0  0  0  0  0  0  0
  151.8376  141.0737  155.1863 H   0  0  0  0  0  0  0  0  0  0  0  0
  153.1179  137.5519  156.5433 H   0  0  0  0  0  0  0  0  0  0  0  0
  153.4129  138.5558  158.8033 H   0  0  0  0  0  0  0  0  0  0  0  0
  154.5264  139.2648  157.6477 H   0  0  0  0  0  0  0  0  0  0  0  0
  151.9279  142.6362  157.2987 H   0  0  0  0  0  0  0  0  0  0  0  0
  150.6628  144.7087  157.7381 H   0  0  0  0  0  0  0  0  0  0  0  0
  150.8760  145.8699  159.9275 H   0  0  0  0  0  0  0  0  0  0  0  0
  152.3704  144.9400  161.6838 H   0  0  0  0  0  0  0  0  0  0  0  0
  153.6443  142.8761  161.2742 H   0  0  0  0  0  0  0  0  0  0  0  0
  150.3595  137.0496  155.7341 H   0  0  0  0  0  0  0  0  0  0  0  0
  1  2  1  0  0  0  0
  1 26  1  0  0  0  0
  1 27  1  0  0  0  0
  1 28  1  0  0  0  0
  2  7  1  0  0  0  0
  2  3  2  0  0  0  0
  3  4  1  0  0  0  0
  3 29  1  0  0  0  0
  4 25  1  0  0  0  0
  4  5  1  0  0  0  0
  5  6  2  0  0  0  0
  5  9  1  0  0  0  0
  6  7  1  0  0  0  0
  7  8  2  0  0  0  0
  9 10  1  0  0  0  0
 10 25  1  0  0  0  0
 10 11  1  0  0  0  0
 10 30  1  0  0  0  0
 11 12  1  0  0  0  0
 11 13  1  0  0  0  0
 11 31  1  0  0  0  0
 12 32  1  0  0  0  0
 13 14  1  0  0  0  0
 13 24  1  0  0  0  0
 13 33  1  0  0  0  0
 14 15  1  0  0  0  0
 14 34  1  0  0  0  0
 14 35  1  0  0  0  0
 15 16  1  0  0  0  0
 16 17  2  0  0  0  0
 16 18  1  0  0  0  0
 18 23  1  0  0  0  0
 18 19  2  0  0  0  0
 19 20  1  0  0  0  0
 19 36  1  0  0  0  0
 20 21  2  0  0  0  0
 20 37  1  0  0  0  0
 21 22  1  0  0  0  0
 21 38  1  0  0  0  0
 22 23  2  0  0  0  0
 22 39  1  0  0  0  0
 23 40  1  0  0  0  0
 24 25  1  0  0  0  0
 25 41  1  0  0  0  0
M  END
> <s_m_source_file>
AV-unprocessed.smi

> <i_m_source_file_index>
12

> <i_lp_mmshare_version>
43012

> <i_f3d_flags>
0

> <s_epik_input>
W0NIM11jKFtjSF0xKWMoPU8pbmMobjEyKU9bQ0BIXTNbQ0BASF0yT1tDQEBIXShbQ0BASF0zW09IXSlbQ0gyXU9DKD1PKWM0W2NIXVtjSF1bY0hdW2NIXVtjSF00

> <s_epik_cmdline>
J2VwaWtfcHl0aG9uJywgJy1waCcsICc3LjAnLCAnLXRuJywgJzgnLCAnLW1hJywgJzIwMCcsICctbWV0YWxfYmluZGluZycsICctaW1hZScsICc8aW5maWxlLm1hZT4nLCAnLW9tYWUnLCAnPG91dGZpbGUubWFlPic=

> <r_lp_tautomer_probability>
0.933681

> <r_epik_Ionization_Penalty>
0.00399549

> <r_epik_Ionization_Penalty_Charging>
3.09373e-09

> <r_epik_Ionization_Penalty_Neutral>
0.00399549

> <r_epik_State_Penalty>
0.00284953

> <r_epik_Charging_Adjusted_Penalty>
0.00284953

> <i_epik_Tot_Q>
0

> <i_epik_Tot_abs_Q>
0

> <r_epik_Metal_State_Penalty>
-0

> <b_epik_Metal_Only>
0

> <s_epik_Chemistry_Notes>
This compound has an ester and may undergo hydrolysis at high or low pH. This compound contains an acetal/aminal-like group ( X-CH(R)-Y where X, Y are N, S, or O) that may be acid/base labile, releasing an aldehyde.

> <s_lp_Force_Field>
OPLS_2005

> <r_lp_Energy>
52.4365

> <b_lp_Chiralities_Consistent>
1

> <s_lp_Variant>
AV-unprocessed.smi:12-5

> <Gold.Version>
5.8.1

> <Gold.Id.Protein>
6NUR|6NUR_protein|mol2

> <Gold.PLP.Fitness>
50.8058

> <Gold.PLP.PLP>
-43.1251

> <Gold.PLP.part.hbond>
-4.4544

> <Gold.PLP.part.metal>
0.0000

> <Gold.PLP.part.buried>
-3.0369

> <Gold.PLP.part.nonpolar>
-35.9141

> <Gold.PLP.part.repulsive>
1.3233

> <Gold.PLP.ligand.clash>
0.0000

> <Gold.PLP.ligand.torsion>
0.5682

> <Gold.PLP.Chemscore.Hbond>
2.9376

> <Gold.PLP.Chemscore.CHOScore>
0.0000

> <Gold.PLP.Chemscore.Metal>
0.0000

> <Gold.Chemscore.Hbonds>
donor molecule, donor type, donor heavy atom, donor atom, acceptor molecule, acceptor atom, score
      P1  H  7989  7998       L1     9  1.00

> <Gold.PLP.Chemscore.Internal.Correction>
0.0042

> <Gold.Rescore>
     Score         DG    S(hbond)    S(metal)    S(lipo)     H(rot)  DE(clash)    DE(int)     intcor
     16.06     -18.23       2.13        0.00      95.75       2.18       0.22       1.95       ----

> <Gold.Chemscore.Fitness>
16.0605

> <Gold.Chemscore.DG>
-18.2269

> <Gold.Chemscore.ZeroCoef>
-5.4800

> <Gold.Chemscore.Hbond>
2.1331

> <Gold.Chemscore.Metal>
0.0000

> <Gold.Chemscore.Lipo>
95.7516

> <Gold.Chemscore.Internal_Hbond>
0.0000

> <Gold.Chemscore.DEClash>
0.2179

> <Gold.Chemscore.DEInternal>
1.9485

> <Gold.Chemscore.Rot>
2.1800

> <Gold.Chemscore.Internal.Correction>
   9.000000E+99

> <Gold.Chemscore.Hbonds>
donor molecule, donor type, donor heavy atom, donor atom, acceptor molecule, acceptor atom, score
      P1  H  7989  7998       L1     9  0.45

> <Gold.Chemscore.Hbond.Weighted>
-7.1247

> <Gold.Chemscore.Metal.Weighted>
-0.0000

> <Gold.Chemscore.Lipo.Weighted>
-11.2029

> <Gold.Chemscore.Internal_Hbond.Weighted>
0.0000

> <Gold.Chemscore.DEClash.Weighted>
0.2179

> <Gold.Chemscore.DEInternal.Weighted>
1.9485

> <Gold.Chemscore.Rot.Weighted>
5.5807

> <Gold.Chemscore.Internal.Correction.Weighted>
   9.000000E+99

> <Gold.Protein.RotatedTorsions>
[ 6907 6896 6895 6894 ] final  -32.14 input  -60.11 | X-H torsion
[ 7974 7965 7964 7962 ] final  117.88 input  175.53 | X-H torsion
[ 8008 7997 7996 7995 ] final   74.63 input   59.86 | X-H torsion
[ 10167 10162 10161 10158 ] final  -14.27 input  -65.29 | X-H torsion
[ 10718 10713 10712 10709 ] final   51.63 input   66.30 | X-H torsion
[ 10763 10752 10751 10750 ] final  -20.54 input  -60.55 | X-H torsion
[ 11005 11000 10999 10996 ] final -152.80 input  -57.11 | X-H torsion

> <Gold.Protein.ActiveResidues>
 VAL166  LYS551  ARG553  GLY616  TRP617  ASP618  TYR619  PRO620  LYS621  CYS622 
 ASP623  PHE694  ASN695  SER759  ASP760  ASP761  ALA762  ILE779  LEU786  VAL792 
 PHE793  MET794  SER795  GLU796  ALA797  LYS798  CYS799  TRP800  GLU811  SER814 

> <Gold.Protein.RotatedAtoms>
  151.0827  134.9868  159.8363 H   0  0  0  0  0  0  0  0  0  0  0  0  # atno 6907 bound_to 6896
  152.5421  134.2162  159.8780 H   0  0  0  0  0  0  0  0  0  0  0  0  # atno 6908 bound_to 6896
  151.2193  133.4467  159.2634 H   0  0  0  0  0  0  0  0  0  0  0  0  # atno 6909 bound_to 6896
  145.1619  139.3150  143.4512 H   0  0  0  0  0  0  0  0  0  0  0  0  # atno 7974 bound_to 7965
  155.8012  140.3476  155.5403 H   0  0  0  0  0  0  0  0  0  0  0  0  # atno 8008 bound_to 7997
  155.8536  140.0960  157.1679 H   0  0  0  0  0  0  0  0  0  0  0  0  # atno 8009 bound_to 7997
  154.4009  140.1372  156.3862 H   0  0  0  0  0  0  0  0  0  0  0  0  # atno 8010 bound_to 7997
  140.7198  143.5339  150.9487 H   0  0  0  0  0  0  0  0  0  0  0  0  # atno 10167 bound_to 10162
  157.4999  130.8431  149.8304 H   0  0  0  0  0  0  0  0  0  0  0  0  # atno 10718 bound_to 10713
  153.6221  135.6992  153.5307 H   0  0  0  0  0  0  0  0  0  0  0  0  # atno 10763 bound_to 10752
  153.2929  135.4151  155.1183 H   0  0  0  0  0  0  0  0  0  0  0  0  # atno 10764 bound_to 10752
  154.8541  135.3630  154.5762 H   0  0  0  0  0  0  0  0  0  0  0  0  # atno 10765 bound_to 10752
  140.7150  134.3791  157.5192 H   0  0  0  0  0  0  0  0  0  0  0  0  # atno 11005 bound_to 11000
  146.3481  140.1733  142.8589 LP  0  0  0  0  0  0  0  0  0  0  0  0  # atno 17320 bound_to 7965
  145.0322  140.8879  143.5103 LP  0  0  0  0  0  0  0  0  0  0  0  0  # atno 17321 bound_to 7965
  139.9060  143.6778  152.3123 LP  0  0  0  0  0  0  0  0  0  0  0  0  # atno 17342 bound_to 10162
  139.7144  144.7614  151.1059 LP  0  0  0  0  0  0  0  0  0  0  0  0  # atno 17343 bound_to 10162
  156.0223  130.3791  150.1926 LP  0  0  0  0  0  0  0  0  0  0  0  0  # atno 17370 bound_to 10713
  157.0116  130.9952  151.3364 LP  0  0  0  0  0  0  0  0  0  0  0  0  # atno 17371 bound_to 10713
  139.8862  134.8916  156.2598 LP  0  0  0  0  0  0  0  0  0  0  0  0  # atno 17394 bound_to 11000
  141.0052  133.7128  156.1024 LP  0  0  0  0  0  0  0  0  0  0  0  0  # atno 17395 bound_to 11000

$$$$
