AV-unprocessed.smi:1982|AV-procd|sdf|8023|dock9
  -GOLD-   2272010213D 1   1.00000     0.00000
 Structure written by MMmdl.
 36 37  0  0  0  0  0  0  0  0  1 V2000
  154.2934  141.7803  159.7771 C   0  0  0  0  0  0  0  0  0  0  0  0
  152.7695  141.7914  160.0158 C   0  0  1  0  0  0  0  0  0  0  0  0
  152.1873  143.2155  159.9036 C   0  0  0  0  0  0  0  0  0  0  0  0
  152.1377  143.7108  158.4495 C   0  0  0  0  0  0  0  0  0  0  0  0
  151.3542  142.7374  157.5581 C   0  0  0  0  0  0  0  0  0  0  0  0
  151.9150  141.3034  157.6426 C   0  0  2  0  0  0  0  0  0  0  0  0
  151.0838  140.4048  156.8465 N   0  0  0  0  0  0  0  0  0  0  0  0
  151.4562  139.7897  155.7134 C   0  0  0  0  0  0  0  0  0  0  0  0
  152.5448  139.9669  155.1676 O   0  0  0  0  0  0  0  0  0  0  0  0
  150.4456  138.8156  155.1071 C   0  0  0  0  0  0  0  0  0  0  0  0
  150.8305  137.4407  155.3685 N   0  0  0  0  0  0  0  0  0  0  0  0
  150.3373  136.2891  154.9083 C   0  0  0  0  0  0  0  0  0  0  0  0
  151.0010  135.2477  155.3866 N   0  0  0  0  0  0  0  0  0  0  0  0
  151.9631  135.8310  156.1943 N   0  0  0  0  0  0  0  0  0  0  0  0
  151.8670  137.1321  156.1877 N   0  0  0  0  0  0  0  0  0  0  0  0
  151.9768  140.8101  159.1113 C   0  0  1  0  0  0  0  0  0  0  0  0
  152.4772  139.3566  159.2369 C   0  0  0  0  0  0  0  0  0  0  0  0
  154.5521  142.0363  158.7502 H   0  0  0  0  0  0  0  0  0  0  0  0
  154.7260  140.8039  159.9931 H   0  0  0  0  0  0  0  0  0  0  0  0
  154.7928  142.4978  160.4285 H   0  0  0  0  0  0  0  0  0  0  0  0
  152.6218  141.4727  161.0487 H   0  0  0  0  0  0  0  0  0  0  0  0
  151.1769  143.2230  160.3150 H   0  0  0  0  0  0  0  0  0  0  0  0
  152.7651  143.9102  160.5143 H   0  0  0  0  0  0  0  0  0  0  0  0
  151.6760  144.6978  158.4117 H   0  0  0  0  0  0  0  0  0  0  0  0
  153.1488  143.8330  158.0605 H   0  0  0  0  0  0  0  0  0  0  0  0
  150.3058  142.7405  157.8603 H   0  0  0  0  0  0  0  0  0  0  0  0
  151.3777  143.0899  156.5261 H   0  0  0  0  0  0  0  0  0  0  0  0
  152.9279  141.2987  157.2365 H   0  0  0  0  0  0  0  0  0  0  0  0
  150.1662  140.1968  157.2136 H   0  0  0  0  0  0  0  0  0  0  0  0
  149.4532  139.0026  155.5208 H   0  0  0  0  0  0  0  0  0  0  0  0
  150.3814  138.9622  154.0281 H   0  0  0  0  0  0  0  0  0  0  0  0
  149.5049  136.2155  154.2242 H   0  0  0  0  0  0  0  0  0  0  0  0
  150.9526  140.8085  159.4883 H   0  0  0  0  0  0  0  0  0  0  0  0
  153.4529  139.2260  158.7685 H   0  0  0  0  0  0  0  0  0  0  0  0
  151.7920  138.6541  158.7615 H   0  0  0  0  0  0  0  0  0  0  0  0
  152.5648  139.0606  160.2823 H   0  0  0  0  0  0  0  0  0  0  0  0
  1  2  1  0  0  0  0
  1 18  1  0  0  0  0
  1 19  1  0  0  0  0
  1 20  1  0  0  0  0
  2 16  1  0  0  0  0
  2  3  1  0  0  0  0
  2 21  1  0  0  0  0
  3  4  1  0  0  0  0
  3 22  1  0  0  0  0
  3 23  1  0  0  0  0
  4  5  1  0  0  0  0
  4 24  1  0  0  0  0
  4 25  1  0  0  0  0
  5  6  1  0  0  0  0
  5 26  1  0  0  0  0
  5 27  1  0  0  0  0
  6  7  1  0  0  0  0
  6 16  1  0  0  0  0
  6 28  1  0  0  0  0
  7  8  1  0  0  0  0
  7 29  1  0  0  0  0
  8  9  2  0  0  0  0
  8 10  1  0  0  0  0
 10 11  1  0  0  0  0
 10 30  1  0  0  0  0
 10 31  1  0  0  0  0
 11 15  1  0  0  0  0
 11 12  1  0  0  0  0
 12 13  2  0  0  0  0
 12 32  1  0  0  0  0
 13 14  1  0  0  0  0
 14 15  2  0  0  0  0
 16 17  1  0  0  0  0
 16 33  1  0  0  0  0
 17 34  1  0  0  0  0
 17 35  1  0  0  0  0
 17 36  1  0  0  0  0
M  END
> <s_m_source_file>
AV-unprocessed.smi

> <i_m_source_file_index>
1982

> <i_lp_mmshare_version>
43012

> <i_f3d_flags>
0

> <s_epik_input>
W0NIM11bQ0BASF0xW0NIMl1bQ0gyXVtDSDJdW0NASF0oW0NASF0xW0NIM10pW05IXUMoPU8pW0NIMl1uMltjSF1ubm4y

> <s_epik_cmdline>
J2VwaWtfcHl0aG9uJywgJy1waCcsICc3LjAnLCAnLXRuJywgJzgnLCAnLW1hJywgJzIwMCcsICctbWV0YWxfYmluZGluZycsICctaW1hZScsICc8aW5maWxlLm1hZT4nLCAnLW9tYWUnLCAnPG91dGZpbGUubWFlPic=

> <r_lp_tautomer_probability>
1

> <r_epik_Ionization_Penalty>
5.03816e-07

> <r_epik_Ionization_Penalty_Charging>
0

> <r_epik_Ionization_Penalty_Neutral>
5.03816e-07

> <r_epik_State_Penalty>
-0

> <r_epik_Charging_Adjusted_Penalty>
0

> <i_epik_Tot_Q>
0

> <i_epik_Tot_abs_Q>
0

> <r_epik_Metal_State_Penalty>
-0

> <b_epik_Metal_Only>
0

> <s_lp_Force_Field>
OPLS_2005

> <r_lp_Energy>
15.2513

> <b_lp_Chiralities_Consistent>
1

> <s_lp_Variant>
AV-unprocessed.smi:1982-4

> <Gold.Version>
5.8.1

> <Gold.Id.Protein>
6NUR|6NUR_protein|mol2

> <Gold.PLP.Fitness>
42.5363

> <Gold.PLP.PLP>
-33.4801

> <Gold.PLP.part.hbond>
-3.8742

> <Gold.PLP.part.metal>
0.0000

> <Gold.PLP.part.buried>
-4.4612

> <Gold.PLP.part.nonpolar>
-25.6547

> <Gold.PLP.part.repulsive>
0.1748

> <Gold.PLP.ligand.clash>
0.0000

> <Gold.PLP.ligand.torsion>
0.3169

> <Gold.PLP.Chemscore.Hbond>
2.2282

> <Gold.PLP.Chemscore.CHOScore>
1.0000

> <Gold.PLP.Chemscore.Metal>
0.0000

> <Gold.Chemscore.Hbonds>
donor molecule, donor type, donor heavy atom, donor atom, acceptor molecule, acceptor atom, score
      P1  H  7989  7998       L1     9  0.33
      P1  H  7997  8008       L1     9  0.96
      P1  H 10752 10765       L1    14  0.93
      L1  C    12    32       P1  7948  1.00

> <Gold.PLP.Chemscore.Internal.Correction>
0.0053

> <Gold.Rescore>
     Score         DG    S(hbond)    S(metal)    S(lipo)     H(rot)  DE(clash)    DE(int)     intcor
     13.08     -13.43       1.01        0.00      80.71       1.91       0.02       0.33       ----

> <Gold.Chemscore.Fitness>
13.0805

> <Gold.Chemscore.DG>
-13.4264

> <Gold.Chemscore.ZeroCoef>
-5.4800

> <Gold.Chemscore.Hbond>
1.0127

> <Gold.Chemscore.Metal>
0.0000

> <Gold.Chemscore.Lipo>
80.7069

> <Gold.Chemscore.Internal_Hbond>
0.0000

> <Gold.Chemscore.DEClash>
0.0197

> <Gold.Chemscore.DEInternal>
0.3261

> <Gold.Chemscore.Rot>
1.9058

> <Gold.Chemscore.Internal.Correction>
   9.000000E+99

> <Gold.Chemscore.Hbonds>
donor molecule, donor type, donor heavy atom, donor atom, acceptor molecule, acceptor atom, score
      P1  H  7989  7998       L1     9  0.03
      P1  H  7997  8008       L1     9  0.91
      P1  H 10752 10765       L1    14  0.15

> <Gold.Chemscore.Hbond.Weighted>
-3.3825

> <Gold.Chemscore.Metal.Weighted>
-0.0000

> <Gold.Chemscore.Lipo.Weighted>
-9.4427

> <Gold.Chemscore.Internal_Hbond.Weighted>
0.0000

> <Gold.Chemscore.DEClash.Weighted>
0.0197

> <Gold.Chemscore.DEInternal.Weighted>
0.3261

> <Gold.Chemscore.Rot.Weighted>
4.8788

> <Gold.Chemscore.Internal.Correction.Weighted>
   9.000000E+99

> <Gold.Protein.RotatedTorsions>
[ 6907 6896 6895 6894 ] final  -86.58 input  -60.11 | X-H torsion
[ 7974 7965 7964 7962 ] final  170.49 input  175.53 | X-H torsion
[ 8008 7997 7996 7995 ] final  -17.92 input   59.86 | X-H torsion
[ 10167 10162 10161 10158 ] final  112.20 input  -65.29 | X-H torsion
[ 10718 10713 10712 10709 ] final  -73.95 input   66.30 | X-H torsion
[ 10763 10752 10751 10750 ] final -126.57 input  -60.55 | X-H torsion
[ 11005 11000 10999 10996 ] final -104.06 input  -57.11 | X-H torsion

> <Gold.Protein.ActiveResidues>
 VAL166  LYS551  ARG553  GLY616  TRP617  ASP618  TYR619  PRO620  LYS621  CYS622 
 ASP623  PHE694  ASN695  SER759  ASP760  ASP761  ALA762  ILE779  LEU786  VAL792 
 PHE793  MET794  SER795  GLU796  ALA797  LYS798  CYS799  TRP800  GLU811  SER814 

> <Gold.Protein.RotatedAtoms>
  150.6867  134.3029  159.4713 H   0  0  0  0  0  0  0  0  0  0  0  0  # atno 6907 bound_to 6896
  152.0923  134.9396  160.0581 H   0  0  0  0  0  0  0  0  0  0  0  0  # atno 6908 bound_to 6896
  152.0707  133.4070  159.4495 H   0  0  0  0  0  0  0  0  0  0  0  0  # atno 6909 bound_to 6896
  144.7322  139.9210  143.6420 H   0  0  0  0  0  0  0  0  0  0  0  0  # atno 7974 bound_to 7965
  154.4943  140.2130  155.9480 H   0  0  0  0  0  0  0  0  0  0  0  0  # atno 8008 bound_to 7997
  156.1349  140.3190  155.8373 H   0  0  0  0  0  0  0  0  0  0  0  0  # atno 8009 bound_to 7997
  155.4228  140.0498  157.3015 H   0  0  0  0  0  0  0  0  0  0  0  0  # atno 8010 bound_to 7997
  139.6553  144.7129  151.1969 H   0  0  0  0  0  0  0  0  0  0  0  0  # atno 10167 bound_to 10162
  156.0261  130.4405  150.2818 H   0  0  0  0  0  0  0  0  0  0  0  0  # atno 10718 bound_to 10713
  154.8746  135.3991  154.3453 H   0  0  0  0  0  0  0  0  0  0  0  0  # atno 10763 bound_to 10752
  153.4246  135.7024  153.6276 H   0  0  0  0  0  0  0  0  0  0  0  0  # atno 10764 bound_to 10752
  153.4924  135.3745  155.2468 H   0  0  0  0  0  0  0  0  0  0  0  0  # atno 10765 bound_to 10752
  141.1117  133.8692  157.1564 H   0  0  0  0  0  0  0  0  0  0  0  0  # atno 11005 bound_to 11000
  146.0930  139.3920  143.0394 LP  0  0  0  0  0  0  0  0  0  0  0  0  # atno 17320 bound_to 7965
  145.7685  140.9906  143.1162 LP  0  0  0  0  0  0  0  0  0  0  0  0  # atno 17321 bound_to 7965
  140.7556  143.6082  150.8631 LP  0  0  0  0  0  0  0  0  0  0  0  0  # atno 17342 bound_to 10162
  139.9734  143.6031  152.2966 LP  0  0  0  0  0  0  0  0  0  0  0  0  # atno 17343 bound_to 10162
  157.0922  131.0173  151.3117 LP  0  0  0  0  0  0  0  0  0  0  0  0  # atno 17370 bound_to 10713
  157.4845  130.7785  149.7447 LP  0  0  0  0  0  0  0  0  0  0  0  0  # atno 17371 bound_to 10713
  140.0015  135.0026  157.0201 LP  0  0  0  0  0  0  0  0  0  0  0  0  # atno 17394 bound_to 11000
  140.4756  134.1342  155.7209 LP  0  0  0  0  0  0  0  0  0  0  0  0  # atno 17395 bound_to 11000

$$$$
