AV-unprocessed.smi:162|AV-procd|sdf|1379|dock1
  -GOLD-   2262019103D 1   1.00000     0.00000
 Structure written by MMmdl.
 54 57  0  0  0  0  0  0  0  0  1 V2000
  152.5835  139.2033  155.4492 C   0  0  0  0  0  0  0  0  0  0  0  0
  152.9283  139.5064  156.7893 O   0  0  0  0  0  0  0  0  0  0  0  0
  151.8108  139.4662  157.6605 C   0  0  0  0  0  0  0  0  0  0  0  0
  151.4191  140.9051  158.0380 C   0  0  1  0  0  0  0  0  0  0  0  0
  152.5264  141.6770  158.7534 C   0  0  0  0  0  0  0  0  0  0  0  0
  152.1561  143.1469  158.5256 C   0  0  2  0  0  0  0  0  0  0  0  0
  151.5228  143.6560  159.6915 O   0  0  0  0  0  0  0  0  0  0  0  0
  151.4225  145.0710  159.7106 C   0  0  0  0  0  0  0  0  0  0  0  0
  151.1759  143.1189  157.3364 C   0  0  0  0  0  0  0  0  0  0  0  0
  151.1167  141.7368  156.8819 N   0  0  0  0  0  0  0  0  0  0  0  0
  150.0023  141.4205  156.1867 C   0  0  0  0  0  0  0  0  0  0  0  0
  150.1786  141.0075  154.9080 N   0  0  0  0  0  0  0  0  0  0  0  0
  149.1221  140.6680  154.1634 C   0  0  0  0  0  0  0  0  0  0  0  0
  147.8299  140.6687  154.4976 N   0  0  0  0  0  0  0  0  0  0  0  0
  147.6501  141.0870  155.7835 C   0  0  0  0  0  0  0  0  0  0  0  0
  148.6721  141.4815  156.6919 C   0  0  0  0  0  0  0  0  0  0  0  0
  148.1077  141.8491  157.9078 N   0  0  0  0  0  0  0  0  0  0  0  0
  146.8267  141.6741  157.7307 C   0  0  0  0  0  0  0  0  0  0  0  0
  146.4643  141.2111  156.4859 N   0  0  0  0  0  0  0  0  0  0  0  0
  145.1160  140.9235  156.0213 C   0  0  0  0  0  0  0  0  0  0  0  0
  144.2612  142.1886  155.7613 C   0  0  0  0  0  0  0  0  0  0  0  0
  143.0196  141.7643  155.2249 O   0  0  0  0  0  0  0  0  0  0  0  0
  143.9897  142.9366  157.0821 C   0  0  0  0  0  0  0  0  0  0  0  0
  143.2860  144.2859  156.8508 C   0  0  0  0  0  0  0  0  0  0  0  0
  144.0469  145.0839  155.9522 O   0  0  0  0  0  0  0  0  0  0  0  0
  144.1680  144.4972  154.6621 C   0  0  0  0  0  0  0  0  0  0  0  0
  144.9218  143.1586  154.7567 C   0  0  0  0  0  0  0  0  0  0  0  0
  150.5468  140.8737  158.6914 H   0  0  0  0  0  0  0  0  0  0  0  0
  153.0562  143.7200  158.2960 H   0  0  0  0  0  0  0  0  0  0  0  0
  153.4764  139.2385  154.8255 H   0  0  0  0  0  0  0  0  0  0  0  0
  151.8684  139.9257  155.0538 H   0  0  0  0  0  0  0  0  0  0  0  0
  152.1544  138.2038  155.3673 H   0  0  0  0  0  0  0  0  0  0  0  0
  150.9726  138.9568  157.1820 H   0  0  0  0  0  0  0  0  0  0  0  0
  152.0728  138.8971  158.5540 H   0  0  0  0  0  0  0  0  0  0  0  0
  152.6145  141.4128  159.8078 H   0  0  0  0  0  0  0  0  0  0  0  0
  153.4873  141.4700  158.2798 H   0  0  0  0  0  0  0  0  0  0  0  0
  150.9348  145.3884  160.6321 H   0  0  0  0  0  0  0  0  0  0  0  0
  150.8317  145.4457  158.8742 H   0  0  0  0  0  0  0  0  0  0  0  0
  152.4087  145.5355  159.6771 H   0  0  0  0  0  0  0  0  0  0  0  0
  150.1895  143.4780  157.6328 H   0  0  0  0  0  0  0  0  0  0  0  0
  151.5299  143.7584  156.5272 H   0  0  0  0  0  0  0  0  0  0  0  0
  149.3440  140.3477  153.1561 H   0  0  0  0  0  0  0  0  0  0  0  0
  146.1057  141.8726  158.5103 H   0  0  0  0  0  0  0  0  0  0  0  0
  145.1883  140.3203  155.1151 H   0  0  0  0  0  0  0  0  0  0  0  0
  144.6300  140.2916  156.7662 H   0  0  0  0  0  0  0  0  0  0  0  0
  142.8733  142.2200  154.4099 H   0  0  0  0  0  0  0  0  0  0  0  0
  143.3997  142.3173  157.7590 H   0  0  0  0  0  0  0  0  0  0  0  0
  144.9363  143.1261  157.5902 H   0  0  0  0  0  0  0  0  0  0  0  0
  142.2761  144.1429  156.4639 H   0  0  0  0  0  0  0  0  0  0  0  0
  143.1879  144.8203  157.7958 H   0  0  0  0  0  0  0  0  0  0  0  0
  143.1810  144.3622  154.2173 H   0  0  0  0  0  0  0  0  0  0  0  0
  144.7128  145.1846  154.0147 H   0  0  0  0  0  0  0  0  0  0  0  0
  145.9458  143.3604  155.0737 H   0  0  0  0  0  0  0  0  0  0  0  0
  144.9907  142.7075  153.7662 H   0  0  0  0  0  0  0  0  0  0  0  0
  1  2  1  0  0  0  0
  1 30  1  0  0  0  0
  1 31  1  0  0  0  0
  1 32  1  0  0  0  0
  2  3  1  0  0  0  0
  3  4  1  0  0  0  0
  3 33  1  0  0  0  0
  3 34  1  0  0  0  0
  4 28  1  0  0  0  0
  4 10  1  0  0  0  0
  4  5  1  0  0  0  0
  5  6  1  0  0  0  0
  5 35  1  0  0  0  0
  5 36  1  0  0  0  0
  6 29  1  0  0  0  0
  6  7  1  0  0  0  0
  6  9  1  0  0  0  0
  7  8  1  0  0  0  0
  8 37  1  0  0  0  0
  8 38  1  0  0  0  0
  8 39  1  0  0  0  0
  9 10  1  0  0  0  0
  9 40  1  0  0  0  0
  9 41  1  0  0  0  0
 10 11  1  0  0  0  0
 11 16  1  0  0  0  0
 11 12  2  0  0  0  0
 12 13  1  0  0  0  0
 13 14  2  0  0  0  0
 13 42  1  0  0  0  0
 14 15  1  0  0  0  0
 15 19  1  0  0  0  0
 15 16  2  0  0  0  0
 16 17  1  0  0  0  0
 17 18  2  0  0  0  0
 18 19  1  0  0  0  0
 18 43  1  0  0  0  0
 19 20  1  0  0  0  0
 20 21  1  0  0  0  0
 20 44  1  0  0  0  0
 20 45  1  0  0  0  0
 21 27  1  0  0  0  0
 21 22  1  0  0  0  0
 21 23  1  0  0  0  0
 22 46  1  0  0  0  0
 23 24  1  0  0  0  0
 23 47  1  0  0  0  0
 23 48  1  0  0  0  0
 24 25  1  0  0  0  0
 24 49  1  0  0  0  0
 24 50  1  0  0  0  0
 25 26  1  0  0  0  0
 26 27  1  0  0  0  0
 26 51  1  0  0  0  0
 26 52  1  0  0  0  0
 27 53  1  0  0  0  0
 27 54  1  0  0  0  0
M  END
> <s_m_source_file>
AV-unprocessed.smi

> <i_m_source_file_index>
162

> <i_lp_mmshare_version>
43012

> <i_f3d_flags>
0

> <s_epik_input>
W0NIM11PW0NIMl1bQ0BASF0xW0NIMl1bQ0BASF0oT1tDSDNdKVtDSDJdTjFjKG5bY0hdbjIpYyhjMjMpbltjSF1uM1tDSDJdQzQoW09IXSlbQ0gyXVtDSDJdT1tDSDJdW0NIMl00

> <s_epik_cmdline>
J2VwaWtfcHl0aG9uJywgJy1waCcsICc3LjAnLCAnLXRuJywgJzgnLCAnLW1hJywgJzIwMCcsICctbWV0YWxfYmluZGluZycsICctaW1hZScsICc8aW5maWxlLm1hZT4nLCAnLW9tYWUnLCAnPG91dGZpbGUubWFlPic=

> <r_lp_tautomer_probability>
1

> <r_epik_Ionization_Penalty>
0.00660334

> <r_epik_Ionization_Penalty_Charging>
0

> <r_epik_Ionization_Penalty_Neutral>
0.00660334

> <r_epik_State_Penalty>
0.00469459

> <r_epik_Charging_Adjusted_Penalty>
0.00469459

> <i_epik_Tot_Q>
0

> <i_epik_Tot_abs_Q>
0

> <r_epik_Metal_State_Penalty>
-0

> <b_epik_Metal_Only>
0

> <s_lp_Force_Field>
OPLS_2005

> <r_lp_Energy>
43.1058

> <b_lp_Chiralities_Consistent>
1

> <s_lp_Variant>
AV-unprocessed.smi:162-4

> <Gold.Version>
5.8.1

> <Gold.Id.Protein>
6NUR|6NUR_protein|mol2

> <Gold.PLP.Fitness>
49.4797

> <Gold.PLP.PLP>
-39.4779

> <Gold.PLP.part.hbond>
-4.0000

> <Gold.PLP.part.metal>
0.0000

> <Gold.PLP.part.buried>
-4.1200

> <Gold.PLP.part.nonpolar>
-32.0241

> <Gold.PLP.part.repulsive>
0.5291

> <Gold.PLP.ligand.clash>
0.0000

> <Gold.PLP.ligand.torsion>
0.6465

> <Gold.PLP.Chemscore.Hbond>
2.6874

> <Gold.PLP.Chemscore.CHOScore>
1.0000

> <Gold.PLP.Chemscore.Metal>
0.0000

> <Gold.Chemscore.Hbonds>
donor molecule, donor type, donor heavy atom, donor atom, acceptor molecule, acceptor atom, score
      L1  H    22    46       P1 10174  0.31
      P1  H  7989  7998       L1    12  0.65
      P1  H  7997  8009       L1     2  0.80
      L1  C    13    42       P1  7957  1.00

> <Gold.PLP.Chemscore.Internal.Correction>
0.2327

> <Gold.Rescore>
     Score         DG    S(hbond)    S(metal)    S(lipo)     H(rot)  DE(clash)    DE(int)     intcor
     11.25     -12.01       1.17        0.00      85.21       2.86       0.08       0.68       ----

> <Gold.Chemscore.Fitness>
11.2520

> <Gold.Chemscore.DG>
-12.0086

> <Gold.Chemscore.ZeroCoef>
-5.4800

> <Gold.Chemscore.Hbond>
1.1650

> <Gold.Chemscore.Metal>
0.0000

> <Gold.Chemscore.Lipo>
85.2114

> <Gold.Chemscore.Internal_Hbond>
0.0000

> <Gold.Chemscore.DEClash>
0.0750

> <Gold.Chemscore.DEInternal>
0.6815

> <Gold.Chemscore.Rot>
2.8642

> <Gold.Chemscore.Internal.Correction>
   9.000000E+99

> <Gold.Chemscore.Hbonds>
donor molecule, donor type, donor heavy atom, donor atom, acceptor molecule, acceptor atom, score
      L1  H    22    46       P1 10174  0.06
      P1  H  7989  7998       L1    12  0.14
      P1  H  7997  8009       L1     2  0.68

> <Gold.Chemscore.Hbond.Weighted>
-3.8912

> <Gold.Chemscore.Metal.Weighted>
-0.0000

> <Gold.Chemscore.Lipo.Weighted>
-9.9697

> <Gold.Chemscore.Internal_Hbond.Weighted>
0.0000

> <Gold.Chemscore.DEClash.Weighted>
0.0750

> <Gold.Chemscore.DEInternal.Weighted>
0.6815

> <Gold.Chemscore.Rot.Weighted>
7.3324

> <Gold.Chemscore.Internal.Correction.Weighted>
   9.000000E+99

> <Gold.Protein.RotatedTorsions>
[ 6907 6896 6895 6894 ] final -148.26 input  -60.11 | X-H torsion
[ 7974 7965 7964 7962 ] final  146.16 input  175.53 | X-H torsion
[ 8008 7997 7996 7995 ] final  157.48 input   59.86 | X-H torsion
[ 10167 10162 10161 10158 ] final -157.82 input  -65.29 | X-H torsion
[ 10718 10713 10712 10709 ] final -137.24 input   66.30 | X-H torsion
[ 10763 10752 10751 10750 ] final   47.39 input  -60.55 | X-H torsion
[ 11005 11000 10999 10996 ] final  -87.14 input  -57.11 | X-H torsion

> <Gold.Protein.ActiveResidues>
 VAL166  LYS551  ARG553  GLY616  TRP617  ASP618  TYR619  PRO620  LYS621  CYS622 
 ASP623  PHE694  ASN695  SER759  ASP760  ASP761  ALA762  ILE779  LEU786  VAL792 
 PHE793  MET794  SER795  GLU796  ALA797  LYS798  CYS799  TRP800  GLU811  SER814 

> <Gold.Protein.RotatedAtoms>
  151.1674  133.4806  159.2593 H   0  0  0  0  0  0  0  0  0  0  0  0  # atno 6907 bound_to 6896
  151.1391  135.0170  159.8628 H   0  0  0  0  0  0  0  0  0  0  0  0  # atno 6908 bound_to 6896
  152.5462  134.1569  159.8595 H   0  0  0  0  0  0  0  0  0  0  0  0  # atno 6909 bound_to 6896
  144.8693  139.5872  143.5894 H   0  0  0  0  0  0  0  0  0  0  0  0  # atno 7974 bound_to 7965
  156.2361  140.1884  156.7115 H   0  0  0  0  0  0  0  0  0  0  0  0  # atno 8008 bound_to 7997
  154.6109  140.0622  156.9520 H   0  0  0  0  0  0  0  0  0  0  0  0  # atno 8009 bound_to 7997
  155.2018  140.3293  155.4344 H   0  0  0  0  0  0  0  0  0  0  0  0  # atno 8010 bound_to 7997
  139.6740  143.9695  152.2300 H   0  0  0  0  0  0  0  0  0  0  0  0  # atno 10167 bound_to 10162
  156.2859  130.7347  151.1359 H   0  0  0  0  0  0  0  0  0  0  0  0  # atno 10718 bound_to 10713
  152.9800  135.5977  154.3755 H   0  0  0  0  0  0  0  0  0  0  0  0  # atno 10763 bound_to 10752
  154.3425  135.2767  155.2417 H   0  0  0  0  0  0  0  0  0  0  0  0  # atno 10764 bound_to 10752
  154.4492  135.5994  153.6235 H   0  0  0  0  0  0  0  0  0  0  0  0  # atno 10765 bound_to 10752
  141.1621  133.7494  156.9263 H   0  0  0  0  0  0  0  0  0  0  0  0  # atno 11005 bound_to 11000
  146.2919  139.7163  142.9155 LP  0  0  0  0  0  0  0  0  0  0  0  0  # atno 17320 bound_to 7965
  145.4161  141.0401  143.2990 LP  0  0  0  0  0  0  0  0  0  0  0  0  # atno 17321 bound_to 7965
  139.9468  144.6646  150.8212 LP  0  0  0  0  0  0  0  0  0  0  0  0  # atno 17342 bound_to 10162
  140.7628  143.3208  151.2626 LP  0  0  0  0  0  0  0  0  0  0  0  0  # atno 17343 bound_to 10162
  157.7328  131.0596  150.5608 LP  0  0  0  0  0  0  0  0  0  0  0  0  # atno 17370 bound_to 10713
  156.5719  130.4282  149.6016 LP  0  0  0  0  0  0  0  0  0  0  0  0  # atno 17371 bound_to 10713
  140.1416  134.9289  157.2475 LP  0  0  0  0  0  0  0  0  0  0  0  0  # atno 17394 bound_to 11000
  140.2829  134.3329  155.7337 LP  0  0  0  0  0  0  0  0  0  0  0  0  # atno 17395 bound_to 11000

$$$$
