AV-unprocessed.smi:1540|AV-procd|sdf|6201|dock5
  -GOLD-   22720 6373D 1   1.00000     0.00000
 Structure written by MMmdl.
 32 32  0  0  0  0  0  0  0  0  2 V2000
  147.0291  141.7689  154.4465 C   0  0  0  0  0  0  0  0  0  0  0  0
  147.8358  140.7799  154.0334 C   0  0  0  0  0  0  0  0  0  0  0  0
  148.8219  140.0500  154.9182 C   0  0  0  0  0  0  0  0  0  0  0  0
  150.0035  139.7438  154.1882 O   0  0  0  0  0  0  0  0  0  0  0  0
  150.8667  138.7847  154.7947 C   0  0  1  0  0  0  0  0  0  0  0  0
  151.5982  138.0424  153.6662 C   0  0  0  0  0  0  0  0  0  0  0  0
  151.8585  139.4794  155.7424 C   0  0  0  0  0  0  0  0  0  0  0  0
  153.0672  139.3344  155.5614 O   0  0  0  0  0  0  0  0  0  0  0  0
  151.2976  140.2124  156.7244 N   0  0  0  0  0  0  0  0  0  0  0  0
  151.9005  140.9823  157.7345 C   0  0  0  0  0  0  0  0  0  0  0  0
  151.4881  142.2188  158.1295 C   0  0  0  0  0  0  0  0  0  0  0  0
  152.1568  142.9635  159.1891 C   0  0  0  0  0  0  0  0  0  0  0  0
  151.6764  144.3090  159.7035 C   0  0  0  0  0  0  0  0  0  0  0  0
  150.3616  144.2986  159.9234 F   0  0  0  0  0  0  0  0  0  0  0  0
  152.2877  144.6002  160.8507 F   0  0  0  0  0  0  0  0  0  0  0  0
  151.9491  145.2786  158.8300 F   0  0  0  0  0  0  0  0  0  0  0  0
  153.2084  142.2590  159.7421 C   0  0  0  0  0  0  0  0  0  0  0  0
  153.6845  141.0401  159.4071 N   0  5  0  0  0  0  0  0  0  0  0  0
  153.0571  140.3565  158.4090 C   0  0  0  0  0  0  0  0  0  0  0  0
  153.4328  139.2364  158.0613 O   0  0  0  0  0  0  0  0  0  0  0  0
  147.0389  142.1110  155.4711 H   0  0  0  0  0  0  0  0  0  0  0  0
  146.3459  142.2497  153.7619 H   0  0  0  0  0  0  0  0  0  0  0  0
  147.7983  140.4638  153.0011 H   0  0  0  0  0  0  0  0  0  0  0  0
  149.0432  140.6862  155.7755 H   0  0  0  0  0  0  0  0  0  0  0  0
  148.3668  139.1331  155.2965 H   0  0  0  0  0  0  0  0  0  0  0  0
  150.2682  138.0585  155.3484 H   0  0  0  0  0  0  0  0  0  0  0  0
  152.2888  137.2980  154.0642 H   0  0  0  0  0  0  0  0  0  0  0  0
  152.1683  138.7277  153.0375 H   0  0  0  0  0  0  0  0  0  0  0  0
  150.8882  137.5213  153.0235 H   0  0  0  0  0  0  0  0  0  0  0  0
  150.2890  140.1942  156.7691 H   0  0  0  0  0  0  0  0  0  0  0  0
  150.6357  142.6935  157.6740 H   0  0  0  0  0  0  0  0  0  0  0  0
  153.7457  142.7465  160.5834 H   0  0  0  0  0  0  0  0  0  0  0  0
  1  2  2  0  0  0  0
  1 21  1  0  0  0  0
  1 22  1  0  0  0  0
  2  3  1  0  0  0  0
  2 23  1  0  0  0  0
  3  4  1  0  0  0  0
  3 24  1  0  0  0  0
  3 25  1  0  0  0  0
  4  5  1  0  0  0  0
  5  6  1  0  0  0  0
  5  7  1  0  0  0  0
  5 26  1  0  0  0  0
  6 27  1  0  0  0  0
  6 28  1  0  0  0  0
  6 29  1  0  0  0  0
  7  8  2  0  0  0  0
  7  9  1  0  0  0  0
  9 10  1  0  0  0  0
  9 30  1  0  0  0  0
 10 19  1  0  0  0  0
 10 11  2  0  0  0  0
 11 12  1  0  0  0  0
 11 31  1  0  0  0  0
 12 13  1  0  0  0  0
 12 17  2  0  0  0  0
 13 14  1  0  0  0  0
 13 15  1  0  0  0  0
 13 16  1  0  0  0  0
 17 18  1  0  0  0  0
 17 32  1  0  0  0  0
 18 19  1  0  0  0  0
 19 20  2  0  0  0  0
M  CHG  1  18  -1
M  END
> <s_m_source_file>
AV-unprocessed.smi

> <i_m_source_file_index>
1540

> <i_lp_mmshare_version>
43012

> <i_f3d_flags>
0

> <s_epik_input>
W0NIMl09W0NIXVtDSDJdT1tDQEhdKFtDSDNdKUMoPU8pW05IXWMxW2NIXWMoQyhGKShGKUYpW2NIXVtuSF1jMT1P

> <s_epik_cmdline>
J2VwaWtfcHl0aG9uJywgJy1waCcsICc3LjAnLCAnLXRuJywgJzgnLCAnLW1hJywgJzIwMCcsICctbWV0YWxfYmluZGluZycsICctaW1hZScsICc8aW5maWxlLm1hZT4nLCAnLW9tYWUnLCAnPG91dGZpbGUubWFlPic=

> <r_epik_Ionization_Penalty>
2.56803

> <r_epik_Ionization_Penalty_Charging>
0.0609694

> <r_epik_Ionization_Penalty_Neutral>
2.50706

> <r_epik_State_Penalty>
2.67253

> <r_epik_Charging_Adjusted_Penalty>
2.7335

> <i_epik_Tot_Q>
-1

> <i_epik_Tot_abs_Q>
1

> <r_epik_Metal_State_Penalty>
0.517713

> <b_epik_Metal_Only>
0

> <s_lp_Force_Field>
OPLS_2005

> <r_lp_Energy>
20.9633

> <b_lp_Chiralities_Consistent>
1

> <s_lp_Variant>
AV-unprocessed.smi:1540-4

> <Gold.Version>
5.8.1

> <Gold.Id.Protein>
6NUR|6NUR_protein|mol2

> <Gold.PLP.Fitness>
49.6375

> <Gold.PLP.PLP>
-46.1455

> <Gold.PLP.part.hbond>
-2.1899

> <Gold.PLP.part.metal>
0.0000

> <Gold.PLP.part.buried>
-7.1561

> <Gold.PLP.part.nonpolar>
-37.9202

> <Gold.PLP.part.repulsive>
0.2236

> <Gold.PLP.ligand.clash>
0.0298

> <Gold.PLP.ligand.torsion>
1.3005

> <Gold.PLP.Chemscore.Hbond>
2.0000

> <Gold.PLP.Chemscore.CHOScore>
0.0000

> <Gold.PLP.Chemscore.Metal>
0.0000

> <Gold.Chemscore.Hbonds>
donor molecule, donor type, donor heavy atom, donor atom, acceptor molecule, acceptor atom, score
      P1  H  7989  7998       L1     4  0.52
      P1  H  7997  8009       L1     8  0.90

> <Gold.PLP.Chemscore.Internal.Correction>
0.1227

> <Gold.Rescore>
     Score         DG    S(hbond)    S(metal)    S(lipo)     H(rot)  DE(clash)    DE(int)     intcor
     11.21     -16.18       1.53        0.00      86.73       1.77       0.27       4.69       ----

> <Gold.Chemscore.Fitness>
11.2144

> <Gold.Chemscore.DG>
-16.1777

> <Gold.Chemscore.ZeroCoef>
-5.4800

> <Gold.Chemscore.Hbond>
1.5251

> <Gold.Chemscore.Metal>
0.0000

> <Gold.Chemscore.Lipo>
86.7320

> <Gold.Chemscore.Internal_Hbond>
0.0000

> <Gold.Chemscore.DEClash>
0.2724

> <Gold.Chemscore.DEInternal>
4.6908

> <Gold.Chemscore.Rot>
1.7750

> <Gold.Chemscore.Internal.Correction>
   9.000000E+99

> <Gold.Chemscore.Hbonds>
donor molecule, donor type, donor heavy atom, donor atom, acceptor molecule, acceptor atom, score
      P1  H  7989  7998       L1     4  0.03
      P1  H  7997  8009       L1     8  0.88

> <Gold.Chemscore.Hbond.Weighted>
-5.0939

> <Gold.Chemscore.Metal.Weighted>
-0.0000

> <Gold.Chemscore.Lipo.Weighted>
-10.1476

> <Gold.Chemscore.Internal_Hbond.Weighted>
0.0000

> <Gold.Chemscore.DEClash.Weighted>
0.2724

> <Gold.Chemscore.DEInternal.Weighted>
4.6908

> <Gold.Chemscore.Rot.Weighted>
4.5439

> <Gold.Chemscore.Internal.Correction.Weighted>
   9.000000E+99

> <Gold.Protein.RotatedTorsions>
[ 6907 6896 6895 6894 ] final -144.11 input  -60.11 | X-H torsion
[ 7974 7965 7964 7962 ] final    0.70 input  175.53 | X-H torsion
[ 8008 7997 7996 7995 ] final -171.12 input   59.86 | X-H torsion
[ 10167 10162 10161 10158 ] final  -95.49 input  -65.29 | X-H torsion
[ 10718 10713 10712 10709 ] final -134.56 input   66.30 | X-H torsion
[ 10763 10752 10751 10750 ] final -145.78 input  -60.55 | X-H torsion
[ 11005 11000 10999 10996 ] final  141.27 input  -57.11 | X-H torsion

> <Gold.Protein.ActiveResidues>
 VAL166  LYS551  ARG553  GLY616  TRP617  ASP618  TYR619  PRO620  LYS621  CYS622 
 ASP623  PHE694  ASN695  SER759  ASP760  ASP761  ALA762  ILE779  LEU786  VAL792 
 PHE793  MET794  SER795  GLU796  ALA797  LYS798  CYS799  TRP800  GLU811  SER814 

> <Gold.Protein.RotatedAtoms>
  151.1096  133.5182  159.2606 H   0  0  0  0  0  0  0  0  0  0  0  0  # atno 6907 bound_to 6896
  151.1982  135.0431  159.8871 H   0  0  0  0  0  0  0  0  0  0  0  0  # atno 6908 bound_to 6896
  152.5449  134.0928  159.8337 H   0  0  0  0  0  0  0  0  0  0  0  0  # atno 6909 bound_to 6896
  146.2436  140.1098  142.8344 H   0  0  0  0  0  0  0  0  0  0  0  0  # atno 7974 bound_to 7965
  155.9273  140.1085  157.1160 H   0  0  0  0  0  0  0  0  0  0  0  0  # atno 8008 bound_to 7997
  154.4064  140.1244  156.4822 H   0  0  0  0  0  0  0  0  0  0  0  0  # atno 8009 bound_to 7997
  155.7123  140.3471  155.4981 H   0  0  0  0  0  0  0  0  0  0  0  0  # atno 8010 bound_to 7997
  140.3036  143.3147  152.0223 H   0  0  0  0  0  0  0  0  0  0  0  0  # atno 10167 bound_to 10162
  156.2568  130.7186  151.1105 H   0  0  0  0  0  0  0  0  0  0  0  0  # atno 10718 bound_to 10713
  154.8367  135.3404  154.6558 H   0  0  0  0  0  0  0  0  0  0  0  0  # atno 10763 bound_to 10752
  153.7172  135.6960  153.5026 H   0  0  0  0  0  0  0  0  0  0  0  0  # atno 10764 bound_to 10752
  153.2408  135.4385  155.0649 H   0  0  0  0  0  0  0  0  0  0  0  0  # atno 10765 bound_to 10752
  140.0389  134.9315  157.0806 H   0  0  0  0  0  0  0  0  0  0  0  0  # atno 11005 bound_to 11000
  145.0496  140.9008  143.5003 LP  0  0  0  0  0  0  0  0  0  0  0  0  # atno 17320 bound_to 7965
  145.1194  139.2704  143.5596 LP  0  0  0  0  0  0  0  0  0  0  0  0  # atno 17321 bound_to 7965
  139.4909  144.6438  151.6822 LP  0  0  0  0  0  0  0  0  0  0  0  0  # atno 17342 bound_to 10162
  140.5630  144.0237  150.6179 LP  0  0  0  0  0  0  0  0  0  0  0  0  # atno 17343 bound_to 10162
  157.7235  131.0665  150.6032 LP  0  0  0  0  0  0  0  0  0  0  0  0  # atno 17370 bound_to 10713
  156.6116  130.4381  149.5857 LP  0  0  0  0  0  0  0  0  0  0  0  0  # atno 17371 bound_to 10713
  140.4102  134.1990  155.7163 LP  0  0  0  0  0  0  0  0  0  0  0  0  # atno 17394 bound_to 11000
  141.1872  133.8285  157.1039 LP  0  0  0  0  0  0  0  0  0  0  0  0  # atno 17395 bound_to 11000

$$$$
