AV-unprocessed.smi:366|AV-procd|sdf|2430|dock8
  -GOLD-   2262022373D 1   1.00000     0.00000
 Structure written by MMmdl.
 50 51  0  0  0  0  0  0  0  0  1 V2000
  147.2863  133.2373  152.3501 C   0  0  0  0  0  0  0  0  0  0  0  0
  147.6064  133.3710  153.8353 C   0  0  0  0  0  0  0  0  0  0  0  0
  147.4680  132.4030  154.5821 O   0  0  0  0  0  0  0  0  0  0  0  0
  148.0368  134.5731  154.2510 N   0  0  0  0  0  0  0  0  0  0  0  0
  148.4146  134.9116  155.6249 C   0  0  1  0  0  0  0  0  0  0  0  0
  149.7467  135.6850  155.5909 C   0  0  0  0  0  0  0  0  0  0  0  0
  150.5574  135.5778  156.5128 O   0  0  0  0  0  0  0  0  0  0  0  0
  149.9639  136.4465  154.5093 N   0  0  0  0  0  0  0  0  0  0  0  0
  151.1616  137.2432  154.2898 C   0  0  0  0  0  0  0  0  0  0  0  0
  151.2912  138.3488  155.3174 C   0  0  0  0  0  0  0  0  0  0  0  0
  150.4431  139.4723  155.2832 C   0  0  0  0  0  0  0  0  0  0  0  0
  150.6081  140.4796  156.2528 C   0  0  0  0  0  0  0  0  0  0  0  0
  151.6231  140.3395  157.2300 C   0  0  0  0  0  0  0  0  0  0  0  0
  151.8084  141.3384  158.2109 N   0  0  0  0  0  0  0  0  0  0  0  0
  151.4180  142.7073  157.8778 C   0  0  0  0  0  0  0  0  0  0  0  0
  151.9541  143.6907  158.9317 C   0  0  0  0  0  0  0  0  0  0  0  0
  151.5138  143.2928  160.2255 O   0  0  0  0  0  0  0  0  0  0  0  0
  152.0004  142.0016  160.5756 C   0  0  0  0  0  0  0  0  0  0  0  0
  151.4690  140.9562  159.5798 C   0  0  0  0  0  0  0  0  0  0  0  0
  152.4345  139.2525  157.2581 N   0  0  0  0  0  0  0  0  0  0  0  0
  152.2724  138.2894  156.3266 C   0  0  0  0  0  0  0  0  0  0  0  0
  147.2990  135.7993  156.2516 C   0  0  0  0  0  0  0  0  0  0  0  0
  145.9464  135.0675  156.3804 C   0  0  0  0  0  0  0  0  0  0  0  0
  147.0905  137.1053  155.4595 C   0  0  0  0  0  0  0  0  0  0  0  0
  147.1902  134.2135  151.8730 H   0  0  0  0  0  0  0  0  0  0  0  0
  146.3495  132.6973  152.2114 H   0  0  0  0  0  0  0  0  0  0  0  0
  148.0787  132.6849  151.8451 H   0  0  0  0  0  0  0  0  0  0  0  0
  148.1276  135.3066  153.5636 H   0  0  0  0  0  0  0  0  0  0  0  0
  148.5256  133.9983  156.2135 H   0  0  0  0  0  0  0  0  0  0  0  0
  149.2504  136.4804  153.7956 H   0  0  0  0  0  0  0  0  0  0  0  0
  152.0455  136.6047  154.3334 H   0  0  0  0  0  0  0  0  0  0  0  0
  151.1318  137.6788  153.2897 H   0  0  0  0  0  0  0  0  0  0  0  0
  149.6759  139.5626  154.5283 H   0  0  0  0  0  0  0  0  0  0  0  0
  149.9490  141.3346  156.2433 H   0  0  0  0  0  0  0  0  0  0  0  0
  151.8070  142.9836  156.8969 H   0  0  0  0  0  0  0  0  0  0  0  0
  150.3301  142.7702  157.8281 H   0  0  0  0  0  0  0  0  0  0  0  0
  153.0440  143.7358  158.9038 H   0  0  0  0  0  0  0  0  0  0  0  0
  151.5888  144.6967  158.7262 H   0  0  0  0  0  0  0  0  0  0  0  0
  153.0915  142.0039  160.5910 H   0  0  0  0  0  0  0  0  0  0  0  0
  151.6695  141.7599  161.5854 H   0  0  0  0  0  0  0  0  0  0  0  0
  150.3842  140.8792  159.6635 H   0  0  0  0  0  0  0  0  0  0  0  0
  151.8759  139.9809  159.8419 H   0  0  0  0  0  0  0  0  0  0  0  0
  152.9474  137.4485  156.3885 H   0  0  0  0  0  0  0  0  0  0  0  0
  147.6079  136.0846  157.2590 H   0  0  0  0  0  0  0  0  0  0  0  0
  145.5997  134.7062  155.4119 H   0  0  0  0  0  0  0  0  0  0  0  0
  145.1787  135.7311  156.7794 H   0  0  0  0  0  0  0  0  0  0  0  0
  146.0021  134.2129  157.0546 H   0  0  0  0  0  0  0  0  0  0  0  0
  146.8145  136.8995  154.4251 H   0  0  0  0  0  0  0  0  0  0  0  0
  147.9876  137.7243  155.4473 H   0  0  0  0  0  0  0  0  0  0  0  0
  146.2964  137.7090  155.8998 H   0  0  0  0  0  0  0  0  0  0  0  0
  1  2  1  0  0  0  0
  1 25  1  0  0  0  0
  1 26  1  0  0  0  0
  1 27  1  0  0  0  0
  2  3  2  0  0  0  0
  2  4  1  0  0  0  0
  4  5  1  0  0  0  0
  4 28  1  0  0  0  0
  5  6  1  0  0  0  0
  5 22  1  0  0  0  0
  5 29  1  0  0  0  0
  6  7  2  0  0  0  0
  6  8  1  0  0  0  0
  8  9  1  0  0  0  0
  8 30  1  0  0  0  0
  9 10  1  0  0  0  0
  9 31  1  0  0  0  0
  9 32  1  0  0  0  0
 10 21  1  0  0  0  0
 10 11  2  0  0  0  0
 11 12  1  0  0  0  0
 11 33  1  0  0  0  0
 12 13  2  0  0  0  0
 12 34  1  0  0  0  0
 13 14  1  0  0  0  0
 13 20  1  0  0  0  0
 14 19  1  0  0  0  0
 14 15  1  0  0  0  0
 15 16  1  0  0  0  0
 15 35  1  0  0  0  0
 15 36  1  0  0  0  0
 16 17  1  0  0  0  0
 16 37  1  0  0  0  0
 16 38  1  0  0  0  0
 17 18  1  0  0  0  0
 18 19  1  0  0  0  0
 18 39  1  0  0  0  0
 18 40  1  0  0  0  0
 19 41  1  0  0  0  0
 19 42  1  0  0  0  0
 20 21  2  0  0  0  0
 21 43  1  0  0  0  0
 22 23  1  0  0  0  0
 22 24  1  0  0  0  0
 22 44  1  0  0  0  0
 23 45  1  0  0  0  0
 23 46  1  0  0  0  0
 23 47  1  0  0  0  0
 24 48  1  0  0  0  0
 24 49  1  0  0  0  0
 24 50  1  0  0  0  0
M  END
> <s_m_source_file>
AV-unprocessed.smi

> <i_m_source_file_index>
366

> <i_lp_mmshare_version>
43012

> <i_f3d_flags>
0

> <s_epik_input>
W0NIM11DKD1PKVtOSF1bQ0BASF0oW0NIXShbQ0gzXSlbQ0gzXSlDKD1PKVtOSF1bQ0gyXWMxW2NIXVtjSF1jKG5bY0hdMSlOMltDSDJdW0NIMl1PW0NIMl1bQ0gyXTI=

> <s_epik_cmdline>
J2VwaWtfcHl0aG9uJywgJy1waCcsICc3LjAnLCAnLXRuJywgJzgnLCAnLW1hJywgJzIwMCcsICctbWV0YWxfYmluZGluZycsICctaW1hZScsICc8aW5maWxlLm1hZT4nLCAnLW9tYWUnLCAnPG91dGZpbGUubWFlPic=

> <r_lp_tautomer_probability>
1

> <r_epik_Ionization_Penalty>
0.00485188

> <r_epik_Ionization_Penalty_Charging>
0

> <r_epik_Ionization_Penalty_Neutral>
0.00485188

> <r_epik_State_Penalty>
0.00351951

> <r_epik_Charging_Adjusted_Penalty>
0.00351951

> <i_epik_Tot_Q>
0

> <i_epik_Tot_abs_Q>
0

> <r_epik_Metal_State_Penalty>
-0

> <b_epik_Metal_Only>
0

> <s_lp_Force_Field>
OPLS_2005

> <r_lp_Energy>
20.5125

> <b_lp_Chiralities_Consistent>
1

> <s_lp_Variant>
AV-unprocessed.smi:366-2

> <Gold.Version>
5.8.1

> <Gold.Id.Protein>
6NUR|6NUR_protein|mol2

> <Gold.PLP.Fitness>
48.2094

> <Gold.PLP.PLP>
-39.0163

> <Gold.PLP.part.hbond>
-5.0000

> <Gold.PLP.part.metal>
0.0000

> <Gold.PLP.part.buried>
-0.0048

> <Gold.PLP.part.nonpolar>
-33.4982

> <Gold.PLP.part.repulsive>
0.1664

> <Gold.PLP.ligand.clash>
0.0000

> <Gold.PLP.ligand.torsion>
1.4794

> <Gold.PLP.Chemscore.Hbond>
3.8960

> <Gold.PLP.Chemscore.CHOScore>
0.0000

> <Gold.PLP.Chemscore.Metal>
0.0000

> <Gold.Chemscore.Hbonds>
donor molecule, donor type, donor heavy atom, donor atom, acceptor molecule, acceptor atom, score
      L1  H     4    28       P1  7948  0.86
      L1  H     8    30       P1  7948  0.83
      P1  H  7997  8010       L1    20  0.59

> <Gold.PLP.Chemscore.Internal.Correction>
0.4638

> <Gold.Rescore>
     Score         DG    S(hbond)    S(metal)    S(lipo)     H(rot)  DE(clash)    DE(int)     intcor
     17.41     -20.74       3.08        0.00      90.23       2.18       1.73       1.60       ----

> <Gold.Chemscore.Fitness>
17.4084

> <Gold.Chemscore.DG>
-20.7354

> <Gold.Chemscore.ZeroCoef>
-5.4800

> <Gold.Chemscore.Hbond>
3.0786

> <Gold.Chemscore.Metal>
0.0000

> <Gold.Chemscore.Lipo>
90.2299

> <Gold.Chemscore.Internal_Hbond>
0.0000

> <Gold.Chemscore.DEClash>
1.7279

> <Gold.Chemscore.DEInternal>
1.5991

> <Gold.Chemscore.Rot>
2.1813

> <Gold.Chemscore.Internal.Correction>
   9.000000E+99

> <Gold.Chemscore.Hbonds>
donor molecule, donor type, donor heavy atom, donor atom, acceptor molecule, acceptor atom, score
      L1  H     4    28       P1  7948  0.82
      L1  H     8    30       P1  7948  0.76
      P1  H  7997  8010       L1    20  0.07

> <Gold.Chemscore.Hbond.Weighted>
-10.2827

> <Gold.Chemscore.Metal.Weighted>
-0.0000

> <Gold.Chemscore.Lipo.Weighted>
-10.5569

> <Gold.Chemscore.Internal_Hbond.Weighted>
0.0000

> <Gold.Chemscore.DEClash.Weighted>
1.7279

> <Gold.Chemscore.DEInternal.Weighted>
1.5991

> <Gold.Chemscore.Rot.Weighted>
5.5842

> <Gold.Chemscore.Internal.Correction.Weighted>
   9.000000E+99

> <Gold.Protein.RotatedTorsions>
[ 6907 6896 6895 6894 ] final   63.03 input  -60.11 | X-H torsion
[ 7974 7965 7964 7962 ] final  -14.79 input  175.53 | X-H torsion
[ 8008 7997 7996 7995 ] final   56.24 input   59.86 | X-H torsion
[ 10167 10162 10161 10158 ] final  -80.77 input  -65.29 | X-H torsion
[ 10718 10713 10712 10709 ] final  -87.29 input   66.30 | X-H torsion
[ 10763 10752 10751 10750 ] final  100.11 input  -60.55 | X-H torsion
[ 11005 11000 10999 10996 ] final  165.10 input  -57.11 | X-H torsion

> <Gold.Protein.ActiveResidues>
 VAL166  LYS551  ARG553  GLY616  TRP617  ASP618  TYR619  PRO620  LYS621  CYS622 
 ASP623  PHE694  ASN695  SER759  ASP760  ASP761  ALA762  ILE779  LEU786  VAL792 
 PHE793  MET794  SER795  GLU796  ALA797  LYS798  CYS799  TRP800  GLU811  SER814 

> <Gold.Protein.RotatedAtoms>
  152.4220  134.5937  159.9980 H   0  0  0  0  0  0  0  0  0  0  0  0  # atno 6907 bound_to 6896
  151.6084  133.3344  159.3070 H   0  0  0  0  0  0  0  0  0  0  0  0  # atno 6908 bound_to 6896
  150.8109  134.7300  159.6752 H   0  0  0  0  0  0  0  0  0  0  0  0  # atno 6909 bound_to 6896
  146.2060  140.3399  142.8407 H   0  0  0  0  0  0  0  0  0  0  0  0  # atno 7974 bound_to 7965
  155.5142  140.3478  155.4394 H   0  0  0  0  0  0  0  0  0  0  0  0  # atno 8008 bound_to 7997
  156.0829  140.1391  156.9717 H   0  0  0  0  0  0  0  0  0  0  0  0  # atno 8009 bound_to 7997
  154.4590  140.0942  156.6815 H   0  0  0  0  0  0  0  0  0  0  0  0  # atno 8010 bound_to 7997
  140.4473  143.2494  151.8539 H   0  0  0  0  0  0  0  0  0  0  0  0  # atno 10167 bound_to 10162
  155.9986  130.4794  150.4844 H   0  0  0  0  0  0  0  0  0  0  0  0  # atno 10718 bound_to 10713
  153.3099  135.4090  155.1326 H   0  0  0  0  0  0  0  0  0  0  0  0  # atno 10763 bound_to 10752
  154.8573  135.3562  154.5738 H   0  0  0  0  0  0  0  0  0  0  0  0  # atno 10764 bound_to 10752
  153.6166  135.7066  153.5385 H   0  0  0  0  0  0  0  0  0  0  0  0  # atno 10765 bound_to 10752
  140.2527  134.7965  157.3516 H   0  0  0  0  0  0  0  0  0  0  0  0  # atno 11005 bound_to 11000
  144.8793  140.7379  143.5997 LP  0  0  0  0  0  0  0  0  0  0  0  0  # atno 17320 bound_to 7965
  145.3319  139.1757  143.4532 LP  0  0  0  0  0  0  0  0  0  0  0  0  # atno 17321 bound_to 7965
  139.4794  144.5160  151.8867 LP  0  0  0  0  0  0  0  0  0  0  0  0  # atno 17342 bound_to 10162
  140.4248  144.2194  150.5887 LP  0  0  0  0  0  0  0  0  0  0  0  0  # atno 17343 bound_to 10162
  157.2846  131.0614  151.2175 LP  0  0  0  0  0  0  0  0  0  0  0  0  # atno 17370 bound_to 10713
  157.3209  130.6937  149.6269 LP  0  0  0  0  0  0  0  0  0  0  0  0  # atno 17371 bound_to 10713
  140.1542  134.4810  155.7939 LP  0  0  0  0  0  0  0  0  0  0  0  0  # atno 17394 bound_to 11000
  141.2199  133.6875  156.7432 LP  0  0  0  0  0  0  0  0  0  0  0  0  # atno 17395 bound_to 11000

$$$$
