AV-unprocessed.smi:260|AV-procd|sdf|1976|dock10
  -GOLD-   2262021143D 1   1.00000     0.00000
 Structure written by MMmdl.
 53 56  0  0  0  0  0  0  0  0  1 V2000
  147.0366  133.3442  151.6309 C   0  0  0  0  0  0  0  0  0  0  0  0
  148.1314  133.3367  152.5888 N   0  0  0  0  0  0  0  0  0  0  0  0
  147.9777  133.4471  153.9180 C   0  0  0  0  0  0  0  0  0  0  0  0
  146.8678  133.5762  154.4369 O   0  0  0  0  0  0  0  0  0  0  0  0
  149.2411  133.4152  154.8181 C   0  0  2  0  0  0  0  0  0  0  0  0
  149.9418  132.0524  154.6509 C   0  0  0  0  0  0  0  0  0  0  0  0
  148.9723  133.7452  156.3046 C   0  0  0  0  0  0  0  0  0  0  0  0
  148.9633  135.2777  156.3773 C   0  0  0  0  0  0  0  0  0  0  0  0
  149.7041  135.7249  155.2071 N   0  0  0  0  0  0  0  0  0  0  0  0
  150.3433  136.9231  155.1754 C   0  0  0  0  0  0  0  0  0  0  0  0
  151.5038  137.0220  154.4743 N   0  0  0  0  0  0  0  0  0  0  0  0
  152.1639  138.1814  154.4118 C   0  0  0  0  0  0  0  0  0  0  0  0
  151.8470  139.3518  154.9667 N   0  0  0  0  0  0  0  0  0  0  0  0
  150.6801  139.2666  155.6666 C   0  0  0  0  0  0  0  0  0  0  0  0
  149.8686  138.1048  155.8187 C   0  0  0  0  0  0  0  0  0  0  0  0
  148.7508  138.4166  156.5855 N   0  0  0  0  0  0  0  0  0  0  0  0
  148.8985  139.6791  156.8777 C   0  0  0  0  0  0  0  0  0  0  0  0
  150.0400  140.2649  156.3808 N   0  0  0  0  0  0  0  0  0  0  0  0
  150.4456  141.6505  156.5449 C   0  0  0  0  0  0  0  0  0  0  0  0
  150.1029  142.2387  157.9332 C   0  0  2  0  0  0  0  0  0  0  0  0
  148.8170  142.8103  157.8016 O   0  0  0  0  0  0  0  0  0  0  0  0
  151.0485  143.3562  158.4310 C   0  0  2  0  0  0  0  0  0  0  0  0
  152.4865  142.9345  158.7440 C   0  0  0  0  0  0  0  0  0  0  0  0
  152.9563  143.9579  159.7649 C   0  0  0  0  0  0  0  0  0  0  0  0
  151.6602  144.5937  160.2691 C   0  0  0  0  0  0  0  0  0  0  0  0
  150.6232  143.7992  159.7120 O   0  0  0  0  0  0  0  0  0  0  0  0
  150.1774  134.5789  154.4402 C   0  0  0  0  0  0  0  0  0  0  0  0
  147.4274  133.2403  150.6189 H   0  0  0  0  0  0  0  0  0  0  0  0
  146.4775  134.2790  151.6863 H   0  0  0  0  0  0  0  0  0  0  0  0
  146.3514  132.5168  151.8187 H   0  0  0  0  0  0  0  0  0  0  0  0
  149.0662  133.2332  152.2215 H   0  0  0  0  0  0  0  0  0  0  0  0
  150.8633  132.0057  155.2321 H   0  0  0  0  0  0  0  0  0  0  0  0
  150.2088  131.8590  153.6110 H   0  0  0  0  0  0  0  0  0  0  0  0
  149.3024  131.2354  154.9877 H   0  0  0  0  0  0  0  0  0  0  0  0
  148.0672  133.2978  156.7165 H   0  0  0  0  0  0  0  0  0  0  0  0
  149.7984  133.3745  156.9130 H   0  0  0  0  0  0  0  0  0  0  0  0
  147.9450  135.6633  156.3205 H   0  0  0  0  0  0  0  0  0  0  0  0
  149.4127  135.6249  157.3082 H   0  0  0  0  0  0  0  0  0  0  0  0
  153.0769  138.1683  153.8351 H   0  0  0  0  0  0  0  0  0  0  0  0
  148.1755  140.2198  157.4712 H   0  0  0  0  0  0  0  0  0  0  0  0
  151.5140  141.7422  156.3461 H   0  0  0  0  0  0  0  0  0  0  0  0
  149.9382  142.2198  155.7645 H   0  0  0  0  0  0  0  0  0  0  0  0
  150.0432  141.4398  158.6731 H   0  0  0  0  0  0  0  0  0  0  0  0
  148.8298  143.4132  157.0740 H   0  0  0  0  0  0  0  0  0  0  0  0
  151.0574  144.1980  157.7355 H   0  0  0  0  0  0  0  0  0  0  0  0
  152.5003  141.9422  159.1968 H   0  0  0  0  0  0  0  0  0  0  0  0
  153.1218  142.9152  157.8593 H   0  0  0  0  0  0  0  0  0  0  0  0
  153.5155  143.4800  160.5697 H   0  0  0  0  0  0  0  0  0  0  0  0
  153.5992  144.7108  159.3079 H   0  0  0  0  0  0  0  0  0  0  0  0
  151.5972  144.6118  161.3572 H   0  0  0  0  0  0  0  0  0  0  0  0
  151.5660  145.6174  159.9040 H   0  0  0  0  0  0  0  0  0  0  0  0
  151.2077  134.3568  154.7225 H   0  0  0  0  0  0  0  0  0  0  0  0
  150.1664  134.7938  153.3706 H   0  0  0  0  0  0  0  0  0  0  0  0
  1  2  1  0  0  0  0
  1 28  1  0  0  0  0
  1 29  1  0  0  0  0
  1 30  1  0  0  0  0
  2  3  1  0  0  0  0
  2 31  1  0  0  0  0
  3  4  2  0  0  0  0
  3  5  1  0  0  0  0
  5 27  1  0  0  0  0
  5  6  1  0  0  0  0
  5  7  1  0  0  0  0
  6 32  1  0  0  0  0
  6 33  1  0  0  0  0
  6 34  1  0  0  0  0
  7  8  1  0  0  0  0
  7 35  1  0  0  0  0
  7 36  1  0  0  0  0
  8  9  1  0  0  0  0
  8 37  1  0  0  0  0
  8 38  1  0  0  0  0
  9 10  1  0  0  0  0
  9 27  1  0  0  0  0
 10 15  1  0  0  0  0
 10 11  2  0  0  0  0
 11 12  1  0  0  0  0
 12 13  2  0  0  0  0
 12 39  1  0  0  0  0
 13 14  1  0  0  0  0
 14 18  1  0  0  0  0
 14 15  2  0  0  0  0
 15 16  1  0  0  0  0
 16 17  2  0  0  0  0
 17 18  1  0  0  0  0
 17 40  1  0  0  0  0
 18 19  1  0  0  0  0
 19 20  1  0  0  0  0
 19 41  1  0  0  0  0
 19 42  1  0  0  0  0
 20 21  1  0  0  0  0
 20 22  1  0  0  0  0
 20 43  1  0  0  0  0
 21 44  1  0  0  0  0
 22 26  1  0  0  0  0
 22 23  1  0  0  0  0
 22 45  1  0  0  0  0
 23 24  1  0  0  0  0
 23 46  1  0  0  0  0
 23 47  1  0  0  0  0
 24 25  1  0  0  0  0
 24 48  1  0  0  0  0
 24 49  1  0  0  0  0
 25 26  1  0  0  0  0
 25 50  1  0  0  0  0
 25 51  1  0  0  0  0
 27 52  1  0  0  0  0
 27 53  1  0  0  0  0
M  END
> <s_m_source_file>
AV-unprocessed.smi

> <i_m_source_file_index>
260

> <i_lp_mmshare_version>
43012

> <i_f3d_flags>
0

> <s_epik_input>
W0NIM11bTkhdQyg9TylbQ0BAXTEoW0NIM10pW0NIMl1bQ0gyXU4oW0NIMl0xKWMobltjSF1uMiljKGMyMyluW2NIXW4zW0NIMl1bQ0BIXShbT0hdKVtDQEBIXTRbQ0gyXVtDSDJdW0NIMl1PNA==

> <s_epik_cmdline>
J2VwaWtfcHl0aG9uJywgJy1waCcsICc3LjAnLCAnLXRuJywgJzgnLCAnLW1hJywgJzIwMCcsICctbWV0YWxfYmluZGluZycsICctaW1hZScsICc8aW5maWxlLm1hZT4nLCAnLW9tYWUnLCAnPG91dGZpbGUubWFlPic=

> <r_lp_tautomer_probability>
1

> <r_epik_Ionization_Penalty>
0.00115068

> <r_epik_Ionization_Penalty_Charging>
0

> <r_epik_Ionization_Penalty_Neutral>
0.00115068

> <r_epik_State_Penalty>
0.000668876

> <r_epik_Charging_Adjusted_Penalty>
0.000668876

> <i_epik_Tot_Q>
0

> <i_epik_Tot_abs_Q>
0

> <r_epik_Metal_State_Penalty>
-0

> <b_epik_Metal_Only>
0

> <s_lp_Force_Field>
OPLS_2005

> <r_lp_Energy>
52.371

> <b_lp_Chiralities_Consistent>
1

> <s_lp_Variant>
AV-unprocessed.smi:260-2

> <Gold.Version>
5.8.1

> <Gold.Id.Protein>
6NUR|6NUR_protein|mol2

> <Gold.PLP.Fitness>
48.6585

> <Gold.PLP.PLP>
-41.3962

> <Gold.PLP.part.hbond>
-4.2001

> <Gold.PLP.part.metal>
0.0000

> <Gold.PLP.part.buried>
-7.9703

> <Gold.PLP.part.nonpolar>
-29.8377

> <Gold.PLP.part.repulsive>
0.3818

> <Gold.PLP.ligand.clash>
0.0000

> <Gold.PLP.ligand.torsion>
1.0393

> <Gold.PLP.Chemscore.Hbond>
3.0000

> <Gold.PLP.Chemscore.CHOScore>
0.0000

> <Gold.PLP.Chemscore.Metal>
0.0000

> <Gold.Chemscore.Hbonds>
donor molecule, donor type, donor heavy atom, donor atom, acceptor molecule, acceptor atom, score
      L1  H    21    44       P1  8028  1.00
      P1  H  7989  7998       L1    13  0.80
      P1  H 10752 10764       L1    11  1.00

> <Gold.PLP.Chemscore.Internal.Correction>
0.3408

> <Gold.Rescore>
     Score         DG    S(hbond)    S(metal)    S(lipo)     H(rot)  DE(clash)    DE(int)     intcor
     14.76     -15.94       1.86        0.00      91.63       2.53       0.02       1.16       ----

> <Gold.Chemscore.Fitness>
14.7607

> <Gold.Chemscore.DG>
-15.9375

> <Gold.Chemscore.ZeroCoef>
-5.4800

> <Gold.Chemscore.Hbond>
1.8571

> <Gold.Chemscore.Metal>
0.0000

> <Gold.Chemscore.Lipo>
91.6335

> <Gold.Chemscore.Internal_Hbond>
0.0000

> <Gold.Chemscore.DEClash>
0.0174

> <Gold.Chemscore.DEInternal>
1.1595

> <Gold.Chemscore.Rot>
2.5259

> <Gold.Chemscore.Internal.Correction>
   9.000000E+99

> <Gold.Chemscore.Hbonds>
donor molecule, donor type, donor heavy atom, donor atom, acceptor molecule, acceptor atom, score
      L1  H    21    44       P1  8028  0.45
      P1  H  7989  7998       L1    13  0.41
      P1  H 10752 10764       L1    11  0.48

> <Gold.Chemscore.Hbond.Weighted>
-6.2028

> <Gold.Chemscore.Metal.Weighted>
-0.0000

> <Gold.Chemscore.Lipo.Weighted>
-10.7211

> <Gold.Chemscore.Internal_Hbond.Weighted>
0.0000

> <Gold.Chemscore.DEClash.Weighted>
0.0174

> <Gold.Chemscore.DEInternal.Weighted>
1.1595

> <Gold.Chemscore.Rot.Weighted>
6.4663

> <Gold.Chemscore.Internal.Correction.Weighted>
   9.000000E+99

> <Gold.Protein.RotatedTorsions>
[ 6907 6896 6895 6894 ] final -142.69 input  -60.11 | X-H torsion
[ 7974 7965 7964 7962 ] final  -27.42 input  175.53 | X-H torsion
[ 8008 7997 7996 7995 ] final  119.89 input   59.86 | X-H torsion
[ 10167 10162 10161 10158 ] final  -81.79 input  -65.29 | X-H torsion
[ 10718 10713 10712 10709 ] final   71.11 input   66.30 | X-H torsion
[ 10763 10752 10751 10750 ] final  -67.89 input  -60.55 | X-H torsion
[ 11005 11000 10999 10996 ] final   25.36 input  -57.11 | X-H torsion

> <Gold.Protein.ActiveResidues>
 VAL166  LYS551  ARG553  GLY616  TRP617  ASP618  TYR619  PRO620  LYS621  CYS622 
 ASP623  PHE694  ASN695  SER759  ASP760  ASP761  ALA762  ILE779  LEU786  VAL792 
 PHE793  MET794  SER795  GLU796  ALA797  LYS798  CYS799  TRP800  GLU811  SER814 

> <Gold.Protein.RotatedAtoms>
  151.0904  133.5320  159.2615 H   0  0  0  0  0  0  0  0  0  0  0  0  # atno 6907 bound_to 6896
  151.2189  135.0510  159.8951 H   0  0  0  0  0  0  0  0  0  0  0  0  # atno 6908 bound_to 6896
  152.5433  134.0709  159.8247 H   0  0  0  0  0  0  0  0  0  0  0  0  # atno 6909 bound_to 6896
  146.1359  140.5149  142.8673 H   0  0  0  0  0  0  0  0  0  0  0  0  # atno 7974 bound_to 7965
  156.2617  140.2843  156.1063 H   0  0  0  0  0  0  0  0  0  0  0  0  # atno 8008 bound_to 7997
  155.1305  140.0393  157.2791 H   0  0  0  0  0  0  0  0  0  0  0  0  # atno 8009 bound_to 7997
  154.6603  140.2565  155.7122 H   0  0  0  0  0  0  0  0  0  0  0  0  # atno 8010 bound_to 7997
  140.4380  143.2525  151.8667 H   0  0  0  0  0  0  0  0  0  0  0  0  # atno 10167 bound_to 10162
  157.6435  130.9512  150.0744 H   0  0  0  0  0  0  0  0  0  0  0  0  # atno 10718 bound_to 10713
  154.3810  135.6074  153.5791 H   0  0  0  0  0  0  0  0  0  0  0  0  # atno 10763 bound_to 10752
  152.9788  135.5861  154.4410 H   0  0  0  0  0  0  0  0  0  0  0  0  # atno 10764 bound_to 10752
  154.4179  135.2845  155.1972 H   0  0  0  0  0  0  0  0  0  0  0  0  # atno 10765 bound_to 10752
  140.3487  134.2253  155.7682 H   0  0  0  0  0  0  0  0  0  0  0  0  # atno 11005 bound_to 11000
  144.7739  140.5697  143.6651 LP  0  0  0  0  0  0  0  0  0  0  0  0  # atno 17320 bound_to 7965
  145.5157  139.1478  143.3580 LP  0  0  0  0  0  0  0  0  0  0  0  0  # atno 17321 bound_to 7965
  139.4788  144.5261  151.8732 LP  0  0  0  0  0  0  0  0  0  0  0  0  # atno 17342 bound_to 10162
  140.4352  144.2062  150.5889 LP  0  0  0  0  0  0  0  0  0  0  0  0  # atno 17343 bound_to 10162
  156.1739  130.3647  149.9128 LP  0  0  0  0  0  0  0  0  0  0  0  0  # atno 17370 bound_to 10713
  156.7097  130.8965  151.3608 LP  0  0  0  0  0  0  0  0  0  0  0  0  # atno 17371 bound_to 10713
  141.2018  133.7953  157.0421 LP  0  0  0  0  0  0  0  0  0  0  0  0  # atno 17394 bound_to 11000
  140.0721  134.9696  157.1484 LP  0  0  0  0  0  0  0  0  0  0  0  0  # atno 17395 bound_to 11000

$$$$
