AV-unprocessed.smi:1816|AV-procd|sdf|7367|dock1
  -GOLD-   22720 9 33D 1   1.00000     0.00000
 Structure written by MMmdl.
 35 36  0  0  0  0  0  0  0  0  3 V2000
  150.2493  134.9096  155.1046 C   0  0  0  0  0  0  0  0  0  0  0  0
  148.7172  134.7417  155.2227 C   0  0  1  0  0  0  0  0  0  0  0  0
  148.0899  135.9418  155.9702 C   0  0  0  0  0  0  0  0  0  0  0  0
  148.5796  136.0433  157.3392 N   0  0  0  0  0  0  0  0  0  0  0  0
  148.3373  135.1560  158.3123 C   0  0  0  0  0  0  0  0  0  0  0  0
  147.6536  134.1575  158.0754 O   0  0  0  0  0  0  0  0  0  0  0  0
  148.9012  135.4832  159.4963 N   0  5  0  0  0  0  0  0  0  0  0  0
  148.1732  135.4337  160.6238 C   0  0  0  0  0  0  0  0  0  0  0  0
  148.3006  136.3247  161.6139 N   0  0  0  0  0  0  0  0  0  0  0  0
  147.4413  136.0871  162.6883 C   0  0  0  0  0  0  0  0  0  0  0  0
  146.6337  134.9957  162.5074 C   0  0  0  0  0  0  0  0  0  0  0  0
  146.9313  134.2281  160.9739 S   0  0  0  0  0  0  0  0  0  0  0  0
  148.0878  134.5724  153.8811 N   0  3  0  0  0  0  0  0  0  0  0  0
  148.3825  133.2995  153.1874 C   0  0  0  0  0  0  0  0  0  0  0  0
  147.2853  133.1570  152.1394 C   0  0  0  0  0  0  0  0  0  0  0  0
  146.0575  133.7118  152.8518 C   0  0  0  0  0  0  0  0  0  0  0  0
  146.6122  134.7404  153.8474 C   0  0  0  0  0  0  0  0  0  0  0  0
  150.7175  135.0438  156.0798 H   0  0  0  0  0  0  0  0  0  0  0  0
  150.5053  135.7776  154.4963 H   0  0  0  0  0  0  0  0  0  0  0  0
  150.7248  134.0363  154.6588 H   0  0  0  0  0  0  0  0  0  0  0  0
  148.5219  133.8356  155.7989 H   0  0  0  0  0  0  0  0  0  0  0  0
  148.3127  136.8687  155.4386 H   0  0  0  0  0  0  0  0  0  0  0  0
  147.0038  135.8550  156.0146 H   0  0  0  0  0  0  0  0  0  0  0  0
  149.1441  136.8472  157.5719 H   0  0  0  0  0  0  0  0  0  0  0  0
  147.4708  136.7478  163.5418 H   0  0  0  0  0  0  0  0  0  0  0  0
  145.8860  134.5987  163.1772 H   0  0  0  0  0  0  0  0  0  0  0  0
  149.3763  133.2975  152.7387 H   0  0  0  0  0  0  0  0  0  0  0  0
  148.3241  132.4713  153.8959 H   0  0  0  0  0  0  0  0  0  0  0  0
  147.5204  133.7725  151.2697 H   0  0  0  0  0  0  0  0  0  0  0  0
  147.1518  132.1293  151.8000 H   0  0  0  0  0  0  0  0  0  0  0  0
  145.3350  134.1447  152.1593 H   0  0  0  0  0  0  0  0  0  0  0  0
  145.5558  132.9100  153.3952 H   0  0  0  0  0  0  0  0  0  0  0  0
  146.1640  134.5762  154.8285 H   0  0  0  0  0  0  0  0  0  0  0  0
  146.3745  135.7592  153.5398 H   0  0  0  0  0  0  0  0  0  0  0  0
  148.4626  135.3000  153.2891 H   0  0  0  0  0  0  0  0  0  0  0  0
  1  2  1  0  0  0  0
  1 18  1  0  0  0  0
  1 19  1  0  0  0  0
  1 20  1  0  0  0  0
  2  3  1  0  0  0  0
  2 13  1  0  0  0  0
  2 21  1  0  0  0  0
  3  4  1  0  0  0  0
  3 22  1  0  0  0  0
  3 23  1  0  0  0  0
  4  5  1  0  0  0  0
  4 24  1  0  0  0  0
  5  6  2  0  0  0  0
  5  7  1  0  0  0  0
  7  8  1  0  0  0  0
  8 12  1  0  0  0  0
  8  9  2  0  0  0  0
  9 10  1  0  0  0  0
 10 11  2  0  0  0  0
 10 25  1  0  0  0  0
 11 12  1  0  0  0  0
 11 26  1  0  0  0  0
 13 17  1  0  0  0  0
 13 14  1  0  0  0  0
 13 35  1  0  0  0  0
 14 15  1  0  0  0  0
 14 27  1  0  0  0  0
 14 28  1  0  0  0  0
 15 16  1  0  0  0  0
 15 29  1  0  0  0  0
 15 30  1  0  0  0  0
 16 17  1  0  0  0  0
 16 31  1  0  0  0  0
 16 32  1  0  0  0  0
 17 33  1  0  0  0  0
 17 34  1  0  0  0  0
M  CHG  1   7  -1
M  CHG  1  13   1
M  END
> <s_m_source_file>
AV-unprocessed.smi

> <i_m_source_file_index>
1816

> <i_lp_mmshare_version>
43012

> <i_f3d_flags>
0

> <s_epik_input>
W0NIMl0xW0NIMl1bQ0gyXVtDSDJdTjFbQ0BIXShbQ0gzXSlbQ0gyXVtOSF1DKD1PKVtOSF1jMm5bY0hdW2NIXXMy

> <s_epik_cmdline>
J2VwaWtfcHl0aG9uJywgJy1waCcsICc3LjAnLCAnLXRuJywgJzgnLCAnLW1hJywgJzIwMCcsICctbWV0YWxfYmluZGluZycsICctaW1hZScsICc8aW5maWxlLm1hZT4nLCAnLW9tYWUnLCAnPG91dGZpbGUubWFlPic=

> <r_lp_tautomer_probability>
0.999

> <r_epik_Ionization_Penalty>
6.21769

> <r_epik_Ionization_Penalty_Charging>
5.38662

> <r_epik_Ionization_Penalty_Neutral>
0.831074

> <r_epik_State_Penalty>
5.38626

> <r_epik_Charging_Adjusted_Penalty>
10.7729

> <i_epik_Tot_Q>
0

> <i_epik_Tot_abs_Q>
2

> <r_epik_Metal_State_Penalty>
1.41347

> <b_epik_Metal_Only>
1

> <s_lp_Force_Field>
OPLS_2005

> <r_lp_Energy>
20.95

> <b_lp_Chiralities_Consistent>
1

> <s_lp_Variant>
AV-unprocessed.smi:1816-4

> <Gold.Version>
5.8.1

> <Gold.Id.Protein>
6NUR|6NUR_protein|mol2

> <Gold.PLP.Fitness>
41.3780

> <Gold.PLP.PLP>
-28.1440

> <Gold.PLP.part.hbond>
-3.0000

> <Gold.PLP.part.metal>
0.0000

> <Gold.PLP.part.buried>
-3.0782

> <Gold.PLP.part.nonpolar>
-21.9814

> <Gold.PLP.part.repulsive>
0.0297

> <Gold.PLP.ligand.clash>
0.0000

> <Gold.PLP.ligand.torsion>
0.9058

> <Gold.PLP.Chemscore.Hbond>
5.0000

> <Gold.PLP.Chemscore.CHOScore>
0.0000

> <Gold.PLP.Chemscore.Metal>
0.0000

> <Gold.Chemscore.Hbonds>
donor molecule, donor type, donor heavy atom, donor atom, acceptor molecule, acceptor atom, score
      L1  H    13    35       P1  7948  2.00
      P1  H  6896  6909       L1     7  2.00
      P1  H  6931  6943       L1     9  0.89

> <Gold.PLP.Chemscore.Internal.Correction>
0.0457

> <Gold.Rescore>
     Score         DG    S(hbond)    S(metal)    S(lipo)     H(rot)  DE(clash)    DE(int)     intcor
     12.68     -14.79       2.05        0.00      55.39       1.57       0.02       2.09       ----

> <Gold.Chemscore.Fitness>
12.6801

> <Gold.Chemscore.DG>
-14.7918

> <Gold.Chemscore.ZeroCoef>
-5.4800

> <Gold.Chemscore.Hbond>
2.0519

> <Gold.Chemscore.Metal>
0.0000

> <Gold.Chemscore.Lipo>
55.3872

> <Gold.Chemscore.Internal_Hbond>
0.0000

> <Gold.Chemscore.DEClash>
0.0202

> <Gold.Chemscore.DEInternal>
2.0914

> <Gold.Chemscore.Rot>
1.5710

> <Gold.Chemscore.Internal.Correction>
   9.000000E+99

> <Gold.Chemscore.Hbonds>
donor molecule, donor type, donor heavy atom, donor atom, acceptor molecule, acceptor atom, score
      L1  H    13    35       P1  7948  0.95
      P1  H  6896  6909       L1     7  0.66
      P1  H  6931  6943       L1     9  0.43

> <Gold.Chemscore.Hbond.Weighted>
-6.8533

> <Gold.Chemscore.Metal.Weighted>
-0.0000

> <Gold.Chemscore.Lipo.Weighted>
-6.4803

> <Gold.Chemscore.Internal_Hbond.Weighted>
0.0000

> <Gold.Chemscore.DEClash.Weighted>
0.0202

> <Gold.Chemscore.DEInternal.Weighted>
2.0914

> <Gold.Chemscore.Rot.Weighted>
4.0219

> <Gold.Chemscore.Internal.Correction.Weighted>
   9.000000E+99

> <Gold.Protein.RotatedTorsions>
[ 6907 6896 6895 6894 ] final   57.80 input  -60.11 | X-H torsion
[ 7974 7965 7964 7962 ] final   -4.91 input  175.53 | X-H torsion
[ 8008 7997 7996 7995 ] final -117.86 input   59.86 | X-H torsion
[ 10167 10162 10161 10158 ] final   80.35 input  -65.29 | X-H torsion
[ 10718 10713 10712 10709 ] final   28.16 input   66.30 | X-H torsion
[ 10763 10752 10751 10750 ] final  174.47 input  -60.55 | X-H torsion
[ 11005 11000 10999 10996 ] final  102.07 input  -57.11 | X-H torsion

> <Gold.Protein.ActiveResidues>
 VAL166  LYS551  ARG553  GLY616  TRP617  ASP618  TYR619  PRO620  LYS621  CYS622 
 ASP623  PHE694  ASN695  SER759  ASP760  ASP761  ALA762  ILE779  LEU786  VAL792 
 PHE793  MET794  SER795  GLU796  ALA797  LYS798  CYS799  TRP800  GLU811  SER814 

> <Gold.Protein.RotatedAtoms>
  152.3765  134.6655  160.0157 H   0  0  0  0  0  0  0  0  0  0  0  0  # atno 6907 bound_to 6896
  151.6932  133.3305  159.3256 H   0  0  0  0  0  0  0  0  0  0  0  0  # atno 6908 bound_to 6896
  150.7714  134.6616  159.6387 H   0  0  0  0  0  0  0  0  0  0  0  0  # atno 6909 bound_to 6896
  146.2363  140.1942  142.8333 H   0  0  0  0  0  0  0  0  0  0  0  0  # atno 7974 bound_to 7965
  155.0904  140.0395  157.2667 H   0  0  0  0  0  0  0  0  0  0  0  0  # atno 8008 bound_to 7997
  154.6836  140.2638  155.6858 H   0  0  0  0  0  0  0  0  0  0  0  0  # atno 8009 bound_to 7997
  156.2704  140.2773  156.1390 H   0  0  0  0  0  0  0  0  0  0  0  0  # atno 8010 bound_to 7997
  139.9507  144.6028  150.8164 H   0  0  0  0  0  0  0  0  0  0  0  0  # atno 10167 bound_to 10162
  157.2298  130.7018  149.6308 H   0  0  0  0  0  0  0  0  0  0  0  0  # atno 10718 bound_to 10713
  154.4543  135.2765  155.1758 H   0  0  0  0  0  0  0  0  0  0  0  0  # atno 10763 bound_to 10752
  154.3573  135.6137  153.5676 H   0  0  0  0  0  0  0  0  0  0  0  0  # atno 10764 bound_to 10752
  152.9849  135.5826  154.4893 H   0  0  0  0  0  0  0  0  0  0  0  0  # atno 10765 bound_to 10752
  139.8776  134.9209  156.5002 H   0  0  0  0  0  0  0  0  0  0  0  0  # atno 11005 bound_to 11000
  144.9833  140.8480  143.5384 LP  0  0  0  0  0  0  0  0  0  0  0  0  # atno 17320 bound_to 7965
  145.1938  139.2287  143.5228 LP  0  0  0  0  0  0  0  0  0  0  0  0  # atno 17321 bound_to 7965
  140.7583  143.3105  151.2855 LP  0  0  0  0  0  0  0  0  0  0  0  0  # atno 17342 bound_to 10162
  139.6631  144.0154  152.2705 LP  0  0  0  0  0  0  0  0  0  0  0  0  # atno 17343 bound_to 10162
  155.9676  130.4492  150.5651 LP  0  0  0  0  0  0  0  0  0  0  0  0  # atno 17370 bound_to 10713
  157.3490  131.0730  151.1728 LP  0  0  0  0  0  0  0  0  0  0  0  0  # atno 17371 bound_to 10713
  140.8595  133.8070  155.9250 LP  0  0  0  0  0  0  0  0  0  0  0  0  # atno 17394 bound_to 11000
  140.9064  134.2315  157.5012 LP  0  0  0  0  0  0  0  0  0  0  0  0  # atno 17395 bound_to 11000

$$$$
