AV-unprocessed.smi:688|AV-procd|sdf|3356|dock2
  -GOLD-   22720 0333D 1   1.00000     0.00000
 Structure written by MMmdl.
 35 36  0  0  0  0  0  0  0  0  2 V2000
  152.5748  136.0861  156.8130 O   0  0  0  0  0  0  0  0  0  0  0  0
  152.2928  137.2776  156.6927 C   0  0  0  0  0  0  0  0  0  0  0  0
  151.7712  137.7986  155.5435 N   0  5  0  0  0  0  0  0  0  0  0  0
  151.4450  139.1195  155.3933 C   0  0  0  0  0  0  0  0  0  0  0  0
  150.9830  139.5682  154.3437 O   0  0  0  0  0  0  0  0  0  0  0  0
  151.6401  139.9691  156.4453 N   0  0  0  0  0  0  0  0  0  0  0  0
  151.3137  141.4006  156.3759 C   0  0  0  0  0  0  0  0  0  0  0  0
  149.9940  141.7284  157.1088 C   0  0  2  0  0  0  0  0  0  0  0  0
  149.0759  142.2119  156.1475 O   0  0  0  0  0  0  0  0  0  0  0  0
  150.1803  142.8380  158.1576 C   0  0  0  0  0  0  0  0  0  0  0  0
  150.9842  142.3428  159.2160 O   0  0  0  0  0  0  0  0  0  0  0  0
  151.7949  143.3421  159.8121 C   0  0  0  0  0  0  0  0  0  0  0  0
  152.7607  142.7512  160.8212 C   0  0  0  0  0  0  0  0  0  0  0  0
  153.5495  141.6340  160.4738 C   0  0  0  0  0  0  0  0  0  0  0  0
  154.4374  141.0736  161.4128 C   0  0  0  0  0  0  0  0  0  0  0  0
  154.5367  141.6252  162.7050 C   0  0  0  0  0  0  0  0  0  0  0  0
  155.6252  140.9400  163.8550 Cl  0  0  0  0  0  0  0  0  0  0  0  0
  153.7446  142.7354  163.0582 C   0  0  0  0  0  0  0  0  0  0  0  0
  152.8561  143.2954  162.1195 C   0  0  0  0  0  0  0  0  0  0  0  0
  152.1853  139.4859  157.6463 C   0  0  0  0  0  0  0  0  0  0  0  0
  152.5167  138.1906  157.8116 C   0  0  0  0  0  0  0  0  0  0  0  0
  153.1882  137.6250  159.2998 Cl  0  0  0  0  0  0  0  0  0  0  0  0
  152.1365  141.9636  156.8198 H   0  0  0  0  0  0  0  0  0  0  0  0
  151.2780  141.7464  155.3413 H   0  0  0  0  0  0  0  0  0  0  0  0
  149.5937  140.8365  157.5930 H   0  0  0  0  0  0  0  0  0  0  0  0
  148.9735  143.1425  156.2733 H   0  0  0  0  0  0  0  0  0  0  0  0
  150.6982  143.6864  157.7076 H   0  0  0  0  0  0  0  0  0  0  0  0
  149.2196  143.2038  158.5251 H   0  0  0  0  0  0  0  0  0  0  0  0
  152.3506  143.8733  159.0375 H   0  0  0  0  0  0  0  0  0  0  0  0
  151.1699  144.0750  160.3246 H   0  0  0  0  0  0  0  0  0  0  0  0
  153.4768  141.2050  159.4851 H   0  0  0  0  0  0  0  0  0  0  0  0
  155.0408  140.2203  161.1399 H   0  0  0  0  0  0  0  0  0  0  0  0
  153.8169  143.1587  164.0493 H   0  0  0  0  0  0  0  0  0  0  0  0
  152.2510  144.1453  162.3995 H   0  0  0  0  0  0  0  0  0  0  0  0
  152.3212  140.2300  158.4177 H   0  0  0  0  0  0  0  0  0  0  0  0
  1  2  2  0  0  0  0
  2 21  1  0  0  0  0
  2  3  1  0  0  0  0
  3  4  1  0  0  0  0
  4  5  2  0  0  0  0
  4  6  1  0  0  0  0
  6  7  1  0  0  0  0
  6 20  1  0  0  0  0
  7  8  1  0  0  0  0
  7 23  1  0  0  0  0
  7 24  1  0  0  0  0
  8  9  1  0  0  0  0
  8 10  1  0  0  0  0
  8 25  1  0  0  0  0
  9 26  1  0  0  0  0
 10 11  1  0  0  0  0
 10 27  1  0  0  0  0
 10 28  1  0  0  0  0
 11 12  1  0  0  0  0
 12 13  1  0  0  0  0
 12 29  1  0  0  0  0
 12 30  1  0  0  0  0
 13 19  1  0  0  0  0
 13 14  2  0  0  0  0
 14 15  1  0  0  0  0
 14 31  1  0  0  0  0
 15 16  2  0  0  0  0
 15 32  1  0  0  0  0
 16 17  1  0  0  0  0
 16 18  1  0  0  0  0
 18 19  2  0  0  0  0
 18 33  1  0  0  0  0
 19 34  1  0  0  0  0
 20 21  2  0  0  0  0
 20 35  1  0  0  0  0
 21 22  1  0  0  0  0
M  CHG  1   3  -1
M  END
> <s_m_source_file>
AV-unprocessed.smi

> <i_m_source_file_index>
688

> <i_lp_mmshare_version>
43012

> <i_f3d_flags>
0

> <s_epik_input>
Tz1jMVtuSF1jKD1PKW4oW2NIXWMxQ2wpW0NIMl1bQ0BIXShbT0hdKVtDSDJdT1tDSDJdYzJbY0hdW2NIXWMoQ2wpW2NIXVtjSF0y

> <s_epik_cmdline>
J2VwaWtfcHl0aG9uJywgJy1waCcsICc3LjAnLCAnLXRuJywgJzgnLCAnLW1hJywgJzIwMCcsICctbWV0YWxfYmluZGluZycsICctaW1hZScsICc8aW5maWxlLm1hZT4nLCAnLW9tYWUnLCAnPG91dGZpbGUubWFlPic=

> <r_epik_Ionization_Penalty>
1.82111

> <r_epik_Ionization_Penalty_Charging>
5.03334e-08

> <r_epik_Ionization_Penalty_Neutral>
1.82111

> <r_epik_State_Penalty>
1.93633

> <r_epik_Charging_Adjusted_Penalty>
1.93633

> <i_epik_Tot_Q>
-1

> <i_epik_Tot_abs_Q>
1

> <r_epik_Metal_State_Penalty>
0.0147818

> <b_epik_Metal_Only>
0

> <s_lp_Force_Field>
OPLS_2005

> <r_lp_Energy>
25.7398

> <b_lp_Chiralities_Consistent>
1

> <s_lp_Variant>
AV-unprocessed.smi:688-3

> <Gold.Version>
5.8.1

> <Gold.Id.Protein>
6NUR|6NUR_protein|mol2

> <Gold.PLP.Fitness>
51.2625

> <Gold.PLP.PLP>
-44.5237

> <Gold.PLP.part.hbond>
-3.5170

> <Gold.PLP.part.metal>
0.0000

> <Gold.PLP.part.buried>
-2.1385

> <Gold.PLP.part.nonpolar>
-36.9837

> <Gold.PLP.part.repulsive>
0.1778

> <Gold.PLP.ligand.clash>
0.0000

> <Gold.PLP.ligand.torsion>
1.3183

> <Gold.PLP.Chemscore.Hbond>
3.0000

> <Gold.PLP.Chemscore.CHOScore>
0.0000

> <Gold.PLP.Chemscore.Metal>
0.0000

> <Gold.Chemscore.Hbonds>
donor molecule, donor type, donor heavy atom, donor atom, acceptor molecule, acceptor atom, score
      L1  H     9    26       P1  8028  1.00
      P1  H  7989  7998       L1     5  1.00
      P1  H 10752 10763       L1     1  1.00

> <Gold.PLP.Chemscore.Internal.Correction>
0.3753

> <Gold.Rescore>
     Score         DG    S(hbond)    S(metal)    S(lipo)     H(rot)  DE(clash)    DE(int)     intcor
     19.12     -20.57       2.71        0.00     114.10       2.85       0.16       1.29       ----

> <Gold.Chemscore.Fitness>
19.1209

> <Gold.Chemscore.DG>
-20.5743

> <Gold.Chemscore.ZeroCoef>
-5.4800

> <Gold.Chemscore.Hbond>
2.7101

> <Gold.Chemscore.Metal>
0.0000

> <Gold.Chemscore.Lipo>
114.0975

> <Gold.Chemscore.Internal_Hbond>
0.0000

> <Gold.Chemscore.DEClash>
0.1595

> <Gold.Chemscore.DEInternal>
1.2940

> <Gold.Chemscore.Rot>
2.8542

> <Gold.Chemscore.Internal.Correction>
   9.000000E+99

> <Gold.Chemscore.Hbonds>
donor molecule, donor type, donor heavy atom, donor atom, acceptor molecule, acceptor atom, score
      L1  H     9    26       P1  8028  0.95
      P1  H  7989  7998       L1     5  1.00
      P1  H 10752 10763       L1     1  0.64

> <Gold.Chemscore.Hbond.Weighted>
-9.0516

> <Gold.Chemscore.Metal.Weighted>
-0.0000

> <Gold.Chemscore.Lipo.Weighted>
-13.3494

> <Gold.Chemscore.Internal_Hbond.Weighted>
0.0000

> <Gold.Chemscore.DEClash.Weighted>
0.1595

> <Gold.Chemscore.DEInternal.Weighted>
1.2940

> <Gold.Chemscore.Rot.Weighted>
7.3067

> <Gold.Chemscore.Internal.Correction.Weighted>
   9.000000E+99

> <Gold.Protein.RotatedTorsions>
[ 6907 6896 6895 6894 ] final  162.98 input  -60.11 | X-H torsion
[ 7974 7965 7964 7962 ] final  150.28 input  175.53 | X-H torsion
[ 8008 7997 7996 7995 ] final -133.42 input   59.86 | X-H torsion
[ 10167 10162 10161 10158 ] final -122.34 input  -65.29 | X-H torsion
[ 10718 10713 10712 10709 ] final    1.00 input   66.30 | X-H torsion
[ 10763 10752 10751 10750 ] final   92.67 input  -60.55 | X-H torsion
[ 11005 11000 10999 10996 ] final  -24.04 input  -57.11 | X-H torsion

> <Gold.Protein.ActiveResidues>
 VAL166  LYS551  ARG553  GLY616  TRP617  ASP618  TYR619  PRO620  LYS621  CYS622 
 ASP623  PHE694  ASN695  SER759  ASP760  ASP761  ALA762  ILE779  LEU786  VAL792 
 PHE793  MET794  SER795  GLU796  ALA797  LYS798  CYS799  TRP800  GLU811  SER814 

> <Gold.Protein.RotatedAtoms>
  151.9322  133.3614  159.3934 H   0  0  0  0  0  0  0  0  0  0  0  0  # atno 6907 bound_to 6896
  150.7015  134.4525  159.5352 H   0  0  0  0  0  0  0  0  0  0  0  0  # atno 6908 bound_to 6896
  152.2168  134.8450  160.0541 H   0  0  0  0  0  0  0  0  0  0  0  0  # atno 6909 bound_to 6896
  144.8375  139.6389  143.6031 H   0  0  0  0  0  0  0  0  0  0  0  0  # atno 7974 bound_to 7965
  155.3451  140.0474  157.3045 H   0  0  0  0  0  0  0  0  0  0  0  0  # atno 8008 bound_to 7997
  154.5256  140.2240  155.8860 H   0  0  0  0  0  0  0  0  0  0  0  0  # atno 8009 bound_to 7997
  156.1736  140.3090  155.9025 H   0  0  0  0  0  0  0  0  0  0  0  0  # atno 8010 bound_to 7997
  140.0153  143.5400  152.2245 H   0  0  0  0  0  0  0  0  0  0  0  0  # atno 10167 bound_to 10162
  156.8417  130.5523  149.5677 H   0  0  0  0  0  0  0  0  0  0  0  0  # atno 10718 bound_to 10713
  153.2217  135.4353  155.0496 H   0  0  0  0  0  0  0  0  0  0  0  0  # atno 10763 bound_to 10752
  154.8253  135.3358  154.6917 H   0  0  0  0  0  0  0  0  0  0  0  0  # atno 10764 bound_to 10752
  153.7349  135.7008  153.5036 H   0  0  0  0  0  0  0  0  0  0  0  0  # atno 10765 bound_to 10752
  140.8808  133.7655  156.0299 H   0  0  0  0  0  0  0  0  0  0  0  0  # atno 11005 bound_to 11000
  146.2672  139.6549  142.9321 LP  0  0  0  0  0  0  0  0  0  0  0  0  # atno 17320 bound_to 7965
  145.4763  141.0437  143.2670 LP  0  0  0  0  0  0  0  0  0  0  0  0  # atno 17321 bound_to 7965
  139.6177  144.7623  151.2809 LP  0  0  0  0  0  0  0  0  0  0  0  0  # atno 17342 bound_to 10162
  140.7365  143.6706  150.8085 LP  0  0  0  0  0  0  0  0  0  0  0  0  # atno 17343 bound_to 10162
  156.0877  130.5871  150.9677 LP  0  0  0  0  0  0  0  0  0  0  0  0  # atno 17370 bound_to 10713
  157.6352  131.0917  150.8363 LP  0  0  0  0  0  0  0  0  0  0  0  0  # atno 17371 bound_to 10713
  140.8464  134.3006  157.5293 LP  0  0  0  0  0  0  0  0  0  0  0  0  # atno 17394 bound_to 11000
  139.8719  134.9444  156.3880 LP  0  0  0  0  0  0  0  0  0  0  0  0  # atno 17395 bound_to 11000

$$$$
