AV-unprocessed.smi:12|AV-procd|sdf|61|dock3
  -GOLD-   2262015183D 1   1.00000     0.00000
 Structure written by MMmdl.
 41 44  0  0  0  0  0  0  0  0  1 V2000
  144.8311  144.4601  155.5370 C   0  0  0  0  0  0  0  0  0  0  0  0
  145.2719  143.0343  155.2593 C   0  0  0  0  0  0  0  0  0  0  0  0
  146.3538  142.7604  154.4928 C   0  0  0  0  0  0  0  0  0  0  0  0
  146.7148  141.4591  154.2818 N   0  0  0  0  0  0  0  0  0  0  0  0
  145.9457  140.4193  154.8476 C   0  0  0  0  0  0  0  0  0  0  0  0
  144.8977  140.5989  155.5896 N   0  0  0  0  0  0  0  0  0  0  0  0
  144.4898  141.9207  155.8527 C   0  0  0  0  0  0  0  0  0  0  0  0
  143.5059  142.1415  156.5575 O   0  0  0  0  0  0  0  0  0  0  0  0
  146.4848  139.2242  154.4813 O   0  0  0  0  0  0  0  0  0  0  0  0
  147.6513  139.4420  153.6745 C   0  0  2  0  0  0  0  0  0  0  0  0
  148.9042  139.0326  154.4446 C   0  0  1  0  0  0  0  0  0  0  0  0
  149.8636  138.4698  153.5693 O   0  0  0  0  0  0  0  0  0  0  0  0
  149.3851  140.3472  155.0747 C   0  0  1  0  0  0  0  0  0  0  0  0
  150.8793  140.4175  155.4170 C   0  0  0  0  0  0  0  0  0  0  0  0
  151.0596  141.3234  156.4925 O   0  0  0  0  0  0  0  0  0  0  0  0
  151.8310  140.9826  157.5423 C   0  0  0  0  0  0  0  0  0  0  0  0
  152.3866  139.8878  157.6540 O   0  0  0  0  0  0  0  0  0  0  0  0
  151.9385  142.0691  158.5584 C   0  0  0  0  0  0  0  0  0  0  0  0
  151.4848  143.3691  158.2346 C   0  0  0  0  0  0  0  0  0  0  0  0
  151.5742  144.4146  159.1739 C   0  0  0  0  0  0  0  0  0  0  0  0
  152.1164  144.1725  160.4496 C   0  0  0  0  0  0  0  0  0  0  0  0
  152.5700  142.8834  160.7844 C   0  0  0  0  0  0  0  0  0  0  0  0
  152.4828  141.8367  159.8458 C   0  0  0  0  0  0  0  0  0  0  0  0
  149.0338  141.3206  154.0993 O   0  0  0  0  0  0  0  0  0  0  0  0
  147.8362  140.9612  153.4787 C   0  0  2  0  0  0  0  0  0  0  0  0
  145.4818  145.1798  155.0395 H   0  0  0  0  0  0  0  0  0  0  0  0
  144.8579  144.6651  156.6077 H   0  0  0  0  0  0  0  0  0  0  0  0
  143.8136  144.6226  155.1801 H   0  0  0  0  0  0  0  0  0  0  0  0
  146.9399  143.5537  154.0521 H   0  0  0  0  0  0  0  0  0  0  0  0
  147.5506  138.9368  152.7126 H   0  0  0  0  0  0  0  0  0  0  0  0
  148.6813  138.2863  155.2083 H   0  0  0  0  0  0  0  0  0  0  0  0
  149.4413  137.8053  153.0464 H   0  0  0  0  0  0  0  0  0  0  0  0
  148.7968  140.5333  155.9753 H   0  0  0  0  0  0  0  0  0  0  0  0
  151.2352  139.4311  155.7181 H   0  0  0  0  0  0  0  0  0  0  0  0
  151.4629  140.7319  154.5505 H   0  0  0  0  0  0  0  0  0  0  0  0
  151.0646  143.5789  157.2615 H   0  0  0  0  0  0  0  0  0  0  0  0
  151.2264  145.4035  158.9144 H   0  0  0  0  0  0  0  0  0  0  0  0
  152.1843  144.9743  161.1701 H   0  0  0  0  0  0  0  0  0  0  0  0
  152.9860  142.6957  161.7633 H   0  0  0  0  0  0  0  0  0  0  0  0
  152.8383  140.8589  160.1362 H   0  0  0  0  0  0  0  0  0  0  0  0
  147.6850  141.3497  152.4712 H   0  0  0  0  0  0  0  0  0  0  0  0
  1  2  1  0  0  0  0
  1 26  1  0  0  0  0
  1 27  1  0  0  0  0
  1 28  1  0  0  0  0
  2  7  1  0  0  0  0
  2  3  2  0  0  0  0
  3  4  1  0  0  0  0
  3 29  1  0  0  0  0
  4 25  1  0  0  0  0
  4  5  1  0  0  0  0
  5  6  2  0  0  0  0
  5  9  1  0  0  0  0
  6  7  1  0  0  0  0
  7  8  2  0  0  0  0
  9 10  1  0  0  0  0
 10 25  1  0  0  0  0
 10 11  1  0  0  0  0
 10 30  1  0  0  0  0
 11 12  1  0  0  0  0
 11 13  1  0  0  0  0
 11 31  1  0  0  0  0
 12 32  1  0  0  0  0
 13 14  1  0  0  0  0
 13 24  1  0  0  0  0
 13 33  1  0  0  0  0
 14 15  1  0  0  0  0
 14 34  1  0  0  0  0
 14 35  1  0  0  0  0
 15 16  1  0  0  0  0
 16 17  2  0  0  0  0
 16 18  1  0  0  0  0
 18 23  1  0  0  0  0
 18 19  2  0  0  0  0
 19 20  1  0  0  0  0
 19 36  1  0  0  0  0
 20 21  2  0  0  0  0
 20 37  1  0  0  0  0
 21 22  1  0  0  0  0
 21 38  1  0  0  0  0
 22 23  2  0  0  0  0
 22 39  1  0  0  0  0
 23 40  1  0  0  0  0
 24 25  1  0  0  0  0
 25 41  1  0  0  0  0
M  END
> <s_m_source_file>
AV-unprocessed.smi

> <i_m_source_file_index>
12

> <i_lp_mmshare_version>
43012

> <i_f3d_flags>
0

> <s_epik_input>
W0NIM11jKFtjSF0xKWMoPU8pbmMobjEyKU9bQ0BIXTNbQ0BASF0yT1tDQEBIXShbQ0BASF0zW09IXSlbQ0gyXU9DKD1PKWM0W2NIXVtjSF1bY0hdW2NIXVtjSF00

> <s_epik_cmdline>
J2VwaWtfcHl0aG9uJywgJy1waCcsICc3LjAnLCAnLXRuJywgJzgnLCAnLW1hJywgJzIwMCcsICctbWV0YWxfYmluZGluZycsICctaW1hZScsICc8aW5maWxlLm1hZT4nLCAnLW9tYWUnLCAnPG91dGZpbGUubWFlPic=

> <r_lp_tautomer_probability>
0.933681

> <r_epik_Ionization_Penalty>
0.00399549

> <r_epik_Ionization_Penalty_Charging>
3.09373e-09

> <r_epik_Ionization_Penalty_Neutral>
0.00399549

> <r_epik_State_Penalty>
0.00284953

> <r_epik_Charging_Adjusted_Penalty>
0.00284953

> <i_epik_Tot_Q>
0

> <i_epik_Tot_abs_Q>
0

> <r_epik_Metal_State_Penalty>
-0

> <b_epik_Metal_Only>
0

> <s_epik_Chemistry_Notes>
This compound has an ester and may undergo hydrolysis at high or low pH. This compound contains an acetal/aminal-like group ( X-CH(R)-Y where X, Y are N, S, or O) that may be acid/base labile, releasing an aldehyde.

> <s_lp_Force_Field>
OPLS_2005

> <r_lp_Energy>
39.7302

> <b_lp_Chiralities_Consistent>
1

> <s_lp_Variant>
AV-unprocessed.smi:12-1

> <Gold.Version>
5.8.1

> <Gold.Id.Protein>
6NUR|6NUR_protein|mol2

> <Gold.PLP.Fitness>
51.8172

> <Gold.PLP.PLP>
-45.3317

> <Gold.PLP.part.hbond>
-4.1830

> <Gold.PLP.part.metal>
0.0000

> <Gold.PLP.part.buried>
-3.6721

> <Gold.PLP.part.nonpolar>
-36.4199

> <Gold.PLP.part.repulsive>
0.4834

> <Gold.PLP.ligand.clash>
0.0000

> <Gold.PLP.ligand.torsion>
0.7491

> <Gold.PLP.Chemscore.Hbond>
2.6219

> <Gold.PLP.Chemscore.CHOScore>
0.0268

> <Gold.PLP.Chemscore.Metal>
0.0000

> <Gold.Chemscore.Hbonds>
donor molecule, donor type, donor heavy atom, donor atom, acceptor molecule, acceptor atom, score
      L1  H    12    32       P1  7948  1.00
      P1  H  7997  8008       L1    17  0.49
      P1  H  8011  8017       L1    24  0.28
      L1  C     3    29       P1  8028  0.26

> <Gold.PLP.Chemscore.Internal.Correction>
0.0376

> <Gold.Rescore>
     Score         DG    S(hbond)    S(metal)    S(lipo)     H(rot)  DE(clash)    DE(int)     intcor
     17.88     -20.58       2.49        0.00     105.51       2.18       1.91       0.79       ----

> <Gold.Chemscore.Fitness>
17.8765

> <Gold.Chemscore.DG>
-20.5755

> <Gold.Chemscore.ZeroCoef>
-5.4800

> <Gold.Chemscore.Hbond>
2.4946

> <Gold.Chemscore.Metal>
0.0000

> <Gold.Chemscore.Lipo>
105.5055

> <Gold.Chemscore.Internal_Hbond>
0.0000

> <Gold.Chemscore.DEClash>
1.9114

> <Gold.Chemscore.DEInternal>
0.7876

> <Gold.Chemscore.Rot>
2.1800

> <Gold.Chemscore.Internal.Correction>
   9.000000E+99

> <Gold.Chemscore.Hbonds>
donor molecule, donor type, donor heavy atom, donor atom, acceptor molecule, acceptor atom, score
      L1  H    12    32       P1  7948  0.88
      P1  H  7997  8008       L1    17  0.27
      P1  H  8011  8017       L1    24  0.03

> <Gold.Chemscore.Hbond.Weighted>
-8.3321

> <Gold.Chemscore.Metal.Weighted>
-0.0000

> <Gold.Chemscore.Lipo.Weighted>
-12.3441

> <Gold.Chemscore.Internal_Hbond.Weighted>
0.0000

> <Gold.Chemscore.DEClash.Weighted>
1.9114

> <Gold.Chemscore.DEInternal.Weighted>
0.7876

> <Gold.Chemscore.Rot.Weighted>
5.5807

> <Gold.Chemscore.Internal.Correction.Weighted>
   9.000000E+99

> <Gold.Protein.RotatedTorsions>
[ 6907 6896 6895 6894 ] final  -18.44 input  -60.11 | X-H torsion
[ 7974 7965 7964 7962 ] final  172.56 input  175.53 | X-H torsion
[ 8008 7997 7996 7995 ] final  -61.96 input   59.86 | X-H torsion
[ 10167 10162 10161 10158 ] final   67.99 input  -65.29 | X-H torsion
[ 10718 10713 10712 10709 ] final  164.52 input   66.30 | X-H torsion
[ 10763 10752 10751 10750 ] final  -86.17 input  -60.55 | X-H torsion
[ 11005 11000 10999 10996 ] final   98.05 input  -57.11 | X-H torsion

> <Gold.Protein.ActiveResidues>
 VAL166  LYS551  ARG553  GLY616  TRP617  ASP618  TYR619  PRO620  LYS621  CYS622 
 ASP623  PHE694  ASN695  SER759  ASP760  ASP761  ALA762  ILE779  LEU786  VAL792 
 PHE793  MET794  SER795  GLU796  ALA797  LYS798  CYS799  TRP800  GLU811  SER814 

> <Gold.Protein.RotatedAtoms>
  151.2781  135.0705  159.9158 H   0  0  0  0  0  0  0  0  0  0  0  0  # atno 6907 bound_to 6896
  152.5339  134.0060  159.7927 H   0  0  0  0  0  0  0  0  0  0  0  0  # atno 6908 bound_to 6896
  151.0309  133.5741  159.2691 H   0  0  0  0  0  0  0  0  0  0  0  0  # atno 6909 bound_to 6896
  144.7265  139.9517  143.6432 H   0  0  0  0  0  0  0  0  0  0  0  0  # atno 7974 bound_to 7965
  154.4475  140.1006  156.6512 H   0  0  0  0  0  0  0  0  0  0  0  0  # atno 8008 bound_to 7997
  155.5395  140.3483  155.4425 H   0  0  0  0  0  0  0  0  0  0  0  0  # atno 8009 bound_to 7997
  156.0607  140.1326  156.9933 H   0  0  0  0  0  0  0  0  0  0  0  0  # atno 8010 bound_to 7997
  140.0835  144.5050  150.7146 H   0  0  0  0  0  0  0  0  0  0  0  0  # atno 10167 bound_to 10162
  157.0931  131.0423  151.2529 H   0  0  0  0  0  0  0  0  0  0  0  0  # atno 10718 bound_to 10713
  154.6195  135.5458  153.7559 H   0  0  0  0  0  0  0  0  0  0  0  0  # atno 10763 bound_to 10752
  153.0231  135.6409  154.1462 H   0  0  0  0  0  0  0  0  0  0  0  0  # atno 10764 bound_to 10752
  154.1397  135.2909  155.3144 H   0  0  0  0  0  0  0  0  0  0  0  0  # atno 10765 bound_to 10752
  139.8773  134.9030  156.4398 H   0  0  0  0  0  0  0  0  0  0  0  0  # atno 11005 bound_to 11000
  146.0706  139.3695  143.0525 LP  0  0  0  0  0  0  0  0  0  0  0  0  # atno 17320 bound_to 7965
  145.7973  140.9787  143.1017 LP  0  0  0  0  0  0  0  0  0  0  0  0  # atno 17321 bound_to 7965
  140.7065  143.2472  151.4709 LP  0  0  0  0  0  0  0  0  0  0  0  0  # atno 17342 bound_to 10162
  139.5766  144.1806  152.1911 LP  0  0  0  0  0  0  0  0  0  0  0  0  # atno 17343 bound_to 10162
  157.4704  130.7705  149.7318 LP  0  0  0  0  0  0  0  0  0  0  0  0  # atno 17370 bound_to 10713
  155.9893  130.3953  150.3081 LP  0  0  0  0  0  0  0  0  0  0  0  0  # atno 17371 bound_to 10713
  140.9007  133.7781  155.9677 LP  0  0  0  0  0  0  0  0  0  0  0  0  # atno 17394 bound_to 11000
  140.8654  134.2791  157.5215 LP  0  0  0  0  0  0  0  0  0  0  0  0  # atno 17395 bound_to 11000

$$$$
