AV-unprocessed.smi:2708|AV-procd|sdf|10458|dock2
  -GOLD-   2272014493D 1   1.00000     0.00000
 Structure written by MMmdl.
 35 35  0  0  0  0  0  0  0  0  2 V2000
  148.2172  137.4300  157.2955 C   0  0  0  0  0  0  0  0  0  0  0  0
  148.5551  137.9454  158.7046 C   0  0  2  0  0  0  0  0  0  0  0  0
  149.9791  138.2453  158.8202 N   0  0  0  0  0  0  0  0  0  0  0  0
  150.6950  139.0106  157.9814 C   0  0  0  0  0  0  0  0  0  0  0  0
  150.2194  139.5639  156.9899 O   0  0  0  0  0  0  0  0  0  0  0  0
  152.1788  139.1773  158.3129 C   0  0  0  0  0  0  0  0  0  0  0  0
  152.3945  140.4289  159.1135 C   0  0  0  0  0  0  0  0  0  0  0  0
  153.0326  140.5325  160.3241 C   0  0  0  0  0  0  0  0  0  0  0  0
  153.0702  142.1750  160.8987 S   0  0  0  0  0  0  0  0  0  0  0  0
  152.1927  142.6814  159.4503 C   0  0  0  0  0  0  0  0  0  0  0  0
  151.7858  144.1012  159.1362 C   0  0  0  0  0  0  0  0  0  0  0  0
  152.2400  145.0391  160.2714 C   0  0  0  0  0  0  0  0  0  0  0  0
  150.2582  144.1769  158.9476 C   0  0  0  0  0  0  0  0  0  0  0  0
  152.4425  144.5974  157.8297 C   0  0  0  0  0  0  0  0  0  0  0  0
  151.9191  141.6546  158.6373 N   0  0  0  0  0  0  0  0  0  0  0  0
  148.1237  136.9961  159.8265 C   0  0  0  0  0  0  0  0  0  0  0  0
  148.4691  135.7975  159.7269 O   0  0  0  0  0  0  0  0  0  0  0  0
  147.4571  137.4822  160.7662 O   0  5  0  0  0  0  0  0  0  0  0  0
  148.0024  138.8751  158.8546 H   0  0  0  0  0  0  0  0  0  0  0  0
  147.1552  137.1984  157.2071 H   0  0  0  0  0  0  0  0  0  0  0  0
  148.7761  136.5242  157.0585 H   0  0  0  0  0  0  0  0  0  0  0  0
  148.4538  138.1748  156.5352 H   0  0  0  0  0  0  0  0  0  0  0  0
  150.4533  137.8369  159.6129 H   0  0  0  0  0  0  0  0  0  0  0  0
  152.5276  138.3009  158.8611 H   0  0  0  0  0  0  0  0  0  0  0  0
  152.7527  139.2085  157.3859 H   0  0  0  0  0  0  0  0  0  0  0  0
  153.4887  139.7452  160.9059 H   0  0  0  0  0  0  0  0  0  0  0  0
  151.9720  146.0755  160.0632 H   0  0  0  0  0  0  0  0  0  0  0  0
  153.3211  144.9990  160.4101 H   0  0  0  0  0  0  0  0  0  0  0  0
  151.7771  144.7700  161.2215 H   0  0  0  0  0  0  0  0  0  0  0  0
  149.7285  143.8771  159.8526 H   0  0  0  0  0  0  0  0  0  0  0  0
  149.9253  143.5229  158.1406 H   0  0  0  0  0  0  0  0  0  0  0  0
  149.9365  145.1905  158.7050 H   0  0  0  0  0  0  0  0  0  0  0  0
  152.1483  145.6231  157.6041 H   0  0  0  0  0  0  0  0  0  0  0  0
  152.1520  143.9851  156.9752 H   0  0  0  0  0  0  0  0  0  0  0  0
  153.5311  144.5834  157.8954 H   0  0  0  0  0  0  0  0  0  0  0  0
  1  2  1  0  0  0  0
  1 20  1  0  0  0  0
  1 21  1  0  0  0  0
  1 22  1  0  0  0  0
  2 19  1  0  0  0  0
  2  3  1  0  0  0  0
  2 16  1  0  0  0  0
  3  4  1  0  0  0  0
  3 23  1  0  0  0  0
  4  5  2  0  0  0  0
  4  6  1  0  0  0  0
  6  7  1  0  0  0  0
  6 24  1  0  0  0  0
  6 25  1  0  0  0  0
  7 15  1  0  0  0  0
  7  8  2  0  0  0  0
  8  9  1  0  0  0  0
  8 26  1  0  0  0  0
  9 10  1  0  0  0  0
 10 11  1  0  0  0  0
 10 15  2  0  0  0  0
 11 12  1  0  0  0  0
 11 13  1  0  0  0  0
 11 14  1  0  0  0  0
 12 27  1  0  0  0  0
 12 28  1  0  0  0  0
 12 29  1  0  0  0  0
 13 30  1  0  0  0  0
 13 31  1  0  0  0  0
 13 32  1  0  0  0  0
 14 33  1  0  0  0  0
 14 34  1  0  0  0  0
 14 35  1  0  0  0  0
 16 17  2  0  0  0  0
 16 18  1  0  0  0  0
M  CHG  1  18  -1
M  END
> <s_m_source_file>
AV-unprocessed.smi

> <i_m_source_file_index>
2708

> <i_lp_mmshare_version>
43012

> <i_f3d_flags>
0

> <s_epik_input>
Tz1DKFtPSF0pW0NASF0oW0NIM10pW05IXUMoPU8pW0NIMl1jMVtjSF1zYyhuMSlDKFtDSDNdKShbQ0gzXSlbQ0gzXQ==

> <s_epik_cmdline>
J2VwaWtfcHl0aG9uJywgJy1waCcsICc3LjAnLCAnLXRuJywgJzgnLCAnLW1hJywgJzIwMCcsICctbWV0YWxfYmluZGluZycsICctaW1hZScsICc8aW5maWxlLm1hZT4nLCAnLW9tYWUnLCAnPG91dGZpbGUubWFlPic=

> <r_lp_tautomer_probability>
1

> <r_epik_Ionization_Penalty>
0.000214174

> <r_epik_Ionization_Penalty_Charging>
0.000167453

> <r_epik_Ionization_Penalty_Neutral>
4.67216e-05

> <r_epik_State_Penalty>
-0

> <r_epik_Charging_Adjusted_Penalty>
0.000167453

> <i_epik_Tot_Q>
-1

> <i_epik_Tot_abs_Q>
1

> <r_epik_Metal_State_Penalty>
-0

> <b_epik_Metal_Only>
0

> <s_lp_Force_Field>
OPLS_2005

> <r_lp_Energy>
-5.26793

> <b_lp_Chiralities_Consistent>
1

> <s_lp_Variant>
AV-unprocessed.smi:2708-1

> <Gold.Version>
5.8.1

> <Gold.Id.Protein>
6NUR|6NUR_protein|mol2

> <Gold.PLP.Fitness>
50.3564

> <Gold.PLP.PLP>
-35.4111

> <Gold.PLP.part.hbond>
-3.0000

> <Gold.PLP.part.metal>
0.0000

> <Gold.PLP.part.buried>
-5.8535

> <Gold.PLP.part.nonpolar>
-27.2987

> <Gold.PLP.part.repulsive>
0.1776

> <Gold.PLP.ligand.clash>
0.0000

> <Gold.PLP.ligand.torsion>
0.7051

> <Gold.PLP.Chemscore.Hbond>
5.4240

> <Gold.PLP.Chemscore.CHOScore>
0.0000

> <Gold.PLP.Chemscore.Metal>
0.0000

> <Gold.Chemscore.Hbonds>
donor molecule, donor type, donor heavy atom, donor atom, acceptor molecule, acceptor atom, score
      P1  H  6931  6943       L1    18  1.07
      P1  H  6934  6947       L1    18  2.00

> <Gold.PLP.Chemscore.Internal.Correction>
0.0835

> <Gold.Rescore>
     Score         DG    S(hbond)    S(metal)    S(lipo)     H(rot)  DE(clash)    DE(int)     intcor
     14.59     -16.72       1.88        0.00      91.54       2.25       0.32       1.80       ----

> <Gold.Chemscore.Fitness>
14.5948

> <Gold.Chemscore.DG>
-16.7197

> <Gold.Chemscore.ZeroCoef>
-5.4800

> <Gold.Chemscore.Hbond>
1.8815

> <Gold.Chemscore.Metal>
0.0000

> <Gold.Chemscore.Lipo>
91.5374

> <Gold.Chemscore.Internal_Hbond>
0.0000

> <Gold.Chemscore.DEClash>
0.3216

> <Gold.Chemscore.DEInternal>
1.8032

> <Gold.Chemscore.Rot>
2.2478

> <Gold.Chemscore.Internal.Correction>
   9.000000E+99

> <Gold.Chemscore.Hbonds>
donor molecule, donor type, donor heavy atom, donor atom, acceptor molecule, acceptor atom, score
      P1  H  6896  6909       L1    17  0.01
      P1  H  6931  6943       L1    18  0.12
      P1  H  6934  6947       L1    18  0.92

> <Gold.Chemscore.Hbond.Weighted>
-6.2843

> <Gold.Chemscore.Metal.Weighted>
-0.0000

> <Gold.Chemscore.Lipo.Weighted>
-10.7099

> <Gold.Chemscore.Internal_Hbond.Weighted>
0.0000

> <Gold.Chemscore.DEClash.Weighted>
0.3216

> <Gold.Chemscore.DEInternal.Weighted>
1.8032

> <Gold.Chemscore.Rot.Weighted>
5.7544

> <Gold.Chemscore.Internal.Correction.Weighted>
   9.000000E+99

> <Gold.Protein.RotatedTorsions>
[ 6907 6896 6895 6894 ] final   51.47 input  -60.11 | X-H torsion
[ 7974 7965 7964 7962 ] final  108.82 input  175.53 | X-H torsion
[ 8008 7997 7996 7995 ] final   98.38 input   59.86 | X-H torsion
[ 10167 10162 10161 10158 ] final -114.20 input  -65.29 | X-H torsion
[ 10718 10713 10712 10709 ] final   -5.94 input   66.30 | X-H torsion
[ 10763 10752 10751 10750 ] final  172.11 input  -60.55 | X-H torsion
[ 11005 11000 10999 10996 ] final    0.11 input  -57.11 | X-H torsion

> <Gold.Protein.ActiveResidues>
 VAL166  LYS551  ARG553  GLY616  TRP617  ASP618  TYR619  PRO620  LYS621  CYS622 
 ASP623  PHE694  ASN695  SER759  ASP760  ASP761  ALA762  ILE779  LEU786  VAL792 
 PHE793  MET794  SER795  GLU796  ALA797  LYS798  CYS799  TRP800  GLU811  SER814 

> <Gold.Protein.RotatedAtoms>
  152.3130  134.7474  160.0331 H   0  0  0  0  0  0  0  0  0  0  0  0  # atno 6907 bound_to 6896
  151.7948  133.3358  159.3518 H   0  0  0  0  0  0  0  0  0  0  0  0  # atno 6908 bound_to 6896
  150.7330  134.5739  159.5948 H   0  0  0  0  0  0  0  0  0  0  0  0  # atno 6909 bound_to 6896
  145.2757  139.2650  143.3942 H   0  0  0  0  0  0  0  0  0  0  0  0  # atno 7974 bound_to 7965
  156.0998  140.3244  155.7927 H   0  0  0  0  0  0  0  0  0  0  0  0  # atno 8008 bound_to 7997
  155.4856  140.0557  157.2978 H   0  0  0  0  0  0  0  0  0  0  0  0  # atno 8009 bound_to 7997
  154.4689  140.2002  156.0060 H   0  0  0  0  0  0  0  0  0  0  0  0  # atno 8010 bound_to 7997
  140.1035  143.4591  152.1797 H   0  0  0  0  0  0  0  0  0  0  0  0  # atno 10167 bound_to 10162
  156.7392  130.5204  149.5828 H   0  0  0  0  0  0  0  0  0  0  0  0  # atno 10718 bound_to 10713
  154.4214  135.2758  155.1973 H   0  0  0  0  0  0  0  0  0  0  0  0  # atno 10763 bound_to 10752
  154.3917  135.6064  153.5850 H   0  0  0  0  0  0  0  0  0  0  0  0  # atno 10764 bound_to 10752
  152.9833  135.5905  154.4510 H   0  0  0  0  0  0  0  0  0  0  0  0  # atno 10765 bound_to 10752
  140.6302  133.9582  155.8270 H   0  0  0  0  0  0  0  0  0  0  0  0  # atno 11005 bound_to 11000
  146.3232  140.3211  142.8633 LP  0  0  0  0  0  0  0  0  0  0  0  0  # atno 17320 bound_to 7965
  144.9296  140.7960  143.5697 LP  0  0  0  0  0  0  0  0  0  0  0  0  # atno 17321 bound_to 7965
  139.5658  144.7434  151.4027 LP  0  0  0  0  0  0  0  0  0  0  0  0  # atno 17342 bound_to 10162
  140.6965  143.7737  150.7334 LP  0  0  0  0  0  0  0  0  0  0  0  0  # atno 17343 bound_to 10162
  156.1476  130.6287  151.0552 LP  0  0  0  0  0  0  0  0  0  0  0  0  # atno 17370 bound_to 10713
  157.6825  131.0834  150.7330 LP  0  0  0  0  0  0  0  0  0  0  0  0  # atno 17371 bound_to 10713
  141.0681  134.0247  157.3565 LP  0  0  0  0  0  0  0  0  0  0  0  0  # atno 17394 bound_to 11000
  139.9119  135.0191  156.7726 LP  0  0  0  0  0  0  0  0  0  0  0  0  # atno 17395 bound_to 11000

$$$$
