AV-unprocessed.smi:422|AV-procd|sdf|2536|dock4
  -GOLD-   2262022493D 1   1.00000     0.00000
 Structure written by MMmdl.
 43 45  0  0  0  0  0  0  0  0  1 V2000
  153.6793  140.3104  160.0298 C   0  0  0  0  0  0  0  0  0  0  0  0
  152.8943  141.1621  159.1444 N   0  0  0  0  0  0  0  0  0  0  0  0
  152.4150  140.8408  157.9198 C   0  0  0  0  0  0  0  0  0  0  0  0
  152.5568  139.7617  157.3449 O   0  0  0  0  0  0  0  0  0  0  0  0
  151.7343  141.9092  157.4435 N   0  0  0  0  0  0  0  0  0  0  0  0
  151.0324  141.9912  156.1657 C   0  0  0  0  0  0  0  0  0  0  0  0
  150.1172  140.7667  155.9464 C   0  0  2  0  0  0  0  0  0  0  0  0
  150.3533  140.2463  154.6543 O   0  0  0  0  0  0  0  0  0  0  0  0
  148.6277  141.1301  156.0360 C   0  0  0  0  0  0  0  0  0  0  0  0
  148.3729  142.1834  155.1221 O   0  0  0  0  0  0  0  0  0  0  0  0
  147.2685  141.9348  154.2712 C   0  0  0  0  0  0  0  0  0  0  0  0
  146.2305  143.0332  154.3917 C   0  0  0  0  0  0  0  0  0  0  0  0
  145.9213  143.8445  153.2793 C   0  0  0  0  0  0  0  0  0  0  0  0
  144.9526  144.8610  153.3918 C   0  0  0  0  0  0  0  0  0  0  0  0
  144.2911  145.0718  154.6169 C   0  0  0  0  0  0  0  0  0  0  0  0
  144.6001  144.2671  155.7304 C   0  0  0  0  0  0  0  0  0  0  0  0
  145.5691  143.2507  155.6202 C   0  0  0  0  0  0  0  0  0  0  0  0
  145.8610  142.4845  156.6987 F   0  0  0  0  0  0  0  0  0  0  0  0
  151.7538  142.9327  158.4023 C   0  0  0  0  0  0  0  0  0  0  0  0
  151.1774  144.2149  158.4022 C   0  0  0  0  0  0  0  0  0  0  0  0
  151.3820  145.0161  159.5496 C   0  0  0  0  0  0  0  0  0  0  0  0
  152.1388  144.5321  160.6485 C   0  0  0  0  0  0  0  0  0  0  0  0
  152.7057  143.2360  160.6237 C   0  0  0  0  0  0  0  0  0  0  0  0
  152.4864  142.4619  159.4713 C   0  0  0  0  0  0  0  0  0  0  0  0
  154.0423  139.4163  159.5208 H   0  0  0  0  0  0  0  0  0  0  0  0
  153.0742  139.9954  160.8802 H   0  0  0  0  0  0  0  0  0  0  0  0
  154.5459  140.8531  160.4084 H   0  0  0  0  0  0  0  0  0  0  0  0
  150.4438  142.9094  156.1703 H   0  0  0  0  0  0  0  0  0  0  0  0
  151.7400  142.1147  155.3437 H   0  0  0  0  0  0  0  0  0  0  0  0
  150.3303  139.9824  156.6746 H   0  0  0  0  0  0  0  0  0  0  0  0
  149.5692  140.3586  154.1383 H   0  0  0  0  0  0  0  0  0  0  0  0
  148.0071  140.2613  155.8101 H   0  0  0  0  0  0  0  0  0  0  0  0
  148.3768  141.4625  157.0447 H   0  0  0  0  0  0  0  0  0  0  0  0
  147.5996  141.8838  153.2328 H   0  0  0  0  0  0  0  0  0  0  0  0
  146.8223  140.9696  154.5154 H   0  0  0  0  0  0  0  0  0  0  0  0
  146.4227  143.6890  152.3353 H   0  0  0  0  0  0  0  0  0  0  0  0
  144.7169  145.4788  152.5377 H   0  0  0  0  0  0  0  0  0  0  0  0
  143.5483  145.8509  154.7030 H   0  0  0  0  0  0  0  0  0  0  0  0
  144.0939  144.4300  156.6704 H   0  0  0  0  0  0  0  0  0  0  0  0
  150.6000  144.5778  157.5659 H   0  0  0  0  0  0  0  0  0  0  0  0
  150.9556  146.0077  159.5895 H   0  0  0  0  0  0  0  0  0  0  0  0
  152.2821  145.1601  161.5152 H   0  0  0  0  0  0  0  0  0  0  0  0
  153.2797  142.8593  161.4573 H   0  0  0  0  0  0  0  0  0  0  0  0
  1  2  1  0  0  0  0
  1 25  1  0  0  0  0
  1 26  1  0  0  0  0
  1 27  1  0  0  0  0
  2 24  1  0  0  0  0
  2  3  1  0  0  0  0
  3  4  2  0  0  0  0
  3  5  1  0  0  0  0
  5  6  1  0  0  0  0
  5 19  1  0  0  0  0
  6  7  1  0  0  0  0
  6 28  1  0  0  0  0
  6 29  1  0  0  0  0
  7  8  1  0  0  0  0
  7  9  1  0  0  0  0
  7 30  1  0  0  0  0
  8 31  1  0  0  0  0
  9 10  1  0  0  0  0
  9 32  1  0  0  0  0
  9 33  1  0  0  0  0
 10 11  1  0  0  0  0
 11 12  1  0  0  0  0
 11 34  1  0  0  0  0
 11 35  1  0  0  0  0
 12 17  1  0  0  0  0
 12 13  2  0  0  0  0
 13 14  1  0  0  0  0
 13 36  1  0  0  0  0
 14 15  2  0  0  0  0
 14 37  1  0  0  0  0
 15 16  1  0  0  0  0
 15 38  1  0  0  0  0
 16 17  2  0  0  0  0
 16 39  1  0  0  0  0
 17 18  1  0  0  0  0
 19 24  2  0  0  0  0
 19 20  1  0  0  0  0
 20 21  2  0  0  0  0
 20 40  1  0  0  0  0
 21 22  1  0  0  0  0
 21 41  1  0  0  0  0
 22 23  2  0  0  0  0
 22 42  1  0  0  0  0
 23 24  1  0  0  0  0
 23 43  1  0  0  0  0
M  END
> <s_m_source_file>
AV-unprocessed.smi

> <i_m_source_file_index>
422

> <i_lp_mmshare_version>
43012

> <i_f3d_flags>
0

> <s_epik_input>
W2NIXTFbY0hdW2NIXVtjSF1jKGMxMiluKFtDSDNdKWMoPU8pbjJbQ0gyXVtDQEhdKFtPSF0pW0NIMl1PW0NIMl1jM1tjSF1bY0hdW2NIXVtjSF1jM0Y=

> <s_epik_cmdline>
J2VwaWtfcHl0aG9uJywgJy1waCcsICc3LjAnLCAnLXRuJywgJzgnLCAnLW1hJywgJzIwMCcsICctbWV0YWxfYmluZGluZycsICctaW1hZScsICc8aW5maWxlLm1hZT4nLCAnLW9tYWUnLCAnPG91dGZpbGUubWFlPic=

> <r_lp_tautomer_probability>
1

> <r_epik_Ionization_Penalty>
1.0795e-06

> <r_epik_Ionization_Penalty_Charging>
2.82452e-09

> <r_epik_Ionization_Penalty_Neutral>
1.07667e-06

> <r_epik_State_Penalty>
-0

> <r_epik_Charging_Adjusted_Penalty>
2.82452e-09

> <i_epik_Tot_Q>
0

> <i_epik_Tot_abs_Q>
0

> <r_epik_Metal_State_Penalty>
-0

> <b_epik_Metal_Only>
0

> <s_lp_Force_Field>
OPLS_2005

> <r_lp_Energy>
45.4687

> <b_lp_Chiralities_Consistent>
1

> <s_lp_Variant>
AV-unprocessed.smi:422-1

> <Gold.Version>
5.8.1

> <Gold.Id.Protein>
6NUR|6NUR_protein|mol2

> <Gold.PLP.Fitness>
55.5823

> <Gold.PLP.PLP>
-52.5830

> <Gold.PLP.part.hbond>
-2.0000

> <Gold.PLP.part.metal>
0.0000

> <Gold.PLP.part.buried>
-9.6656

> <Gold.PLP.part.nonpolar>
-43.1892

> <Gold.PLP.part.repulsive>
2.8117

> <Gold.PLP.ligand.clash>
0.0000

> <Gold.PLP.ligand.torsion>
1.5341

> <Gold.PLP.Chemscore.Hbond>
2.0000

> <Gold.PLP.Chemscore.CHOScore>
0.0000

> <Gold.PLP.Chemscore.Metal>
0.0000

> <Gold.Chemscore.Hbonds>
donor molecule, donor type, donor heavy atom, donor atom, acceptor molecule, acceptor atom, score
      P1  H  7989  7998       L1     8  1.00
      P1  H  7997  8010       L1     4  0.90

> <Gold.PLP.Chemscore.Internal.Correction>
0.0676

> <Gold.Rescore>
     Score         DG    S(hbond)    S(metal)    S(lipo)     H(rot)  DE(clash)    DE(int)     intcor
     13.74     -17.97       0.85        0.00     134.48       2.38       1.13       3.11       ----

> <Gold.Chemscore.Fitness>
13.7356

> <Gold.Chemscore.DG>
-17.9670

> <Gold.Chemscore.ZeroCoef>
-5.4800

> <Gold.Chemscore.Hbond>
0.8528

> <Gold.Chemscore.Metal>
0.0000

> <Gold.Chemscore.Lipo>
134.4772

> <Gold.Chemscore.Internal_Hbond>
0.0000

> <Gold.Chemscore.DEClash>
1.1257

> <Gold.Chemscore.DEInternal>
3.1058

> <Gold.Chemscore.Rot>
2.3809

> <Gold.Chemscore.Internal.Correction>
   9.000000E+99

> <Gold.Chemscore.Hbonds>
donor molecule, donor type, donor heavy atom, donor atom, acceptor molecule, acceptor atom, score
      P1  H  7989  7998       L1     8  0.29
      P1  H  7997  8010       L1     4  0.17

> <Gold.Chemscore.Hbond.Weighted>
-2.8483

> <Gold.Chemscore.Metal.Weighted>
-0.0000

> <Gold.Chemscore.Lipo.Weighted>
-15.7338

> <Gold.Chemscore.Internal_Hbond.Weighted>
0.0000

> <Gold.Chemscore.DEClash.Weighted>
1.1257

> <Gold.Chemscore.DEInternal.Weighted>
3.1058

> <Gold.Chemscore.Rot.Weighted>
6.0951

> <Gold.Chemscore.Internal.Correction.Weighted>
   9.000000E+99

> <Gold.Protein.RotatedTorsions>
[ 6907 6896 6895 6894 ] final -175.49 input  -60.11 | X-H torsion
[ 7974 7965 7964 7962 ] final  -49.39 input  175.53 | X-H torsion
[ 8008 7997 7996 7995 ] final   64.60 input   59.86 | X-H torsion
[ 10167 10162 10161 10158 ] final   -5.57 input  -65.29 | X-H torsion
[ 10718 10713 10712 10709 ] final   14.46 input   66.30 | X-H torsion
[ 10763 10752 10751 10750 ] final -121.43 input  -60.55 | X-H torsion
[ 11005 11000 10999 10996 ] final  144.00 input  -57.11 | X-H torsion

> <Gold.Protein.ActiveResidues>
 VAL166  LYS551  ARG553  GLY616  TRP617  ASP618  TYR619  PRO620  LYS621  CYS622 
 ASP623  PHE694  ASN695  SER759  ASP760  ASP761  ALA762  ILE779  LEU786  VAL792 
 PHE793  MET794  SER795  GLU796  ALA797  LYS798  CYS799  TRP800  GLU811  SER814 

> <Gold.Protein.RotatedAtoms>
  151.5894  133.3368  159.3024 H   0  0  0  0  0  0  0  0  0  0  0  0  # atno 6907 bound_to 6896
  150.8269  134.7507  159.6831 H   0  0  0  0  0  0  0  0  0  0  0  0  # atno 6908 bound_to 6896
  152.4357  134.5697  159.9969 H   0  0  0  0  0  0  0  0  0  0  0  0  # atno 6909 bound_to 6896
  145.9410  140.7662  142.9552 H   0  0  0  0  0  0  0  0  0  0  0  0  # atno 7974 bound_to 7965
  155.6486  140.3497  155.4740 H   0  0  0  0  0  0  0  0  0  0  0  0  # atno 8008 bound_to 7997
  155.9867  140.1185  157.0700 H   0  0  0  0  0  0  0  0  0  0  0  0  # atno 8009 bound_to 7997
  154.4207  140.1127  156.5495 H   0  0  0  0  0  0  0  0  0  0  0  0  # atno 8010 bound_to 7997
  140.6967  143.6293  150.8538 H   0  0  0  0  0  0  0  0  0  0  0  0  # atno 10167 bound_to 10162
  157.0394  130.6225  149.5748 H   0  0  0  0  0  0  0  0  0  0  0  0  # atno 10718 bound_to 10713
  154.8668  135.4168  154.2619 H   0  0  0  0  0  0  0  0  0  0  0  0  # atno 10763 bound_to 10752
  153.3546  135.7000  153.6767 H   0  0  0  0  0  0  0  0  0  0  0  0  # atno 10764 bound_to 10752
  153.5692  135.3594  155.2803 H   0  0  0  0  0  0  0  0  0  0  0  0  # atno 10765 bound_to 10752
  140.0598  134.9211  157.1163 H   0  0  0  0  0  0  0  0  0  0  0  0  # atno 11005 bound_to 11000
  144.6779  140.2281  143.7358 LP  0  0  0  0  0  0  0  0  0  0  0  0  # atno 17320 bound_to 7965
  145.8299  139.2081  143.1889 LP  0  0  0  0  0  0  0  0  0  0  0  0  # atno 17321 bound_to 7965
  140.0012  143.5742  152.2875 LP  0  0  0  0  0  0  0  0  0  0  0  0  # atno 17342 bound_to 10162
  139.6432  144.7656  151.2296 LP  0  0  0  0  0  0  0  0  0  0  0  0  # atno 17343 bound_to 10162
  156.0043  130.5127  150.7774 LP  0  0  0  0  0  0  0  0  0  0  0  0  # atno 17370 bound_to 10713
  157.5116  131.0926  151.0191 LP  0  0  0  0  0  0  0  0  0  0  0  0  # atno 17371 bound_to 10713
  140.3788  134.2309  155.7172 LP  0  0  0  0  0  0  0  0  0  0  0  0  # atno 17394 bound_to 11000
  141.1968  133.8074  157.0656 LP  0  0  0  0  0  0  0  0  0  0  0  0  # atno 17395 bound_to 11000

$$$$
