AV-unprocessed.smi:2597|AV-procd|sdf|10176|dock5
  -GOLD-   2272014193D 1   1.00000     0.00000
 Structure written by MMmdl.
 30 31  0  0  0  0  0  0  0  0  1 V2000
  153.2780  139.8173  158.5478 N   0  0  0  0  0  0  0  0  0  0  0  0
  152.4819  140.8700  159.1549 C   0  0  1  0  0  0  0  0  0  0  0  0
  153.2644  141.4406  160.3534 C   0  0  0  0  0  0  0  0  0  0  0  0
  152.5230  142.6213  160.9980 C   0  0  0  0  0  0  0  0  0  0  0  0
  152.2332  143.7207  159.9658 C   0  0  0  0  0  0  0  0  0  0  0  0
  151.4366  143.1638  158.7762 C   0  0  0  0  0  0  0  0  0  0  0  0
  152.1622  141.9734  158.1137 C   0  0  2  0  0  0  0  0  0  0  0  0
  151.3926  141.4662  156.9840 N   0  0  0  0  0  0  0  0  0  0  0  0
  150.1591  141.8913  156.5357 C   0  0  0  0  0  0  0  0  0  0  0  0
  149.9040  141.0718  155.4727 C   0  0  0  0  0  0  0  0  0  0  0  0
  148.7135  141.0383  154.5636 C   0  0  0  0  0  0  0  0  0  0  0  0
  149.1821  141.3415  153.2673 O   0  0  0  0  0  0  0  0  0  0  0  0
  150.9756  140.1934  155.3196 N   0  0  0  0  0  0  0  0  0  0  0  0
  151.8597  140.4356  156.2353 N   0  0  0  0  0  0  0  0  0  0  0  0
  151.5539  140.4273  159.5186 H   0  0  0  0  0  0  0  0  0  0  0  0
  153.1069  142.3470  157.7138 H   0  0  0  0  0  0  0  0  0  0  0  0
  153.6928  139.2491  159.2731 H   0  0  0  0  0  0  0  0  0  0  0  0
  152.6780  139.2046  158.0144 H   0  0  0  0  0  0  0  0  0  0  0  0
  153.4292  140.6617  161.0990 H   0  0  0  0  0  0  0  0  0  0  0  0
  154.2523  141.7730  160.0302 H   0  0  0  0  0  0  0  0  0  0  0  0
  151.5866  142.2718  161.4348 H   0  0  0  0  0  0  0  0  0  0  0  0
  153.1144  143.0283  161.8188 H   0  0  0  0  0  0  0  0  0  0  0  0
  151.6800  144.5345  160.4351 H   0  0  0  0  0  0  0  0  0  0  0  0
  153.1721  144.1480  159.6110 H   0  0  0  0  0  0  0  0  0  0  0  0
  150.4490  142.8555  159.1222 H   0  0  0  0  0  0  0  0  0  0  0  0
  151.2732  143.9547  158.0434 H   0  0  0  0  0  0  0  0  0  0  0  0
  149.5984  142.6948  156.9893 H   0  0  0  0  0  0  0  0  0  0  0  0
  148.2448  140.0541  154.5629 H   0  0  0  0  0  0  0  0  0  0  0  0
  147.9587  141.7678  154.8588 H   0  0  0  0  0  0  0  0  0  0  0  0
  149.3766  140.5311  152.8220 H   0  0  0  0  0  0  0  0  0  0  0  0
  1  2  1  0  0  0  0
  1 17  1  0  0  0  0
  1 18  1  0  0  0  0
  2 15  1  0  0  0  0
  2  7  1  0  0  0  0
  2  3  1  0  0  0  0
  3  4  1  0  0  0  0
  3 19  1  0  0  0  0
  3 20  1  0  0  0  0
  4  5  1  0  0  0  0
  4 21  1  0  0  0  0
  4 22  1  0  0  0  0
  5  6  1  0  0  0  0
  5 23  1  0  0  0  0
  5 24  1  0  0  0  0
  6  7  1  0  0  0  0
  6 25  1  0  0  0  0
  6 26  1  0  0  0  0
  7 16  1  0  0  0  0
  7  8  1  0  0  0  0
  8 14  1  0  0  0  0
  8  9  1  0  0  0  0
  9 10  2  0  0  0  0
  9 27  1  0  0  0  0
 10 11  1  0  0  0  0
 10 13  1  0  0  0  0
 11 12  1  0  0  0  0
 11 28  1  0  0  0  0
 11 29  1  0  0  0  0
 12 30  1  0  0  0  0
 13 14  2  0  0  0  0
M  END
> <s_m_source_file>
AV-unprocessed.smi

> <i_m_source_file_index>
2597

> <i_lp_mmshare_version>
43012

> <i_f3d_flags>
0

> <s_epik_input>
W05IMl1bQ0BIXTFbQ0gyXVtDSDJdW0NIMl1bQ0gyXVtDQEhdMW4yW2NIXWMobm4yKVtDSDJdW09IXQ==

> <s_epik_cmdline>
J2VwaWtfcHl0aG9uJywgJy1waCcsICc3LjAnLCAnLXRuJywgJzgnLCAnLW1hJywgJzIwMCcsICctbWV0YWxfYmluZGluZycsICctaW1hZScsICc8aW5maWxlLm1hZT4nLCAnLW9tYWUnLCAnPG91dGZpbGUubWFlPic=

> <r_lp_tautomer_probability>
1

> <r_epik_Ionization_Penalty>
2.21303

> <r_epik_Ionization_Penalty_Charging>
0

> <r_epik_Ionization_Penalty_Neutral>
2.21303

> <r_epik_State_Penalty>
2.3573

> <r_epik_Charging_Adjusted_Penalty>
2.3573

> <i_epik_Tot_Q>
0

> <i_epik_Tot_abs_Q>
0

> <r_epik_Metal_State_Penalty>
2.35724

> <b_epik_Metal_Only>
0

> <s_lp_Force_Field>
OPLS_2005

> <r_lp_Energy>
13.5857

> <b_lp_Chiralities_Consistent>
1

> <s_lp_Variant>
AV-unprocessed.smi:2597-7

> <Gold.Version>
5.8.1

> <Gold.Id.Protein>
6NUR|6NUR_protein|mol2

> <Gold.PLP.Fitness>
44.4907

> <Gold.PLP.PLP>
-30.8176

> <Gold.PLP.part.hbond>
-4.7519

> <Gold.PLP.part.metal>
0.0000

> <Gold.PLP.part.buried>
-2.4768

> <Gold.PLP.part.nonpolar>
-22.0462

> <Gold.PLP.part.repulsive>
0.0317

> <Gold.PLP.ligand.clash>
0.0000

> <Gold.PLP.ligand.torsion>
0.0193

> <Gold.PLP.Chemscore.Hbond>
3.7600

> <Gold.PLP.Chemscore.CHOScore>
0.8026

> <Gold.PLP.Chemscore.Metal>
0.0000

> <Gold.Chemscore.Hbonds>
donor molecule, donor type, donor heavy atom, donor atom, acceptor molecule, acceptor atom, score
      L1  H    12    30       P1  7957  0.70
      P1  H  7989  7998       L1    13  0.86
      P1  H  7997  8009       L1     1  0.96
      P1  H  8011  8017       L1    12  1.00
      L1  C     9    27       P1  8028  0.84

> <Gold.PLP.Chemscore.Internal.Correction>
0.0238

> <Gold.Rescore>
     Score         DG    S(hbond)    S(metal)    S(lipo)     H(rot)  DE(clash)    DE(int)     intcor
     14.14     -16.01       1.76        0.00      79.63       1.82       0.38       1.48       ----

> <Gold.Chemscore.Fitness>
14.1407

> <Gold.Chemscore.DG>
-16.0080

> <Gold.Chemscore.ZeroCoef>
-5.4800

> <Gold.Chemscore.Hbond>
1.7592

> <Gold.Chemscore.Metal>
0.0000

> <Gold.Chemscore.Lipo>
79.6345

> <Gold.Chemscore.Internal_Hbond>
0.0000

> <Gold.Chemscore.DEClash>
0.3848

> <Gold.Chemscore.DEInternal>
1.4824

> <Gold.Chemscore.Rot>
1.8222

> <Gold.Chemscore.Internal.Correction>
   9.000000E+99

> <Gold.Chemscore.Hbonds>
donor molecule, donor type, donor heavy atom, donor atom, acceptor molecule, acceptor atom, score
      L1  H    12    30       P1  7957  0.70
      P1  H  7989  7998       L1    13  0.12
      P1  H  7997  8009       L1     1  0.08
      P1  H  8011  8017       L1    12  0.36

> <Gold.Chemscore.Hbond.Weighted>
-5.8757

> <Gold.Chemscore.Metal.Weighted>
-0.0000

> <Gold.Chemscore.Lipo.Weighted>
-9.3172

> <Gold.Chemscore.Internal_Hbond.Weighted>
0.0000

> <Gold.Chemscore.DEClash.Weighted>
0.3848

> <Gold.Chemscore.DEInternal.Weighted>
1.4824

> <Gold.Chemscore.Rot.Weighted>
4.6649

> <Gold.Chemscore.Internal.Correction.Weighted>
   9.000000E+99

> <Gold.Protein.RotatedTorsions>
[ 6907 6896 6895 6894 ] final   29.61 input  -60.11 | X-H torsion
[ 7974 7965 7964 7962 ] final  -73.06 input  175.53 | X-H torsion
[ 8008 7997 7996 7995 ] final  136.04 input   59.86 | X-H torsion
[ 10167 10162 10161 10158 ] final  116.60 input  -65.29 | X-H torsion
[ 10718 10713 10712 10709 ] final   77.68 input   66.30 | X-H torsion
[ 10763 10752 10751 10750 ] final  -52.91 input  -60.55 | X-H torsion
[ 11005 11000 10999 10996 ] final   70.66 input  -57.11 | X-H torsion

> <Gold.Protein.ActiveResidues>
 VAL166  LYS551  ARG553  GLY616  TRP617  ASP618  TYR619  PRO620  LYS621  CYS622 
 ASP623  PHE694  ASN695  SER759  ASP760  ASP761  ALA762  ILE779  LEU786  VAL792 
 PHE793  MET794  SER795  GLU796  ALA797  LYS798  CYS799  TRP800  GLU811  SER814 

> <Gold.Protein.RotatedAtoms>
  152.0340  134.9751  160.0572 H   0  0  0  0  0  0  0  0  0  0  0  0  # atno 6907 bound_to 6896
  152.1216  133.4352  159.4687 H   0  0  0  0  0  0  0  0  0  0  0  0  # atno 6908 bound_to 6896
  150.6849  134.2446  159.4529 H   0  0  0  0  0  0  0  0  0  0  0  0  # atno 6909 bound_to 6896
  145.6570  140.9264  143.0954 H   0  0  0  0  0  0  0  0  0  0  0  0  # atno 7974 bound_to 7965
  156.3004  140.2455  156.3680 H   0  0  0  0  0  0  0  0  0  0  0  0  # atno 8008 bound_to 7997
  154.8815  140.0412  157.1804 H   0  0  0  0  0  0  0  0  0  0  0  0  # atno 8009 bound_to 7997
  154.8691  140.2932  155.5496 H   0  0  0  0  0  0  0  0  0  0  0  0  # atno 8010 bound_to 7997
  139.6236  144.7105  151.2581 H   0  0  0  0  0  0  0  0  0  0  0  0  # atno 10167 bound_to 10162
  157.6719  130.9833  150.1677 H   0  0  0  0  0  0  0  0  0  0  0  0  # atno 10718 bound_to 10713
  154.1503  135.6491  153.4962 H   0  0  0  0  0  0  0  0  0  0  0  0  # atno 10763 bound_to 10752
  153.0140  135.5336  154.6815 H   0  0  0  0  0  0  0  0  0  0  0  0  # atno 10764 bound_to 10752
  154.6101  135.2953  155.0413 H   0  0  0  0  0  0  0  0  0  0  0  0  # atno 10765 bound_to 10752
  139.9586  134.7101  156.0697 H   0  0  0  0  0  0  0  0  0  0  0  0  # atno 11005 bound_to 11000
  144.7102  139.8400  143.7417 LP  0  0  0  0  0  0  0  0  0  0  0  0  # atno 17320 bound_to 7965
  146.1156  139.4167  143.0260 LP  0  0  0  0  0  0  0  0  0  0  0  0  # atno 17321 bound_to 7965
  140.7397  143.6609  150.8165 LP  0  0  0  0  0  0  0  0  0  0  0  0  # atno 17342 bound_to 10162
  140.0224  143.5529  152.2795 LP  0  0  0  0  0  0  0  0  0  0  0  0  # atno 17343 bound_to 10162
  156.2438  130.3693  149.8307 LP  0  0  0  0  0  0  0  0  0  0  0  0  # atno 17370 bound_to 10713
  156.6100  130.8582  151.3452 LP  0  0  0  0  0  0  0  0  0  0  0  0  # atno 17371 bound_to 10713
  141.1260  133.6599  156.3338 LP  0  0  0  0  0  0  0  0  0  0  0  0  # atno 17394 bound_to 11000
  140.5553  134.5988  157.5419 LP  0  0  0  0  0  0  0  0  0  0  0  0  # atno 17395 bound_to 11000

$$$$
