AV-unprocessed.smi:1670|AV-procd|sdf|6695|dock9
  -GOLD-   22720 7433D 1   1.00000     0.00000
 Structure written by MMmdl.
 41 42  0  0  0  0  0  0  0  0  1 V2000
  152.2916  138.8959  155.0950 C   0  0  0  0  0  0  0  0  0  0  0  0
  150.8871  139.3477  155.5178 C   0  0  2  0  0  0  0  0  0  0  0  0
  149.9123  139.3522  154.3201 C   0  0  0  0  0  0  0  0  0  0  0  0
  148.7775  140.2365  154.5256 N   0  0  0  0  0  0  0  0  0  0  0  0
  148.3561  141.2859  153.7365 C   0  0  0  0  0  0  0  0  0  0  0  0
  147.2342  141.8051  154.3165 C   0  0  0  0  0  0  0  0  0  0  0  0
  147.0468  140.9976  155.4730 C   0  0  0  0  0  0  0  0  0  0  0  0
  147.9747  140.0630  155.5986 N   0  0  0  0  0  0  0  0  0  0  0  0
  150.9749  140.6773  156.1209 N   0  0  0  0  0  0  0  0  0  0  0  0
  151.7683  141.0139  157.1485 C   0  0  0  0  0  0  0  0  0  0  0  0
  152.5803  140.2523  157.6747 O   0  0  0  0  0  0  0  0  0  0  0  0
  151.5457  142.2708  157.5562 N   0  0  0  0  0  0  0  0  0  0  0  0
  152.1895  142.9066  158.7014 C   0  0  2  0  0  0  0  0  0  0  0  0
  152.1292  141.9869  159.9392 C   0  0  0  0  0  0  0  0  0  0  0  0
  152.7428  142.6646  161.1768 C   0  0  0  0  0  0  0  0  0  0  0  0
  152.1047  144.0356  161.4695 C   0  0  2  0  0  0  0  0  0  0  0  0
  150.7783  143.8658  161.9294 O   0  0  0  0  0  0  0  0  0  0  0  0
  152.1196  144.9443  160.2256 C   0  0  0  0  0  0  0  0  0  0  0  0
  151.5076  144.2557  158.9930 C   0  0  0  0  0  0  0  0  0  0  0  0
  152.2681  137.8940  154.6653 H   0  0  0  0  0  0  0  0  0  0  0  0
  152.9701  138.8707  155.9485 H   0  0  0  0  0  0  0  0  0  0  0  0
  152.7182  139.5675  154.3491 H   0  0  0  0  0  0  0  0  0  0  0  0
  150.5267  138.6292  156.2563 H   0  0  0  0  0  0  0  0  0  0  0  0
  150.4311  139.6403  153.4039 H   0  0  0  0  0  0  0  0  0  0  0  0
  149.5231  138.3472  154.1522 H   0  0  0  0  0  0  0  0  0  0  0  0
  148.8790  141.5662  152.8340 H   0  0  0  0  0  0  0  0  0  0  0  0
  146.6362  142.6331  153.9661 H   0  0  0  0  0  0  0  0  0  0  0  0
  146.2695  141.0627  156.2200 H   0  0  0  0  0  0  0  0  0  0  0  0
  150.3430  141.3786  155.7632 H   0  0  0  0  0  0  0  0  0  0  0  0
  150.8544  142.8161  157.0628 H   0  0  0  0  0  0  0  0  0  0  0  0
  153.2352  143.1000  158.4544 H   0  0  0  0  0  0  0  0  0  0  0  0
  151.0937  141.7141  160.1474 H   0  0  0  0  0  0  0  0  0  0  0  0
  152.6557  141.0520  159.7426 H   0  0  0  0  0  0  0  0  0  0  0  0
  152.6538  142.0109  162.0453 H   0  0  0  0  0  0  0  0  0  0  0  0
  153.8119  142.8002  161.0086 H   0  0  0  0  0  0  0  0  0  0  0  0
  152.6589  144.5228  162.2723 H   0  0  0  0  0  0  0  0  0  0  0  0
  150.1890  144.2316  161.2876 H   0  0  0  0  0  0  0  0  0  0  0  0
  151.5952  145.8779  160.4324 H   0  0  0  0  0  0  0  0  0  0  0  0
  153.1507  145.2192  159.9999 H   0  0  0  0  0  0  0  0  0  0  0  0
  151.5954  144.9134  158.1274 H   0  0  0  0  0  0  0  0  0  0  0  0
  150.4396  144.1032  159.1552 H   0  0  0  0  0  0  0  0  0  0  0  0
  1  2  1  0  0  0  0
  1 20  1  0  0  0  0
  1 21  1  0  0  0  0
  1 22  1  0  0  0  0
  2  3  1  0  0  0  0
  2  9  1  0  0  0  0
  2 23  1  0  0  0  0
  3  4  1  0  0  0  0
  3 24  1  0  0  0  0
  3 25  1  0  0  0  0
  4  8  1  0  0  0  0
  4  5  1  0  0  0  0
  5  6  2  0  0  0  0
  5 26  1  0  0  0  0
  6  7  1  0  0  0  0
  6 27  1  0  0  0  0
  7  8  2  0  0  0  0
  7 28  1  0  0  0  0
  9 10  1  0  0  0  0
  9 29  1  0  0  0  0
 10 11  2  0  0  0  0
 10 12  1  0  0  0  0
 12 13  1  0  0  0  0
 12 30  1  0  0  0  0
 13 19  1  0  0  0  0
 13 14  1  0  0  0  0
 13 31  1  0  0  0  0
 14 15  1  0  0  0  0
 14 32  1  0  0  0  0
 14 33  1  0  0  0  0
 15 16  1  0  0  0  0
 15 34  1  0  0  0  0
 15 35  1  0  0  0  0
 16 17  1  0  0  0  0
 16 18  1  0  0  0  0
 16 36  1  0  0  0  0
 17 37  1  0  0  0  0
 18 19  1  0  0  0  0
 18 38  1  0  0  0  0
 18 39  1  0  0  0  0
 19 40  1  0  0  0  0
 19 41  1  0  0  0  0
M  END
> <s_m_source_file>
AV-unprocessed.smi

> <i_m_source_file_index>
1670

> <i_lp_mmshare_version>
43012

> <i_f3d_flags>
0

> <s_epik_input>
bjFbY0hdW2NIXVtjSF1uMVtDSDJdW0NAQEhdKFtDSDNdKVtOSF1DKD1PKVtOSF1bQ0BASF0yW0NIMl1bQ0gyXVtDQEBIXShbT0hdKVtDSDJdW0NIMl0y

> <s_epik_cmdline>
J2VwaWtfcHl0aG9uJywgJy1waCcsICc3LjAnLCAnLXRuJywgJzgnLCAnLW1hJywgJzIwMCcsICctbWV0YWxfYmluZGluZycsICctaW1hZScsICc8aW5maWxlLm1hZT4nLCAnLW9tYWUnLCAnPG91dGZpbGUubWFlPic=

> <r_lp_tautomer_probability>
1

> <r_epik_Ionization_Penalty>
7.33369e-05

> <r_epik_Ionization_Penalty_Charging>
0

> <r_epik_Ionization_Penalty_Neutral>
7.33369e-05

> <r_epik_State_Penalty>
-0

> <r_epik_Charging_Adjusted_Penalty>
0

> <i_epik_Tot_Q>
0

> <i_epik_Tot_abs_Q>
0

> <r_epik_Metal_State_Penalty>
-0

> <b_epik_Metal_Only>
0

> <s_lp_Force_Field>
OPLS_2005

> <r_lp_Energy>
7.35879

> <b_lp_Chiralities_Consistent>
1

> <s_lp_Variant>
AV-unprocessed.smi:1670-3

> <Gold.Version>
5.8.1

> <Gold.Id.Protein>
6NUR|6NUR_protein|mol2

> <Gold.PLP.Fitness>
49.8643

> <Gold.PLP.PLP>
-44.3926

> <Gold.PLP.part.hbond>
-3.9952

> <Gold.PLP.part.metal>
0.0000

> <Gold.PLP.part.buried>
-3.6215

> <Gold.PLP.part.nonpolar>
-36.3175

> <Gold.PLP.part.repulsive>
0.1874

> <Gold.PLP.ligand.clash>
0.0000

> <Gold.PLP.ligand.torsion>
0.3839

> <Gold.PLP.Chemscore.Hbond>
1.1973

> <Gold.PLP.Chemscore.CHOScore>
0.8771

> <Gold.PLP.Chemscore.Metal>
0.0000

> <Gold.Chemscore.Hbonds>
donor molecule, donor type, donor heavy atom, donor atom, acceptor molecule, acceptor atom, score
      P1  H  6933  6945       L1    17  0.16
      P1  H  7997  8008       L1    11  0.92
      L1  C     5    26       P1  7957  0.91

> <Gold.PLP.Chemscore.Internal.Correction>
0.0166

> <Gold.Rescore>
     Score         DG    S(hbond)    S(metal)    S(lipo)     H(rot)  DE(clash)    DE(int)     intcor
     12.59     -15.88       0.94        0.00     110.60       2.22       0.41       2.87       ----

> <Gold.Chemscore.Fitness>
12.5940

> <Gold.Chemscore.DG>
-15.8771

> <Gold.Chemscore.ZeroCoef>
-5.4800

> <Gold.Chemscore.Hbond>
0.9419

> <Gold.Chemscore.Metal>
0.0000

> <Gold.Chemscore.Lipo>
110.6006

> <Gold.Chemscore.Internal_Hbond>
0.0000

> <Gold.Chemscore.DEClash>
0.4144

> <Gold.Chemscore.DEInternal>
2.8687

> <Gold.Chemscore.Rot>
2.2224

> <Gold.Chemscore.Internal.Correction>
   9.000000E+99

> <Gold.Chemscore.Hbonds>
donor molecule, donor type, donor heavy atom, donor atom, acceptor molecule, acceptor atom, score
      P1  H  6933  6945       L1    17  0.07
      P1  H  7997  8008       L1    11  0.77

> <Gold.Chemscore.Hbond.Weighted>
-3.1461

> <Gold.Chemscore.Metal.Weighted>
-0.0000

> <Gold.Chemscore.Lipo.Weighted>
-12.9403

> <Gold.Chemscore.Internal_Hbond.Weighted>
0.0000

> <Gold.Chemscore.DEClash.Weighted>
0.4144

> <Gold.Chemscore.DEInternal.Weighted>
2.8687

> <Gold.Chemscore.Rot.Weighted>
5.6893

> <Gold.Chemscore.Internal.Correction.Weighted>
   9.000000E+99

> <Gold.Protein.RotatedTorsions>
[ 6907 6896 6895 6894 ] final  -10.42 input  -60.11 | X-H torsion
[ 7974 7965 7964 7962 ] final -174.80 input  175.53 | X-H torsion
[ 8008 7997 7996 7995 ] final  -65.86 input   59.86 | X-H torsion
[ 10167 10162 10161 10158 ] final  -76.07 input  -65.29 | X-H torsion
[ 10718 10713 10712 10709 ] final   35.13 input   66.30 | X-H torsion
[ 10763 10752 10751 10750 ] final   57.52 input  -60.55 | X-H torsion
[ 11005 11000 10999 10996 ] final  -37.72 input  -57.11 | X-H torsion

> <Gold.Protein.ActiveResidues>
 VAL166  LYS551  ARG553  GLY616  TRP617  ASP618  TYR619  PRO620  LYS621  CYS622 
 ASP623  PHE694  ASN695  SER759  ASP760  ASP761  ALA762  ILE779  LEU786  VAL792 
 PHE793  MET794  SER795  GLU796  ALA797  LYS798  CYS799  TRP800  GLU811  SER814 

> <Gold.Protein.RotatedAtoms>
  151.4023  135.0973  159.9559 H   0  0  0  0  0  0  0  0  0  0  0  0  # atno 6907 bound_to 6896
  152.5046  133.8877  159.7388 H   0  0  0  0  0  0  0  0  0  0  0  0  # atno 6908 bound_to 6896
  150.9353  133.6662  159.2830 H   0  0  0  0  0  0  0  0  0  0  0  0  # atno 6909 bound_to 6896
  144.7130  140.1417  143.6391 H   0  0  0  0  0  0  0  0  0  0  0  0  # atno 7974 bound_to 7965
  154.4698  140.0924  156.7115 H   0  0  0  0  0  0  0  0  0  0  0  0  # atno 8008 bound_to 7997
  155.4756  140.3466  155.4314 H   0  0  0  0  0  0  0  0  0  0  0  0  # atno 8009 bound_to 7997
  156.1019  140.1424  156.9444 H   0  0  0  0  0  0  0  0  0  0  0  0  # atno 8010 bound_to 7997
  140.4888  143.2385  151.7940 H   0  0  0  0  0  0  0  0  0  0  0  0  # atno 10167 bound_to 10162
  157.3189  130.7438  149.6772 H   0  0  0  0  0  0  0  0  0  0  0  0  # atno 10718 bound_to 10713
  152.9852  135.5638  154.5405 H   0  0  0  0  0  0  0  0  0  0  0  0  # atno 10763 bound_to 10752
  154.4860  135.2790  155.1536 H   0  0  0  0  0  0  0  0  0  0  0  0  # atno 10764 bound_to 10752
  154.3025  135.6304  153.5484 H   0  0  0  0  0  0  0  0  0  0  0  0  # atno 10765 bound_to 10752
  140.9973  133.6973  156.1958 H   0  0  0  0  0  0  0  0  0  0  0  0  # atno 11005 bound_to 11000
  145.9196  139.2537  143.1389 LP  0  0  0  0  0  0  0  0  0  0  0  0  # atno 17320 bound_to 7965
  145.9633  140.8818  143.0199 LP  0  0  0  0  0  0  0  0  0  0  0  0  # atno 17321 bound_to 7965
  139.4847  144.4676  151.9465 LP  0  0  0  0  0  0  0  0  0  0  0  0  # atno 17342 bound_to 10162
  140.3763  144.2793  150.5914 LP  0  0  0  0  0  0  0  0  0  0  0  0  # atno 17343 bound_to 10162
  155.9684  130.4229  150.4537 LP  0  0  0  0  0  0  0  0  0  0  0  0  # atno 17370 bound_to 10713
  157.2549  131.0554  151.2356 LP  0  0  0  0  0  0  0  0  0  0  0  0  # atno 17371 bound_to 10713
  140.6945  134.4630  157.5588 LP  0  0  0  0  0  0  0  0  0  0  0  0  # atno 17394 bound_to 11000
  139.9021  134.8532  156.1853 LP  0  0  0  0  0  0  0  0  0  0  0  0  # atno 17395 bound_to 11000

$$$$
