AV-unprocessed.smi:478|AV-procd|sdf|2671|dock1
  -GOLD-   2262023 83D 1   1.00000     0.00000
 Structure written by MMmdl.
 41 42  0  0  0  0  0  0  0  0  1 V2000
  152.5582  136.3236  157.3236 C   0  0  0  0  0  0  0  0  0  0  0  0
  152.1236  137.0545  156.1287 N   0  0  0  0  0  0  0  0  0  0  0  0
  150.7697  136.6882  155.6979 C   0  0  0  0  0  0  0  0  0  0  0  0
  152.5446  138.7329  156.0558 S   0  0  0  0  0  0  0  0  0  0  0  0
  153.0630  139.1143  157.3789 O   0  0  0  0  0  0  0  0  0  0  0  0
  153.3801  138.9294  154.8605 O   0  0  0  0  0  0  0  0  0  0  0  0
  150.9954  139.6364  155.7871 C   0  0  0  0  0  0  0  0  0  0  0  0
  150.6025  140.7051  156.6772 C   0  0  0  0  0  0  0  0  0  0  0  0
  149.5273  141.4656  156.3903 C   0  0  0  0  0  0  0  0  0  0  0  0
  148.7278  141.2439  155.1795 C   0  0  0  0  0  0  0  0  0  0  0  0
  147.7358  141.9244  154.9175 O   0  0  0  0  0  0  0  0  0  0  0  0
  149.1574  140.2377  154.3567 N   0  0  0  0  0  0  0  0  0  0  0  0
  148.4488  139.9362  153.1024 C   0  0  0  0  0  0  0  0  0  0  0  0
  147.1173  139.2118  153.3454 C   0  0  0  0  0  0  0  0  0  0  0  0
  146.2983  139.7059  154.1238 O   0  0  0  0  0  0  0  0  0  0  0  0
  146.9564  138.0572  152.6577 N   0  0  0  0  0  0  0  0  0  0  0  0
  145.9328  137.1703  152.6319 C   0  0  0  0  0  0  0  0  0  0  0  0
  144.8126  137.5000  153.0185 O   0  0  0  0  0  0  0  0  0  0  0  0
  146.2034  135.9355  152.1694 N   0  0  0  0  0  0  0  0  0  0  0  0
  145.2705  134.8612  152.0608 C   0  0  0  0  0  0  0  0  0  0  0  0
  145.7776  133.5524  151.4946 C   0  0  0  0  0  0  0  0  0  0  0  0
  144.8638  134.4179  150.6723 C   0  0  0  0  0  0  0  0  0  0  0  0
  150.2948  139.4612  154.6544 C   0  0  0  0  0  0  0  0  0  0  0  0
  152.3870  135.2530  157.2068 H   0  0  0  0  0  0  0  0  0  0  0  0
  152.0114  136.6734  158.1999 H   0  0  0  0  0  0  0  0  0  0  0  0
  153.6237  136.4752  157.4964 H   0  0  0  0  0  0  0  0  0  0  0  0
  150.6667  135.6048  155.6298 H   0  0  0  0  0  0  0  0  0  0  0  0
  150.5535  137.1061  154.7154 H   0  0  0  0  0  0  0  0  0  0  0  0
  150.0312  137.0660  156.4062 H   0  0  0  0  0  0  0  0  0  0  0  0
  151.1679  140.8950  157.5775 H   0  0  0  0  0  0  0  0  0  0  0  0
  149.2455  142.2590  157.0669 H   0  0  0  0  0  0  0  0  0  0  0  0
  148.2395  140.8521  152.5479 H   0  0  0  0  0  0  0  0  0  0  0  0
  149.0880  139.3455  152.4429 H   0  0  0  0  0  0  0  0  0  0  0  0
  147.7314  137.8133  152.0585 H   0  0  0  0  0  0  0  0  0  0  0  0
  147.1515  135.7429  151.8777 H   0  0  0  0  0  0  0  0  0  0  0  0
  144.5058  134.7818  152.8323 H   0  0  0  0  0  0  0  0  0  0  0  0
  146.8216  133.4980  151.1919 H   0  0  0  0  0  0  0  0  0  0  0  0
  145.3643  132.6341  151.9068 H   0  0  0  0  0  0  0  0  0  0  0  0
  143.8392  134.0781  150.5351 H   0  0  0  0  0  0  0  0  0  0  0  0
  145.2981  134.9418  149.8228 H   0  0  0  0  0  0  0  0  0  0  0  0
  150.5640  138.7365  153.8997 H   0  0  0  0  0  0  0  0  0  0  0  0
  1  2  1  0  0  0  0
  1 24  1  0  0  0  0
  1 25  1  0  0  0  0
  1 26  1  0  0  0  0
  2  3  1  0  0  0  0
  2  4  1  0  0  0  0
  3 27  1  0  0  0  0
  3 28  1  0  0  0  0
  3 29  1  0  0  0  0
  4  5  2  0  0  0  0
  4  6  2  0  0  0  0
  4  7  1  0  0  0  0
  7 23  2  0  0  0  0
  7  8  1  0  0  0  0
  8  9  2  0  0  0  0
  8 30  1  0  0  0  0
  9 10  1  0  0  0  0
  9 31  1  0  0  0  0
 10 11  2  0  0  0  0
 10 12  1  0  0  0  0
 12 13  1  0  0  0  0
 12 23  1  0  0  0  0
 13 14  1  0  0  0  0
 13 32  1  0  0  0  0
 13 33  1  0  0  0  0
 14 15  2  0  0  0  0
 14 16  1  0  0  0  0
 16 17  1  0  0  0  0
 16 34  1  0  0  0  0
 17 18  2  0  0  0  0
 17 19  1  0  0  0  0
 19 20  1  0  0  0  0
 19 35  1  0  0  0  0
 20 22  1  0  0  0  0
 20 21  1  0  0  0  0
 20 36  1  0  0  0  0
 21 22  1  0  0  0  0
 21 37  1  0  0  0  0
 21 38  1  0  0  0  0
 22 39  1  0  0  0  0
 22 40  1  0  0  0  0
 23 41  1  0  0  0  0
M  END
> <s_m_source_file>
AV-unprocessed.smi

> <i_m_source_file_index>
478

> <i_lp_mmshare_version>
43012

> <i_f3d_flags>
0

> <s_epik_input>
W0NIM11OKFtDSDNdKVMoPU8pKD1PKWMxW2NIXVtjSF1jKD1PKW4oW2NIXTEpW0NIMl1DKD1PKVtOSF1DKD1PKVtOSF1bQ0hdMltDSDJdW0NIMl0y

> <s_epik_cmdline>
J2VwaWtfcHl0aG9uJywgJy1waCcsICc3LjAnLCAnLXRuJywgJzgnLCAnLW1hJywgJzIwMCcsICctbWV0YWxfYmluZGluZycsICctaW1hZScsICc8aW5maWxlLm1hZT4nLCAnLW9tYWUnLCAnPG91dGZpbGUubWFlPic=

> <r_lp_tautomer_probability>
1

> <r_epik_Ionization_Penalty>
3.37124e-05

> <r_epik_Ionization_Penalty_Charging>
7.23904e-09

> <r_epik_Ionization_Penalty_Neutral>
3.37051e-05

> <r_epik_State_Penalty>
-0

> <r_epik_Charging_Adjusted_Penalty>
7.23904e-09

> <i_epik_Tot_Q>
0

> <i_epik_Tot_abs_Q>
0

> <r_epik_Metal_State_Penalty>
-0

> <b_epik_Metal_Only>
0

> <s_lp_Force_Field>
OPLS_2005

> <r_lp_Energy>
28.3578

> <b_lp_Chiralities_Consistent>
1

> <s_lp_Variant>
AV-unprocessed.smi:478-1

> <Gold.Version>
5.8.1

> <Gold.Id.Protein>
6NUR|6NUR_protein|mol2

> <Gold.PLP.Fitness>
39.5707

> <Gold.PLP.PLP>
-31.7766

> <Gold.PLP.part.hbond>
-5.0000

> <Gold.PLP.part.metal>
0.0000

> <Gold.PLP.part.buried>
1.6269

> <Gold.PLP.part.nonpolar>
-29.3821

> <Gold.PLP.part.repulsive>
0.7105

> <Gold.PLP.ligand.clash>
0.0000

> <Gold.PLP.ligand.torsion>
1.6869

> <Gold.PLP.Chemscore.Hbond>
2.8222

> <Gold.PLP.Chemscore.CHOScore>
0.0000

> <Gold.PLP.Chemscore.Metal>
0.0000

> <Gold.Chemscore.Hbonds>
donor molecule, donor type, donor heavy atom, donor atom, acceptor molecule, acceptor atom, score
      L1  H    16    34       P1  7948  0.74
      L1  H    19    35       P1  7948  1.00
      P1  H  7997  8010       L1     5  0.80
      P1  H 10752 10763       L1     2  0.15

> <Gold.PLP.Chemscore.Internal.Correction>
2.7013

> <Gold.Rescore>
     Score         DG    S(hbond)    S(metal)    S(lipo)     H(rot)  DE(clash)    DE(int)     intcor
      9.91     -15.98       2.73        0.00      54.24       1.95       1.72       4.34       ----

> <Gold.Chemscore.Fitness>
9.9140

> <Gold.Chemscore.DG>
-15.9770

> <Gold.Chemscore.ZeroCoef>
-5.4800

> <Gold.Chemscore.Hbond>
2.7343

> <Gold.Chemscore.Metal>
0.0000

> <Gold.Chemscore.Lipo>
54.2396

> <Gold.Chemscore.Internal_Hbond>
0.0000

> <Gold.Chemscore.DEClash>
1.7224

> <Gold.Chemscore.DEInternal>
4.3406

> <Gold.Chemscore.Rot>
1.9459

> <Gold.Chemscore.Internal.Correction>
   9.000000E+99

> <Gold.Chemscore.Hbonds>
donor molecule, donor type, donor heavy atom, donor atom, acceptor molecule, acceptor atom, score
      L1  H    16    34       P1  7948  0.72
      L1  H    19    35       P1  7948  0.95
      P1  H  7997  8010       L1     5  0.12

> <Gold.Chemscore.Hbond.Weighted>
-9.1325

> <Gold.Chemscore.Metal.Weighted>
-0.0000

> <Gold.Chemscore.Lipo.Weighted>
-6.3460

> <Gold.Chemscore.Internal_Hbond.Weighted>
0.0000

> <Gold.Chemscore.DEClash.Weighted>
1.7224

> <Gold.Chemscore.DEInternal.Weighted>
4.3406

> <Gold.Chemscore.Rot.Weighted>
4.9815

> <Gold.Chemscore.Internal.Correction.Weighted>
   9.000000E+99

> <Gold.Protein.RotatedTorsions>
[ 6907 6896 6895 6894 ] final  -53.79 input  -60.11 | X-H torsion
[ 7974 7965 7964 7962 ] final   65.96 input  175.53 | X-H torsion
[ 8008 7997 7996 7995 ] final   50.96 input   59.86 | X-H torsion
[ 10167 10162 10161 10158 ] final  -26.51 input  -65.29 | X-H torsion
[ 10718 10713 10712 10709 ] final  -57.77 input   66.30 | X-H torsion
[ 10763 10752 10751 10750 ] final   63.71 input  -60.55 | X-H torsion
[ 11005 11000 10999 10996 ] final  -85.48 input  -57.11 | X-H torsion

> <Gold.Protein.ActiveResidues>
 VAL166  LYS551  ARG553  GLY616  TRP617  ASP618  TYR619  PRO620  LYS621  CYS622 
 ASP623  PHE694  ASN695  SER759  ASP760  ASP761  ALA762  ILE779  LEU786  VAL792 
 PHE793  MET794  SER795  GLU796  ALA797  LYS798  CYS799  TRP800  GLU811  SER814 

> <Gold.Protein.RotatedAtoms>
  150.8395  134.7681  159.6920 H   0  0  0  0  0  0  0  0  0  0  0  0  # atno 6907 bound_to 6896
  152.4485  134.5440  159.9857 H   0  0  0  0  0  0  0  0  0  0  0  0  # atno 6908 bound_to 6896
  151.5583  133.3369  159.3002 H   0  0  0  0  0  0  0  0  0  0  0  0  # atno 6909 bound_to 6896
  145.8322  139.3146  143.0980 H   0  0  0  0  0  0  0  0  0  0  0  0  # atno 7974 bound_to 7965
  155.4274  140.3449  155.4277 H   0  0  0  0  0  0  0  0  0  0  0  0  # atno 8008 bound_to 7997
  156.1357  140.1527  156.9029 H   0  0  0  0  0  0  0  0  0  0  0  0  # atno 8009 bound_to 7997
  154.4929  140.0836  156.7615 H   0  0  0  0  0  0  0  0  0  0  0  0  # atno 8010 bound_to 7997
  140.7282  143.4172  151.1009 H   0  0  0  0  0  0  0  0  0  0  0  0  # atno 10167 bound_to 10162
  156.1186  130.4168  150.0485 H   0  0  0  0  0  0  0  0  0  0  0  0  # atno 10718 bound_to 10713
  153.0028  135.5419  154.6395 H   0  0  0  0  0  0  0  0  0  0  0  0  # atno 10763 bound_to 10752
  154.5653  135.2837  155.0881 H   0  0  0  0  0  0  0  0  0  0  0  0  # atno 10764 bound_to 10752
  154.2068  135.6474  153.5156 H   0  0  0  0  0  0  0  0  0  0  0  0  # atno 10765 bound_to 10752
  141.1641  133.7401  156.9021 H   0  0  0  0  0  0  0  0  0  0  0  0  # atno 11005 bound_to 11000
  145.9558  140.8874  143.0236 LP  0  0  0  0  0  0  0  0  0  0  0  0  # atno 17320 bound_to 7965
  144.6739  140.1743  143.7411 LP  0  0  0  0  0  0  0  0  0  0  0  0  # atno 17321 bound_to 7965
  139.7813  143.8351  152.3138 LP  0  0  0  0  0  0  0  0  0  0  0  0  # atno 17342 bound_to 10162
  139.8303  144.7257  150.9459 LP  0  0  0  0  0  0  0  0  0  0  0  0  # atno 17343 bound_to 10162
  156.8430  130.9432  151.3630 LP  0  0  0  0  0  0  0  0  0  0  0  0  # atno 17370 bound_to 10713
  157.6369  130.8774  149.9376 LP  0  0  0  0  0  0  0  0  0  0  0  0  # atno 17371 bound_to 10713
  140.1576  134.9188  157.2673 LP  0  0  0  0  0  0  0  0  0  0  0  0  # atno 17394 bound_to 11000
  140.2649  134.3527  155.7393 LP  0  0  0  0  0  0  0  0  0  0  0  0  # atno 17395 bound_to 11000

$$$$
