AV-unprocessed.smi:2623|AV-procd|sdf|10232|dock5
  -GOLD-   2272014243D 1   1.00000     0.00000
 Structure written by MMmdl.
 41 43  0  0  0  0  0  0  0  0  2 V2000
  149.9422  140.2750  153.9290 O   0  0  0  0  0  0  0  0  0  0  0  0
  149.2751  141.1303  154.8333 C   0  0  0  0  0  0  0  0  0  0  0  0
  150.0969  141.4751  156.0349 C   0  0  0  0  0  0  0  0  0  0  0  0
  150.6064  142.7029  156.3406 N   0  3  0  0  0  0  0  0  0  0  0  0
  151.3232  142.6355  157.5358 C   0  0  0  0  0  0  0  0  0  0  0  0
  152.0140  143.6153  158.2422 C   0  0  0  0  0  0  0  0  0  0  0  0
  152.6438  143.2081  159.4369 C   0  0  0  0  0  0  0  0  0  0  0  0
  152.5728  141.8735  159.8867 C   0  0  0  0  0  0  0  0  0  0  0  0
  151.8692  140.8891  159.1619 C   0  0  0  0  0  0  0  0  0  0  0  0
  151.2491  141.3004  157.9826 C   0  0  0  0  0  0  0  0  0  0  0  0
  150.4816  140.6230  157.0288 N   0  0  0  0  0  0  0  0  0  0  0  0
  150.2181  139.1867  157.2102 C   0  0  0  0  0  0  0  0  0  0  0  0
  149.4129  138.8776  158.4887 C   0  0  1  0  0  0  0  0  0  0  0  0
  148.0584  139.2201  158.2700 O   0  0  0  0  0  0  0  0  0  0  0  0
  149.4904  137.3904  158.8688 C   0  0  0  0  0  0  0  0  0  0  0  0
  149.1501  137.2492  160.2418 O   0  0  0  0  0  0  0  0  0  0  0  0
  148.3016  136.2246  160.6030 C   0  0  0  0  0  0  0  0  0  0  0  0
  147.8433  136.2140  161.9370 C   0  0  0  0  0  0  0  0  0  0  0  0
  146.9739  135.2045  162.3934 C   0  0  0  0  0  0  0  0  0  0  0  0
  146.5521  134.1898  161.5148 C   0  0  0  0  0  0  0  0  0  0  0  0
  147.0020  134.1871  160.1813 C   0  0  0  0  0  0  0  0  0  0  0  0
  147.8712  135.1974  159.7249 C   0  0  0  0  0  0  0  0  0  0  0  0
  149.4713  140.2801  153.1091 H   0  0  0  0  0  0  0  0  0  0  0  0
  148.9981  142.0459  154.3103 H   0  0  0  0  0  0  0  0  0  0  0  0
  148.3519  140.6506  155.1597 H   0  0  0  0  0  0  0  0  0  0  0  0
  152.0700  144.6378  157.8990 H   0  0  0  0  0  0  0  0  0  0  0  0
  153.1924  143.9339  160.0197 H   0  0  0  0  0  0  0  0  0  0  0  0
  153.0682  141.5987  160.8068 H   0  0  0  0  0  0  0  0  0  0  0  0
  151.8201  139.8695  159.5152 H   0  0  0  0  0  0  0  0  0  0  0  0
  149.6811  138.8325  156.3293 H   0  0  0  0  0  0  0  0  0  0  0  0
  151.1745  138.6621  157.2153 H   0  0  0  0  0  0  0  0  0  0  0  0
  149.7980  139.4824  159.3104 H   0  0  0  0  0  0  0  0  0  0  0  0
  147.8865  140.0477  158.6924 H   0  0  0  0  0  0  0  0  0  0  0  0
  148.8418  136.7911  158.2272 H   0  0  0  0  0  0  0  0  0  0  0  0
  150.5140  137.0375  158.7317 H   0  0  0  0  0  0  0  0  0  0  0  0
  148.1615  136.9894  162.6184 H   0  0  0  0  0  0  0  0  0  0  0  0
  146.6309  135.2094  163.4176 H   0  0  0  0  0  0  0  0  0  0  0  0
  145.8850  133.4150  161.8631 H   0  0  0  0  0  0  0  0  0  0  0  0
  146.6798  133.4085  159.5057 H   0  0  0  0  0  0  0  0  0  0  0  0
  148.1936  135.1607  158.6956 H   0  0  0  0  0  0  0  0  0  0  0  0
  150.4686  143.5247  155.7665 H   0  0  0  0  0  0  0  0  0  0  0  0
  1  2  1  0  0  0  0
  1 23  1  0  0  0  0
  2  3  1  0  0  0  0
  2 24  1  0  0  0  0
  2 25  1  0  0  0  0
  3 11  1  0  0  0  0
  3  4  2  0  0  0  0
  4  5  1  0  0  0  0
  4 41  1  0  0  0  0
  5 10  2  0  0  0  0
  5  6  1  0  0  0  0
  6  7  2  0  0  0  0
  6 26  1  0  0  0  0
  7  8  1  0  0  0  0
  7 27  1  0  0  0  0
  8  9  2  0  0  0  0
  8 28  1  0  0  0  0
  9 10  1  0  0  0  0
  9 29  1  0  0  0  0
 10 11  1  0  0  0  0
 11 12  1  0  0  0  0
 12 13  1  0  0  0  0
 12 30  1  0  0  0  0
 12 31  1  0  0  0  0
 13 14  1  0  0  0  0
 13 15  1  0  0  0  0
 13 32  1  0  0  0  0
 14 33  1  0  0  0  0
 15 16  1  0  0  0  0
 15 34  1  0  0  0  0
 15 35  1  0  0  0  0
 16 17  1  0  0  0  0
 17 22  1  0  0  0  0
 17 18  2  0  0  0  0
 18 19  1  0  0  0  0
 18 36  1  0  0  0  0
 19 20  2  0  0  0  0
 19 37  1  0  0  0  0
 20 21  1  0  0  0  0
 20 38  1  0  0  0  0
 21 22  2  0  0  0  0
 21 39  1  0  0  0  0
 22 40  1  0  0  0  0
M  CHG  1   4   1
M  END
> <s_m_source_file>
AV-unprocessed.smi

> <i_m_source_file_index>
2623

> <i_lp_mmshare_version>
43012

> <i_f3d_flags>
0

> <s_epik_input>
W2NIXTFbY0hdW2NIXVtjSF1jKGMxMiluKGMobjIpW0NIMl1bT0hdKVtDSDJdW0NASF0oW09IXSlbQ0gyXU9jM1tjSF1bY0hdW2NIXVtjSF1bY0hdMw==

> <s_epik_cmdline>
J2VwaWtfcHl0aG9uJywgJy1waCcsICc3LjAnLCAnLXRuJywgJzgnLCAnLW1hJywgJzIwMCcsICctbWV0YWxfYmluZGluZycsICctaW1hZScsICc8aW5maWxlLm1hZT4nLCAnLW9tYWUnLCAnPG91dGZpbGUubWFlPic=

> <r_lp_tautomer_probability>
1

> <r_epik_Ionization_Penalty>
1.40416

> <r_epik_Ionization_Penalty_Charging>
1.4033

> <r_epik_Ionization_Penalty_Neutral>
0.000858184

> <r_epik_State_Penalty>
1.48564

> <r_epik_Charging_Adjusted_Penalty>
2.88894

> <i_epik_Tot_Q>
1

> <i_epik_Tot_abs_Q>
1

> <r_epik_Metal_State_Penalty>
5.52809

> <b_epik_Metal_Only>
0

> <s_lp_Force_Field>
OPLS_2005

> <r_lp_Energy>
19.2357

> <b_lp_Chiralities_Consistent>
1

> <s_lp_Variant>
AV-unprocessed.smi:2623-4

> <Gold.Version>
5.8.1

> <Gold.Id.Protein>
6NUR|6NUR_protein|mol2

> <Gold.PLP.Fitness>
57.5149

> <Gold.PLP.PLP>
-48.0937

> <Gold.PLP.part.hbond>
-5.0000

> <Gold.PLP.part.metal>
0.0000

> <Gold.PLP.part.buried>
-7.3836

> <Gold.PLP.part.nonpolar>
-37.9154

> <Gold.PLP.part.repulsive>
0.0864

> <Gold.PLP.ligand.clash>
0.0000

> <Gold.PLP.ligand.torsion>
0.7517

> <Gold.PLP.Chemscore.Hbond>
3.6320

> <Gold.PLP.Chemscore.CHOScore>
0.0000

> <Gold.PLP.Chemscore.Metal>
0.0000

> <Gold.Chemscore.Hbonds>
donor molecule, donor type, donor heavy atom, donor atom, acceptor molecule, acceptor atom, score
      L1  H     1    23       P1  7957  0.90
      L1  H     4    41       P1  8028  1.18
      P1  H  6931  6943       L1    16  0.43
      P1  H  7989  7998       L1     1  0.77

> <Gold.PLP.Chemscore.Internal.Correction>
0.0286

> <Gold.Rescore>
     Score         DG    S(hbond)    S(metal)    S(lipo)     H(rot)  DE(clash)    DE(int)     intcor
     18.06     -18.89       2.53        0.00     110.86       3.13       0.00       0.83       ----

> <Gold.Chemscore.Fitness>
18.0622

> <Gold.Chemscore.DG>
-18.8904

> <Gold.Chemscore.ZeroCoef>
-5.4800

> <Gold.Chemscore.Hbond>
2.5310

> <Gold.Chemscore.Metal>
0.0000

> <Gold.Chemscore.Lipo>
110.8639

> <Gold.Chemscore.Internal_Hbond>
0.0000

> <Gold.Chemscore.DEClash>
0.0009

> <Gold.Chemscore.DEInternal>
0.8273

> <Gold.Chemscore.Rot>
3.1305

> <Gold.Chemscore.Internal.Correction>
   9.000000E+99

> <Gold.Chemscore.Hbonds>
donor molecule, donor type, donor heavy atom, donor atom, acceptor molecule, acceptor atom, score
      L1  H     1    23       P1  7957  0.87
      L1  H     4    41       P1  8028  0.59
      P1  H  6931  6943       L1    16  0.09
      P1  H  7989  7998       L1     1  0.26

> <Gold.Chemscore.Hbond.Weighted>
-8.4535

> <Gold.Chemscore.Metal.Weighted>
-0.0000

> <Gold.Chemscore.Lipo.Weighted>
-12.9711

> <Gold.Chemscore.Internal_Hbond.Weighted>
0.0000

> <Gold.Chemscore.DEClash.Weighted>
0.0009

> <Gold.Chemscore.DEInternal.Weighted>
0.8273

> <Gold.Chemscore.Rot.Weighted>
8.0141

> <Gold.Chemscore.Internal.Correction.Weighted>
   9.000000E+99

> <Gold.Protein.RotatedTorsions>
[ 6907 6896 6895 6894 ] final   87.48 input  -60.11 | X-H torsion
[ 7974 7965 7964 7962 ] final  -80.35 input  175.53 | X-H torsion
[ 8008 7997 7996 7995 ] final -151.69 input   59.86 | X-H torsion
[ 10167 10162 10161 10158 ] final   82.17 input  -65.29 | X-H torsion
[ 10718 10713 10712 10709 ] final   24.46 input   66.30 | X-H torsion
[ 10763 10752 10751 10750 ] final  -44.30 input  -60.55 | X-H torsion
[ 11005 11000 10999 10996 ] final -172.85 input  -57.11 | X-H torsion

> <Gold.Protein.ActiveResidues>
 VAL166  LYS551  ARG553  GLY616  TRP617  ASP618  TYR619  PRO620  LYS621  CYS622 
 ASP623  PHE694  ASN695  SER759  ASP760  ASP761  ALA762  ILE779  LEU786  VAL792 
 PHE793  MET794  SER795  GLU796  ALA797  LYS798  CYS799  TRP800  GLU811  SER814 

> <Gold.Protein.RotatedAtoms>
  152.5412  134.2269  159.8809 H   0  0  0  0  0  0  0  0  0  0  0  0  # atno 6907 bound_to 6896
  151.2243  133.4478  159.2609 H   0  0  0  0  0  0  0  0  0  0  0  0  # atno 6908 bound_to 6896
  151.0775  134.9851  159.8395 H   0  0  0  0  0  0  0  0  0  0  0  0  # atno 6909 bound_to 6896
  145.5611  140.9482  143.1446 H   0  0  0  0  0  0  0  0  0  0  0  0  # atno 7974 bound_to 7965
  155.6434  140.0704  157.2611 H   0  0  0  0  0  0  0  0  0  0  0  0  # atno 8008 bound_to 7997
  154.4178  140.1746  156.1647 H   0  0  0  0  0  0  0  0  0  0  0  0  # atno 8009 bound_to 7997
  155.9837  140.3351  155.6690 H   0  0  0  0  0  0  0  0  0  0  0  0  # atno 8010 bound_to 7997
  139.9316  144.6148  150.8339 H   0  0  0  0  0  0  0  0  0  0  0  0  # atno 10167 bound_to 10162
  157.1800  130.6798  149.6109 H   0  0  0  0  0  0  0  0  0  0  0  0  # atno 10718 bound_to 10713
  154.0098  135.6683  153.4764 H   0  0  0  0  0  0  0  0  0  0  0  0  # atno 10763 bound_to 10752
  153.0626  135.5019  154.8123 H   0  0  0  0  0  0  0  0  0  0  0  0  # atno 10764 bound_to 10752
  154.7002  135.3077  154.9316 H   0  0  0  0  0  0  0  0  0  0  0  0  # atno 10765 bound_to 10752
  140.4923  134.5973  157.4959 H   0  0  0  0  0  0  0  0  0  0  0  0  # atno 11005 bound_to 11000
  144.7482  139.7263  143.7283 LP  0  0  0  0  0  0  0  0  0  0  0  0  # atno 17320 bound_to 7965
  146.1850  139.5061  142.9842 LP  0  0  0  0  0  0  0  0  0  0  0  0  # atno 17321 bound_to 7965
  140.7636  143.3226  151.2587 LP  0  0  0  0  0  0  0  0  0  0  0  0  # atno 17342 bound_to 10162
  139.6777  143.9908  152.2791 LP  0  0  0  0  0  0  0  0  0  0  0  0  # atno 17343 bound_to 10162
  155.9726  130.4650  150.6237 LP  0  0  0  0  0  0  0  0  0  0  0  0  # atno 17370 bound_to 10713
  157.3961  131.0803  151.1350 LP  0  0  0  0  0  0  0  0  0  0  0  0  # atno 17371 bound_to 10713
  139.9762  134.7212  155.9946 LP  0  0  0  0  0  0  0  0  0  0  0  0  # atno 17394 bound_to 11000
  141.1478  133.6553  156.3919 LP  0  0  0  0  0  0  0  0  0  0  0  0  # atno 17395 bound_to 11000

$$$$
