AV-unprocessed.smi:2365|AV-procd|sdf|9421|dock8
  -GOLD-   2272013 53D 1   1.00000     0.00000
 Structure written by MMmdl.
 29 30  0  0  0  0  0  0  0  0  1 V2000
  151.1760  144.7856  159.2878 C   0  0  0  0  0  0  0  0  0  0  0  0
  151.9525  143.5677  159.7987 C   0  0  2  0  0  0  0  0  0  0  0  0
  153.3655  143.4489  159.2391 C   0  0  0  0  0  0  0  0  0  0  0  0
  153.6709  141.9848  159.4833 C   0  0  0  0  0  0  0  0  0  0  0  0
  152.2926  141.3062  159.3799 C   0  0  2  0  0  0  0  0  0  0  0  0
  152.1003  140.4746  158.1060 C   0  0  0  0  0  0  0  0  0  0  0  0
  152.8436  139.5199  157.8790 O   0  0  0  0  0  0  0  0  0  0  0  0
  151.0906  140.8618  157.3058 N   0  0  0  0  0  0  0  0  0  0  0  0
  150.6705  140.2919  156.0716 C   0  0  0  0  0  0  0  0  0  0  0  0
  151.4778  139.4163  155.3037 C   0  0  0  0  0  0  0  0  0  0  0  0
  151.0915  138.8897  154.1223 N   0  0  0  0  0  0  0  0  0  0  0  0
  149.8738  139.2231  153.6479 C   0  0  0  0  0  0  0  0  0  0  0  0
  148.9949  140.0967  154.3172 C   0  0  0  0  0  0  0  0  0  0  0  0
  147.4576  140.4733  153.6238 Cl  0  0  0  0  0  0  0  0  0  0  0  0
  149.4037  140.6467  155.5517 C   0  0  0  0  0  0  0  0  0  0  0  0
  148.3657  141.7316  156.4141 Cl  0  0  0  0  0  0  0  0  0  0  0  0
  151.3357  142.3644  159.3653 O   0  0  0  0  0  0  0  0  0  0  0  0
  151.6601  145.7142  159.5913 H   0  0  0  0  0  0  0  0  0  0  0  0
  150.1608  144.7932  159.6853 H   0  0  0  0  0  0  0  0  0  0  0  0
  151.1073  144.7824  158.1996 H   0  0  0  0  0  0  0  0  0  0  0  0
  151.9841  143.5704  160.8898 H   0  0  0  0  0  0  0  0  0  0  0  0
  153.3710  143.6566  158.1681 H   0  0  0  0  0  0  0  0  0  0  0  0
  154.0756  144.1200  159.7229 H   0  0  0  0  0  0  0  0  0  0  0  0
  154.4141  141.5980  158.7846 H   0  0  0  0  0  0  0  0  0  0  0  0
  154.0708  141.8509  160.4892 H   0  0  0  0  0  0  0  0  0  0  0  0
  152.1238  140.6866  160.2624 H   0  0  0  0  0  0  0  0  0  0  0  0
  150.5089  141.6075  157.6601 H   0  0  0  0  0  0  0  0  0  0  0  0
  152.4717  139.1362  155.6167 H   0  0  0  0  0  0  0  0  0  0  0  0
  149.5944  138.7841  152.7015 H   0  0  0  0  0  0  0  0  0  0  0  0
  1  2  1  0  0  0  0
  1 18  1  0  0  0  0
  1 19  1  0  0  0  0
  1 20  1  0  0  0  0
  2 17  1  0  0  0  0
  2  3  1  0  0  0  0
  2 21  1  0  0  0  0
  3  4  1  0  0  0  0
  3 22  1  0  0  0  0
  3 23  1  0  0  0  0
  4  5  1  0  0  0  0
  4 24  1  0  0  0  0
  4 25  1  0  0  0  0
  5  6  1  0  0  0  0
  5 17  1  0  0  0  0
  5 26  1  0  0  0  0
  6  7  2  0  0  0  0
  6  8  1  0  0  0  0
  8  9  1  0  0  0  0
  8 27  1  0  0  0  0
  9 15  1  0  0  0  0
  9 10  2  0  0  0  0
 10 11  1  0  0  0  0
 10 28  1  0  0  0  0
 11 12  2  0  0  0  0
 12 13  1  0  0  0  0
 12 29  1  0  0  0  0
 13 14  1  0  0  0  0
 13 15  2  0  0  0  0
 15 16  1  0  0  0  0
M  END
> <s_m_source_file>
AV-unprocessed.smi

> <i_m_source_file_index>
2365

> <i_lp_mmshare_version>
43012

> <i_f3d_flags>
0

> <s_epik_input>
W0NIM11bQ0BASF0xW0NIMl1bQ0gyXVtDQEhdKE8xKUMoPU8pW05IXWMyW2NIXW5bY0hdYyhDbCljMkNs

> <s_epik_cmdline>
J2VwaWtfcHl0aG9uJywgJy1waCcsICc3LjAnLCAnLXRuJywgJzgnLCAnLW1hJywgJzIwMCcsICctbWV0YWxfYmluZGluZycsICctaW1hZScsICc8aW5maWxlLm1hZT4nLCAnLW9tYWUnLCAnPG91dGZpbGUubWFlPic=

> <r_lp_tautomer_probability>
1

> <r_epik_Ionization_Penalty>
7.32461e-06

> <r_epik_Ionization_Penalty_Charging>
0

> <r_epik_Ionization_Penalty_Neutral>
7.32461e-06

> <r_epik_State_Penalty>
-0

> <r_epik_Charging_Adjusted_Penalty>
0

> <i_epik_Tot_Q>
0

> <i_epik_Tot_abs_Q>
0

> <r_epik_Metal_State_Penalty>
-0

> <b_epik_Metal_Only>
0

> <s_lp_Force_Field>
OPLS_2005

> <r_lp_Energy>
23.8837

> <b_lp_Chiralities_Consistent>
1

> <s_lp_Variant>
AV-unprocessed.smi:2365-3

> <Gold.Version>
5.8.1

> <Gold.Id.Protein>
6NUR|6NUR_protein|mol2

> <Gold.PLP.Fitness>
40.5189

> <Gold.PLP.PLP>
-32.8309

> <Gold.PLP.part.hbond>
-1.1213

> <Gold.PLP.part.metal>
0.0000

> <Gold.PLP.part.buried>
-3.0881

> <Gold.PLP.part.nonpolar>
-28.6189

> <Gold.PLP.part.repulsive>
0.2062

> <Gold.PLP.ligand.clash>
0.0000

> <Gold.PLP.ligand.torsion>
0.0627

> <Gold.PLP.Chemscore.Hbond>
1.0000

> <Gold.PLP.Chemscore.CHOScore>
1.6019

> <Gold.PLP.Chemscore.Metal>
0.0000

> <Gold.Chemscore.Hbonds>
donor molecule, donor type, donor heavy atom, donor atom, acceptor molecule, acceptor atom, score
      P1  H  7989  7998       L1    11  0.01
      P1  H  7997  8010       L1     7  1.00
      L1  C    12    29       P1  7948  0.54
      L1  C    12    29       P1  7957  0.61

> <Gold.PLP.Chemscore.Internal.Correction>
0.0077

> <Gold.Rescore>
     Score         DG    S(hbond)    S(metal)    S(lipo)     H(rot)  DE(clash)    DE(int)     intcor
     15.72     -17.21       0.93        0.00      95.44       1.00       0.14       1.34       ----

> <Gold.Chemscore.Fitness>
15.7168

> <Gold.Chemscore.DG>
-17.2052

> <Gold.Chemscore.ZeroCoef>
-5.4800

> <Gold.Chemscore.Hbond>
0.9336

> <Gold.Chemscore.Metal>
0.0000

> <Gold.Chemscore.Lipo>
95.4442

> <Gold.Chemscore.Internal_Hbond>
0.0000

> <Gold.Chemscore.DEClash>
0.1444

> <Gold.Chemscore.DEInternal>
1.3440

> <Gold.Chemscore.Rot>
1.0000

> <Gold.Chemscore.Internal.Correction>
   9.000000E+99

> <Gold.Chemscore.Hbonds>
donor molecule, donor type, donor heavy atom, donor atom, acceptor molecule, acceptor atom, score
      P1  H  7997  8010       L1     7  0.83

> <Gold.Chemscore.Hbond.Weighted>
-3.1183

> <Gold.Chemscore.Metal.Weighted>
-0.0000

> <Gold.Chemscore.Lipo.Weighted>
-11.1670

> <Gold.Chemscore.Internal_Hbond.Weighted>
0.0000

> <Gold.Chemscore.DEClash.Weighted>
0.1444

> <Gold.Chemscore.DEInternal.Weighted>
1.3440

> <Gold.Chemscore.Rot.Weighted>
2.5600

> <Gold.Chemscore.Internal.Correction.Weighted>
   9.000000E+99

> <Gold.Protein.RotatedTorsions>
[ 6907 6896 6895 6894 ] final -174.40 input  -60.11 | X-H torsion
[ 7974 7965 7964 7962 ] final  -54.45 input  175.53 | X-H torsion
[ 8008 7997 7996 7995 ] final   42.90 input   59.86 | X-H torsion
[ 10167 10162 10161 10158 ] final -112.33 input  -65.29 | X-H torsion
[ 10718 10713 10712 10709 ] final -159.72 input   66.30 | X-H torsion
[ 10763 10752 10751 10750 ] final  -33.86 input  -60.55 | X-H torsion
[ 11005 11000 10999 10996 ] final  -99.88 input  -57.11 | X-H torsion

> <Gold.Protein.ActiveResidues>
 VAL166  LYS551  ARG553  GLY616  TRP617  ASP618  TYR619  PRO620  LYS621  CYS622 
 ASP623  PHE694  ASN695  SER759  ASP760  ASP761  ALA762  ILE779  LEU786  VAL792 
 PHE793  MET794  SER795  GLU796  ALA797  LYS798  CYS799  TRP800  GLU811  SER814 

> <Gold.Protein.RotatedAtoms>
  151.5717  133.3389  159.2990 H   0  0  0  0  0  0  0  0  0  0  0  0  # atno 6907 bound_to 6896
  150.8364  134.7641  159.6907 H   0  0  0  0  0  0  0  0  0  0  0  0  # atno 6908 bound_to 6896
  152.4439  134.5541  159.9927 H   0  0  0  0  0  0  0  0  0  0  0  0  # atno 6909 bound_to 6896
  145.8855  140.8112  142.9818 H   0  0  0  0  0  0  0  0  0  0  0  0  # atno 7974 bound_to 7965
  155.2938  140.3380  155.4251 H   0  0  0  0  0  0  0  0  0  0  0  0  # atno 8008 bound_to 7997
  156.2033  140.1741  156.7892 H   0  0  0  0  0  0  0  0  0  0  0  0  # atno 8009 bound_to 7997
  154.5588  140.0691  156.8770 H   0  0  0  0  0  0  0  0  0  0  0  0  # atno 8010 bound_to 7997
  140.1239  143.4419  152.1673 H   0  0  0  0  0  0  0  0  0  0  0  0  # atno 10167 bound_to 10162
  156.5721  130.8693  151.2841 H   0  0  0  0  0  0  0  0  0  0  0  0  # atno 10718 bound_to 10713
  153.8372  135.6861  153.4807 H   0  0  0  0  0  0  0  0  0  0  0  0  # atno 10763 bound_to 10752
  153.1475  135.4632  154.9586 H   0  0  0  0  0  0  0  0  0  0  0  0  # atno 10764 bound_to 10752
  154.7861  135.3285  154.7830 H   0  0  0  0  0  0  0  0  0  0  0  0  # atno 10765 bound_to 10752
  141.1292  133.8356  157.1030 H   0  0  0  0  0  0  0  0  0  0  0  0  # atno 11005 bound_to 11000
  144.6728  140.1449  143.7434 LP  0  0  0  0  0  0  0  0  0  0  0  0  # atno 17320 bound_to 7965
  145.8972  139.2409  143.1515 LP  0  0  0  0  0  0  0  0  0  0  0  0  # atno 17321 bound_to 7965
  139.5554  144.7369  151.4309 LP  0  0  0  0  0  0  0  0  0  0  0  0  # atno 17342 bound_to 10162
  140.6856  143.7981  150.7182 LP  0  0  0  0  0  0  0  0  0  0  0  0  # atno 17343 bound_to 10162
  157.7346  130.9748  150.2036 LP  0  0  0  0  0  0  0  0  0  0  0  0  # atno 17370 bound_to 10713
  156.2705  130.3721  149.8036 LP  0  0  0  0  0  0  0  0  0  0  0  0  # atno 17371 bound_to 10713
  140.0322  134.9896  157.0802 LP  0  0  0  0  0  0  0  0  0  0  0  0  # atno 17394 bound_to 11000
  140.4268  134.1823  155.7166 LP  0  0  0  0  0  0  0  0  0  0  0  0  # atno 17395 bound_to 11000

$$$$
