AV-unprocessed.smi:1103|AV-procd|sdf|4774|dock8
  -GOLD-   22720 3313D 1   1.00000     0.00000
 Structure written by MMmdl.
 44 45  0  0  0  0  0  0  0  0  2 V2000
  145.6307  135.9364  151.4009 C   0  0  0  0  0  0  0  0  0  0  0  0
  145.8862  137.3892  151.8280 C   0  0  0  0  0  0  0  0  0  0  0  0
  146.8939  137.5013  152.9133 N   0  3  2  0  0  0  0  0  0  0  0  0
  146.4869  136.7517  154.1291 C   0  0  0  0  0  0  0  0  0  0  0  0
  147.6036  136.7621  155.1832 C   0  0  0  0  0  0  0  0  0  0  0  0
  148.0009  138.1986  155.5431 C   0  0  0  0  0  0  0  0  0  0  0  0
  148.3970  138.9821  154.2795 C   0  0  2  0  0  0  0  0  0  0  0  0
  148.7939  140.4302  154.6404 C   0  0  0  0  0  0  0  0  0  0  0  0
  150.1170  140.4988  155.2529 N   0  0  0  0  0  0  0  0  0  0  0  0
  150.3612  140.5894  156.5696 C   0  0  0  0  0  0  0  0  0  0  0  0
  149.4820  140.5532  157.4302 O   0  0  0  0  0  0  0  0  0  0  0  0
  151.8184  140.8046  156.9750 C   0  0  0  0  0  0  0  0  0  0  0  0
  151.9122  141.8574  157.9698 N   0  0  0  0  0  0  0  0  0  0  0  0
  151.3743  143.1260  157.9260 C   0  0  0  0  0  0  0  0  0  0  0  0
  151.7468  143.7702  159.0716 C   0  0  0  0  0  0  0  0  0  0  0  0
  151.4300  145.1728  159.5021 C   0  0  0  0  0  0  0  0  0  0  0  0
  152.5190  142.7949  159.7642 C   0  0  0  0  0  0  0  0  0  0  0  0
  152.6220  141.6551  159.1011 N   0  0  0  0  0  0  0  0  0  0  0  0
  147.2587  138.9075  153.2341 C   0  0  0  0  0  0  0  0  0  0  0  0
  144.8104  135.8867  150.6846 H   0  0  0  0  0  0  0  0  0  0  0  0
  145.3616  135.3129  152.2539 H   0  0  0  0  0  0  0  0  0  0  0  0
  146.5010  135.4936  150.9194 H   0  0  0  0  0  0  0  0  0  0  0  0
  146.1895  137.9933  150.9720 H   0  0  0  0  0  0  0  0  0  0  0  0
  144.9388  137.8026  152.1769 H   0  0  0  0  0  0  0  0  0  0  0  0
  145.5753  137.1891  154.5397 H   0  0  0  0  0  0  0  0  0  0  0  0
  146.2538  135.7189  153.8673 H   0  0  0  0  0  0  0  0  0  0  0  0
  147.2761  136.2317  156.0780 H   0  0  0  0  0  0  0  0  0  0  0  0
  148.4728  136.2229  154.8040 H   0  0  0  0  0  0  0  0  0  0  0  0
  147.1671  138.6943  156.0427 H   0  0  0  0  0  0  0  0  0  0  0  0
  148.8270  138.1852  156.2552 H   0  0  0  0  0  0  0  0  0  0  0  0
  149.2753  138.4973  153.8496 H   0  0  0  0  0  0  0  0  0  0  0  0
  148.7344  141.0716  153.7593 H   0  0  0  0  0  0  0  0  0  0  0  0
  148.0814  140.8375  155.3582 H   0  0  0  0  0  0  0  0  0  0  0  0
  150.9076  140.5358  154.6252 H   0  0  0  0  0  0  0  0  0  0  0  0
  152.2291  139.8850  157.3936 H   0  0  0  0  0  0  0  0  0  0  0  0
  152.4266  141.0650  156.1071 H   0  0  0  0  0  0  0  0  0  0  0  0
  150.7827  143.4636  157.0877 H   0  0  0  0  0  0  0  0  0  0  0  0
  151.9379  145.4367  160.4298 H   0  0  0  0  0  0  0  0  0  0  0  0
  150.3616  145.3104  159.6690 H   0  0  0  0  0  0  0  0  0  0  0  0
  151.7359  145.9011  158.7507 H   0  0  0  0  0  0  0  0  0  0  0  0
  153.0110  142.8839  160.7214 H   0  0  0  0  0  0  0  0  0  0  0  0
  147.5772  139.4066  152.3207 H   0  0  0  0  0  0  0  0  0  0  0  0
  146.3783  139.4415  153.5959 H   0  0  0  0  0  0  0  0  0  0  0  0
  147.7316  137.0515  152.5728 H   0  0  0  0  0  0  0  0  0  0  0  0
  1  2  1  0  0  0  0
  1 20  1  0  0  0  0
  1 21  1  0  0  0  0
  1 22  1  0  0  0  0
  2  3  1  0  0  0  0
  2 23  1  0  0  0  0
  2 24  1  0  0  0  0
  3 19  1  0  0  0  0
  3  4  1  0  0  0  0
  3 44  1  0  0  0  0
  4  5  1  0  0  0  0
  4 25  1  0  0  0  0
  4 26  1  0  0  0  0
  5  6  1  0  0  0  0
  5 27  1  0  0  0  0
  5 28  1  0  0  0  0
  6  7  1  0  0  0  0
  6 29  1  0  0  0  0
  6 30  1  0  0  0  0
  7  8  1  0  0  0  0
  7 19  1  0  0  0  0
  7 31  1  0  0  0  0
  8  9  1  0  0  0  0
  8 32  1  0  0  0  0
  8 33  1  0  0  0  0
  9 10  1  0  0  0  0
  9 34  1  0  0  0  0
 10 11  2  0  0  0  0
 10 12  1  0  0  0  0
 12 13  1  0  0  0  0
 12 35  1  0  0  0  0
 12 36  1  0  0  0  0
 13 18  1  0  0  0  0
 13 14  1  0  0  0  0
 14 15  2  0  0  0  0
 14 37  1  0  0  0  0
 15 16  1  0  0  0  0
 15 17  1  0  0  0  0
 16 38  1  0  0  0  0
 16 39  1  0  0  0  0
 16 40  1  0  0  0  0
 17 18  2  0  0  0  0
 17 41  1  0  0  0  0
 19 42  1  0  0  0  0
 19 43  1  0  0  0  0
M  CHG  1   3   1
M  END
> <s_m_source_file>
AV-unprocessed.smi

> <i_m_source_file_index>
1103

> <i_lp_mmshare_version>
43012

> <i_f3d_flags>
0

> <s_epik_input>
W0NIM11bQ0gyXU4xW0NIMl1bQ0gyXVtDSDJdW0NASF0oW0NIMl0xKVtDSDJdW05IXUMoPU8pW0NIMl1uMltjSF1jKFtDSDNdKVtjSF1uMg==

> <s_epik_cmdline>
J2VwaWtfcHl0aG9uJywgJy1waCcsICc3LjAnLCAnLXRuJywgJzgnLCAnLW1hJywgJzIwMCcsICctbWV0YWxfYmluZGluZycsICctaW1hZScsICc8aW5maWxlLm1hZT4nLCAnLW9tYWUnLCAnPG91dGZpbGUubWFlPic=

> <r_lp_tautomer_probability>
1

> <r_epik_Ionization_Penalty>
0.000672456

> <r_epik_Ionization_Penalty_Charging>
0.000647327

> <r_epik_Ionization_Penalty_Neutral>
2.51297e-05

> <r_epik_State_Penalty>
0.000409793

> <r_epik_Charging_Adjusted_Penalty>
0.00105712

> <i_epik_Tot_Q>
1

> <i_epik_Tot_abs_Q>
1

> <r_epik_Metal_State_Penalty>
-0

> <b_epik_Metal_Only>
0

> <s_lp_Force_Field>
OPLS_2005

> <r_lp_Energy>
16.1771

> <b_lp_Chiralities_Consistent>
1

> <s_lp_Variant>
AV-unprocessed.smi:1103-4

> <Gold.Version>
5.8.1

> <Gold.Id.Protein>
6NUR|6NUR_protein|mol2

> <Gold.PLP.Fitness>
40.5711

> <Gold.PLP.PLP>
-32.6918

> <Gold.PLP.part.hbond>
-1.0000

> <Gold.PLP.part.metal>
0.0000

> <Gold.PLP.part.buried>
-2.4553

> <Gold.PLP.part.nonpolar>
-29.6920

> <Gold.PLP.part.repulsive>
0.3584

> <Gold.PLP.ligand.clash>
0.0000

> <Gold.PLP.ligand.torsion>
0.5765

> <Gold.PLP.Chemscore.Hbond>
2.0000

> <Gold.PLP.Chemscore.CHOScore>
1.0000

> <Gold.PLP.Chemscore.Metal>
0.0000

> <Gold.Chemscore.Hbonds>
donor molecule, donor type, donor heavy atom, donor atom, acceptor molecule, acceptor atom, score
      L1  H     3    44       P1  7948  2.00
      L1  C    14    37       P1  8028  0.65

> <Gold.PLP.Chemscore.Internal.Correction>
0.0324

> <Gold.Rescore>
     Score         DG    S(hbond)    S(metal)    S(lipo)     H(rot)  DE(clash)    DE(int)     intcor
     14.00     -14.90       0.99        0.00      88.94       1.68       0.28       0.62       ----

> <Gold.Chemscore.Fitness>
13.9975

> <Gold.Chemscore.DG>
-14.8991

> <Gold.Chemscore.ZeroCoef>
-5.4800

> <Gold.Chemscore.Hbond>
0.9937

> <Gold.Chemscore.Metal>
0.0000

> <Gold.Chemscore.Lipo>
88.9446

> <Gold.Chemscore.Internal_Hbond>
0.0000

> <Gold.Chemscore.DEClash>
0.2781

> <Gold.Chemscore.DEInternal>
0.6234

> <Gold.Chemscore.Rot>
1.6823

> <Gold.Chemscore.Internal.Correction>
   9.000000E+99

> <Gold.Chemscore.Hbonds>
donor molecule, donor type, donor heavy atom, donor atom, acceptor molecule, acceptor atom, score
      L1  H     3    44       P1  7948  0.99

> <Gold.Chemscore.Hbond.Weighted>
-3.3191

> <Gold.Chemscore.Metal.Weighted>
-0.0000

> <Gold.Chemscore.Lipo.Weighted>
-10.4065

> <Gold.Chemscore.Internal_Hbond.Weighted>
0.0000

> <Gold.Chemscore.DEClash.Weighted>
0.2781

> <Gold.Chemscore.DEInternal.Weighted>
0.6234

> <Gold.Chemscore.Rot.Weighted>
4.3066

> <Gold.Chemscore.Internal.Correction.Weighted>
   9.000000E+99

> <Gold.Protein.RotatedTorsions>
[ 6907 6896 6895 6894 ] final   34.15 input  -60.11 | X-H torsion
[ 7974 7965 7964 7962 ] final  118.24 input  175.53 | X-H torsion
[ 8008 7997 7996 7995 ] final   10.00 input   59.86 | X-H torsion
[ 10167 10162 10161 10158 ] final    0.27 input  -65.29 | X-H torsion
[ 10718 10713 10712 10709 ] final   20.36 input   66.30 | X-H torsion
[ 10763 10752 10751 10750 ] final  145.58 input  -60.55 | X-H torsion
[ 11005 11000 10999 10996 ] final   61.63 input  -57.11 | X-H torsion

> <Gold.Protein.ActiveResidues>
 VAL166  LYS551  ARG553  GLY616  TRP617  ASP618  TYR619  PRO620  LYS621  CYS622 
 ASP623  PHE694  ASN695  SER759  ASP760  ASP761  ALA762  ILE779  LEU786  VAL792 
 PHE793  MET794  SER795  GLU796  ALA797  LYS798  CYS799  TRP800  GLU811  SER814 

> <Gold.Protein.RotatedAtoms>
  152.0985  134.9358  160.0569 H   0  0  0  0  0  0  0  0  0  0  0  0  # atno 6907 bound_to 6896
  152.0582  133.4045  159.4414 H   0  0  0  0  0  0  0  0  0  0  0  0  # atno 6908 bound_to 6896
  150.6838  134.3150  159.4806 H   0  0  0  0  0  0  0  0  0  0  0  0  # atno 6909 bound_to 6896
  145.1575  139.3174  143.4534 H   0  0  0  0  0  0  0  0  0  0  0  0  # atno 7974 bound_to 7965
  154.7876  140.2830  155.6016 H   0  0  0  0  0  0  0  0  0  0  0  0  # atno 8008 bound_to 7997
  156.2959  140.2611  156.2644 H   0  0  0  0  0  0  0  0  0  0  0  0  # atno 8009 bound_to 7997
  154.9709  140.0376  157.2224 H   0  0  0  0  0  0  0  0  0  0  0  0  # atno 8010 bound_to 7997
  140.6736  143.6979  150.7975 H   0  0  0  0  0  0  0  0  0  0  0  0  # atno 10167 bound_to 10162
  157.1233  130.6559  149.5930 H   0  0  0  0  0  0  0  0  0  0  0  0  # atno 10718 bound_to 10713
  154.0078  135.2917  155.3396 H   0  0  0  0  0  0  0  0  0  0  0  0  # atno 10763 bound_to 10752
  154.7121  135.5145  153.8686 H   0  0  0  0  0  0  0  0  0  0  0  0  # atno 10764 bound_to 10752
  153.0737  135.6656  154.0312 H   0  0  0  0  0  0  0  0  0  0  0  0  # atno 10765 bound_to 10752
  140.0148  134.6241  155.9726 H   0  0  0  0  0  0  0  0  0  0  0  0  # atno 11005 bound_to 11000
  146.3487  140.1673  142.8590 LP  0  0  0  0  0  0  0  0  0  0  0  0  # atno 17320 bound_to 7965
  145.0365  140.8912  143.5078 LP  0  0  0  0  0  0  0  0  0  0  0  0  # atno 17321 bound_to 7965
  140.0668  143.5100  152.2600 LP  0  0  0  0  0  0  0  0  0  0  0  0  # atno 17342 bound_to 10162
  139.6017  144.7584  151.3157 LP  0  0  0  0  0  0  0  0  0  0  0  0  # atno 17343 bound_to 10162
  155.9823  130.4837  150.6877 LP  0  0  0  0  0  0  0  0  0  0  0  0  # atno 17370 bound_to 10713
  157.4457  131.0866  151.0898 LP  0  0  0  0  0  0  0  0  0  0  0  0  # atno 17371 bound_to 10713
  141.1735  133.6538  156.4741 LP  0  0  0  0  0  0  0  0  0  0  0  0  # atno 17394 bound_to 11000
  140.4490  134.6946  157.5030 LP  0  0  0  0  0  0  0  0  0  0  0  0  # atno 17395 bound_to 11000

$$$$
