AV-unprocessed.smi:1007|AV-procd|sdf|4407|dock1
  -GOLD-   22720 2353D 1   1.00000     0.00000
 Structure written by MMmdl.
 57 59  0  0  0  0  0  0  0  0  3 V2000
  144.8947  133.6305  149.9454 C   0  0  0  0  0  0  0  0  0  0  0  0
  144.9894  134.0043  151.3088 O   0  0  0  0  0  0  0  0  0  0  0  0
  146.0573  134.9043  151.5537 C   0  0  0  0  0  0  0  0  0  0  0  0
  145.6779  136.2838  150.9933 C   0  0  0  0  0  0  0  0  0  0  0  0
  146.3537  137.3934  151.7130 N   0  3  2  0  0  0  0  0  0  0  0  0
  145.7743  137.6303  153.0579 C   0  0  0  0  0  0  0  0  0  0  0  0
  146.5611  138.7104  153.8224 C   0  0  0  0  0  0  0  0  0  0  0  0
  146.6361  139.9742  153.0454 N   0  3  1  0  0  0  0  0  0  0  0  0
  147.3376  141.0703  153.7627 C   0  0  0  0  0  0  0  0  0  0  0  0
  148.6204  140.6045  154.4807 C   0  0  1  0  0  0  0  0  0  0  0  0
  149.5970  140.3667  153.4870 O   0  0  0  0  0  0  0  0  0  0  0  0
  149.1541  141.6438  155.4883 C   0  0  0  0  0  0  0  0  0  0  0  0
  150.1678  141.0937  156.3702 N   0  0  0  0  0  0  0  0  0  0  0  0
  150.7665  139.8914  156.2687 C   0  0  0  0  0  0  0  0  0  0  0  0
  151.6758  139.5844  157.1888 N   0  0  0  0  0  0  0  0  0  0  0  0
  151.6647  140.7186  157.9826 C   0  0  0  0  0  0  0  0  0  0  0  0
  152.4092  141.0364  159.1396 C   0  0  0  0  0  0  0  0  0  0  0  0
  152.2337  142.2752  159.7964 C   0  0  0  0  0  0  0  0  0  0  0  0
  153.0570  142.5770  161.0363 C   0  0  0  0  0  0  0  0  0  0  0  0
  151.3002  143.2187  159.2971 C   0  0  0  0  0  0  0  0  0  0  0  0
  151.0947  144.5562  159.9861 C   0  0  0  0  0  0  0  0  0  0  0  0
  150.5484  142.9173  158.1425 C   0  0  0  0  0  0  0  0  0  0  0  0
  150.7317  141.6815  157.4977 C   0  0  0  0  0  0  0  0  0  0  0  0
  147.2075  139.7356  151.6968 C   0  0  0  0  0  0  0  0  0  0  0  0
  146.4176  138.6565  150.9350 C   0  0  0  0  0  0  0  0  0  0  0  0
  144.0637  132.9378  149.8127 H   0  0  0  0  0  0  0  0  0  0  0  0
  145.8049  133.1323  149.6084 H   0  0  0  0  0  0  0  0  0  0  0  0
  144.7146  134.4984  149.3096 H   0  0  0  0  0  0  0  0  0  0  0  0
  146.2834  134.9534  152.6190 H   0  0  0  0  0  0  0  0  0  0  0  0
  146.9583  134.5460  151.0536 H   0  0  0  0  0  0  0  0  0  0  0  0
  145.9062  136.3403  149.9279 H   0  0  0  0  0  0  0  0  0  0  0  0
  144.5962  136.3957  151.0812 H   0  0  0  0  0  0  0  0  0  0  0  0
  144.7290  137.9276  152.9574 H   0  0  0  0  0  0  0  0  0  0  0  0
  145.7867  136.7034  153.6327 H   0  0  0  0  0  0  0  0  0  0  0  0
  146.0782  138.8831  154.7833 H   0  0  0  0  0  0  0  0  0  0  0  0
  147.5703  138.3537  154.0357 H   0  0  0  0  0  0  0  0  0  0  0  0
  147.5624  141.8725  153.0575 H   0  0  0  0  0  0  0  0  0  0  0  0
  146.6673  141.5017  154.5082 H   0  0  0  0  0  0  0  0  0  0  0  0
  148.4512  139.6556  154.9888 H   0  0  0  0  0  0  0  0  0  0  0  0
  149.1666  140.3050  152.6471 H   0  0  0  0  0  0  0  0  0  0  0  0
  149.5766  142.5027  154.9650 H   0  0  0  0  0  0  0  0  0  0  0  0
  148.3419  142.0271  156.1068 H   0  0  0  0  0  0  0  0  0  0  0  0
  150.5232  139.2030  155.4727 H   0  0  0  0  0  0  0  0  0  0  0  0
  153.1205  140.3179  159.5196 H   0  0  0  0  0  0  0  0  0  0  0  0
  152.4070  142.7437  161.8954 H   0  0  0  0  0  0  0  0  0  0  0  0
  153.6646  143.4689  160.8830 H   0  0  0  0  0  0  0  0  0  0  0  0
  153.7287  141.7533  161.2794 H   0  0  0  0  0  0  0  0  0  0  0  0
  150.3347  145.1521  159.4795 H   0  0  0  0  0  0  0  0  0  0  0  0
  152.0216  145.1301  159.9909 H   0  0  0  0  0  0  0  0  0  0  0  0
  150.7721  144.4095  161.0169 H   0  0  0  0  0  0  0  0  0  0  0  0
  149.8366  143.6290  157.7511 H   0  0  0  0  0  0  0  0  0  0  0  0
  147.1944  140.6625  151.1217 H   0  0  0  0  0  0  0  0  0  0  0  0
  148.2528  139.4363  151.7926 H   0  0  0  0  0  0  0  0  0  0  0  0
  146.8941  138.4864  149.9702 H   0  0  0  0  0  0  0  0  0  0  0  0
  145.4061  139.0103  150.7292 H   0  0  0  0  0  0  0  0  0  0  0  0
  145.6879  140.2908  152.8990 H   0  0  0  0  0  0  0  0  0  0  0  0
  147.3051  137.0877  151.8644 H   0  0  0  0  0  0  0  0  0  0  0  0
  1  2  1  0  0  0  0
  1 26  1  0  0  0  0
  1 27  1  0  0  0  0
  1 28  1  0  0  0  0
  2  3  1  0  0  0  0
  3  4  1  0  0  0  0
  3 29  1  0  0  0  0
  3 30  1  0  0  0  0
  4  5  1  0  0  0  0
  4 31  1  0  0  0  0
  4 32  1  0  0  0  0
  5 25  1  0  0  0  0
  5  6  1  0  0  0  0
  5 57  1  0  0  0  0
  6  7  1  0  0  0  0
  6 33  1  0  0  0  0
  6 34  1  0  0  0  0
  7  8  1  0  0  0  0
  7 35  1  0  0  0  0
  7 36  1  0  0  0  0
  8  9  1  0  0  0  0
  8 24  1  0  0  0  0
  8 56  1  0  0  0  0
  9 10  1  0  0  0  0
  9 37  1  0  0  0  0
  9 38  1  0  0  0  0
 10 11  1  0  0  0  0
 10 12  1  0  0  0  0
 10 39  1  0  0  0  0
 11 40  1  0  0  0  0
 12 13  1  0  0  0  0
 12 41  1  0  0  0  0
 12 42  1  0  0  0  0
 13 23  1  0  0  0  0
 13 14  1  0  0  0  0
 14 15  2  0  0  0  0
 14 43  1  0  0  0  0
 15 16  1  0  0  0  0
 16 23  2  0  0  0  0
 16 17  1  0  0  0  0
 17 18  2  0  0  0  0
 17 44  1  0  0  0  0
 18 19  1  0  0  0  0
 18 20  1  0  0  0  0
 19 45  1  0  0  0  0
 19 46  1  0  0  0  0
 19 47  1  0  0  0  0
 20 21  1  0  0  0  0
 20 22  2  0  0  0  0
 21 48  1  0  0  0  0
 21 49  1  0  0  0  0
 21 50  1  0  0  0  0
 22 23  1  0  0  0  0
 22 51  1  0  0  0  0
 24 25  1  0  0  0  0
 24 52  1  0  0  0  0
 24 53  1  0  0  0  0
 25 54  1  0  0  0  0
 25 55  1  0  0  0  0
M  CHG  1   5   1
M  CHG  1   8   1
M  END
> <s_m_source_file>
AV-unprocessed.smi

> <i_m_source_file_index>
1007

> <i_lp_mmshare_version>
43012

> <i_f3d_flags>
0

> <s_epik_input>
W0NIM11PW0NIMl1bQ0gyXU4xW0NIMl1bQ0gyXU4oW0NIMl1bQ0gyXTEpW0NIMl1bQ0BIXShbT0hdKVtDSDJdbihbY0hdbjIpYyhjMjMpW2NIXWMoW0NIM10pYyhbY0hdMylbQ0gzXQ==

> <s_epik_cmdline>
J2VwaWtfcHl0aG9uJywgJy1waCcsICc3LjAnLCAnLXRuJywgJzgnLCAnLW1hJywgJzIwMCcsICctbWV0YWxfYmluZGluZycsICctaW1hZScsICc8aW5maWxlLm1hZT4nLCAnLW9tYWUnLCAnPG91dGZpbGUubWFlPic=

> <r_epik_Ionization_Penalty>
3.88944

> <r_epik_Ionization_Penalty_Charging>
3.80608

> <r_epik_Ionization_Penalty_Neutral>
0.0833653

> <r_epik_State_Penalty>
2.70739

> <r_epik_Charging_Adjusted_Penalty>
6.51347

> <i_epik_Tot_Q>
2

> <i_epik_Tot_abs_Q>
2

> <r_epik_Metal_State_Penalty>
2.62239

> <b_epik_Metal_Only>
0

> <s_lp_Force_Field>
OPLS_2005

> <r_lp_Energy>
30.0741

> <b_lp_Chiralities_Consistent>
1

> <s_lp_Variant>
AV-unprocessed.smi:1007-10

> <Gold.Version>
5.8.1

> <Gold.Id.Protein>
6NUR|6NUR_protein|mol2

> <Gold.PLP.Fitness>
62.5876

> <Gold.PLP.PLP>
-48.4806

> <Gold.PLP.part.hbond>
-3.1387

> <Gold.PLP.part.metal>
0.0000

> <Gold.PLP.part.buried>
0.6072

> <Gold.PLP.part.nonpolar>
-47.5525

> <Gold.PLP.part.repulsive>
0.1699

> <Gold.PLP.ligand.clash>
0.0000

> <Gold.PLP.ligand.torsion>
0.8028

> <Gold.PLP.Chemscore.Hbond>
5.0336

> <Gold.PLP.Chemscore.CHOScore>
0.0000

> <Gold.PLP.Chemscore.Metal>
0.0000

> <Gold.Chemscore.Hbonds>
donor molecule, donor type, donor heavy atom, donor atom, acceptor molecule, acceptor atom, score
      L1  H     5    57       P1  7948  2.00
      L1  H     8    56       P1 10175  1.89
      L1  H    11    40       P1  7957  0.74
      P1  H  7989  7998       L1    11  0.45

> <Gold.PLP.Chemscore.Internal.Correction>
0.6119

> <Gold.Rescore>
     Score         DG    S(hbond)    S(metal)    S(lipo)     H(rot)  DE(clash)    DE(int)     intcor
     20.80     -24.94       2.74        0.00     145.72       2.63       2.86       1.29       ----

> <Gold.Chemscore.Fitness>
20.7951

> <Gold.Chemscore.DG>
-24.9428

> <Gold.Chemscore.ZeroCoef>
-5.4800

> <Gold.Chemscore.Hbond>
2.7420

> <Gold.Chemscore.Metal>
0.0000

> <Gold.Chemscore.Lipo>
145.7192

> <Gold.Chemscore.Internal_Hbond>
0.0000

> <Gold.Chemscore.DEClash>
2.8576

> <Gold.Chemscore.DEInternal>
1.2902

> <Gold.Chemscore.Rot>
2.6347

> <Gold.Chemscore.Internal.Correction>
   9.000000E+99

> <Gold.Chemscore.Hbonds>
donor molecule, donor type, donor heavy atom, donor atom, acceptor molecule, acceptor atom, score
      L1  H     5    57       P1  7948  1.00
      L1  H     8    56       P1 10175  0.83
      L1  H    11    40       P1  7957  0.70
      P1  H  7989  7998       L1    11  0.40

> <Gold.Chemscore.Hbond.Weighted>
-9.1584

> <Gold.Chemscore.Metal.Weighted>
-0.0000

> <Gold.Chemscore.Lipo.Weighted>
-17.0491

> <Gold.Chemscore.Internal_Hbond.Weighted>
0.0000

> <Gold.Chemscore.DEClash.Weighted>
2.8576

> <Gold.Chemscore.DEInternal.Weighted>
1.2902

> <Gold.Chemscore.Rot.Weighted>
6.7448

> <Gold.Chemscore.Internal.Correction.Weighted>
   9.000000E+99

> <Gold.Protein.RotatedTorsions>
[ 6907 6896 6895 6894 ] final   22.72 input  -60.11 | X-H torsion
[ 7974 7965 7964 7962 ] final -119.92 input  175.53 | X-H torsion
[ 8008 7997 7996 7995 ] final  -58.96 input   59.86 | X-H torsion
[ 10167 10162 10161 10158 ] final  178.39 input  -65.29 | X-H torsion
[ 10718 10713 10712 10709 ] final  -94.49 input   66.30 | X-H torsion
[ 10763 10752 10751 10750 ] final   38.48 input  -60.55 | X-H torsion
[ 11005 11000 10999 10996 ] final -170.15 input  -57.11 | X-H torsion

> <Gold.Protein.ActiveResidues>
 VAL166  LYS551  ARG553  GLY616  TRP617  ASP618  TYR619  PRO620  LYS621  CYS622 
 ASP623  PHE694  ASN695  SER759  ASP760  ASP761  ALA762  ILE779  LEU786  VAL792 
 PHE793  MET794  SER795  GLU796  ALA797  LYS798  CYS799  TRP800  GLU811  SER814 

> <Gold.Protein.RotatedAtoms>
  151.9315  135.0254  160.0529 H   0  0  0  0  0  0  0  0  0  0  0  0  # atno 6907 bound_to 6896
  152.2114  133.4910  159.5120 H   0  0  0  0  0  0  0  0  0  0  0  0  # atno 6908 bound_to 6896
  150.6977  134.1378  159.4136 H   0  0  0  0  0  0  0  0  0  0  0  0  # atno 6909 bound_to 6896
  145.0571  140.8262  143.4174 H   0  0  0  0  0  0  0  0  0  0  0  0  # atno 7974 bound_to 7965
  154.4331  140.1072  156.6041 H   0  0  0  0  0  0  0  0  0  0  0  0  # atno 8008 bound_to 7997
  155.5880  140.3491  155.4540 H   0  0  0  0  0  0  0  0  0  0  0  0  # atno 8009 bound_to 7997
  156.0268  140.1252  157.0289 H   0  0  0  0  0  0  0  0  0  0  0  0  # atno 8010 bound_to 7997
  139.5292  144.2686  152.0647 H   0  0  0  0  0  0  0  0  0  0  0  0  # atno 10167 bound_to 10162
  156.0028  130.5070  150.5934 H   0  0  0  0  0  0  0  0  0  0  0  0  # atno 10718 bound_to 10713
  153.0000  135.6248  154.2311 H   0  0  0  0  0  0  0  0  0  0  0  0  # atno 10763 bound_to 10752
  154.2053  135.2802  155.2978 H   0  0  0  0  0  0  0  0  0  0  0  0  # atno 10764 bound_to 10752
  154.5651  135.5693  153.7101 H   0  0  0  0  0  0  0  0  0  0  0  0  # atno 10765 bound_to 10752
  140.5227  134.5693  157.5052 H   0  0  0  0  0  0  0  0  0  0  0  0  # atno 11005 bound_to 11000
  145.1454  139.2546  143.5468 LP  0  0  0  0  0  0  0  0  0  0  0  0  # atno 17320 bound_to 7965
  146.3522  140.1143  142.8602 LP  0  0  0  0  0  0  0  0  0  0  0  0  # atno 17321 bound_to 7965
  140.2146  144.4528  150.6370 LP  0  0  0  0  0  0  0  0  0  0  0  0  # atno 17342 bound_to 10162
  140.6458  143.2213  151.6189 LP  0  0  0  0  0  0  0  0  0  0  0  0  # atno 17343 bound_to 10162
  157.3795  131.0778  151.1489 LP  0  0  0  0  0  0  0  0  0  0  0  0  # atno 17370 bound_to 10713
  157.2216  130.6484  149.5813 LP  0  0  0  0  0  0  0  0  0  0  0  0  # atno 17371 bound_to 10713
  139.9597  134.7474  156.0264 LP  0  0  0  0  0  0  0  0  0  0  0  0  # atno 17394 bound_to 11000
  141.1325  133.6583  156.3503 LP  0  0  0  0  0  0  0  0  0  0  0  0  # atno 17395 bound_to 11000

$$$$
