AV-unprocessed.smi:150|AV-procd|sdf|1242|dock2
  -GOLD-   2262018463D 1   1.00000     0.00000
 Structure written by MMmdl.
 55 57  0  0  0  0  0  0  0  0  1 V2000
  152.0705  144.8442  157.9304 C   0  0  0  0  0  0  0  0  0  0  0  0
  151.9035  143.6721  158.9132 C   0  0  0  0  0  0  0  0  0  0  0  0
  151.6279  144.2040  160.3282 C   0  0  0  0  0  0  0  0  0  0  0  0
  153.1270  142.7267  158.9209 C   0  0  0  0  0  0  0  0  0  0  0  0
  152.9977  141.4647  159.8158 C   0  0  2  0  0  0  0  0  0  0  0  0
  153.9195  141.5028  161.0604 C   0  0  0  0  0  0  0  0  0  0  0  0
  153.4666  142.4875  161.9656 O   0  0  0  0  0  0  0  0  0  0  0  0
  153.1399  140.2217  159.0386 N   0  0  0  0  0  0  0  0  0  0  0  0
  154.1686  139.2750  159.4592 C   0  0  0  0  0  0  0  0  0  0  0  0
  152.1053  139.6520  158.3627 C   0  0  0  0  0  0  0  0  0  0  0  0
  151.1064  139.0245  159.0375 N   0  0  0  0  0  0  0  0  0  0  0  0
  150.0973  138.4489  158.3779 C   0  0  0  0  0  0  0  0  0  0  0  0
  149.8943  138.3778  157.0616 N   0  0  0  0  0  0  0  0  0  0  0  0
  150.8948  138.9986  156.3743 C   0  0  0  0  0  0  0  0  0  0  0  0
  152.0248  139.6555  156.9399 C   0  0  0  0  0  0  0  0  0  0  0  0
  152.8182  140.1820  155.9269 N   0  0  0  0  0  0  0  0  0  0  0  0
  152.1969  139.8514  154.8285 C   0  0  0  0  0  0  0  0  0  0  0  0
  151.0379  139.1301  155.0040 N   0  0  0  0  0  0  0  0  0  0  0  0
  150.1547  138.6351  153.9587 C   0  0  0  0  0  0  0  0  0  0  0  0
  148.7390  139.2648  153.9739 C   0  0  0  0  0  0  0  0  0  0  0  0
  148.0925  138.9087  152.7643 O   0  0  0  0  0  0  0  0  0  0  0  0
  147.9165  138.6999  155.1499 C   0  0  0  0  0  0  0  0  0  0  0  0
  146.5677  139.4215  155.3176 C   0  0  0  0  0  0  0  0  0  0  0  0
  146.7797  140.8208  155.4593 O   0  0  0  0  0  0  0  0  0  0  0  0
  147.3742  141.4042  154.3066 C   0  0  0  0  0  0  0  0  0  0  0  0
  148.7726  140.8061  154.0714 C   0  0  0  0  0  0  0  0  0  0  0  0
  152.9716  145.4186  158.1477 H   0  0  0  0  0  0  0  0  0  0  0  0
  151.2220  145.5265  157.9880 H   0  0  0  0  0  0  0  0  0  0  0  0
  152.1326  144.5032  156.8976 H   0  0  0  0  0  0  0  0  0  0  0  0
  151.0199  143.1104  158.6134 H   0  0  0  0  0  0  0  0  0  0  0  0
  152.4673  144.7914  160.7020 H   0  0  0  0  0  0  0  0  0  0  0  0
  151.4544  143.3877  161.0301 H   0  0  0  0  0  0  0  0  0  0  0  0
  150.7429  144.8407  160.3441 H   0  0  0  0  0  0  0  0  0  0  0  0
  153.3273  142.4280  157.8911 H   0  0  0  0  0  0  0  0  0  0  0  0
  154.0026  143.2957  159.2334 H   0  0  0  0  0  0  0  0  0  0  0  0
  151.9749  141.4440  160.1903 H   0  0  0  0  0  0  0  0  0  0  0  0
  154.0019  140.5434  161.5681 H   0  0  0  0  0  0  0  0  0  0  0  0
  154.9331  141.7844  160.7807 H   0  0  0  0  0  0  0  0  0  0  0  0
  152.8690  143.0610  161.5107 H   0  0  0  0  0  0  0  0  0  0  0  0
  154.9016  139.1339  158.6651 H   0  0  0  0  0  0  0  0  0  0  0  0
  153.7376  138.3040  159.7080 H   0  0  0  0  0  0  0  0  0  0  0  0
  154.7019  139.6347  160.3394 H   0  0  0  0  0  0  0  0  0  0  0  0
  149.3461  137.9763  158.9933 H   0  0  0  0  0  0  0  0  0  0  0  0
  152.5731  140.1213  153.8524 H   0  0  0  0  0  0  0  0  0  0  0  0
  150.6353  138.8041  152.9938 H   0  0  0  0  0  0  0  0  0  0  0  0
  150.0802  137.5527  154.0729 H   0  0  0  0  0  0  0  0  0  0  0  0
  148.4065  138.0597  152.4932 H   0  0  0  0  0  0  0  0  0  0  0  0
  147.7551  137.6283  155.0246 H   0  0  0  0  0  0  0  0  0  0  0  0
  148.4838  138.8159  156.0746 H   0  0  0  0  0  0  0  0  0  0  0  0
  145.9064  139.2253  154.4722 H   0  0  0  0  0  0  0  0  0  0  0  0
  146.0576  139.0537  156.2081 H   0  0  0  0  0  0  0  0  0  0  0  0
  146.7316  141.2562  153.4374 H   0  0  0  0  0  0  0  0  0  0  0  0
  147.4518  142.4806  154.4600 H   0  0  0  0  0  0  0  0  0  0  0  0
  149.4185  141.0989  154.9002 H   0  0  0  0  0  0  0  0  0  0  0  0
  149.2081  141.2438  153.1726 H   0  0  0  0  0  0  0  0  0  0  0  0
  1  2  1  0  0  0  0
  1 27  1  0  0  0  0
  1 28  1  0  0  0  0
  1 29  1  0  0  0  0
  2  3  1  0  0  0  0
  2  4  1  0  0  0  0
  2 30  1  0  0  0  0
  3 31  1  0  0  0  0
  3 32  1  0  0  0  0
  3 33  1  0  0  0  0
  4  5  1  0  0  0  0
  4 34  1  0  0  0  0
  4 35  1  0  0  0  0
  5  6  1  0  0  0  0
  5  8  1  0  0  0  0
  5 36  1  0  0  0  0
  6  7  1  0  0  0  0
  6 37  1  0  0  0  0
  6 38  1  0  0  0  0
  7 39  1  0  0  0  0
  8  9  1  0  0  0  0
  8 10  1  0  0  0  0
  9 40  1  0  0  0  0
  9 41  1  0  0  0  0
  9 42  1  0  0  0  0
 10 15  1  0  0  0  0
 10 11  2  0  0  0  0
 11 12  1  0  0  0  0
 12 13  2  0  0  0  0
 12 43  1  0  0  0  0
 13 14  1  0  0  0  0
 14 18  1  0  0  0  0
 14 15  2  0  0  0  0
 15 16  1  0  0  0  0
 16 17  2  0  0  0  0
 17 18  1  0  0  0  0
 17 44  1  0  0  0  0
 18 19  1  0  0  0  0
 19 20  1  0  0  0  0
 19 45  1  0  0  0  0
 19 46  1  0  0  0  0
 20 26  1  0  0  0  0
 20 21  1  0  0  0  0
 20 22  1  0  0  0  0
 21 47  1  0  0  0  0
 22 23  1  0  0  0  0
 22 48  1  0  0  0  0
 22 49  1  0  0  0  0
 23 24  1  0  0  0  0
 23 50  1  0  0  0  0
 23 51  1  0  0  0  0
 24 25  1  0  0  0  0
 25 26  1  0  0  0  0
 25 52  1  0  0  0  0
 25 53  1  0  0  0  0
 26 54  1  0  0  0  0
 26 55  1  0  0  0  0
M  END
> <s_m_source_file>
AV-unprocessed.smi

> <i_m_source_file_index>
150

> <i_lp_mmshare_version>
43012

> <i_f3d_flags>
0

> <s_epik_input>
W0NIM11bQ0hdKFtDSDNdKVtDSDJdW0NASF0oW0NIMl1bT0hdKU4oW0NIM10pYyhuW2NIXW4xKWMoYzEyKW5bY0hdbjJbQ0gyXUMzKFtPSF0pW0NIMl1bQ0gyXU9bQ0gyXVtDSDJdMw==

> <s_epik_cmdline>
J2VwaWtfcHl0aG9uJywgJy1waCcsICc3LjAnLCAnLXRuJywgJzgnLCAnLW1hJywgJzIwMCcsICctbWV0YWxfYmluZGluZycsICctaW1hZScsICc8aW5maWxlLm1hZT4nLCAnLW9tYWUnLCAnPG91dGZpbGUubWFlPic=

> <r_lp_tautomer_probability>
1

> <r_epik_Ionization_Penalty>
0.00548416

> <r_epik_Ionization_Penalty_Charging>
0

> <r_epik_Ionization_Penalty_Neutral>
0.00548416

> <r_epik_State_Penalty>
0.0038135

> <r_epik_Charging_Adjusted_Penalty>
0.0038135

> <i_epik_Tot_Q>
0

> <i_epik_Tot_abs_Q>
0

> <r_epik_Metal_State_Penalty>
-0

> <b_epik_Metal_Only>
0

> <s_lp_Force_Field>
OPLS_2005

> <r_lp_Energy>
31.7552

> <b_lp_Chiralities_Consistent>
1

> <s_lp_Variant>
AV-unprocessed.smi:150-1

> <Gold.Version>
5.8.1

> <Gold.Id.Protein>
6NUR|6NUR_protein|mol2

> <Gold.PLP.Fitness>
49.6706

> <Gold.PLP.PLP>
-48.0453

> <Gold.PLP.part.hbond>
-3.6446

> <Gold.PLP.part.metal>
0.0000

> <Gold.PLP.part.buried>
-0.6600

> <Gold.PLP.part.nonpolar>
-42.8238

> <Gold.PLP.part.repulsive>
0.0791

> <Gold.PLP.ligand.clash>
0.0000

> <Gold.PLP.ligand.torsion>
2.7395

> <Gold.PLP.Chemscore.Hbond>
1.9913

> <Gold.PLP.Chemscore.CHOScore>
0.0000

> <Gold.PLP.Chemscore.Metal>
0.0000

> <Gold.Chemscore.Hbonds>
donor molecule, donor type, donor heavy atom, donor atom, acceptor molecule, acceptor atom, score
      L1  H    21    47       P1  7948  1.00
      P1  H  7997  8009       L1    16  1.00

> <Gold.PLP.Chemscore.Internal.Correction>
1.1306

> <Gold.Rescore>
     Score         DG    S(hbond)    S(metal)    S(lipo)     H(rot)  DE(clash)    DE(int)     intcor
     11.93     -16.17       1.99        0.00     108.91       3.40       0.06       4.19       ----

> <Gold.Chemscore.Fitness>
11.9300

> <Gold.Chemscore.DG>
-16.1717

> <Gold.Chemscore.ZeroCoef>
-5.4800

> <Gold.Chemscore.Hbond>
1.9917

> <Gold.Chemscore.Metal>
0.0000

> <Gold.Chemscore.Lipo>
108.9083

> <Gold.Chemscore.Internal_Hbond>
0.0000

> <Gold.Chemscore.DEClash>
0.0562

> <Gold.Chemscore.DEInternal>
4.1856

> <Gold.Chemscore.Rot>
3.3995

> <Gold.Chemscore.Internal.Correction>
   9.000000E+99

> <Gold.Chemscore.Hbonds>
donor molecule, donor type, donor heavy atom, donor atom, acceptor molecule, acceptor atom, score
      L1  H    21    47       P1  7948  0.97
      P1  H  7997  8009       L1    16  0.89

> <Gold.Chemscore.Hbond.Weighted>
-6.6523

> <Gold.Chemscore.Metal.Weighted>
-0.0000

> <Gold.Chemscore.Lipo.Weighted>
-12.7423

> <Gold.Chemscore.Internal_Hbond.Weighted>
0.0000

> <Gold.Chemscore.DEClash.Weighted>
0.0562

> <Gold.Chemscore.DEInternal.Weighted>
4.1856

> <Gold.Chemscore.Rot.Weighted>
8.7028

> <Gold.Chemscore.Internal.Correction.Weighted>
   9.000000E+99

> <Gold.Protein.RotatedTorsions>
[ 6907 6896 6895 6894 ] final  -37.56 input  -60.11 | X-H torsion
[ 7974 7965 7964 7962 ] final -117.33 input  175.53 | X-H torsion
[ 8008 7997 7996 7995 ] final -151.26 input   59.86 | X-H torsion
[ 10167 10162 10161 10158 ] final  128.53 input  -65.29 | X-H torsion
[ 10718 10713 10712 10709 ] final  158.20 input   66.30 | X-H torsion
[ 10763 10752 10751 10750 ] final  105.24 input  -60.55 | X-H torsion
[ 11005 11000 10999 10996 ] final -148.94 input  -57.11 | X-H torsion

> <Gold.Protein.ActiveResidues>
 VAL166  LYS551  ARG553  GLY616  TRP617  ASP618  TYR619  PRO620  LYS621  CYS622 
 ASP623  PHE694  ASN695  SER759  ASP760  ASP761  ALA762  ILE779  LEU786  VAL792 
 PHE793  MET794  SER795  GLU796  ALA797  LYS798  CYS799  TRP800  GLU811  SER814 

> <Gold.Protein.RotatedAtoms>
  151.0132  134.9413  159.8018 H   0  0  0  0  0  0  0  0  0  0  0  0  # atno 6907 bound_to 6896
  152.5307  134.3001  159.9085 H   0  0  0  0  0  0  0  0  0  0  0  0  # atno 6908 bound_to 6896
  151.3007  133.4082  159.2674 H   0  0  0  0  0  0  0  0  0  0  0  0  # atno 6909 bound_to 6896
  145.0865  140.8461  143.4008 H   0  0  0  0  0  0  0  0  0  0  0  0  # atno 7974 bound_to 7965
  155.6366  140.0697  157.2632 H   0  0  0  0  0  0  0  0  0  0  0  0  # atno 8008 bound_to 7997
  154.4193  140.1758  156.1578 H   0  0  0  0  0  0  0  0  0  0  0  0  # atno 8009 bound_to 7997
  155.9889  140.3347  155.6737 H   0  0  0  0  0  0  0  0  0  0  0  0  # atno 8010 bound_to 7997
  139.5522  144.6822  151.4288 H   0  0  0  0  0  0  0  0  0  0  0  0  # atno 10167 bound_to 10162
  157.1810  131.0632  151.2131 H   0  0  0  0  0  0  0  0  0  0  0  0  # atno 10718 bound_to 10713
  153.3766  135.3916  155.1827 H   0  0  0  0  0  0  0  0  0  0  0  0  # atno 10763 bound_to 10752
  154.8702  135.3715  154.4909 H   0  0  0  0  0  0  0  0  0  0  0  0  # atno 10764 bound_to 10752
  153.5382  135.7085  153.5710 H   0  0  0  0  0  0  0  0  0  0  0  0  # atno 10765 bound_to 10752
  140.7559  134.3353  157.5114 H   0  0  0  0  0  0  0  0  0  0  0  0  # atno 11005 bound_to 11000
  145.1117  139.2753  143.5634 LP  0  0  0  0  0  0  0  0  0  0  0  0  # atno 17320 bound_to 7965
  146.3531  140.0714  142.8623 LP  0  0  0  0  0  0  0  0  0  0  0  0  # atno 17321 bound_to 7965
  140.6788  143.8130  150.7093 LP  0  0  0  0  0  0  0  0  0  0  0  0  # atno 17342 bound_to 10162
  140.1576  143.4303  152.2088 LP  0  0  0  0  0  0  0  0  0  0  0  0  # atno 17343 bound_to 10162
  157.3952  130.7303  149.6726 LP  0  0  0  0  0  0  0  0  0  0  0  0  # atno 17370 bound_to 10713
  155.9724  130.4135  150.4088 LP  0  0  0  0  0  0  0  0  0  0  0  0  # atno 17371 bound_to 10713
  139.8779  134.9172  156.3172 LP  0  0  0  0  0  0  0  0  0  0  0  0  # atno 17394 bound_to 11000
  140.9707  133.7329  156.0531 LP  0  0  0  0  0  0  0  0  0  0  0  0  # atno 17395 bound_to 11000

$$$$
