AV-unprocessed.smi:2594|AV-procd|sdf|10167|dock7
  -GOLD-   2272014183D 1   1.00000     0.00000
 Structure written by MMmdl.
 29 30  0  0  0  0  0  0  0  0  1 V2000
  153.4209  139.5522  158.2071 O   0  0  0  0  0  0  0  0  0  0  0  0
  152.3058  140.0217  158.4408 C   0  0  0  0  0  0  0  0  0  0  0  0
  151.0382  139.3635  157.8794 C   0  0  0  0  0  0  0  0  0  0  0  0
  150.3841  140.1600  156.8401 N   0  0  0  0  0  0  0  0  0  0  0  0
  149.2103  140.7759  157.1451 N   0  0  0  0  0  0  0  0  0  0  0  0
  148.7475  141.4265  156.1429 C   0  0  0  0  0  0  0  0  0  0  0  0
  149.7142  141.3717  154.6632 S   0  0  0  0  0  0  0  0  0  0  0  0
  150.8703  140.3385  155.5479 C   0  0  0  0  0  0  0  0  0  0  0  0
  151.9012  139.8913  155.0488 O   0  0  0  0  0  0  0  0  0  0  0  0
  152.1126  141.1074  159.2046 N   0  0  0  0  0  0  0  0  0  0  0  0
  153.1688  141.8755  159.8535 C   0  0  0  0  0  0  0  0  0  0  0  0
  152.8278  143.3738  159.9069 C   0  0  1  0  0  0  0  0  0  0  0  0
  152.8671  144.0628  158.5452 C   0  0  0  0  0  0  0  0  0  0  0  0
  151.9822  145.2635  158.7910 C   0  0  0  0  0  0  0  0  0  0  0  0
  150.8986  144.6806  159.6954 C   0  0  0  0  0  0  0  0  0  0  0  0
  151.4933  143.5717  160.3667 O   0  0  0  0  0  0  0  0  0  0  0  0
  151.3031  138.3798  157.4880 H   0  0  0  0  0  0  0  0  0  0  0  0
  150.3297  139.1903  158.6911 H   0  0  0  0  0  0  0  0  0  0  0  0
  147.8231  142.0033  156.1217 H   0  0  0  0  0  0  0  0  0  0  0  0
  151.1643  141.4200  159.3551 H   0  0  0  0  0  0  0  0  0  0  0  0
  153.3407  141.4908  160.8602 H   0  0  0  0  0  0  0  0  0  0  0  0
  154.0961  141.7212  159.3009 H   0  0  0  0  0  0  0  0  0  0  0  0
  153.5026  143.8978  160.5861 H   0  0  0  0  0  0  0  0  0  0  0  0
  153.8766  144.3314  158.2334 H   0  0  0  0  0  0  0  0  0  0  0  0
  152.4273  143.4259  157.7760 H   0  0  0  0  0  0  0  0  0  0  0  0
  152.5411  146.0340  159.3234 H   0  0  0  0  0  0  0  0  0  0  0  0
  151.5851  145.7011  157.8747 H   0  0  0  0  0  0  0  0  0  0  0  0
  150.5169  145.4150  160.4052 H   0  0  0  0  0  0  0  0  0  0  0  0
  150.0591  144.3151  159.1028 H   0  0  0  0  0  0  0  0  0  0  0  0
  1  2  2  0  0  0  0
  2  3  1  0  0  0  0
  2 10  1  0  0  0  0
  3  4  1  0  0  0  0
  3 17  1  0  0  0  0
  3 18  1  0  0  0  0
  4  8  1  0  0  0  0
  4  5  1  0  0  0  0
  5  6  2  0  0  0  0
  6  7  1  0  0  0  0
  6 19  1  0  0  0  0
  7  8  1  0  0  0  0
  8  9  2  0  0  0  0
 10 11  1  0  0  0  0
 10 20  1  0  0  0  0
 11 12  1  0  0  0  0
 11 21  1  0  0  0  0
 11 22  1  0  0  0  0
 12 16  1  0  0  0  0
 12 13  1  0  0  0  0
 12 23  1  0  0  0  0
 13 14  1  0  0  0  0
 13 24  1  0  0  0  0
 13 25  1  0  0  0  0
 14 15  1  0  0  0  0
 14 26  1  0  0  0  0
 14 27  1  0  0  0  0
 15 16  1  0  0  0  0
 15 28  1  0  0  0  0
 15 29  1  0  0  0  0
M  END
> <s_m_source_file>
AV-unprocessed.smi

> <i_m_source_file_index>
2594

> <i_lp_mmshare_version>
43012

> <i_f3d_flags>
0

> <s_epik_input>
TzFbQ0gyXVtDSDJdW0NIMl1bQ0BIXTFbQ0gyXVtOSF1DKD1PKVtDSDJdbjJuW2NIXXNjMj1P

> <s_epik_cmdline>
J2VwaWtfcHl0aG9uJywgJy1waCcsICc3LjAnLCAnLXRuJywgJzgnLCAnLW1hJywgJzIwMCcsICctbWV0YWxfYmluZGluZycsICctaW1hZScsICc8aW5maWxlLm1hZT4nLCAnLW9tYWUnLCAnPG91dGZpbGUubWFlPic=

> <r_lp_tautomer_probability>
1

> <r_epik_Ionization_Penalty>
2.49222e-07

> <r_epik_Ionization_Penalty_Charging>
1.4085e-08

> <r_epik_Ionization_Penalty_Neutral>
2.35137e-07

> <r_epik_State_Penalty>
-0

> <r_epik_Charging_Adjusted_Penalty>
1.4085e-08

> <i_epik_Tot_Q>
0

> <i_epik_Tot_abs_Q>
0

> <r_epik_Metal_State_Penalty>
-0

> <b_epik_Metal_Only>
0

> <s_lp_Force_Field>
OPLS_2005

> <r_lp_Energy>
18.288

> <b_lp_Chiralities_Consistent>
1

> <s_lp_Variant>
AV-unprocessed.smi:2594-2

> <Gold.Version>
5.8.1

> <Gold.Id.Protein>
6NUR|6NUR_protein|mol2

> <Gold.PLP.Fitness>
40.7897

> <Gold.PLP.PLP>
-35.7188

> <Gold.PLP.part.hbond>
-2.0831

> <Gold.PLP.part.metal>
0.0000

> <Gold.PLP.part.buried>
-5.0873

> <Gold.PLP.part.nonpolar>
-28.4162

> <Gold.PLP.part.repulsive>
0.2907

> <Gold.PLP.ligand.clash>
0.0000

> <Gold.PLP.ligand.torsion>
0.4720

> <Gold.PLP.Chemscore.Hbond>
2.0000

> <Gold.PLP.Chemscore.CHOScore>
0.0000

> <Gold.PLP.Chemscore.Metal>
0.0000

> <Gold.Chemscore.Hbonds>
donor molecule, donor type, donor heavy atom, donor atom, acceptor molecule, acceptor atom, score
      P1  H  7989  7998       L1     9  0.55
      P1  H  7997  8010       L1     1  1.00

> <Gold.PLP.Chemscore.Internal.Correction>
0.0149

> <Gold.Rescore>
     Score         DG    S(hbond)    S(metal)    S(lipo)     H(rot)  DE(clash)    DE(int)     intcor
     15.42     -15.76       1.99        0.00      74.63       2.00       0.01       0.33       ----

> <Gold.Chemscore.Fitness>
15.4183

> <Gold.Chemscore.DG>
-15.7595

> <Gold.Chemscore.ZeroCoef>
-5.4800

> <Gold.Chemscore.Hbond>
1.9926

> <Gold.Chemscore.Metal>
0.0000

> <Gold.Chemscore.Lipo>
74.6326

> <Gold.Chemscore.Internal_Hbond>
0.0000

> <Gold.Chemscore.DEClash>
0.0149

> <Gold.Chemscore.DEInternal>
0.3264

> <Gold.Chemscore.Rot>
1.9952

> <Gold.Chemscore.Internal.Correction>
   9.000000E+99

> <Gold.Chemscore.Hbonds>
donor molecule, donor type, donor heavy atom, donor atom, acceptor molecule, acceptor atom, score
      P1  H  7989  7998       L1     9  0.04
      P1  H  7997  8010       L1     1  0.99

> <Gold.Chemscore.Hbond.Weighted>
-6.6552

> <Gold.Chemscore.Metal.Weighted>
-0.0000

> <Gold.Chemscore.Lipo.Weighted>
-8.7320

> <Gold.Chemscore.Internal_Hbond.Weighted>
0.0000

> <Gold.Chemscore.DEClash.Weighted>
0.0149

> <Gold.Chemscore.DEInternal.Weighted>
0.3264

> <Gold.Chemscore.Rot.Weighted>
5.1077

> <Gold.Chemscore.Internal.Correction.Weighted>
   9.000000E+99

> <Gold.Protein.RotatedTorsions>
[ 6907 6896 6895 6894 ] final  -30.98 input  -60.11 | X-H torsion
[ 7974 7965 7964 7962 ] final   19.70 input  175.53 | X-H torsion
[ 8008 7997 7996 7995 ] final   42.78 input   59.86 | X-H torsion
[ 10167 10162 10161 10158 ] final  121.14 input  -65.29 | X-H torsion
[ 10718 10713 10712 10709 ] final   28.72 input   66.30 | X-H torsion
[ 10763 10752 10751 10750 ] final  164.76 input  -60.55 | X-H torsion
[ 11005 11000 10999 10996 ] final  -96.44 input  -57.11 | X-H torsion

> <Gold.Protein.ActiveResidues>
 VAL166  LYS551  ARG553  GLY616  TRP617  ASP618  TYR619  PRO620  LYS621  CYS622 
 ASP623  PHE694  ASN695  SER759  ASP760  ASP761  ALA762  ILE779  LEU786  VAL792 
 PHE793  MET794  SER795  GLU796  ALA797  LYS798  CYS799  TRP800  GLU811  SER814 

> <Gold.Protein.RotatedAtoms>
  151.0982  134.9957  159.8435 H   0  0  0  0  0  0  0  0  0  0  0  0  # atno 6907 bound_to 6896
  152.5435  134.1982  159.8711 H   0  0  0  0  0  0  0  0  0  0  0  0  # atno 6908 bound_to 6896
  151.2023  133.4559  159.2630 H   0  0  0  0  0  0  0  0  0  0  0  0  # atno 6909 bound_to 6896
  146.2139  139.8275  142.8667 H   0  0  0  0  0  0  0  0  0  0  0  0  # atno 7974 bound_to 7965
  155.2919  140.3379  155.4252 H   0  0  0  0  0  0  0  0  0  0  0  0  # atno 8008 bound_to 7997
  156.2042  140.1744  156.7875 H   0  0  0  0  0  0  0  0  0  0  0  0  # atno 8009 bound_to 7997
  154.5598  140.0689  156.8786 H   0  0  0  0  0  0  0  0  0  0  0  0  # atno 8010 bound_to 7997
  139.5938  144.7034  151.3226 H   0  0  0  0  0  0  0  0  0  0  0  0  # atno 10167 bound_to 10162
  157.2371  130.7051  149.6341 H   0  0  0  0  0  0  0  0  0  0  0  0  # atno 10718 bound_to 10713
  154.3137  135.2757  155.2553 H   0  0  0  0  0  0  0  0  0  0  0  0  # atno 10763 bound_to 10752
  154.4937  135.5827  153.6482 H   0  0  0  0  0  0  0  0  0  0  0  0  # atno 10764 bound_to 10752
  152.9885  135.6141  154.3317 H   0  0  0  0  0  0  0  0  0  0  0  0  # atno 10765 bound_to 10752
  141.1411  133.8098  157.0571 H   0  0  0  0  0  0  0  0  0  0  0  0  # atno 11005 bound_to 11000
  145.3031  141.0200  143.3597 LP  0  0  0  0  0  0  0  0  0  0  0  0  # atno 17320 bound_to 7965
  144.8991  139.4673  143.6641 LP  0  0  0  0  0  0  0  0  0  0  0  0  # atno 17321 bound_to 7965
  140.7195  143.7175  150.7721 LP  0  0  0  0  0  0  0  0  0  0  0  0  # atno 17342 bound_to 10162
  140.0737  143.5036  152.2566 LP  0  0  0  0  0  0  0  0  0  0  0  0  # atno 17343 bound_to 10162
  155.9672  130.4470  150.5562 LP  0  0  0  0  0  0  0  0  0  0  0  0  # atno 17370 bound_to 10713
  157.3417  131.0718  151.1783 LP  0  0  0  0  0  0  0  0  0  0  0  0  # atno 17371 bound_to 10713
  140.0595  134.9763  157.1279 LP  0  0  0  0  0  0  0  0  0  0  0  0  # atno 17394 bound_to 11000
  140.3870  134.2225  155.7168 LP  0  0  0  0  0  0  0  0  0  0  0  0  # atno 17395 bound_to 11000

$$$$
