AV-unprocessed.smi:249|AV-procd|sdf|1898|dock10
  -GOLD-   2262020573D 1   1.00000     0.00000
 Structure written by MMmdl.
 64 67  0  0  0  0  0  0  0  0  2 V2000
  147.9027  133.6888  154.2182 C   0  0  0  0  0  0  0  0  0  0  0  0
  146.7646  134.6944  153.9788 C   0  0  0  0  0  0  0  0  0  0  0  0
  147.2281  136.1104  153.9014 N   0  3  2  0  0  0  0  0  0  0  0  0
  147.7694  136.5888  155.2063 C   0  0  0  0  0  0  0  0  0  0  0  0
  148.3707  137.9966  155.1027 C   0  0  0  0  0  0  0  0  0  0  0  0
  147.3214  138.9971  154.5921 C   0  0  1  0  0  0  0  0  0  0  0  0
  147.8081  140.3828  154.5492 N   0  0  0  0  0  0  0  0  0  0  0  0
  147.0293  141.3409  153.7726 C   0  0  0  0  0  0  0  0  0  0  0  0
  148.3249  140.8996  155.6896 C   0  0  0  0  0  0  0  0  0  0  0  0
  147.5018  141.4727  156.6067 N   0  0  0  0  0  0  0  0  0  0  0  0
  148.0080  141.9764  157.7367 C   0  0  0  0  0  0  0  0  0  0  0  0
  149.2802  142.0113  158.1384 N   0  0  0  0  0  0  0  0  0  0  0  0
  150.1086  141.4452  157.2144 C   0  0  0  0  0  0  0  0  0  0  0  0
  149.7167  140.8726  155.9726 C   0  0  0  0  0  0  0  0  0  0  0  0
  150.8314  140.3975  155.2928 N   0  0  0  0  0  0  0  0  0  0  0  0
  151.8282  140.6715  156.0900 C   0  0  0  0  0  0  0  0  0  0  0  0
  151.4828  141.2924  157.2692 N   0  0  0  0  0  0  0  0  0  0  0  0
  152.3882  141.7024  158.3285 C   0  0  0  0  0  0  0  0  0  0  0  0
  151.9950  143.0511  158.9805 C   0  0  2  0  0  0  0  0  0  0  0  0
  152.1667  144.2551  158.0217 C   0  0  0  0  0  0  0  0  0  0  0  0
  151.6617  143.9675  156.7339 O   0  0  0  0  0  0  0  0  0  0  0  0
  152.7277  143.2672  160.3287 C   0  0  2  0  0  0  0  0  0  0  0  0
  152.8283  142.0320  161.2065 C   0  0  0  0  0  0  0  0  0  0  0  0
  153.1419  142.6364  162.5700 C   0  0  0  0  0  0  0  0  0  0  0  0
  152.4427  143.8746  162.6042 O   0  0  0  0  0  0  0  0  0  0  0  0
  152.0309  144.2376  161.2896 C   0  0  0  0  0  0  0  0  0  0  0  0
  146.7777  138.4858  153.2459 C   0  0  0  0  0  0  0  0  0  0  0  0
  146.2018  137.0577  153.3544 C   0  0  1  0  0  0  0  0  0  0  0  0
  145.6623  136.6416  151.9699 C   0  0  0  0  0  0  0  0  0  0  0  0
  147.5382  132.6682  154.0980 H   0  0  0  0  0  0  0  0  0  0  0  0
  148.3144  133.7572  155.2246 H   0  0  0  0  0  0  0  0  0  0  0  0
  148.7150  133.8329  153.5051 H   0  0  0  0  0  0  0  0  0  0  0  0
  146.3019  134.3953  153.0412 H   0  0  0  0  0  0  0  0  0  0  0  0
  145.9990  134.5940  154.7493 H   0  0  0  0  0  0  0  0  0  0  0  0
  146.9770  136.5749  155.9567 H   0  0  0  0  0  0  0  0  0  0  0  0
  148.5535  135.9251  155.5662 H   0  0  0  0  0  0  0  0  0  0  0  0
  148.7427  138.2985  156.0819 H   0  0  0  0  0  0  0  0  0  0  0  0
  149.2328  137.9705  154.4354 H   0  0  0  0  0  0  0  0  0  0  0  0
  146.4897  138.9958  155.2980 H   0  0  0  0  0  0  0  0  0  0  0  0
  147.5887  142.2665  153.6308 H   0  0  0  0  0  0  0  0  0  0  0  0
  146.0873  141.5829  154.2655 H   0  0  0  0  0  0  0  0  0  0  0  0
  146.8023  140.9349  152.7866 H   0  0  0  0  0  0  0  0  0  0  0  0
  147.2917  142.4147  158.4160 H   0  0  0  0  0  0  0  0  0  0  0  0
  152.8499  140.4230  155.8413 H   0  0  0  0  0  0  0  0  0  0  0  0
  152.4015  140.9061  159.0729 H   0  0  0  0  0  0  0  0  0  0  0  0
  153.3990  141.7594  157.9229 H   0  0  0  0  0  0  0  0  0  0  0  0
  150.9285  142.9911  159.2035 H   0  0  0  0  0  0  0  0  0  0  0  0
  151.6607  145.1402  158.4071 H   0  0  0  0  0  0  0  0  0  0  0  0
  153.2175  144.5293  157.9290 H   0  0  0  0  0  0  0  0  0  0  0  0
  150.8054  144.3586  156.6509 H   0  0  0  0  0  0  0  0  0  0  0  0
  153.7389  143.6323  160.1402 H   0  0  0  0  0  0  0  0  0  0  0  0
  151.8726  141.5066  161.2398 H   0  0  0  0  0  0  0  0  0  0  0  0
  153.5944  141.3291  160.8775 H   0  0  0  0  0  0  0  0  0  0  0  0
  152.8476  141.9868  163.3945 H   0  0  0  0  0  0  0  0  0  0  0  0
  154.2102  142.8376  162.6599 H   0  0  0  0  0  0  0  0  0  0  0  0
  152.2759  145.2785  161.0772 H   0  0  0  0  0  0  0  0  0  0  0  0
  150.9470  144.1289  161.2325 H   0  0  0  0  0  0  0  0  0  0  0  0
  146.0015  139.1650  152.8913 H   0  0  0  0  0  0  0  0  0  0  0  0
  147.5659  138.4912  152.4912 H   0  0  0  0  0  0  0  0  0  0  0  0
  145.3618  137.0813  154.0508 H   0  0  0  0  0  0  0  0  0  0  0  0
  145.0472  137.4323  151.5386 H   0  0  0  0  0  0  0  0  0  0  0  0
  145.0236  135.7605  152.0193 H   0  0  0  0  0  0  0  0  0  0  0  0
  146.4735  136.4408  151.2692 H   0  0  0  0  0  0  0  0  0  0  0  0
  147.9980  136.1212  153.2477 H   0  0  0  0  0  0  0  0  0  0  0  0
  1  2  1  0  0  0  0
  1 30  1  0  0  0  0
  1 31  1  0  0  0  0
  1 32  1  0  0  0  0
  2  3  1  0  0  0  0
  2 33  1  0  0  0  0
  2 34  1  0  0  0  0
  3 28  1  0  0  0  0
  3  4  1  0  0  0  0
  3 64  1  0  0  0  0
  4  5  1  0  0  0  0
  4 35  1  0  0  0  0
  4 36  1  0  0  0  0
  5  6  1  0  0  0  0
  5 37  1  0  0  0  0
  5 38  1  0  0  0  0
  6  7  1  0  0  0  0
  6 27  1  0  0  0  0
  6 39  1  0  0  0  0
  7  8  1  0  0  0  0
  7  9  1  0  0  0  0
  8 40  1  0  0  0  0
  8 41  1  0  0  0  0
  8 42  1  0  0  0  0
  9 14  1  0  0  0  0
  9 10  2  0  0  0  0
 10 11  1  0  0  0  0
 11 12  2  0  0  0  0
 11 43  1  0  0  0  0
 12 13  1  0  0  0  0
 13 17  1  0  0  0  0
 13 14  2  0  0  0  0
 14 15  1  0  0  0  0
 15 16  2  0  0  0  0
 16 17  1  0  0  0  0
 16 44  1  0  0  0  0
 17 18  1  0  0  0  0
 18 19  1  0  0  0  0
 18 45  1  0  0  0  0
 18 46  1  0  0  0  0
 19 20  1  0  0  0  0
 19 22  1  0  0  0  0
 19 47  1  0  0  0  0
 20 21  1  0  0  0  0
 20 48  1  0  0  0  0
 20 49  1  0  0  0  0
 21 50  1  0  0  0  0
 22 26  1  0  0  0  0
 22 23  1  0  0  0  0
 22 51  1  0  0  0  0
 23 24  1  0  0  0  0
 23 52  1  0  0  0  0
 23 53  1  0  0  0  0
 24 25  1  0  0  0  0
 24 54  1  0  0  0  0
 24 55  1  0  0  0  0
 25 26  1  0  0  0  0
 26 56  1  0  0  0  0
 26 57  1  0  0  0  0
 27 28  1  0  0  0  0
 27 58  1  0  0  0  0
 27 59  1  0  0  0  0
 28 29  1  0  0  0  0
 28 60  1  0  0  0  0
 29 61  1  0  0  0  0
 29 62  1  0  0  0  0
 29 63  1  0  0  0  0
M  CHG  1   3   1
M  END
> <s_m_source_file>
AV-unprocessed.smi

> <i_m_source_file_index>
249

> <i_lp_mmshare_version>
43012

> <i_f3d_flags>
0

> <s_epik_input>
W0NIM11bQ0gyXU4xW0NIMl1bQ0gyXVtDQEhdKFtDSDJdW0NASF0xW0NIM10pTihbQ0gzXSljKG5bY0hdbjIpYyhjMjMpbltjSF1uM1tDSDJdW0NASF0oW0NIMl1bT0hdKVtDQEBIXTRbQ0gyXVtDSDJdT1tDSDJdNA==

> <s_epik_cmdline>
J2VwaWtfcHl0aG9uJywgJy1waCcsICc3LjAnLCAnLXRuJywgJzgnLCAnLW1hJywgJzIwMCcsICctbWV0YWxfYmluZGluZycsICctaW1hZScsICc8aW5maWxlLm1hZT4nLCAnLW9tYWUnLCAnPG91dGZpbGUubWFlPic=

> <r_lp_tautomer_probability>
1

> <r_epik_Ionization_Penalty>
0.00294688

> <r_epik_Ionization_Penalty_Charging>
0.00169971

> <r_epik_Ionization_Penalty_Neutral>
0.00124717

> <r_epik_State_Penalty>
-0

> <r_epik_Charging_Adjusted_Penalty>
0.00169971

> <i_epik_Tot_Q>
1

> <i_epik_Tot_abs_Q>
1

> <r_epik_Metal_State_Penalty>
-0

> <b_epik_Metal_Only>
0

> <s_lp_Force_Field>
OPLS_2005

> <r_lp_Energy>
53.6814

> <b_lp_Chiralities_Consistent>
1

> <s_lp_Variant>
AV-unprocessed.smi:249-1

> <Gold.Version>
5.8.1

> <Gold.Id.Protein>
6NUR|6NUR_protein|mol2

> <Gold.PLP.Fitness>
56.5606

> <Gold.PLP.PLP>
-46.8824

> <Gold.PLP.part.hbond>
-3.0000

> <Gold.PLP.part.metal>
0.0000

> <Gold.PLP.part.buried>
-6.6472

> <Gold.PLP.part.nonpolar>
-38.7002

> <Gold.PLP.part.repulsive>
1.6810

> <Gold.PLP.ligand.clash>
0.0000

> <Gold.PLP.ligand.torsion>
1.3489

> <Gold.PLP.Chemscore.Hbond>
3.8432

> <Gold.PLP.Chemscore.CHOScore>
0.0000

> <Gold.PLP.Chemscore.Metal>
0.0000

> <Gold.Chemscore.Hbonds>
donor molecule, donor type, donor heavy atom, donor atom, acceptor molecule, acceptor atom, score
      L1  H     3    64       P1  7948  2.00
      L1  H    21    50       P1  8028  0.68
      P1  H  7989  7998       L1    15  1.00

> <Gold.PLP.Chemscore.Internal.Correction>
0.8464

> <Gold.Rescore>
     Score         DG    S(hbond)    S(metal)    S(lipo)     H(rot)  DE(clash)    DE(int)     intcor
     13.66     -19.54       2.04        0.00     125.23       2.90       1.00       4.87       ----

> <Gold.Chemscore.Fitness>
13.6636

> <Gold.Chemscore.DG>
-19.5356

> <Gold.Chemscore.ZeroCoef>
-5.4800

> <Gold.Chemscore.Hbond>
2.0445

> <Gold.Chemscore.Metal>
0.0000

> <Gold.Chemscore.Lipo>
125.2347

> <Gold.Chemscore.Internal_Hbond>
0.0000

> <Gold.Chemscore.DEClash>
1.0010

> <Gold.Chemscore.DEInternal>
4.8710

> <Gold.Chemscore.Rot>
2.9006

> <Gold.Chemscore.Internal.Correction>
   9.000000E+99

> <Gold.Chemscore.Hbonds>
donor molecule, donor type, donor heavy atom, donor atom, acceptor molecule, acceptor atom, score
      L1  H     3    64       P1  7948  1.00
      L1  H    21    50       P1  8028  0.65
      P1  H  7989  7998       L1    15  0.27

> <Gold.Chemscore.Hbond.Weighted>
-6.8288

> <Gold.Chemscore.Metal.Weighted>
-0.0000

> <Gold.Chemscore.Lipo.Weighted>
-14.6525

> <Gold.Chemscore.Internal_Hbond.Weighted>
0.0000

> <Gold.Chemscore.DEClash.Weighted>
1.0010

> <Gold.Chemscore.DEInternal.Weighted>
4.8710

> <Gold.Chemscore.Rot.Weighted>
7.4256

> <Gold.Chemscore.Internal.Correction.Weighted>
   9.000000E+99

> <Gold.Protein.RotatedTorsions>
[ 6907 6896 6895 6894 ] final   11.71 input  -60.11 | X-H torsion
[ 7974 7965 7964 7962 ] final  124.28 input  175.53 | X-H torsion
[ 8008 7997 7996 7995 ] final -162.89 input   59.86 | X-H torsion
[ 10167 10162 10161 10158 ] final  129.91 input  -65.29 | X-H torsion
[ 10718 10713 10712 10709 ] final   68.79 input   66.30 | X-H torsion
[ 10763 10752 10751 10750 ] final -156.43 input  -60.55 | X-H torsion
[ 11005 11000 10999 10996 ] final -102.89 input  -57.11 | X-H torsion

> <Gold.Protein.ActiveResidues>
 VAL166  LYS551  ARG553  GLY616  TRP617  ASP618  TYR619  PRO620  LYS621  CYS622 
 ASP623  PHE694  ASN695  SER759  ASP760  ASP761  ALA762  ILE779  LEU786  VAL792 
 PHE793  MET794  SER795  GLU796  ALA797  LYS798  CYS799  TRP800  GLU811  SER814 

> <Gold.Protein.RotatedAtoms>
  151.7587  135.0815  160.0341 H   0  0  0  0  0  0  0  0  0  0  0  0  # atno 6907 bound_to 6896
  152.3368  133.6016  159.5856 H   0  0  0  0  0  0  0  0  0  0  0  0  # atno 6908 bound_to 6896
  150.7455  133.9700  159.3584 H   0  0  0  0  0  0  0  0  0  0  0  0  # atno 6909 bound_to 6896
  145.0863  139.3620  143.4883 H   0  0  0  0  0  0  0  0  0  0  0  0  # atno 7974 bound_to 7965
  155.8134  140.0909  157.1891 H   0  0  0  0  0  0  0  0  0  0  0  0  # atno 8008 bound_to 7997
  154.3979  140.1450  156.3473 H   0  0  0  0  0  0  0  0  0  0  0  0  # atno 8009 bound_to 7997
  155.8342  140.3441  155.5593 H   0  0  0  0  0  0  0  0  0  0  0  0  # atno 8010 bound_to 7997
  139.5455  144.6769  151.4488 H   0  0  0  0  0  0  0  0  0  0  0  0  # atno 10167 bound_to 10162
  157.6309  130.9392  150.0425 H   0  0  0  0  0  0  0  0  0  0  0  0  # atno 10718 bound_to 10713
  154.7713  135.3146  154.8183 H   0  0  0  0  0  0  0  0  0  0  0  0  # atno 10763 bound_to 10752
  153.8918  135.6824  153.4764 H   0  0  0  0  0  0  0  0  0  0  0  0  # atno 10764 bound_to 10752
  153.1328  135.4773  154.9310 H   0  0  0  0  0  0  0  0  0  0  0  0  # atno 10765 bound_to 10752
  141.1170  133.8595  157.1417 H   0  0  0  0  0  0  0  0  0  0  0  0  # atno 11005 bound_to 11000
  146.3531  140.0676  142.8625 LP  0  0  0  0  0  0  0  0  0  0  0  0  # atno 17320 bound_to 7965
  145.1119  140.9410  143.4651 LP  0  0  0  0  0  0  0  0  0  0  0  0  # atno 17321 bound_to 7965
  140.6701  143.8312  150.6989 LP  0  0  0  0  0  0  0  0  0  0  0  0  # atno 17342 bound_to 10162
  140.1734  143.4175  152.1985 LP  0  0  0  0  0  0  0  0  0  0  0  0  # atno 17343 bound_to 10162
  156.1512  130.3642  149.9435 LP  0  0  0  0  0  0  0  0  0  0  0  0  # atno 17370 bound_to 10713
  156.7454  130.9095  151.3634 LP  0  0  0  0  0  0  0  0  0  0  0  0  # atno 17371 bound_to 10713
  140.0098  134.9993  157.0372 LP  0  0  0  0  0  0  0  0  0  0  0  0  # atno 17394 bound_to 11000
  140.4618  134.1476  155.7192 LP  0  0  0  0  0  0  0  0  0  0  0  0  # atno 17395 bound_to 11000

$$$$
