AV-unprocessed.smi:262|AV-procd|sdf|1999|dock5
  -GOLD-   2262021193D 1   1.00000     0.00000
 Structure written by MMmdl.
 60 64  0  0  0  0  0  0  0  0  2 V2000
  146.1250  137.3264  151.1343 O   0  0  0  0  0  0  0  0  0  0  0  0
  145.6069  136.4052  152.0790 C   0  0  0  0  0  0  0  0  0  0  0  0
  145.5763  137.1089  153.4585 C   0  0  0  0  0  0  0  0  0  0  0  0
  146.7020  138.0004  153.6955 N   0  0  0  0  0  0  0  0  0  0  0  0
  146.7705  139.3406  153.3849 C   0  0  0  0  0  0  0  0  0  0  0  0
  147.8918  139.9300  153.7014 N   0  0  0  0  0  0  0  0  0  0  0  0
  148.6491  138.9201  154.2798 C   0  0  0  0  0  0  0  0  0  0  0  0
  149.9512  138.8627  154.8403 C   0  0  0  0  0  0  0  0  0  0  0  0
  150.7482  139.9516  154.9035 N   0  0  0  0  0  0  0  0  0  0  0  0
  150.1465  141.1428  155.4920 C   0  0  0  0  0  0  0  0  0  0  0  0
  150.3963  141.2248  157.0102 C   0  0  0  0  0  0  0  0  0  0  0  0
  151.8412  141.0687  157.3266 N   0  3  0  0  0  0  0  0  0  0  0  0
  152.1583  141.2188  158.7705 C   0  0  0  0  0  0  0  0  0  0  0  0
  151.6842  142.5623  159.3609 C   0  0  2  0  0  0  0  0  0  0  0  0
  152.2011  143.7898  158.6359 C   0  0  0  0  0  0  0  0  0  0  0  0
  152.0011  144.8829  159.6817 C   0  0  0  0  0  0  0  0  0  0  0  0
  152.1355  144.2412  160.9467 O   0  0  0  0  0  0  0  0  0  0  0  0
  152.2020  142.8291  160.7743 C   0  0  0  0  0  0  0  0  0  0  0  0
  152.3925  139.8083  156.7647 C   0  0  0  0  0  0  0  0  0  0  0  0
  152.1449  139.7096  155.2470 C   0  0  0  0  0  0  0  0  0  0  0  0
  150.3848  137.6714  155.3269 N   0  0  0  0  0  0  0  0  0  0  0  0
  149.5871  136.6000  155.2722 C   0  0  0  0  0  0  0  0  0  0  0  0
  148.3483  136.5054  154.7831 N   0  0  0  0  0  0  0  0  0  0  0  0
  147.9161  137.7014  154.2892 C   0  0  0  0  0  0  0  0  0  0  0  0
  144.1796  136.0158  151.6449 C   0  0  0  0  0  0  0  0  0  0  0  0
  144.1736  135.1611  150.3649 C   0  0  0  0  0  0  0  0  0  0  0  0
  144.9895  134.0101  150.5446 O   0  0  0  0  0  0  0  0  0  0  0  0
  146.3552  134.3364  150.7712 C   0  0  0  0  0  0  0  0  0  0  0  0
  146.4981  135.1438  152.0735 C   0  0  0  0  0  0  0  0  0  0  0  0
  147.0685  137.2781  151.1544 H   0  0  0  0  0  0  0  0  0  0  0  0
  144.6576  137.6873  153.5670 H   0  0  0  0  0  0  0  0  0  0  0  0
  145.5598  136.3660  154.2571 H   0  0  0  0  0  0  0  0  0  0  0  0
  145.9569  139.8702  152.9102 H   0  0  0  0  0  0  0  0  0  0  0  0
  150.5781  142.0157  155.0010 H   0  0  0  0  0  0  0  0  0  0  0  0
  149.0759  141.1700  155.2837 H   0  0  0  0  0  0  0  0  0  0  0  0
  150.0245  142.1839  157.3668 H   0  0  0  0  0  0  0  0  0  0  0  0
  149.8260  140.4551  157.5319 H   0  0  0  0  0  0  0  0  0  0  0  0
  151.7237  140.3868  159.3265 H   0  0  0  0  0  0  0  0  0  0  0  0
  153.2387  141.1453  158.9050 H   0  0  0  0  0  0  0  0  0  0  0  0
  150.5955  142.6036  159.3970 H   0  0  0  0  0  0  0  0  0  0  0  0
  153.2625  143.6811  158.4078 H   0  0  0  0  0  0  0  0  0  0  0  0
  151.6702  143.9952  157.7060 H   0  0  0  0  0  0  0  0  0  0  0  0
  152.7139  145.7004  159.5704 H   0  0  0  0  0  0  0  0  0  0  0  0
  150.9953  145.2984  159.6100 H   0  0  0  0  0  0  0  0  0  0  0  0
  151.6240  142.3078  161.5378 H   0  0  0  0  0  0  0  0  0  0  0  0
  153.2441  142.5216  160.8721 H   0  0  0  0  0  0  0  0  0  0  0  0
  153.4652  139.7553  156.9545 H   0  0  0  0  0  0  0  0  0  0  0  0
  151.9421  138.9579  157.2782 H   0  0  0  0  0  0  0  0  0  0  0  0
  152.4632  138.7345  154.8748 H   0  0  0  0  0  0  0  0  0  0  0  0
  152.7520  140.4507  154.7260 H   0  0  0  0  0  0  0  0  0  0  0  0
  149.9987  135.6875  155.6784 H   0  0  0  0  0  0  0  0  0  0  0  0
  143.7045  135.4430  152.4425 H   0  0  0  0  0  0  0  0  0  0  0  0
  143.5659  136.9061  151.5025 H   0  0  0  0  0  0  0  0  0  0  0  0
  143.1573  134.8370  150.1398 H   0  0  0  0  0  0  0  0  0  0  0  0
  144.5189  135.7363  149.5043 H   0  0  0  0  0  0  0  0  0  0  0  0
  146.9278  133.4116  150.8436 H   0  0  0  0  0  0  0  0  0  0  0  0
  146.7555  134.8887  149.9197 H   0  0  0  0  0  0  0  0  0  0  0  0
  147.5454  135.4051  152.2277 H   0  0  0  0  0  0  0  0  0  0  0  0
  146.2153  134.5023  152.9092 H   0  0  0  0  0  0  0  0  0  0  0  0
  152.3231  141.8177  156.8507 H   0  0  0  0  0  0  0  0  0  0  0  0
  1  2  1  0  0  0  0
  1 30  1  0  0  0  0
  2 29  1  0  0  0  0
  2  3  1  0  0  0  0
  2 25  1  0  0  0  0
  3  4  1  0  0  0  0
  3 31  1  0  0  0  0
  3 32  1  0  0  0  0
  4 24  1  0  0  0  0
  4  5  1  0  0  0  0
  5  6  2  0  0  0  0
  5 33  1  0  0  0  0
  6  7  1  0  0  0  0
  7 24  2  0  0  0  0
  7  8  1  0  0  0  0
  8  9  1  0  0  0  0
  8 21  2  0  0  0  0
  9 20  1  0  0  0  0
  9 10  1  0  0  0  0
 10 11  1  0  0  0  0
 10 34  1  0  0  0  0
 10 35  1  0  0  0  0
 11 12  1  0  0  0  0
 11 36  1  0  0  0  0
 11 37  1  0  0  0  0
 12 13  1  0  0  0  0
 12 19  1  0  0  0  0
 12 60  1  0  0  0  0
 13 14  1  0  0  0  0
 13 38  1  0  0  0  0
 13 39  1  0  0  0  0
 14 18  1  0  0  0  0
 14 15  1  0  0  0  0
 14 40  1  0  0  0  0
 15 16  1  0  0  0  0
 15 41  1  0  0  0  0
 15 42  1  0  0  0  0
 16 17  1  0  0  0  0
 16 43  1  0  0  0  0
 16 44  1  0  0  0  0
 17 18  1  0  0  0  0
 18 45  1  0  0  0  0
 18 46  1  0  0  0  0
 19 20  1  0  0  0  0
 19 47  1  0  0  0  0
 19 48  1  0  0  0  0
 20 49  1  0  0  0  0
 20 50  1  0  0  0  0
 21 22  1  0  0  0  0
 22 23  2  0  0  0  0
 22 51  1  0  0  0  0
 23 24  1  0  0  0  0
 25 26  1  0  0  0  0
 25 52  1  0  0  0  0
 25 53  1  0  0  0  0
 26 27  1  0  0  0  0
 26 54  1  0  0  0  0
 26 55  1  0  0  0  0
 27 28  1  0  0  0  0
 28 29  1  0  0  0  0
 28 56  1  0  0  0  0
 28 57  1  0  0  0  0
 29 58  1  0  0  0  0
 29 59  1  0  0  0  0
M  CHG  1  12   1
M  END
> <s_m_source_file>
AV-unprocessed.smi

> <i_m_source_file_index>
262

> <i_lp_mmshare_version>
43012

> <i_f3d_flags>
0

> <s_epik_input>
W0NIMl0xW0NIMl1PW0NIMl1bQ0gyXUMxKFtPSF0pW0NIMl1uKFtjSF1uMiljKGMyMyluW2NIXW5jM040W0NIMl1bQ0gyXU4oW0NIMl1bQ0gyXTQpW0NIMl1bQ0BASF01W0NIMl1bQ0gyXU9bQ0gyXTU=

> <s_epik_cmdline>
J2VwaWtfcHl0aG9uJywgJy1waCcsICc3LjAnLCAnLXRuJywgJzgnLCAnLW1hJywgJzIwMCcsICctbWV0YWxfYmluZGluZycsICctaW1hZScsICc8aW5maWxlLm1hZT4nLCAnLW9tYWUnLCAnPG91dGZpbGUubWFlPic=

> <r_lp_tautomer_probability>
1

> <r_epik_Ionization_Penalty>
0.010889

> <r_epik_Ionization_Penalty_Charging>
0.0108222

> <r_epik_Ionization_Penalty_Neutral>
6.6801e-05

> <r_epik_State_Penalty>
0.00829663

> <r_epik_Charging_Adjusted_Penalty>
0.0191189

> <i_epik_Tot_Q>
1

> <i_epik_Tot_abs_Q>
1

> <r_epik_Metal_State_Penalty>
0.00842341

> <b_epik_Metal_Only>
0

> <s_lp_Force_Field>
OPLS_2005

> <r_lp_Energy>
57.8888

> <b_lp_Chiralities_Consistent>
1

> <s_lp_Variant>
AV-unprocessed.smi:262-1

> <Gold.Version>
5.8.1

> <Gold.Id.Protein>
6NUR|6NUR_protein|mol2

> <Gold.PLP.Fitness>
49.9397

> <Gold.PLP.PLP>
-45.1990

> <Gold.PLP.part.hbond>
-2.8883

> <Gold.PLP.part.metal>
0.0000

> <Gold.PLP.part.buried>
-3.1721

> <Gold.PLP.part.nonpolar>
-40.3359

> <Gold.PLP.part.repulsive>
2.1436

> <Gold.PLP.ligand.clash>
0.0000

> <Gold.PLP.ligand.torsion>
1.0009

> <Gold.PLP.Chemscore.Hbond>
1.0900

> <Gold.PLP.Chemscore.CHOScore>
1.0000

> <Gold.PLP.Chemscore.Metal>
0.0000

> <Gold.Chemscore.Hbonds>
donor molecule, donor type, donor heavy atom, donor atom, acceptor molecule, acceptor atom, score
      L1  H     1    30       P1  7948  0.50
      L1  C     5    33       P1 10175  1.00

> <Gold.PLP.Chemscore.Internal.Correction>
0.4726

> <Gold.Rescore>
     Score         DG    S(hbond)    S(metal)    S(lipo)     H(rot)  DE(clash)    DE(int)     intcor
     12.11     -13.90       0.95        0.00     100.08       2.53       0.08       1.71       ----

> <Gold.Chemscore.Fitness>
12.1104

> <Gold.Chemscore.DG>
-13.8980

> <Gold.Chemscore.ZeroCoef>
-5.4800

> <Gold.Chemscore.Hbond>
0.9529

> <Gold.Chemscore.Metal>
0.0000

> <Gold.Chemscore.Lipo>
100.0782

> <Gold.Chemscore.Internal_Hbond>
0.0000

> <Gold.Chemscore.DEClash>
0.0821

> <Gold.Chemscore.DEInternal>
1.7056

> <Gold.Chemscore.Rot>
2.5288

> <Gold.Chemscore.Internal.Correction>
   9.000000E+99

> <Gold.Chemscore.Hbonds>
donor molecule, donor type, donor heavy atom, donor atom, acceptor molecule, acceptor atom, score
      L1  H     1    30       P1  7948  0.49

> <Gold.Chemscore.Hbond.Weighted>
-3.1827

> <Gold.Chemscore.Metal.Weighted>
-0.0000

> <Gold.Chemscore.Lipo.Weighted>
-11.7091

> <Gold.Chemscore.Internal_Hbond.Weighted>
0.0000

> <Gold.Chemscore.DEClash.Weighted>
0.0821

> <Gold.Chemscore.DEInternal.Weighted>
1.7056

> <Gold.Chemscore.Rot.Weighted>
6.4738

> <Gold.Chemscore.Internal.Correction.Weighted>
   9.000000E+99

> <Gold.Protein.RotatedTorsions>
[ 6907 6896 6895 6894 ] final  141.66 input  -60.11 | X-H torsion
[ 7974 7965 7964 7962 ] final  -60.55 input  175.53 | X-H torsion
[ 8008 7997 7996 7995 ] final  -21.29 input   59.86 | X-H torsion
[ 10167 10162 10161 10158 ] final  -55.60 input  -65.29 | X-H torsion
[ 10718 10713 10712 10709 ] final  159.10 input   66.30 | X-H torsion
[ 10763 10752 10751 10750 ] final   76.01 input  -60.55 | X-H torsion
[ 11005 11000 10999 10996 ] final   27.89 input  -57.11 | X-H torsion

> <Gold.Protein.ActiveResidues>
 VAL166  LYS551  ARG553  GLY616  TRP617  ASP618  TYR619  PRO620  LYS621  CYS622 
 ASP623  PHE694  ASN695  SER759  ASP760  ASP761  ALA762  ILE779  LEU786  VAL792 
 PHE793  MET794  SER795  GLU796  ALA797  LYS798  CYS799  TRP800  GLU811  SER814 

> <Gold.Protein.RotatedAtoms>
  152.2283  133.5038  159.5200 H   0  0  0  0  0  0  0  0  0  0  0  0  # atno 6907 bound_to 6896
  150.7030  134.1251  159.4058 H   0  0  0  0  0  0  0  0  0  0  0  0  # atno 6908 bound_to 6896
  151.9172  135.0314  160.0570 H   0  0  0  0  0  0  0  0  0  0  0  0  # atno 6909 bound_to 6896
  145.8142  140.8580  143.0166 H   0  0  0  0  0  0  0  0  0  0  0  0  # atno 7974 bound_to 7965
  154.4715  140.2039  155.9983 H   0  0  0  0  0  0  0  0  0  0  0  0  # atno 8008 bound_to 7997
  156.1019  140.3242  155.7923 H   0  0  0  0  0  0  0  0  0  0  0  0  # atno 8009 bound_to 7997
  155.4784  140.0536  157.2961 H   0  0  0  0  0  0  0  0  0  0  0  0  # atno 8010 bound_to 7997
  140.6365  143.2485  151.5104 H   0  0  0  0  0  0  0  0  0  0  0  0  # atno 10167 bound_to 10162
  157.1688  131.0605  151.2193 H   0  0  0  0  0  0  0  0  0  0  0  0  # atno 10718 bound_to 10713
  153.0695  135.4967  154.8273 H   0  0  0  0  0  0  0  0  0  0  0  0  # atno 10763 bound_to 10752
  154.7001  135.3000  154.9355 H   0  0  0  0  0  0  0  0  0  0  0  0  # atno 10764 bound_to 10752
  154.0082  135.6757  153.4816 H   0  0  0  0  0  0  0  0  0  0  0  0  # atno 10765 bound_to 10752
  140.3215  134.2538  155.7716 H   0  0  0  0  0  0  0  0  0  0  0  0  # atno 11005 bound_to 11000
  144.6754  140.0439  143.7480 LP  0  0  0  0  0  0  0  0  0  0  0  0  # atno 17320 bound_to 7965
  145.9745  139.2894  143.1079 LP  0  0  0  0  0  0  0  0  0  0  0  0  # atno 17321 bound_to 7965
  139.5575  144.2238  152.1637 LP  0  0  0  0  0  0  0  0  0  0  0  0  # atno 17342 bound_to 10162
  140.1496  144.5127  150.6695 LP  0  0  0  0  0  0  0  0  0  0  0  0  # atno 17343 bound_to 10162
  157.4062  130.7360  149.6804 LP  0  0  0  0  0  0  0  0  0  0  0  0  # atno 17370 bound_to 10713
  155.9741  130.4107  150.3945 LP  0  0  0  0  0  0  0  0  0  0  0  0  # atno 17371 bound_to 10713
  141.2085  133.7774  157.0052 LP  0  0  0  0  0  0  0  0  0  0  0  0  # atno 17394 bound_to 11000
  140.0938  134.9576  157.1818 LP  0  0  0  0  0  0  0  0  0  0  0  0  # atno 17395 bound_to 11000

$$$$
