AV-unprocessed.smi:188|AV-procd|sdf|1474|dock7
  -GOLD-   2262019293D 1   1.00000     0.00000
 Structure written by MMmdl.
 48 52  0  0  0  0  0  0  0  0  2 V2000
  148.5663  130.6219  158.5781 O   0  0  0  0  0  0  0  0  0  0  0  0
  148.6558  131.7146  158.0229 C   0  0  0  0  0  0  0  0  0  0  0  0
  147.8351  132.0633  157.0281 N   0  0  0  0  0  0  0  0  0  0  0  0
  148.1038  133.2816  156.5697 C   0  0  0  0  0  0  0  0  0  0  0  0
  147.5199  133.8739  155.6630 O   0  0  0  0  0  0  0  0  0  0  0  0
  149.2800  133.8189  157.3811 C   0  0  0  0  0  0  0  0  0  0  0  0
  150.5325  134.0951  156.5141 C   0  0  0  0  0  0  0  0  0  0  0  0
  150.3913  135.3698  155.6616 C   0  0  0  0  0  0  0  0  0  0  0  0
  150.0273  136.5200  156.4913 N   0  0  0  0  0  0  0  0  0  0  0  0
  150.1672  137.7551  155.9453 C   0  0  0  0  0  0  0  0  0  0  0  0
  149.9292  137.9426  154.6190 N   0  0  0  0  0  0  0  0  0  0  0  0
  150.0518  139.1564  154.0748 C   0  0  0  0  0  0  0  0  0  0  0  0
  150.4000  140.3026  154.6620 N   0  0  0  0  0  0  0  0  0  0  0  0
  150.6529  140.1218  155.9893 C   0  0  0  0  0  0  0  0  0  0  0  0
  150.5580  138.8941  156.7054 C   0  0  0  0  0  0  0  0  0  0  0  0
  150.8948  139.0992  158.0383 N   0  0  0  0  0  0  0  0  0  0  0  0
  151.1627  140.3740  158.1081 C   0  0  0  0  0  0  0  0  0  0  0  0
  151.0537  141.0639  156.9214 N   0  0  0  0  0  0  0  0  0  0  0  0
  151.2993  142.4845  156.7202 C   0  0  0  0  0  0  0  0  0  0  0  0
  151.3063  143.3234  158.0145 C   0  0  0  0  0  0  0  0  0  0  0  0
  149.9628  143.1328  158.7496 C   0  0  0  0  0  0  0  0  0  0  0  0
  148.8559  143.1538  157.8703 O   0  0  0  0  0  0  0  0  0  0  0  0
  152.5681  143.2221  158.8847 C   0  0  0  0  0  0  0  0  0  0  0  0
  152.7490  144.6552  158.8906 O   0  0  0  0  0  0  0  0  0  0  0  0
  151.7759  144.7742  157.8301 C   0  0  0  0  0  0  0  0  0  0  0  0
  148.8213  136.3473  157.3007 C   0  0  0  0  0  0  0  0  0  0  0  0
  148.9231  135.0916  158.1875 C   0  0  0  0  0  0  0  0  0  0  0  0
  149.5361  132.7087  158.2865 N   0  5  0  0  0  0  0  0  0  0  0  0
  147.1000  131.4727  156.6693 H   0  0  0  0  0  0  0  0  0  0  0  0
  151.4045  134.2045  157.1612 H   0  0  0  0  0  0  0  0  0  0  0  0
  150.7467  133.2454  155.8639 H   0  0  0  0  0  0  0  0  0  0  0  0
  151.3362  135.5647  155.1525 H   0  0  0  0  0  0  0  0  0  0  0  0
  149.6372  135.2273  154.8870 H   0  0  0  0  0  0  0  0  0  0  0  0
  149.8419  139.2165  153.0172 H   0  0  0  0  0  0  0  0  0  0  0  0
  151.4590  140.8477  159.0327 H   0  0  0  0  0  0  0  0  0  0  0  0
  152.2474  142.5861  156.1907 H   0  0  0  0  0  0  0  0  0  0  0  0
  150.5401  142.8636  156.0348 H   0  0  0  0  0  0  0  0  0  0  0  0
  149.9473  142.1859  159.2903 H   0  0  0  0  0  0  0  0  0  0  0  0
  149.8000  143.9213  159.4846 H   0  0  0  0  0  0  0  0  0  0  0  0
  149.0521  143.7353  157.1517 H   0  0  0  0  0  0  0  0  0  0  0  0
  152.3934  142.8144  159.8811 H   0  0  0  0  0  0  0  0  0  0  0  0
  153.4068  142.7197  158.4017 H   0  0  0  0  0  0  0  0  0  0  0  0
  152.2523  144.9656  156.8672 H   0  0  0  0  0  0  0  0  0  0  0  0
  151.0143  145.5265  158.0382 H   0  0  0  0  0  0  0  0  0  0  0  0
  148.6440  137.2140  157.9363 H   0  0  0  0  0  0  0  0  0  0  0  0
  147.9599  136.2753  156.6364 H   0  0  0  0  0  0  0  0  0  0  0  0
  147.9859  134.9535  158.7291 H   0  0  0  0  0  0  0  0  0  0  0  0
  149.6857  135.2649  158.9486 H   0  0  0  0  0  0  0  0  0  0  0  0
  1  2  2  0  0  0  0
  2 28  1  0  0  0  0
  2  3  1  0  0  0  0
  3  4  1  0  0  0  0
  3 29  1  0  0  0  0
  4  5  2  0  0  0  0
  4  6  1  0  0  0  0
  6 27  1  0  0  0  0
  6  7  1  0  0  0  0
  6 28  1  0  0  0  0
  7  8  1  0  0  0  0
  7 30  1  0  0  0  0
  7 31  1  0  0  0  0
  8  9  1  0  0  0  0
  8 32  1  0  0  0  0
  8 33  1  0  0  0  0
  9 10  1  0  0  0  0
  9 26  1  0  0  0  0
 10 15  1  0  0  0  0
 10 11  2  0  0  0  0
 11 12  1  0  0  0  0
 12 13  2  0  0  0  0
 12 34  1  0  0  0  0
 13 14  1  0  0  0  0
 14 18  1  0  0  0  0
 14 15  2  0  0  0  0
 15 16  1  0  0  0  0
 16 17  2  0  0  0  0
 17 18  1  0  0  0  0
 17 35  1  0  0  0  0
 18 19  1  0  0  0  0
 19 20  1  0  0  0  0
 19 36  1  0  0  0  0
 19 37  1  0  0  0  0
 20 25  1  0  0  0  0
 20 21  1  0  0  0  0
 20 23  1  0  0  0  0
 21 22  1  0  0  0  0
 21 38  1  0  0  0  0
 21 39  1  0  0  0  0
 22 40  1  0  0  0  0
 23 24  1  0  0  0  0
 23 41  1  0  0  0  0
 23 42  1  0  0  0  0
 24 25  1  0  0  0  0
 25 43  1  0  0  0  0
 25 44  1  0  0  0  0
 26 27  1  0  0  0  0
 26 45  1  0  0  0  0
 26 46  1  0  0  0  0
 27 47  1  0  0  0  0
 27 48  1  0  0  0  0
M  CHG  1  28  -1
M  END
> <s_m_source_file>
AV-unprocessed.smi

> <i_m_source_file_index>
188

> <i_lp_mmshare_version>
43012

> <i_f3d_flags>
0

> <s_epik_input>
Tz1DKFtOSF0xKVtOSF1DKD1PKUMxMltDSDJdW0NIMl1OKFtDSDJdW0NIMl0yKWMobltjSF1uMyljKGMzNCluW2NIXW40W0NIMl1DNShbQ0gyXVtPSF0pW0NIMl1PW0NIMl01

> <s_epik_cmdline>
J2VwaWtfcHl0aG9uJywgJy1waCcsICc3LjAnLCAnLXRuJywgJzgnLCAnLW1hJywgJzIwMCcsICctbWV0YWxfYmluZGluZycsICctaW1hZScsICc8aW5maWxlLm1hZT4nLCAnLW9tYWUnLCAnPG91dGZpbGUubWFlPic=

> <r_lp_tautomer_probability>
1

> <r_epik_Ionization_Penalty>
5.87904

> <r_epik_Ionization_Penalty_Charging>
5.87677

> <r_epik_Ionization_Penalty_Neutral>
0.00227107

> <r_epik_State_Penalty>
5.88193

> <r_epik_Charging_Adjusted_Penalty>
11.7587

> <i_epik_Tot_Q>
-1

> <i_epik_Tot_abs_Q>
1

> <r_epik_Metal_State_Penalty>
2.21794

> <b_epik_Metal_Only>
1

> <s_lp_Force_Field>
OPLS_2005

> <r_lp_Energy>
46.2215

> <b_lp_Chiralities_Consistent>
1

> <s_lp_Variant>
AV-unprocessed.smi:188-3

> <Gold.Version>
5.8.1

> <Gold.Id.Protein>
6NUR|6NUR_protein|mol2

> <Gold.PLP.Fitness>
43.6889

> <Gold.PLP.PLP>
-30.5514

> <Gold.PLP.part.hbond>
-4.0000

> <Gold.PLP.part.metal>
0.0000

> <Gold.PLP.part.buried>
-3.0257

> <Gold.PLP.part.nonpolar>
-23.1333

> <Gold.PLP.part.repulsive>
0.3108

> <Gold.PLP.ligand.clash>
0.0000

> <Gold.PLP.ligand.torsion>
1.1185

> <Gold.PLP.Chemscore.Hbond>
3.9000

> <Gold.PLP.Chemscore.CHOScore>
0.9885

> <Gold.PLP.Chemscore.Metal>
0.0000

> <Gold.Chemscore.Hbonds>
donor molecule, donor type, donor heavy atom, donor atom, acceptor molecule, acceptor atom, score
      L1  H    22    40       P1  8028  1.00
      P1  H  6896  6909       L1    28  1.88
      P1  H  7989  7998       L1    13  1.00
      L1  C    12    34       P1  7957  1.00

> <Gold.PLP.Chemscore.Internal.Correction>
0.7089

> <Gold.Rescore>
     Score         DG    S(hbond)    S(metal)    S(lipo)     H(rot)  DE(clash)    DE(int)     intcor
     10.09     -12.49       1.82        0.00      70.10       2.84       0.47       1.93       ----

> <Gold.Chemscore.Fitness>
10.0897

> <Gold.Chemscore.DG>
-12.4926

> <Gold.Chemscore.ZeroCoef>
-5.4800

> <Gold.Chemscore.Hbond>
1.8245

> <Gold.Chemscore.Metal>
0.0000

> <Gold.Chemscore.Lipo>
70.1014

> <Gold.Chemscore.Internal_Hbond>
0.0000

> <Gold.Chemscore.DEClash>
0.4719

> <Gold.Chemscore.DEInternal>
1.9310

> <Gold.Chemscore.Rot>
2.8450

> <Gold.Chemscore.Internal.Correction>
   9.000000E+99

> <Gold.Chemscore.Hbonds>
donor molecule, donor type, donor heavy atom, donor atom, acceptor molecule, acceptor atom, score
      L1  H    22    40       P1  8028  0.35
      P1  H  6896  6909       L1    28  0.20
      P1  H  7989  7998       L1    13  0.25

> <Gold.Chemscore.Hbond.Weighted>
-6.0939

> <Gold.Chemscore.Metal.Weighted>
-0.0000

> <Gold.Chemscore.Lipo.Weighted>
-8.2019

> <Gold.Chemscore.Internal_Hbond.Weighted>
0.0000

> <Gold.Chemscore.DEClash.Weighted>
0.4719

> <Gold.Chemscore.DEInternal.Weighted>
1.9310

> <Gold.Chemscore.Rot.Weighted>
7.2831

> <Gold.Chemscore.Internal.Correction.Weighted>
   9.000000E+99

> <Gold.Protein.RotatedTorsions>
[ 6907 6896 6895 6894 ] final  -27.83 input  -60.11 | X-H torsion
[ 7974 7965 7964 7962 ] final  -21.97 input  175.53 | X-H torsion
[ 8008 7997 7996 7995 ] final  156.92 input   59.86 | X-H torsion
[ 10167 10162 10161 10158 ] final  148.09 input  -65.29 | X-H torsion
[ 10718 10713 10712 10709 ] final  149.18 input   66.30 | X-H torsion
[ 10763 10752 10751 10750 ] final -165.04 input  -60.55 | X-H torsion
[ 11005 11000 10999 10996 ] final -161.61 input  -57.11 | X-H torsion

> <Gold.Protein.ActiveResidues>
 VAL166  LYS551  ARG553  GLY616  TRP617  ASP618  TYR619  PRO620  LYS621  CYS622 
 ASP623  PHE694  ASN695  SER759  ASP760  ASP761  ALA762  ILE779  LEU786  VAL792 
 PHE793  MET794  SER795  GLU796  ALA797  LYS798  CYS799  TRP800  GLU811  SER814 

> <Gold.Protein.RotatedAtoms>
  151.1414  135.0181  159.8627 H   0  0  0  0  0  0  0  0  0  0  0  0  # atno 6907 bound_to 6896
  152.5452  134.1494  159.8522 H   0  0  0  0  0  0  0  0  0  0  0  0  # atno 6908 bound_to 6896
  151.1570  133.4824  159.2627 H   0  0  0  0  0  0  0  0  0  0  0  0  # atno 6909 bound_to 6896
  146.1703  140.4414  142.8535 H   0  0  0  0  0  0  0  0  0  0  0  0  # atno 7974 bound_to 7965
  156.2394  140.1899  156.7029 H   0  0  0  0  0  0  0  0  0  0  0  0  # atno 8008 bound_to 7997
  154.6169  140.0614  156.9592 H   0  0  0  0  0  0  0  0  0  0  0  0  # atno 8009 bound_to 7997
  155.1925  140.3285  155.4359 H   0  0  0  0  0  0  0  0  0  0  0  0  # atno 8010 bound_to 7997
  139.4880  144.5706  151.7062 H   0  0  0  0  0  0  0  0  0  0  0  0  # atno 10167 bound_to 10162
  157.2993  131.0868  151.1402 H   0  0  0  0  0  0  0  0  0  0  0  0  # atno 10718 bound_to 10713
  154.6970  135.2981  154.9396 H   0  0  0  0  0  0  0  0  0  0  0  0  # atno 10763 bound_to 10752
  154.0341  135.6666  153.4787 H   0  0  0  0  0  0  0  0  0  0  0  0  # atno 10764 bound_to 10752
  153.0653  135.5091  154.8094 H   0  0  0  0  0  0  0  0  0  0  0  0  # atno 10765 bound_to 10752
  140.6185  134.4775  157.5221 H   0  0  0  0  0  0  0  0  0  0  0  0  # atno 11005 bound_to 11000
  144.8153  140.6456  143.6388 LP  0  0  0  0  0  0  0  0  0  0  0  0  # atno 17320 bound_to 7965
  145.4359  139.1542  143.3997 LP  0  0  0  0  0  0  0  0  0  0  0  0  # atno 17321 bound_to 7965
  140.5292  144.0757  150.6048 LP  0  0  0  0  0  0  0  0  0  0  0  0  # atno 17342 bound_to 10162
  140.3741  143.2838  152.0244 LP  0  0  0  0  0  0  0  0  0  0  0  0  # atno 17343 bound_to 10162
  157.2768  130.6731  149.6046 LP  0  0  0  0  0  0  0  0  0  0  0  0  # atno 17370 bound_to 10713
  155.9670  130.4462  150.5532 LP  0  0  0  0  0  0  0  0  0  0  0  0  # atno 17371 bound_to 10713
  139.9163  134.8240  156.1356 LP  0  0  0  0  0  0  0  0  0  0  0  0  # atno 17394 bound_to 11000
  141.0759  133.6776  156.2235 LP  0  0  0  0  0  0  0  0  0  0  0  0  # atno 17395 bound_to 11000

$$$$
