AV-unprocessed.smi:2761|AV-procd|sdf|10635|dock9
  -GOLD-   2272015 83D 1   1.00000     0.00000
 Structure written by MMmdl.
 26 27  0  0  0  0  0  0  0  0  2 V2000
  152.5832  139.4511  158.0097 O   0  0  0  0  0  0  0  0  0  0  0  0
  152.0541  140.5383  157.7683 C   0  0  0  0  0  0  0  0  0  0  0  0
  152.0343  141.5961  158.6078 N   0  0  0  0  0  0  0  0  0  0  0  0
  152.5731  141.6904  159.8949 C   0  0  0  0  0  0  0  0  0  0  0  0
  152.0844  142.8409  160.6109 C   0  0  0  0  0  0  0  0  0  0  0  0
  152.5377  143.0313  161.8697 C   0  0  0  0  0  0  0  0  0  0  0  0
  153.4899  142.1024  162.4841 C   0  0  0  0  0  0  0  0  0  0  0  0
  153.8744  142.3145  163.6319 O   0  0  0  0  0  0  0  0  0  0  0  0
  153.9119  141.0290  161.7428 N   0  5  0  0  0  0  0  0  0  0  0  0
  153.4165  140.8387  160.3940 N   0  0  0  0  0  0  0  0  0  0  0  0
  151.3690  140.7716  156.4137 C   0  0  1  0  0  0  0  0  0  0  0  0
  151.3450  139.5113  155.5170 C   0  0  0  0  0  0  0  0  0  0  0  0
  150.6593  139.8081  154.3072 O   0  0  0  0  0  0  0  0  0  0  0  0
  149.3215  140.2156  154.5576 C   0  0  0  0  0  0  0  0  0  0  0  0
  149.3410  141.4758  155.4375 C   0  0  0  0  0  0  0  0  0  0  0  0
  150.0247  141.1843  156.6489 O   0  0  0  0  0  0  0  0  0  0  0  0
  151.5657  142.4164  158.2533 H   0  0  0  0  0  0  0  0  0  0  0  0
  151.3829  143.5469  160.1911 H   0  0  0  0  0  0  0  0  0  0  0  0
  152.1923  143.8843  162.4348 H   0  0  0  0  0  0  0  0  0  0  0  0
  151.9079  141.5732  155.9054 H   0  0  0  0  0  0  0  0  0  0  0  0
  152.3587  139.1964  155.2672 H   0  0  0  0  0  0  0  0  0  0  0  0
  150.8619  138.6731  156.0225 H   0  0  0  0  0  0  0  0  0  0  0  0
  148.8283  140.4236  153.6081 H   0  0  0  0  0  0  0  0  0  0  0  0
  148.7651  139.4110  155.0409 H   0  0  0  0  0  0  0  0  0  0  0  0
  149.8259  142.3049  154.9204 H   0  0  0  0  0  0  0  0  0  0  0  0
  148.3239  141.7917  155.6698 H   0  0  0  0  0  0  0  0  0  0  0  0
  1  2  2  0  0  0  0
  2  3  1  0  0  0  0
  2 11  1  0  0  0  0
  3 17  1  0  0  0  0
  3  4  1  0  0  0  0
  4  5  1  0  0  0  0
  4 10  2  0  0  0  0
  5  6  2  0  0  0  0
  5 18  1  0  0  0  0
  6  7  1  0  0  0  0
  6 19  1  0  0  0  0
  7  8  2  0  0  0  0
  7  9  1  0  0  0  0
  9 10  1  0  0  0  0
 11 16  1  0  0  0  0
 11 12  1  0  0  0  0
 11 20  1  0  0  0  0
 12 13  1  0  0  0  0
 12 21  1  0  0  0  0
 12 22  1  0  0  0  0
 13 14  1  0  0  0  0
 14 15  1  0  0  0  0
 14 23  1  0  0  0  0
 14 24  1  0  0  0  0
 15 16  1  0  0  0  0
 15 25  1  0  0  0  0
 15 26  1  0  0  0  0
M  CHG  1   9  -1
M  END
> <s_m_source_file>
AV-unprocessed.smi

> <i_m_source_file_index>
2761

> <i_lp_mmshare_version>
43012

> <i_f3d_flags>
0

> <s_epik_input>
TzFbQ0gyXVtDSDJdT1tDSDJdW0NASF0xQyg9TylbTkhdYzJbY0hdW2NIXWMoW09IXSlubjI=

> <s_epik_cmdline>
J2VwaWtfcHl0aG9uJywgJy1waCcsICc3LjAnLCAnLXRuJywgJzgnLCAnLW1hJywgJzIwMCcsICctbWV0YWxfYmluZGluZycsICctaW1hZScsICc8aW5maWxlLm1hZT4nLCAnLW9tYWUnLCAnPG91dGZpbGUubWFlPic=

> <r_lp_tautomer_probability>
1

> <r_epik_Ionization_Penalty>
4.21844

> <r_epik_Ionization_Penalty_Charging>
0.119247

> <r_epik_Ionization_Penalty_Neutral>
4.0992

> <r_epik_State_Penalty>
4.09486

> <r_epik_Charging_Adjusted_Penalty>
4.2141

> <i_epik_Tot_Q>
-1

> <i_epik_Tot_abs_Q>
1

> <r_epik_Metal_State_Penalty>
0.651223

> <b_epik_Metal_Only>
1

> <s_lp_Force_Field>
OPLS_2005

> <r_lp_Energy>
28.3135

> <b_lp_Chiralities_Consistent>
1

> <s_lp_Variant>
AV-unprocessed.smi:2761-4

> <Gold.Version>
5.8.1

> <Gold.Id.Protein>
6NUR|6NUR_protein|mol2

> <Gold.PLP.Fitness>
38.0803

> <Gold.PLP.PLP>
-32.2335

> <Gold.PLP.part.hbond>
-3.2922

> <Gold.PLP.part.metal>
0.0000

> <Gold.PLP.part.buried>
-4.6392

> <Gold.PLP.part.nonpolar>
-23.3458

> <Gold.PLP.part.repulsive>
0.3235

> <Gold.PLP.ligand.clash>
0.0000

> <Gold.PLP.ligand.torsion>
0.0773

> <Gold.PLP.Chemscore.Hbond>
2.0000

> <Gold.PLP.Chemscore.CHOScore>
0.0000

> <Gold.PLP.Chemscore.Metal>
0.0000

> <Gold.Chemscore.Hbonds>
donor molecule, donor type, donor heavy atom, donor atom, acceptor molecule, acceptor atom, score
      P1  H  7989  7998       L1    13  1.00
      P1  H  7997  8009       L1     1  0.21

> <Gold.PLP.Chemscore.Internal.Correction>
0.0013

> <Gold.Rescore>
     Score         DG    S(hbond)    S(metal)    S(lipo)     H(rot)  DE(clash)    DE(int)     intcor
     11.67     -13.21       1.35        0.00      49.41       1.00       0.09       1.44       ----

> <Gold.Chemscore.Fitness>
11.6727

> <Gold.Chemscore.DG>
-13.2067

> <Gold.Chemscore.ZeroCoef>
-5.4800

> <Gold.Chemscore.Hbond>
1.3490

> <Gold.Chemscore.Metal>
0.0000

> <Gold.Chemscore.Lipo>
49.4088

> <Gold.Chemscore.Internal_Hbond>
0.0000

> <Gold.Chemscore.DEClash>
0.0935

> <Gold.Chemscore.DEInternal>
1.4405

> <Gold.Chemscore.Rot>
1.0000

> <Gold.Chemscore.Internal.Correction>
   9.000000E+99

> <Gold.Chemscore.Hbonds>
donor molecule, donor type, donor heavy atom, donor atom, acceptor molecule, acceptor atom, score
      P1  H  7989  7998       L1    13  0.52
      P1  H  7997  8009       L1     1  0.02

> <Gold.Chemscore.Hbond.Weighted>
-4.5058

> <Gold.Chemscore.Metal.Weighted>
-0.0000

> <Gold.Chemscore.Lipo.Weighted>
-5.7808

> <Gold.Chemscore.Internal_Hbond.Weighted>
0.0000

> <Gold.Chemscore.DEClash.Weighted>
0.0935

> <Gold.Chemscore.DEInternal.Weighted>
1.4405

> <Gold.Chemscore.Rot.Weighted>
2.5600

> <Gold.Chemscore.Internal.Correction.Weighted>
   9.000000E+99

> <Gold.Protein.RotatedTorsions>
[ 6907 6896 6895 6894 ] final   48.49 input  -60.11 | X-H torsion
[ 7974 7965 7964 7962 ] final -118.11 input  175.53 | X-H torsion
[ 8008 7997 7996 7995 ] final  156.24 input   59.86 | X-H torsion
[ 10167 10162 10161 10158 ] final  -58.99 input  -65.29 | X-H torsion
[ 10718 10713 10712 10709 ] final  140.23 input   66.30 | X-H torsion
[ 10763 10752 10751 10750 ] final   40.22 input  -60.55 | X-H torsion
[ 11005 11000 10999 10996 ] final -110.80 input  -57.11 | X-H torsion

> <Gold.Protein.ActiveResidues>
 VAL166  LYS551  ARG553  GLY616  TRP617  ASP618  TYR619  PRO620  LYS621  CYS622 
 ASP623  PHE694  ASN695  SER759  ASP760  ASP761  ALA762  ILE779  LEU786  VAL792 
 PHE793  MET794  SER795  GLU796  ALA797  LYS798  CYS799  TRP800  GLU811  SER814 

> <Gold.Protein.RotatedAtoms>
  152.2801  134.7838  160.0397 H   0  0  0  0  0  0  0  0  0  0  0  0  # atno 6907 bound_to 6896
  151.8420  133.3420  159.3654 H   0  0  0  0  0  0  0  0  0  0  0  0  # atno 6908 bound_to 6896
  150.7186  134.5310  159.5744 H   0  0  0  0  0  0  0  0  0  0  0  0  # atno 6909 bound_to 6896
  145.0775  140.8403  143.4058 H   0  0  0  0  0  0  0  0  0  0  0  0  # atno 7974 bound_to 7965
  156.2433  140.1918  156.6925 H   0  0  0  0  0  0  0  0  0  0  0  0  # atno 8008 bound_to 7997
  154.6241  140.0604  156.9678 H   0  0  0  0  0  0  0  0  0  0  0  0  # atno 8009 bound_to 7997
  155.1814  140.3277  155.4377 H   0  0  0  0  0  0  0  0  0  0  0  0  # atno 8010 bound_to 7997
  140.6163  143.2403  151.5589 H   0  0  0  0  0  0  0  0  0  0  0  0  # atno 10167 bound_to 10162
  157.4056  131.1022  151.0507 H   0  0  0  0  0  0  0  0  0  0  0  0  # atno 10718 bound_to 10713
  152.9943  135.6197  154.2592 H   0  0  0  0  0  0  0  0  0  0  0  0  # atno 10763 bound_to 10752
  154.2328  135.2791  155.2885 H   0  0  0  0  0  0  0  0  0  0  0  0  # atno 10764 bound_to 10752
  154.5435  135.5754  153.6918 H   0  0  0  0  0  0  0  0  0  0  0  0  # atno 10765 bound_to 10752
  141.0771  133.9282  157.2366 H   0  0  0  0  0  0  0  0  0  0  0  0  # atno 11005 bound_to 11000
  145.1217  139.2689  143.5585 LP  0  0  0  0  0  0  0  0  0  0  0  0  # atno 17320 bound_to 7965
  146.3530  140.0843  142.8616 LP  0  0  0  0  0  0  0  0  0  0  0  0  # atno 17321 bound_to 7965
  139.5401  144.2671  152.1333 LP  0  0  0  0  0  0  0  0  0  0  0  0  # atno 17342 bound_to 10162
  140.1881  144.4779  150.6493 LP  0  0  0  0  0  0  0  0  0  0  0  0  # atno 17343 bound_to 10162
  157.1490  130.6176  149.5577 LP  0  0  0  0  0  0  0  0  0  0  0  0  # atno 17370 bound_to 10713
  155.9835  130.4856  150.6939 LP  0  0  0  0  0  0  0  0  0  0  0  0  # atno 17371 bound_to 10713
  139.9584  135.0160  156.9192 LP  0  0  0  0  0  0  0  0  0  0  0  0  # atno 17394 bound_to 11000
  140.5549  134.0591  155.7380 LP  0  0  0  0  0  0  0  0  0  0  0  0  # atno 17395 bound_to 11000

$$$$
