AV-unprocessed.smi:1432|AV-procd|sdf|5834|dock4
  -GOLD-   22720 5493D 1   1.00000     0.00000
 Structure written by MMmdl.
 47 48  0  0  0  0  0  0  0  0  2 V2000
  146.5322  138.4162  152.3645 C   0  0  0  0  0  0  0  0  0  0  0  0
  145.9482  136.9930  152.4873 C   0  0  1  0  0  0  0  0  0  0  0  0
  145.8428  136.3839  151.0694 C   0  0  0  0  0  0  0  0  0  0  0  0
  145.2978  134.9528  151.0855 C   0  0  0  0  0  0  0  0  0  0  0  0
  146.1516  134.0929  152.0177 C   0  0  0  0  0  0  0  0  0  0  0  0
  146.1926  134.7167  153.4181 C   0  0  0  0  0  0  0  0  0  0  0  0
  146.7482  136.0990  153.3866 N   0  3  2  0  0  0  0  0  0  0  0  0
  146.9709  136.6214  154.7670 C   0  0  0  0  0  0  0  0  0  0  0  0
  147.7605  135.6479  155.6696 C   0  0  0  0  0  0  0  0  0  0  0  0
  147.7837  136.0949  157.0603 N   0  0  0  0  0  0  0  0  0  0  0  0
  148.5425  135.5686  158.0339 C   0  0  0  0  0  0  0  0  0  0  0  0
  149.2609  134.5819  157.8741 O   0  0  0  0  0  0  0  0  0  0  0  0
  148.4929  136.2758  159.3937 C   0  0  0  0  0  0  0  0  0  0  0  0
  147.8402  135.4513  160.4251 N   0  0  0  0  0  0  0  0  0  0  0  0
  147.8351  134.0559  160.2309 C   0  0  0  0  0  0  0  0  0  0  0  0
  147.2904  133.1957  161.1130 C   0  0  0  0  0  0  0  0  0  0  0  0
  147.2539  131.6970  160.8571 C   0  0  0  0  0  0  0  0  0  0  0  0
  148.4738  131.1671  160.9499 F   0  0  0  0  0  0  0  0  0  0  0  0
  146.4597  131.0752  161.7296 F   0  0  0  0  0  0  0  0  0  0  0  0
  146.7911  131.4590  159.6309 F   0  0  0  0  0  0  0  0  0  0  0  0
  146.6646  133.7802  162.2825 C   0  0  0  0  0  0  0  0  0  0  0  0
  146.6556  135.1128  162.4814 C   0  0  0  0  0  0  0  0  0  0  0  0
  147.2732  136.0334  161.5249 C   0  0  0  0  0  0  0  0  0  0  0  0
  147.2852  137.2522  161.7015 O   0  0  0  0  0  0  0  0  0  0  0  0
  146.0430  138.9686  151.5618 H   0  0  0  0  0  0  0  0  0  0  0  0
  147.5990  138.3929  152.1406 H   0  0  0  0  0  0  0  0  0  0  0  0
  146.3832  139.0088  153.2661 H   0  0  0  0  0  0  0  0  0  0  0  0
  144.9416  137.0730  152.9013 H   0  0  0  0  0  0  0  0  0  0  0  0
  145.2000  137.0036  150.4429 H   0  0  0  0  0  0  0  0  0  0  0  0
  146.8239  136.3860  150.5930 H   0  0  0  0  0  0  0  0  0  0  0  0
  144.2608  134.9534  151.4241 H   0  0  0  0  0  0  0  0  0  0  0  0
  145.2997  134.5356  150.0779 H   0  0  0  0  0  0  0  0  0  0  0  0
  145.7452  133.0823  152.0697 H   0  0  0  0  0  0  0  0  0  0  0  0
  147.1647  134.0027  151.6221 H   0  0  0  0  0  0  0  0  0  0  0  0
  145.1893  134.7386  153.8465 H   0  0  0  0  0  0  0  0  0  0  0  0
  146.7886  134.0757  154.0654 H   0  0  0  0  0  0  0  0  0  0  0  0
  147.5485  137.5414  154.7487 H   0  0  0  0  0  0  0  0  0  0  0  0
  146.0153  136.8798  155.2254 H   0  0  0  0  0  0  0  0  0  0  0  0
  147.2846  134.6675  155.6415 H   0  0  0  0  0  0  0  0  0  0  0  0
  148.7717  135.4918  155.2922 H   0  0  0  0  0  0  0  0  0  0  0  0
  147.2102  136.8940  157.2900 H   0  0  0  0  0  0  0  0  0  0  0  0
  149.5021  136.5387  159.7177 H   0  0  0  0  0  0  0  0  0  0  0  0
  147.9748  137.2268  159.2627 H   0  0  0  0  0  0  0  0  0  0  0  0
  148.3088  133.7262  159.3176 H   0  0  0  0  0  0  0  0  0  0  0  0
  146.1989  133.1374  163.0151 H   0  0  0  0  0  0  0  0  0  0  0  0
  146.1828  135.5128  163.3662 H   0  0  0  0  0  0  0  0  0  0  0  0
  147.6638  136.0341  152.9642 H   0  0  0  0  0  0  0  0  0  0  0  0
  1  2  1  0  0  0  0
  1 25  1  0  0  0  0
  1 26  1  0  0  0  0
  1 27  1  0  0  0  0
  2  7  1  0  0  0  0
  2  3  1  0  0  0  0
  2 28  1  0  0  0  0
  3  4  1  0  0  0  0
  3 29  1  0  0  0  0
  3 30  1  0  0  0  0
  4  5  1  0  0  0  0
  4 31  1  0  0  0  0
  4 32  1  0  0  0  0
  5  6  1  0  0  0  0
  5 33  1  0  0  0  0
  5 34  1  0  0  0  0
  6  7  1  0  0  0  0
  6 35  1  0  0  0  0
  6 36  1  0  0  0  0
  7  8  1  0  0  0  0
  7 47  1  0  0  0  0
  8  9  1  0  0  0  0
  8 37  1  0  0  0  0
  8 38  1  0  0  0  0
  9 10  1  0  0  0  0
  9 39  1  0  0  0  0
  9 40  1  0  0  0  0
 10 11  1  0  0  0  0
 10 41  1  0  0  0  0
 11 12  2  0  0  0  0
 11 13  1  0  0  0  0
 13 14  1  0  0  0  0
 13 42  1  0  0  0  0
 13 43  1  0  0  0  0
 14 23  1  0  0  0  0
 14 15  1  0  0  0  0
 15 16  2  0  0  0  0
 15 44  1  0  0  0  0
 16 17  1  0  0  0  0
 16 21  1  0  0  0  0
 17 18  1  0  0  0  0
 17 19  1  0  0  0  0
 17 20  1  0  0  0  0
 21 22  2  0  0  0  0
 21 45  1  0  0  0  0
 22 23  1  0  0  0  0
 22 46  1  0  0  0  0
 23 24  2  0  0  0  0
M  CHG  1   7   1
M  END
> <s_m_source_file>
AV-unprocessed.smi

> <i_m_source_file_index>
1432

> <i_lp_mmshare_version>
43012

> <i_f3d_flags>
0

> <s_epik_input>
W0NIM11bQ0BASF0xW0NIMl1bQ0gyXVtDSDJdW0NIMl1OMVtDSDJdW0NIMl1bTkhdQyg9TylbQ0gyXW4yW2NIXWMoQyhGKShGKUYpW2NIXVtjSF1jMj1P

> <s_epik_cmdline>
J2VwaWtfcHl0aG9uJywgJy1waCcsICc3LjAnLCAnLXRuJywgJzgnLCAnLW1hJywgJzIwMCcsICctbWV0YWxfYmluZGluZycsICctaW1hZScsICc8aW5maWxlLm1hZT4nLCAnLW9tYWUnLCAnPG91dGZpbGUubWFlPic=

> <r_lp_tautomer_probability>
1

> <r_epik_Ionization_Penalty>
0.00237222

> <r_epik_Ionization_Penalty_Charging>
0.00237213

> <r_epik_Ionization_Penalty_Neutral>
8.2065e-08

> <r_epik_State_Penalty>
0.00163922

> <r_epik_Charging_Adjusted_Penalty>
0.00401135

> <i_epik_Tot_Q>
1

> <i_epik_Tot_abs_Q>
1

> <r_epik_Metal_State_Penalty>
-0

> <b_epik_Metal_Only>
0

> <s_lp_Force_Field>
OPLS_2005

> <r_lp_Energy>
36.6546

> <b_lp_Chiralities_Consistent>
1

> <s_lp_Variant>
AV-unprocessed.smi:1432-4

> <Gold.Version>
5.8.1

> <Gold.Id.Protein>
6NUR|6NUR_protein|mol2

> <Gold.PLP.Fitness>
51.6369

> <Gold.PLP.PLP>
-38.7567

> <Gold.PLP.part.hbond>
-4.0000

> <Gold.PLP.part.metal>
0.0000

> <Gold.PLP.part.buried>
-2.5693

> <Gold.PLP.part.nonpolar>
-32.6137

> <Gold.PLP.part.repulsive>
0.0000

> <Gold.PLP.ligand.clash>
0.0000

> <Gold.PLP.ligand.torsion>
0.7465

> <Gold.PLP.Chemscore.Hbond>
4.7440

> <Gold.PLP.Chemscore.CHOScore>
0.0000

> <Gold.PLP.Chemscore.Metal>
0.0000

> <Gold.Chemscore.Hbonds>
donor molecule, donor type, donor heavy atom, donor atom, acceptor molecule, acceptor atom, score
      L1  H     7    47       P1  7948  2.00
      P1  H  6896  6907       L1    12  0.86
      P1  H  6931  6943       L1    24  0.85
      P1  H  6934  6947       L1    24  0.85

> <Gold.PLP.Chemscore.Internal.Correction>
0.1411

> <Gold.Rescore>
     Score         DG    S(hbond)    S(metal)    S(lipo)     H(rot)  DE(clash)    DE(int)     intcor
     18.75     -20.79       3.62        0.00      72.93       2.08       0.00       2.03       ----

> <Gold.Chemscore.Fitness>
18.7541

> <Gold.Chemscore.DG>
-20.7910

> <Gold.Chemscore.ZeroCoef>
-5.4800

> <Gold.Chemscore.Hbond>
3.6206

> <Gold.Chemscore.Metal>
0.0000

> <Gold.Chemscore.Lipo>
72.9327

> <Gold.Chemscore.Internal_Hbond>
0.0000

> <Gold.Chemscore.DEClash>
0.0034

> <Gold.Chemscore.DEInternal>
2.0335

> <Gold.Chemscore.Rot>
2.0762

> <Gold.Chemscore.Internal.Correction>
   9.000000E+99

> <Gold.Chemscore.Hbonds>
donor molecule, donor type, donor heavy atom, donor atom, acceptor molecule, acceptor atom, score
      L1  H     7    47       P1  7948  1.00
      P1  H  6896  6907       L1    12  0.81
      P1  H  6931  6943       L1    24  0.79
      P1  H  6934  6947       L1    24  0.84

> <Gold.Chemscore.Hbond.Weighted>
-12.0929

> <Gold.Chemscore.Metal.Weighted>
-0.0000

> <Gold.Chemscore.Lipo.Weighted>
-8.5331

> <Gold.Chemscore.Internal_Hbond.Weighted>
0.0000

> <Gold.Chemscore.DEClash.Weighted>
0.0034

> <Gold.Chemscore.DEInternal.Weighted>
2.0335

> <Gold.Chemscore.Rot.Weighted>
5.3150

> <Gold.Chemscore.Internal.Correction.Weighted>
   9.000000E+99

> <Gold.Protein.RotatedTorsions>
[ 6907 6896 6895 6894 ] final  -99.77 input  -60.11 | X-H torsion
[ 7974 7965 7964 7962 ] final  134.41 input  175.53 | X-H torsion
[ 8008 7997 7996 7995 ] final -168.06 input   59.86 | X-H torsion
[ 10167 10162 10161 10158 ] final  -73.35 input  -65.29 | X-H torsion
[ 10718 10713 10712 10709 ] final  157.59 input   66.30 | X-H torsion
[ 10763 10752 10751 10750 ] final  -55.33 input  -60.55 | X-H torsion
[ 11005 11000 10999 10996 ] final   -2.04 input  -57.11 | X-H torsion

> <Gold.Protein.ActiveResidues>
 VAL166  LYS551  ARG553  GLY616  TRP617  ASP618  TYR619  PRO620  LYS621  CYS622 
 ASP623  PHE694  ASN695  SER759  ASP760  ASP761  ALA762  ILE779  LEU786  VAL792 
 PHE793  MET794  SER795  GLU796  ALA797  LYS798  CYS799  TRP800  GLU811  SER814 

> <Gold.Protein.RotatedAtoms>
  150.7092  134.0989  159.3958 H   0  0  0  0  0  0  0  0  0  0  0  0  # atno 6907 bound_to 6896
  151.8975  135.0389  160.0513 H   0  0  0  0  0  0  0  0  0  0  0  0  # atno 6908 bound_to 6896
  152.2441  133.5124  159.5324 H   0  0  0  0  0  0  0  0  0  0  0  0  # atno 6909 bound_to 6896
  144.9766  139.4548  143.5407 H   0  0  0  0  0  0  0  0  0  0  0  0  # atno 7974 bound_to 7965
  155.8862  140.1017  157.1451 H   0  0  0  0  0  0  0  0  0  0  0  0  # atno 8008 bound_to 7997
  154.4010  140.1319  156.4322 H   0  0  0  0  0  0  0  0  0  0  0  0  # atno 8009 bound_to 7997
  155.7586  140.3463  155.5189 H   0  0  0  0  0  0  0  0  0  0  0  0  # atno 8010 bound_to 7997
  140.5117  143.2344  151.7581 H   0  0  0  0  0  0  0  0  0  0  0  0  # atno 10167 bound_to 10162
  157.1894  131.0651  151.2087 H   0  0  0  0  0  0  0  0  0  0  0  0  # atno 10718 bound_to 10713
  154.1890  135.6430  153.5055 H   0  0  0  0  0  0  0  0  0  0  0  0  # atno 10763 bound_to 10752
  153.0040  135.5424  154.6435 H   0  0  0  0  0  0  0  0  0  0  0  0  # atno 10764 bound_to 10752
  154.5819  135.2926  155.0697 H   0  0  0  0  0  0  0  0  0  0  0  0  # atno 10765 bound_to 10752
  140.6540  133.9379  155.8396 H   0  0  0  0  0  0  0  0  0  0  0  0  # atno 11005 bound_to 11000
  146.3397  139.9012  142.8794 LP  0  0  0  0  0  0  0  0  0  0  0  0  # atno 17320 bound_to 7965
  145.2481  141.0034  143.3897 LP  0  0  0  0  0  0  0  0  0  0  0  0  # atno 17321 bound_to 7965
  139.4898  144.4380  151.9796 LP  0  0  0  0  0  0  0  0  0  0  0  0  # atno 17342 bound_to 10162
  140.3473  144.3131  150.5956 LP  0  0  0  0  0  0  0  0  0  0  0  0  # atno 17343 bound_to 10162
  157.3875  130.7264  149.6673 LP  0  0  0  0  0  0  0  0  0  0  0  0  # atno 17370 bound_to 10713
  155.9713  130.4155  150.4187 LP  0  0  0  0  0  0  0  0  0  0  0  0  # atno 17371 bound_to 10713
  141.0516  134.0477  157.3776 LP  0  0  0  0  0  0  0  0  0  0  0  0  # atno 17394 bound_to 11000
  139.9036  135.0173  156.7383 LP  0  0  0  0  0  0  0  0  0  0  0  0  # atno 17395 bound_to 11000

$$$$
