AV-unprocessed.smi:543|AV-procd|sdf|2876|dock6
  -GOLD-   2262023373D 1   1.00000     0.00000
 Structure written by MMmdl.
 45 47  0  0  0  0  0  0  0  0  2 V2000
  150.9075  138.6674  154.8415 C   0  0  0  0  0  0  0  0  0  0  0  0
  151.4041  137.3774  155.1485 O   0  0  0  0  0  0  0  0  0  0  0  0
  151.0181  136.9372  156.4412 C   0  0  0  0  0  0  0  0  0  0  0  0
  149.5097  136.6518  156.4576 C   0  0  0  0  0  0  0  0  0  0  0  0
  149.1565  135.6664  157.4796 N   0  0  0  0  0  0  0  0  0  0  0  0
  149.3674  134.3189  157.4786 C   0  0  0  0  0  0  0  0  0  0  0  0
  149.9568  133.6482  156.3995 N   0  0  0  0  0  0  0  0  0  0  0  0
  150.4142  134.2726  155.1641 C   0  0  0  0  0  0  0  0  0  0  0  0
  150.0278  132.1923  156.2770 C   0  0  0  0  0  0  0  0  0  0  0  0
  151.3301  131.6518  155.7096 C   0  0  0  0  0  0  0  0  0  0  0  0
  152.5619  132.0381  156.2792 C   0  0  0  0  0  0  0  0  0  0  0  0
  153.7706  131.5292  155.7656 C   0  0  0  0  0  0  0  0  0  0  0  0
  153.7531  130.6352  154.6780 C   0  0  0  0  0  0  0  0  0  0  0  0
  152.5262  130.2495  154.1042 C   0  0  0  0  0  0  0  0  0  0  0  0
  151.3170  130.7565  154.6188 C   0  0  0  0  0  0  0  0  0  0  0  0
  149.0034  133.7070  158.6079 N   0  0  0  0  0  0  0  0  0  0  0  0
  148.4994  134.7374  159.3826 C   0  0  0  0  0  0  0  0  0  0  0  0
  148.5857  135.9270  158.7311 C   0  0  0  0  0  0  0  0  0  0  0  0
  148.1627  137.2173  159.3214 C   0  0  0  0  0  0  0  0  0  0  0  0
  148.2786  138.2707  158.6982 O   0  0  0  0  0  0  0  0  0  0  0  0
  147.6610  137.0678  160.5882 N   0  5  0  0  0  0  0  0  0  0  0  0
  147.5528  135.8817  161.2820 C   0  0  0  0  0  0  0  0  0  0  0  0
  147.0949  135.8362  162.4246 O   0  0  0  0  0  0  0  0  0  0  0  0
  147.9637  134.7121  160.6987 N   0  0  0  0  0  0  0  0  0  0  0  0
  147.8694  133.4361  161.4139 C   0  0  0  0  0  0  0  0  0  0  0  0
  151.2295  138.9540  153.8403 H   0  0  0  0  0  0  0  0  0  0  0  0
  151.2862  139.4121  155.5430 H   0  0  0  0  0  0  0  0  0  0  0  0
  149.8171  138.6867  154.8636 H   0  0  0  0  0  0  0  0  0  0  0  0
  151.5719  136.0365  156.7106 H   0  0  0  0  0  0  0  0  0  0  0  0
  151.2594  137.7009  157.1817 H   0  0  0  0  0  0  0  0  0  0  0  0
  148.9469  137.5675  156.6307 H   0  0  0  0  0  0  0  0  0  0  0  0
  149.1941  136.3179  155.4749 H   0  0  0  0  0  0  0  0  0  0  0  0
  150.0891  135.3122  155.1141 H   0  0  0  0  0  0  0  0  0  0  0  0
  150.0093  133.7658  154.2877 H   0  0  0  0  0  0  0  0  0  0  0  0
  151.5025  134.2454  155.1024 H   0  0  0  0  0  0  0  0  0  0  0  0
  149.8439  131.7042  157.2354 H   0  0  0  0  0  0  0  0  0  0  0  0
  149.2066  131.8812  155.6301 H   0  0  0  0  0  0  0  0  0  0  0  0
  152.5834  132.7193  157.1172 H   0  0  0  0  0  0  0  0  0  0  0  0
  154.7112  131.8236  156.2073 H   0  0  0  0  0  0  0  0  0  0  0  0
  154.6801  130.2448  154.2847 H   0  0  0  0  0  0  0  0  0  0  0  0
  152.5123  129.5633  153.2702 H   0  0  0  0  0  0  0  0  0  0  0  0
  150.3803  130.4524  154.1761 H   0  0  0  0  0  0  0  0  0  0  0  0
  148.5149  133.4458  162.2931 H   0  0  0  0  0  0  0  0  0  0  0  0
  148.1663  132.5861  160.7995 H   0  0  0  0  0  0  0  0  0  0  0  0
  146.8457  133.2537  161.7436 H   0  0  0  0  0  0  0  0  0  0  0  0
  1  2  1  0  0  0  0
  1 26  1  0  0  0  0
  1 27  1  0  0  0  0
  1 28  1  0  0  0  0
  2  3  1  0  0  0  0
  3  4  1  0  0  0  0
  3 29  1  0  0  0  0
  3 30  1  0  0  0  0
  4  5  1  0  0  0  0
  4 31  1  0  0  0  0
  4 32  1  0  0  0  0
  5 18  1  0  0  0  0
  5  6  1  0  0  0  0
  6  7  1  0  0  0  0
  6 16  2  0  0  0  0
  7  8  1  0  0  0  0
  7  9  1  0  0  0  0
  8 33  1  0  0  0  0
  8 34  1  0  0  0  0
  8 35  1  0  0  0  0
  9 10  1  0  0  0  0
  9 36  1  0  0  0  0
  9 37  1  0  0  0  0
 10 15  1  0  0  0  0
 10 11  2  0  0  0  0
 11 12  1  0  0  0  0
 11 38  1  0  0  0  0
 12 13  2  0  0  0  0
 12 39  1  0  0  0  0
 13 14  1  0  0  0  0
 13 40  1  0  0  0  0
 14 15  2  0  0  0  0
 14 41  1  0  0  0  0
 15 42  1  0  0  0  0
 16 17  1  0  0  0  0
 17 24  1  0  0  0  0
 17 18  2  0  0  0  0
 18 19  1  0  0  0  0
 19 20  2  0  0  0  0
 19 21  1  0  0  0  0
 21 22  1  0  0  0  0
 22 23  2  0  0  0  0
 22 24  1  0  0  0  0
 24 25  1  0  0  0  0
 25 43  1  0  0  0  0
 25 44  1  0  0  0  0
 25 45  1  0  0  0  0
M  CHG  1  21  -1
M  END
> <s_m_source_file>
AV-unprocessed.smi

> <i_m_source_file_index>
543

> <i_lp_mmshare_version>
43012

> <i_f3d_flags>
0

> <s_epik_input>
W0NIM11uMWMoPU8pW25IXWMoPU8pYyhjMTIpbihbQ0gyXVtDSDJdT1tDSDNdKWMobjIpTihbQ0gzXSlbQ0gyXWMzW2NIXVtjSF1bY0hdW2NIXVtjSF0z

> <s_epik_cmdline>
J2VwaWtfcHl0aG9uJywgJy1waCcsICc3LjAnLCAnLXRuJywgJzgnLCAnLW1hJywgJzIwMCcsICctbWV0YWxfYmluZGluZycsICctaW1hZScsICc8aW5maWxlLm1hZT4nLCAnLW9tYWUnLCAnPG91dGZpbGUubWFlPic=

> <r_lp_tautomer_probability>
1

> <r_epik_Ionization_Penalty>
6.27073

> <r_epik_Ionization_Penalty_Charging>
0.0750099

> <r_epik_Ionization_Penalty_Neutral>
6.19572

> <r_epik_State_Penalty>
6.19553

> <r_epik_Charging_Adjusted_Penalty>
6.27054

> <i_epik_Tot_Q>
-1

> <i_epik_Tot_abs_Q>
1

> <r_epik_Metal_State_Penalty>
2.13591

> <b_epik_Metal_Only>
1

> <s_lp_Force_Field>
OPLS_2005

> <r_lp_Energy>
36.8514

> <b_lp_Chiralities_Consistent>
1

> <s_lp_Variant>
AV-unprocessed.smi:543-2

> <Gold.Version>
5.8.1

> <Gold.Id.Protein>
6NUR|6NUR_protein|mol2

> <Gold.PLP.Fitness>
45.6658

> <Gold.PLP.PLP>
-35.0584

> <Gold.PLP.part.hbond>
-4.6284

> <Gold.PLP.part.metal>
0.0000

> <Gold.PLP.part.buried>
-4.0853

> <Gold.PLP.part.nonpolar>
-26.0787

> <Gold.PLP.part.repulsive>
0.1007

> <Gold.PLP.ligand.clash>
4.7127

> <Gold.PLP.ligand.torsion>
0.6785

> <Gold.PLP.Chemscore.Hbond>
3.9512

> <Gold.PLP.Chemscore.CHOScore>
0.0000

> <Gold.PLP.Chemscore.Metal>
0.0000

> <Gold.Chemscore.Hbonds>
donor molecule, donor type, donor heavy atom, donor atom, acceptor molecule, acceptor atom, score
      P1  H  6896  6909       L1    16  0.27
      P1  H  6931  6943       L1    21  0.80
      P1  H  6934  6947       L1    21  1.59
      P1  H 10752 10763       L1     2  0.01

> <Gold.PLP.Chemscore.Internal.Correction>
4.8235

> <Gold.Rescore>
     Score         DG    S(hbond)    S(metal)    S(lipo)     H(rot)  DE(clash)    DE(int)     intcor
     12.07     -14.47       1.74        0.00      66.91       1.82       0.05       2.35       ----

> <Gold.Chemscore.Fitness>
12.0736

> <Gold.Chemscore.DG>
-14.4736

> <Gold.Chemscore.ZeroCoef>
-5.4800

> <Gold.Chemscore.Hbond>
1.7443

> <Gold.Chemscore.Metal>
0.0000

> <Gold.Chemscore.Lipo>
66.9111

> <Gold.Chemscore.Internal_Hbond>
0.0000

> <Gold.Chemscore.DEClash>
0.0515

> <Gold.Chemscore.DEInternal>
2.3485

> <Gold.Chemscore.Rot>
1.8207

> <Gold.Chemscore.Internal.Correction>
   9.000000E+99

> <Gold.Chemscore.Hbonds>
donor molecule, donor type, donor heavy atom, donor atom, acceptor molecule, acceptor atom, score
      P1  H  6931  6943       L1    21  0.07
      P1  H  6934  6947       L1    21  0.12
      P1  H 10752 10763       L1     2  0.01

> <Gold.Chemscore.Hbond.Weighted>
-5.8260

> <Gold.Chemscore.Metal.Weighted>
-0.0000

> <Gold.Chemscore.Lipo.Weighted>
-7.8286

> <Gold.Chemscore.Internal_Hbond.Weighted>
0.0000

> <Gold.Chemscore.DEClash.Weighted>
0.0515

> <Gold.Chemscore.DEInternal.Weighted>
2.3485

> <Gold.Chemscore.Rot.Weighted>
4.6610

> <Gold.Chemscore.Internal.Correction.Weighted>
   9.000000E+99

> <Gold.Protein.RotatedTorsions>
[ 6907 6896 6895 6894 ] final   13.41 input  -60.11 | X-H torsion
[ 7974 7965 7964 7962 ] final   27.41 input  175.53 | X-H torsion
[ 8008 7997 7996 7995 ] final  -33.23 input   59.86 | X-H torsion
[ 10167 10162 10161 10158 ] final  155.51 input  -65.29 | X-H torsion
[ 10718 10713 10712 10709 ] final   24.66 input   66.30 | X-H torsion
[ 10763 10752 10751 10750 ] final   66.66 input  -60.55 | X-H torsion
[ 11005 11000 10999 10996 ] final  135.30 input  -57.11 | X-H torsion

> <Gold.Protein.ActiveResidues>
 VAL166  LYS551  ARG553  GLY616  TRP617  ASP618  TYR619  PRO620  LYS621  CYS622 
 ASP623  PHE694  ASN695  SER759  ASP760  ASP761  ALA762  ILE779  LEU786  VAL792 
 PHE793  MET794  SER795  GLU796  ALA797  LYS798  CYS799  TRP800  GLU811  SER814 

> <Gold.Protein.RotatedAtoms>
  151.7859  135.0749  160.0380 H   0  0  0  0  0  0  0  0  0  0  0  0  # atno 6907 bound_to 6896
  152.3190  133.5829  159.5740 H   0  0  0  0  0  0  0  0  0  0  0  0  # atno 6908 bound_to 6896
  150.7360  133.9955  159.3663 H   0  0  0  0  0  0  0  0  0  0  0  0  # atno 6909 bound_to 6896
  146.1785  139.7195  142.8917 H   0  0  0  0  0  0  0  0  0  0  0  0  # atno 7974 bound_to 7965
  154.4155  140.1716  156.1854 H   0  0  0  0  0  0  0  0  0  0  0  0  # atno 8008 bound_to 7997
  155.9648  140.3390  155.6498 H   0  0  0  0  0  0  0  0  0  0  0  0  # atno 8009 bound_to 7997
  155.6702  140.0711  157.2513 H   0  0  0  0  0  0  0  0  0  0  0  0  # atno 8010 bound_to 7997
  139.4821  144.5092  151.8051 H   0  0  0  0  0  0  0  0  0  0  0  0  # atno 10167 bound_to 10162
  157.1828  130.6810  149.6119 H   0  0  0  0  0  0  0  0  0  0  0  0  # atno 10718 bound_to 10713
  153.0150  135.5312  154.6859 H   0  0  0  0  0  0  0  0  0  0  0  0  # atno 10763 bound_to 10752
  154.6006  135.2868  155.0541 H   0  0  0  0  0  0  0  0  0  0  0  0  # atno 10764 bound_to 10752
  154.1599  135.6549  153.5036 H   0  0  0  0  0  0  0  0  0  0  0  0  # atno 10765 bound_to 10752
  139.9971  134.9493  156.9988 H   0  0  0  0  0  0  0  0  0  0  0  0  # atno 11005 bound_to 11000
  145.4143  141.0400  143.3000 LP  0  0  0  0  0  0  0  0  0  0  0  0  # atno 17320 bound_to 7965
  144.8276  139.5683  143.6958 LP  0  0  0  0  0  0  0  0  0  0  0  0  # atno 17321 bound_to 7965
  140.4593  144.1745  150.5904 LP  0  0  0  0  0  0  0  0  0  0  0  0  # atno 17342 bound_to 10162
  140.4502  143.2490  151.9358 LP  0  0  0  0  0  0  0  0  0  0  0  0  # atno 17343 bound_to 10162
  155.9722  130.4641  150.6205 LP  0  0  0  0  0  0  0  0  0  0  0  0  # atno 17370 bound_to 10713
  157.3936  131.0799  151.1372 LP  0  0  0  0  0  0  0  0  0  0  0  0  # atno 17371 bound_to 10713
  140.4798  134.1301  155.7215 LP  0  0  0  0  0  0  0  0  0  0  0  0  # atno 17394 bound_to 11000
  141.1612  133.8788  157.1841 LP  0  0  0  0  0  0  0  0  0  0  0  0  # atno 17395 bound_to 11000

$$$$
