AV-unprocessed.smi:1929|AV-procd|sdf|7805|dock4
  -GOLD-   22720 9543D 1   1.00000     0.00000
 Structure written by MMmdl.
 42 43  0  0  0  0  0  0  0  0  3 V2000
  146.8780  136.7380  162.4740 C   0  0  0  0  0  0  0  0  0  0  0  0
  147.6036  137.0155  161.2405 N   0  5  0  0  0  0  0  0  0  0  0  0
  148.0116  136.0484  160.3756 C   0  0  0  0  0  0  0  0  0  0  0  0
  148.8404  136.0827  159.4599 O   0  0  0  0  0  0  0  0  0  0  0  0
  147.2587  134.7357  160.6201 C   0  0  0  0  0  0  0  0  0  0  0  0
  146.6188  134.2713  159.3638 N   0  3  2  0  0  0  0  0  0  0  0  0
  147.5975  133.8421  158.3279 C   0  0  0  0  0  0  0  0  0  0  0  0
  146.8846  133.2475  157.1022 C   0  0  0  0  0  0  0  0  0  0  0  0
  145.8723  134.2406  156.5104 C   0  0  1  0  0  0  0  0  0  0  0  0
  145.1494  133.6143  155.4073 N   0  0  0  0  0  0  0  0  0  0  0  0
  145.5566  133.5960  154.1297 C   0  0  0  0  0  0  0  0  0  0  0  0
  146.5998  134.1235  153.7441 O   0  0  0  0  0  0  0  0  0  0  0  0
  144.6713  132.9560  153.3462 N   0  0  0  0  0  0  0  0  0  0  0  0
  144.7485  132.6938  151.9512 C   0  0  0  0  0  0  0  0  0  0  0  0
  143.5495  132.7235  151.2093 C   0  0  0  0  0  0  0  0  0  0  0  0
  143.5983  132.4469  149.8283 C   0  0  0  0  0  0  0  0  0  0  0  0
  144.7378  132.1426  149.1724 N   0  0  0  0  0  0  0  0  0  0  0  0
  145.8824  132.1003  149.8866 C   0  0  0  0  0  0  0  0  0  0  0  0
  145.9446  132.3616  151.2702 C   0  0  0  0  0  0  0  0  0  0  0  0
  144.8981  134.7000  157.6100 C   0  0  0  0  0  0  0  0  0  0  0  0
  145.6549  135.2632  158.8240 C   0  0  0  0  0  0  0  0  0  0  0  0
  146.6104  137.6536  163.0008 H   0  0  0  0  0  0  0  0  0  0  0  0
  147.4625  136.1393  163.1732 H   0  0  0  0  0  0  0  0  0  0  0  0
  145.9467  136.1988  162.2983 H   0  0  0  0  0  0  0  0  0  0  0  0
  147.9981  134.0058  160.9528 H   0  0  0  0  0  0  0  0  0  0  0  0
  146.5211  134.8119  161.4223 H   0  0  0  0  0  0  0  0  0  0  0  0
  148.2102  134.6943  158.0299 H   0  0  0  0  0  0  0  0  0  0  0  0
  148.2778  133.0939  158.7348 H   0  0  0  0  0  0  0  0  0  0  0  0
  147.6216  132.9700  156.3478 H   0  0  0  0  0  0  0  0  0  0  0  0
  146.3769  132.3263  157.3928 H   0  0  0  0  0  0  0  0  0  0  0  0
  146.4223  135.1066  156.1360 H   0  0  0  0  0  0  0  0  0  0  0  0
  144.2760  133.1614  155.6342 H   0  0  0  0  0  0  0  0  0  0  0  0
  143.8166  132.6579  153.7927 H   0  0  0  0  0  0  0  0  0  0  0  0
  142.6076  132.9581  151.6836 H   0  0  0  0  0  0  0  0  0  0  0  0
  142.6960  132.4677  149.2350 H   0  0  0  0  0  0  0  0  0  0  0  0
  146.7775  131.8429  149.3401 H   0  0  0  0  0  0  0  0  0  0  0  0
  146.8950  132.2888  151.7757 H   0  0  0  0  0  0  0  0  0  0  0  0
  144.2183  135.4583  157.2194 H   0  0  0  0  0  0  0  0  0  0  0  0
  144.2763  133.8623  157.9292 H   0  0  0  0  0  0  0  0  0  0  0  0
  144.9352  135.5371  159.5964 H   0  0  0  0  0  0  0  0  0  0  0  0
  146.1868  136.1749  158.5474 H   0  0  0  0  0  0  0  0  0  0  0  0
  146.0794  133.4555  159.6161 H   0  0  0  0  0  0  0  0  0  0  0  0
  1  2  1  0  0  0  0
  1 22  1  0  0  0  0
  1 23  1  0  0  0  0
  1 24  1  0  0  0  0
  2  3  1  0  0  0  0
  3  4  2  0  0  0  0
  3  5  1  0  0  0  0
  5  6  1  0  0  0  0
  5 25  1  0  0  0  0
  5 26  1  0  0  0  0
  6 21  1  0  0  0  0
  6  7  1  0  0  0  0
  6 42  1  0  0  0  0
  7  8  1  0  0  0  0
  7 27  1  0  0  0  0
  7 28  1  0  0  0  0
  8  9  1  0  0  0  0
  8 29  1  0  0  0  0
  8 30  1  0  0  0  0
  9 10  1  0  0  0  0
  9 20  1  0  0  0  0
  9 31  1  0  0  0  0
 10 11  1  0  0  0  0
 10 32  1  0  0  0  0
 11 12  2  0  0  0  0
 11 13  1  0  0  0  0
 13 14  1  0  0  0  0
 13 33  1  0  0  0  0
 14 19  1  0  0  0  0
 14 15  2  0  0  0  0
 15 16  1  0  0  0  0
 15 34  1  0  0  0  0
 16 17  2  0  0  0  0
 16 35  1  0  0  0  0
 17 18  1  0  0  0  0
 18 19  2  0  0  0  0
 18 36  1  0  0  0  0
 19 37  1  0  0  0  0
 20 21  1  0  0  0  0
 20 38  1  0  0  0  0
 20 39  1  0  0  0  0
 21 40  1  0  0  0  0
 21 41  1  0  0  0  0
M  CHG  1   2  -1
M  CHG  1   6   1
M  END
> <s_m_source_file>
AV-unprocessed.smi

> <i_m_source_file_index>
1929

> <i_lp_mmshare_version>
43012

> <i_f3d_flags>
0

> <s_epik_input>
W0NIM11bTkhdQyg9TylbQ0gyXU4xW0NIMl1bQ0gyXVtDSF0oW0NIMl1bQ0gyXTEpW05IXUMoPU8pW05IXWMyW2NIXVtjSF1uW2NIXVtjSF0y

> <s_epik_cmdline>
J2VwaWtfcHl0aG9uJywgJy1waCcsICc3LjAnLCAnLXRuJywgJzgnLCAnLW1hJywgJzIwMCcsICctbWV0YWxfYmluZGluZycsICctaW1hZScsICc8aW5maWxlLm1hZT4nLCAnLW9tYWUnLCAnPG91dGZpbGUubWFlPic=

> <r_epik_Ionization_Penalty>
6.23856

> <r_epik_Ionization_Penalty_Charging>
6.13946

> <r_epik_Ionization_Penalty_Neutral>
0.0990993

> <r_epik_State_Penalty>
7.04382

> <r_epik_Charging_Adjusted_Penalty>
13.1833

> <i_epik_Tot_Q>
0

> <i_epik_Tot_abs_Q>
2

> <r_epik_Metal_State_Penalty>
3.07449

> <b_epik_Metal_Only>
1

> <s_lp_Force_Field>
OPLS_2005

> <r_lp_Energy>
14.2578

> <b_lp_Chiralities_Consistent>
1

> <s_lp_Variant>
AV-unprocessed.smi:1929-7

> <Gold.Version>
5.8.1

> <Gold.Id.Protein>
6NUR|6NUR_protein|mol2

> <Gold.PLP.Fitness>
48.1313

> <Gold.PLP.PLP>
-28.2784

> <Gold.PLP.part.hbond>
-4.0518

> <Gold.PLP.part.metal>
0.0000

> <Gold.PLP.part.buried>
-5.8326

> <Gold.PLP.part.nonpolar>
-20.1930

> <Gold.PLP.part.repulsive>
0.2697

> <Gold.PLP.ligand.clash>
0.0000

> <Gold.PLP.ligand.torsion>
0.7481

> <Gold.PLP.Chemscore.Hbond>
5.2920

> <Gold.PLP.Chemscore.CHOScore>
1.8010

> <Gold.PLP.Chemscore.Metal>
0.0000

> <Gold.Chemscore.Hbonds>
donor molecule, donor type, donor heavy atom, donor atom, acceptor molecule, acceptor atom, score
      L1  H    10    32       P1 10957  0.32
      L1  H    13    33       P1 10957  1.00
      P1  H  6896  6907       L1     4  0.24
      P1  H  6931  6943       L1     2  2.00
      P1  H  6934  6947       L1     2  1.63
      L1  C    16    35       P1 10186  0.68
      L1  C    16    35       P1 10952  0.17
      L1  C    18    36       P1 10747  0.91

> <Gold.PLP.Chemscore.Internal.Correction>
0.0698

> <Gold.Rescore>
     Score         DG    S(hbond)    S(metal)    S(lipo)     H(rot)  DE(clash)    DE(int)     intcor
     13.97     -16.05       2.25        0.00      61.71       1.63       0.00       2.08       ----

> <Gold.Chemscore.Fitness>
13.9682

> <Gold.Chemscore.DG>
-16.0488

> <Gold.Chemscore.ZeroCoef>
-5.4800

> <Gold.Chemscore.Hbond>
2.2537

> <Gold.Chemscore.Metal>
0.0000

> <Gold.Chemscore.Lipo>
61.7099

> <Gold.Chemscore.Internal_Hbond>
0.0000

> <Gold.Chemscore.DEClash>
0.0000

> <Gold.Chemscore.DEInternal>
2.0806

> <Gold.Chemscore.Rot>
1.6323

> <Gold.Chemscore.Internal.Correction>
   9.000000E+99

> <Gold.Chemscore.Hbonds>
donor molecule, donor type, donor heavy atom, donor atom, acceptor molecule, acceptor atom, score
      L1  H    10    32       P1 10957  0.32
      L1  H    13    33       P1 10957  0.74
      P1  H  6896  6907       L1     4  0.24
      P1  H  6931  6943       L1     2  0.25
      P1  H  6934  6947       L1     2  0.27

> <Gold.Chemscore.Hbond.Weighted>
-7.5273

> <Gold.Chemscore.Metal.Weighted>
-0.0000

> <Gold.Chemscore.Lipo.Weighted>
-7.2201

> <Gold.Chemscore.Internal_Hbond.Weighted>
0.0000

> <Gold.Chemscore.DEClash.Weighted>
0.0000

> <Gold.Chemscore.DEInternal.Weighted>
2.0806

> <Gold.Chemscore.Rot.Weighted>
4.1786

> <Gold.Chemscore.Internal.Correction.Weighted>
   9.000000E+99

> <Gold.Protein.RotatedTorsions>
[ 6907 6896 6895 6894 ] final  -53.36 input  -60.11 | X-H torsion
[ 7974 7965 7964 7962 ] final -144.39 input  175.53 | X-H torsion
[ 8008 7997 7996 7995 ] final  129.49 input   59.86 | X-H torsion
[ 10167 10162 10161 10158 ] final  -88.20 input  -65.29 | X-H torsion
[ 10718 10713 10712 10709 ] final  179.96 input   66.30 | X-H torsion
[ 10763 10752 10751 10750 ] final  -10.70 input  -60.55 | X-H torsion
[ 11005 11000 10999 10996 ] final  -43.84 input  -57.11 | X-H torsion

> <Gold.Protein.ActiveResidues>
 VAL166  LYS551  ARG553  GLY616  TRP617  ASP618  TYR619  PRO620  LYS621  CYS622 
 ASP623  PHE694  ASN695  SER759  ASP760  ASP761  ALA762  ILE779  LEU786  VAL792 
 PHE793  MET794  SER795  GLU796  ALA797  LYS798  CYS799  TRP800  GLU811  SER814 

> <Gold.Protein.RotatedAtoms>
  150.8433  134.7733  159.6950 H   0  0  0  0  0  0  0  0  0  0  0  0  # atno 6907 bound_to 6896
  152.4516  134.5378  159.9840 H   0  0  0  0  0  0  0  0  0  0  0  0  # atno 6908 bound_to 6896
  151.5514  133.3379  159.2989 H   0  0  0  0  0  0  0  0  0  0  0  0  # atno 6909 bound_to 6896
  144.8301  140.5716  143.5521 H   0  0  0  0  0  0  0  0  0  0  0  0  # atno 7974 bound_to 7965
  156.2937  140.2619  156.2607 H   0  0  0  0  0  0  0  0  0  0  0  0  # atno 8008 bound_to 7997
  154.9791  140.0390  157.2288 H   0  0  0  0  0  0  0  0  0  0  0  0  # atno 8009 bound_to 7997
  154.7788  140.2791  155.6084 H   0  0  0  0  0  0  0  0  0  0  0  0  # atno 8010 bound_to 7997
  140.3770  143.2767  151.9431 H   0  0  0  0  0  0  0  0  0  0  0  0  # atno 10167 bound_to 10162
  156.8680  130.9774  151.3076 H   0  0  0  0  0  0  0  0  0  0  0  0  # atno 10718 bound_to 10713
  153.4730  135.7017  153.5982 H   0  0  0  0  0  0  0  0  0  0  0  0  # atno 10763 bound_to 10752
  153.4228  135.3821  155.2122 H   0  0  0  0  0  0  0  0  0  0  0  0  # atno 10764 bound_to 10752
  154.8724  135.3932  154.4170 H   0  0  0  0  0  0  0  0  0  0  0  0  # atno 10765 bound_to 10752
  141.0410  133.6780  156.2789 H   0  0  0  0  0  0  0  0  0  0  0  0  # atno 11005 bound_to 11000
  145.4914  139.1488  143.3707 LP  0  0  0  0  0  0  0  0  0  0  0  0  # atno 17320 bound_to 7965
  146.2604  140.5052  142.8856 LP  0  0  0  0  0  0  0  0  0  0  0  0  # atno 17321 bound_to 7965
  139.4798  144.5854  151.7862 LP  0  0  0  0  0  0  0  0  0  0  0  0  # atno 17342 bound_to 10162
  140.4976  144.1217  150.5964 LP  0  0  0  0  0  0  0  0  0  0  0  0  # atno 17343 bound_to 10162
  157.6212  130.8656  149.9112 LP  0  0  0  0  0  0  0  0  0  0  0  0  # atno 17370 bound_to 10713
  156.0741  130.3681  150.0713 LP  0  0  0  0  0  0  0  0  0  0  0  0  # atno 17371 bound_to 10713
  140.6233  134.5339  157.5550 LP  0  0  0  0  0  0  0  0  0  0  0  0  # atno 17394 bound_to 11000
  139.9276  134.8026  156.1023 LP  0  0  0  0  0  0  0  0  0  0  0  0  # atno 17395 bound_to 11000

$$$$
