AV-unprocessed.smi:1032|AV-procd|sdf|4488|dock9
  -GOLD-   22720 2473D 1   1.00000     0.00000
 Structure written by MMmdl.
 47 48  0  0  0  0  0  0  0  0  3 V2000
  144.6768  133.9506  150.3625 C   0  0  0  0  0  0  0  0  0  0  0  0
  146.0257  134.6903  150.3907 C   0  0  2  0  0  0  0  0  0  0  0  0
  147.2177  133.7463  150.6311 C   0  0  0  0  0  0  0  0  0  0  0  0
  147.2999  133.2688  152.0923 C   0  0  0  0  0  0  0  0  0  0  0  0
  147.3424  134.4166  153.0346 N   0  3  2  0  0  0  0  0  0  0  0  0
  147.5572  133.9839  154.4397 C   0  0  0  0  0  0  0  0  0  0  0  0
  148.9568  133.3761  154.6649 C   0  0  2  0  0  0  0  0  0  0  0  0
  148.8724  132.4982  155.7710 O   0  0  0  0  0  0  0  0  0  0  0  0
  150.0024  134.4627  154.9918 C   0  0  0  0  0  0  0  0  0  0  0  0
  149.6949  135.7331  154.3411 N   0  0  0  0  0  0  0  0  0  0  0  0
  149.6373  136.9198  154.9627 C   0  0  0  0  0  0  0  0  0  0  0  0
  149.8250  137.0591  156.1714 O   0  0  0  0  0  0  0  0  0  0  0  0
  149.3288  137.9082  154.1053 N   0  0  0  0  0  0  0  0  0  0  0  0
  149.1959  139.2984  154.3711 C   0  0  0  0  0  0  0  0  0  0  0  0
  150.0874  139.8756  155.3026 C   0  0  0  0  0  0  0  0  0  0  0  0
  149.9816  141.2478  155.6088 C   0  0  0  0  0  0  0  0  0  0  0  0
  149.0248  141.9966  155.0197 N   0  3  0  0  0  0  0  0  0  0  0  0
  148.1406  141.4869  154.1355 C   0  0  0  0  0  0  0  0  0  0  0  0
  148.1979  140.1214  153.7893 C   0  0  0  0  0  0  0  0  0  0  0  0
  146.1607  135.3043  152.8679 C   0  0  0  0  0  0  0  0  0  0  0  0
  146.0593  135.8300  151.4249 C   0  0  0  0  0  0  0  0  0  0  0  0
  144.4515  133.4661  151.3121 H   0  0  0  0  0  0  0  0  0  0  0  0
  144.6711  133.1801  149.5911 H   0  0  0  0  0  0  0  0  0  0  0  0
  143.8598  134.6383  150.1418 H   0  0  0  0  0  0  0  0  0  0  0  0
  146.1523  135.1370  149.4035 H   0  0  0  0  0  0  0  0  0  0  0  0
  147.1613  132.8886  149.9599 H   0  0  0  0  0  0  0  0  0  0  0  0
  148.1422  134.2670  150.3777 H   0  0  0  0  0  0  0  0  0  0  0  0
  146.4526  132.6262  152.3350 H   0  0  0  0  0  0  0  0  0  0  0  0
  148.1985  132.6625  152.2140 H   0  0  0  0  0  0  0  0  0  0  0  0
  147.3980  134.8381  155.0998 H   0  0  0  0  0  0  0  0  0  0  0  0
  146.8078  133.2425  154.7229 H   0  0  0  0  0  0  0  0  0  0  0  0
  149.2682  132.8125  153.7862 H   0  0  0  0  0  0  0  0  0  0  0  0
  149.7171  132.0954  155.9044 H   0  0  0  0  0  0  0  0  0  0  0  0
  150.0401  134.6332  156.0693 H   0  0  0  0  0  0  0  0  0  0  0  0
  151.0048  134.1414  154.7055 H   0  0  0  0  0  0  0  0  0  0  0  0
  149.5189  135.7032  153.3472 H   0  0  0  0  0  0  0  0  0  0  0  0
  149.1128  137.6244  153.1609 H   0  0  0  0  0  0  0  0  0  0  0  0
  150.8519  139.2770  155.7767 H   0  0  0  0  0  0  0  0  0  0  0  0
  150.6275  141.7641  156.3043 H   0  0  0  0  0  0  0  0  0  0  0  0
  147.4139  142.1803  153.7380 H   0  0  0  0  0  0  0  0  0  0  0  0
  147.4687  139.7313  153.0960 H   0  0  0  0  0  0  0  0  0  0  0  0
  145.2536  134.7634  153.1407 H   0  0  0  0  0  0  0  0  0  0  0  0
  146.2265  136.1552  153.5447 H   0  0  0  0  0  0  0  0  0  0  0  0
  146.9186  136.4709  151.2220 H   0  0  0  0  0  0  0  0  0  0  0  0
  145.1784  136.4641  151.3177 H   0  0  0  0  0  0  0  0  0  0  0  0
  148.1566  134.9581  152.7800 H   0  0  0  0  0  0  0  0  0  0  0  0
  148.9641  142.9874  155.2562 H   0  0  0  0  0  0  0  0  0  0  0  0
  1  2  1  0  0  0  0
  1 22  1  0  0  0  0
  1 23  1  0  0  0  0
  1 24  1  0  0  0  0
  2 21  1  0  0  0  0
  2  3  1  0  0  0  0
  2 25  1  0  0  0  0
  3  4  1  0  0  0  0
  3 26  1  0  0  0  0
  3 27  1  0  0  0  0
  4  5  1  0  0  0  0
  4 28  1  0  0  0  0
  4 29  1  0  0  0  0
  5  6  1  0  0  0  0
  5 20  1  0  0  0  0
  5 46  1  0  0  0  0
  6  7  1  0  0  0  0
  6 30  1  0  0  0  0
  6 31  1  0  0  0  0
  7  8  1  0  0  0  0
  7  9  1  0  0  0  0
  7 32  1  0  0  0  0
  8 33  1  0  0  0  0
  9 10  1  0  0  0  0
  9 34  1  0  0  0  0
  9 35  1  0  0  0  0
 10 11  1  0  0  0  0
 10 36  1  0  0  0  0
 11 12  2  0  0  0  0
 11 13  1  0  0  0  0
 13 14  1  0  0  0  0
 13 37  1  0  0  0  0
 14 19  1  0  0  0  0
 14 15  2  0  0  0  0
 15 16  1  0  0  0  0
 15 38  1  0  0  0  0
 16 17  2  0  0  0  0
 16 39  1  0  0  0  0
 17 18  1  0  0  0  0
 17 47  1  0  0  0  0
 18 19  2  0  0  0  0
 18 40  1  0  0  0  0
 19 41  1  0  0  0  0
 20 21  1  0  0  0  0
 20 42  1  0  0  0  0
 20 43  1  0  0  0  0
 21 44  1  0  0  0  0
 21 45  1  0  0  0  0
M  CHG  1   5   1
M  CHG  1  17   1
M  END
> <s_m_source_file>
AV-unprocessed.smi

> <i_m_source_file_index>
1032

> <i_lp_mmshare_version>
43012

> <i_f3d_flags>
0

> <s_epik_input>
W0NIM11bQ0hdMVtDSDJdW0NIMl1OKFtDSDJdW0NIMl0xKVtDSDJdW0NASF0oW09IXSlbQ0gyXVtOSF1DKD1PKVtOSF1jMltjSF1bY0hdbltjSF1bY0hdMg==

> <s_epik_cmdline>
J2VwaWtfcHl0aG9uJywgJy1waCcsICc3LjAnLCAnLXRuJywgJzgnLCAnLW1hJywgJzIwMCcsICctbWV0YWxfYmluZGluZycsICctaW1hZScsICc8aW5maWxlLm1hZT4nLCAnLW9tYWUnLCAnPG91dGZpbGUubWFlPic=

> <r_epik_Ionization_Penalty>
1.02509

> <r_epik_Ionization_Penalty_Charging>
1.02507

> <r_epik_Ionization_Penalty_Neutral>
1.85474e-05

> <r_epik_State_Penalty>
1.07411

> <r_epik_Charging_Adjusted_Penalty>
2.09917

> <i_epik_Tot_Q>
2

> <i_epik_Tot_abs_Q>
2

> <r_epik_Metal_State_Penalty>
1.1725

> <b_epik_Metal_Only>
0

> <s_lp_Force_Field>
OPLS_2005

> <r_lp_Energy>
33.8521

> <b_lp_Chiralities_Consistent>
1

> <s_lp_Variant>
AV-unprocessed.smi:1032-7

> <Gold.Version>
5.8.1

> <Gold.Id.Protein>
6NUR|6NUR_protein|mol2

> <Gold.PLP.Fitness>
49.7481

> <Gold.PLP.PLP>
-34.0386

> <Gold.PLP.part.hbond>
-4.4423

> <Gold.PLP.part.metal>
0.0000

> <Gold.PLP.part.buried>
-3.9640

> <Gold.PLP.part.nonpolar>
-25.9552

> <Gold.PLP.part.repulsive>
0.2846

> <Gold.PLP.ligand.clash>
0.0000

> <Gold.PLP.ligand.torsion>
1.0560

> <Gold.PLP.Chemscore.Hbond>
5.9280

> <Gold.PLP.Chemscore.CHOScore>
0.0000

> <Gold.PLP.Chemscore.Metal>
0.0000

> <Gold.Chemscore.Hbonds>
donor molecule, donor type, donor heavy atom, donor atom, acceptor molecule, acceptor atom, score
      L1  H     5    46       P1  7948  2.00
      L1  H    10    36       P1  7948  0.85
      L1  H    13    37       P1  7948  0.99
      L1  H    17    47       P1  8028  2.00

> <Gold.PLP.Chemscore.Internal.Correction>
0.0375

> <Gold.Rescore>
     Score         DG    S(hbond)    S(metal)    S(lipo)     H(rot)  DE(clash)    DE(int)     intcor
     16.69     -20.06       3.46        0.00      77.13       2.34       0.04       3.33       ----

> <Gold.Chemscore.Fitness>
16.6884

> <Gold.Chemscore.DG>
-20.0591

> <Gold.Chemscore.ZeroCoef>
-5.4800

> <Gold.Chemscore.Hbond>
3.4561

> <Gold.Chemscore.Metal>
0.0000

> <Gold.Chemscore.Lipo>
77.1328

> <Gold.Chemscore.Internal_Hbond>
0.0000

> <Gold.Chemscore.DEClash>
0.0420

> <Gold.Chemscore.DEInternal>
3.3288

> <Gold.Chemscore.Rot>
2.3393

> <Gold.Chemscore.Internal.Correction>
   9.000000E+99

> <Gold.Chemscore.Hbonds>
donor molecule, donor type, donor heavy atom, donor atom, acceptor molecule, acceptor atom, score
      L1  H     5    46       P1  7948  0.83
      L1  H    10    36       P1  7948  0.14
      L1  H    13    37       P1  7948  0.94
      L1  H    17    47       P1  8028  1.00

> <Gold.Chemscore.Hbond.Weighted>
-11.5433

> <Gold.Chemscore.Metal.Weighted>
-0.0000

> <Gold.Chemscore.Lipo.Weighted>
-9.0245

> <Gold.Chemscore.Internal_Hbond.Weighted>
0.0000

> <Gold.Chemscore.DEClash.Weighted>
0.0420

> <Gold.Chemscore.DEInternal.Weighted>
3.3288

> <Gold.Chemscore.Rot.Weighted>
5.9886

> <Gold.Chemscore.Internal.Correction.Weighted>
   9.000000E+99

> <Gold.Protein.RotatedTorsions>
[ 6907 6896 6895 6894 ] final  167.43 input  -60.11 | X-H torsion
[ 7974 7965 7964 7962 ] final  -11.63 input  175.53 | X-H torsion
[ 8008 7997 7996 7995 ] final   71.94 input   59.86 | X-H torsion
[ 10167 10162 10161 10158 ] final  -93.30 input  -65.29 | X-H torsion
[ 10718 10713 10712 10709 ] final   50.71 input   66.30 | X-H torsion
[ 10763 10752 10751 10750 ] final   64.96 input  -60.55 | X-H torsion
[ 11005 11000 10999 10996 ] final  -78.43 input  -57.11 | X-H torsion

> <Gold.Protein.ActiveResidues>
 VAL166  LYS551  ARG553  GLY616  TRP617  ASP618  TYR619  PRO620  LYS621  CYS622 
 ASP623  PHE694  ASN695  SER759  ASP760  ASP761  ALA762  ILE779  LEU786  VAL792 
 PHE793  MET794  SER795  GLU796  ALA797  LYS798  CYS799  TRP800  GLU811  SER814 

> <Gold.Protein.RotatedAtoms>
  151.8634  133.3461  159.3710 H   0  0  0  0  0  0  0  0  0  0  0  0  # atno 6907 bound_to 6896
  150.7173  134.5184  159.5651 H   0  0  0  0  0  0  0  0  0  0  0  0  # atno 6908 bound_to 6896
  152.2702  134.7941  160.0466 H   0  0  0  0  0  0  0  0  0  0  0  0  # atno 6909 bound_to 6896
  146.2180  140.2939  142.8370 H   0  0  0  0  0  0  0  0  0  0  0  0  # atno 7974 bound_to 7965
  155.7613  140.3486  155.5199 H   0  0  0  0  0  0  0  0  0  0  0  0  # atno 8008 bound_to 7997
  155.8911  140.1018  157.1439 H   0  0  0  0  0  0  0  0  0  0  0  0  # atno 8009 bound_to 7997
  154.4033  140.1304  156.4304 H   0  0  0  0  0  0  0  0  0  0  0  0  # atno 8010 bound_to 7997
  140.3261  143.3021  151.9994 H   0  0  0  0  0  0  0  0  0  0  0  0  # atno 10167 bound_to 10162
  157.4910  130.8376  149.8203 H   0  0  0  0  0  0  0  0  0  0  0  0  # atno 10718 bound_to 10713
  153.0076  135.5374  154.6592 H   0  0  0  0  0  0  0  0  0  0  0  0  # atno 10763 bound_to 10752
  154.5805  135.2849  155.0740 H   0  0  0  0  0  0  0  0  0  0  0  0  # atno 10764 bound_to 10752
  154.1871  135.6506  153.5102 H   0  0  0  0  0  0  0  0  0  0  0  0  # atno 10765 bound_to 10752
  141.1664  133.7063  156.7970 H   0  0  0  0  0  0  0  0  0  0  0  0  # atno 11005 bound_to 11000
  144.9106  140.7753  143.5810 LP  0  0  0  0  0  0  0  0  0  0  0  0  # atno 17320 bound_to 7965
  145.2870  139.1897  143.4760 LP  0  0  0  0  0  0  0  0  0  0  0  0  # atno 17321 bound_to 7965
  139.4865  144.6273  151.7140 LP  0  0  0  0  0  0  0  0  0  0  0  0  # atno 17342 bound_to 10162
  140.5440  144.0533  150.6099 LP  0  0  0  0  0  0  0  0  0  0  0  0  # atno 17343 bound_to 10162
  156.0174  130.3808  150.2069 LP  0  0  0  0  0  0  0  0  0  0  0  0  # atno 17370 bound_to 10713
  157.0257  130.9992  151.3327 LP  0  0  0  0  0  0  0  0  0  0  0  0  # atno 17371 bound_to 10713
  140.2284  134.8704  157.3451 LP  0  0  0  0  0  0  0  0  0  0  0  0  # atno 17394 bound_to 11000
  140.1916  134.4364  155.7712 LP  0  0  0  0  0  0  0  0  0  0  0  0  # atno 17395 bound_to 11000

$$$$
