AV-unprocessed.smi:123|AV-procd|sdf|1146|dock8
  -GOLD-   2262018283D 1   1.00000     0.00000
 Structure written by MMmdl.
 43 45  0  0  0  0  0  0  0  0  1 V2000
  147.2567  140.0384  156.0410 C   0  0  0  0  0  0  0  0  0  0  0  0
  147.2358  141.4811  156.5626 C   0  0  1  0  0  0  0  0  0  0  0  0
  148.5959  142.0117  156.5609 N   0  0  0  0  0  0  0  0  0  0  0  0
  149.6755  141.3774  157.0428 C   0  0  0  0  0  0  0  0  0  0  0  0
  149.6296  140.2489  157.5353 O   0  0  0  0  0  0  0  0  0  0  0  0
  151.0005  142.1491  156.9461 C   0  0  0  0  0  0  0  0  0  0  0  0
  151.7037  142.2815  158.2414 N   0  0  0  0  0  0  0  0  0  0  0  0
  151.5411  143.4780  158.9823 C   0  0  0  0  0  0  0  0  0  0  0  0
  150.8156  144.3876  158.5772 O   0  0  0  0  0  0  0  0  0  0  0  0
  152.2938  143.5530  160.2284 C   0  0  0  0  0  0  0  0  0  0  0  0
  152.2121  144.6567  160.9904 F   0  0  0  0  0  0  0  0  0  0  0  0
  153.0776  142.5308  160.6283 C   0  0  0  0  0  0  0  0  0  0  0  0
  153.2137  141.3601  159.9079 N   0  0  0  0  0  0  0  0  0  0  0  0
  154.1591  140.2942  160.4188 C   0  0  1  0  0  0  0  0  0  0  0  0
  155.6376  140.5797  160.1152 C   0  0  0  0  0  0  0  0  0  0  0  0
  156.3059  140.0196  161.3524 C   0  0  0  0  0  0  0  0  0  0  0  0
  155.2825  140.3360  162.4376 C   0  0  0  0  0  0  0  0  0  0  0  0
  154.0152  140.1780  161.8050 O   0  0  0  0  0  0  0  0  0  0  0  0
  152.5431  141.2245  158.6693 C   0  0  0  0  0  0  0  0  0  0  0  0
  152.6883  140.2193  157.9722 O   0  0  0  0  0  0  0  0  0  0  0  0
  146.3073  142.3515  155.7741 C   0  0  0  0  0  0  0  0  0  0  0  0
  146.2589  142.7198  154.4579 C   0  0  0  0  0  0  0  0  0  0  0  0
  145.1326  143.5775  154.3219 C   0  0  0  0  0  0  0  0  0  0  0  0
  144.5797  143.6733  155.5669 C   0  0  0  0  0  0  0  0  0  0  0  0
  145.2860  142.9351  156.4653 O   0  0  0  0  0  0  0  0  0  0  0  0
  146.2605  139.5966  156.0751 H   0  0  0  0  0  0  0  0  0  0  0  0
  147.9152  139.4118  156.6432 H   0  0  0  0  0  0  0  0  0  0  0  0
  147.6050  139.9929  155.0085 H   0  0  0  0  0  0  0  0  0  0  0  0
  146.8849  141.4480  157.5957 H   0  0  0  0  0  0  0  0  0  0  0  0
  148.7223  142.9368  156.1772 H   0  0  0  0  0  0  0  0  0  0  0  0
  151.6320  141.6575  156.2044 H   0  0  0  0  0  0  0  0  0  0  0  0
  150.8001  143.1298  156.5116 H   0  0  0  0  0  0  0  0  0  0  0  0
  153.6178  142.6411  161.5572 H   0  0  0  0  0  0  0  0  0  0  0  0
  153.8290  139.3573  159.9682 H   0  0  0  0  0  0  0  0  0  0  0  0
  155.9482  140.0895  159.1923 H   0  0  0  0  0  0  0  0  0  0  0  0
  155.8307  141.6477  160.0251 H   0  0  0  0  0  0  0  0  0  0  0  0
  156.4265  138.9397  161.2564 H   0  0  0  0  0  0  0  0  0  0  0  0
  157.2845  140.4586  161.5471 H   0  0  0  0  0  0  0  0  0  0  0  0
  155.3774  139.6826  163.3050 H   0  0  0  0  0  0  0  0  0  0  0  0
  155.3928  141.3650  162.7802 H   0  0  0  0  0  0  0  0  0  0  0  0
  146.9480  142.4069  153.6876 H   0  0  0  0  0  0  0  0  0  0  0  0
  144.7728  144.0631  153.4269 H   0  0  0  0  0  0  0  0  0  0  0  0
  143.7264  144.1983  155.9702 H   0  0  0  0  0  0  0  0  0  0  0  0
  1  2  1  0  0  0  0
  1 26  1  0  0  0  0
  1 27  1  0  0  0  0
  1 28  1  0  0  0  0
  2  3  1  0  0  0  0
  2 21  1  0  0  0  0
  2 29  1  0  0  0  0
  3  4  1  0  0  0  0
  3 30  1  0  0  0  0
  4  5  2  0  0  0  0
  4  6  1  0  0  0  0
  6  7  1  0  0  0  0
  6 31  1  0  0  0  0
  6 32  1  0  0  0  0
  7 19  1  0  0  0  0
  7  8  1  0  0  0  0
  8  9  2  0  0  0  0
  8 10  1  0  0  0  0
 10 11  1  0  0  0  0
 10 12  2  0  0  0  0
 12 13  1  0  0  0  0
 12 33  1  0  0  0  0
 13 14  1  0  0  0  0
 13 19  1  0  0  0  0
 14 18  1  0  0  0  0
 14 15  1  0  0  0  0
 14 34  1  0  0  0  0
 15 16  1  0  0  0  0
 15 35  1  0  0  0  0
 15 36  1  0  0  0  0
 16 17  1  0  0  0  0
 16 37  1  0  0  0  0
 16 38  1  0  0  0  0
 17 18  1  0  0  0  0
 17 39  1  0  0  0  0
 17 40  1  0  0  0  0
 19 20  2  0  0  0  0
 21 25  1  0  0  0  0
 21 22  2  0  0  0  0
 22 23  1  0  0  0  0
 22 41  1  0  0  0  0
 23 24  2  0  0  0  0
 23 42  1  0  0  0  0
 24 25  1  0  0  0  0
 24 43  1  0  0  0  0
M  END
> <s_m_source_file>
AV-unprocessed.smi

> <i_m_source_file_index>
123

> <i_lp_mmshare_version>
43012

> <i_f3d_flags>
0

> <s_epik_input>
bzFbY0hdW2NIXVtjSF1jMVtDQEhdKFtDSDNdKVtOSF1DKD1PKVtDSDJdbjJjKD1PKWMoRilbY0hdbihjMj1PKVtDQEBIXTNbQ0gyXVtDSDJdW0NIMl1PMw==

> <s_epik_cmdline>
J2VwaWtfcHl0aG9uJywgJy1waCcsICc3LjAnLCAnLXRuJywgJzgnLCAnLW1hJywgJzIwMCcsICctbWV0YWxfYmluZGluZycsICctaW1hZScsICc8aW5maWxlLm1hZT4nLCAnLW9tYWUnLCAnPG91dGZpbGUubWFlPic=

> <r_lp_tautomer_probability>
1

> <r_epik_Ionization_Penalty>
2.31906e-08

> <r_epik_Ionization_Penalty_Charging>
3.85846e-09

> <r_epik_Ionization_Penalty_Neutral>
1.93321e-08

> <r_epik_State_Penalty>
-0

> <r_epik_Charging_Adjusted_Penalty>
3.85846e-09

> <i_epik_Tot_Q>
0

> <i_epik_Tot_abs_Q>
0

> <r_epik_Metal_State_Penalty>
-0

> <b_epik_Metal_Only>
0

> <s_epik_Chemistry_Notes>
This compound contains an acetal/aminal-like group ( X-CH(R)-Y where X, Y are N, S, or O) that may be acid/base labile, releasing an aldehyde.

> <s_lp_Force_Field>
OPLS_2005

> <r_lp_Energy>
16.2808

> <b_lp_Chiralities_Consistent>
1

> <s_lp_Variant>
AV-unprocessed.smi:123-4

> <Gold.Version>
5.8.1

> <Gold.Id.Protein>
6NUR|6NUR_protein|mol2

> <Gold.PLP.Fitness>
50.2732

> <Gold.PLP.PLP>
-46.3427

> <Gold.PLP.part.hbond>
-2.0000

> <Gold.PLP.part.metal>
0.0000

> <Gold.PLP.part.buried>
-6.8277

> <Gold.PLP.part.nonpolar>
-37.7622

> <Gold.PLP.part.repulsive>
0.3894

> <Gold.PLP.ligand.clash>
0.0000

> <Gold.PLP.ligand.torsion>
1.0607

> <Gold.PLP.Chemscore.Hbond>
2.0000

> <Gold.PLP.Chemscore.CHOScore>
0.0000

> <Gold.PLP.Chemscore.Metal>
0.0000

> <Gold.Chemscore.Hbonds>
donor molecule, donor type, donor heavy atom, donor atom, acceptor molecule, acceptor atom, score
      L1  H     3    30       P1  8028  1.00
      P1  H  7997  8009       L1    20  0.76

> <Gold.PLP.Chemscore.Internal.Correction>
0.0518

> <Gold.Rescore>
     Score         DG    S(hbond)    S(metal)    S(lipo)     H(rot)  DE(clash)    DE(int)     intcor
     13.69     -15.69       1.89        0.00      82.16       2.23       0.18       1.83       ----

> <Gold.Chemscore.Fitness>
13.6868

> <Gold.Chemscore.DG>
-15.6921

> <Gold.Chemscore.ZeroCoef>
-5.4800

> <Gold.Chemscore.Hbond>
1.8923

> <Gold.Chemscore.Metal>
0.0000

> <Gold.Chemscore.Lipo>
82.1589

> <Gold.Chemscore.Internal_Hbond>
0.0000

> <Gold.Chemscore.DEClash>
0.1767

> <Gold.Chemscore.DEInternal>
1.8286

> <Gold.Chemscore.Rot>
2.2347

> <Gold.Chemscore.Internal.Correction>
   9.000000E+99

> <Gold.Chemscore.Hbonds>
donor molecule, donor type, donor heavy atom, donor atom, acceptor molecule, acceptor atom, score
      L1  H     3    30       P1  8028  0.99
      P1  H  7997  8009       L1    20  0.69

> <Gold.Chemscore.Hbond.Weighted>
-6.3203

> <Gold.Chemscore.Metal.Weighted>
-0.0000

> <Gold.Chemscore.Lipo.Weighted>
-9.6126

> <Gold.Chemscore.Internal_Hbond.Weighted>
0.0000

> <Gold.Chemscore.DEClash.Weighted>
0.1767

> <Gold.Chemscore.DEInternal.Weighted>
1.8286

> <Gold.Chemscore.Rot.Weighted>
5.7208

> <Gold.Chemscore.Internal.Correction.Weighted>
   9.000000E+99

> <Gold.Protein.RotatedTorsions>
[ 6907 6896 6895 6894 ] final -144.39 input  -60.11 | X-H torsion
[ 7974 7965 7964 7962 ] final  140.88 input  175.53 | X-H torsion
[ 8008 7997 7996 7995 ] final  172.45 input   59.86 | X-H torsion
[ 10167 10162 10161 10158 ] final -158.39 input  -65.29 | X-H torsion
[ 10718 10713 10712 10709 ] final -120.03 input   66.30 | X-H torsion
[ 10763 10752 10751 10750 ] final  -24.80 input  -60.55 | X-H torsion
[ 11005 11000 10999 10996 ] final   72.71 input  -57.11 | X-H torsion

> <Gold.Protein.ActiveResidues>
 VAL166  LYS551  ARG553  GLY616  TRP617  ASP618  TYR619  PRO620  LYS621  CYS622 
 ASP623  PHE694  ASN695  SER759  ASP760  ASP761  ALA762  ILE779  LEU786  VAL792 
 PHE793  MET794  SER795  GLU796  ALA797  LYS798  CYS799  TRP800  GLU811  SER814 

> <Gold.Protein.RotatedAtoms>
  151.1134  133.5156  159.2604 H   0  0  0  0  0  0  0  0  0  0  0  0  # atno 6907 bound_to 6896
  151.1942  135.0415  159.8855 H   0  0  0  0  0  0  0  0  0  0  0  0  # atno 6908 bound_to 6896
  152.5451  134.0970  159.8355 H   0  0  0  0  0  0  0  0  0  0  0  0  # atno 6909 bound_to 6896
  144.9146  139.5247  143.5692 H   0  0  0  0  0  0  0  0  0  0  0  0  # atno 7974 bound_to 7965
  156.1173  140.1485  156.9254 H   0  0  0  0  0  0  0  0  0  0  0  0  # atno 8008 bound_to 7997
  154.4810  140.0879  156.7418 H   0  0  0  0  0  0  0  0  0  0  0  0  # atno 8009 bound_to 7997
  155.4491  140.3434  155.4301 H   0  0  0  0  0  0  0  0  0  0  0  0  # atno 8010 bound_to 7997
  139.6696  143.9769  152.2275 H   0  0  0  0  0  0  0  0  0  0  0  0  # atno 10167 bound_to 10162
  156.1226  130.6335  150.9490 H   0  0  0  0  0  0  0  0  0  0  0  0  # atno 10718 bound_to 10713
  153.6896  135.6962  153.5094 H   0  0  0  0  0  0  0  0  0  0  0  0  # atno 10763 bound_to 10752
  153.2423  135.4302  155.0710 H   0  0  0  0  0  0  0  0  0  0  0  0  # atno 10764 bound_to 10752
  154.8376  135.3511  154.6437 H   0  0  0  0  0  0  0  0  0  0  0  0  # atno 10765 bound_to 10752
  139.9477  134.7283  156.0938 H   0  0  0  0  0  0  0  0  0  0  0  0  # atno 11005 bound_to 11000
  146.3176  139.7979  142.8971 LP  0  0  0  0  0  0  0  0  0  0  0  0  # atno 17320 bound_to 7965
  145.3396  141.0285  143.3400 LP  0  0  0  0  0  0  0  0  0  0  0  0  # atno 17321 bound_to 7965
  139.9530  144.6608  150.8154 LP  0  0  0  0  0  0  0  0  0  0  0  0  # atno 17342 bound_to 10162
  140.7613  143.3170  151.2709 LP  0  0  0  0  0  0  0  0  0  0  0  0  # atno 17343 bound_to 10162
  157.6409  131.0910  150.8252 LP  0  0  0  0  0  0  0  0  0  0  0  0  # atno 17370 bound_to 10713
  156.8347  130.5027  149.5327 LP  0  0  0  0  0  0  0  0  0  0  0  0  # atno 17371 bound_to 10713
  141.1132  133.6636  156.3029 LP  0  0  0  0  0  0  0  0  0  0  0  0  # atno 17394 bound_to 11000
  140.5794  134.5761  157.5476 LP  0  0  0  0  0  0  0  0  0  0  0  0  # atno 17395 bound_to 11000

$$$$
