AV-unprocessed.smi:3194|AV-procd|sdf|12210|dock7
  -GOLD-   2272018 43D 1   1.00000     0.00000
 Structure written by MMmdl.
 28 28  0  0  0  0  0  0  0  0  1 V2000
  147.2449  142.1482  155.0475 C   0  0  0  0  0  0  0  0  0  0  0  0
  148.5532  141.3937  154.7531 C   0  0  2  0  0  0  0  0  0  0  0  0
  148.3416  140.0287  154.0719 C   0  0  0  0  0  0  0  0  0  0  0  0
  147.7173  140.1650  152.8112 O   0  0  0  0  0  0  0  0  0  0  0  0
  149.3554  141.2257  155.9616 N   0  0  0  0  0  0  0  0  0  0  0  0
  150.5376  140.5917  156.0402 C   0  0  0  0  0  0  0  0  0  0  0  0
  151.0883  140.0739  155.0676 O   0  0  0  0  0  0  0  0  0  0  0  0
  151.1940  140.5222  157.4273 C   0  0  0  0  0  0  0  0  0  0  0  0
  150.3378  139.9536  158.2795 F   0  0  0  0  0  0  0  0  0  0  0  0
  152.2798  139.7470  157.3635 F   0  0  0  0  0  0  0  0  0  0  0  0
  151.5710  141.9219  157.9058 C   0  0  0  0  0  0  0  0  0  0  0  0
  152.2551  142.1137  159.1279 C   0  0  0  0  0  0  0  0  0  0  0  0
  152.5669  143.4270  159.5291 C   0  0  0  0  0  0  0  0  0  0  0  0
  152.1845  144.4987  158.7006 C   0  0  0  0  0  0  0  0  0  0  0  0
  151.5025  144.2081  157.5029 C   0  0  0  0  0  0  0  0  0  0  0  0
  151.1981  142.9531  157.1096 N   0  0  0  0  0  0  0  0  0  0  0  0
  149.1311  141.9984  154.0518 H   0  0  0  0  0  0  0  0  0  0  0  0
  146.6480  142.2618  154.1423 H   0  0  0  0  0  0  0  0  0  0  0  0
  147.4457  143.1473  155.4351 H   0  0  0  0  0  0  0  0  0  0  0  0
  146.6354  141.6257  155.7857 H   0  0  0  0  0  0  0  0  0  0  0  0
  149.3035  139.5383  153.9198 H   0  0  0  0  0  0  0  0  0  0  0  0
  147.7462  139.3670  154.7024 H   0  0  0  0  0  0  0  0  0  0  0  0
  148.3876  140.2702  152.1534 H   0  0  0  0  0  0  0  0  0  0  0  0
  148.9756  141.6176  156.8117 H   0  0  0  0  0  0  0  0  0  0  0  0
  152.5323  141.2758  159.7503 H   0  0  0  0  0  0  0  0  0  0  0  0
  153.0885  143.6088  160.4571 H   0  0  0  0  0  0  0  0  0  0  0  0
  152.4069  145.5187  158.9767 H   0  0  0  0  0  0  0  0  0  0  0  0
  151.1921  145.0052  156.8435 H   0  0  0  0  0  0  0  0  0  0  0  0
  1  2  1  0  0  0  0
  1 18  1  0  0  0  0
  1 19  1  0  0  0  0
  1 20  1  0  0  0  0
  2 17  1  0  0  0  0
  2  3  1  0  0  0  0
  2  5  1  0  0  0  0
  3  4  1  0  0  0  0
  3 21  1  0  0  0  0
  3 22  1  0  0  0  0
  4 23  1  0  0  0  0
  5  6  1  0  0  0  0
  5 24  1  0  0  0  0
  6  7  2  0  0  0  0
  6  8  1  0  0  0  0
  8  9  1  0  0  0  0
  8 10  1  0  0  0  0
  8 11  1  0  0  0  0
 11 16  1  0  0  0  0
 11 12  2  0  0  0  0
 12 13  1  0  0  0  0
 12 25  1  0  0  0  0
 13 14  2  0  0  0  0
 13 26  1  0  0  0  0
 14 15  1  0  0  0  0
 14 27  1  0  0  0  0
 15 16  2  0  0  0  0
 15 28  1  0  0  0  0
M  END
> <s_m_source_file>
AV-unprocessed.smi

> <i_m_source_file_index>
3194

> <i_lp_mmshare_version>
43012

> <i_f3d_flags>
0

> <s_epik_input>
W09IXVtDSDJdW0NASF0oW0NIM10pW05IXUMoPU8pQyhGKShGKWMxW2NIXVtjSF1bY0hdW2NIXW4x

> <s_epik_cmdline>
J2VwaWtfcHl0aG9uJywgJy1waCcsICc3LjAnLCAnLXRuJywgJzgnLCAnLW1hJywgJzIwMCcsICctbWV0YWxfYmluZGluZycsICctaW1hZScsICc8aW5maWxlLm1hZT4nLCAnLW9tYWUnLCAnPG91dGZpbGUubWFlPic=

> <r_lp_tautomer_probability>
1

> <r_epik_Ionization_Penalty>
3.67967e-05

> <r_epik_Ionization_Penalty_Charging>
0

> <r_epik_Ionization_Penalty_Neutral>
3.67967e-05

> <r_epik_State_Penalty>
-0

> <r_epik_Charging_Adjusted_Penalty>
0

> <i_epik_Tot_Q>
0

> <i_epik_Tot_abs_Q>
0

> <r_epik_Metal_State_Penalty>
0.0311521

> <b_epik_Metal_Only>
0

> <s_lp_Force_Field>
OPLS_2005

> <r_lp_Energy>
12.3204

> <b_lp_Chiralities_Consistent>
1

> <s_lp_Variant>
AV-unprocessed.smi:3194-2

> <Gold.Version>
5.8.1

> <Gold.Id.Protein>
6NUR|6NUR_protein|mol2

> <Gold.PLP.Fitness>
40.9873

> <Gold.PLP.PLP>
-32.9418

> <Gold.PLP.part.hbond>
-1.8190

> <Gold.PLP.part.metal>
0.0000

> <Gold.PLP.part.buried>
-2.2268

> <Gold.PLP.part.nonpolar>
-29.4933

> <Gold.PLP.part.repulsive>
0.2379

> <Gold.PLP.ligand.clash>
0.0000

> <Gold.PLP.ligand.torsion>
0.1721

> <Gold.PLP.Chemscore.Hbond>
2.0000

> <Gold.PLP.Chemscore.CHOScore>
0.7814

> <Gold.PLP.Chemscore.Metal>
0.0000

> <Gold.Chemscore.Hbonds>
donor molecule, donor type, donor heavy atom, donor atom, acceptor molecule, acceptor atom, score
      L1  H     4    23       P1  7957  1.00
      P1  H  7989  7998       L1     7  1.00
      L1  C    15    28       P1  8028  0.71

> <Gold.PLP.Chemscore.Internal.Correction>
0.0456

> <Gold.Rescore>
     Score         DG    S(hbond)    S(metal)    S(lipo)     H(rot)  DE(clash)    DE(int)     intcor
     12.43     -15.10       1.99        0.00      80.11       2.50       0.08       2.59       ----

> <Gold.Chemscore.Fitness>
12.4326

> <Gold.Chemscore.DG>
-15.1023

> <Gold.Chemscore.ZeroCoef>
-5.4800

> <Gold.Chemscore.Hbond>
1.9887

> <Gold.Chemscore.Metal>
0.0000

> <Gold.Chemscore.Lipo>
80.1055

> <Gold.Chemscore.Internal_Hbond>
0.0000

> <Gold.Chemscore.DEClash>
0.0799

> <Gold.Chemscore.DEInternal>
2.5898

> <Gold.Chemscore.Rot>
2.4970

> <Gold.Chemscore.Internal.Correction>
   9.000000E+99

> <Gold.Chemscore.Hbonds>
donor molecule, donor type, donor heavy atom, donor atom, acceptor molecule, acceptor atom, score
      L1  H     4    23       P1  7957  0.97
      P1  H  7989  7998       L1     7  1.00

> <Gold.Chemscore.Hbond.Weighted>
-6.6421

> <Gold.Chemscore.Metal.Weighted>
-0.0000

> <Gold.Chemscore.Lipo.Weighted>
-9.3723

> <Gold.Chemscore.Internal_Hbond.Weighted>
0.0000

> <Gold.Chemscore.DEClash.Weighted>
0.0799

> <Gold.Chemscore.DEInternal.Weighted>
2.5898

> <Gold.Chemscore.Rot.Weighted>
6.3922

> <Gold.Chemscore.Internal.Correction.Weighted>
   9.000000E+99

> <Gold.Protein.RotatedTorsions>
[ 6907 6896 6895 6894 ] final  -29.88 input  -60.11 | X-H torsion
[ 7974 7965 7964 7962 ] final  -35.56 input  175.53 | X-H torsion
[ 8008 7997 7996 7995 ] final   84.55 input   59.86 | X-H torsion
[ 10167 10162 10161 10158 ] final -154.67 input  -65.29 | X-H torsion
[ 10718 10713 10712 10709 ] final   87.08 input   66.30 | X-H torsion
[ 10763 10752 10751 10750 ] final -134.66 input  -60.55 | X-H torsion
[ 11005 11000 10999 10996 ] final  -19.23 input  -57.11 | X-H torsion

> <Gold.Protein.ActiveResidues>
 VAL166  LYS551  ARG553  GLY616  TRP617  ASP618  TYR619  PRO620  LYS621  CYS622 
 ASP623  PHE694  ASN695  SER759  ASP760  ASP761  ALA762  ILE779  LEU786  VAL792 
 PHE793  MET794  SER795  GLU796  ALA797  LYS798  CYS799  TRP800  GLU811  SER814 

> <Gold.Protein.RotatedAtoms>
  151.1131  135.0038  159.8502 H   0  0  0  0  0  0  0  0  0  0  0  0  # atno 6907 bound_to 6896
  152.5444  134.1812  159.8646 H   0  0  0  0  0  0  0  0  0  0  0  0  # atno 6908 bound_to 6896
  151.1864  133.4649  159.2627 H   0  0  0  0  0  0  0  0  0  0  0  0  # atno 6909 bound_to 6896
  146.0736  140.6174  142.8941 H   0  0  0  0  0  0  0  0  0  0  0  0  # atno 7974 bound_to 7965
  155.9385  140.3410  155.6307 H   0  0  0  0  0  0  0  0  0  0  0  0  # atno 8008 bound_to 7997
  155.7070  140.0767  157.2405 H   0  0  0  0  0  0  0  0  0  0  0  0  # atno 8009 bound_to 7997
  154.4098  140.1629  156.2241 H   0  0  0  0  0  0  0  0  0  0  0  0  # atno 8010 bound_to 7997
  139.6994  143.9288  152.2422 H   0  0  0  0  0  0  0  0  0  0  0  0  # atno 10167 bound_to 10162
  157.6936  131.0241  150.3070 H   0  0  0  0  0  0  0  0  0  0  0  0  # atno 10718 bound_to 10713
  154.8716  135.3727  154.4772 H   0  0  0  0  0  0  0  0  0  0  0  0  # atno 10763 bound_to 10752
  153.5428  135.7026  153.5633 H   0  0  0  0  0  0  0  0  0  0  0  0  # atno 10764 bound_to 10752
  153.3787  135.4002  155.1806 H   0  0  0  0  0  0  0  0  0  0  0  0  # atno 10765 bound_to 10752
  140.8346  133.7971  155.9795 H   0  0  0  0  0  0  0  0  0  0  0  0  # atno 11005 bound_to 11000
  144.7247  140.4486  143.6982 LP  0  0  0  0  0  0  0  0  0  0  0  0  # atno 17320 bound_to 7965
  145.6347  139.1541  143.2949 LP  0  0  0  0  0  0  0  0  0  0  0  0  # atno 17321 bound_to 7965
  139.9126  144.6847  150.8546 LP  0  0  0  0  0  0  0  0  0  0  0  0  # atno 17342 bound_to 10162
  140.7705  143.3432  151.2165 LP  0  0  0  0  0  0  0  0  0  0  0  0  # atno 17343 bound_to 10162
  156.3577  130.3841  149.7277 LP  0  0  0  0  0  0  0  0  0  0  0  0  # atno 17370 bound_to 10713
  156.4733  130.8007  151.3024 LP  0  0  0  0  0  0  0  0  0  0  0  0  # atno 17371 bound_to 10713
  140.8961  134.2435  157.5068 LP  0  0  0  0  0  0  0  0  0  0  0  0  # atno 17394 bound_to 11000
  139.8704  134.9684  156.4632 LP  0  0  0  0  0  0  0  0  0  0  0  0  # atno 17395 bound_to 11000

$$$$
