AV-unprocessed.smi:1504|AV-procd|sdf|6073|dock6
  -GOLD-   22720 6193D 1   1.00000     0.00000
 Structure written by MMmdl.
 40 41  0  0  0  0  0  0  0  0  2 V2000
  144.9728  137.7494  153.2595 O   0  0  0  0  0  0  0  0  0  0  0  0
  146.0270  137.3524  152.7628 C   0  0  0  0  0  0  0  0  0  0  0  0
  146.1255  136.8198  151.5369 N   0  0  0  0  0  0  0  0  0  0  0  0
  145.0092  136.6345  150.6170 C   0  0  0  0  0  0  0  0  0  0  0  0
  143.9615  135.6635  151.1869 C   0  0  0  0  0  0  0  0  0  0  0  0
  144.3874  134.2144  151.0549 C   0  0  0  0  0  0  0  0  0  0  0  0
  145.6819  133.7766  151.4100 C   0  0  0  0  0  0  0  0  0  0  0  0
  146.0123  132.4132  151.2638 C   0  0  0  0  0  0  0  0  0  0  0  0
  145.0426  131.5170  150.7676 C   0  0  0  0  0  0  0  0  0  0  0  0
  143.7645  132.0080  150.4309 C   0  0  0  0  0  0  0  0  0  0  0  0
  143.4865  133.3213  150.5848 N   0  3  0  0  0  0  0  0  0  0  0  0
  147.2122  137.3975  153.3837 N   0  0  0  0  0  0  0  0  0  0  0  0
  147.4162  137.9260  154.7262 C   0  0  0  0  0  0  0  0  0  0  0  0
  148.8539  137.6712  155.2100 C   0  0  2  0  0  0  0  0  0  0  0  0
  149.1348  138.3129  156.5827 C   0  0  0  0  0  0  0  0  0  0  0  0
  150.6401  138.2393  156.8554 C   0  0  0  0  0  0  0  0  0  0  0  0
  151.4432  138.4536  155.2242 S   0  0  0  0  0  0  0  0  0  0  0  0
  151.8624  139.8542  155.0649 O   0  0  0  0  0  0  0  0  0  0  0  0
  152.3907  137.3498  155.0070 O   0  0  0  0  0  0  0  0  0  0  0  0
  149.9293  138.1707  154.2285 C   0  0  0  0  0  0  0  0  0  0  0  0
  147.0363  136.5240  151.2170 H   0  0  0  0  0  0  0  0  0  0  0  0
  144.5518  137.5983  150.3868 H   0  0  0  0  0  0  0  0  0  0  0  0
  145.4072  136.2475  149.6786 H   0  0  0  0  0  0  0  0  0  0  0  0
  143.7806  135.8836  152.2400 H   0  0  0  0  0  0  0  0  0  0  0  0
  143.0062  135.7967  150.6771 H   0  0  0  0  0  0  0  0  0  0  0  0
  146.4136  134.4749  151.7902 H   0  0  0  0  0  0  0  0  0  0  0  0
  146.9977  132.0591  151.5292 H   0  0  0  0  0  0  0  0  0  0  0  0
  145.2759  130.4691  150.6478 H   0  0  0  0  0  0  0  0  0  0  0  0
  142.9626  131.3952  150.0457 H   0  0  0  0  0  0  0  0  0  0  0  0
  148.0255  137.0476  152.8987 H   0  0  0  0  0  0  0  0  0  0  0  0
  147.2004  138.9957  154.7292 H   0  0  0  0  0  0  0  0  0  0  0  0
  146.7069  137.4549  155.4088 H   0  0  0  0  0  0  0  0  0  0  0  0
  148.9919  136.5950  155.3264 H   0  0  0  0  0  0  0  0  0  0  0  0
  148.8325  139.3609  156.5583 H   0  0  0  0  0  0  0  0  0  0  0  0
  148.5629  137.8345  157.3781 H   0  0  0  0  0  0  0  0  0  0  0  0
  150.9885  139.0006  157.5533 H   0  0  0  0  0  0  0  0  0  0  0  0
  150.9153  137.2573  157.2409 H   0  0  0  0  0  0  0  0  0  0  0  0
  150.1369  137.4624  153.4264 H   0  0  0  0  0  0  0  0  0  0  0  0
  149.6431  139.1241  153.7832 H   0  0  0  0  0  0  0  0  0  0  0  0
  142.5551  133.6544  150.3346 H   0  0  0  0  0  0  0  0  0  0  0  0
  1  2  2  0  0  0  0
  2  3  1  0  0  0  0
  2 12  1  0  0  0  0
  3  4  1  0  0  0  0
  3 21  1  0  0  0  0
  4  5  1  0  0  0  0
  4 22  1  0  0  0  0
  4 23  1  0  0  0  0
  5  6  1  0  0  0  0
  5 24  1  0  0  0  0
  5 25  1  0  0  0  0
  6 11  1  0  0  0  0
  6  7  2  0  0  0  0
  7  8  1  0  0  0  0
  7 26  1  0  0  0  0
  8  9  2  0  0  0  0
  8 27  1  0  0  0  0
  9 10  1  0  0  0  0
  9 28  1  0  0  0  0
 10 11  2  0  0  0  0
 10 29  1  0  0  0  0
 11 40  1  0  0  0  0
 12 13  1  0  0  0  0
 12 30  1  0  0  0  0
 13 14  1  0  0  0  0
 13 31  1  0  0  0  0
 13 32  1  0  0  0  0
 14 20  1  0  0  0  0
 14 15  1  0  0  0  0
 14 33  1  0  0  0  0
 15 16  1  0  0  0  0
 15 34  1  0  0  0  0
 15 35  1  0  0  0  0
 16 17  1  0  0  0  0
 16 36  1  0  0  0  0
 16 37  1  0  0  0  0
 17 18  2  0  0  0  0
 17 19  2  0  0  0  0
 17 20  1  0  0  0  0
 20 38  1  0  0  0  0
 20 39  1  0  0  0  0
M  CHG  1  11   1
M  END
> <s_m_source_file>
AV-unprocessed.smi

> <i_m_source_file_index>
1504

> <i_lp_mmshare_version>
43012

> <i_f3d_flags>
0

> <s_epik_input>
Tz1TMSg9TylbQ0gyXVtDSDJdW0NASF0oW0NIMl0xKVtDSDJdW05IXUMoPU8pW05IXVtDSDJdW0NIMl1jMltjSF1bY0hdW2NIXVtjSF1uMg==

> <s_epik_cmdline>
J2VwaWtfcHl0aG9uJywgJy1waCcsICc3LjAnLCAnLXRuJywgJzgnLCAnLW1hJywgJzIwMCcsICctbWV0YWxfYmluZGluZycsICctaW1hZScsICc8aW5maWxlLm1hZT4nLCAnLW9tYWUnLCAnPG91dGZpbGUubWFlPic=

> <r_epik_Ionization_Penalty>
1.57393

> <r_epik_Ionization_Penalty_Charging>
1.57388

> <r_epik_Ionization_Penalty_Neutral>
4.82054e-05

> <r_epik_State_Penalty>
1.66991

> <r_epik_Charging_Adjusted_Penalty>
3.24379

> <i_epik_Tot_Q>
1

> <i_epik_Tot_abs_Q>
1

> <r_epik_Metal_State_Penalty>
1.71052

> <b_epik_Metal_Only>
0

> <s_lp_Force_Field>
OPLS_2005

> <r_lp_Energy>
6.68719

> <b_lp_Chiralities_Consistent>
1

> <s_lp_Variant>
AV-unprocessed.smi:1504-3

> <Gold.Version>
5.8.1

> <Gold.Id.Protein>
6NUR|6NUR_protein|mol2

> <Gold.PLP.Fitness>
44.0772

> <Gold.PLP.PLP>
-28.0855

> <Gold.PLP.part.hbond>
-5.0225

> <Gold.PLP.part.metal>
0.0000

> <Gold.PLP.part.buried>
-1.5493

> <Gold.PLP.part.nonpolar>
-23.5413

> <Gold.PLP.part.repulsive>
1.0434

> <Gold.PLP.ligand.clash>
0.0000

> <Gold.PLP.ligand.torsion>
0.2833

> <Gold.PLP.Chemscore.Hbond>
5.5120

> <Gold.PLP.Chemscore.CHOScore>
0.0000

> <Gold.PLP.Chemscore.Metal>
0.0000

> <Gold.Chemscore.Hbonds>
donor molecule, donor type, donor heavy atom, donor atom, acceptor molecule, acceptor atom, score
      L1  H     3    21       P1  7948  0.88
      L1  H    11    40       P1 10186  2.00
      L1  H    12    30       P1  7948  1.00
      P1  H  7989  7998       L1    18  0.94
      P1  H 10752 10764       L1    19  0.67

> <Gold.PLP.Chemscore.Internal.Correction>
0.0224

> <Gold.Rescore>
     Score         DG    S(hbond)    S(metal)    S(lipo)     H(rot)  DE(clash)    DE(int)     intcor
     21.80     -23.98       4.52        0.00      73.29       2.01       1.87       0.32       ----

> <Gold.Chemscore.Fitness>
21.7954

> <Gold.Chemscore.DG>
-23.9814

> <Gold.Chemscore.ZeroCoef>
-5.4800

> <Gold.Chemscore.Hbond>
4.5160

> <Gold.Chemscore.Metal>
0.0000

> <Gold.Chemscore.Lipo>
73.2935

> <Gold.Chemscore.Internal_Hbond>
0.0000

> <Gold.Chemscore.DEClash>
1.8673

> <Gold.Chemscore.DEInternal>
0.3188

> <Gold.Chemscore.Rot>
2.0146

> <Gold.Chemscore.Internal.Correction>
   9.000000E+99

> <Gold.Chemscore.Hbonds>
donor molecule, donor type, donor heavy atom, donor atom, acceptor molecule, acceptor atom, score
      L1  H     3    21       P1  7948  0.83
      L1  H    11    40       P1 10186  0.99
      L1  H    12    30       P1  7948  0.99
      P1  H  7989  7998       L1    18  0.91
      P1  H 10752 10764       L1    19  0.66

> <Gold.Chemscore.Hbond.Weighted>
-15.0834

> <Gold.Chemscore.Metal.Weighted>
-0.0000

> <Gold.Chemscore.Lipo.Weighted>
-8.5753

> <Gold.Chemscore.Internal_Hbond.Weighted>
0.0000

> <Gold.Chemscore.DEClash.Weighted>
1.8673

> <Gold.Chemscore.DEInternal.Weighted>
0.3188

> <Gold.Chemscore.Rot.Weighted>
5.1573

> <Gold.Chemscore.Internal.Correction.Weighted>
   9.000000E+99

> <Gold.Protein.RotatedTorsions>
[ 6907 6896 6895 6894 ] final  -23.78 input  -60.11 | X-H torsion
[ 7974 7965 7964 7962 ] final -127.81 input  175.53 | X-H torsion
[ 8008 7997 7996 7995 ] final  109.28 input   59.86 | X-H torsion
[ 10167 10162 10161 10158 ] final   73.30 input  -65.29 | X-H torsion
[ 10718 10713 10712 10709 ] final  106.12 input   66.30 | X-H torsion
[ 10763 10752 10751 10750 ] final  -58.70 input  -60.55 | X-H torsion
[ 11005 11000 10999 10996 ] final   81.11 input  -57.11 | X-H torsion

> <Gold.Protein.ActiveResidues>
 VAL166  LYS551  ARG553  GLY616  TRP617  ASP618  TYR619  PRO620  LYS621  CYS622 
 ASP623  PHE694  ASN695  SER759  ASP760  ASP761  ALA762  ILE779  LEU786  VAL792 
 PHE793  MET794  SER795  GLU796  ALA797  LYS798  CYS799  TRP800  GLU811  SER814 

> <Gold.Protein.RotatedAtoms>
  151.1990  135.0434  159.8863 H   0  0  0  0  0  0  0  0  0  0  0  0  # atno 6907 bound_to 6896
  152.5434  134.0871  159.8271 H   0  0  0  0  0  0  0  0  0  0  0  0  # atno 6908 bound_to 6896
  151.1009  133.5197  159.2642 H   0  0  0  0  0  0  0  0  0  0  0  0  # atno 6909 bound_to 6896
  144.9734  140.7568  143.4657 H   0  0  0  0  0  0  0  0  0  0  0  0  # atno 7974 bound_to 7965
  156.1967  140.3060  155.9442 H   0  0  0  0  0  0  0  0  0  0  0  0  # atno 8008 bound_to 7997
  155.3049  140.0448  157.3048 H   0  0  0  0  0  0  0  0  0  0  0  0  # atno 8009 bound_to 7997
  154.5519  140.2294  155.8481 H   0  0  0  0  0  0  0  0  0  0  0  0  # atno 8010 bound_to 7997
  140.0259  144.5504  150.7545 H   0  0  0  0  0  0  0  0  0  0  0  0  # atno 10167 bound_to 10162
  157.6680  131.0843  150.5959 H   0  0  0  0  0  0  0  0  0  0  0  0  # atno 10718 bound_to 10713
  154.2423  135.6341  153.5211 H   0  0  0  0  0  0  0  0  0  0  0  0  # atno 10763 bound_to 10752
  152.9928  135.5545  154.5897 H   0  0  0  0  0  0  0  0  0  0  0  0  # atno 10764 bound_to 10752
  154.5405  135.2894  155.1074 H   0  0  0  0  0  0  0  0  0  0  0  0  # atno 10765 bound_to 10752
  139.9110  134.7971  156.1997 H   0  0  0  0  0  0  0  0  0  0  0  0  # atno 11005 bound_to 11000
  145.2526  139.2025  143.4934 LP  0  0  0  0  0  0  0  0  0  0  0  0  # atno 17320 bound_to 7965
  146.3388  140.2442  142.8596 LP  0  0  0  0  0  0  0  0  0  0  0  0  # atno 17321 bound_to 7965
  140.7323  143.2703  151.3908 LP  0  0  0  0  0  0  0  0  0  0  0  0  # atno 17342 bound_to 10162
  139.6108  144.1102  152.2297 LP  0  0  0  0  0  0  0  0  0  0  0  0  # atno 17343 bound_to 10162
  156.6259  130.4418  149.5804 LP  0  0  0  0  0  0  0  0  0  0  0  0  # atno 17370 bound_to 10713
  156.2319  130.6799  151.1472 LP  0  0  0  0  0  0  0  0  0  0  0  0  # atno 17371 bound_to 10713
  141.0532  133.6878  156.1811 LP  0  0  0  0  0  0  0  0  0  0  0  0  # atno 17394 bound_to 11000
  140.6777  134.4800  157.5588 LP  0  0  0  0  0  0  0  0  0  0  0  0  # atno 17395 bound_to 11000

$$$$
