AV-unprocessed.smi:1181|AV-procd|sdf|4966|dock3
  -GOLD-   22720 3563D 1   1.00000     0.00000
 Structure written by MMmdl.
 44 45  0  0  0  0  0  0  0  0  1 V2000
  145.9470  136.6256  151.3414 C   0  0  0  0  0  0  0  0  0  0  0  0
  146.3150  137.4935  152.3989 O   0  0  0  0  0  0  0  0  0  0  0  0
  146.6755  138.7859  151.9401 C   0  0  0  0  0  0  0  0  0  0  0  0
  147.2448  139.5948  153.1094 C   0  0  0  0  0  0  0  0  0  0  0  0
  148.5298  139.0781  153.4422 O   0  0  0  0  0  0  0  0  0  0  0  0
  149.2788  139.7370  154.3951 C   0  0  0  0  0  0  0  0  0  0  0  0
  150.3888  139.0738  154.9546 C   0  0  0  0  0  0  0  0  0  0  0  0
  151.1560  139.7396  155.9286 C   0  0  0  0  0  0  0  0  0  0  0  0
  150.7995  141.0492  156.3074 C   0  0  0  0  0  0  0  0  0  0  0  0
  151.5771  141.6889  157.3090 N   0  0  0  0  0  0  0  0  0  0  0  0
  152.6653  141.2262  157.9555 C   0  0  0  0  0  0  0  0  0  0  0  0
  153.1333  140.1027  157.7684 O   0  0  0  0  0  0  0  0  0  0  0  0
  153.1875  142.0956  158.8590 N   0  0  0  0  0  0  0  0  0  0  0  0
  152.5784  143.3575  159.3153 C   0  0  0  0  0  0  0  0  0  0  0  0
  152.0820  143.1712  160.7601 C   0  0  0  0  0  0  0  0  0  0  0  0
  153.2333  142.7332  161.6910 C   0  0  0  0  0  0  0  0  0  0  0  0
  152.7340  142.4448  163.1132 C   0  0  0  0  0  0  0  0  0  0  0  0
  153.9962  141.5287  161.0975 C   0  0  0  0  0  0  0  0  0  0  0  0
  154.3969  141.7859  159.6330 C   0  0  0  0  0  0  0  0  0  0  0  0
  149.6594  141.6258  155.6966 C   0  0  0  0  0  0  0  0  0  0  0  0
  148.9181  140.9914  154.7634 N   0  0  0  0  0  0  0  0  0  0  0  0
  145.6803  135.6490  151.7452 H   0  0  0  0  0  0  0  0  0  0  0  0
  146.7706  136.4866  150.6402 H   0  0  0  0  0  0  0  0  0  0  0  0
  145.0842  137.0115  150.7968 H   0  0  0  0  0  0  0  0  0  0  0  0
  147.4338  138.6902  151.1615 H   0  0  0  0  0  0  0  0  0  0  0  0
  145.8185  139.3001  151.5023 H   0  0  0  0  0  0  0  0  0  0  0  0
  147.2971  140.6529  152.8468 H   0  0  0  0  0  0  0  0  0  0  0  0
  146.5801  139.4939  153.9690 H   0  0  0  0  0  0  0  0  0  0  0  0
  150.6456  138.0722  154.6433 H   0  0  0  0  0  0  0  0  0  0  0  0
  152.0095  139.2497  156.3744 H   0  0  0  0  0  0  0  0  0  0  0  0
  151.2315  142.5854  157.6193 H   0  0  0  0  0  0  0  0  0  0  0  0
  153.3285  144.1490  159.2807 H   0  0  0  0  0  0  0  0  0  0  0  0
  151.7630  143.7127  158.6853 H   0  0  0  0  0  0  0  0  0  0  0  0
  151.6411  144.1001  161.1233 H   0  0  0  0  0  0  0  0  0  0  0  0
  151.2871  142.4240  160.7756 H   0  0  0  0  0  0  0  0  0  0  0  0
  153.9363  143.5651  161.7536 H   0  0  0  0  0  0  0  0  0  0  0  0
  152.0191  141.6214  163.1230 H   0  0  0  0  0  0  0  0  0  0  0  0
  152.2416  143.3186  163.5409 H   0  0  0  0  0  0  0  0  0  0  0  0
  153.5602  142.1765  163.7721 H   0  0  0  0  0  0  0  0  0  0  0  0
  154.8854  141.3194  161.6931 H   0  0  0  0  0  0  0  0  0  0  0  0
  153.3733  140.6344  161.1487 H   0  0  0  0  0  0  0  0  0  0  0  0
  154.9427  140.9258  159.2431 H   0  0  0  0  0  0  0  0  0  0  0  0
  155.0912  142.6253  159.5746 H   0  0  0  0  0  0  0  0  0  0  0  0
  149.3028  142.6077  155.9660 H   0  0  0  0  0  0  0  0  0  0  0  0
  1  2  1  0  0  0  0
  1 22  1  0  0  0  0
  1 23  1  0  0  0  0
  1 24  1  0  0  0  0
  2  3  1  0  0  0  0
  3  4  1  0  0  0  0
  3 25  1  0  0  0  0
  3 26  1  0  0  0  0
  4  5  1  0  0  0  0
  4 27  1  0  0  0  0
  4 28  1  0  0  0  0
  5  6  1  0  0  0  0
  6 21  1  0  0  0  0
  6  7  2  0  0  0  0
  7  8  1  0  0  0  0
  7 29  1  0  0  0  0
  8  9  2  0  0  0  0
  8 30  1  0  0  0  0
  9 10  1  0  0  0  0
  9 20  1  0  0  0  0
 10 11  1  0  0  0  0
 10 31  1  0  0  0  0
 11 12  2  0  0  0  0
 11 13  1  0  0  0  0
 13 19  1  0  0  0  0
 13 14  1  0  0  0  0
 14 15  1  0  0  0  0
 14 32  1  0  0  0  0
 14 33  1  0  0  0  0
 15 16  1  0  0  0  0
 15 34  1  0  0  0  0
 15 35  1  0  0  0  0
 16 17  1  0  0  0  0
 16 18  1  0  0  0  0
 16 36  1  0  0  0  0
 17 37  1  0  0  0  0
 17 38  1  0  0  0  0
 17 39  1  0  0  0  0
 18 19  1  0  0  0  0
 18 40  1  0  0  0  0
 18 41  1  0  0  0  0
 19 42  1  0  0  0  0
 19 43  1  0  0  0  0
 20 21  2  0  0  0  0
 20 44  1  0  0  0  0
M  END
> <s_m_source_file>
AV-unprocessed.smi

> <i_m_source_file_index>
1181

> <i_lp_mmshare_version>
43012

> <i_f3d_flags>
0

> <s_epik_input>
W0NIM11PW0NIMl1bQ0gyXU9jMVtjSF1bY0hdYyhbY0hdbjEpW05IXUMoPU8pTjJbQ0gyXVtDSDJdW0NIXShbQ0gzXSlbQ0gyXVtDSDJdMg==

> <s_epik_cmdline>
J2VwaWtfcHl0aG9uJywgJy1waCcsICc3LjAnLCAnLXRuJywgJzgnLCAnLW1hJywgJzIwMCcsICctbWV0YWxfYmluZGluZycsICctaW1hZScsICc8aW5maWxlLm1hZT4nLCAnLW9tYWUnLCAnPG91dGZpbGUubWFlPic=

> <r_lp_tautomer_probability>
1

> <r_epik_Ionization_Penalty>
8.49399e-05

> <r_epik_Ionization_Penalty_Charging>
0

> <r_epik_Ionization_Penalty_Neutral>
8.49399e-05

> <r_epik_State_Penalty>
-0

> <r_epik_Charging_Adjusted_Penalty>
0

> <i_epik_Tot_Q>
0

> <i_epik_Tot_abs_Q>
0

> <r_epik_Metal_State_Penalty>
-0

> <b_epik_Metal_Only>
0

> <s_lp_Force_Field>
OPLS_2005

> <r_lp_Energy>
36.0421

> <b_lp_Chiralities_Consistent>
1

> <s_lp_Variant>
AV-unprocessed.smi:1181-1

> <Gold.Version>
5.8.1

> <Gold.Id.Protein>
6NUR|6NUR_protein|mol2

> <Gold.PLP.Fitness>
44.3071

> <Gold.PLP.PLP>
-39.6716

> <Gold.PLP.part.hbond>
-1.0000

> <Gold.PLP.part.metal>
0.0000

> <Gold.PLP.part.buried>
-0.8869

> <Gold.PLP.part.nonpolar>
-37.9796

> <Gold.PLP.part.repulsive>
1.7687

> <Gold.PLP.ligand.clash>
0.9010

> <Gold.PLP.ligand.torsion>
0.2632

> <Gold.PLP.Chemscore.Hbond>
0.9913

> <Gold.PLP.Chemscore.CHOScore>
1.0000

> <Gold.PLP.Chemscore.Metal>
0.0000

> <Gold.Chemscore.Hbonds>
donor molecule, donor type, donor heavy atom, donor atom, acceptor molecule, acceptor atom, score
      P1  H  7997  8010       L1    12  0.99
      L1  C    20    44       P1  8028  1.00

> <Gold.PLP.Chemscore.Internal.Correction>
0.0892

> <Gold.Rescore>
     Score         DG    S(hbond)    S(metal)    S(lipo)     H(rot)  DE(clash)    DE(int)     intcor
     15.50     -17.58       0.81        0.00     114.22       1.55       0.34       1.74       ----

> <Gold.Chemscore.Fitness>
15.5010

> <Gold.Chemscore.DG>
-17.5776

> <Gold.Chemscore.ZeroCoef>
-5.4800

> <Gold.Chemscore.Hbond>
0.8102

> <Gold.Chemscore.Metal>
0.0000

> <Gold.Chemscore.Lipo>
114.2196

> <Gold.Chemscore.Internal_Hbond>
0.0000

> <Gold.Chemscore.DEClash>
0.3398

> <Gold.Chemscore.DEInternal>
1.7367

> <Gold.Chemscore.Rot>
1.5517

> <Gold.Chemscore.Internal.Correction>
   9.000000E+99

> <Gold.Chemscore.Hbonds>
donor molecule, donor type, donor heavy atom, donor atom, acceptor molecule, acceptor atom, score
      P1  H  7997  8010       L1    12  0.85

> <Gold.Chemscore.Hbond.Weighted>
-2.7062

> <Gold.Chemscore.Metal.Weighted>
-0.0000

> <Gold.Chemscore.Lipo.Weighted>
-13.3637

> <Gold.Chemscore.Internal_Hbond.Weighted>
0.0000

> <Gold.Chemscore.DEClash.Weighted>
0.3398

> <Gold.Chemscore.DEInternal.Weighted>
1.7367

> <Gold.Chemscore.Rot.Weighted>
3.9723

> <Gold.Chemscore.Internal.Correction.Weighted>
   9.000000E+99

> <Gold.Protein.RotatedTorsions>
[ 6907 6896 6895 6894 ] final -106.40 input  -60.11 | X-H torsion
[ 7974 7965 7964 7962 ] final  -57.79 input  175.53 | X-H torsion
[ 8008 7997 7996 7995 ] final   36.40 input   59.86 | X-H torsion
[ 10167 10162 10161 10158 ] final    4.65 input  -65.29 | X-H torsion
[ 10718 10713 10712 10709 ] final  -46.29 input   66.30 | X-H torsion
[ 10763 10752 10751 10750 ] final  174.72 input  -60.55 | X-H torsion
[ 11005 11000 10999 10996 ] final  -61.93 input  -57.11 | X-H torsion

> <Gold.Protein.ActiveResidues>
 VAL166  LYS551  ARG553  GLY616  TRP617  ASP618  TYR619  PRO620  LYS621  CYS622 
 ASP623  PHE694  ASN695  SER759  ASP760  ASP761  ALA762  ILE779  LEU786  VAL792 
 PHE793  MET794  SER795  GLU796  ALA797  LYS798  CYS799  TRP800  GLU811  SER814 

> <Gold.Protein.RotatedAtoms>
  150.7387  133.9982  159.3629 H   0  0  0  0  0  0  0  0  0  0  0  0  # atno 6907 bound_to 6896
  151.7934  135.0727  160.0400 H   0  0  0  0  0  0  0  0  0  0  0  0  # atno 6908 bound_to 6896
  152.3192  133.5798  159.5769 H   0  0  0  0  0  0  0  0  0  0  0  0  # atno 6909 bound_to 6896
  145.8470  140.8378  143.0005 H   0  0  0  0  0  0  0  0  0  0  0  0  # atno 7974 bound_to 7965
  155.1868  140.3304  155.4365 H   0  0  0  0  0  0  0  0  0  0  0  0  # atno 8008 bound_to 7997
  156.2457  140.1917  156.6913 H   0  0  0  0  0  0  0  0  0  0  0  0  # atno 8009 bound_to 7997
  154.6233  140.0592  156.9628 H   0  0  0  0  0  0  0  0  0  0  0  0  # atno 8010 bound_to 7997
  140.6523  143.7513  150.7596 H   0  0  0  0  0  0  0  0  0  0  0  0  # atno 10167 bound_to 10162
  156.2197  130.4165  149.9008 H   0  0  0  0  0  0  0  0  0  0  0  0  # atno 10718 bound_to 10713
  154.4578  135.2767  155.1735 H   0  0  0  0  0  0  0  0  0  0  0  0  # atno 10763 bound_to 10752
  154.3535  135.6145  153.5658 H   0  0  0  0  0  0  0  0  0  0  0  0  # atno 10764 bound_to 10752
  152.9852  135.5817  154.4935 H   0  0  0  0  0  0  0  0  0  0  0  0  # atno 10765 bound_to 10752
  141.1342  133.6635  156.5450 H   0  0  0  0  0  0  0  0  0  0  0  0  # atno 11005 bound_to 11000
  144.6731  140.0896  143.7466 LP  0  0  0  0  0  0  0  0  0  0  0  0  # atno 17320 bound_to 7965
  145.9401  139.2663  143.1274 LP  0  0  0  0  0  0  0  0  0  0  0  0  # atno 17321 bound_to 7965
  140.1166  143.4650  152.2338 LP  0  0  0  0  0  0  0  0  0  0  0  0  # atno 17342 bound_to 10162
  139.5740  144.7478  151.3814 LP  0  0  0  0  0  0  0  0  0  0  0  0  # atno 17343 bound_to 10162
  156.6658  130.8800  151.3554 LP  0  0  0  0  0  0  0  0  0  0  0  0  # atno 17370 bound_to 10713
  157.7081  130.9408  150.0998 LP  0  0  0  0  0  0  0  0  0  0  0  0  # atno 17371 bound_to 10713
  140.4109  134.7273  157.4835 LP  0  0  0  0  0  0  0  0  0  0  0  0  # atno 17394 bound_to 11000
  140.0428  134.6243  155.8959 LP  0  0  0  0  0  0  0  0  0  0  0  0  # atno 17395 bound_to 11000

$$$$
