AV-unprocessed.smi:487|AV-procd|sdf|2699|dock4
  -GOLD-   2262023133D 1   1.00000     0.00000
 Structure written by MMmdl.
 41 42  0  0  0  0  0  0  0  0  1 V2000
  152.3021  140.2486  156.7248 O   0  0  0  0  0  0  0  0  0  0  0  0
  151.1894  140.7224  156.4980 C   0  0  0  0  0  0  0  0  0  0  0  0
  150.2800  140.0340  155.4655 C   0  0  0  0  0  0  0  0  0  0  0  0
  148.9599  140.6632  155.2933 N   0  0  0  0  0  0  0  0  0  0  0  0
  148.6178  141.2453  154.0809 C   0  0  0  0  0  0  0  0  0  0  0  0
  147.4299  141.8550  153.8553 C   0  0  0  0  0  0  0  0  0  0  0  0
  146.4256  141.9290  154.9108 C   0  0  0  0  0  0  0  0  0  0  0  0
  145.3223  142.4598  154.8042 O   0  0  0  0  0  0  0  0  0  0  0  0
  146.8074  141.3329  156.1158 N   0  0  0  0  0  0  0  0  0  0  0  0
  148.0301  140.7044  156.3555 C   0  0  0  0  0  0  0  0  0  0  0  0
  148.2695  140.2190  157.4604 O   0  0  0  0  0  0  0  0  0  0  0  0
  150.7287  141.8268  157.1112 N   0  0  0  0  0  0  0  0  0  0  0  0
  151.4369  142.6070  158.1242 C   0  0  0  0  0  0  0  0  0  0  0  0
  151.8708  141.6167  159.2356 C   0  0  0  0  0  0  0  0  0  0  0  0
  153.0844  142.0419  160.0806 C   0  0  0  0  0  0  0  0  0  0  0  0
  152.7814  142.7701  161.4058 C   0  0  0  0  0  0  0  0  0  0  0  0
  151.9030  144.0310  161.3263 C   0  0  0  0  0  0  0  0  0  0  0  0
  152.2449  144.9737  160.1584 C   0  0  0  0  0  0  0  0  0  0  0  0
  151.1684  145.0544  159.0621 C   0  0  0  0  0  0  0  0  0  0  0  0
  150.5001  143.7386  158.6107 C   0  0  0  0  0  0  0  0  0  0  0  0
  146.1443  141.3610  156.8767 H   0  0  0  0  0  0  0  0  0  0  0  0
  150.8080  140.0198  154.5109 H   0  0  0  0  0  0  0  0  0  0  0  0
  150.1701  138.9837  155.7418 H   0  0  0  0  0  0  0  0  0  0  0  0
  149.3339  141.2183  153.2718 H   0  0  0  0  0  0  0  0  0  0  0  0
  147.2224  142.2918  152.8890 H   0  0  0  0  0  0  0  0  0  0  0  0
  149.8032  142.1453  156.8628 H   0  0  0  0  0  0  0  0  0  0  0  0
  152.3261  143.0377  157.6605 H   0  0  0  0  0  0  0  0  0  0  0  0
  151.0291  141.3497  159.8758 H   0  0  0  0  0  0  0  0  0  0  0  0
  152.1611  140.6832  158.7500 H   0  0  0  0  0  0  0  0  0  0  0  0
  153.6328  141.1372  160.3460 H   0  0  0  0  0  0  0  0  0  0  0  0
  153.7860  142.6093  159.4694 H   0  0  0  0  0  0  0  0  0  0  0  0
  152.3199  142.0703  162.1034 H   0  0  0  0  0  0  0  0  0  0  0  0
  153.7355  143.0439  161.8573 H   0  0  0  0  0  0  0  0  0  0  0  0
  150.8508  143.7512  161.3095 H   0  0  0  0  0  0  0  0  0  0  0  0
  152.0211  144.5777  162.2626 H   0  0  0  0  0  0  0  0  0  0  0  0
  152.3896  145.9797  160.5539 H   0  0  0  0  0  0  0  0  0  0  0  0
  153.2072  144.7204  159.7165 H   0  0  0  0  0  0  0  0  0  0  0  0
  150.3776  145.7195  159.4110 H   0  0  0  0  0  0  0  0  0  0  0  0
  151.6000  145.5502  158.1919 H   0  0  0  0  0  0  0  0  0  0  0  0
  149.8287  144.0198  157.7977 H   0  0  0  0  0  0  0  0  0  0  0  0
  149.8328  143.3582  159.3838 H   0  0  0  0  0  0  0  0  0  0  0  0
  1  2  2  0  0  0  0
  2  3  1  0  0  0  0
  2 12  1  0  0  0  0
  3  4  1  0  0  0  0
  3 22  1  0  0  0  0
  3 23  1  0  0  0  0
  4 10  1  0  0  0  0
  4  5  1  0  0  0  0
  5  6  2  0  0  0  0
  5 24  1  0  0  0  0
  6  7  1  0  0  0  0
  6 25  1  0  0  0  0
  7  8  2  0  0  0  0
  7  9  1  0  0  0  0
  9 21  1  0  0  0  0
  9 10  1  0  0  0  0
 10 11  2  0  0  0  0
 12 13  1  0  0  0  0
 12 26  1  0  0  0  0
 13 20  1  0  0  0  0
 13 14  1  0  0  0  0
 13 27  1  0  0  0  0
 14 15  1  0  0  0  0
 14 28  1  0  0  0  0
 14 29  1  0  0  0  0
 15 16  1  0  0  0  0
 15 30  1  0  0  0  0
 15 31  1  0  0  0  0
 16 17  1  0  0  0  0
 16 32  1  0  0  0  0
 16 33  1  0  0  0  0
 17 18  1  0  0  0  0
 17 34  1  0  0  0  0
 17 35  1  0  0  0  0
 18 19  1  0  0  0  0
 18 36  1  0  0  0  0
 18 37  1  0  0  0  0
 19 20  1  0  0  0  0
 19 38  1  0  0  0  0
 19 39  1  0  0  0  0
 20 40  1  0  0  0  0
 20 41  1  0  0  0  0
M  END
> <s_m_source_file>
AV-unprocessed.smi

> <i_m_source_file_index>
487

> <i_lp_mmshare_version>
43012

> <i_f3d_flags>
0

> <s_epik_input>
Tz1jMVtuSF1jKD1PKVtjSF1bY0hdbjFbQ0gyXUMoPU8pW05IXVtDSF0yW0NIMl1bQ0gyXVtDSDJdW0NIMl1bQ0gyXVtDSDJdW0NIMl0y

> <s_epik_cmdline>
J2VwaWtfcHl0aG9uJywgJy1waCcsICc3LjAnLCAnLXRuJywgJzgnLCAnLW1hJywgJzIwMCcsICctbWV0YWxfYmluZGluZycsICctaW1hZScsICc8aW5maWxlLm1hZT4nLCAnLW9tYWUnLCAnPG91dGZpbGUubWFlPic=

> <r_lp_tautomer_probability>
0.999537

> <r_epik_Ionization_Penalty>
0.00321433

> <r_epik_Ionization_Penalty_Charging>
0.00321431

> <r_epik_Ionization_Penalty_Neutral>
2.02148e-08

> <r_epik_State_Penalty>
0.00226744

> <r_epik_Charging_Adjusted_Penalty>
0.00548175

> <i_epik_Tot_Q>
0

> <i_epik_Tot_abs_Q>
0

> <r_epik_Metal_State_Penalty>
0.364272

> <b_epik_Metal_Only>
0

> <s_lp_Force_Field>
OPLS_2005

> <r_lp_Energy>
21.4809

> <b_lp_Chiralities_Consistent>
1

> <s_lp_Variant>
AV-unprocessed.smi:487-1

> <Gold.Version>
5.8.1

> <Gold.Id.Protein>
6NUR|6NUR_protein|mol2

> <Gold.PLP.Fitness>
47.4243

> <Gold.PLP.PLP>
-41.5411

> <Gold.PLP.part.hbond>
-1.0000

> <Gold.PLP.part.metal>
0.0000

> <Gold.PLP.part.buried>
-4.4824

> <Gold.PLP.part.nonpolar>
-35.9015

> <Gold.PLP.part.repulsive>
0.2326

> <Gold.PLP.ligand.clash>
0.0000

> <Gold.PLP.ligand.torsion>
0.0506

> <Gold.PLP.Chemscore.Hbond>
0.9920

> <Gold.PLP.Chemscore.CHOScore>
1.0000

> <Gold.PLP.Chemscore.Metal>
0.0000

> <Gold.Chemscore.Hbonds>
donor molecule, donor type, donor heavy atom, donor atom, acceptor molecule, acceptor atom, score
      P1  H  7997  8010       L1     1  0.89
      L1  C     5    24       P1  7957  1.00

> <Gold.PLP.Chemscore.Internal.Correction>
0.0084

> <Gold.Rescore>
     Score         DG    S(hbond)    S(metal)    S(lipo)     H(rot)  DE(clash)    DE(int)     intcor
     15.56     -17.12       0.97        0.00     108.57       1.68       0.12       1.44       ----

> <Gold.Chemscore.Fitness>
15.5604

> <Gold.Chemscore.DG>
-17.1204

> <Gold.Chemscore.ZeroCoef>
-5.4800

> <Gold.Chemscore.Hbond>
0.9669

> <Gold.Chemscore.Metal>
0.0000

> <Gold.Chemscore.Lipo>
108.5672

> <Gold.Chemscore.Internal_Hbond>
0.0000

> <Gold.Chemscore.DEClash>
0.1239

> <Gold.Chemscore.DEInternal>
1.4361

> <Gold.Chemscore.Rot>
1.6763

> <Gold.Chemscore.Internal.Correction>
   9.000000E+99

> <Gold.Chemscore.Hbonds>
donor molecule, donor type, donor heavy atom, donor atom, acceptor molecule, acceptor atom, score
      P1  H  7997  8010       L1     1  0.82

> <Gold.Chemscore.Hbond.Weighted>
-3.2294

> <Gold.Chemscore.Metal.Weighted>
-0.0000

> <Gold.Chemscore.Lipo.Weighted>
-12.7024

> <Gold.Chemscore.Internal_Hbond.Weighted>
0.0000

> <Gold.Chemscore.DEClash.Weighted>
0.1239

> <Gold.Chemscore.DEInternal.Weighted>
1.4361

> <Gold.Chemscore.Rot.Weighted>
4.2914

> <Gold.Chemscore.Internal.Correction.Weighted>
   9.000000E+99

> <Gold.Protein.RotatedTorsions>
[ 6907 6896 6895 6894 ] final  128.07 input  -60.11 | X-H torsion
[ 7974 7965 7964 7962 ] final   79.53 input  175.53 | X-H torsion
[ 8008 7997 7996 7995 ] final   79.42 input   59.86 | X-H torsion
[ 10167 10162 10161 10158 ] final  -79.37 input  -65.29 | X-H torsion
[ 10718 10713 10712 10709 ] final  104.80 input   66.30 | X-H torsion
[ 10763 10752 10751 10750 ] final   -4.37 input  -60.55 | X-H torsion
[ 11005 11000 10999 10996 ] final   46.06 input  -57.11 | X-H torsion

> <Gold.Protein.ActiveResidues>
 VAL166  LYS551  ARG553  GLY616  TRP617  ASP618  TYR619  PRO620  LYS621  CYS622 
 ASP623  PHE694  ASN695  SER759  ASP760  ASP761  ALA762  ILE779  LEU786  VAL792 
 PHE793  MET794  SER795  GLU796  ALA797  LYS798  CYS799  TRP800  GLU811  SER814 

> <Gold.Protein.RotatedAtoms>
  152.3754  133.6474  159.6119 H   0  0  0  0  0  0  0  0  0  0  0  0  # atno 6907 bound_to 6896
  150.7700  133.9202  159.3404 H   0  0  0  0  0  0  0  0  0  0  0  0  # atno 6908 bound_to 6896
  151.7017  135.0930  160.0303 H   0  0  0  0  0  0  0  0  0  0  0  0  # atno 6909 bound_to 6896
  145.6630  139.2476  143.1912 H   0  0  0  0  0  0  0  0  0  0  0  0  # atno 7974 bound_to 7965
  155.8695  140.3450  155.5811 H   0  0  0  0  0  0  0  0  0  0  0  0  # atno 8008 bound_to 7997
  155.7844  140.0863  157.2061 H   0  0  0  0  0  0  0  0  0  0  0  0  # atno 8009 bound_to 7997
  154.4016  140.1495  156.3076 H   0  0  0  0  0  0  0  0  0  0  0  0  # atno 8010 bound_to 7997
  140.4599  143.2457  151.8363 H   0  0  0  0  0  0  0  0  0  0  0  0  # atno 10167 bound_to 10162
  157.6727  131.0812  150.5761 H   0  0  0  0  0  0  0  0  0  0  0  0  # atno 10718 bound_to 10713
  153.3839  135.6999  153.6545 H   0  0  0  0  0  0  0  0  0  0  0  0  # atno 10763 bound_to 10752
  153.5145  135.3625  155.2603 H   0  0  0  0  0  0  0  0  0  0  0  0  # atno 10764 bound_to 10752
  154.8695  135.4143  154.3142 H   0  0  0  0  0  0  0  0  0  0  0  0  # atno 10765 bound_to 10752
  140.1403  134.4592  155.8455 H   0  0  0  0  0  0  0  0  0  0  0  0  # atno 11005 bound_to 11000
  146.1109  140.7429  142.9503 LP  0  0  0  0  0  0  0  0  0  0  0  0  # atno 17320 bound_to 7965
  144.7082  140.3938  143.7101 LP  0  0  0  0  0  0  0  0  0  0  0  0  # atno 17321 bound_to 7965
  139.4805  144.5020  151.9048 LP  0  0  0  0  0  0  0  0  0  0  0  0  # atno 17342 bound_to 10162
  140.4105  144.2375  150.5889 LP  0  0  0  0  0  0  0  0  0  0  0  0  # atno 17343 bound_to 10162
  156.6062  130.4368  149.5877 LP  0  0  0  0  0  0  0  0  0  0  0  0  # atno 17370 bound_to 10713
  156.2466  130.6883  151.1606 LP  0  0  0  0  0  0  0  0  0  0  0  0  # atno 17371 bound_to 10713
  141.2185  133.6830  156.7234 LP  0  0  0  0  0  0  0  0  0  0  0  0  # atno 17394 bound_to 11000
  140.2731  134.8376  157.3865 LP  0  0  0  0  0  0  0  0  0  0  0  0  # atno 17395 bound_to 11000

$$$$
