AV-unprocessed.smi:1867|AV-procd|sdf|7579|dock7
  -GOLD-   22720 9293D 1   1.00000     0.00000
 Structure written by MMmdl.
 52 55  0  0  0  0  0  0  0  0  4 V2000
  155.5192  142.5569  167.4403 O   0  0  0  0  0  0  0  0  0  0  0  0
  156.3221  141.6895  167.1019 C   0  0  0  0  0  0  0  0  0  0  0  0
  156.2542  141.1825  165.8461 N   0  0  0  0  0  0  0  0  0  0  0  0
  155.4109  141.5643  164.7683 C   0  0  0  0  0  0  0  0  0  0  0  0
  154.8766  142.8693  164.7803 C   0  0  0  0  0  0  0  0  0  0  0  0
  154.0175  143.2838  163.7419 C   0  0  0  0  0  0  0  0  0  0  0  0
  153.6916  142.3832  162.7005 C   0  0  0  0  0  0  0  0  0  0  0  0
  152.8401  142.7266  161.6332 N   0  0  0  0  0  0  0  0  0  0  0  0
  152.8716  141.9949  160.3762 C   0  0  0  0  0  0  0  0  0  0  0  0
  151.9722  142.7985  159.4385 C   0  0  0  0  0  0  0  0  0  0  0  0
  152.1745  144.2369  159.9141 C   0  0  0  0  0  0  0  0  0  0  0  0
  152.4104  144.1021  161.4230 C   0  0  0  0  0  0  0  0  0  0  0  0
  154.2085  141.1322  162.7429 N   0  3  0  0  0  0  0  0  0  0  0  0
  155.0355  140.6949  163.7170 C   0  0  0  0  0  0  0  0  0  0  0  0
  157.2618  141.2174  167.9754 N   0  5  0  0  0  0  0  0  0  0  0  0
  158.3537  141.9397  168.6511 C   0  0  1  0  0  0  0  0  0  0  0  0
  158.4448  143.3750  168.1169 C   0  0  0  0  0  0  0  0  0  0  0  0
  157.4349  144.1925  168.9451 C   0  0  0  0  0  0  0  0  0  0  0  0
  157.1172  143.4008  170.1613 N   0  3  1  0  0  0  0  0  0  0  0  0
  155.6583  143.1216  170.2988 C   0  0  0  0  0  0  0  0  0  0  0  0
  155.3593  142.1133  171.4144 C   0  0  0  0  0  0  0  0  0  0  0  0
  156.0765  140.7926  171.1278 C   0  0  0  0  0  0  0  0  0  0  0  0
  157.5905  141.0340  171.0608 C   0  0  0  0  0  0  0  0  0  0  0  0
  158.0101  142.2080  170.1318 C   0  0  1  0  0  0  0  0  0  0  0  0
  156.8599  140.3955  165.6650 H   0  0  0  0  0  0  0  0  0  0  0  0
  155.1253  143.5537  165.5782 H   0  0  0  0  0  0  0  0  0  0  0  0
  153.6137  144.2851  163.7622 H   0  0  0  0  0  0  0  0  0  0  0  0
  153.8938  141.9650  159.9959 H   0  0  0  0  0  0  0  0  0  0  0  0
  152.5159  140.9710  160.4966 H   0  0  0  0  0  0  0  0  0  0  0  0
  152.2207  142.6562  158.3864 H   0  0  0  0  0  0  0  0  0  0  0  0
  150.9311  142.5060  159.5827 H   0  0  0  0  0  0  0  0  0  0  0  0
  153.0648  144.6535  159.4409 H   0  0  0  0  0  0  0  0  0  0  0  0
  151.3331  144.8875  159.6738 H   0  0  0  0  0  0  0  0  0  0  0  0
  151.4847  144.2695  161.9746 H   0  0  0  0  0  0  0  0  0  0  0  0
  153.1494  144.8263  161.7665 H   0  0  0  0  0  0  0  0  0  0  0  0
  155.3499  139.6664  163.6207 H   0  0  0  0  0  0  0  0  0  0  0  0
  159.3113  141.4247  168.5623 H   0  0  0  0  0  0  0  0  0  0  0  0
  159.4495  143.7587  168.2999 H   0  0  0  0  0  0  0  0  0  0  0  0
  158.2668  143.4516  167.0432 H   0  0  0  0  0  0  0  0  0  0  0  0
  157.8536  145.1588  169.2275 H   0  0  0  0  0  0  0  0  0  0  0  0
  156.5379  144.3959  168.3566 H   0  0  0  0  0  0  0  0  0  0  0  0
  155.1376  144.0594  170.4942 H   0  0  0  0  0  0  0  0  0  0  0  0
  155.2604  142.7356  169.3588 H   0  0  0  0  0  0  0  0  0  0  0  0
  155.6732  142.5135  172.3795 H   0  0  0  0  0  0  0  0  0  0  0  0
  154.2844  141.9435  171.4805 H   0  0  0  0  0  0  0  0  0  0  0  0
  155.8491  140.0637  171.9060 H   0  0  0  0  0  0  0  0  0  0  0  0
  155.7168  140.3667  170.1906 H   0  0  0  0  0  0  0  0  0  0  0  0
  157.9233  141.2742  172.0716 H   0  0  0  0  0  0  0  0  0  0  0  0
  158.1107  140.1096  170.8029 H   0  0  0  0  0  0  0  0  0  0  0  0
  158.9469  142.5718  170.5587 H   0  0  0  0  0  0  0  0  0  0  0  0
  157.3820  143.9415  170.9714 H   0  0  0  0  0  0  0  0  0  0  0  0
  153.9595  140.4806  161.9987 H   0  0  0  0  0  0  0  0  0  0  0  0
  1  2  2  0  0  0  0
  2  3  1  0  0  0  0
  2 15  1  0  0  0  0
  3  4  1  0  0  0  0
  3 25  1  0  0  0  0
  4 14  1  0  0  0  0
  4  5  2  0  0  0  0
  5  6  1  0  0  0  0
  5 26  1  0  0  0  0
  6  7  2  0  0  0  0
  6 27  1  0  0  0  0
  7  8  1  0  0  0  0
  7 13  1  0  0  0  0
  8 12  1  0  0  0  0
  8  9  1  0  0  0  0
  9 10  1  0  0  0  0
  9 28  1  0  0  0  0
  9 29  1  0  0  0  0
 10 11  1  0  0  0  0
 10 30  1  0  0  0  0
 10 31  1  0  0  0  0
 11 12  1  0  0  0  0
 11 32  1  0  0  0  0
 11 33  1  0  0  0  0
 12 34  1  0  0  0  0
 12 35  1  0  0  0  0
 13 14  2  0  0  0  0
 13 52  1  0  0  0  0
 14 36  1  0  0  0  0
 15 16  1  0  0  0  0
 16 24  1  0  0  0  0
 16 17  1  0  0  0  0
 16 37  1  0  0  0  0
 17 18  1  0  0  0  0
 17 38  1  0  0  0  0
 17 39  1  0  0  0  0
 18 19  1  0  0  0  0
 18 40  1  0  0  0  0
 18 41  1  0  0  0  0
 19 24  1  0  0  0  0
 19 20  1  0  0  0  0
 19 51  1  0  0  0  0
 20 21  1  0  0  0  0
 20 42  1  0  0  0  0
 20 43  1  0  0  0  0
 21 22  1  0  0  0  0
 21 44  1  0  0  0  0
 21 45  1  0  0  0  0
 22 23  1  0  0  0  0
 22 46  1  0  0  0  0
 22 47  1  0  0  0  0
 23 24  1  0  0  0  0
 23 48  1  0  0  0  0
 23 49  1  0  0  0  0
 24 50  1  0  0  0  0
M  CHG  1  13   1
M  CHG  1  15  -1
M  CHG  1  19   1
M  END
> <s_m_source_file>
AV-unprocessed.smi

> <i_m_source_file_index>
1867

> <i_lp_mmshare_version>
43012

> <i_f3d_flags>
0

> <s_epik_input>
W0NIMl0xW0NIMl1bQ0gyXVtDSDJdW0NASF0oTjEyKVtDQEBIXShbQ0gyXVtDSDJdMilbTkhdQyg9TylbTkhdYzNbY0hdW2NIXWMobltjSF0zKU40W0NIMl1bQ0gyXVtDSDJdW0NIMl00

> <s_epik_cmdline>
J2VwaWtfcHl0aG9uJywgJy1waCcsICc3LjAnLCAnLXRuJywgJzgnLCAnLW1hJywgJzIwMCcsICctbWV0YWxfYmluZGluZycsICctaW1hZScsICc8aW5maWxlLm1hZT4nLCAnLW9tYWUnLCAnPG91dGZpbGUubWFlPic=

> <r_lp_tautomer_probability>
0.999994

> <r_epik_Ionization_Penalty>
8.56137

> <r_epik_Ionization_Penalty_Charging>
8.56136

> <r_epik_Ionization_Penalty_Neutral>
3.91889e-06

> <r_epik_State_Penalty>
8.16255

> <r_epik_Charging_Adjusted_Penalty>
16.7239

> <i_epik_Tot_Q>
1

> <i_epik_Tot_abs_Q>
3

> <r_epik_Metal_State_Penalty>
4.14279

> <b_epik_Metal_Only>
1

> <s_lp_Force_Field>
OPLS_2005

> <r_lp_Energy>
73.5992

> <b_lp_Chiralities_Consistent>
1

> <s_lp_Variant>
AV-unprocessed.smi:1867-20

> <Gold.Version>
5.8.1

> <Gold.Id.Protein>
6NUR|6NUR_protein|mol2

> <Gold.PLP.Fitness>
43.9164

> <Gold.PLP.PLP>
-45.5524

> <Gold.PLP.part.hbond>
-1.7998

> <Gold.PLP.part.metal>
0.0000

> <Gold.PLP.part.buried>
-4.1224

> <Gold.PLP.part.nonpolar>
-40.3276

> <Gold.PLP.part.repulsive>
0.1026

> <Gold.PLP.ligand.clash>
0.0000

> <Gold.PLP.ligand.torsion>
0.9554

> <Gold.PLP.Chemscore.Hbond>
0.0000

> <Gold.PLP.Chemscore.CHOScore>
0.0000

> <Gold.PLP.Chemscore.Metal>
0.0000

> <Gold.PLP.Chemscore.Internal.Correction>
0.2747

> <Gold.Rescore>
     Score         DG    S(hbond)    S(metal)    S(lipo)     H(rot)  DE(clash)    DE(int)     intcor
     10.43     -15.23       0.00        0.00     105.22       1.00       0.22       4.57       ----

> <Gold.Chemscore.Fitness>
10.4339

> <Gold.Chemscore.DG>
-15.2309

> <Gold.Chemscore.ZeroCoef>
-5.4800

> <Gold.Chemscore.Hbond>
0.0000

> <Gold.Chemscore.Metal>
0.0000

> <Gold.Chemscore.Lipo>
105.2217

> <Gold.Chemscore.Internal_Hbond>
0.0000

> <Gold.Chemscore.DEClash>
0.2234

> <Gold.Chemscore.DEInternal>
4.5736

> <Gold.Chemscore.Rot>
1.0000

> <Gold.Chemscore.Internal.Correction>
   9.000000E+99

> <Gold.Chemscore.Hbond.Weighted>
-0.0000

> <Gold.Chemscore.Metal.Weighted>
-0.0000

> <Gold.Chemscore.Lipo.Weighted>
-12.3109

> <Gold.Chemscore.Internal_Hbond.Weighted>
0.0000

> <Gold.Chemscore.DEClash.Weighted>
0.2234

> <Gold.Chemscore.DEInternal.Weighted>
4.5736

> <Gold.Chemscore.Rot.Weighted>
2.5600

> <Gold.Chemscore.Internal.Correction.Weighted>
   9.000000E+99

> <Gold.Protein.RotatedTorsions>
[ 6907 6896 6895 6894 ] final  103.05 input  -60.11 | X-H torsion
[ 7974 7965 7964 7962 ] final  167.89 input  175.53 | X-H torsion
[ 8008 7997 7996 7995 ] final -141.71 input   59.86 | X-H torsion
[ 10167 10162 10161 10158 ] final  -77.39 input  -65.29 | X-H torsion
[ 10718 10713 10712 10709 ] final  117.94 input   66.30 | X-H torsion
[ 10763 10752 10751 10750 ] final -175.15 input  -60.55 | X-H torsion
[ 11005 11000 10999 10996 ] final  107.63 input  -57.11 | X-H torsion

> <Gold.Protein.ActiveResidues>
 VAL166  LYS551  ARG553  GLY616  TRP617  ASP618  TYR619  PRO620  LYS621  CYS622 
 ASP623  PHE694  ASN695  SER759  ASP760  ASP761  ALA762  ILE779  LEU786  VAL792 
 PHE793  MET794  SER795  GLU796  ALA797  LYS798  CYS799  TRP800  GLU811  SER814 

> <Gold.Protein.RotatedAtoms>
  152.5306  133.9883  159.7838 H   0  0  0  0  0  0  0  0  0  0  0  0  # atno 6907 bound_to 6896
  151.0124  133.5945  159.2688 H   0  0  0  0  0  0  0  0  0  0  0  0  # atno 6908 bound_to 6896
  151.3015  135.0776  159.9293 H   0  0  0  0  0  0  0  0  0  0  0  0  # atno 6909 bound_to 6896
  144.7408  139.8827  143.6397 H   0  0  0  0  0  0  0  0  0  0  0  0  # atno 7974 bound_to 7965
  155.4823  140.0561  157.2965 H   0  0  0  0  0  0  0  0  0  0  0  0  # atno 8008 bound_to 7997
  154.4655  140.2016  156.0082 H   0  0  0  0  0  0  0  0  0  0  0  0  # atno 8009 bound_to 7997
  156.0967  140.3225  155.7891 H   0  0  0  0  0  0  0  0  0  0  0  0  # atno 8010 bound_to 7997
  140.4774  143.2411  151.8111 H   0  0  0  0  0  0  0  0  0  0  0  0  # atno 10167 bound_to 10162
  157.6063  131.1043  150.7686 H   0  0  0  0  0  0  0  0  0  0  0  0  # atno 10718 bound_to 10713
  154.5878  135.2842  155.0667 H   0  0  0  0  0  0  0  0  0  0  0  0  # atno 10763 bound_to 10752
  154.1979  135.6429  153.5082 H   0  0  0  0  0  0  0  0  0  0  0  0  # atno 10764 bound_to 10752
  153.0110  135.5462  154.6553 H   0  0  0  0  0  0  0  0  0  0  0  0  # atno 10765 bound_to 10752
  139.8831  134.9406  156.5849 H   0  0  0  0  0  0  0  0  0  0  0  0  # atno 11005 bound_to 11000
  146.1199  139.4216  143.0235 LP  0  0  0  0  0  0  0  0  0  0  0  0  # atno 17320 bound_to 7965
  145.7320  141.0039  143.1347 LP  0  0  0  0  0  0  0  0  0  0  0  0  # atno 17321 bound_to 7965
  139.4828  144.4816  151.9299 LP  0  0  0  0  0  0  0  0  0  0  0  0  # atno 17342 bound_to 10162
  140.3901  144.2626  150.5900 LP  0  0  0  0  0  0  0  0  0  0  0  0  # atno 17343 bound_to 10162
  156.8073  130.4941  149.5361 LP  0  0  0  0  0  0  0  0  0  0  0  0  # atno 17370 bound_to 10713
  156.1151  130.6069  151.0107 LP  0  0  0  0  0  0  0  0  0  0  0  0  # atno 17371 bound_to 10713
  140.7999  133.8513  155.8718 LP  0  0  0  0  0  0  0  0  0  0  0  0  # atno 17394 bound_to 11000
  140.9601  134.1666  157.4660 LP  0  0  0  0  0  0  0  0  0  0  0  0  # atno 17395 bound_to 11000

$$$$
