AV-unprocessed.smi:1379|AV-procd|sdf|5599|dock6
  -GOLD-   22720 5203D 1   1.00000     0.00000
 Structure written by MMmdl.
 35 36  0  0  0  0  0  0  0  0  2 V2000
  145.7651  136.9156  151.6718 C   0  0  0  0  0  0  0  0  0  0  0  0
  146.5383  137.7835  152.4818 O   0  0  0  0  0  0  0  0  0  0  0  0
  146.9379  138.9569  151.7890 C   0  0  0  0  0  0  0  0  0  0  0  0
  147.4681  139.9884  152.7866 C   0  0  0  0  0  0  0  0  0  0  0  0
  146.8462  141.0369  152.9495 O   0  0  0  0  0  0  0  0  0  0  0  0
  148.6253  139.6795  153.4023 N   0  0  0  0  0  0  0  0  0  0  0  0
  149.3530  140.4245  154.3703 C   0  0  0  0  0  0  0  0  0  0  0  0
  150.4773  139.8073  154.9596 C   0  0  0  0  0  0  0  0  0  0  0  0
  151.2274  140.4981  155.9333 C   0  0  0  0  0  0  0  0  0  0  0  0
  150.8346  141.8021  156.3140 C   0  0  0  0  0  0  0  0  0  0  0  0
  151.5104  142.5754  157.2682 N   0  0  0  0  0  0  0  0  0  0  0  0
  151.9183  143.8962  156.8190 C   0  0  0  0  0  0  0  0  0  0  0  0
  152.2332  144.6834  158.0936 C   0  0  0  0  0  0  0  0  0  0  0  0
  151.4780  143.9488  159.2079 C   0  0  0  0  0  0  0  0  0  0  0  0
  150.7786  142.7816  158.5066 C   0  0  0  0  0  0  0  0  0  0  0  0
  149.7473  142.3554  155.7348 N   0  3  0  0  0  0  0  0  0  0  0  0
  149.0025  141.7289  154.7980 C   0  0  0  0  0  0  0  0  0  0  0  0
  145.4941  136.0267  152.2412 H   0  0  0  0  0  0  0  0  0  0  0  0
  146.3241  136.5947  150.7918 H   0  0  0  0  0  0  0  0  0  0  0  0
  144.8440  137.3996  151.3444 H   0  0  0  0  0  0  0  0  0  0  0  0
  147.7228  138.7253  151.0672 H   0  0  0  0  0  0  0  0  0  0  0  0
  146.0931  139.3789  151.2421 H   0  0  0  0  0  0  0  0  0  0  0  0
  149.0498  138.8090  153.1158 H   0  0  0  0  0  0  0  0  0  0  0  0
  150.7701  138.8097  154.6656 H   0  0  0  0  0  0  0  0  0  0  0  0
  152.0926  140.0274  156.3771 H   0  0  0  0  0  0  0  0  0  0  0  0
  152.7865  143.8353  156.1621 H   0  0  0  0  0  0  0  0  0  0  0  0
  151.1134  144.3836  156.2677 H   0  0  0  0  0  0  0  0  0  0  0  0
  153.3047  144.6643  158.2970 H   0  0  0  0  0  0  0  0  0  0  0  0
  151.9308  145.7274  158.0055 H   0  0  0  0  0  0  0  0  0  0  0  0
  152.1839  143.5772  159.9518 H   0  0  0  0  0  0  0  0  0  0  0  0
  150.7642  144.5940  159.7211 H   0  0  0  0  0  0  0  0  0  0  0  0
  149.7384  143.0366  158.2991 H   0  0  0  0  0  0  0  0  0  0  0  0
  150.7879  141.8815  159.1221 H   0  0  0  0  0  0  0  0  0  0  0  0
  148.1561  142.2969  154.4435 H   0  0  0  0  0  0  0  0  0  0  0  0
  149.4717  143.2949  156.0221 H   0  0  0  0  0  0  0  0  0  0  0  0
  1  2  1  0  0  0  0
  1 18  1  0  0  0  0
  1 19  1  0  0  0  0
  1 20  1  0  0  0  0
  2  3  1  0  0  0  0
  3  4  1  0  0  0  0
  3 21  1  0  0  0  0
  3 22  1  0  0  0  0
  4  5  2  0  0  0  0
  4  6  1  0  0  0  0
  6  7  1  0  0  0  0
  6 23  1  0  0  0  0
  7 17  1  0  0  0  0
  7  8  2  0  0  0  0
  8  9  1  0  0  0  0
  8 24  1  0  0  0  0
  9 10  2  0  0  0  0
  9 25  1  0  0  0  0
 10 11  1  0  0  0  0
 10 16  1  0  0  0  0
 11 15  1  0  0  0  0
 11 12  1  0  0  0  0
 12 13  1  0  0  0  0
 12 26  1  0  0  0  0
 12 27  1  0  0  0  0
 13 14  1  0  0  0  0
 13 28  1  0  0  0  0
 13 29  1  0  0  0  0
 14 15  1  0  0  0  0
 14 30  1  0  0  0  0
 14 31  1  0  0  0  0
 15 32  1  0  0  0  0
 15 33  1  0  0  0  0
 16 17  2  0  0  0  0
 16 35  1  0  0  0  0
 17 34  1  0  0  0  0
M  CHG  1  16   1
M  END
> <s_m_source_file>
AV-unprocessed.smi

> <i_m_source_file_index>
1379

> <i_lp_mmshare_version>
43012

> <i_f3d_flags>
0

> <s_epik_input>
W0NIM11PW0NIMl1DKD1PKVtOSF1jMVtjSF1bY0hdYyhuW2NIXTEpTjJbQ0gyXVtDSDJdW0NIMl1bQ0gyXTI=

> <s_epik_cmdline>
J2VwaWtfcHl0aG9uJywgJy1waCcsICc3LjAnLCAnLXRuJywgJzgnLCAnLW1hJywgJzIwMCcsICctbWV0YWxfYmluZGluZycsICctaW1hZScsICc8aW5maWxlLm1hZT4nLCAnLW9tYWUnLCAnPG91dGZpbGUubWFlPic=

> <r_lp_tautomer_probability>
0.999994

> <r_epik_Ionization_Penalty>
1.86748

> <r_epik_Ionization_Penalty_Charging>
1.86748

> <r_epik_Ionization_Penalty_Neutral>
2.87909e-06

> <r_epik_State_Penalty>
1.98622

> <r_epik_Charging_Adjusted_Penalty>
3.8537

> <i_epik_Tot_Q>
1

> <i_epik_Tot_abs_Q>
1

> <r_epik_Metal_State_Penalty>
2.01386

> <b_epik_Metal_Only>
0

> <s_lp_Force_Field>
OPLS_2005

> <r_lp_Energy>
42.4744

> <b_lp_Chiralities_Consistent>
1

> <s_lp_Variant>
AV-unprocessed.smi:1379-2

> <Gold.Version>
5.8.1

> <Gold.Id.Protein>
6NUR|6NUR_protein|mol2

> <Gold.PLP.Fitness>
39.1580

> <Gold.PLP.PLP>
-33.5676

> <Gold.PLP.part.hbond>
-2.0000

> <Gold.PLP.part.metal>
0.0000

> <Gold.PLP.part.buried>
-0.2972

> <Gold.PLP.part.nonpolar>
-32.6969

> <Gold.PLP.part.repulsive>
1.2388

> <Gold.PLP.ligand.clash>
0.0000

> <Gold.PLP.ligand.torsion>
0.2137

> <Gold.PLP.Chemscore.Hbond>
2.0000

> <Gold.PLP.Chemscore.CHOScore>
0.0000

> <Gold.PLP.Chemscore.Metal>
0.0000

> <Gold.Chemscore.Hbonds>
donor molecule, donor type, donor heavy atom, donor atom, acceptor molecule, acceptor atom, score
      L1  H    16    35       P1  8028  1.98

> <Gold.PLP.Chemscore.Internal.Correction>
0.0179

> <Gold.Rescore>
     Score         DG    S(hbond)    S(metal)    S(lipo)     H(rot)  DE(clash)    DE(int)     intcor
     11.81     -15.29       0.96        0.00      88.12       1.44       2.02       1.47       ----

> <Gold.Chemscore.Fitness>
11.8052

> <Gold.Chemscore.DG>
-15.2898

> <Gold.Chemscore.ZeroCoef>
-5.4800

> <Gold.Chemscore.Hbond>
0.9560

> <Gold.Chemscore.Metal>
0.0000

> <Gold.Chemscore.Lipo>
88.1222

> <Gold.Chemscore.Internal_Hbond>
0.0000

> <Gold.Chemscore.DEClash>
2.0162

> <Gold.Chemscore.DEInternal>
1.4684

> <Gold.Chemscore.Rot>
1.4428

> <Gold.Chemscore.Internal.Correction>
   9.000000E+99

> <Gold.Chemscore.Hbonds>
donor molecule, donor type, donor heavy atom, donor atom, acceptor molecule, acceptor atom, score
      L1  H    16    35       P1  8028  0.92

> <Gold.Chemscore.Hbond.Weighted>
-3.1932

> <Gold.Chemscore.Metal.Weighted>
-0.0000

> <Gold.Chemscore.Lipo.Weighted>
-10.3103

> <Gold.Chemscore.Internal_Hbond.Weighted>
0.0000

> <Gold.Chemscore.DEClash.Weighted>
2.0162

> <Gold.Chemscore.DEInternal.Weighted>
1.4684

> <Gold.Chemscore.Rot.Weighted>
3.6937

> <Gold.Chemscore.Internal.Correction.Weighted>
   9.000000E+99

> <Gold.Protein.RotatedTorsions>
[ 6907 6896 6895 6894 ] final  -56.07 input  -60.11 | X-H torsion
[ 7974 7965 7964 7962 ] final   29.57 input  175.53 | X-H torsion
[ 8008 7997 7996 7995 ] final   71.80 input   59.86 | X-H torsion
[ 10167 10162 10161 10158 ] final  -98.86 input  -65.29 | X-H torsion
[ 10718 10713 10712 10709 ] final  119.52 input   66.30 | X-H torsion
[ 10763 10752 10751 10750 ] final  119.49 input  -60.55 | X-H torsion
[ 11005 11000 10999 10996 ] final  122.90 input  -57.11 | X-H torsion

> <Gold.Protein.ActiveResidues>
 VAL166  LYS551  ARG553  GLY616  TRP617  ASP618  TYR619  PRO620  LYS621  CYS622 
 ASP623  PHE694  ASN695  SER759  ASP760  ASP761  ALA762  ILE779  LEU786  VAL792 
 PHE793  MET794  SER795  GLU796  ALA797  LYS798  CYS799  TRP800  GLU811  SER814 

> <Gold.Protein.RotatedAtoms>
  150.8198  134.7399  159.6761 H   0  0  0  0  0  0  0  0  0  0  0  0  # atno 6907 bound_to 6896
  152.4314  134.5767  159.9946 H   0  0  0  0  0  0  0  0  0  0  0  0  # atno 6908 bound_to 6896
  151.5954  133.3324  159.3072 H   0  0  0  0  0  0  0  0  0  0  0  0  # atno 6909 bound_to 6896
  146.1664  139.6904  142.8998 H   0  0  0  0  0  0  0  0  0  0  0  0  # atno 7974 bound_to 7965
  155.7593  140.3487  155.5190 H   0  0  0  0  0  0  0  0  0  0  0  0  # atno 8008 bound_to 7997
  155.8929  140.1021  157.1426 H   0  0  0  0  0  0  0  0  0  0  0  0  # atno 8009 bound_to 7997
  154.4035  140.1301  156.4326 H   0  0  0  0  0  0  0  0  0  0  0  0  # atno 8010 bound_to 7997
  140.2685  143.3360  152.0557 H   0  0  0  0  0  0  0  0  0  0  0  0  # atno 10167 bound_to 10162
  157.5955  131.1058  150.7908 H   0  0  0  0  0  0  0  0  0  0  0  0  # atno 10718 bound_to 10713
  153.5839  135.3478  155.2885 H   0  0  0  0  0  0  0  0  0  0  0  0  # atno 10763 bound_to 10752
  154.8663  135.4188  154.2590 H   0  0  0  0  0  0  0  0  0  0  0  0  # atno 10764 bound_to 10752
  153.3382  135.7048  153.6960 H   0  0  0  0  0  0  0  0  0  0  0  0  # atno 10765 bound_to 10752
  139.9288  134.9641  156.8178 H   0  0  0  0  0  0  0  0  0  0  0  0  # atno 11005 bound_to 11000
  145.4457  141.0425  143.2833 LP  0  0  0  0  0  0  0  0  0  0  0  0  # atno 17320 bound_to 7965
  144.8098  139.5983  143.7034 LP  0  0  0  0  0  0  0  0  0  0  0  0  # atno 17321 bound_to 7965
  139.4996  144.6672  151.6328 LP  0  0  0  0  0  0  0  0  0  0  0  0  # atno 17342 bound_to 10162
  140.5909  143.9782  150.6324 LP  0  0  0  0  0  0  0  0  0  0  0  0  # atno 17343 bound_to 10162
  156.8320  130.5019  149.5330 LP  0  0  0  0  0  0  0  0  0  0  0  0  # atno 17370 bound_to 10713
  156.1017  130.5974  150.9905 LP  0  0  0  0  0  0  0  0  0  0  0  0  # atno 17371 bound_to 10713
  140.6259  133.9951  155.7639 LP  0  0  0  0  0  0  0  0  0  0  0  0  # atno 17394 bound_to 11000
  141.0864  133.9984  157.3306 LP  0  0  0  0  0  0  0  0  0  0  0  0  # atno 17395 bound_to 11000

$$$$
