AV-unprocessed.smi:99|AV-procd|sdf|896|dock9
  -GOLD-   2262017393D 1   1.00000     0.00000
 Structure written by MMmdl.
 52 55  0  0  0  0  0  0  0  0  2 V2000
  147.2921  134.7525  157.9939 O   0  0  0  0  0  0  0  0  0  0  0  0
  147.9999  134.2500  158.8687 C   0  0  0  0  0  0  0  0  0  0  0  0
  148.9637  133.3423  158.6214 O   0  0  0  0  0  0  0  0  0  0  0  0
  149.4061  133.0981  157.2959 C   0  0  0  0  0  0  0  0  0  0  0  0
  149.6437  134.4428  156.5971 C   0  0  1  0  0  0  0  0  0  0  0  0
  150.9283  134.9498  156.9433 O   0  0  0  0  0  0  0  0  0  0  0  0
  151.3850  135.8226  155.9462 C   0  0  2  0  0  0  0  0  0  0  0  0
  151.4293  137.2369  156.4935 N   0  0  0  0  0  0  0  0  0  0  0  0
  150.4247  137.7300  157.3105 C   0  0  0  0  0  0  0  0  0  0  0  0
  150.4673  138.9895  157.7917 C   0  0  0  0  0  0  0  0  0  0  0  0
  151.5932  139.8524  157.4455 C   0  0  0  0  0  0  0  0  0  0  0  0
  151.6254  140.9973  157.8922 O   0  0  0  0  0  0  0  0  0  0  0  0
  152.5655  139.3455  156.6336 N   0  5  0  0  0  0  0  0  0  0  0  0
  152.5230  138.0731  156.1417 C   0  0  0  0  0  0  0  0  0  0  0  0
  153.3844  137.6090  155.3940 O   0  0  0  0  0  0  0  0  0  0  0  0
  150.4378  135.6717  154.7306 C   0  0  2  0  0  0  0  0  0  0  0  0
  149.5138  136.7441  154.6144 O   0  0  0  0  0  0  0  0  0  0  0  0
  149.7353  134.3669  155.0740 C   0  0  2  0  0  0  0  0  0  0  0  0
  148.4826  134.2389  154.4057 O   0  0  0  0  0  0  0  0  0  0  0  0
  148.2625  133.2569  153.5047 C   0  0  0  0  0  0  0  0  0  0  0  0
  148.9578  132.2438  153.4079 O   0  0  0  0  0  0  0  0  0  0  0  0
  147.0566  133.5061  152.6647 C   0  0  0  0  0  0  0  0  0  0  0  0
  146.2814  134.6669  152.8932 C   0  0  0  0  0  0  0  0  0  0  0  0
  145.1520  134.9427  152.0985 C   0  0  0  0  0  0  0  0  0  0  0  0
  144.7824  134.0593  151.0678 C   0  0  0  0  0  0  0  0  0  0  0  0
  145.5432  132.8994  150.8330 C   0  0  0  0  0  0  0  0  0  0  0  0
  146.6743  132.6229  151.6254 C   0  0  0  0  0  0  0  0  0  0  0  0
  147.9001  134.6017  160.3148 C   0  0  0  0  0  0  0  0  0  0  0  0
  147.8233  133.5678  161.2767 C   0  0  0  0  0  0  0  0  0  0  0  0
  147.7039  133.8709  162.6470 C   0  0  0  0  0  0  0  0  0  0  0  0
  147.6602  135.2113  163.0722 C   0  0  0  0  0  0  0  0  0  0  0  0
  147.7403  136.2490  162.1254 C   0  0  0  0  0  0  0  0  0  0  0  0
  147.8619  135.9478  160.7553 C   0  0  0  0  0  0  0  0  0  0  0  0
  150.3316  132.5230  157.3351 H   0  0  0  0  0  0  0  0  0  0  0  0
  148.6771  132.5118  156.7342 H   0  0  0  0  0  0  0  0  0  0  0  0
  148.8890  135.1702  156.9010 H   0  0  0  0  0  0  0  0  0  0  0  0
  152.4202  135.5560  155.7261 H   0  0  0  0  0  0  0  0  0  0  0  0
  149.5819  137.1099  157.5739 H   0  0  0  0  0  0  0  0  0  0  0  0
  149.6747  139.3584  158.4261 H   0  0  0  0  0  0  0  0  0  0  0  0
  151.0178  135.5975  153.8105 H   0  0  0  0  0  0  0  0  0  0  0  0
  149.0269  136.6287  153.8121 H   0  0  0  0  0  0  0  0  0  0  0  0
  150.4107  133.5524  154.8072 H   0  0  0  0  0  0  0  0  0  0  0  0
  146.5506  135.3637  153.6738 H   0  0  0  0  0  0  0  0  0  0  0  0
  144.5712  135.8350  152.2787 H   0  0  0  0  0  0  0  0  0  0  0  0
  143.9167  134.2710  150.4577 H   0  0  0  0  0  0  0  0  0  0  0  0
  145.2599  132.2198  150.0430 H   0  0  0  0  0  0  0  0  0  0  0  0
  147.2380  131.7252  151.4176 H   0  0  0  0  0  0  0  0  0  0  0  0
  147.8479  132.5310  160.9736 H   0  0  0  0  0  0  0  0  0  0  0  0
  147.6430  133.0729  163.3724 H   0  0  0  0  0  0  0  0  0  0  0  0
  147.5648  135.4434  164.1224 H   0  0  0  0  0  0  0  0  0  0  0  0
  147.7029  137.2787  162.4487 H   0  0  0  0  0  0  0  0  0  0  0  0
  147.9129  136.7689  160.0553 H   0  0  0  0  0  0  0  0  0  0  0  0
  1  2  2  0  0  0  0
  2  3  1  0  0  0  0
  2 28  1  0  0  0  0
  3  4  1  0  0  0  0
  4  5  1  0  0  0  0
  4 34  1  0  0  0  0
  4 35  1  0  0  0  0
  5 18  1  0  0  0  0
  5  6  1  0  0  0  0
  5 36  1  0  0  0  0
  6  7  1  0  0  0  0
  7  8  1  0  0  0  0
  7 16  1  0  0  0  0
  7 37  1  0  0  0  0
  8 14  1  0  0  0  0
  8  9  1  0  0  0  0
  9 10  2  0  0  0  0
  9 38  1  0  0  0  0
 10 11  1  0  0  0  0
 10 39  1  0  0  0  0
 11 12  2  0  0  0  0
 11 13  1  0  0  0  0
 13 14  1  0  0  0  0
 14 15  2  0  0  0  0
 16 17  1  0  0  0  0
 16 18  1  0  0  0  0
 16 40  1  0  0  0  0
 17 41  1  0  0  0  0
 18 19  1  0  0  0  0
 18 42  1  0  0  0  0
 19 20  1  0  0  0  0
 20 21  2  0  0  0  0
 20 22  1  0  0  0  0
 22 27  1  0  0  0  0
 22 23  2  0  0  0  0
 23 24  1  0  0  0  0
 23 43  1  0  0  0  0
 24 25  2  0  0  0  0
 24 44  1  0  0  0  0
 25 26  1  0  0  0  0
 25 45  1  0  0  0  0
 26 27  2  0  0  0  0
 26 46  1  0  0  0  0
 27 47  1  0  0  0  0
 28 33  1  0  0  0  0
 28 29  2  0  0  0  0
 29 30  1  0  0  0  0
 29 48  1  0  0  0  0
 30 31  2  0  0  0  0
 30 49  1  0  0  0  0
 31 32  1  0  0  0  0
 31 50  1  0  0  0  0
 32 33  2  0  0  0  0
 32 51  1  0  0  0  0
 33 52  1  0  0  0  0
M  CHG  1  13  -1
M  END
> <s_m_source_file>
AV-unprocessed.smi

> <i_m_source_file_index>
99

> <i_lp_mmshare_version>
43012

> <i_f3d_flags>
0

> <s_epik_input>
W2NIXTFbY0hdW2NIXVtjSF1bY0hdYzFDKD1PKU9bQ0gyXVtDQEBIXTJPW0NAQEhdKG4zW2NIXVtjSF1jKD1PKVtuSF1jMz1PKVtDQEBIXShbT0hdKVtDQEhdMk9DKD1PKWM0W2NIXVtjSF1bY0hdW2NIXVtjSF00

> <s_epik_cmdline>
J2VwaWtfcHl0aG9uJywgJy1waCcsICc3LjAnLCAnLXRuJywgJzgnLCAnLW1hJywgJzIwMCcsICctbWV0YWxfYmluZGluZycsICctaW1hZScsICc8aW5maWxlLm1hZT4nLCAnLW9tYWUnLCAnPG91dGZpbGUubWFlPic=

> <r_lp_tautomer_probability>
1

> <r_epik_Ionization_Penalty>
2.89159

> <r_epik_Ionization_Penalty_Charging>
2.1077e-08

> <r_epik_Ionization_Penalty_Neutral>
2.89159

> <r_epik_State_Penalty>
2.88671

> <r_epik_Charging_Adjusted_Penalty>
2.88671

> <i_epik_Tot_Q>
-1

> <i_epik_Tot_abs_Q>
1

> <r_epik_Metal_State_Penalty>
0.0727308

> <b_epik_Metal_Only>
1

> <s_epik_Chemistry_Notes>
This compound has an ester and may undergo hydrolysis at high or low pH. This compound contains an acetal/aminal-like group ( X-CH(R)-Y where X, Y are N, S, or O) that may be acid/base labile, releasing an aldehyde.

> <s_lp_Force_Field>
OPLS_2005

> <r_lp_Energy>
52.3549

> <b_lp_Chiralities_Consistent>
1

> <s_lp_Variant>
AV-unprocessed.smi:99-32

> <Gold.Version>
5.8.1

> <Gold.Id.Protein>
6NUR|6NUR_protein|mol2

> <Gold.PLP.Fitness>
53.2408

> <Gold.PLP.PLP>
-48.6853

> <Gold.PLP.part.hbond>
-4.7671

> <Gold.PLP.part.metal>
0.0000

> <Gold.PLP.part.buried>
-6.0458

> <Gold.PLP.part.nonpolar>
-39.1466

> <Gold.PLP.part.repulsive>
0.2569

> <Gold.PLP.ligand.clash>
0.0000

> <Gold.PLP.ligand.torsion>
2.7250

> <Gold.PLP.Chemscore.Hbond>
3.1966

> <Gold.PLP.Chemscore.CHOScore>
0.0000

> <Gold.PLP.Chemscore.Metal>
0.0000

> <Gold.Chemscore.Hbonds>
donor molecule, donor type, donor heavy atom, donor atom, acceptor molecule, acceptor atom, score
      L1  H    17    41       P1  7948  0.99
      P1  H  7997  8008       L1    13  2.00
      P1  H 10752 10765       L1    15  0.15

> <Gold.PLP.Chemscore.Internal.Correction>
0.4159

> <Gold.Rescore>
     Score         DG    S(hbond)    S(metal)    S(lipo)     H(rot)  DE(clash)    DE(int)     intcor
     11.97     -16.30       2.08        0.00     101.78       3.13       0.06       4.27       ----

> <Gold.Chemscore.Fitness>
11.9690

> <Gold.Chemscore.DG>
-16.2987

> <Gold.Chemscore.ZeroCoef>
-5.4800

> <Gold.Chemscore.Hbond>
2.0763

> <Gold.Chemscore.Metal>
0.0000

> <Gold.Chemscore.Lipo>
101.7820

> <Gold.Chemscore.Internal_Hbond>
0.0000

> <Gold.Chemscore.DEClash>
0.0571

> <Gold.Chemscore.DEInternal>
4.2727

> <Gold.Chemscore.Rot>
3.1346

> <Gold.Chemscore.Internal.Correction>
   9.000000E+99

> <Gold.Chemscore.Hbonds>
donor molecule, donor type, donor heavy atom, donor atom, acceptor molecule, acceptor atom, score
      L1  H    17    41       P1  7948  0.92
      P1  H  7997  8008       L1    13  0.81
      P1  H 10752 10765       L1    15  0.13

> <Gold.Chemscore.Hbond.Weighted>
-6.9348

> <Gold.Chemscore.Metal.Weighted>
-0.0000

> <Gold.Chemscore.Lipo.Weighted>
-11.9085

> <Gold.Chemscore.Internal_Hbond.Weighted>
0.0000

> <Gold.Chemscore.DEClash.Weighted>
0.0571

> <Gold.Chemscore.DEInternal.Weighted>
4.2727

> <Gold.Chemscore.Rot.Weighted>
8.0246

> <Gold.Chemscore.Internal.Correction.Weighted>
   9.000000E+99

> <Gold.Protein.RotatedTorsions>
[ 6907 6896 6895 6894 ] final  -68.75 input  -60.11 | X-H torsion
[ 7974 7965 7964 7962 ] final   26.29 input  175.53 | X-H torsion
[ 8008 7997 7996 7995 ] final  -53.19 input   59.86 | X-H torsion
[ 10167 10162 10161 10158 ] final  116.57 input  -65.29 | X-H torsion
[ 10718 10713 10712 10709 ] final -142.15 input   66.30 | X-H torsion
[ 10763 10752 10751 10750 ] final -150.49 input  -60.55 | X-H torsion
[ 11005 11000 10999 10996 ] final   49.85 input  -57.11 | X-H torsion

> <Gold.Protein.ActiveResidues>
 VAL166  LYS551  ARG553  GLY616  TRP617  ASP618  TYR619  PRO620  LYS621  CYS622 
 ASP623  PHE694  ASN695  SER759  ASP760  ASP761  ALA762  ILE779  LEU786  VAL792 
 PHE793  MET794  SER795  GLU796  ALA797  LYS798  CYS799  TRP800  GLU811  SER814 

> <Gold.Protein.RotatedAtoms>
  150.7340  134.5694  159.5882 H   0  0  0  0  0  0  0  0  0  0  0  0  # atno 6907 bound_to 6896
  152.3137  134.7463  160.0339 H   0  0  0  0  0  0  0  0  0  0  0  0  # atno 6908 bound_to 6896
  151.8002  133.3333  159.3561 H   0  0  0  0  0  0  0  0  0  0  0  0  # atno 6909 bound_to 6896
  146.1845  139.7349  142.8876 H   0  0  0  0  0  0  0  0  0  0  0  0  # atno 7974 bound_to 7965
  154.4126  140.1206  156.5113 H   0  0  0  0  0  0  0  0  0  0  0  0  # atno 8008 bound_to 7997
  155.6796  140.3496  155.4831 H   0  0  0  0  0  0  0  0  0  0  0  0  # atno 8009 bound_to 7997
  155.9563  140.1114  157.0924 H   0  0  0  0  0  0  0  0  0  0  0  0  # atno 8010 bound_to 7997
  139.6238  144.7105  151.2577 H   0  0  0  0  0  0  0  0  0  0  0  0  # atno 10167 bound_to 10162
  156.3424  130.7645  151.1783 H   0  0  0  0  0  0  0  0  0  0  0  0  # atno 10718 bound_to 10713
  154.8116  135.3283  154.7290 H   0  0  0  0  0  0  0  0  0  0  0  0  # atno 10763 bound_to 10752
  153.7939  135.6909  153.4871 H   0  0  0  0  0  0  0  0  0  0  0  0  # atno 10764 bound_to 10752
  153.1899  135.4555  155.0082 H   0  0  0  0  0  0  0  0  0  0  0  0  # atno 10765 bound_to 10752
  140.1068  134.5008  155.8713 H   0  0  0  0  0  0  0  0  0  0  0  0  # atno 11005 bound_to 11000
  145.3979  141.0381  143.3087 LP  0  0  0  0  0  0  0  0  0  0  0  0  # atno 17320 bound_to 7965
  144.8373  139.5529  143.6916 LP  0  0  0  0  0  0  0  0  0  0  0  0  # atno 17321 bound_to 7965
  140.7398  143.6605  150.8168 LP  0  0  0  0  0  0  0  0  0  0  0  0  # atno 17342 bound_to 10162
  140.0220  143.5532  152.2796 LP  0  0  0  0  0  0  0  0  0  0  0  0  # atno 17343 bound_to 10162
  157.7449  131.0450  150.4824 LP  0  0  0  0  0  0  0  0  0  0  0  0  # atno 17370 bound_to 10713
  156.5006  130.4116  149.6355 LP  0  0  0  0  0  0  0  0  0  0  0  0  # atno 17371 bound_to 10713
  141.2120  133.6714  156.6626 LP  0  0  0  0  0  0  0  0  0  0  0  0  # atno 17394 bound_to 11000
  140.3145  134.8058  157.4203 LP  0  0  0  0  0  0  0  0  0  0  0  0  # atno 17395 bound_to 11000

$$$$
