AV-unprocessed.smi:2084|AV-procd|sdf|8515|dock2
  -GOLD-   2272011233D 1   1.00000     0.00000
 Structure written by MMmdl.
 38 39  0  0  0  0  0  0  0  0  3 V2000
  149.6174  138.8200  154.1682 C   0  0  0  0  0  0  0  0  0  0  0  0
  150.4223  139.4858  155.2302 N   0  3  0  0  0  0  0  0  0  0  0  0
  151.8300  139.0119  155.1771 C   0  0  0  0  0  0  0  0  0  0  0  0
  149.8095  139.5165  156.6088 C   0  0  0  0  0  0  0  0  0  0  0  0
  149.5655  138.0563  157.1086 C   0  0  0  0  0  0  0  0  0  0  0  0
  148.8824  137.9818  158.4009 N   0  0  0  0  0  0  0  0  0  0  0  0
  148.7607  136.9008  159.1839 C   0  0  0  0  0  0  0  0  0  0  0  0
  149.2353  135.8206  158.8255 O   0  0  0  0  0  0  0  0  0  0  0  0
  148.1088  137.1462  160.3419 N   0  5  0  0  0  0  0  0  0  0  0  0
  147.5927  136.1286  161.0504 C   0  0  0  0  0  0  0  0  0  0  0  0
  147.0620  135.0390  160.4839 N   0  0  0  0  0  0  0  0  0  0  0  0
  146.5803  134.1114  161.4095 C   0  0  0  0  0  0  0  0  0  0  0  0
  146.7396  134.5085  162.7107 C   0  0  0  0  0  0  0  0  0  0  0  0
  147.5055  136.0680  162.8129 S   0  0  0  0  0  0  0  0  0  0  0  0
  150.7463  140.2638  157.6082 C   0  0  0  0  0  0  0  0  0  0  0  0
  150.0523  141.5805  157.9632 C   0  0  0  0  0  0  0  0  0  0  0  0
  148.5669  141.2606  157.8479 C   0  0  0  0  0  0  0  0  0  0  0  0
  148.4797  140.3258  156.6401 C   0  0  0  0  0  0  0  0  0  0  0  0
  149.5781  137.7392  154.2975 H   0  0  0  0  0  0  0  0  0  0  0  0
  150.0678  139.0074  153.1931 H   0  0  0  0  0  0  0  0  0  0  0  0
  148.5960  139.1880  154.1020 H   0  0  0  0  0  0  0  0  0  0  0  0
  151.9367  138.0248  155.6276 H   0  0  0  0  0  0  0  0  0  0  0  0
  152.5107  139.7004  155.6755 H   0  0  0  0  0  0  0  0  0  0  0  0
  152.1776  138.9440  154.1456 H   0  0  0  0  0  0  0  0  0  0  0  0
  148.9087  137.5171  156.4279 H   0  0  0  0  0  0  0  0  0  0  0  0
  150.5064  137.5039  157.1214 H   0  0  0  0  0  0  0  0  0  0  0  0
  148.4721  138.8381  158.7438 H   0  0  0  0  0  0  0  0  0  0  0  0
  146.1366  133.1939  161.0527 H   0  0  0  0  0  0  0  0  0  0  0  0
  146.4550  133.9837  163.6099 H   0  0  0  0  0  0  0  0  0  0  0  0
  150.8784  139.7038  158.5318 H   0  0  0  0  0  0  0  0  0  0  0  0
  151.7616  140.4124  157.2416 H   0  0  0  0  0  0  0  0  0  0  0  0
  150.3258  141.9427  158.9547 H   0  0  0  0  0  0  0  0  0  0  0  0
  150.3196  142.3532  157.2418 H   0  0  0  0  0  0  0  0  0  0  0  0
  148.2320  140.7413  158.7469 H   0  0  0  0  0  0  0  0  0  0  0  0
  147.9525  142.1539  157.7329 H   0  0  0  0  0  0  0  0  0  0  0  0
  148.3470  140.9338  155.7473 H   0  0  0  0  0  0  0  0  0  0  0  0
  147.5974  139.6871  156.6946 H   0  0  0  0  0  0  0  0  0  0  0  0
  150.4620  140.4553  154.9495 H   0  0  0  0  0  0  0  0  0  0  0  0
  1  2  1  0  0  0  0
  1 19  1  0  0  0  0
  1 20  1  0  0  0  0
  1 21  1  0  0  0  0
  2  3  1  0  0  0  0
  2  4  1  0  0  0  0
  2 38  1  0  0  0  0
  3 22  1  0  0  0  0
  3 23  1  0  0  0  0
  3 24  1  0  0  0  0
  4 18  1  0  0  0  0
  4  5  1  0  0  0  0
  4 15  1  0  0  0  0
  5  6  1  0  0  0  0
  5 25  1  0  0  0  0
  5 26  1  0  0  0  0
  6  7  1  0  0  0  0
  6 27  1  0  0  0  0
  7  8  2  0  0  0  0
  7  9  1  0  0  0  0
  9 10  1  0  0  0  0
 10 14  1  0  0  0  0
 10 11  2  0  0  0  0
 11 12  1  0  0  0  0
 12 13  2  0  0  0  0
 12 28  1  0  0  0  0
 13 14  1  0  0  0  0
 13 29  1  0  0  0  0
 15 16  1  0  0  0  0
 15 30  1  0  0  0  0
 15 31  1  0  0  0  0
 16 17  1  0  0  0  0
 16 32  1  0  0  0  0
 16 33  1  0  0  0  0
 17 18  1  0  0  0  0
 17 34  1  0  0  0  0
 17 35  1  0  0  0  0
 18 36  1  0  0  0  0
 18 37  1  0  0  0  0
M  CHG  1   2   1
M  CHG  1   9  -1
M  END
> <s_m_source_file>
AV-unprocessed.smi

> <i_m_source_file_index>
2084

> <i_lp_mmshare_version>
43012

> <i_f3d_flags>
0

> <s_epik_input>
W0NIMl0xW0NIMl1bQ0gyXVtDSDJdQzEoTihbQ0gzXSlbQ0gzXSlbQ0gyXVtOSF1DKD1PKVtOSF1jMm5bY0hdW2NIXXMy

> <s_epik_cmdline>
J2VwaWtfcHl0aG9uJywgJy1waCcsICc3LjAnLCAnLXRuJywgJzgnLCAnLW1hJywgJzIwMCcsICctbWV0YWxfYmluZGluZycsICctaW1hZScsICc8aW5maWxlLm1hZT4nLCAnLW9tYWUnLCAnPG91dGZpbGUubWFlPic=

> <r_lp_tautomer_probability>
1

> <r_epik_Ionization_Penalty>
7.73928

> <r_epik_Ionization_Penalty_Charging>
6.33943

> <r_epik_Ionization_Penalty_Neutral>
1.39985

> <r_epik_State_Penalty>
6.33766

> <r_epik_Charging_Adjusted_Penalty>
12.6771

> <i_epik_Tot_Q>
0

> <i_epik_Tot_abs_Q>
2

> <r_epik_Metal_State_Penalty>
2.27131

> <b_epik_Metal_Only>
1

> <s_lp_Force_Field>
OPLS_2005

> <r_lp_Energy>
28.85

> <b_lp_Chiralities_Consistent>
1

> <s_lp_Variant>
AV-unprocessed.smi:2084-2

> <Gold.Version>
5.8.1

> <Gold.Id.Protein>
6NUR|6NUR_protein|mol2

> <Gold.PLP.Fitness>
40.7337

> <Gold.PLP.PLP>
-30.6068

> <Gold.PLP.part.hbond>
-3.0000

> <Gold.PLP.part.metal>
0.0000

> <Gold.PLP.part.buried>
-5.1060

> <Gold.PLP.part.nonpolar>
-24.3370

> <Gold.PLP.part.repulsive>
0.2619

> <Gold.PLP.ligand.clash>
0.0000

> <Gold.PLP.ligand.torsion>
0.5166

> <Gold.PLP.Chemscore.Hbond>
3.6747

> <Gold.PLP.Chemscore.CHOScore>
0.0000

> <Gold.PLP.Chemscore.Metal>
0.0000

> <Gold.Chemscore.Hbonds>
donor molecule, donor type, donor heavy atom, donor atom, acceptor molecule, acceptor atom, score
      P1  H  6896  6909       L1     8  0.96
      P1  H  6931  6943       L1     9  1.12
      P1  H  6934  6947       L1     9  0.96

> <Gold.PLP.Chemscore.Internal.Correction>
0.1359

> <Gold.Rescore>
     Score         DG    S(hbond)    S(metal)    S(lipo)     H(rot)  DE(clash)    DE(int)     intcor
     13.12     -15.06       2.03        0.00      57.85       1.55       0.10       1.84       ----

> <Gold.Chemscore.Fitness>
13.1214

> <Gold.Chemscore.DG>
-15.0635

> <Gold.Chemscore.ZeroCoef>
-5.4800

> <Gold.Chemscore.Hbond>
2.0345

> <Gold.Chemscore.Metal>
0.0000

> <Gold.Chemscore.Lipo>
57.8485

> <Gold.Chemscore.Internal_Hbond>
0.0000

> <Gold.Chemscore.DEClash>
0.1033

> <Gold.Chemscore.DEInternal>
1.8388

> <Gold.Chemscore.Rot>
1.5546

> <Gold.Chemscore.Internal.Correction>
   9.000000E+99

> <Gold.Chemscore.Hbonds>
donor molecule, donor type, donor heavy atom, donor atom, acceptor molecule, acceptor atom, score
      P1  H  6896  6909       L1     8  0.91
      P1  H  6931  6943       L1     9  0.16
      P1  H  6934  6947       L1     9  0.38

> <Gold.Chemscore.Hbond.Weighted>
-6.7951

> <Gold.Chemscore.Metal.Weighted>
-0.0000

> <Gold.Chemscore.Lipo.Weighted>
-6.7683

> <Gold.Chemscore.Internal_Hbond.Weighted>
0.0000

> <Gold.Chemscore.DEClash.Weighted>
0.1033

> <Gold.Chemscore.DEInternal.Weighted>
1.8388

> <Gold.Chemscore.Rot.Weighted>
3.9798

> <Gold.Chemscore.Internal.Correction.Weighted>
   9.000000E+99

> <Gold.Protein.RotatedTorsions>
[ 6907 6896 6895 6894 ] final   45.03 input  -60.11 | X-H torsion
[ 7974 7965 7964 7962 ] final   -8.16 input  175.53 | X-H torsion
[ 8008 7997 7996 7995 ] final -126.19 input   59.86 | X-H torsion
[ 10167 10162 10161 10158 ] final  -30.81 input  -65.29 | X-H torsion
[ 10718 10713 10712 10709 ] final  103.11 input   66.30 | X-H torsion
[ 10763 10752 10751 10750 ] final   28.81 input  -60.55 | X-H torsion
[ 11005 11000 10999 10996 ] final  113.84 input  -57.11 | X-H torsion

> <Gold.Protein.ActiveResidues>
 VAL166  LYS551  ARG553  GLY616  TRP617  ASP618  TYR619  PRO620  LYS621  CYS622 
 ASP623  PHE694  ASN695  SER759  ASP760  ASP761  ALA762  ILE779  LEU786  VAL792 
 PHE793  MET794  SER795  GLU796  ALA797  LYS798  CYS799  TRP800  GLU811  SER814 

> <Gold.Protein.RotatedAtoms>
  152.2396  134.8242  160.0461 H   0  0  0  0  0  0  0  0  0  0  0  0  # atno 6907 bound_to 6896
  151.8961  133.3522  159.3823 H   0  0  0  0  0  0  0  0  0  0  0  0  # atno 6908 bound_to 6896
  150.7049  134.4801  159.5510 H   0  0  0  0  0  0  0  0  0  0  0  0  # atno 6909 bound_to 6896
  146.2288  140.2427  142.8344 H   0  0  0  0  0  0  0  0  0  0  0  0  # atno 7974 bound_to 7965
  155.2256  140.0423  157.2955 H   0  0  0  0  0  0  0  0  0  0  0  0  # atno 8008 bound_to 7997
  154.5921  140.2429  155.7876 H   0  0  0  0  0  0  0  0  0  0  0  0  # atno 8009 bound_to 7997
  156.2266  140.2952  156.0091 H   0  0  0  0  0  0  0  0  0  0  0  0  # atno 8010 bound_to 7997
  140.7244  143.3820  151.1584 H   0  0  0  0  0  0  0  0  0  0  0  0  # atno 10167 bound_to 10162
  157.6782  131.0770  150.5506 H   0  0  0  0  0  0  0  0  0  0  0  0  # atno 10718 bound_to 10713
  153.0469  135.6504  154.0794 H   0  0  0  0  0  0  0  0  0  0  0  0  # atno 10763 bound_to 10752
  154.0490  135.2897  155.3345 H   0  0  0  0  0  0  0  0  0  0  0  0  # atno 10764 bound_to 10752
  154.6732  135.5348  153.8231 H   0  0  0  0  0  0  0  0  0  0  0  0  # atno 10765 bound_to 10752
  139.8964  134.9557  156.6800 H   0  0  0  0  0  0  0  0  0  0  0  0  # atno 11005 bound_to 11000
  144.9472  140.8140  143.5594 LP  0  0  0  0  0  0  0  0  0  0  0  0  # atno 17320 bound_to 7965
  145.2384  139.2083  143.5005 LP  0  0  0  0  0  0  0  0  0  0  0  0  # atno 17321 bound_to 7965
  139.7410  143.8924  152.3050 LP  0  0  0  0  0  0  0  0  0  0  0  0  # atno 17342 bound_to 10162
  139.8745  144.7050  150.8949 LP  0  0  0  0  0  0  0  0  0  0  0  0  # atno 17343 bound_to 10162
  156.5811  130.4304  149.5977 LP  0  0  0  0  0  0  0  0  0  0  0  0  # atno 17370 bound_to 10713
  156.2661  130.6990  151.1773 LP  0  0  0  0  0  0  0  0  0  0  0  0  # atno 17371 bound_to 10713
  140.7306  133.9062  155.8209 LP  0  0  0  0  0  0  0  0  0  0  0  0  # atno 17394 bound_to 11000
  141.0156  134.0960  157.4176 LP  0  0  0  0  0  0  0  0  0  0  0  0  # atno 17395 bound_to 11000

$$$$
