AV-unprocessed.smi:2178|AV-procd|sdf|8852|dock7
  -GOLD-   2272012 43D 1   1.00000     0.00000
 Structure written by MMmdl.
 46 48  0  0  0  0  0  0  0  0  1 V2000
  145.5524  142.8597  158.7787 C   0  0  0  0  0  0  0  0  0  0  0  0
  145.2092  143.1680  157.3328 C   0  0  0  0  0  0  0  0  0  0  0  0
  143.9610  143.7497  157.0294 C   0  0  0  0  0  0  0  0  0  0  0  0
  143.6127  144.0268  155.6946 C   0  0  0  0  0  0  0  0  0  0  0  0
  144.5091  143.7186  154.6551 C   0  0  0  0  0  0  0  0  0  0  0  0
  145.7614  143.1395  154.9464 C   0  0  0  0  0  0  0  0  0  0  0  0
  146.7162  142.8048  153.8157 C   0  0  0  0  0  0  0  0  0  0  0  0
  146.1202  142.8761  156.2889 C   0  0  0  0  0  0  0  0  0  0  0  0
  147.3393  142.3131  156.5654 O   0  0  0  0  0  0  0  0  0  0  0  0
  147.4771  140.9843  156.0833 C   0  0  0  0  0  0  0  0  0  0  0  0
  148.7795  140.3878  156.6371 C   0  0  2  0  0  0  0  0  0  0  0  0
  148.6664  140.2892  158.0436 O   0  0  0  0  0  0  0  0  0  0  0  0
  150.0041  141.2570  156.2869 C   0  0  0  0  0  0  0  0  0  0  0  0
  151.1563  140.9719  157.1319 N   0  0  0  0  0  0  0  0  0  0  0  0
  152.0034  139.9139  157.0619 C   0  0  0  0  0  0  0  0  0  0  0  0
  151.8554  138.8373  156.0308 C   0  0  0  0  0  0  0  0  0  0  0  0
  151.9055  139.3359  154.7114 O   0  0  0  0  0  0  0  0  0  0  0  0
  152.9838  139.8940  157.9652 N   0  0  0  0  0  0  0  0  0  0  0  0
  152.7538  141.0483  158.6880 C   0  0  0  0  0  0  0  0  0  0  0  0
  153.4519  141.5961  159.7879 C   0  0  0  0  0  0  0  0  0  0  0  0
  153.0260  142.8070  160.3724 C   0  0  0  0  0  0  0  0  0  0  0  0
  151.8990  143.4860  159.8659 C   0  0  0  0  0  0  0  0  0  0  0  0
  151.1896  142.9579  158.7701 C   0  0  0  0  0  0  0  0  0  0  0  0
  151.6180  141.7482  158.1909 C   0  0  0  0  0  0  0  0  0  0  0  0
  144.6494  142.6761  159.3616 H   0  0  0  0  0  0  0  0  0  0  0  0
  146.0822  143.6998  159.2279 H   0  0  0  0  0  0  0  0  0  0  0  0
  146.1830  141.9735  158.8550 H   0  0  0  0  0  0  0  0  0  0  0  0
  143.2637  143.9826  157.8208 H   0  0  0  0  0  0  0  0  0  0  0  0
  142.6544  144.4704  155.4674 H   0  0  0  0  0  0  0  0  0  0  0  0
  144.2303  143.9278  153.6325 H   0  0  0  0  0  0  0  0  0  0  0  0
  147.1074  141.7934  153.9299 H   0  0  0  0  0  0  0  0  0  0  0  0
  147.5553  143.5006  153.8105 H   0  0  0  0  0  0  0  0  0  0  0  0
  146.2194  142.8647  152.8469 H   0  0  0  0  0  0  0  0  0  0  0  0
  146.6263  140.4033  156.4426 H   0  0  0  0  0  0  0  0  0  0  0  0
  147.4534  140.9369  154.9935 H   0  0  0  0  0  0  0  0  0  0  0  0
  148.9210  139.3872  156.2279 H   0  0  0  0  0  0  0  0  0  0  0  0
  148.9413  141.1084  158.4258 H   0  0  0  0  0  0  0  0  0  0  0  0
  150.2902  141.1072  155.2458 H   0  0  0  0  0  0  0  0  0  0  0  0
  149.7570  142.3154  156.3790 H   0  0  0  0  0  0  0  0  0  0  0  0
  152.6548  138.1061  156.1572 H   0  0  0  0  0  0  0  0  0  0  0  0
  150.9175  138.3035  156.1808 H   0  0  0  0  0  0  0  0  0  0  0  0
  151.9632  138.6040  154.1166 H   0  0  0  0  0  0  0  0  0  0  0  0
  154.3166  141.0834  160.1823 H   0  0  0  0  0  0  0  0  0  0  0  0
  153.5668  143.2162  161.2131 H   0  0  0  0  0  0  0  0  0  0  0  0
  151.5792  144.4126  160.3196 H   0  0  0  0  0  0  0  0  0  0  0  0
  150.3254  143.4754  158.3814 H   0  0  0  0  0  0  0  0  0  0  0  0
  1  2  1  0  0  0  0
  1 25  1  0  0  0  0
  1 26  1  0  0  0  0
  1 27  1  0  0  0  0
  2  8  1  0  0  0  0
  2  3  2  0  0  0  0
  3  4  1  0  0  0  0
  3 28  1  0  0  0  0
  4  5  2  0  0  0  0
  4 29  1  0  0  0  0
  5  6  1  0  0  0  0
  5 30  1  0  0  0  0
  6  7  1  0  0  0  0
  6  8  2  0  0  0  0
  7 31  1  0  0  0  0
  7 32  1  0  0  0  0
  7 33  1  0  0  0  0
  8  9  1  0  0  0  0
  9 10  1  0  0  0  0
 10 11  1  0  0  0  0
 10 34  1  0  0  0  0
 10 35  1  0  0  0  0
 11 12  1  0  0  0  0
 11 13  1  0  0  0  0
 11 36  1  0  0  0  0
 12 37  1  0  0  0  0
 13 14  1  0  0  0  0
 13 38  1  0  0  0  0
 13 39  1  0  0  0  0
 14 24  1  0  0  0  0
 14 15  1  0  0  0  0
 15 16  1  0  0  0  0
 15 18  2  0  0  0  0
 16 17  1  0  0  0  0
 16 40  1  0  0  0  0
 16 41  1  0  0  0  0
 17 42  1  0  0  0  0
 18 19  1  0  0  0  0
 19 24  2  0  0  0  0
 19 20  1  0  0  0  0
 20 21  2  0  0  0  0
 20 43  1  0  0  0  0
 21 22  1  0  0  0  0
 21 44  1  0  0  0  0
 22 23  2  0  0  0  0
 22 45  1  0  0  0  0
 23 24  1  0  0  0  0
 23 46  1  0  0  0  0
M  END
> <s_m_source_file>
AV-unprocessed.smi

> <i_m_source_file_index>
2178

> <i_lp_mmshare_version>
43012

> <i_f3d_flags>
0

> <s_epik_input>
W0NIM11jMVtjSF1bY0hdW2NIXWMoW0NIM10pYzFPW0NIMl1bQ0BIXShbT0hdKVtDSDJdbihjKG4yKVtDSDJdW09IXSljKGMyMylbY0hdW2NIXVtjSF1bY0hdMw==

> <s_epik_cmdline>
J2VwaWtfcHl0aG9uJywgJy1waCcsICc3LjAnLCAnLXRuJywgJzgnLCAnLW1hJywgJzIwMCcsICctbWV0YWxfYmluZGluZycsICctaW1hZScsICc8aW5maWxlLm1hZT4nLCAnLW9tYWUnLCAnPG91dGZpbGUubWFlPic=

> <r_lp_tautomer_probability>
1

> <r_epik_Ionization_Penalty>
0.0555874

> <r_epik_Ionization_Penalty_Charging>
0

> <r_epik_Ionization_Penalty_Neutral>
0.0555874

> <r_epik_State_Penalty>
0.0478234

> <r_epik_Charging_Adjusted_Penalty>
0.0478234

> <i_epik_Tot_Q>
0

> <i_epik_Tot_abs_Q>
0

> <r_epik_Metal_State_Penalty>
4.98044e-05

> <b_epik_Metal_Only>
0

> <s_lp_Force_Field>
OPLS_2005

> <r_lp_Energy>
19.7692

> <b_lp_Chiralities_Consistent>
1

> <s_lp_Variant>
AV-unprocessed.smi:2178-1

> <Gold.Version>
5.8.1

> <Gold.Id.Protein>
6NUR|6NUR_protein|mol2

> <Gold.PLP.Fitness>
45.3658

> <Gold.PLP.PLP>
-40.1541

> <Gold.PLP.part.hbond>
-2.5690

> <Gold.PLP.part.metal>
0.0000

> <Gold.PLP.part.buried>
-6.5241

> <Gold.PLP.part.nonpolar>
-31.5842

> <Gold.PLP.part.repulsive>
1.0587

> <Gold.PLP.ligand.clash>
0.0000

> <Gold.PLP.ligand.torsion>
0.4573

> <Gold.PLP.Chemscore.Hbond>
2.0000

> <Gold.PLP.Chemscore.CHOScore>
0.0000

> <Gold.PLP.Chemscore.Metal>
0.0000

> <Gold.Chemscore.Hbonds>
donor molecule, donor type, donor heavy atom, donor atom, acceptor molecule, acceptor atom, score
      P1  H  7989  7998       L1    17  0.98
      P1  H  7997  8009       L1    18  0.95

> <Gold.PLP.Chemscore.Internal.Correction>
0.1264

> <Gold.Rescore>
     Score         DG    S(hbond)    S(metal)    S(lipo)     H(rot)  DE(clash)    DE(int)     intcor
     12.92     -13.86       1.15        0.00     103.42       2.96       0.47       0.47       ----

> <Gold.Chemscore.Fitness>
12.9222

> <Gold.Chemscore.DG>
-13.8619

> <Gold.Chemscore.ZeroCoef>
-5.4800

> <Gold.Chemscore.Hbond>
1.1526

> <Gold.Chemscore.Metal>
0.0000

> <Gold.Chemscore.Lipo>
103.4166

> <Gold.Chemscore.Internal_Hbond>
0.0000

> <Gold.Chemscore.DEClash>
0.4684

> <Gold.Chemscore.DEInternal>
0.4713

> <Gold.Chemscore.Rot>
2.9561

> <Gold.Chemscore.Internal.Correction>
   9.000000E+99

> <Gold.Chemscore.Hbonds>
donor molecule, donor type, donor heavy atom, donor atom, acceptor molecule, acceptor atom, score
      P1  H  7989  7998       L1    17  0.32
      P1  H  7997  8009       L1    18  0.17

> <Gold.Chemscore.Hbond.Weighted>
-3.8498

> <Gold.Chemscore.Metal.Weighted>
-0.0000

> <Gold.Chemscore.Lipo.Weighted>
-12.0997

> <Gold.Chemscore.Internal_Hbond.Weighted>
0.0000

> <Gold.Chemscore.DEClash.Weighted>
0.4684

> <Gold.Chemscore.DEInternal.Weighted>
0.4713

> <Gold.Chemscore.Rot.Weighted>
7.5677

> <Gold.Chemscore.Internal.Correction.Weighted>
   9.000000E+99

> <Gold.Protein.RotatedTorsions>
[ 6907 6896 6895 6894 ] final -111.57 input  -60.11 | X-H torsion
[ 7974 7965 7964 7962 ] final  135.79 input  175.53 | X-H torsion
[ 8008 7997 7996 7995 ] final  169.31 input   59.86 | X-H torsion
[ 10167 10162 10161 10158 ] final  167.09 input  -65.29 | X-H torsion
[ 10718 10713 10712 10709 ] final   65.22 input   66.30 | X-H torsion
[ 10763 10752 10751 10750 ] final -121.35 input  -60.55 | X-H torsion
[ 11005 11000 10999 10996 ] final  102.40 input  -57.11 | X-H torsion

> <Gold.Protein.ActiveResidues>
 VAL166  LYS551  ARG553  GLY616  TRP617  ASP618  TYR619  PRO620  LYS621  CYS622 
 ASP623  PHE694  ASN695  SER759  ASP760  ASP761  ALA762  ILE779  LEU786  VAL792 
 PHE793  MET794  SER795  GLU796  ALA797  LYS798  CYS799  TRP800  GLU811  SER814 

> <Gold.Protein.RotatedAtoms>
  150.7699  133.9215  159.3399 H   0  0  0  0  0  0  0  0  0  0  0  0  # atno 6907 bound_to 6896
  151.7104  135.0912  160.0276 H   0  0  0  0  0  0  0  0  0  0  0  0  # atno 6908 bound_to 6896
  152.3713  133.6384  159.6125 H   0  0  0  0  0  0  0  0  0  0  0  0  # atno 6909 bound_to 6896
  144.9628  139.4691  143.5471 H   0  0  0  0  0  0  0  0  0  0  0  0  # atno 7974 bound_to 7965
  156.1469  140.1567  156.8832 H   0  0  0  0  0  0  0  0  0  0  0  0  # atno 8008 bound_to 7997
  154.5036  140.0819  156.7886 H   0  0  0  0  0  0  0  0  0  0  0  0  # atno 8009 bound_to 7997
  155.3971  140.3412  155.4257 H   0  0  0  0  0  0  0  0  0  0  0  0  # atno 8010 bound_to 7997
  139.4938  144.3958  151.9465 H   0  0  0  0  0  0  0  0  0  0  0  0  # atno 10167 bound_to 10162
  157.6091  130.9202  149.9948 H   0  0  0  0  0  0  0  0  0  0  0  0  # atno 10718 bound_to 10713
  154.8666  135.4171  154.2607 H   0  0  0  0  0  0  0  0  0  0  0  0  # atno 10763 bound_to 10752
  153.3535  135.7000  153.6775 H   0  0  0  0  0  0  0  0  0  0  0  0  # atno 10764 bound_to 10752
  153.5704  135.3592  155.2808 H   0  0  0  0  0  0  0  0  0  0  0  0  # atno 10765 bound_to 10752
  139.8777  134.9222  156.5052 H   0  0  0  0  0  0  0  0  0  0  0  0  # atno 11005 bound_to 11000
  146.3358  139.8789  142.8827 LP  0  0  0  0  0  0  0  0  0  0  0  0  # atno 17320 bound_to 7965
  145.2674  141.0097  143.3791 LP  0  0  0  0  0  0  0  0  0  0  0  0  # atno 17321 bound_to 7965
  140.3397  144.3218  150.5970 LP  0  0  0  0  0  0  0  0  0  0  0  0  # atno 17342 bound_to 10162
  140.5576  143.2196  151.7820 LP  0  0  0  0  0  0  0  0  0  0  0  0  # atno 17343 bound_to 10162
  156.1187  130.3647  149.9923 LP  0  0  0  0  0  0  0  0  0  0  0  0  # atno 17370 bound_to 10713
  156.8008  130.9290  151.3646 LP  0  0  0  0  0  0  0  0  0  0  0  0  # atno 17371 bound_to 10713
  140.8560  133.8096  155.9216 LP  0  0  0  0  0  0  0  0  0  0  0  0  # atno 17394 bound_to 11000
  140.9097  134.2276  157.4993 LP  0  0  0  0  0  0  0  0  0  0  0  0  # atno 17395 bound_to 11000

$$$$
