AV-unprocessed.smi:1766|AV-procd|sdf|7135|dock1
  -GOLD-   22720 8373D 1   1.00000     0.00000
 Structure written by MMmdl.
 39 41  0  0  0  0  0  0  0  0  1 V2000
  149.8719  137.6461  155.9735 N   0  0  0  0  0  0  0  0  0  0  0  0
  151.0857  137.6413  155.4150 C   0  0  0  0  0  0  0  0  0  0  0  0
  151.7470  136.6125  155.2927 O   0  0  0  0  0  0  0  0  0  0  0  0
  151.6311  138.9804  154.9090 C   0  0  0  0  0  0  0  0  0  0  0  0
  151.7271  139.9331  156.0682 C   0  0  0  0  0  0  0  0  0  0  0  0
  152.6021  139.7436  157.0585 N   0  0  0  0  0  0  0  0  0  0  0  0
  152.3555  140.8141  157.8949 C   0  0  0  0  0  0  0  0  0  0  0  0
  152.9587  141.1817  159.1191 C   0  0  0  0  0  0  0  0  0  0  0  0
  152.5321  142.3371  159.8063 C   0  0  0  0  0  0  0  0  0  0  0  0
  151.4989  143.1397  159.2804 C   0  0  0  0  0  0  0  0  0  0  0  0
  150.8850  142.7913  158.0620 C   0  0  0  0  0  0  0  0  0  0  0  0
  151.3148  141.6372  157.3802 C   0  0  0  0  0  0  0  0  0  0  0  0
  150.9297  141.0267  156.1910 N   0  0  0  0  0  0  0  0  0  0  0  0
  149.8818  141.4993  155.2952 C   0  0  0  0  0  0  0  0  0  0  0  0
  148.5297  140.8014  155.5436 C   0  0  2  0  0  0  0  0  0  0  0  0
  148.4195  139.6506  154.7282 O   0  0  0  0  0  0  0  0  0  0  0  0
  147.3676  141.7603  155.3386 C   0  0  0  0  0  0  0  0  0  0  0  0
  146.5575  142.1335  156.4325 C   0  0  0  0  0  0  0  0  0  0  0  0
  145.4827  143.0253  156.2485 C   0  0  0  0  0  0  0  0  0  0  0  0
  145.2137  143.5513  154.9704 C   0  0  0  0  0  0  0  0  0  0  0  0
  144.1801  144.4081  154.7942 F   0  0  0  0  0  0  0  0  0  0  0  0
  146.0215  143.1867  153.8763 C   0  0  0  0  0  0  0  0  0  0  0  0
  147.0960  142.2946  154.0596 C   0  0  0  0  0  0  0  0  0  0  0  0
  149.4798  136.7863  156.3290 H   0  0  0  0  0  0  0  0  0  0  0  0
  149.3550  138.5105  156.0474 H   0  0  0  0  0  0  0  0  0  0  0  0
  152.6025  138.8473  154.4330 H   0  0  0  0  0  0  0  0  0  0  0  0
  150.9632  139.3924  154.1511 H   0  0  0  0  0  0  0  0  0  0  0  0
  153.7504  140.5733  159.5304 H   0  0  0  0  0  0  0  0  0  0  0  0
  152.9997  142.6083  160.7414 H   0  0  0  0  0  0  0  0  0  0  0  0
  151.1780  144.0229  159.8132 H   0  0  0  0  0  0  0  0  0  0  0  0
  150.0927  143.4030  157.6565 H   0  0  0  0  0  0  0  0  0  0  0  0
  149.7745  142.5744  155.4444 H   0  0  0  0  0  0  0  0  0  0  0  0
  150.1957  141.3736  154.2601 H   0  0  0  0  0  0  0  0  0  0  0  0
  148.5038  140.4506  156.5762 H   0  0  0  0  0  0  0  0  0  0  0  0
  147.6759  139.1462  155.0210 H   0  0  0  0  0  0  0  0  0  0  0  0
  146.7569  141.7383  157.4179 H   0  0  0  0  0  0  0  0  0  0  0  0
  144.8649  143.3067  157.0885 H   0  0  0  0  0  0  0  0  0  0  0  0
  145.8182  143.5922  152.8962 H   0  0  0  0  0  0  0  0  0  0  0  0
  147.7130  142.0227  153.2153 H   0  0  0  0  0  0  0  0  0  0  0  0
  1  2  1  0  0  0  0
  1 24  1  0  0  0  0
  1 25  1  0  0  0  0
  2  3  2  0  0  0  0
  2  4  1  0  0  0  0
  4  5  1  0  0  0  0
  4 26  1  0  0  0  0
  4 27  1  0  0  0  0
  5 13  1  0  0  0  0
  5  6  2  0  0  0  0
  6  7  1  0  0  0  0
  7 12  2  0  0  0  0
  7  8  1  0  0  0  0
  8  9  2  0  0  0  0
  8 28  1  0  0  0  0
  9 10  1  0  0  0  0
  9 29  1  0  0  0  0
 10 11  2  0  0  0  0
 10 30  1  0  0  0  0
 11 12  1  0  0  0  0
 11 31  1  0  0  0  0
 12 13  1  0  0  0  0
 13 14  1  0  0  0  0
 14 15  1  0  0  0  0
 14 32  1  0  0  0  0
 14 33  1  0  0  0  0
 15 16  1  0  0  0  0
 15 17  1  0  0  0  0
 15 34  1  0  0  0  0
 16 35  1  0  0  0  0
 17 23  1  0  0  0  0
 17 18  2  0  0  0  0
 18 19  1  0  0  0  0
 18 36  1  0  0  0  0
 19 20  2  0  0  0  0
 19 37  1  0  0  0  0
 20 21  1  0  0  0  0
 20 22  1  0  0  0  0
 22 23  2  0  0  0  0
 22 38  1  0  0  0  0
 23 39  1  0  0  0  0
M  END
> <s_m_source_file>
AV-unprocessed.smi

> <i_m_source_file_index>
1766

> <i_lp_mmshare_version>
43012

> <i_f3d_flags>
0

> <s_epik_input>
W2NIXTFbY0hdW2NIXVtjSF1jKGMxMiluKGMobjIpW0NIMl1DKD1PKVtOSDJdKVtDSDJdW0NASF0oW09IXSljM1tjSF1bY0hdYyhGKVtjSF1bY0hdMw==

> <s_epik_cmdline>
J2VwaWtfcHl0aG9uJywgJy1waCcsICc3LjAnLCAnLXRuJywgJzgnLCAnLW1hJywgJzIwMCcsICctbWV0YWxfYmluZGluZycsICctaW1hZScsICc8aW5maWxlLm1hZT4nLCAnLW9tYWUnLCAnPG91dGZpbGUubWFlPic=

> <r_epik_Ionization_Penalty>
0.0366901

> <r_epik_Ionization_Penalty_Charging>
0

> <r_epik_Ionization_Penalty_Neutral>
0.0366901

> <r_epik_State_Penalty>
0.0306642

> <r_epik_Charging_Adjusted_Penalty>
0.0306642

> <i_epik_Tot_Q>
0

> <i_epik_Tot_abs_Q>
0

> <r_epik_Metal_State_Penalty>
0.028853

> <b_epik_Metal_Only>
0

> <s_lp_Force_Field>
OPLS_2005

> <r_lp_Energy>
12.4574

> <b_lp_Chiralities_Consistent>
1

> <s_lp_Variant>
AV-unprocessed.smi:1766-1

> <Gold.Version>
5.8.1

> <Gold.Id.Protein>
6NUR|6NUR_protein|mol2

> <Gold.PLP.Fitness>
50.2060

> <Gold.PLP.PLP>
-45.8594

> <Gold.PLP.part.hbond>
-2.0000

> <Gold.PLP.part.metal>
0.0000

> <Gold.PLP.part.buried>
-6.4050

> <Gold.PLP.part.nonpolar>
-37.3287

> <Gold.PLP.part.repulsive>
0.0860

> <Gold.PLP.ligand.clash>
0.0000

> <Gold.PLP.ligand.torsion>
0.8841

> <Gold.PLP.Chemscore.Hbond>
2.0000

> <Gold.PLP.Chemscore.CHOScore>
0.0000

> <Gold.PLP.Chemscore.Metal>
0.0000

> <Gold.Chemscore.Hbonds>
donor molecule, donor type, donor heavy atom, donor atom, acceptor molecule, acceptor atom, score
      P1  H  7997  8010       L1     6  1.00
      P1  H 10752 10765       L1     3  1.00

> <Gold.PLP.Chemscore.Internal.Correction>
0.1148

> <Gold.Rescore>
     Score         DG    S(hbond)    S(metal)    S(lipo)     H(rot)  DE(clash)    DE(int)     intcor
     14.57     -15.62       1.68        0.00     104.11       2.99       0.10       0.95       ----

> <Gold.Chemscore.Fitness>
14.5695

> <Gold.Chemscore.DG>
-15.6228

> <Gold.Chemscore.ZeroCoef>
-5.4800

> <Gold.Chemscore.Hbond>
1.6787

> <Gold.Chemscore.Metal>
0.0000

> <Gold.Chemscore.Lipo>
104.1123

> <Gold.Chemscore.Internal_Hbond>
0.0000

> <Gold.Chemscore.DEClash>
0.0991

> <Gold.Chemscore.DEInternal>
0.9542

> <Gold.Chemscore.Rot>
2.9864

> <Gold.Chemscore.Internal.Correction>
   9.000000E+99

> <Gold.Chemscore.Hbonds>
donor molecule, donor type, donor heavy atom, donor atom, acceptor molecule, acceptor atom, score
      P1  H  7997  8010       L1     6  0.22
      P1  H 10752 10765       L1     3  1.00

> <Gold.Chemscore.Hbond.Weighted>
-5.6068

> <Gold.Chemscore.Metal.Weighted>
-0.0000

> <Gold.Chemscore.Lipo.Weighted>
-12.1811

> <Gold.Chemscore.Internal_Hbond.Weighted>
0.0000

> <Gold.Chemscore.DEClash.Weighted>
0.0991

> <Gold.Chemscore.DEInternal.Weighted>
0.9542

> <Gold.Chemscore.Rot.Weighted>
7.6451

> <Gold.Chemscore.Internal.Correction.Weighted>
   9.000000E+99

> <Gold.Protein.RotatedTorsions>
[ 6907 6896 6895 6894 ] final -160.15 input  -60.11 | X-H torsion
[ 7974 7965 7964 7962 ] final  138.49 input  175.53 | X-H torsion
[ 8008 7997 7996 7995 ] final   64.62 input   59.86 | X-H torsion
[ 10167 10162 10161 10158 ] final -135.01 input  -65.29 | X-H torsion
[ 10718 10713 10712 10709 ] final  -10.83 input   66.30 | X-H torsion
[ 10763 10752 10751 10750 ] final -178.60 input  -60.55 | X-H torsion
[ 11005 11000 10999 10996 ] final -122.85 input  -57.11 | X-H torsion

> <Gold.Protein.ActiveResidues>
 VAL166  LYS551  ARG553  GLY616  TRP617  ASP618  TYR619  PRO620  LYS621  CYS622 
 ASP623  PHE694  ASN695  SER759  ASP760  ASP761  ALA762  ILE779  LEU786  VAL792 
 PHE793  MET794  SER795  GLU796  ALA797  LYS798  CYS799  TRP800  GLU811  SER814 

> <Gold.Protein.RotatedAtoms>
  151.3446  133.3949  159.2674 H   0  0  0  0  0  0  0  0  0  0  0  0  # atno 6907 bound_to 6896
  150.9850  134.9198  159.7877 H   0  0  0  0  0  0  0  0  0  0  0  0  # atno 6908 bound_to 6896
  152.5229  134.3410  159.9269 H   0  0  0  0  0  0  0  0  0  0  0  0  # atno 6909 bound_to 6896
  144.9367  139.4980  143.5591 H   0  0  0  0  0  0  0  0  0  0  0  0  # atno 7974 bound_to 7965
  155.6489  140.3497  155.4741 H   0  0  0  0  0  0  0  0  0  0  0  0  # atno 8008 bound_to 7997
  155.9864  140.1185  157.0702 H   0  0  0  0  0  0  0  0  0  0  0  0  # atno 8009 bound_to 7997
  154.4206  140.1128  156.5492 H   0  0  0  0  0  0  0  0  0  0  0  0  # atno 8010 bound_to 7997
  139.8823  143.6824  152.2625 H   0  0  0  0  0  0  0  0  0  0  0  0  # atno 10167 bound_to 10162
  156.6677  130.5000  149.6010 H   0  0  0  0  0  0  0  0  0  0  0  0  # atno 10718 bound_to 10713
  154.5457  135.2809  155.1055 H   0  0  0  0  0  0  0  0  0  0  0  0  # atno 10763 bound_to 10752
  154.2521  135.6337  153.5247 H   0  0  0  0  0  0  0  0  0  0  0  0  # atno 10764 bound_to 10752
  152.9990  135.5585  154.6008 H   0  0  0  0  0  0  0  0  0  0  0  0  # atno 10765 bound_to 10752
  140.9964  134.0465  157.3592 H   0  0  0  0  0  0  0  0  0  0  0  0  # atno 11005 bound_to 11000
  146.3269  139.8357  142.8900 LP  0  0  0  0  0  0  0  0  0  0  0  0  # atno 17320 bound_to 7965
  145.3055  141.0206  143.3584 LP  0  0  0  0  0  0  0  0  0  0  0  0  # atno 17321 bound_to 7965
  139.7185  144.7607  151.0994 LP  0  0  0  0  0  0  0  0  0  0  0  0  # atno 17342 bound_to 10162
  140.7742  143.5238  150.9504 LP  0  0  0  0  0  0  0  0  0  0  0  0  # atno 17343 bound_to 10162
  156.1962  130.6591  151.1117 LP  0  0  0  0  0  0  0  0  0  0  0  0  # atno 17370 bound_to 10713
  157.7088  131.0744  150.6575 LP  0  0  0  0  0  0  0  0  0  0  0  0  # atno 17371 bound_to 10713
  139.9017  135.0167  156.7298 LP  0  0  0  0  0  0  0  0  0  0  0  0  # atno 17394 bound_to 11000
  140.6959  133.9349  155.7994 LP  0  0  0  0  0  0  0  0  0  0  0  0  # atno 17395 bound_to 11000

$$$$
