AV-unprocessed.smi:3311|AV-procd|sdf|12724|dock4
  -GOLD-   2272019 63D 1   1.00000     0.00000
 Structure written by MMmdl.
 43 44  0  0  0  0  0  0  0  0  1 V2000
  151.3964  143.2923  157.7387 C   0  0  0  0  0  0  0  0  0  0  0  0
  150.7197  141.9126  157.8937 C   0  0  1  0  0  0  0  0  0  0  0  0
  149.7773  141.6506  156.7996 N   0  0  0  0  0  0  0  0  0  0  0  0
  150.3682  141.2667  155.5154 C   0  0  0  0  0  0  0  0  0  0  0  0
  149.3547  140.5537  154.5915 C   0  0  0  0  0  0  0  0  0  0  0  0
  150.1047  139.8686  153.6036 O   0  0  0  0  0  0  0  0  0  0  0  0
  148.4522  139.5514  155.3561 C   0  0  0  0  0  0  0  0  0  0  0  0
  147.3437  138.9470  154.4756 C   0  0  0  0  0  0  0  0  0  0  0  0
  146.4974  140.0395  153.8088 C   0  0  0  0  0  0  0  0  0  0  0  0
  147.3807  140.9944  152.9946 C   0  0  0  0  0  0  0  0  0  0  0  0
  148.4876  141.6118  153.8683 C   0  0  0  0  0  0  0  0  0  0  0  0
  151.7286  140.7368  157.9983 C   0  0  2  0  0  0  0  0  0  0  0  0
  151.0307  139.3646  158.0311 C   0  0  0  0  0  0  0  0  0  0  0  0
  152.6638  140.8849  159.1118 N   0  0  0  0  0  0  0  0  0  0  0  0
  152.7044  141.8483  160.1024 C   0  0  0  0  0  0  0  0  0  0  0  0
  153.7848  141.5811  160.8932 C   0  0  0  0  0  0  0  0  0  0  0  0
  154.3612  140.4260  160.2968 C   0  0  0  0  0  0  0  0  0  0  0  0
  153.6937  140.0169  159.2308 N   0  0  0  0  0  0  0  0  0  0  0  0
  152.1763  143.4391  158.4853 H   0  0  0  0  0  0  0  0  0  0  0  0
  150.6846  144.1063  157.8728 H   0  0  0  0  0  0  0  0  0  0  0  0
  151.8523  143.4110  156.7553 H   0  0  0  0  0  0  0  0  0  0  0  0
  150.1525  141.9302  158.8251 H   0  0  0  0  0  0  0  0  0  0  0  0
  149.1048  140.9458  157.0869 H   0  0  0  0  0  0  0  0  0  0  0  0
  150.7475  142.1587  155.0151 H   0  0  0  0  0  0  0  0  0  0  0  0
  151.2255  140.6109  155.6676 H   0  0  0  0  0  0  0  0  0  0  0  0
  149.7456  140.0812  152.7560 H   0  0  0  0  0  0  0  0  0  0  0  0
  149.0474  138.7420  155.7806 H   0  0  0  0  0  0  0  0  0  0  0  0
  147.9890  140.0613  156.2019 H   0  0  0  0  0  0  0  0  0  0  0  0
  147.7875  138.3094  153.7101 H   0  0  0  0  0  0  0  0  0  0  0  0
  146.7050  138.3009  155.0784 H   0  0  0  0  0  0  0  0  0  0  0  0
  145.7449  139.5858  153.1631 H   0  0  0  0  0  0  0  0  0  0  0  0
  145.9550  140.6008  154.5706 H   0  0  0  0  0  0  0  0  0  0  0  0
  147.8254  140.4585  152.1552 H   0  0  0  0  0  0  0  0  0  0  0  0
  146.7679  141.7856  152.5621 H   0  0  0  0  0  0  0  0  0  0  0  0
  148.0184  142.2586  154.6109 H   0  0  0  0  0  0  0  0  0  0  0  0
  149.1154  142.2630  153.2580 H   0  0  0  0  0  0  0  0  0  0  0  0
  152.3239  140.7329  157.0825 H   0  0  0  0  0  0  0  0  0  0  0  0
  150.4128  139.2216  157.1444 H   0  0  0  0  0  0  0  0  0  0  0  0
  150.3853  139.2505  158.9017 H   0  0  0  0  0  0  0  0  0  0  0  0
  151.7615  138.5557  158.0521 H   0  0  0  0  0  0  0  0  0  0  0  0
  151.9721  142.6396  160.1632 H   0  0  0  0  0  0  0  0  0  0  0  0
  154.1158  142.1302  161.7619 H   0  0  0  0  0  0  0  0  0  0  0  0
  155.2405  139.8782  160.6022 H   0  0  0  0  0  0  0  0  0  0  0  0
  1  2  1  0  0  0  0
  1 19  1  0  0  0  0
  1 20  1  0  0  0  0
  1 21  1  0  0  0  0
  2  3  1  0  0  0  0
  2 12  1  0  0  0  0
  2 22  1  0  0  0  0
  3  4  1  0  0  0  0
  3 23  1  0  0  0  0
  4  5  1  0  0  0  0
  4 24  1  0  0  0  0
  4 25  1  0  0  0  0
  5 11  1  0  0  0  0
  5  6  1  0  0  0  0
  5  7  1  0  0  0  0
  6 26  1  0  0  0  0
  7  8  1  0  0  0  0
  7 27  1  0  0  0  0
  7 28  1  0  0  0  0
  8  9  1  0  0  0  0
  8 29  1  0  0  0  0
  8 30  1  0  0  0  0
  9 10  1  0  0  0  0
  9 31  1  0  0  0  0
  9 32  1  0  0  0  0
 10 11  1  0  0  0  0
 10 33  1  0  0  0  0
 10 34  1  0  0  0  0
 11 35  1  0  0  0  0
 11 36  1  0  0  0  0
 12 13  1  0  0  0  0
 12 14  1  0  0  0  0
 12 37  1  0  0  0  0
 13 38  1  0  0  0  0
 13 39  1  0  0  0  0
 13 40  1  0  0  0  0
 14 18  1  0  0  0  0
 14 15  1  0  0  0  0
 15 16  2  0  0  0  0
 15 41  1  0  0  0  0
 16 17  1  0  0  0  0
 16 42  1  0  0  0  0
 17 18  2  0  0  0  0
 17 43  1  0  0  0  0
M  END
> <s_m_source_file>
AV-unprocessed.smi

> <i_m_source_file_index>
3311

> <i_lp_mmshare_version>
43012

> <i_f3d_flags>
0

> <s_epik_input>
bjFbY0hdW2NIXVtjSF1uMVtDQEBIXShbQ0gzXSlbQ0BIXShbQ0gzXSlbTkhdW0NIMl1DMihbT0hdKVtDSDJdW0NIMl1bQ0gyXVtDSDJdW0NIMl0y

> <s_epik_cmdline>
J2VwaWtfcHl0aG9uJywgJy1waCcsICc3LjAnLCAnLXRuJywgJzgnLCAnLW1hJywgJzIwMCcsICctbWV0YWxfYmluZGluZycsICctaW1hZScsICc8aW5maWxlLm1hZT4nLCAnLW9tYWUnLCAnPG91dGZpbGUubWFlPic=

> <r_lp_tautomer_probability>
1

> <r_epik_Ionization_Penalty>
2.222

> <r_epik_Ionization_Penalty_Charging>
0

> <r_epik_Ionization_Penalty_Neutral>
2.222

> <r_epik_State_Penalty>
2.36562

> <r_epik_Charging_Adjusted_Penalty>
2.36562

> <i_epik_Tot_Q>
0

> <i_epik_Tot_abs_Q>
0

> <r_epik_Metal_State_Penalty>
2.36435

> <b_epik_Metal_Only>
0

> <s_lp_Force_Field>
OPLS_2005

> <r_lp_Energy>
28.1428

> <b_lp_Chiralities_Consistent>
1

> <s_lp_Variant>
AV-unprocessed.smi:3311-6

> <Gold.Version>
5.8.1

> <Gold.Id.Protein>
6NUR|6NUR_protein|mol2

> <Gold.PLP.Fitness>
43.0549

> <Gold.PLP.PLP>
-35.8018

> <Gold.PLP.part.hbond>
-3.0000

> <Gold.PLP.part.metal>
0.0000

> <Gold.PLP.part.buried>
-2.6713

> <Gold.PLP.part.nonpolar>
-29.6093

> <Gold.PLP.part.repulsive>
0.0000

> <Gold.PLP.ligand.clash>
0.0000

> <Gold.PLP.ligand.torsion>
0.5395

> <Gold.PLP.Chemscore.Hbond>
2.7280

> <Gold.PLP.Chemscore.CHOScore>
0.0000

> <Gold.PLP.Chemscore.Metal>
0.0000

> <Gold.Chemscore.Hbonds>
donor molecule, donor type, donor heavy atom, donor atom, acceptor molecule, acceptor atom, score
      L1  H     6    26       P1  7957  1.00
      P1  H  7989  7998       L1     6  0.67
      P1  H  7997  8008       L1    18  0.29

> <Gold.PLP.Chemscore.Internal.Correction>
0.1480

> <Gold.Rescore>
     Score         DG    S(hbond)    S(metal)    S(lipo)     H(rot)  DE(clash)    DE(int)     intcor
     17.40     -18.05       2.10        0.00      92.66       2.07       0.08       0.58       ----

> <Gold.Chemscore.Fitness>
17.3968

> <Gold.Chemscore.DG>
-18.0523

> <Gold.Chemscore.ZeroCoef>
-5.4800

> <Gold.Chemscore.Hbond>
2.1038

> <Gold.Chemscore.Metal>
0.0000

> <Gold.Chemscore.Lipo>
92.6619

> <Gold.Chemscore.Internal_Hbond>
0.0000

> <Gold.Chemscore.DEClash>
0.0754

> <Gold.Chemscore.DEInternal>
0.5801

> <Gold.Chemscore.Rot>
2.0686

> <Gold.Chemscore.Internal.Correction>
   9.000000E+99

> <Gold.Chemscore.Hbonds>
donor molecule, donor type, donor heavy atom, donor atom, acceptor molecule, acceptor atom, score
      L1  H     6    26       P1  7957  0.97
      P1  H  7989  7998       L1     6  0.05
      P1  H  7997  8008       L1    18  0.17

> <Gold.Chemscore.Hbond.Weighted>
-7.0265

> <Gold.Chemscore.Metal.Weighted>
-0.0000

> <Gold.Chemscore.Lipo.Weighted>
-10.8414

> <Gold.Chemscore.Internal_Hbond.Weighted>
0.0000

> <Gold.Chemscore.DEClash.Weighted>
0.0754

> <Gold.Chemscore.DEInternal.Weighted>
0.5801

> <Gold.Chemscore.Rot.Weighted>
5.2957

> <Gold.Chemscore.Internal.Correction.Weighted>
   9.000000E+99

> <Gold.Protein.RotatedTorsions>
[ 6907 6896 6895 6894 ] final   70.73 input  -60.11 | X-H torsion
[ 7974 7965 7964 7962 ] final  -49.46 input  175.53 | X-H torsion
[ 8008 7997 7996 7995 ] final -111.78 input   59.86 | X-H torsion
[ 10167 10162 10161 10158 ] final  172.37 input  -65.29 | X-H torsion
[ 10718 10713 10712 10709 ] final   43.71 input   66.30 | X-H torsion
[ 10763 10752 10751 10750 ] final  -81.63 input  -60.55 | X-H torsion
[ 11005 11000 10999 10996 ] final  102.80 input  -57.11 | X-H torsion

> <Gold.Protein.ActiveResidues>
 VAL166  LYS551  ARG553  GLY616  TRP617  ASP618  TYR619  PRO620  LYS621  CYS622 
 ASP623  PHE694  ASN695  SER759  ASP760  ASP761  ALA762  ILE779  LEU786  VAL792 
 PHE793  MET794  SER795  GLU796  ALA797  LYS798  CYS799  TRP800  GLU811  SER814 

> <Gold.Protein.RotatedAtoms>
  152.4767  134.4825  159.9669 H   0  0  0  0  0  0  0  0  0  0  0  0  # atno 6907 bound_to 6896
  151.4839  133.3534  159.2850 H   0  0  0  0  0  0  0  0  0  0  0  0  # atno 6908 bound_to 6896
  150.8811  134.8228  159.7287 H   0  0  0  0  0  0  0  0  0  0  0  0  # atno 6909 bound_to 6896
  145.9403  140.7668  142.9555 H   0  0  0  0  0  0  0  0  0  0  0  0  # atno 7974 bound_to 7965
  154.9951  140.0395  157.2336 H   0  0  0  0  0  0  0  0  0  0  0  0  # atno 8008 bound_to 7997
  154.7593  140.2781  155.6204 H   0  0  0  0  0  0  0  0  0  0  0  0  # atno 8009 bound_to 7997
  156.2901  140.2631  156.2368 H   0  0  0  0  0  0  0  0  0  0  0  0  # atno 8010 bound_to 7997
  139.5074  144.3382  152.0045 H   0  0  0  0  0  0  0  0  0  0  0  0  # atno 10167 bound_to 10162
  157.4189  130.7958  149.7497 H   0  0  0  0  0  0  0  0  0  0  0  0  # atno 10718 bound_to 10713
  154.5659  135.5619  153.7050 H   0  0  0  0  0  0  0  0  0  0  0  0  # atno 10763 bound_to 10752
  153.0033  135.6285  154.2181 H   0  0  0  0  0  0  0  0  0  0  0  0  # atno 10764 bound_to 10752
  154.2119  135.2873  155.2935 H   0  0  0  0  0  0  0  0  0  0  0  0  # atno 10765 bound_to 10752
  139.8779  134.9238  156.5112 H   0  0  0  0  0  0  0  0  0  0  0  0  # atno 11005 bound_to 11000
  144.6778  140.2270  143.7360 LP  0  0  0  0  0  0  0  0  0  0  0  0  # atno 17320 bound_to 7965
  145.8308  139.2085  143.1884 LP  0  0  0  0  0  0  0  0  0  0  0  0  # atno 17321 bound_to 7965
  140.2820  144.3849  150.6116 LP  0  0  0  0  0  0  0  0  0  0  0  0  # atno 17342 bound_to 10162
  140.6011  143.2167  151.7070 LP  0  0  0  0  0  0  0  0  0  0  0  0  # atno 17343 bound_to 10162
  155.9874  130.3967  150.3166 LP  0  0  0  0  0  0  0  0  0  0  0  0  # atno 17370 bound_to 10713
  157.1312  131.0272  151.2968 LP  0  0  0  0  0  0  0  0  0  0  0  0  # atno 17371 bound_to 10713
  140.8518  133.8126  155.9176 LP  0  0  0  0  0  0  0  0  0  0  0  0  # atno 17394 bound_to 11000
  140.9136  134.2229  157.4970 LP  0  0  0  0  0  0  0  0  0  0  0  0  # atno 17395 bound_to 11000

$$$$
