AV-unprocessed.smi:213|AV-procd|sdf|1643|dock7
  -GOLD-   2262020 13D 1   1.00000     0.00000
 Structure written by MMmdl.
 58 61  0  0  0  0  0  0  0  0  1 V2000
  148.0036  134.8970  154.9695 C   0  0  0  0  0  0  0  0  0  0  0  0
  149.4178  134.5380  154.4783 C   0  0  2  0  0  0  0  0  0  0  0  0
  149.5603  133.0343  154.1498 C   0  0  0  0  0  0  0  0  0  0  0  0
  148.3619  132.3876  153.6124 N   0  0  0  0  0  0  0  0  0  0  0  0
  148.6019  130.9698  153.3647 C   0  0  0  0  0  0  0  0  0  0  0  0
  147.3557  130.2636  152.8037 C   0  0  0  0  0  0  0  0  0  0  0  0
  146.9368  130.9169  151.6102 O   0  0  0  0  0  0  0  0  0  0  0  0
  146.6469  132.2958  151.8134 C   0  0  0  0  0  0  0  0  0  0  0  0
  147.8874  133.0104  152.3776 C   0  0  0  0  0  0  0  0  0  0  0  0
  150.4329  134.9604  155.4479 N   0  0  0  0  0  0  0  0  0  0  0  0
  151.2624  133.9777  156.1431 C   0  0  0  0  0  0  0  0  0  0  0  0
  150.6061  136.2748  155.7567 C   0  0  0  0  0  0  0  0  0  0  0  0
  150.7073  137.1607  154.7297 N   0  0  0  0  0  0  0  0  0  0  0  0
  150.8730  138.4647  154.9667 C   0  0  0  0  0  0  0  0  0  0  0  0
  150.9675  139.0930  156.1387 N   0  0  0  0  0  0  0  0  0  0  0  0
  150.8814  138.2139  157.1765 C   0  0  0  0  0  0  0  0  0  0  0  0
  150.7028  136.8028  157.0804 C   0  0  0  0  0  0  0  0  0  0  0  0
  150.6830  136.2528  158.3588 N   0  0  0  0  0  0  0  0  0  0  0  0
  150.8264  137.2739  159.1574 C   0  0  0  0  0  0  0  0  0  0  0  0
  150.9598  138.4901  158.5295 N   0  0  0  0  0  0  0  0  0  0  0  0
  151.1483  139.7817  159.1643 C   0  0  0  0  0  0  0  0  0  0  0  0
  152.6029  140.0276  159.6191 C   0  0  1  0  0  0  0  0  0  0  0  0
  153.4446  139.6807  158.5378 O   0  0  0  0  0  0  0  0  0  0  0  0
  152.9010  141.4824  160.0450 C   0  0  2  0  0  0  0  0  0  0  0  0
  152.3530  141.8661  161.4204 C   0  0  0  0  0  0  0  0  0  0  0  0
  152.2683  143.3815  161.3544 C   0  0  0  0  0  0  0  0  0  0  0  0
  152.2496  143.6829  159.8537 C   0  0  0  0  0  0  0  0  0  0  0  0
  152.2206  142.4133  159.2163 O   0  0  0  0  0  0  0  0  0  0  0  0
  147.2562  134.6798  154.2063 H   0  0  0  0  0  0  0  0  0  0  0  0
  147.9263  135.9582  155.2067 H   0  0  0  0  0  0  0  0  0  0  0  0
  147.7312  134.3369  155.8642 H   0  0  0  0  0  0  0  0  0  0  0  0
  149.6000  135.0750  153.5516 H   0  0  0  0  0  0  0  0  0  0  0  0
  150.3845  132.8981  153.4477 H   0  0  0  0  0  0  0  0  0  0  0  0
  149.8589  132.5131  155.0601 H   0  0  0  0  0  0  0  0  0  0  0  0
  149.4286  130.8515  152.6624 H   0  0  0  0  0  0  0  0  0  0  0  0
  148.9062  130.4785  154.2895 H   0  0  0  0  0  0  0  0  0  0  0  0
  147.5787  129.2203  152.5801 H   0  0  0  0  0  0  0  0  0  0  0  0
  146.5457  130.2697  153.5348 H   0  0  0  0  0  0  0  0  0  0  0  0
  146.3516  132.7418  150.8636 H   0  0  0  0  0  0  0  0  0  0  0  0
  145.7998  132.3998  152.4932 H   0  0  0  0  0  0  0  0  0  0  0  0
  147.6312  134.0547  152.5505 H   0  0  0  0  0  0  0  0  0  0  0  0
  148.6813  133.0014  151.6294 H   0  0  0  0  0  0  0  0  0  0  0  0
  151.3430  134.2189  157.2036 H   0  0  0  0  0  0  0  0  0  0  0  0
  152.2654  133.9568  155.7161 H   0  0  0  0  0  0  0  0  0  0  0  0
  150.8440  132.9748  156.0653 H   0  0  0  0  0  0  0  0  0  0  0  0
  150.9403  139.0943  154.0919 H   0  0  0  0  0  0  0  0  0  0  0  0
  150.8523  137.1646  160.2318 H   0  0  0  0  0  0  0  0  0  0  0  0
  150.8377  140.5531  158.4583 H   0  0  0  0  0  0  0  0  0  0  0  0
  150.4699  139.8478  160.0163 H   0  0  0  0  0  0  0  0  0  0  0  0
  152.8424  139.3571  160.4454 H   0  0  0  0  0  0  0  0  0  0  0  0
  153.5849  138.7464  158.5540 H   0  0  0  0  0  0  0  0  0  0  0  0
  153.9738  141.6817  160.0037 H   0  0  0  0  0  0  0  0  0  0  0  0
  151.3534  141.4496  161.5546 H   0  0  0  0  0  0  0  0  0  0  0  0
  152.9781  141.5133  162.2411 H   0  0  0  0  0  0  0  0  0  0  0  0
  151.3774  143.7533  161.8613 H   0  0  0  0  0  0  0  0  0  0  0  0
  153.1395  143.8423  161.8212 H   0  0  0  0  0  0  0  0  0  0  0  0
  151.3871  144.2805  159.5581 H   0  0  0  0  0  0  0  0  0  0  0  0
  153.1528  144.2172  159.5564 H   0  0  0  0  0  0  0  0  0  0  0  0
  1  2  1  0  0  0  0
  1 29  1  0  0  0  0
  1 30  1  0  0  0  0
  1 31  1  0  0  0  0
  2  3  1  0  0  0  0
  2 10  1  0  0  0  0
  2 32  1  0  0  0  0
  3  4  1  0  0  0  0
  3 33  1  0  0  0  0
  3 34  1  0  0  0  0
  4  9  1  0  0  0  0
  4  5  1  0  0  0  0
  5  6  1  0  0  0  0
  5 35  1  0  0  0  0
  5 36  1  0  0  0  0
  6  7  1  0  0  0  0
  6 37  1  0  0  0  0
  6 38  1  0  0  0  0
  7  8  1  0  0  0  0
  8  9  1  0  0  0  0
  8 39  1  0  0  0  0
  8 40  1  0  0  0  0
  9 41  1  0  0  0  0
  9 42  1  0  0  0  0
 10 11  1  0  0  0  0
 10 12  1  0  0  0  0
 11 43  1  0  0  0  0
 11 44  1  0  0  0  0
 11 45  1  0  0  0  0
 12 17  1  0  0  0  0
 12 13  2  0  0  0  0
 13 14  1  0  0  0  0
 14 15  2  0  0  0  0
 14 46  1  0  0  0  0
 15 16  1  0  0  0  0
 16 20  1  0  0  0  0
 16 17  2  0  0  0  0
 17 18  1  0  0  0  0
 18 19  2  0  0  0  0
 19 20  1  0  0  0  0
 19 47  1  0  0  0  0
 20 21  1  0  0  0  0
 21 22  1  0  0  0  0
 21 48  1  0  0  0  0
 21 49  1  0  0  0  0
 22 23  1  0  0  0  0
 22 24  1  0  0  0  0
 22 50  1  0  0  0  0
 23 51  1  0  0  0  0
 24 28  1  0  0  0  0
 24 25  1  0  0  0  0
 24 52  1  0  0  0  0
 25 26  1  0  0  0  0
 25 53  1  0  0  0  0
 25 54  1  0  0  0  0
 26 27  1  0  0  0  0
 26 55  1  0  0  0  0
 26 56  1  0  0  0  0
 27 28  1  0  0  0  0
 27 57  1  0  0  0  0
 27 58  1  0  0  0  0
M  END
> <s_m_source_file>
AV-unprocessed.smi

> <i_m_source_file_index>
213

> <i_lp_mmshare_version>
43012

> <i_f3d_flags>
0

> <s_epik_input>
W0NIMl0xW0NIMl1PW0NIMl1bQ0gyXU4xW0NIMl1bQ0BASF0oW0NIM10pTihbQ0gzXSljKG5bY0hdbjIpYyhjMjMpbltjSF1uM1tDSDJdW0NASF0oW09IXSlbQ0BASF00W0NIMl1bQ0gyXVtDSDJdTzQ=

> <s_epik_cmdline>
J2VwaWtfcHl0aG9uJywgJy1waCcsICc3LjAnLCAnLXRuJywgJzgnLCAnLW1hJywgJzIwMCcsICctbWV0YWxfYmluZGluZycsICctaW1hZScsICc8aW5maWxlLm1hZT4nLCAnLW9tYWUnLCAnPG91dGZpbGUubWFlPic=

> <r_lp_tautomer_probability>
1

> <r_epik_Ionization_Penalty>
0.423322

> <r_epik_Ionization_Penalty_Charging>
0

> <r_epik_Ionization_Penalty_Neutral>
0.423322

> <r_epik_State_Penalty>
0.569486

> <r_epik_Charging_Adjusted_Penalty>
0.569486

> <i_epik_Tot_Q>
0

> <i_epik_Tot_abs_Q>
0

> <r_epik_Metal_State_Penalty>
0.568671

> <b_epik_Metal_Only>
0

> <s_lp_Force_Field>
OPLS_2005

> <r_lp_Energy>
51.7694

> <b_lp_Chiralities_Consistent>
1

> <s_lp_Variant>
AV-unprocessed.smi:213-11

> <Gold.Version>
5.8.1

> <Gold.Id.Protein>
6NUR|6NUR_protein|mol2

> <Gold.PLP.Fitness>
47.2848

> <Gold.PLP.PLP>
-45.0494

> <Gold.PLP.part.hbond>
-2.0000

> <Gold.PLP.part.metal>
0.0000

> <Gold.PLP.part.buried>
-8.0683

> <Gold.PLP.part.nonpolar>
-37.6211

> <Gold.PLP.part.repulsive>
1.6715

> <Gold.PLP.ligand.clash>
0.0000

> <Gold.PLP.ligand.torsion>
1.8543

> <Gold.PLP.Chemscore.Hbond>
1.8640

> <Gold.PLP.Chemscore.CHOScore>
0.0000

> <Gold.PLP.Chemscore.Metal>
0.0000

> <Gold.Chemscore.Hbonds>
donor molecule, donor type, donor heavy atom, donor atom, acceptor molecule, acceptor atom, score
      P1  H  6896  6909       L1    18  0.63
      P1  H  7997  8009       L1    23  0.80

> <Gold.PLP.Chemscore.Internal.Correction>
0.3520

> <Gold.Rescore>
     Score         DG    S(hbond)    S(metal)    S(lipo)     H(rot)  DE(clash)    DE(int)     intcor
     13.29     -15.32       1.66        0.00      96.54       2.74       0.00       2.03       ----

> <Gold.Chemscore.Fitness>
13.2909

> <Gold.Chemscore.DG>
-15.3197

> <Gold.Chemscore.ZeroCoef>
-5.4800

> <Gold.Chemscore.Hbond>
1.6625

> <Gold.Chemscore.Metal>
0.0000

> <Gold.Chemscore.Lipo>
96.5435

> <Gold.Chemscore.Internal_Hbond>
0.0000

> <Gold.Chemscore.DEClash>
0.0015

> <Gold.Chemscore.DEInternal>
2.0272

> <Gold.Chemscore.Rot>
2.7378

> <Gold.Chemscore.Internal.Correction>
   9.000000E+99

> <Gold.Chemscore.Hbonds>
donor molecule, donor type, donor heavy atom, donor atom, acceptor molecule, acceptor atom, score
      P1  H  6896  6909       L1    18  0.09
      P1  H  7997  8009       L1    23  0.12

> <Gold.Chemscore.Hbond.Weighted>
-5.5527

> <Gold.Chemscore.Metal.Weighted>
-0.0000

> <Gold.Chemscore.Lipo.Weighted>
-11.2956

> <Gold.Chemscore.Internal_Hbond.Weighted>
0.0000

> <Gold.Chemscore.DEClash.Weighted>
0.0015

> <Gold.Chemscore.DEInternal.Weighted>
2.0272

> <Gold.Chemscore.Rot.Weighted>
7.0087

> <Gold.Chemscore.Internal.Correction.Weighted>
   9.000000E+99

> <Gold.Protein.RotatedTorsions>
[ 6907 6896 6895 6894 ] final   74.45 input  -60.11 | X-H torsion
[ 7974 7965 7964 7962 ] final   -8.17 input  175.53 | X-H torsion
[ 8008 7997 7996 7995 ] final  148.72 input   59.86 | X-H torsion
[ 10167 10162 10161 10158 ] final    0.53 input  -65.29 | X-H torsion
[ 10718 10713 10712 10709 ] final   54.45 input   66.30 | X-H torsion
[ 10763 10752 10751 10750 ] final   66.98 input  -60.55 | X-H torsion
[ 11005 11000 10999 10996 ] final  -52.50 input  -57.11 | X-H torsion

> <Gold.Protein.ActiveResidues>
 VAL166  LYS551  ARG553  GLY616  TRP617  ASP618  TYR619  PRO620  LYS621  CYS622 
 ASP623  PHE694  ASN695  SER759  ASP760  ASP761  ALA762  ILE779  LEU786  VAL792 
 PHE793  MET794  SER795  GLU796  ALA797  LYS798  CYS799  TRP800  GLU811  SER814 

> <Gold.Protein.RotatedAtoms>
  152.4976  134.4270  159.9499 H   0  0  0  0  0  0  0  0  0  0  0  0  # atno 6907 bound_to 6896
  151.4246  133.3682  159.2768 H   0  0  0  0  0  0  0  0  0  0  0  0  # atno 6908 bound_to 6896
  150.9198  134.8638  159.7541 H   0  0  0  0  0  0  0  0  0  0  0  0  # atno 6909 bound_to 6896
  146.2287  140.2429  142.8344 H   0  0  0  0  0  0  0  0  0  0  0  0  # atno 7974 bound_to 7965
  156.2781  140.2121  156.5743 H   0  0  0  0  0  0  0  0  0  0  0  0  # atno 8008 bound_to 7997
  154.7110  140.0512  157.0573 H   0  0  0  0  0  0  0  0  0  0  0  0  # atno 8009 bound_to 7997
  155.0606  140.3166  155.4665 H   0  0  0  0  0  0  0  0  0  0  0  0  # atno 8010 bound_to 7997
  140.6724  143.7011  150.7951 H   0  0  0  0  0  0  0  0  0  0  0  0  # atno 10167 bound_to 10162
  157.5258  130.8596  149.8620 H   0  0  0  0  0  0  0  0  0  0  0  0  # atno 10718 bound_to 10713
  153.0165  135.5300  154.6909 H   0  0  0  0  0  0  0  0  0  0  0  0  # atno 10763 bound_to 10752
  154.6044  135.2871  155.0503 H   0  0  0  0  0  0  0  0  0  0  0  0  # atno 10764 bound_to 10752
  154.1548  135.6557  153.5024 H   0  0  0  0  0  0  0  0  0  0  0  0  # atno 10765 bound_to 10752
  141.0928  133.6630  156.4034 H   0  0  0  0  0  0  0  0  0  0  0  0  # atno 11005 bound_to 11000
  144.9471  140.8139  143.5595 LP  0  0  0  0  0  0  0  0  0  0  0  0  # atno 17320 bound_to 7965
  145.2386  139.2083  143.5005 LP  0  0  0  0  0  0  0  0  0  0  0  0  # atno 17321 bound_to 7965
  140.0698  143.5072  152.2585 LP  0  0  0  0  0  0  0  0  0  0  0  0  # atno 17342 bound_to 10162
  139.5999  144.7579  151.3196 LP  0  0  0  0  0  0  0  0  0  0  0  0  # atno 17343 bound_to 10162
  156.0386  130.3745  150.1495 LP  0  0  0  0  0  0  0  0  0  0  0  0  # atno 17370 bound_to 10713
  156.9681  130.9826  151.3465 LP  0  0  0  0  0  0  0  0  0  0  0  0  # atno 17371 bound_to 10713
  140.5212  134.6302  157.5319 LP  0  0  0  0  0  0  0  0  0  0  0  0  # atno 17394 bound_to 11000
  139.9757  134.7219  155.9954 LP  0  0  0  0  0  0  0  0  0  0  0  0  # atno 17395 bound_to 11000

$$$$
