AV-unprocessed.smi:2312|AV-procd|sdf|9263|dock1
  -GOLD-   2272012483D 1   1.00000     0.00000
 Structure written by MMmdl.
 34 35  0  0  0  0  0  0  0  0  1 V2000
  147.0833  139.1505  152.9273 C   0  0  0  0  0  0  0  0  0  0  0  0
  146.8802  140.5569  152.8795 O   0  0  0  0  0  0  0  0  0  0  0  0
  147.3588  141.2964  154.0035 C   0  0  0  0  0  0  0  0  0  0  0  0
  148.8870  141.2228  154.1280 C   0  0  0  0  0  0  0  0  0  0  0  0
  149.3538  142.0563  155.2275 N   0  0  0  0  0  0  0  0  0  0  0  0
  150.3136  141.7041  156.0915 C   0  0  0  0  0  0  0  0  0  0  0  0
  150.8960  140.6199  156.0538 O   0  0  0  0  0  0  0  0  0  0  0  0
  150.5508  142.6831  156.9808 N   0  0  0  0  0  0  0  0  0  0  0  0
  151.4849  142.6796  158.0511 C   0  0  0  0  0  0  0  0  0  0  0  0
  152.2015  141.6379  158.4619 N   0  0  0  0  0  0  0  0  0  0  0  0
  152.8854  142.2229  159.4894 C   0  0  0  0  0  0  0  0  0  0  0  0
  152.6243  143.5123  159.7064 N   0  0  0  0  0  0  0  0  0  0  0  0
  151.7052  143.7947  158.7537 N   0  0  0  0  0  0  0  0  0  0  0  0
  151.1400  145.1250  158.6349 C   0  0  0  0  0  0  0  0  0  0  0  0
  146.7116  142.6937  153.9641 C   0  0  0  0  0  0  0  0  0  0  0  0
  146.3998  142.5493  155.4547 C   0  0  0  0  0  0  0  0  0  0  0  0
  146.4976  141.0362  155.2556 C   0  0  0  0  0  0  0  0  0  0  0  0
  146.5925  138.6900  152.0703 H   0  0  0  0  0  0  0  0  0  0  0  0
  146.6597  138.7067  153.8285 H   0  0  0  0  0  0  0  0  0  0  0  0
  148.1403  138.8918  152.8720 H   0  0  0  0  0  0  0  0  0  0  0  0
  149.2007  140.1932  154.3066 H   0  0  0  0  0  0  0  0  0  0  0  0
  149.3759  141.5295  153.2028 H   0  0  0  0  0  0  0  0  0  0  0  0
  148.9252  142.9653  155.3234 H   0  0  0  0  0  0  0  0  0  0  0  0
  150.0068  143.5270  156.8794 H   0  0  0  0  0  0  0  0  0  0  0  0
  153.5961  141.6821  160.0970 H   0  0  0  0  0  0  0  0  0  0  0  0
  150.1114  145.1188  158.9964 H   0  0  0  0  0  0  0  0  0  0  0  0
  151.1500  145.4384  157.5908 H   0  0  0  0  0  0  0  0  0  0  0  0
  151.7190  145.8396  159.2211 H   0  0  0  0  0  0  0  0  0  0  0  0
  147.3929  143.5104  153.7237 H   0  0  0  0  0  0  0  0  0  0  0  0
  145.8093  142.7343  153.3509 H   0  0  0  0  0  0  0  0  0  0  0  0
  147.1896  142.9456  156.0949 H   0  0  0  0  0  0  0  0  0  0  0  0
  145.4146  142.9088  155.7533 H   0  0  0  0  0  0  0  0  0  0  0  0
  145.5295  140.5853  155.0301 H   0  0  0  0  0  0  0  0  0  0  0  0
  147.0081  140.5067  156.0607 H   0  0  0  0  0  0  0  0  0  0  0  0
  1  2  1  0  0  0  0
  1 18  1  0  0  0  0
  1 19  1  0  0  0  0
  1 20  1  0  0  0  0
  2  3  1  0  0  0  0
  3 17  1  0  0  0  0
  3  4  1  0  0  0  0
  3 15  1  0  0  0  0
  4  5  1  0  0  0  0
  4 21  1  0  0  0  0
  4 22  1  0  0  0  0
  5  6  1  0  0  0  0
  5 23  1  0  0  0  0
  6  7  2  0  0  0  0
  6  8  1  0  0  0  0
  8  9  1  0  0  0  0
  8 24  1  0  0  0  0
  9 13  1  0  0  0  0
  9 10  2  0  0  0  0
 10 11  1  0  0  0  0
 11 12  2  0  0  0  0
 11 25  1  0  0  0  0
 12 13  1  0  0  0  0
 13 14  1  0  0  0  0
 14 26  1  0  0  0  0
 14 27  1  0  0  0  0
 14 28  1  0  0  0  0
 15 16  1  0  0  0  0
 15 29  1  0  0  0  0
 15 30  1  0  0  0  0
 16 17  1  0  0  0  0
 16 31  1  0  0  0  0
 16 32  1  0  0  0  0
 17 33  1  0  0  0  0
 17 34  1  0  0  0  0
M  END
> <s_m_source_file>
AV-unprocessed.smi

> <i_m_source_file_index>
2312

> <i_lp_mmshare_version>
43012

> <i_f3d_flags>
0

> <s_epik_input>
W0NIMl0xW0NIMl1bQ0gyXUMxKE9bQ0gzXSlbQ0gyXVtOSF1DKD1PKVtOSF1jMm5bY0hdbm4yW0NIM10=

> <s_epik_cmdline>
J2VwaWtfcHl0aG9uJywgJy1waCcsICc3LjAnLCAnLXRuJywgJzgnLCAnLW1hJywgJzIwMCcsICctbWV0YWxfYmluZGluZycsICctaW1hZScsICc8aW5maWxlLm1hZT4nLCAnLW9tYWUnLCAnPG91dGZpbGUubWFlPic=

> <r_lp_tautomer_probability>
1

> <r_epik_Ionization_Penalty>
2.1066e-05

> <r_epik_Ionization_Penalty_Charging>
0

> <r_epik_Ionization_Penalty_Neutral>
2.1066e-05

> <r_epik_State_Penalty>
-0

> <r_epik_Charging_Adjusted_Penalty>
0

> <i_epik_Tot_Q>
0

> <i_epik_Tot_abs_Q>
0

> <r_epik_Metal_State_Penalty>
-0

> <b_epik_Metal_Only>
0

> <s_lp_Force_Field>
OPLS_2005

> <r_lp_Energy>
16.1455

> <b_lp_Chiralities_Consistent>
1

> <s_lp_Variant>
AV-unprocessed.smi:2312-1

> <Gold.Version>
5.8.1

> <Gold.Id.Protein>
6NUR|6NUR_protein|mol2

> <Gold.PLP.Fitness>
40.4532

> <Gold.PLP.PLP>
-34.8108

> <Gold.PLP.part.hbond>
-2.0000

> <Gold.PLP.part.metal>
0.0000

> <Gold.PLP.part.buried>
-5.8376

> <Gold.PLP.part.nonpolar>
-27.6248

> <Gold.PLP.part.repulsive>
0.4644

> <Gold.PLP.ligand.clash>
0.0000

> <Gold.PLP.ligand.torsion>
0.2821

> <Gold.PLP.Chemscore.Hbond>
1.9760

> <Gold.PLP.Chemscore.CHOScore>
0.0000

> <Gold.PLP.Chemscore.Metal>
0.0000

> <Gold.Chemscore.Hbonds>
donor molecule, donor type, donor heavy atom, donor atom, acceptor molecule, acceptor atom, score
      L1  H     5    23       P1  8028  1.00
      L1  H     8    24       P1  8028  0.97

> <Gold.PLP.Chemscore.Internal.Correction>
0.2785

> <Gold.Rescore>
     Score         DG    S(hbond)    S(metal)    S(lipo)     H(rot)  DE(clash)    DE(int)     intcor
     10.63     -13.16       1.91        0.00      48.53       1.71       0.04       2.49       ----

> <Gold.Chemscore.Fitness>
10.6344

> <Gold.Chemscore.DG>
-13.1579

> <Gold.Chemscore.ZeroCoef>
-5.4800

> <Gold.Chemscore.Hbond>
1.9061

> <Gold.Chemscore.Metal>
0.0000

> <Gold.Chemscore.Lipo>
48.5347

> <Gold.Chemscore.Internal_Hbond>
0.0000

> <Gold.Chemscore.DEClash>
0.0363

> <Gold.Chemscore.DEInternal>
2.4873

> <Gold.Chemscore.Rot>
1.7059

> <Gold.Chemscore.Internal.Correction>
   9.000000E+99

> <Gold.Chemscore.Hbonds>
donor molecule, donor type, donor heavy atom, donor atom, acceptor molecule, acceptor atom, score
      L1  H     5    23       P1  8028  0.99
      L1  H     8    24       P1  8028  0.86

> <Gold.Chemscore.Hbond.Weighted>
-6.3664

> <Gold.Chemscore.Metal.Weighted>
-0.0000

> <Gold.Chemscore.Lipo.Weighted>
-5.6786

> <Gold.Chemscore.Internal_Hbond.Weighted>
0.0000

> <Gold.Chemscore.DEClash.Weighted>
0.0363

> <Gold.Chemscore.DEInternal.Weighted>
2.4873

> <Gold.Chemscore.Rot.Weighted>
4.3670

> <Gold.Chemscore.Internal.Correction.Weighted>
   9.000000E+99

> <Gold.Protein.RotatedTorsions>
[ 6907 6896 6895 6894 ] final  129.93 input  -60.11 | X-H torsion
[ 7974 7965 7964 7962 ] final   60.39 input  175.53 | X-H torsion
[ 8008 7997 7996 7995 ] final  170.69 input   59.86 | X-H torsion
[ 10167 10162 10161 10158 ] final  -26.50 input  -65.29 | X-H torsion
[ 10718 10713 10712 10709 ] final -159.24 input   66.30 | X-H torsion
[ 10763 10752 10751 10750 ] final  146.20 input  -60.55 | X-H torsion
[ 11005 11000 10999 10996 ] final  124.19 input  -57.11 | X-H torsion

> <Gold.Protein.ActiveResidues>
 VAL166  LYS551  ARG553  GLY616  TRP617  ASP618  TYR619  PRO620  LYS621  CYS622 
 ASP623  PHE694  ASN695  SER759  ASP760  ASP761  ALA762  ILE779  LEU786  VAL792 
 PHE793  MET794  SER795  GLU796  ALA797  LYS798  CYS799  TRP800  GLU811  SER814 

> <Gold.Protein.RotatedAtoms>
  152.3576  133.6256  159.5990 H   0  0  0  0  0  0  0  0  0  0  0  0  # atno 6907 bound_to 6896
  150.7579  133.9476  159.3484 H   0  0  0  0  0  0  0  0  0  0  0  0  # atno 6908 bound_to 6896
  151.7318  135.0874  160.0352 H   0  0  0  0  0  0  0  0  0  0  0  0  # atno 6909 bound_to 6896
  145.8966  139.3550  143.0618 H   0  0  0  0  0  0  0  0  0  0  0  0  # atno 7974 bound_to 7965
  156.1342  140.1531  156.9020 H   0  0  0  0  0  0  0  0  0  0  0  0  # atno 8008 bound_to 7997
  154.4933  140.0845  156.7682 H   0  0  0  0  0  0  0  0  0  0  0  0  # atno 8009 bound_to 7997
  155.4200  140.3422  155.4273 H   0  0  0  0  0  0  0  0  0  0  0  0  # atno 8010 bound_to 7997
  140.7282  143.4173  151.1008 H   0  0  0  0  0  0  0  0  0  0  0  0  # atno 10167 bound_to 10162
  156.5653  130.8665  151.2822 H   0  0  0  0  0  0  0  0  0  0  0  0  # atno 10718 bound_to 10713
  154.0180  135.2908  155.3384 H   0  0  0  0  0  0  0  0  0  0  0  0  # atno 10763 bound_to 10752
  154.7063  135.5168  153.8603 H   0  0  0  0  0  0  0  0  0  0  0  0  # atno 10764 bound_to 10752
  153.0693  135.6642  154.0405 H   0  0  0  0  0  0  0  0  0  0  0  0  # atno 10765 bound_to 10752
  139.9347  134.9640  156.8372 H   0  0  0  0  0  0  0  0  0  0  0  0  # atno 11005 bound_to 11000
  145.8843  140.9343  143.0585 LP  0  0  0  0  0  0  0  0  0  0  0  0  # atno 17320 bound_to 7965
  144.6733  140.0821  143.7469 LP  0  0  0  0  0  0  0  0  0  0  0  0  # atno 17321 bound_to 7965
  139.7814  143.8350  152.3138 LP  0  0  0  0  0  0  0  0  0  0  0  0  # atno 17342 bound_to 10162
  139.8302  144.7257  150.9460 LP  0  0  0  0  0  0  0  0  0  0  0  0  # atno 17343 bound_to 10162
  157.7360  130.9771  150.2111 LP  0  0  0  0  0  0  0  0  0  0  0  0  # atno 17370 bound_to 10713
  156.2763  130.3728  149.7980 LP  0  0  0  0  0  0  0  0  0  0  0  0  # atno 17371 bound_to 10713
  140.6107  134.0085  155.7575 LP  0  0  0  0  0  0  0  0  0  0  0  0  # atno 17394 bound_to 11000
  141.0955  133.9850  157.3167 LP  0  0  0  0  0  0  0  0  0  0  0  0  # atno 17395 bound_to 11000

$$$$
