AV-unprocessed.smi:1540|AV-procd|sdf|6200|dock5
  -GOLD-   22720 6373D 1   1.00000     0.00000
 Structure written by MMmdl.
 32 32  0  0  0  0  0  0  0  0  2 V2000
  146.5428  144.4140  161.5217 C   0  0  0  0  0  0  0  0  0  0  0  0
  147.3855  144.6357  160.5018 C   0  0  0  0  0  0  0  0  0  0  0  0
  148.7551  145.2627  160.6423 C   0  0  0  0  0  0  0  0  0  0  0  0
  149.7663  144.2735  160.4934 O   0  0  0  0  0  0  0  0  0  0  0  0
  151.1022  144.7306  160.6900 C   0  0  2  0  0  0  0  0  0  0  0  0
  151.5497  145.4247  159.3953 C   0  0  0  0  0  0  0  0  0  0  0  0
  152.0259  143.5512  161.0352 C   0  0  0  0  0  0  0  0  0  0  0  0
  152.5620  143.5079  162.1425 O   0  0  0  0  0  0  0  0  0  0  0  0
  152.1732  142.6301  160.0630 N   0  0  0  0  0  0  0  0  0  0  0  0
  152.9681  141.4718  160.0446 C   0  0  0  0  0  0  0  0  0  0  0  0
  153.7834  141.0740  161.0604 C   0  0  0  0  0  0  0  0  0  0  0  0
  154.5972  139.8676  160.9802 C   0  0  0  0  0  0  0  0  0  0  0  0
  155.5712  139.4338  162.0615 C   0  0  0  0  0  0  0  0  0  0  0  0
  155.2613  138.2100  162.4870 F   0  0  0  0  0  0  0  0  0  0  0  0
  156.8215  139.4084  161.5988 F   0  0  0  0  0  0  0  0  0  0  0  0
  155.5263  140.2611  163.1061 F   0  0  0  0  0  0  0  0  0  0  0  0
  154.4618  139.2238  159.7654 C   0  0  0  0  0  0  0  0  0  0  0  0
  153.6767  139.5463  158.7142 N   0  5  0  0  0  0  0  0  0  0  0  0
  152.9129  140.6717  158.8036 C   0  0  0  0  0  0  0  0  0  0  0  0
  152.1835  141.0307  157.8786 O   0  0  0  0  0  0  0  0  0  0  0  0
  146.8054  144.6803  162.5352 H   0  0  0  0  0  0  0  0  0  0  0  0
  145.5766  143.9610  161.3547 H   0  0  0  0  0  0  0  0  0  0  0  0
  147.0890  144.3556  159.5015 H   0  0  0  0  0  0  0  0  0  0  0  0
  148.8649  146.0277  159.8725 H   0  0  0  0  0  0  0  0  0  0  0  0
  148.8265  145.7586  161.6112 H   0  0  0  0  0  0  0  0  0  0  0  0
  151.1172  145.4664  161.4966 H   0  0  0  0  0  0  0  0  0  0  0  0
  152.5746  145.7891  159.4757 H   0  0  0  0  0  0  0  0  0  0  0  0
  150.9124  146.2817  159.1768 H   0  0  0  0  0  0  0  0  0  0  0  0
  151.4996  144.7504  158.5395 H   0  0  0  0  0  0  0  0  0  0  0  0
  151.6080  142.7586  159.2361 H   0  0  0  0  0  0  0  0  0  0  0  0
  153.8665  141.6575  161.9624 H   0  0  0  0  0  0  0  0  0  0  0  0
  155.0814  138.3143  159.6137 H   0  0  0  0  0  0  0  0  0  0  0  0
  1  2  2  0  0  0  0
  1 21  1  0  0  0  0
  1 22  1  0  0  0  0
  2  3  1  0  0  0  0
  2 23  1  0  0  0  0
  3  4  1  0  0  0  0
  3 24  1  0  0  0  0
  3 25  1  0  0  0  0
  4  5  1  0  0  0  0
  5  6  1  0  0  0  0
  5  7  1  0  0  0  0
  5 26  1  0  0  0  0
  6 27  1  0  0  0  0
  6 28  1  0  0  0  0
  6 29  1  0  0  0  0
  7  8  2  0  0  0  0
  7  9  1  0  0  0  0
  9 10  1  0  0  0  0
  9 30  1  0  0  0  0
 10 19  1  0  0  0  0
 10 11  2  0  0  0  0
 11 12  1  0  0  0  0
 11 31  1  0  0  0  0
 12 13  1  0  0  0  0
 12 17  2  0  0  0  0
 13 14  1  0  0  0  0
 13 15  1  0  0  0  0
 13 16  1  0  0  0  0
 17 18  1  0  0  0  0
 17 32  1  0  0  0  0
 18 19  1  0  0  0  0
 19 20  2  0  0  0  0
M  CHG  1  18  -1
M  END
> <s_m_source_file>
AV-unprocessed.smi

> <i_m_source_file_index>
1540

> <i_lp_mmshare_version>
43012

> <i_f3d_flags>
0

> <s_epik_input>
W0NIMl09W0NIXVtDSDJdT1tDQEhdKFtDSDNdKUMoPU8pW05IXWMxW2NIXWMoQyhGKShGKUYpW2NIXVtuSF1jMT1P

> <s_epik_cmdline>
J2VwaWtfcHl0aG9uJywgJy1waCcsICc3LjAnLCAnLXRuJywgJzgnLCAnLW1hJywgJzIwMCcsICctbWV0YWxfYmluZGluZycsICctaW1hZScsICc8aW5maWxlLm1hZT4nLCAnLW9tYWUnLCAnPG91dGZpbGUubWFlPic=

> <r_epik_Ionization_Penalty>
2.56803

> <r_epik_Ionization_Penalty_Charging>
0.0609694

> <r_epik_Ionization_Penalty_Neutral>
2.50706

> <r_epik_State_Penalty>
2.67253

> <r_epik_Charging_Adjusted_Penalty>
2.7335

> <i_epik_Tot_Q>
-1

> <i_epik_Tot_abs_Q>
1

> <r_epik_Metal_State_Penalty>
0.517713

> <b_epik_Metal_Only>
0

> <s_lp_Force_Field>
OPLS_2005

> <r_lp_Energy>
19.8511

> <b_lp_Chiralities_Consistent>
1

> <s_lp_Variant>
AV-unprocessed.smi:1540-3

> <Gold.Version>
5.8.1

> <Gold.Id.Protein>
6NUR|6NUR_protein|mol2

> <Gold.PLP.Fitness>
44.6488

> <Gold.PLP.PLP>
-39.2548

> <Gold.PLP.part.hbond>
-2.0000

> <Gold.PLP.part.metal>
0.0000

> <Gold.PLP.part.buried>
-5.5712

> <Gold.PLP.part.nonpolar>
-31.9379

> <Gold.PLP.part.repulsive>
0.4192

> <Gold.PLP.ligand.clash>
0.0000

> <Gold.PLP.ligand.torsion>
0.3578

> <Gold.PLP.Chemscore.Hbond>
2.0148

> <Gold.PLP.Chemscore.CHOScore>
0.0000

> <Gold.PLP.Chemscore.Metal>
0.0000

> <Gold.Chemscore.Hbonds>
donor molecule, donor type, donor heavy atom, donor atom, acceptor molecule, acceptor atom, score
      P1  H  7997  8009       L1    18  2.00

> <Gold.PLP.Chemscore.Internal.Correction>
0.0652

> <Gold.Rescore>
     Score         DG    S(hbond)    S(metal)    S(lipo)     H(rot)  DE(clash)    DE(int)     intcor
     10.22     -11.93       0.57        0.00      77.79       1.77       0.11       1.59       ----

> <Gold.Chemscore.Fitness>
10.2223

> <Gold.Chemscore.DG>
-11.9283

> <Gold.Chemscore.ZeroCoef>
-5.4800

> <Gold.Chemscore.Hbond>
0.5659

> <Gold.Chemscore.Metal>
0.0000

> <Gold.Chemscore.Lipo>
77.7948

> <Gold.Chemscore.Internal_Hbond>
0.0000

> <Gold.Chemscore.DEClash>
0.1137

> <Gold.Chemscore.DEInternal>
1.5923

> <Gold.Chemscore.Rot>
1.7750

> <Gold.Chemscore.Internal.Correction>
   9.000000E+99

> <Gold.Chemscore.Hbonds>
donor molecule, donor type, donor heavy atom, donor atom, acceptor molecule, acceptor atom, score
      P1  H  7997  8009       L1    18  0.19

> <Gold.Chemscore.Hbond.Weighted>
-1.8901

> <Gold.Chemscore.Metal.Weighted>
-0.0000

> <Gold.Chemscore.Lipo.Weighted>
-9.1020

> <Gold.Chemscore.Internal_Hbond.Weighted>
0.0000

> <Gold.Chemscore.DEClash.Weighted>
0.1137

> <Gold.Chemscore.DEInternal.Weighted>
1.5923

> <Gold.Chemscore.Rot.Weighted>
4.5439

> <Gold.Chemscore.Internal.Correction.Weighted>
   9.000000E+99

> <Gold.Protein.RotatedTorsions>
[ 6907 6896 6895 6894 ] final   51.50 input  -60.11 | X-H torsion
[ 7974 7965 7964 7962 ] final   26.46 input  175.53 | X-H torsion
[ 8008 7997 7996 7995 ] final  140.33 input   59.86 | X-H torsion
[ 10167 10162 10161 10158 ] final  157.24 input  -65.29 | X-H torsion
[ 10718 10713 10712 10709 ] final   42.57 input   66.30 | X-H torsion
[ 10763 10752 10751 10750 ] final -140.52 input  -60.55 | X-H torsion
[ 11005 11000 10999 10996 ] final  159.16 input  -57.11 | X-H torsion

> <Gold.Protein.ActiveResidues>
 VAL166  LYS551  ARG553  GLY616  TRP617  ASP618  TYR619  PRO620  LYS621  CYS622 
 ASP623  PHE694  ASN695  SER759  ASP760  ASP761  ALA762  ILE779  LEU786  VAL792 
 PHE793  MET794  SER795  GLU796  ALA797  LYS798  CYS799  TRP800  GLU811  SER814 

> <Gold.Protein.RotatedAtoms>
  152.3134  134.7470  160.0330 H   0  0  0  0  0  0  0  0  0  0  0  0  # atno 6907 bound_to 6896
  151.7943  133.3357  159.3516 H   0  0  0  0  0  0  0  0  0  0  0  0  # atno 6908 bound_to 6896
  150.7331  134.5744  159.5951 H   0  0  0  0  0  0  0  0  0  0  0  0  # atno 6909 bound_to 6896
  146.1836  139.7325  142.8883 H   0  0  0  0  0  0  0  0  0  0  0  0  # atno 7974 bound_to 7965
  156.2980  140.2344  156.4384 H   0  0  0  0  0  0  0  0  0  0  0  0  # atno 8008 bound_to 7997
  154.8208  140.0438  157.1429 H   0  0  0  0  0  0  0  0  0  0  0  0  # atno 8009 bound_to 7997
  154.9317  140.3017  155.5168 H   0  0  0  0  0  0  0  0  0  0  0  0  # atno 8010 bound_to 7997
  139.4822  144.4935  151.8273 H   0  0  0  0  0  0  0  0  0  0  0  0  # atno 10167 bound_to 10162
  157.4063  130.7888  149.7391 H   0  0  0  0  0  0  0  0  0  0  0  0  # atno 10718 bound_to 10713
  154.8576  135.3551  154.5721 H   0  0  0  0  0  0  0  0  0  0  0  0  # atno 10763 bound_to 10752
  153.6334  135.7001  153.5272 H   0  0  0  0  0  0  0  0  0  0  0  0  # atno 10764 bound_to 10752
  153.3031  135.4200  155.1229 H   0  0  0  0  0  0  0  0  0  0  0  0  # atno 10765 bound_to 10752
  140.1934  134.8390  157.2938 H   0  0  0  0  0  0  0  0  0  0  0  0  # atno 11005 bound_to 11000
  145.4004  141.0384  143.3073 LP  0  0  0  0  0  0  0  0  0  0  0  0  # atno 17320 bound_to 7965
  144.8358  139.5553  143.6923 LP  0  0  0  0  0  0  0  0  0  0  0  0  # atno 17321 bound_to 7965
  140.4422  144.1971  150.5892 LP  0  0  0  0  0  0  0  0  0  0  0  0  # atno 17342 bound_to 10162
  140.4672  143.2426  151.9139 LP  0  0  0  0  0  0  0  0  0  0  0  0  # atno 17343 bound_to 10162
  155.9837  130.3998  150.3348 LP  0  0  0  0  0  0  0  0  0  0  0  0  # atno 17370 bound_to 10713
  157.1481  131.0314  151.2897 LP  0  0  0  0  0  0  0  0  0  0  0  0  # atno 17371 bound_to 10713
  140.2134  134.4111  155.7601 LP  0  0  0  0  0  0  0  0  0  0  0  0  # atno 17394 bound_to 11000
  141.2226  133.7129  156.8374 LP  0  0  0  0  0  0  0  0  0  0  0  0  # atno 17395 bound_to 11000

$$$$
