AV-unprocessed.smi:2562|AV-procd|sdf|10052|dock3
  -GOLD-   2272014 93D 1   1.00000     0.00000
 Structure written by MMmdl.
 30 31  0  0  0  0  0  0  0  0  3 V2000
  151.9822  144.7240  159.2336 C   0  0  0  0  0  0  0  0  0  0  0  0
  151.7930  144.0415  160.5927 C   0  0  0  0  0  0  0  0  0  0  0  0
  152.8298  142.9385  160.8475 C   0  0  0  0  0  0  0  0  0  0  0  0
  152.8796  141.9296  159.7202 C   0  0  0  0  0  0  0  0  0  0  0  0
  153.7632  140.9235  159.6352 N   0  0  0  0  0  0  0  0  0  0  0  0
  153.4477  140.2722  158.5342 N   0  5  0  0  0  0  0  0  0  0  0  0
  152.3766  140.8453  157.9580 C   0  0  0  0  0  0  0  0  0  0  0  0
  151.7356  140.4102  156.6572 C   0  0  2  0  0  0  0  0  0  0  0  0
  150.2959  139.9120  156.8905 C   0  0  0  0  0  0  0  0  0  0  0  0
  149.6934  139.4732  155.6171 N   0  3  0  0  0  0  0  0  0  0  0  0
  150.5311  138.4655  154.9389 C   0  0  0  0  0  0  0  0  0  0  0  0
  151.9603  139.0042  154.7610 C   0  0  0  0  0  0  0  0  0  0  0  0
  152.4899  139.3759  156.0281 O   0  0  0  0  0  0  0  0  0  0  0  0
  152.0177  141.8926  158.6942 N   0  0  0  0  0  0  0  0  0  0  0  0
  151.2242  145.4914  159.0760 H   0  0  0  0  0  0  0  0  0  0  0  0
  151.9025  144.0045  158.4182 H   0  0  0  0  0  0  0  0  0  0  0  0
  152.9599  145.2020  159.1662 H   0  0  0  0  0  0  0  0  0  0  0  0
  151.8530  144.7900  161.3837 H   0  0  0  0  0  0  0  0  0  0  0  0
  150.7897  143.6166  160.6450 H   0  0  0  0  0  0  0  0  0  0  0  0
  153.8214  143.3758  160.9683 H   0  0  0  0  0  0  0  0  0  0  0  0
  152.6020  142.4152  161.7770 H   0  0  0  0  0  0  0  0  0  0  0  0
  151.7203  141.2805  155.9983 H   0  0  0  0  0  0  0  0  0  0  0  0
  150.2923  139.0787  157.5948 H   0  0  0  0  0  0  0  0  0  0  0  0
  149.6815  140.7019  157.3238 H   0  0  0  0  0  0  0  0  0  0  0  0
  148.7774  139.0867  155.7956 H   0  0  0  0  0  0  0  0  0  0  0  0
  150.5446  137.5508  155.5328 H   0  0  0  0  0  0  0  0  0  0  0  0
  150.0899  138.2173  153.9734 H   0  0  0  0  0  0  0  0  0  0  0  0
  152.5992  138.2378  154.3216 H   0  0  0  0  0  0  0  0  0  0  0  0
  151.9750  139.8586  154.0825 H   0  0  0  0  0  0  0  0  0  0  0  0
  149.6012  140.2772  155.0128 H   0  0  0  0  0  0  0  0  0  0  0  0
  1  2  1  0  0  0  0
  1 15  1  0  0  0  0
  1 16  1  0  0  0  0
  1 17  1  0  0  0  0
  2  3  1  0  0  0  0
  2 18  1  0  0  0  0
  2 19  1  0  0  0  0
  3  4  1  0  0  0  0
  3 20  1  0  0  0  0
  3 21  1  0  0  0  0
  4 14  1  0  0  0  0
  4  5  2  0  0  0  0
  5  6  1  0  0  0  0
  6  7  1  0  0  0  0
  7  8  1  0  0  0  0
  7 14  2  0  0  0  0
  8 13  1  0  0  0  0
  8  9  1  0  0  0  0
  8 22  1  0  0  0  0
  9 10  1  0  0  0  0
  9 23  1  0  0  0  0
  9 24  1  0  0  0  0
 10 11  1  0  0  0  0
 10 25  1  0  0  0  0
 10 30  1  0  0  0  0
 11 12  1  0  0  0  0
 11 26  1  0  0  0  0
 11 27  1  0  0  0  0
 12 13  1  0  0  0  0
 12 28  1  0  0  0  0
 12 29  1  0  0  0  0
M  CHG  1   6  -1
M  CHG  1  10   1
M  END
> <s_m_source_file>
AV-unprocessed.smi

> <i_m_source_file_index>
2562

> <i_lp_mmshare_version>
43012

> <i_f3d_flags>
0

> <s_epik_input>
W0NIM11bQ0gyXVtDSDJdYzFuW25IXWMobjEpW0NAQEhdMltDSDJdW05IXVtDSDJdW0NIMl1PMg==

> <s_epik_cmdline>
J2VwaWtfcHl0aG9uJywgJy1waCcsICc3LjAnLCAnLXRuJywgJzgnLCAnLW1hJywgJzIwMCcsICctbWV0YWxfYmluZGluZycsICctaW1hZScsICc8aW5maWxlLm1hZT4nLCAnLW9tYWUnLCAnPG91dGZpbGUubWFlPic=

> <r_epik_Ionization_Penalty>
3.5188

> <r_epik_Ionization_Penalty_Charging>
3.5188

> <r_epik_Ionization_Penalty_Neutral>
2.11677e-13

> <r_epik_State_Penalty>
2.51144

> <r_epik_Charging_Adjusted_Penalty>
6.03025

> <i_epik_Tot_Q>
0

> <i_epik_Tot_abs_Q>
2

> <r_epik_Metal_State_Penalty>
0.975833

> <b_epik_Metal_Only>
0

> <s_lp_Force_Field>
OPLS_2005

> <r_lp_Energy>
5.22198

> <b_lp_Chiralities_Consistent>
1

> <s_lp_Variant>
AV-unprocessed.smi:2562-11

> <Gold.Version>
5.8.1

> <Gold.Id.Protein>
6NUR|6NUR_protein|mol2

> <Gold.PLP.Fitness>
34.3755

> <Gold.PLP.PLP>
-28.8851

> <Gold.PLP.part.hbond>
-1.9326

> <Gold.PLP.part.metal>
0.0000

> <Gold.PLP.part.buried>
-3.6652

> <Gold.PLP.part.nonpolar>
-23.0384

> <Gold.PLP.part.repulsive>
0.0468

> <Gold.PLP.ligand.clash>
0.0000

> <Gold.PLP.ligand.torsion>
0.1438

> <Gold.PLP.Chemscore.Hbond>
1.9200

> <Gold.PLP.Chemscore.CHOScore>
0.0000

> <Gold.PLP.Chemscore.Metal>
0.0000

> <Gold.Chemscore.Hbonds>
donor molecule, donor type, donor heavy atom, donor atom, acceptor molecule, acceptor atom, score
      P1  H  7997  8008       L1     6  1.82

> <Gold.PLP.Chemscore.Internal.Correction>
0.0179

> <Gold.Rescore>
     Score         DG    S(hbond)    S(metal)    S(lipo)     H(rot)  DE(clash)    DE(int)     intcor
     10.75     -10.92       0.60        0.00      61.67       1.48       0.03       0.13       ----

> <Gold.Chemscore.Fitness>
10.7490

> <Gold.Chemscore.DG>
-10.9165

> <Gold.Chemscore.ZeroCoef>
-5.4800

> <Gold.Chemscore.Hbond>
0.6022

> <Gold.Chemscore.Metal>
0.0000

> <Gold.Chemscore.Lipo>
61.6664

> <Gold.Chemscore.Internal_Hbond>
0.0000

> <Gold.Chemscore.DEClash>
0.0340

> <Gold.Chemscore.DEInternal>
0.1335

> <Gold.Chemscore.Rot>
1.4804

> <Gold.Chemscore.Internal.Correction>
   9.000000E+99

> <Gold.Chemscore.Hbonds>
donor molecule, donor type, donor heavy atom, donor atom, acceptor molecule, acceptor atom, score
      P1  H  7997  8008       L1     6  0.43

> <Gold.Chemscore.Hbond.Weighted>
-2.0115

> <Gold.Chemscore.Metal.Weighted>
-0.0000

> <Gold.Chemscore.Lipo.Weighted>
-7.2150

> <Gold.Chemscore.Internal_Hbond.Weighted>
0.0000

> <Gold.Chemscore.DEClash.Weighted>
0.0340

> <Gold.Chemscore.DEInternal.Weighted>
0.1335

> <Gold.Chemscore.Rot.Weighted>
3.7899

> <Gold.Chemscore.Internal.Correction.Weighted>
   9.000000E+99

> <Gold.Protein.RotatedTorsions>
[ 6907 6896 6895 6894 ] final  -79.22 input  -60.11 | X-H torsion
[ 7974 7965 7964 7962 ] final  -30.83 input  175.53 | X-H torsion
[ 8008 7997 7996 7995 ] final  -94.37 input   59.86 | X-H torsion
[ 10167 10162 10161 10158 ] final  130.81 input  -65.29 | X-H torsion
[ 10718 10713 10712 10709 ] final   97.01 input   66.30 | X-H torsion
[ 10763 10752 10751 10750 ] final  -40.41 input  -60.55 | X-H torsion
[ 11005 11000 10999 10996 ] final  -81.29 input  -57.11 | X-H torsion

> <Gold.Protein.ActiveResidues>
 VAL166  LYS551  ARG553  GLY616  TRP617  ASP618  TYR619  PRO620  LYS621  CYS622 
 ASP623  PHE694  ASN695  SER759  ASP760  ASP761  ALA762  ILE779  LEU786  VAL792 
 PHE793  MET794  SER795  GLU796  ALA797  LYS798  CYS799  TRP800  GLU811  SER814 

> <Gold.Protein.RotatedAtoms>
  150.6954  134.4153  159.5180 H   0  0  0  0  0  0  0  0  0  0  0  0  # atno 6907 bound_to 6896
  152.1905  134.8673  160.0527 H   0  0  0  0  0  0  0  0  0  0  0  0  # atno 6908 bound_to 6896
  151.9630  133.3666  159.4079 H   0  0  0  0  0  0  0  0  0  0  0  0  # atno 6909 bound_to 6896
  146.1114  140.5590  142.8776 H   0  0  0  0  0  0  0  0  0  0  0  0  # atno 7974 bound_to 7965
  154.7476  140.0490  157.0865 H   0  0  0  0  0  0  0  0  0  0  0  0  # atno 8008 bound_to 7997
  155.0099  140.3134  155.4814 H   0  0  0  0  0  0  0  0  0  0  0  0  # atno 8009 bound_to 7997
  156.2878  140.2186  156.5212 H   0  0  0  0  0  0  0  0  0  0  0  0  # atno 8010 bound_to 7997
  139.5413  144.6733  151.4616 H   0  0  0  0  0  0  0  0  0  0  0  0  # atno 10167 bound_to 10162
  157.6919  131.0596  150.4579 H   0  0  0  0  0  0  0  0  0  0  0  0  # atno 10718 bound_to 10713
  153.9455  135.6756  153.4744 H   0  0  0  0  0  0  0  0  0  0  0  0  # atno 10763 bound_to 10752
  153.0910  135.4874  154.8687 H   0  0  0  0  0  0  0  0  0  0  0  0  # atno 10764 bound_to 10752
  154.7354  135.3148  154.8779 H   0  0  0  0  0  0  0  0  0  0  0  0  # atno 10765 bound_to 10752
  141.1667  133.7190  156.8401 H   0  0  0  0  0  0  0  0  0  0  0  0  # atno 11005 bound_to 11000
  144.7514  140.5201  143.6799 LP  0  0  0  0  0  0  0  0  0  0  0  0  # atno 17320 bound_to 7965
  145.5656  139.1481  143.3317 LP  0  0  0  0  0  0  0  0  0  0  0  0  # atno 17321 bound_to 7965
  140.6644  143.8430  150.6924 LP  0  0  0  0  0  0  0  0  0  0  0  0  # atno 17342 bound_to 10162
  140.1835  143.4095  152.1916 LP  0  0  0  0  0  0  0  0  0  0  0  0  # atno 17343 bound_to 10162
  156.4926  130.4098  149.6398 LP  0  0  0  0  0  0  0  0  0  0  0  0  # atno 17370 bound_to 10713
  156.3403  130.7378  151.2322 LP  0  0  0  0  0  0  0  0  0  0  0  0  # atno 17371 bound_to 10713
  140.1989  134.8911  157.3147 LP  0  0  0  0  0  0  0  0  0  0  0  0  # atno 17394 bound_to 11000
  140.2209  134.4025  155.7566 LP  0  0  0  0  0  0  0  0  0  0  0  0  # atno 17395 bound_to 11000

$$$$
