AV-unprocessed.smi:2931|AV-procd|sdf|11246|dock1
  -GOLD-   2272016143D 1   1.00000     0.00000
 Structure written by MMmdl.
 43 44  0  0  0  0  0  0  0  0  3 V2000
  146.7203  129.7737  152.8380 C   0  0  0  0  0  0  0  0  0  0  0  0
  146.4555  130.8846  151.8987 N   0  3  1  0  0  0  0  0  0  0  0  0
  145.0815  130.8349  151.3389 C   0  0  0  0  0  0  0  0  0  0  0  0
  144.8806  131.9250  150.2732 C   0  0  0  0  0  0  0  0  0  0  0  0
  145.1988  133.3165  150.8380 C   0  0  0  0  0  0  0  0  0  0  0  0
  146.6148  133.3318  151.4418 C   0  0  1  0  0  0  0  0  0  0  0  0
  146.8989  134.6261  152.0545 N   0  0  0  0  0  0  0  0  0  0  0  0
  146.1935  135.1744  153.0538 C   0  0  0  0  0  0  0  0  0  0  0  0
  145.2086  134.6491  153.5719 O   0  0  0  0  0  0  0  0  0  0  0  0
  146.6965  136.3589  153.4278 N   0  0  0  0  0  0  0  0  0  0  0  0
  146.1431  137.2138  154.4752 C   0  0  0  0  0  0  0  0  0  0  0  0
  145.5621  138.5406  153.9441 C   0  0  0  0  0  0  0  0  0  0  0  0
  146.3898  139.7620  154.3067 C   0  0  0  0  0  0  0  0  0  0  0  0
  146.4636  140.2081  155.6455 C   0  0  0  0  0  0  0  0  0  0  0  0
  147.2394  141.3451  155.9503 C   0  0  0  0  0  0  0  0  0  0  0  0
  147.9009  141.9918  154.9656 N   0  3  0  0  0  0  0  0  0  0  0  0
  147.8579  141.5981  153.6738 C   0  0  0  0  0  0  0  0  0  0  0  0
  147.0974  140.4681  153.3091 C   0  0  0  0  0  0  0  0  0  0  0  0
  146.7677  132.2110  152.4879 C   0  0  0  0  0  0  0  0  0  0  0  0
  146.0748  129.8400  153.7149 H   0  0  0  0  0  0  0  0  0  0  0  0
  147.7577  129.7916  153.1737 H   0  0  0  0  0  0  0  0  0  0  0  0
  146.5443  128.8116  152.3558 H   0  0  0  0  0  0  0  0  0  0  0  0
  144.9027  129.8549  150.8945 H   0  0  0  0  0  0  0  0  0  0  0  0
  144.3542  130.9565  152.1433 H   0  0  0  0  0  0  0  0  0  0  0  0
  145.5254  131.7224  149.4168 H   0  0  0  0  0  0  0  0  0  0  0  0
  143.8558  131.8991  149.9015 H   0  0  0  0  0  0  0  0  0  0  0  0
  145.1113  134.0652  150.0497 H   0  0  0  0  0  0  0  0  0  0  0  0
  144.4643  133.5786  151.6009 H   0  0  0  0  0  0  0  0  0  0  0  0
  147.3394  133.1482  150.6453 H   0  0  0  0  0  0  0  0  0  0  0  0
  147.6927  135.1372  151.6967 H   0  0  0  0  0  0  0  0  0  0  0  0
  147.5091  136.7070  152.9403 H   0  0  0  0  0  0  0  0  0  0  0  0
  145.3542  136.6467  154.9699 H   0  0  0  0  0  0  0  0  0  0  0  0
  146.9011  137.4101  155.2348 H   0  0  0  0  0  0  0  0  0  0  0  0
  145.4720  138.4891  152.8584 H   0  0  0  0  0  0  0  0  0  0  0  0
  144.5468  138.6755  154.3186 H   0  0  0  0  0  0  0  0  0  0  0  0
  145.9346  139.6860  156.4298 H   0  0  0  0  0  0  0  0  0  0  0  0
  147.3491  141.7539  156.9442 H   0  0  0  0  0  0  0  0  0  0  0  0
  148.4279  142.1945  152.9762 H   0  0  0  0  0  0  0  0  0  0  0  0
  147.0584  140.1484  152.2777 H   0  0  0  0  0  0  0  0  0  0  0  0
  146.1116  132.3929  153.3412 H   0  0  0  0  0  0  0  0  0  0  0  0
  147.7899  132.2040  152.8694 H   0  0  0  0  0  0  0  0  0  0  0  0
  147.0883  130.7585  151.1213 H   0  0  0  0  0  0  0  0  0  0  0  0
  148.4558  142.8133  155.2076 H   0  0  0  0  0  0  0  0  0  0  0  0
  1  2  1  0  0  0  0
  1 20  1  0  0  0  0
  1 21  1  0  0  0  0
  1 22  1  0  0  0  0
  2 19  1  0  0  0  0
  2  3  1  0  0  0  0
  2 42  1  0  0  0  0
  3  4  1  0  0  0  0
  3 23  1  0  0  0  0
  3 24  1  0  0  0  0
  4  5  1  0  0  0  0
  4 25  1  0  0  0  0
  4 26  1  0  0  0  0
  5  6  1  0  0  0  0
  5 27  1  0  0  0  0
  5 28  1  0  0  0  0
  6  7  1  0  0  0  0
  6 19  1  0  0  0  0
  6 29  1  0  0  0  0
  7  8  1  0  0  0  0
  7 30  1  0  0  0  0
  8  9  2  0  0  0  0
  8 10  1  0  0  0  0
 10 11  1  0  0  0  0
 10 31  1  0  0  0  0
 11 12  1  0  0  0  0
 11 32  1  0  0  0  0
 11 33  1  0  0  0  0
 12 13  1  0  0  0  0
 12 34  1  0  0  0  0
 12 35  1  0  0  0  0
 13 18  1  0  0  0  0
 13 14  2  0  0  0  0
 14 15  1  0  0  0  0
 14 36  1  0  0  0  0
 15 16  2  0  0  0  0
 15 37  1  0  0  0  0
 16 17  1  0  0  0  0
 16 43  1  0  0  0  0
 17 18  2  0  0  0  0
 17 38  1  0  0  0  0
 18 39  1  0  0  0  0
 19 40  1  0  0  0  0
 19 41  1  0  0  0  0
M  CHG  1   2   1
M  CHG  1  16   1
M  END
> <s_m_source_file>
AV-unprocessed.smi

> <i_m_source_file_index>
2931

> <i_lp_mmshare_version>
43012

> <i_f3d_flags>
0

> <s_epik_input>
W0NIM11OMVtDSDJdW0NIMl1bQ0gyXVtDQEhdKFtDSDJdMSlbTkhdQyg9TylbTkhdW0NIMl1bQ0gyXWMyW2NIXVtjSF1uW2NIXVtjSF0y

> <s_epik_cmdline>
J2VwaWtfcHl0aG9uJywgJy1waCcsICc3LjAnLCAnLXRuJywgJzgnLCAnLW1hJywgJzIwMCcsICctbWV0YWxfYmluZGluZycsICctaW1hZScsICc8aW5maWxlLm1hZT4nLCAnLW9tYWUnLCAnPG91dGZpbGUubWFlPic=

> <r_epik_Ionization_Penalty>
1.43754

> <r_epik_Ionization_Penalty_Charging>
1.4375

> <r_epik_Ionization_Penalty_Neutral>
3.7629e-05

> <r_epik_State_Penalty>
1.52008

> <r_epik_Charging_Adjusted_Penalty>
2.95758

> <i_epik_Tot_Q>
2

> <i_epik_Tot_abs_Q>
2

> <r_epik_Metal_State_Penalty>
1.57105

> <b_epik_Metal_Only>
0

> <s_lp_Force_Field>
OPLS_2005

> <r_lp_Energy>
22.3029

> <b_lp_Chiralities_Consistent>
1

> <s_lp_Variant>
AV-unprocessed.smi:2931-5

> <Gold.Version>
5.8.1

> <Gold.Id.Protein>
6NUR|6NUR_protein|mol2

> <Gold.PLP.Fitness>
41.4711

> <Gold.PLP.PLP>
-27.6751

> <Gold.PLP.part.hbond>
-4.0000

> <Gold.PLP.part.metal>
0.0000

> <Gold.PLP.part.buried>
-4.2624

> <Gold.PLP.part.nonpolar>
-20.0001

> <Gold.PLP.part.repulsive>
0.2315

> <Gold.PLP.ligand.clash>
0.0000

> <Gold.PLP.ligand.torsion>
0.4542

> <Gold.PLP.Chemscore.Hbond>
4.8960

> <Gold.PLP.Chemscore.CHOScore>
0.0000

> <Gold.PLP.Chemscore.Metal>
0.0000

> <Gold.Chemscore.Hbonds>
donor molecule, donor type, donor heavy atom, donor atom, acceptor molecule, acceptor atom, score
      L1  H     2    42       P1 10747  0.91
      L1  H     7    30       P1  7948  1.00
      L1  H    10    31       P1  7948  0.90
      L1  H    16    43       P1  8028  2.00

> <Gold.PLP.Chemscore.Internal.Correction>
0.0164

> <Gold.Rescore>
     Score         DG    S(hbond)    S(metal)    S(lipo)     H(rot)  DE(clash)    DE(int)     intcor
     19.72     -21.03       3.50        0.00      68.89       1.65       0.01       1.30       ----

> <Gold.Chemscore.Fitness>
19.7190

> <Gold.Chemscore.DG>
-21.0318

> <Gold.Chemscore.ZeroCoef>
-5.4800

> <Gold.Chemscore.Hbond>
3.5048

> <Gold.Chemscore.Metal>
0.0000

> <Gold.Chemscore.Lipo>
68.8936

> <Gold.Chemscore.Internal_Hbond>
0.0000

> <Gold.Chemscore.DEClash>
0.0104

> <Gold.Chemscore.DEInternal>
1.3025

> <Gold.Chemscore.Rot>
1.6464

> <Gold.Chemscore.Internal.Correction>
   9.000000E+99

> <Gold.Chemscore.Hbonds>
donor molecule, donor type, donor heavy atom, donor atom, acceptor molecule, acceptor atom, score
      L1  H     2    42       P1 10747  0.84
      L1  H     7    30       P1  7948  0.68
      L1  H    10    31       P1  7948  0.88
      L1  H    16    43       P1  8028  0.96

> <Gold.Chemscore.Hbond.Weighted>
-11.7060

> <Gold.Chemscore.Metal.Weighted>
-0.0000

> <Gold.Chemscore.Lipo.Weighted>
-8.0605

> <Gold.Chemscore.Internal_Hbond.Weighted>
0.0000

> <Gold.Chemscore.DEClash.Weighted>
0.0104

> <Gold.Chemscore.DEInternal.Weighted>
1.3025

> <Gold.Chemscore.Rot.Weighted>
4.2148

> <Gold.Chemscore.Internal.Correction.Weighted>
   9.000000E+99

> <Gold.Protein.RotatedTorsions>
[ 6907 6896 6895 6894 ] final   85.85 input  -60.11 | X-H torsion
[ 7974 7965 7964 7962 ] final -135.73 input  175.53 | X-H torsion
[ 8008 7997 7996 7995 ] final  131.29 input   59.86 | X-H torsion
[ 10167 10162 10161 10158 ] final   40.31 input  -65.29 | X-H torsion
[ 10718 10713 10712 10709 ] final  -88.16 input   66.30 | X-H torsion
[ 10763 10752 10751 10750 ] final -151.38 input  -60.55 | X-H torsion
[ 11005 11000 10999 10996 ] final   65.70 input  -57.11 | X-H torsion

> <Gold.Protein.ActiveResidues>
 VAL166  LYS551  ARG553  GLY616  TRP617  ASP618  TYR619  PRO620  LYS621  CYS622 
 ASP623  PHE694  ASN695  SER759  ASP760  ASP761  ALA762  ILE779  LEU786  VAL792 
 PHE793  MET794  SER795  GLU796  ALA797  LYS798  CYS799  TRP800  GLU811  SER814 

> <Gold.Protein.RotatedAtoms>
  152.5383  134.2522  159.8902 H   0  0  0  0  0  0  0  0  0  0  0  0  # atno 6907 bound_to 6896
  151.2484  133.4356  159.2618 H   0  0  0  0  0  0  0  0  0  0  0  0  # atno 6908 bound_to 6896
  151.0561  134.9720  159.8293 H   0  0  0  0  0  0  0  0  0  0  0  0  # atno 6909 bound_to 6896
  144.8988  140.6743  143.5098 H   0  0  0  0  0  0  0  0  0  0  0  0  # atno 7974 bound_to 7965
  156.2968  140.2575  156.2901 H   0  0  0  0  0  0  0  0  0  0  0  0  # atno 8008 bound_to 7997
  154.9518  140.0394  157.2166 H   0  0  0  0  0  0  0  0  0  0  0  0  # atno 8009 bound_to 7997
  154.8029  140.2831  155.5913 H   0  0  0  0  0  0  0  0  0  0  0  0  # atno 8010 bound_to 7997
  140.3754  144.2050  150.6132 H   0  0  0  0  0  0  0  0  0  0  0  0  # atno 10167 bound_to 10162
  155.9984  130.4826  150.4977 H   0  0  0  0  0  0  0  0  0  0  0  0  # atno 10718 bound_to 10713
  154.8061  135.3261  154.7426 H   0  0  0  0  0  0  0  0  0  0  0  0  # atno 10763 bound_to 10752
  153.8084  135.6897  153.4849 H   0  0  0  0  0  0  0  0  0  0  0  0  # atno 10764 bound_to 10752
  153.1808  135.4587  154.9970 H   0  0  0  0  0  0  0  0  0  0  0  0  # atno 10765 bound_to 10752
  139.9878  134.6640  156.0145 H   0  0  0  0  0  0  0  0  0  0  0  0  # atno 11005 bound_to 11000
  145.3652  139.1672  143.4362 LP  0  0  0  0  0  0  0  0  0  0  0  0  # atno 17320 bound_to 7965
  146.3097  140.3718  142.8675 LP  0  0  0  0  0  0  0  0  0  0  0  0  # atno 17321 bound_to 7965
  140.4991  143.2323  151.8705 LP  0  0  0  0  0  0  0  0  0  0  0  0  # atno 17342 bound_to 10162
  139.4800  144.5079  151.8972 LP  0  0  0  0  0  0  0  0  0  0  0  0  # atno 17343 bound_to 10162
  157.2965  131.0637  151.2098 LP  0  0  0  0  0  0  0  0  0  0  0  0  # atno 17370 bound_to 10713
  157.3092  130.6881  149.6206 LP  0  0  0  0  0  0  0  0  0  0  0  0  # atno 17371 bound_to 10713
  141.1539  133.6545  156.4101 LP  0  0  0  0  0  0  0  0  0  0  0  0  # atno 17394 bound_to 11000
  140.4968  134.6523  157.5233 LP  0  0  0  0  0  0  0  0  0  0  0  0  # atno 17395 bound_to 11000

$$$$
