AV-unprocessed.smi:2169|AV-procd|sdf|8823|dock4
  -GOLD-   2272012 13D 1   1.00000     0.00000
 Structure written by MMmdl.
 45 46  0  0  0  0  0  0  0  0  2 V2000
  151.7809  141.1061  159.3117 C   0  0  0  0  0  0  0  0  0  0  0  0
  152.0033  139.6478  158.2129 S   0  0  0  0  0  0  0  0  0  0  0  0
  153.4235  139.2659  158.2392 O   0  0  0  0  0  0  0  0  0  0  0  0
  150.9748  138.6540  158.5566 O   0  0  0  0  0  0  0  0  0  0  0  0
  151.6449  140.2559  156.6221 N   0  0  0  0  0  0  0  0  0  0  0  0
  152.2848  139.6475  155.4383 C   0  0  0  0  0  0  0  0  0  0  0  0
  151.3309  138.6874  154.7053 C   0  0  0  0  0  0  0  0  0  0  0  0
  150.0018  139.3771  154.3528 C   0  0  0  0  0  0  0  0  0  0  0  0
  149.0745  138.4378  153.7287 N   0  0  0  0  0  0  0  0  0  0  0  0
  147.7783  138.6780  153.4874 C   0  0  0  0  0  0  0  0  0  0  0  0
  147.2100  139.7376  153.7530 O   0  0  0  0  0  0  0  0  0  0  0  0
  147.1719  137.6231  152.9252 N   0  0  0  0  0  0  0  0  0  0  0  0
  145.7636  137.5745  152.5510 C   0  0  0  0  0  0  0  0  0  0  0  0
  145.5790  137.1094  151.0969 C   0  0  0  0  0  0  0  0  0  0  0  0
  145.1633  135.6540  151.0101 C   0  0  0  0  0  0  0  0  0  0  0  0
  146.0683  134.6233  151.3479 C   0  0  0  0  0  0  0  0  0  0  0  0
  145.6509  133.2790  151.2551 C   0  0  0  0  0  0  0  0  0  0  0  0
  144.3381  132.9958  150.8256 C   0  0  0  0  0  0  0  0  0  0  0  0
  143.5007  134.0084  150.5102 N   0  3  0  0  0  0  0  0  0  0  0  0
  143.8620  135.3082  150.5863 C   0  0  0  0  0  0  0  0  0  0  0  0
  149.3749  139.9532  155.6307 C   0  0  0  0  0  0  0  0  0  0  0  0
  150.3449  140.9034  156.3544 C   0  0  0  0  0  0  0  0  0  0  0  0
  151.9905  140.8119  160.3397 H   0  0  0  0  0  0  0  0  0  0  0  0
  150.7547  141.4638  159.2498 H   0  0  0  0  0  0  0  0  0  0  0  0
  152.4710  141.8972  159.0238 H   0  0  0  0  0  0  0  0  0  0  0  0
  152.5855  140.4478  154.7613 H   0  0  0  0  0  0  0  0  0  0  0  0
  153.1989  139.1285  155.7249 H   0  0  0  0  0  0  0  0  0  0  0  0
  151.8158  138.3222  153.7993 H   0  0  0  0  0  0  0  0  0  0  0  0
  151.1410  137.8093  155.3216 H   0  0  0  0  0  0  0  0  0  0  0  0
  150.1968  140.2006  153.6627 H   0  0  0  0  0  0  0  0  0  0  0  0
  149.4471  137.5353  153.4718 H   0  0  0  0  0  0  0  0  0  0  0  0
  147.7225  136.7964  152.7433 H   0  0  0  0  0  0  0  0  0  0  0  0
  145.2213  136.9201  153.2359 H   0  0  0  0  0  0  0  0  0  0  0  0
  145.3449  138.5732  152.6783 H   0  0  0  0  0  0  0  0  0  0  0  0
  144.8310  137.7274  150.5983 H   0  0  0  0  0  0  0  0  0  0  0  0
  146.5060  137.2386  150.5365 H   0  0  0  0  0  0  0  0  0  0  0  0
  147.0713  134.8578  151.6740 H   0  0  0  0  0  0  0  0  0  0  0  0
  146.3287  132.4771  151.5100 H   0  0  0  0  0  0  0  0  0  0  0  0
  143.9358  131.9981  150.7254 H   0  0  0  0  0  0  0  0  0  0  0  0
  143.1050  136.0267  150.3065 H   0  0  0  0  0  0  0  0  0  0  0  0
  148.4581  140.4907  155.3849 H   0  0  0  0  0  0  0  0  0  0  0  0
  149.0820  139.1437  156.2984 H   0  0  0  0  0  0  0  0  0  0  0  0
  149.9011  141.2643  157.2818 H   0  0  0  0  0  0  0  0  0  0  0  0
  150.5211  141.7840  155.7356 H   0  0  0  0  0  0  0  0  0  0  0  0
  142.5549  133.7818  150.2014 H   0  0  0  0  0  0  0  0  0  0  0  0
  1  2  1  0  0  0  0
  1 23  1  0  0  0  0
  1 24  1  0  0  0  0
  1 25  1  0  0  0  0
  2  3  2  0  0  0  0
  2  4  2  0  0  0  0
  2  5  1  0  0  0  0
  5 22  1  0  0  0  0
  5  6  1  0  0  0  0
  6  7  1  0  0  0  0
  6 26  1  0  0  0  0
  6 27  1  0  0  0  0
  7  8  1  0  0  0  0
  7 28  1  0  0  0  0
  7 29  1  0  0  0  0
  8  9  1  0  0  0  0
  8 21  1  0  0  0  0
  8 30  1  0  0  0  0
  9 10  1  0  0  0  0
  9 31  1  0  0  0  0
 10 11  2  0  0  0  0
 10 12  1  0  0  0  0
 12 13  1  0  0  0  0
 12 32  1  0  0  0  0
 13 14  1  0  0  0  0
 13 33  1  0  0  0  0
 13 34  1  0  0  0  0
 14 15  1  0  0  0  0
 14 35  1  0  0  0  0
 14 36  1  0  0  0  0
 15 20  1  0  0  0  0
 15 16  2  0  0  0  0
 16 17  1  0  0  0  0
 16 37  1  0  0  0  0
 17 18  2  0  0  0  0
 17 38  1  0  0  0  0
 18 19  1  0  0  0  0
 18 39  1  0  0  0  0
 19 20  2  0  0  0  0
 19 45  1  0  0  0  0
 20 40  1  0  0  0  0
 21 22  1  0  0  0  0
 21 41  1  0  0  0  0
 21 42  1  0  0  0  0
 22 43  1  0  0  0  0
 22 44  1  0  0  0  0
M  CHG  1  19   1
M  END
> <s_m_source_file>
AV-unprocessed.smi

> <i_m_source_file_index>
2169

> <i_lp_mmshare_version>
43012

> <i_f3d_flags>
0

> <s_epik_input>
W0NIM11TKD1PKSg9TylOMVtDSDJdW0NIMl1bQ0hdKFtDSDJdW0NIMl0xKVtOSF1DKD1PKVtOSF1bQ0gyXVtDSDJdYzJbY0hdW2NIXVtjSF1uW2NIXTI=

> <s_epik_cmdline>
J2VwaWtfcHl0aG9uJywgJy1waCcsICc3LjAnLCAnLXRuJywgJzgnLCAnLW1hJywgJzIwMCcsICctbWV0YWxfYmluZGluZycsICctaW1hZScsICc8aW5maWxlLm1hZT4nLCAnLW9tYWUnLCAnPG91dGZpbGUubWFlPic=

> <r_epik_Ionization_Penalty>
2.21124

> <r_epik_Ionization_Penalty_Charging>
2.21119

> <r_epik_Ionization_Penalty_Neutral>
4.90089e-05

> <r_epik_State_Penalty>
2.35542

> <r_epik_Charging_Adjusted_Penalty>
4.56661

> <i_epik_Tot_Q>
1

> <i_epik_Tot_abs_Q>
1

> <r_epik_Metal_State_Penalty>
2.36951

> <b_epik_Metal_Only>
0

> <s_lp_Force_Field>
OPLS_2005

> <r_lp_Energy>
3.64161

> <b_lp_Chiralities_Consistent>
1

> <s_lp_Variant>
AV-unprocessed.smi:2169-2

> <Gold.Version>
5.8.1

> <Gold.Id.Protein>
6NUR|6NUR_protein|mol2

> <Gold.PLP.Fitness>
48.2626

> <Gold.PLP.PLP>
-36.8471

> <Gold.PLP.part.hbond>
-4.3600

> <Gold.PLP.part.metal>
0.0000

> <Gold.PLP.part.buried>
3.5498

> <Gold.PLP.part.nonpolar>
-36.1600

> <Gold.PLP.part.repulsive>
0.3125

> <Gold.PLP.ligand.clash>
0.0000

> <Gold.PLP.ligand.torsion>
1.6581

> <Gold.PLP.Chemscore.Hbond>
4.2203

> <Gold.PLP.Chemscore.CHOScore>
0.0000

> <Gold.PLP.Chemscore.Metal>
0.0000

> <Gold.Chemscore.Hbonds>
donor molecule, donor type, donor heavy atom, donor atom, acceptor molecule, acceptor atom, score
      L1  H     9    31       P1  7948  0.52
      L1  H    12    32       P1  7948  0.85
      L1  H    19    45       P1 10186  1.82
      P1  H  7997  8008       L1     3  1.00

> <Gold.PLP.Chemscore.Internal.Correction>
2.0708

> <Gold.Rescore>
     Score         DG    S(hbond)    S(metal)    S(lipo)     H(rot)  DE(clash)    DE(int)     intcor
     17.88     -22.98       3.47        0.00      88.28       1.73       1.96       3.13       ----

> <Gold.Chemscore.Fitness>
17.8819

> <Gold.Chemscore.DG>
-22.9781

> <Gold.Chemscore.ZeroCoef>
-5.4800

> <Gold.Chemscore.Hbond>
3.4723

> <Gold.Chemscore.Metal>
0.0000

> <Gold.Chemscore.Lipo>
88.2797

> <Gold.Chemscore.Internal_Hbond>
0.0000

> <Gold.Chemscore.DEClash>
1.9641

> <Gold.Chemscore.DEInternal>
3.1321

> <Gold.Chemscore.Rot>
1.7297

> <Gold.Chemscore.Internal.Correction>
   9.000000E+99

> <Gold.Chemscore.Hbonds>
donor molecule, donor type, donor heavy atom, donor atom, acceptor molecule, acceptor atom, score
      L1  H     9    31       P1  7948  0.47
      L1  H    12    32       P1  7948  0.84
      L1  H    19    45       P1 10186  0.89
      P1  H  7997  8008       L1     3  0.98

> <Gold.Chemscore.Hbond.Weighted>
-11.5973

> <Gold.Chemscore.Metal.Weighted>
-0.0000

> <Gold.Chemscore.Lipo.Weighted>
-10.3287

> <Gold.Chemscore.Internal_Hbond.Weighted>
0.0000

> <Gold.Chemscore.DEClash.Weighted>
1.9641

> <Gold.Chemscore.DEInternal.Weighted>
3.1321

> <Gold.Chemscore.Rot.Weighted>
4.4280

> <Gold.Chemscore.Internal.Correction.Weighted>
   9.000000E+99

> <Gold.Protein.RotatedTorsions>
[ 6907 6896 6895 6894 ] final  -36.11 input  -60.11 | X-H torsion
[ 7974 7965 7964 7962 ] final  138.84 input  175.53 | X-H torsion
[ 8008 7997 7996 7995 ] final  -87.89 input   59.86 | X-H torsion
[ 10167 10162 10161 10158 ] final -153.48 input  -65.29 | X-H torsion
[ 10718 10713 10712 10709 ] final   75.44 input   66.30 | X-H torsion
[ 10763 10752 10751 10750 ] final  172.35 input  -60.55 | X-H torsion
[ 11005 11000 10999 10996 ] final  -96.93 input  -57.11 | X-H torsion

> <Gold.Protein.ActiveResidues>
 VAL166  LYS551  ARG553  GLY616  TRP617  ASP618  TYR619  PRO620  LYS621  CYS622 
 ASP623  PHE694  ASN695  SER759  ASP760  ASP761  ALA762  ILE779  LEU786  VAL792 
 PHE793  MET794  SER795  GLU796  ALA797  LYS798  CYS799  TRP800  GLU811  SER814 

> <Gold.Protein.RotatedAtoms>
  151.0313  134.9541  159.8112 H   0  0  0  0  0  0  0  0  0  0  0  0  # atno 6907 bound_to 6896
  152.5346  134.2776  159.9005 H   0  0  0  0  0  0  0  0  0  0  0  0  # atno 6908 bound_to 6896
  151.2786  133.4178  159.2659 H   0  0  0  0  0  0  0  0  0  0  0  0  # atno 6909 bound_to 6896
  144.9334  139.5018  143.5606 H   0  0  0  0  0  0  0  0  0  0  0  0  # atno 7974 bound_to 7965
  154.6684  140.0560  157.0139 H   0  0  0  0  0  0  0  0  0  0  0  0  # atno 8008 bound_to 7997
  155.1125  140.3239  155.4499 H   0  0  0  0  0  0  0  0  0  0  0  0  # atno 8009 bound_to 7997
  156.2647  140.2012  156.6248 H   0  0  0  0  0  0  0  0  0  0  0  0  # atno 8010 bound_to 7997
  139.7093  143.9134  152.2461 H   0  0  0  0  0  0  0  0  0  0  0  0  # atno 10167 bound_to 10162
  157.6634  130.9726  150.1353 H   0  0  0  0  0  0  0  0  0  0  0  0  # atno 10718 bound_to 10713
  154.4248  135.2758  155.1951 H   0  0  0  0  0  0  0  0  0  0  0  0  # atno 10763 bound_to 10752
  154.3882  135.6072  153.5832 H   0  0  0  0  0  0  0  0  0  0  0  0  # atno 10764 bound_to 10752
  152.9834  135.5897  154.4550 H   0  0  0  0  0  0  0  0  0  0  0  0  # atno 10765 bound_to 10752
  141.1395  133.8133  157.0637 H   0  0  0  0  0  0  0  0  0  0  0  0  # atno 11005 bound_to 11000
  146.3256  139.8302  142.8910 LP  0  0  0  0  0  0  0  0  0  0  0  0  # atno 17320 bound_to 7965
  145.3105  141.0218  143.3557 LP  0  0  0  0  0  0  0  0  0  0  0  0  # atno 17321 bound_to 7965
  139.8999  144.6918  150.8677 LP  0  0  0  0  0  0  0  0  0  0  0  0  # atno 17342 bound_to 10162
  140.7729  143.3522  151.1992 LP  0  0  0  0  0  0  0  0  0  0  0  0  # atno 17343 bound_to 10162
  156.2190  130.3672  149.8579 LP  0  0  0  0  0  0  0  0  0  0  0  0  # atno 17370 bound_to 10713
  156.6437  130.8715  151.3519 LP  0  0  0  0  0  0  0  0  0  0  0  0  # atno 17371 bound_to 10713
  140.0555  134.9783  157.1212 LP  0  0  0  0  0  0  0  0  0  0  0  0  # atno 17394 bound_to 11000
  140.3926  134.2168  155.7165 LP  0  0  0  0  0  0  0  0  0  0  0  0  # atno 17395 bound_to 11000

$$$$
