AV-unprocessed.smi:246|AV-procd|sdf|1883|dock10
  -GOLD-   2262020533D 1   1.00000     0.00000
 Structure written by MMmdl.
 57 60  0  0  0  0  0  0  0  0  1 V2000
  146.2117  131.8696  149.6930 C   0  0  0  0  0  0  0  0  0  0  0  0
  146.7668  132.9640  150.6154 C   0  0  0  0  0  0  0  0  0  0  0  0
  146.4664  132.7102  151.9807 O   0  0  0  0  0  0  0  0  0  0  0  0
  147.2030  131.6397  152.5539 C   0  0  0  0  0  0  0  0  0  0  0  0
  147.8255  132.1185  153.8682 C   0  0  0  0  0  0  0  0  0  0  0  0
  148.8537  133.0536  153.5785 O   0  0  0  0  0  0  0  0  0  0  0  0
  149.5205  133.5396  154.7339 C   0  0  2  0  0  0  0  0  0  0  0  0
  148.5176  134.0772  155.7563 C   0  0  0  0  0  0  0  0  0  0  0  0
  149.3366  135.0764  156.5782 C   0  0  0  0  0  0  0  0  0  0  0  0
  150.3937  135.5250  155.6824 N   0  0  0  0  0  0  0  0  0  0  0  0
  151.1064  136.6628  155.8812 C   0  0  0  0  0  0  0  0  0  0  0  0
  151.8229  137.1598  154.8385 N   0  0  0  0  0  0  0  0  0  0  0  0
  152.5336  138.2822  154.9761 C   0  0  0  0  0  0  0  0  0  0  0  0
  152.6664  139.0574  156.0523 N   0  0  0  0  0  0  0  0  0  0  0  0
  151.9555  138.5657  157.1067 C   0  0  0  0  0  0  0  0  0  0  0  0
  151.1545  137.3869  157.1101 C   0  0  0  0  0  0  0  0  0  0  0  0
  150.5875  137.2160  158.3691 N   0  0  0  0  0  0  0  0  0  0  0  0
  151.0280  138.2274  159.0651 C   0  0  0  0  0  0  0  0  0  0  0  0
  151.8591  139.0867  158.3853 N   0  0  0  0  0  0  0  0  0  0  0  0
  152.4884  140.2864  158.9152 C   0  0  0  0  0  0  0  0  0  0  0  0
  152.0020  141.5909  158.2457 C   0  0  1  0  0  0  0  0  0  0  0  0
  150.5910  141.5612  158.1462 O   0  0  0  0  0  0  0  0  0  0  0  0
  152.4200  142.8719  158.9963 C   0  0  2  0  0  0  0  0  0  0  0  0
  151.9970  142.9187  160.4657 C   0  0  0  0  0  0  0  0  0  0  0  0
  151.9060  144.4078  160.7668 C   0  0  0  0  0  0  0  0  0  0  0  0
  151.9207  145.0692  159.3864 C   0  0  0  0  0  0  0  0  0  0  0  0
  151.7418  144.0010  158.4686 O   0  0  0  0  0  0  0  0  0  0  0  0
  150.4043  134.7591  154.4477 C   0  0  0  0  0  0  0  0  0  0  0  0
  150.1100  132.7508  155.2051 H   0  0  0  0  0  0  0  0  0  0  0  0
  146.3599  132.1373  148.6466 H   0  0  0  0  0  0  0  0  0  0  0  0
  145.1422  131.7303  149.8515 H   0  0  0  0  0  0  0  0  0  0  0  0
  146.7037  130.9114  149.8566 H   0  0  0  0  0  0  0  0  0  0  0  0
  147.8401  133.0945  150.4693 H   0  0  0  0  0  0  0  0  0  0  0  0
  146.3019  133.9141  150.3511 H   0  0  0  0  0  0  0  0  0  0  0  0
  146.5760  130.7656  152.7306 H   0  0  0  0  0  0  0  0  0  0  0  0
  147.9966  131.3421  151.8673 H   0  0  0  0  0  0  0  0  0  0  0  0
  147.0628  132.6056  154.4774 H   0  0  0  0  0  0  0  0  0  0  0  0
  148.2042  131.2681  154.4366 H   0  0  0  0  0  0  0  0  0  0  0  0
  147.7149  134.6062  155.2403 H   0  0  0  0  0  0  0  0  0  0  0  0
  148.0659  133.2937  156.3651 H   0  0  0  0  0  0  0  0  0  0  0  0
  148.7155  135.9006  156.9312 H   0  0  0  0  0  0  0  0  0  0  0  0
  149.7889  134.5893  157.4429 H   0  0  0  0  0  0  0  0  0  0  0  0
  153.0720  138.6062  154.0977 H   0  0  0  0  0  0  0  0  0  0  0  0
  150.7610  138.3738  160.1017 H   0  0  0  0  0  0  0  0  0  0  0  0
  152.3005  140.3272  159.9886 H   0  0  0  0  0  0  0  0  0  0  0  0
  153.5685  140.1863  158.8012 H   0  0  0  0  0  0  0  0  0  0  0  0
  152.4011  141.6243  157.2312 H   0  0  0  0  0  0  0  0  0  0  0  0
  150.3430  140.8057  157.6355 H   0  0  0  0  0  0  0  0  0  0  0  0
  153.4966  143.0362  158.9208 H   0  0  0  0  0  0  0  0  0  0  0  0
  151.0144  142.4618  160.5914 H   0  0  0  0  0  0  0  0  0  0  0  0
  152.6963  142.3972  161.1200 H   0  0  0  0  0  0  0  0  0  0  0  0
  150.9902  144.6372  161.3129 H   0  0  0  0  0  0  0  0  0  0  0  0
  152.7502  144.7504  161.3666 H   0  0  0  0  0  0  0  0  0  0  0  0
  151.1405  145.8219  159.2721 H   0  0  0  0  0  0  0  0  0  0  0  0
  152.8842  145.5452  159.1977 H   0  0  0  0  0  0  0  0  0  0  0  0
  151.4133  134.4603  154.1628 H   0  0  0  0  0  0  0  0  0  0  0  0
  149.9791  135.3672  153.6483 H   0  0  0  0  0  0  0  0  0  0  0  0
  1  2  1  0  0  0  0
  1 30  1  0  0  0  0
  1 31  1  0  0  0  0
  1 32  1  0  0  0  0
  2  3  1  0  0  0  0
  2 33  1  0  0  0  0
  2 34  1  0  0  0  0
  3  4  1  0  0  0  0
  4  5  1  0  0  0  0
  4 35  1  0  0  0  0
  4 36  1  0  0  0  0
  5  6  1  0  0  0  0
  5 37  1  0  0  0  0
  5 38  1  0  0  0  0
  6  7  1  0  0  0  0
  7 29  1  0  0  0  0
  7 28  1  0  0  0  0
  7  8  1  0  0  0  0
  8  9  1  0  0  0  0
  8 39  1  0  0  0  0
  8 40  1  0  0  0  0
  9 10  1  0  0  0  0
  9 41  1  0  0  0  0
  9 42  1  0  0  0  0
 10 11  1  0  0  0  0
 10 28  1  0  0  0  0
 11 16  1  0  0  0  0
 11 12  2  0  0  0  0
 12 13  1  0  0  0  0
 13 14  2  0  0  0  0
 13 43  1  0  0  0  0
 14 15  1  0  0  0  0
 15 19  1  0  0  0  0
 15 16  2  0  0  0  0
 16 17  1  0  0  0  0
 17 18  2  0  0  0  0
 18 19  1  0  0  0  0
 18 44  1  0  0  0  0
 19 20  1  0  0  0  0
 20 21  1  0  0  0  0
 20 45  1  0  0  0  0
 20 46  1  0  0  0  0
 21 22  1  0  0  0  0
 21 23  1  0  0  0  0
 21 47  1  0  0  0  0
 22 48  1  0  0  0  0
 23 27  1  0  0  0  0
 23 24  1  0  0  0  0
 23 49  1  0  0  0  0
 24 25  1  0  0  0  0
 24 50  1  0  0  0  0
 24 51  1  0  0  0  0
 25 26  1  0  0  0  0
 25 52  1  0  0  0  0
 25 53  1  0  0  0  0
 26 27  1  0  0  0  0
 26 54  1  0  0  0  0
 26 55  1  0  0  0  0
 28 56  1  0  0  0  0
 28 57  1  0  0  0  0
M  END
> <s_m_source_file>
AV-unprocessed.smi

> <i_m_source_file_index>
246

> <i_lp_mmshare_version>
43012

> <i_f3d_flags>
0

> <s_epik_input>
W0NIM11bQ0gyXU9bQ0gyXVtDSDJdT1tDQEhdMVtDSDJdW0NIMl1OKFtDSDJdMSljKG5bY0hdbjIpYyhjMjMpbltjSF1uM1tDSDJdW0NASF0oW09IXSlbQ0BASF00W0NIMl1bQ0gyXVtDSDJdTzQ=

> <s_epik_cmdline>
J2VwaWtfcHl0aG9uJywgJy1waCcsICc3LjAnLCAnLXRuJywgJzgnLCAnLW1hJywgJzIwMCcsICctbWV0YWxfYmluZGluZycsICctaW1hZScsICc8aW5maWxlLm1hZT4nLCAnLW9tYWUnLCAnPG91dGZpbGUubWFlPic=

> <r_lp_tautomer_probability>
1

> <r_epik_Ionization_Penalty>
0.0024631

> <r_epik_Ionization_Penalty_Charging>
0

> <r_epik_Ionization_Penalty_Neutral>
0.0024631

> <r_epik_State_Penalty>
0.00162428

> <r_epik_Charging_Adjusted_Penalty>
0.00162428

> <i_epik_Tot_Q>
0

> <i_epik_Tot_abs_Q>
0

> <r_epik_Metal_State_Penalty>
-0

> <b_epik_Metal_Only>
0

> <s_lp_Force_Field>
OPLS_2005

> <r_lp_Energy>
48.0332

> <b_lp_Chiralities_Consistent>
1

> <s_lp_Variant>
AV-unprocessed.smi:246-4

> <Gold.Version>
5.8.1

> <Gold.Id.Protein>
6NUR|6NUR_protein|mol2

> <Gold.PLP.Fitness>
51.6284

> <Gold.PLP.PLP>
-46.6950

> <Gold.PLP.part.hbond>
-2.0000

> <Gold.PLP.part.metal>
0.0000

> <Gold.PLP.part.buried>
-8.2210

> <Gold.PLP.part.nonpolar>
-36.2810

> <Gold.PLP.part.repulsive>
0.4773

> <Gold.PLP.ligand.clash>
0.0000

> <Gold.PLP.ligand.torsion>
0.7231

> <Gold.PLP.Chemscore.Hbond>
2.0000

> <Gold.PLP.Chemscore.CHOScore>
0.0000

> <Gold.PLP.Chemscore.Metal>
0.0000

> <Gold.Chemscore.Hbonds>
donor molecule, donor type, donor heavy atom, donor atom, acceptor molecule, acceptor atom, score
      P1  H  7997  8008       L1    14  1.00
      P1  H 10752 10764       L1    12  1.00

> <Gold.PLP.Chemscore.Internal.Correction>
0.3795

> <Gold.Rescore>
     Score         DG    S(hbond)    S(metal)    S(lipo)     H(rot)  DE(clash)    DE(int)     intcor
     13.86     -15.44       1.37        0.00     113.87       3.10       0.21       1.38       ----

> <Gold.Chemscore.Fitness>
13.8568

> <Gold.Chemscore.DG>
-15.4446

> <Gold.Chemscore.ZeroCoef>
-5.4800

> <Gold.Chemscore.Hbond>
1.3725

> <Gold.Chemscore.Metal>
0.0000

> <Gold.Chemscore.Lipo>
113.8719

> <Gold.Chemscore.Internal_Hbond>
0.0000

> <Gold.Chemscore.DEClash>
0.2128

> <Gold.Chemscore.DEInternal>
1.3751

> <Gold.Chemscore.Rot>
3.1026

> <Gold.Chemscore.Internal.Correction>
   9.000000E+99

> <Gold.Chemscore.Hbonds>
donor molecule, donor type, donor heavy atom, donor atom, acceptor molecule, acceptor atom, score
      P1  H  7997  8008       L1    14  0.88
      P1  H 10752 10764       L1    12  0.23

> <Gold.Chemscore.Hbond.Weighted>
-4.5842

> <Gold.Chemscore.Metal.Weighted>
-0.0000

> <Gold.Chemscore.Lipo.Weighted>
-13.3230

> <Gold.Chemscore.Internal_Hbond.Weighted>
0.0000

> <Gold.Chemscore.DEClash.Weighted>
0.2128

> <Gold.Chemscore.DEInternal.Weighted>
1.3751

> <Gold.Chemscore.Rot.Weighted>
7.9426

> <Gold.Chemscore.Internal.Correction.Weighted>
   9.000000E+99

> <Gold.Protein.RotatedTorsions>
[ 6907 6896 6895 6894 ] final  -53.41 input  -60.11 | X-H torsion
[ 7974 7965 7964 7962 ] final  -37.45 input  175.53 | X-H torsion
[ 8008 7997 7996 7995 ] final  -32.59 input   59.86 | X-H torsion
[ 10167 10162 10161 10158 ] final  176.71 input  -65.29 | X-H torsion
[ 10718 10713 10712 10709 ] final   31.67 input   66.30 | X-H torsion
[ 10763 10752 10751 10750 ] final  -71.24 input  -60.55 | X-H torsion
[ 11005 11000 10999 10996 ] final  -47.42 input  -57.11 | X-H torsion

> <Gold.Protein.ActiveResidues>
 VAL166  LYS551  ARG553  GLY616  TRP617  ASP618  TYR619  PRO620  LYS621  CYS622 
 ASP623  PHE694  ASN695  SER759  ASP760  ASP761  ALA762  ILE779  LEU786  VAL792 
 PHE793  MET794  SER795  GLU796  ALA797  LYS798  CYS799  TRP800  GLU811  SER814 

> <Gold.Protein.RotatedAtoms>
  150.8429  134.7727  159.6946 H   0  0  0  0  0  0  0  0  0  0  0  0  # atno 6907 bound_to 6896
  152.4512  134.5386  159.9842 H   0  0  0  0  0  0  0  0  0  0  0  0  # atno 6908 bound_to 6896
  151.5522  133.3378  159.2991 H   0  0  0  0  0  0  0  0  0  0  0  0  # atno 6909 bound_to 6896
  146.0574  140.6397  142.9013 H   0  0  0  0  0  0  0  0  0  0  0  0  # atno 7974 bound_to 7965
  154.4175  140.1733  156.1752 H   0  0  0  0  0  0  0  0  0  0  0  0  # atno 8008 bound_to 7997
  155.9727  140.3384  155.6566 H   0  0  0  0  0  0  0  0  0  0  0  0  # atno 8009 bound_to 7997
  155.6604  140.0700  157.2547 H   0  0  0  0  0  0  0  0  0  0  0  0  # atno 8010 bound_to 7997
  139.5225  144.2884  152.0485 H   0  0  0  0  0  0  0  0  0  0  0  0  # atno 10167 bound_to 10162
  157.2754  130.7229  149.6527 H   0  0  0  0  0  0  0  0  0  0  0  0  # atno 10718 bound_to 10713
  154.4290  135.5968  153.6056 H   0  0  0  0  0  0  0  0  0  0  0  0  # atno 10763 bound_to 10752
  152.9798  135.5970  154.3863 H   0  0  0  0  0  0  0  0  0  0  0  0  # atno 10764 bound_to 10752
  154.3698  135.2841  155.2251 H   0  0  0  0  0  0  0  0  0  0  0  0  # atno 10765 bound_to 10752
  141.0639  133.6700  156.3295 H   0  0  0  0  0  0  0  0  0  0  0  0  # atno 11005 bound_to 11000
  144.7155  140.4195  143.7047 LP  0  0  0  0  0  0  0  0  0  0  0  0  # atno 17320 bound_to 7965
  145.6620  139.1583  143.2803 LP  0  0  0  0  0  0  0  0  0  0  0  0  # atno 17321 bound_to 7965
  140.2336  144.4343  150.6289 LP  0  0  0  0  0  0  0  0  0  0  0  0  # atno 17342 bound_to 10162
  140.6339  143.2191  151.6438 LP  0  0  0  0  0  0  0  0  0  0  0  0  # atno 17343 bound_to 10162
  155.9663  130.4354  150.5092 LP  0  0  0  0  0  0  0  0  0  0  0  0  # atno 17370 bound_to 10713
  157.3025  131.0648  151.2058 LP  0  0  0  0  0  0  0  0  0  0  0  0  # atno 17371 bound_to 10713
  140.5812  134.5744  157.5480 LP  0  0  0  0  0  0  0  0  0  0  0  0  # atno 17394 bound_to 11000
  139.9458  134.7704  156.0565 LP  0  0  0  0  0  0  0  0  0  0  0  0  # atno 17395 bound_to 11000

$$$$
