AV-unprocessed.smi:387|AV-procd|sdf|2474|dock9
  -GOLD-   2262022413D 1   1.00000     0.00000
 Structure written by MMmdl.
 39 40  0  0  0  0  0  0  0  0  1 V2000
  153.3846  142.5482  160.7742 C   0  0  0  0  0  0  0  0  0  0  0  0
  152.4533  143.3483  159.8461 C   0  0  0  0  0  0  0  0  0  0  0  0
  151.8430  144.5227  160.6398 C   0  0  0  0  0  0  0  0  0  0  0  0
  153.2703  143.8702  158.6452 C   0  0  0  0  0  0  0  0  0  0  0  0
  151.4033  142.4254  159.3987 N   0  0  0  0  0  0  0  0  0  0  0  0
  151.5399  141.2294  158.7995 C   0  0  0  0  0  0  0  0  0  0  0  0
  152.6281  140.7172  158.5334 O   0  0  0  0  0  0  0  0  0  0  0  0
  150.2255  140.5141  158.4509 C   0  0  0  0  0  0  0  0  0  0  0  0
  150.1046  140.1607  157.0194 N   0  0  0  0  0  0  0  0  0  0  0  0
  150.8978  139.1000  156.5123 C   0  0  0  0  0  0  0  0  0  0  0  0
  151.6525  138.4629  157.2495 O   0  0  0  0  0  0  0  0  0  0  0  0
  150.7628  138.8424  155.0806 C   0  0  0  0  0  0  0  0  0  0  0  0
  151.5690  137.8054  154.5269 C   0  0  0  0  0  0  0  0  0  0  0  0
  152.2070  136.9465  154.0859 N   0  0  0  0  0  0  0  0  0  0  0  0
  149.9137  139.5651  154.3215 C   0  0  0  0  0  0  0  0  0  0  0  0
  149.1226  140.5661  154.8416 N   0  0  0  0  0  0  0  0  0  0  0  0
  148.3471  141.4249  153.9917 C   0  0  0  0  0  0  0  0  0  0  0  0
  146.9362  141.8190  154.3832 C   0  0  0  0  0  0  0  0  0  0  0  0
  147.1611  140.8471  153.2506 C   0  0  0  0  0  0  0  0  0  0  0  0
  149.2377  140.9263  156.2021 C   0  0  0  0  0  0  0  0  0  0  0  0
  148.6132  141.8848  156.6639 O   0  0  0  0  0  0  0  0  0  0  0  0
  154.1969  143.1694  161.1533 H   0  0  0  0  0  0  0  0  0  0  0  0
  153.8353  141.7027  160.2528 H   0  0  0  0  0  0  0  0  0  0  0  0
  152.8452  142.1531  161.6361 H   0  0  0  0  0  0  0  0  0  0  0  0
  151.2361  144.1664  161.4729 H   0  0  0  0  0  0  0  0  0  0  0  0
  151.2094  145.1544  160.0172 H   0  0  0  0  0  0  0  0  0  0  0  0
  152.6224  145.1631  161.0538 H   0  0  0  0  0  0  0  0  0  0  0  0
  154.1107  144.4803  158.9782 H   0  0  0  0  0  0  0  0  0  0  0  0
  152.6715  144.4909  157.9786 H   0  0  0  0  0  0  0  0  0  0  0  0
  153.6767  143.0485  158.0543 H   0  0  0  0  0  0  0  0  0  0  0  0
  150.4572  142.7369  159.5639 H   0  0  0  0  0  0  0  0  0  0  0  0
  150.1364  139.6272  159.0804 H   0  0  0  0  0  0  0  0  0  0  0  0
  149.3941  141.1461  158.7676 H   0  0  0  0  0  0  0  0  0  0  0  0
  149.8457  139.3500  153.2647 H   0  0  0  0  0  0  0  0  0  0  0  0
  148.9170  142.1814  153.4548 H   0  0  0  0  0  0  0  0  0  0  0  0
  146.5259  141.4169  155.3077 H   0  0  0  0  0  0  0  0  0  0  0  0
  146.6081  142.8241  154.1270 H   0  0  0  0  0  0  0  0  0  0  0  0
  146.9800  141.2040  152.2388 H   0  0  0  0  0  0  0  0  0  0  0  0
  146.9010  139.8055  153.4302 H   0  0  0  0  0  0  0  0  0  0  0  0
  1  2  1  0  0  0  0
  1 22  1  0  0  0  0
  1 23  1  0  0  0  0
  1 24  1  0  0  0  0
  2  3  1  0  0  0  0
  2  4  1  0  0  0  0
  2  5  1  0  0  0  0
  3 25  1  0  0  0  0
  3 26  1  0  0  0  0
  3 27  1  0  0  0  0
  4 28  1  0  0  0  0
  4 29  1  0  0  0  0
  4 30  1  0  0  0  0
  5  6  1  0  0  0  0
  5 31  1  0  0  0  0
  6  7  2  0  0  0  0
  6  8  1  0  0  0  0
  8  9  1  0  0  0  0
  8 32  1  0  0  0  0
  8 33  1  0  0  0  0
  9 20  1  0  0  0  0
  9 10  1  0  0  0  0
 10 11  2  0  0  0  0
 10 12  1  0  0  0  0
 12 13  1  0  0  0  0
 12 15  2  0  0  0  0
 13 14  3  0  0  0  0
 15 16  1  0  0  0  0
 15 34  1  0  0  0  0
 16 17  1  0  0  0  0
 16 20  1  0  0  0  0
 17 19  1  0  0  0  0
 17 18  1  0  0  0  0
 17 35  1  0  0  0  0
 18 19  1  0  0  0  0
 18 36  1  0  0  0  0
 18 37  1  0  0  0  0
 19 38  1  0  0  0  0
 19 39  1  0  0  0  0
 20 21  2  0  0  0  0
M  END
> <s_m_source_file>
AV-unprocessed.smi

> <i_m_source_file_index>
387

> <i_lp_mmshare_version>
43012

> <i_f3d_flags>
0

> <s_epik_input>
W0NIM11DKFtDSDNdKShbQ0gzXSlbTkhdQyg9TylbQ0gyXW4xYyg9TyljKEMjTilbY0hdbihjMT1PKVtDSF0yW0NIMl1bQ0gyXTI=

> <s_epik_cmdline>
J2VwaWtfcHl0aG9uJywgJy1waCcsICc3LjAnLCAnLXRuJywgJzgnLCAnLW1hJywgJzIwMCcsICctbWV0YWxfYmluZGluZycsICctaW1hZScsICc8aW5maWxlLm1hZT4nLCAnLW9tYWUnLCAnPG91dGZpbGUubWFlPic=

> <r_lp_tautomer_probability>
1

> <r_epik_Ionization_Penalty>
2.47136e-08

> <r_epik_Ionization_Penalty_Charging>
8.30431e-11

> <r_epik_Ionization_Penalty_Neutral>
2.46306e-08

> <r_epik_State_Penalty>
-0

> <r_epik_Charging_Adjusted_Penalty>
8.30431e-11

> <i_epik_Tot_Q>
0

> <i_epik_Tot_abs_Q>
0

> <r_epik_Metal_State_Penalty>
-0

> <b_epik_Metal_Only>
0

> <s_lp_Force_Field>
OPLS_2005

> <r_lp_Energy>
29.2267

> <b_lp_Chiralities_Consistent>
1

> <s_lp_Variant>
AV-unprocessed.smi:387-1

> <Gold.Version>
5.8.1

> <Gold.Id.Protein>
6NUR|6NUR_protein|mol2

> <Gold.PLP.Fitness>
44.8500

> <Gold.PLP.PLP>
-39.9631

> <Gold.PLP.part.hbond>
-0.8861

> <Gold.PLP.part.metal>
0.0000

> <Gold.PLP.part.buried>
-3.9650

> <Gold.PLP.part.nonpolar>
-37.2310

> <Gold.PLP.part.repulsive>
1.9057

> <Gold.PLP.ligand.clash>
0.0000

> <Gold.PLP.ligand.torsion>
0.4359

> <Gold.PLP.Chemscore.Hbond>
0.8480

> <Gold.PLP.Chemscore.CHOScore>
1.0000

> <Gold.PLP.Chemscore.Metal>
0.0000

> <Gold.Chemscore.Hbonds>
donor molecule, donor type, donor heavy atom, donor atom, acceptor molecule, acceptor atom, score
      P1  H 10752 10765       L1    14  0.84
      L1  C    15    34       P1  7957  1.00

> <Gold.PLP.Chemscore.Internal.Correction>
0.2148

> <Gold.Rescore>
     Score         DG    S(hbond)    S(metal)    S(lipo)     H(rot)  DE(clash)    DE(int)     intcor
     10.58     -13.83       0.74        0.00      89.04       1.78       0.17       3.08       ----

> <Gold.Chemscore.Fitness>
10.5816

> <Gold.Chemscore.DG>
-13.8280

> <Gold.Chemscore.ZeroCoef>
-5.4800

> <Gold.Chemscore.Hbond>
0.7415

> <Gold.Chemscore.Metal>
0.0000

> <Gold.Chemscore.Lipo>
89.0365

> <Gold.Chemscore.Internal_Hbond>
0.0000

> <Gold.Chemscore.DEClash>
0.1669

> <Gold.Chemscore.DEInternal>
3.0794

> <Gold.Chemscore.Rot>
1.7757

> <Gold.Chemscore.Internal.Correction>
   9.000000E+99

> <Gold.Chemscore.Hbonds>
donor molecule, donor type, donor heavy atom, donor atom, acceptor molecule, acceptor atom, score
      P1  H 10752 10765       L1    14  0.78

> <Gold.Chemscore.Hbond.Weighted>
-2.4766

> <Gold.Chemscore.Metal.Weighted>
-0.0000

> <Gold.Chemscore.Lipo.Weighted>
-10.4173

> <Gold.Chemscore.Internal_Hbond.Weighted>
0.0000

> <Gold.Chemscore.DEClash.Weighted>
0.1669

> <Gold.Chemscore.DEInternal.Weighted>
3.0794

> <Gold.Chemscore.Rot.Weighted>
4.5459

> <Gold.Chemscore.Internal.Correction.Weighted>
   9.000000E+99

> <Gold.Protein.RotatedTorsions>
[ 6907 6896 6895 6894 ] final   -0.19 input  -60.11 | X-H torsion
[ 7974 7965 7964 7962 ] final  179.74 input  175.53 | X-H torsion
[ 8008 7997 7996 7995 ] final  136.10 input   59.86 | X-H torsion
[ 10167 10162 10161 10158 ] final   59.83 input  -65.29 | X-H torsion
[ 10718 10713 10712 10709 ] final -167.61 input   66.30 | X-H torsion
[ 10763 10752 10751 10750 ] final  140.06 input  -60.55 | X-H torsion
[ 11005 11000 10999 10996 ] final   33.44 input  -57.11 | X-H torsion

> <Gold.Protein.ActiveResidues>
 VAL166  LYS551  ARG553  GLY616  TRP617  ASP618  TYR619  PRO620  LYS621  CYS622 
 ASP623  PHE694  ASN695  SER759  ASP760  ASP761  ALA762  ILE779  LEU786  VAL792 
 PHE793  MET794  SER795  GLU796  ALA797  LYS798  CYS799  TRP800  GLU811  SER814 

> <Gold.Protein.RotatedAtoms>
  151.5662  135.1064  159.9984 H   0  0  0  0  0  0  0  0  0  0  0  0  # atno 6907 bound_to 6896
  152.4423  133.7466  159.6681 H   0  0  0  0  0  0  0  0  0  0  0  0  # atno 6908 bound_to 6896
  150.8331  133.7990  159.3114 H   0  0  0  0  0  0  0  0  0  0  0  0  # atno 6909 bound_to 6896
  144.7143  140.0594  143.6433 H   0  0  0  0  0  0  0  0  0  0  0  0  # atno 7974 bound_to 7965
  156.3004  140.2454  156.3690 H   0  0  0  0  0  0  0  0  0  0  0  0  # atno 8008 bound_to 7997
  154.8806  140.0412  157.1799 H   0  0  0  0  0  0  0  0  0  0  0  0  # atno 8009 bound_to 7997
  154.8700  140.2933  155.5491 H   0  0  0  0  0  0  0  0  0  0  0  0  # atno 8010 bound_to 7997
  140.1721  144.4266  150.6656 H   0  0  0  0  0  0  0  0  0  0  0  0  # atno 10167 bound_to 10162
  156.6848  130.9136  151.3062 H   0  0  0  0  0  0  0  0  0  0  0  0  # atno 10718 bound_to 10713
  153.9164  135.3005  155.3448 H   0  0  0  0  0  0  0  0  0  0  0  0  # atno 10763 bound_to 10752
  154.7597  135.4940  153.9444 H   0  0  0  0  0  0  0  0  0  0  0  0  # atno 10764 bound_to 10752
  153.1165  135.6772  153.9512 H   0  0  0  0  0  0  0  0  0  0  0  0  # atno 10765 bound_to 10752
  140.2631  134.3169  155.7851 H   0  0  0  0  0  0  0  0  0  0  0  0  # atno 11005 bound_to 11000
  145.9877  139.2990  143.1004 LP  0  0  0  0  0  0  0  0  0  0  0  0  # atno 17320 bound_to 7965
  145.8939  140.9286  143.0538 LP  0  0  0  0  0  0  0  0  0  0  0  0  # atno 17321 bound_to 7965
  140.6575  143.2242  151.5934 LP  0  0  0  0  0  0  0  0  0  0  0  0  # atno 17342 bound_to 10162
  139.5333  144.2853  152.1196 LP  0  0  0  0  0  0  0  0  0  0  0  0  # atno 17343 bound_to 10162
  157.7030  130.9354  150.0844 LP  0  0  0  0  0  0  0  0  0  0  0  0  # atno 17370 bound_to 10713
  156.1840  130.3651  149.8997 LP  0  0  0  0  0  0  0  0  0  0  0  0  # atno 17371 bound_to 10713
  141.2188  133.7421  156.9218 LP  0  0  0  0  0  0  0  0  0  0  0  0  # atno 17394 bound_to 11000
  140.1445  134.9271  157.2511 LP  0  0  0  0  0  0  0  0  0  0  0  0  # atno 17395 bound_to 11000

$$$$
