AV-unprocessed.smi:67|AV-procd|sdf|630|dock7
  -GOLD-   2262016523D 1   1.00000     0.00000
 Structure written by MMmdl.
 49 51  0  0  0  0  0  0  0  0  3 V2000
  144.5431  134.8761  149.9294 O   0  0  0  0  0  0  0  0  0  0  0  0
  144.6565  133.5437  150.3993 C   0  0  2  0  0  0  0  0  0  0  0  0
  145.9010  133.4481  151.3100 C   0  0  0  0  0  0  0  0  0  0  0  0
  145.8557  132.2498  152.1900 N   0  3  2  0  0  0  0  0  0  0  0  0
  146.8333  132.3085  153.3077 C   0  0  0  0  0  0  0  0  0  0  0  0
  146.5900  131.1726  154.3150 C   0  0  0  0  0  0  0  0  0  0  0  0
  146.5799  129.8016  153.6053 C   0  0  1  0  0  0  0  0  0  0  0  0
  146.4392  128.6780  154.4786 O   0  0  0  0  0  0  0  0  0  0  0  0
  146.8838  127.4082  154.1606 C   0  0  0  0  0  0  0  0  0  0  0  0
  146.8973  126.4801  155.2221 C   0  0  0  0  0  0  0  0  0  0  0  0
  147.3289  125.1554  155.0234 C   0  0  0  0  0  0  0  0  0  0  0  0
  147.7562  124.7375  153.7505 C   0  0  0  0  0  0  0  0  0  0  0  0
  147.7524  125.6474  152.6726 C   0  0  0  0  0  0  0  0  0  0  0  0
  148.2101  125.2287  151.2836 C   0  0  0  0  0  0  0  0  0  0  0  0
  147.3051  124.4103  150.7469 F   0  0  0  0  0  0  0  0  0  0  0  0
  148.3711  126.2739  150.4716 F   0  0  0  0  0  0  0  0  0  0  0  0
  149.3709  124.5802  151.3760 F   0  0  0  0  0  0  0  0  0  0  0  0
  147.3175  126.9732  152.8829 C   0  0  0  0  0  0  0  0  0  0  0  0
  145.6646  129.7704  152.3626 C   0  0  0  0  0  0  0  0  0  0  0  0
  145.9526  130.9682  151.4435 C   0  0  0  0  0  0  0  0  0  0  0  0
  144.7224  132.6072  149.1892 C   0  0  0  0  0  0  0  0  0  0  0  0
  143.2616  132.4404  148.7626 C   0  0  0  0  0  0  0  0  0  0  0  0
  142.4486  132.6544  149.9754 N   0  3  0  0  0  0  0  0  0  0  0  0
  143.3337  133.1236  151.0606 C   0  0  0  0  0  0  0  0  0  0  0  0
  145.0802  134.9755  149.1571 H   0  0  0  0  0  0  0  0  0  0  0  0
  146.8100  133.4371  150.7059 H   0  0  0  0  0  0  0  0  0  0  0  0
  145.9690  134.3568  151.9106 H   0  0  0  0  0  0  0  0  0  0  0  0
  147.8480  132.2531  152.9100 H   0  0  0  0  0  0  0  0  0  0  0  0
  146.7458  133.2652  153.8245 H   0  0  0  0  0  0  0  0  0  0  0  0
  147.3719  131.1849  155.0748 H   0  0  0  0  0  0  0  0  0  0  0  0
  145.6622  131.3726  154.8442 H   0  0  0  0  0  0  0  0  0  0  0  0
  147.5912  129.6763  153.2162 H   0  0  0  0  0  0  0  0  0  0  0  0
  146.5715  126.7882  156.2049 H   0  0  0  0  0  0  0  0  0  0  0  0
  147.3319  124.4595  155.8494 H   0  0  0  0  0  0  0  0  0  0  0  0
  148.0849  123.7182  153.6120 H   0  0  0  0  0  0  0  0  0  0  0  0
  147.3327  127.6289  152.0307 H   0  0  0  0  0  0  0  0  0  0  0  0
  145.8260  128.8422  151.8136 H   0  0  0  0  0  0  0  0  0  0  0  0
  144.6096  129.7794  152.6229 H   0  0  0  0  0  0  0  0  0  0  0  0
  145.2426  130.9622  150.6166 H   0  0  0  0  0  0  0  0  0  0  0  0
  146.9479  130.8767  151.0054 H   0  0  0  0  0  0  0  0  0  0  0  0
  145.3589  132.9792  148.3851 H   0  0  0  0  0  0  0  0  0  0  0  0
  145.1162  131.6361  149.4935 H   0  0  0  0  0  0  0  0  0  0  0  0
  142.9922  133.2018  148.0299 H   0  0  0  0  0  0  0  0  0  0  0  0
  143.0667  131.4637  148.3192 H   0  0  0  0  0  0  0  0  0  0  0  0
  141.7508  133.3579  149.7780 H   0  0  0  0  0  0  0  0  0  0  0  0
  143.4995  132.2769  151.7273 H   0  0  0  0  0  0  0  0  0  0  0  0
  142.8706  133.9195  151.6455 H   0  0  0  0  0  0  0  0  0  0  0  0
  141.9938  131.7955  150.2513 H   0  0  0  0  0  0  0  0  0  0  0  0
  144.9431  132.2644  152.6233 H   0  0  0  0  0  0  0  0  0  0  0  0
  1  2  1  0  0  0  0
  1 25  1  0  0  0  0
  2 24  1  0  0  0  0
  2  3  1  0  0  0  0
  2 21  1  0  0  0  0
  3  4  1  0  0  0  0
  3 26  1  0  0  0  0
  3 27  1  0  0  0  0
  4 20  1  0  0  0  0
  4  5  1  0  0  0  0
  4 49  1  0  0  0  0
  5  6  1  0  0  0  0
  5 28  1  0  0  0  0
  5 29  1  0  0  0  0
  6  7  1  0  0  0  0
  6 30  1  0  0  0  0
  6 31  1  0  0  0  0
  7  8  1  0  0  0  0
  7 19  1  0  0  0  0
  7 32  1  0  0  0  0
  8  9  1  0  0  0  0
  9 18  1  0  0  0  0
  9 10  2  0  0  0  0
 10 11  1  0  0  0  0
 10 33  1  0  0  0  0
 11 12  2  0  0  0  0
 11 34  1  0  0  0  0
 12 13  1  0  0  0  0
 12 35  1  0  0  0  0
 13 14  1  0  0  0  0
 13 18  2  0  0  0  0
 14 15  1  0  0  0  0
 14 16  1  0  0  0  0
 14 17  1  0  0  0  0
 18 36  1  0  0  0  0
 19 20  1  0  0  0  0
 19 37  1  0  0  0  0
 19 38  1  0  0  0  0
 20 39  1  0  0  0  0
 20 40  1  0  0  0  0
 21 22  1  0  0  0  0
 21 41  1  0  0  0  0
 21 42  1  0  0  0  0
 22 23  1  0  0  0  0
 22 43  1  0  0  0  0
 22 44  1  0  0  0  0
 23 24  1  0  0  0  0
 23 45  1  0  0  0  0
 23 48  1  0  0  0  0
 24 46  1  0  0  0  0
 24 47  1  0  0  0  0
M  CHG  1   4   1
M  CHG  1  23   1
M  END
> <s_m_source_file>
AV-unprocessed.smi

> <i_m_source_file_index>
67

> <i_lp_mmshare_version>
43012

> <i_f3d_flags>
0

> <s_epik_input>
W0NIMl0xW05IXVtDSDJdW0NIMl1bQ0BAXTEoW09IXSlbQ0gyXU4yW0NIMl1bQ0gyXVtDSF0oW0NIMl1bQ0gyXTIpT2MzW2NIXVtjSF1bY0hdYyhDKEYpKEYpRilbY0hdMw==

> <s_epik_cmdline>
J2VwaWtfcHl0aG9uJywgJy1waCcsICc3LjAnLCAnLXRuJywgJzgnLCAnLW1hJywgJzIwMCcsICctbWV0YWxfYmluZGluZycsICctaW1hZScsICc8aW5maWxlLm1hZT4nLCAnLW9tYWUnLCAnPG91dGZpbGUubWFlPic=

> <r_lp_tautomer_probability>
1

> <r_epik_Ionization_Penalty>
0.0989853

> <r_epik_Ionization_Penalty_Charging>
0.0989662

> <r_epik_Ionization_Penalty_Neutral>
1.91014e-05

> <r_epik_State_Penalty>
0.0852826

> <r_epik_Charging_Adjusted_Penalty>
0.184249

> <i_epik_Tot_Q>
2

> <i_epik_Tot_abs_Q>
2

> <r_epik_Metal_State_Penalty>
0.0849414

> <b_epik_Metal_Only>
0

> <s_lp_Force_Field>
OPLS_2005

> <r_lp_Energy>
59.8113

> <b_lp_Chiralities_Consistent>
1

> <s_lp_Variant>
AV-unprocessed.smi:67-2

> <Gold.Version>
5.8.1

> <Gold.Id.Protein>
6NUR|6NUR_protein|mol2

> <Gold.PLP.Fitness>
49.8342

> <Gold.PLP.PLP>
-40.5044

> <Gold.PLP.part.hbond>
-2.9817

> <Gold.PLP.part.metal>
0.0000

> <Gold.PLP.part.buried>
-0.8510

> <Gold.PLP.part.nonpolar>
-35.9692

> <Gold.PLP.part.repulsive>
0.2034

> <Gold.PLP.ligand.clash>
0.9826

> <Gold.PLP.ligand.torsion>
1.0004

> <Gold.PLP.Chemscore.Hbond>
3.9280

> <Gold.PLP.Chemscore.CHOScore>
0.0000

> <Gold.PLP.Chemscore.Metal>
0.0000

> <Gold.Chemscore.Hbonds>
donor molecule, donor type, donor heavy atom, donor atom, acceptor molecule, acceptor atom, score
      L1  H     1    25       P1  7921  1.00
      L1  H    23    45       P1 10186  0.91
      L1  H    23    48       P1 10952  0.85

> <Gold.PLP.Chemscore.Internal.Correction>
0.5291

> <Gold.Rescore>
     Score         DG    S(hbond)    S(metal)    S(lipo)     H(rot)  DE(clash)    DE(int)     intcor
     18.38     -23.64       2.81        0.00     123.97       2.24       2.85       2.41       ----

> <Gold.Chemscore.Fitness>
18.3806

> <Gold.Chemscore.DG>
-23.6382

> <Gold.Chemscore.ZeroCoef>
-5.4800

> <Gold.Chemscore.Hbond>
2.8072

> <Gold.Chemscore.Metal>
0.0000

> <Gold.Chemscore.Lipo>
123.9690

> <Gold.Chemscore.Internal_Hbond>
0.0000

> <Gold.Chemscore.DEClash>
2.8515

> <Gold.Chemscore.DEInternal>
2.4062

> <Gold.Chemscore.Rot>
2.2352

> <Gold.Chemscore.Internal.Correction>
   9.000000E+99

> <Gold.Chemscore.Hbonds>
donor molecule, donor type, donor heavy atom, donor atom, acceptor molecule, acceptor atom, score
      L1  H     1    25       P1  7921  1.00
      L1  H    23    45       P1 10186  0.46
      L1  H    23    48       P1 10952  0.54

> <Gold.Chemscore.Hbond.Weighted>
-9.3759

> <Gold.Chemscore.Metal.Weighted>
-0.0000

> <Gold.Chemscore.Lipo.Weighted>
-14.5044

> <Gold.Chemscore.Internal_Hbond.Weighted>
0.0000

> <Gold.Chemscore.DEClash.Weighted>
2.8515

> <Gold.Chemscore.DEInternal.Weighted>
2.4062

> <Gold.Chemscore.Rot.Weighted>
5.7221

> <Gold.Chemscore.Internal.Correction.Weighted>
   9.000000E+99

> <Gold.Protein.RotatedTorsions>
[ 6907 6896 6895 6894 ] final  -43.31 input  -60.11 | X-H torsion
[ 7974 7965 7964 7962 ] final   36.56 input  175.53 | X-H torsion
[ 8008 7997 7996 7995 ] final -178.78 input   59.86 | X-H torsion
[ 10167 10162 10161 10158 ] final  112.42 input  -65.29 | X-H torsion
[ 10718 10713 10712 10709 ] final  -91.65 input   66.30 | X-H torsion
[ 10763 10752 10751 10750 ] final  -15.98 input  -60.55 | X-H torsion
[ 11005 11000 10999 10996 ] final  144.00 input  -57.11 | X-H torsion

> <Gold.Protein.ActiveResidues>
 VAL166  LYS551  ARG553  GLY616  TRP617  ASP618  TYR619  PRO620  LYS621  CYS622 
 ASP623  PHE694  ASN695  SER759  ASP760  ASP761  ALA762  ILE779  LEU786  VAL792 
 PHE793  MET794  SER795  GLU796  ALA797  LYS798  CYS799  TRP800  GLU811  SER814 

> <Gold.Protein.RotatedAtoms>
  150.9453  134.8859  159.7637 H   0  0  0  0  0  0  0  0  0  0  0  0  # atno 6907 bound_to 6896
  152.5097  134.3883  159.9385 H   0  0  0  0  0  0  0  0  0  0  0  0  # atno 6908 bound_to 6896
  151.3902  133.3751  159.2755 H   0  0  0  0  0  0  0  0  0  0  0  0  # atno 6909 bound_to 6896
  146.1202  139.6003  142.9294 H   0  0  0  0  0  0  0  0  0  0  0  0  # atno 7974 bound_to 7965
  156.0228  140.1265  157.0339 H   0  0  0  0  0  0  0  0  0  0  0  0  # atno 8008 bound_to 7997
  154.4318  140.1065  156.6059 H   0  0  0  0  0  0  0  0  0  0  0  0  # atno 8009 bound_to 7997
  155.5919  140.3469  155.4571 H   0  0  0  0  0  0  0  0  0  0  0  0  # atno 8010 bound_to 7997
  139.6537  144.7129  151.1998 H   0  0  0  0  0  0  0  0  0  0  0  0  # atno 10167 bound_to 10162
  155.9995  130.4956  150.5506 H   0  0  0  0  0  0  0  0  0  0  0  0  # atno 10718 bound_to 10713
  153.5516  135.7011  153.5588 H   0  0  0  0  0  0  0  0  0  0  0  0  # atno 10763 bound_to 10752
  153.3510  135.3995  155.1645 H   0  0  0  0  0  0  0  0  0  0  0  0  # atno 10764 bound_to 10752
  154.8660  135.3765  154.5028 H   0  0  0  0  0  0  0  0  0  0  0  0  # atno 10765 bound_to 10752
  140.0598  134.9211  157.1164 H   0  0  0  0  0  0  0  0  0  0  0  0  # atno 11005 bound_to 11000
  145.5481  141.0415  143.2293 LP  0  0  0  0  0  0  0  0  0  0  0  0  # atno 17320 bound_to 7965
  144.7590  139.7002  143.7242 LP  0  0  0  0  0  0  0  0  0  0  0  0  # atno 17321 bound_to 7965
  140.7549  143.6107  150.8608 LP  0  0  0  0  0  0  0  0  0  0  0  0  # atno 17342 bound_to 10162
  139.9758  143.6006  152.2959 LP  0  0  0  0  0  0  0  0  0  0  0  0  # atno 17343 bound_to 10162
  157.3429  131.0720  151.1773 LP  0  0  0  0  0  0  0  0  0  0  0  0  # atno 17370 bound_to 10713
  157.2616  130.6661  149.5977 LP  0  0  0  0  0  0  0  0  0  0  0  0  # atno 17371 bound_to 10713
  140.3788  134.2310  155.7172 LP  0  0  0  0  0  0  0  0  0  0  0  0  # atno 17394 bound_to 11000
  141.1968  133.8074  157.0655 LP  0  0  0  0  0  0  0  0  0  0  0  0  # atno 17395 bound_to 11000

$$$$
