AV-unprocessed.smi:2916|AV-procd|sdf|11188|dock9
  -GOLD-   2272016 83D 1   1.00000     0.00000
 Structure written by MMmdl.
 38 39  0  0  0  0  0  0  0  0  2 V2000
  149.9424  138.8491  156.2188 N   0  0  0  0  0  0  0  0  0  0  0  0
  150.3222  139.9372  155.5400 C   0  0  0  0  0  0  0  0  0  0  0  0
  151.2741  139.8967  154.7628 O   0  0  0  0  0  0  0  0  0  0  0  0
  149.4965  141.2379  155.7288 C   0  0  0  0  0  0  0  0  0  0  0  0
  150.4172  142.2984  156.2229 N   0  3  0  0  0  0  0  0  0  0  0  0
  151.0528  142.1130  157.5513 C   0  0  0  0  0  0  0  0  0  0  0  0
  151.5997  143.4457  158.0911 C   0  0  0  0  0  0  0  0  0  0  0  0
  152.0304  143.3583  159.4762 N   0  0  0  0  0  0  0  0  0  0  0  0
  152.8761  142.4336  160.0521 C   0  0  0  0  0  0  0  0  0  0  0  0
  152.9735  142.7421  161.3785 C   0  0  0  0  0  0  0  0  0  0  0  0
  152.1291  143.8778  161.5251 C   0  0  0  0  0  0  0  0  0  0  0  0
  151.5629  144.2409  160.3857 N   0  0  0  0  0  0  0  0  0  0  0  0
  148.9147  141.7303  154.3726 C   0  0  0  0  0  0  0  0  0  0  0  0
  147.8160  140.8144  153.8033 C   0  0  0  0  0  0  0  0  0  0  0  0
  146.6622  140.6626  154.8026 C   0  0  0  0  0  0  0  0  0  0  0  0
  147.1723  140.1539  156.1572 C   0  0  0  0  0  0  0  0  0  0  0  0
  148.2998  141.0486  156.7121 C   0  0  0  0  0  0  0  0  0  0  0  0
  150.4785  137.9971  156.1320 H   0  0  0  0  0  0  0  0  0  0  0  0
  149.1417  138.8825  156.8329 H   0  0  0  0  0  0  0  0  0  0  0  0
  151.1518  142.4109  155.5395 H   0  0  0  0  0  0  0  0  0  0  0  0
  150.3383  141.7015  158.2635 H   0  0  0  0  0  0  0  0  0  0  0  0
  151.8727  141.3985  157.4787 H   0  0  0  0  0  0  0  0  0  0  0  0
  152.4499  143.7719  157.4910 H   0  0  0  0  0  0  0  0  0  0  0  0
  150.8406  144.2247  158.0088 H   0  0  0  0  0  0  0  0  0  0  0  0
  153.3356  141.6430  159.4772 H   0  0  0  0  0  0  0  0  0  0  0  0
  153.5551  142.2307  162.1313 H   0  0  0  0  0  0  0  0  0  0  0  0
  151.9113  144.4439  162.4187 H   0  0  0  0  0  0  0  0  0  0  0  0
  148.4900  142.7264  154.5081 H   0  0  0  0  0  0  0  0  0  0  0  0
  149.7016  141.8572  153.6280 H   0  0  0  0  0  0  0  0  0  0  0  0
  147.4386  141.2291  152.8682 H   0  0  0  0  0  0  0  0  0  0  0  0
  148.2271  139.8345  153.5587 H   0  0  0  0  0  0  0  0  0  0  0  0
  146.1658  141.6247  154.9369 H   0  0  0  0  0  0  0  0  0  0  0  0
  145.9106  139.9794  154.4056 H   0  0  0  0  0  0  0  0  0  0  0  0
  146.3475  140.1194  156.8694 H   0  0  0  0  0  0  0  0  0  0  0  0
  147.5205  139.1264  156.0517 H   0  0  0  0  0  0  0  0  0  0  0  0
  148.6323  140.6272  157.6613 H   0  0  0  0  0  0  0  0  0  0  0  0
  147.8779  142.0252  156.9547 H   0  0  0  0  0  0  0  0  0  0  0  0
  149.8908  143.1597  156.2649 H   0  0  0  0  0  0  0  0  0  0  0  0
  1  2  1  0  0  0  0
  1 18  1  0  0  0  0
  1 19  1  0  0  0  0
  2  3  2  0  0  0  0
  2  4  1  0  0  0  0
  4 17  1  0  0  0  0
  4  5  1  0  0  0  0
  4 13  1  0  0  0  0
  5  6  1  0  0  0  0
  5 20  1  0  0  0  0
  5 38  1  0  0  0  0
  6  7  1  0  0  0  0
  6 21  1  0  0  0  0
  6 22  1  0  0  0  0
  7  8  1  0  0  0  0
  7 23  1  0  0  0  0
  7 24  1  0  0  0  0
  8 12  1  0  0  0  0
  8  9  1  0  0  0  0
  9 10  2  0  0  0  0
  9 25  1  0  0  0  0
 10 11  1  0  0  0  0
 10 26  1  0  0  0  0
 11 12  2  0  0  0  0
 11 27  1  0  0  0  0
 13 14  1  0  0  0  0
 13 28  1  0  0  0  0
 13 29  1  0  0  0  0
 14 15  1  0  0  0  0
 14 30  1  0  0  0  0
 14 31  1  0  0  0  0
 15 16  1  0  0  0  0
 15 32  1  0  0  0  0
 15 33  1  0  0  0  0
 16 17  1  0  0  0  0
 16 34  1  0  0  0  0
 16 35  1  0  0  0  0
 17 36  1  0  0  0  0
 17 37  1  0  0  0  0
M  CHG  1   5   1
M  END
> <s_m_source_file>
AV-unprocessed.smi

> <i_m_source_file_index>
2916

> <i_lp_mmshare_version>
43012

> <i_f3d_flags>
0

> <s_epik_input>
W0NIMl0xW0NIMl1bQ0gyXVtDSDJdW0NIMl1DMShDKD1PKVtOSDJdKVtOSF1bQ0gyXVtDSDJdbjJbY0hdW2NIXVtjSF1uMg==

> <s_epik_cmdline>
J2VwaWtfcHl0aG9uJywgJy1waCcsICc3LjAnLCAnLXRuJywgJzgnLCAnLW1hJywgJzIwMCcsICctbWV0YWxfYmluZGluZycsICctaW1hZScsICc8aW5maWxlLm1hZT4nLCAnLW9tYWUnLCAnPG91dGZpbGUubWFlPic=

> <r_lp_tautomer_probability>
1

> <r_epik_Ionization_Penalty>
0.147888

> <r_epik_Ionization_Penalty_Charging>
0.147883

> <r_epik_Ionization_Penalty_Neutral>
4.65475e-06

> <r_epik_State_Penalty>
0.137176

> <r_epik_Charging_Adjusted_Penalty>
0.285059

> <i_epik_Tot_Q>
1

> <i_epik_Tot_abs_Q>
1

> <r_epik_Metal_State_Penalty>
0.137393

> <b_epik_Metal_Only>
0

> <s_lp_Force_Field>
OPLS_2005

> <r_lp_Energy>
14.4928

> <b_lp_Chiralities_Consistent>
1

> <s_lp_Variant>
AV-unprocessed.smi:2916-1

> <Gold.Version>
5.8.1

> <Gold.Id.Protein>
6NUR|6NUR_protein|mol2

> <Gold.PLP.Fitness>
44.2500

> <Gold.PLP.PLP>
-35.5800

> <Gold.PLP.part.hbond>
-2.0000

> <Gold.PLP.part.metal>
0.0000

> <Gold.PLP.part.buried>
-4.2448

> <Gold.PLP.part.nonpolar>
-30.2855

> <Gold.PLP.part.repulsive>
0.2709

> <Gold.PLP.ligand.clash>
0.0000

> <Gold.PLP.ligand.torsion>
0.1820

> <Gold.PLP.Chemscore.Hbond>
3.0000

> <Gold.PLP.Chemscore.CHOScore>
0.0000

> <Gold.PLP.Chemscore.Metal>
0.0000

> <Gold.Chemscore.Hbonds>
donor molecule, donor type, donor heavy atom, donor atom, acceptor molecule, acceptor atom, score
      L1  H     5    38       P1  8028  2.00
      P1  H  7989  7998       L1     3  1.00

> <Gold.PLP.Chemscore.Internal.Correction>
0.0340

> <Gold.Rescore>
     Score         DG    S(hbond)    S(metal)    S(lipo)     H(rot)  DE(clash)    DE(int)     intcor
     15.83     -16.15       2.00        0.00      83.67       2.26       0.05       0.27       ----

> <Gold.Chemscore.Fitness>
15.8326

> <Gold.Chemscore.DG>
-16.1461

> <Gold.Chemscore.ZeroCoef>
-5.4800

> <Gold.Chemscore.Hbond>
1.9960

> <Gold.Chemscore.Metal>
0.0000

> <Gold.Chemscore.Lipo>
83.6744

> <Gold.Chemscore.Internal_Hbond>
0.0000

> <Gold.Chemscore.DEClash>
0.0456

> <Gold.Chemscore.DEInternal>
0.2678

> <Gold.Chemscore.Rot>
2.2619

> <Gold.Chemscore.Internal.Correction>
   9.000000E+99

> <Gold.Chemscore.Hbonds>
donor molecule, donor type, donor heavy atom, donor atom, acceptor molecule, acceptor atom, score
      L1  H     5    38       P1  8028  0.98
      P1  H  7989  7998       L1     3  1.00

> <Gold.Chemscore.Hbond.Weighted>
-6.6666

> <Gold.Chemscore.Metal.Weighted>
-0.0000

> <Gold.Chemscore.Lipo.Weighted>
-9.7899

> <Gold.Chemscore.Internal_Hbond.Weighted>
0.0000

> <Gold.Chemscore.DEClash.Weighted>
0.0456

> <Gold.Chemscore.DEInternal.Weighted>
0.2678

> <Gold.Chemscore.Rot.Weighted>
5.7904

> <Gold.Chemscore.Internal.Correction.Weighted>
   9.000000E+99

> <Gold.Protein.RotatedTorsions>
[ 6907 6896 6895 6894 ] final -110.29 input  -60.11 | X-H torsion
[ 7974 7965 7964 7962 ] final  166.72 input  175.53 | X-H torsion
[ 8008 7997 7996 7995 ] final  147.94 input   59.86 | X-H torsion
[ 10167 10162 10161 10158 ] final  139.14 input  -65.29 | X-H torsion
[ 10718 10713 10712 10709 ] final  -96.23 input   66.30 | X-H torsion
[ 10763 10752 10751 10750 ] final  -84.82 input  -60.55 | X-H torsion
[ 11005 11000 10999 10996 ] final   48.24 input  -57.11 | X-H torsion

> <Gold.Protein.ActiveResidues>
 VAL166  LYS551  ARG553  GLY616  TRP617  ASP618  TYR619  PRO620  LYS621  CYS622 
 ASP623  PHE694  ASN695  SER759  ASP760  ASP761  ALA762  ILE779  LEU786  VAL792 
 PHE793  MET794  SER795  GLU796  ALA797  LYS798  CYS799  TRP800  GLU811  SER814 

> <Gold.Protein.RotatedAtoms>
  150.7615  133.9404  159.3454 H   0  0  0  0  0  0  0  0  0  0  0  0  # atno 6907 bound_to 6896
  151.7311  135.0872  160.0309 H   0  0  0  0  0  0  0  0  0  0  0  0  # atno 6908 bound_to 6896
  152.3589  133.6234  159.6036 H   0  0  0  0  0  0  0  0  0  0  0  0  # atno 6909 bound_to 6896
  144.7451  139.8656  143.6384 H   0  0  0  0  0  0  0  0  0  0  0  0  # atno 7974 bound_to 7965
  156.2808  140.2142  156.5619 H   0  0  0  0  0  0  0  0  0  0  0  0  # atno 8008 bound_to 7997
  154.7206  140.0504  157.0659 H   0  0  0  0  0  0  0  0  0  0  0  0  # atno 8009 bound_to 7997
  155.0483  140.3153  155.4703 H   0  0  0  0  0  0  0  0  0  0  0  0  # atno 8010 bound_to 7997
  139.5088  144.6312  151.5812 H   0  0  0  0  0  0  0  0  0  0  0  0  # atno 10167 bound_to 10162
  156.0058  130.5143  150.6195 H   0  0  0  0  0  0  0  0  0  0  0  0  # atno 10718 bound_to 10713
  154.6039  135.5507  153.7403 H   0  0  0  0  0  0  0  0  0  0  0  0  # atno 10763 bound_to 10752
  153.0166  135.6373  154.1675 H   0  0  0  0  0  0  0  0  0  0  0  0  # atno 10764 bound_to 10752
  154.1614  135.2897  155.3087 H   0  0  0  0  0  0  0  0  0  0  0  0  # atno 10765 bound_to 10752
  140.1208  134.4831  155.8599 H   0  0  0  0  0  0  0  0  0  0  0  0  # atno 11005 bound_to 11000
  146.1317  139.4354  143.0164 LP  0  0  0  0  0  0  0  0  0  0  0  0  # atno 17320 bound_to 7965
  145.7153  141.0093  143.1431 LP  0  0  0  0  0  0  0  0  0  0  0  0  # atno 17321 bound_to 7965
  140.6046  143.9548  150.6409 LP  0  0  0  0  0  0  0  0  0  0  0  0  # atno 17342 bound_to 10162
  140.2771  143.3415  152.1185 LP  0  0  0  0  0  0  0  0  0  0  0  0  # atno 17343 bound_to 10162
  157.4013  131.0810  151.1306 LP  0  0  0  0  0  0  0  0  0  0  0  0  # atno 17370 bound_to 10713
  157.1966  130.6376  149.5723 LP  0  0  0  0  0  0  0  0  0  0  0  0  # atno 17371 bound_to 10713
  141.2151  133.6760  156.6885 LP  0  0  0  0  0  0  0  0  0  0  0  0  # atno 17394 bound_to 11000
  140.2967  134.8197  157.4063 LP  0  0  0  0  0  0  0  0  0  0  0  0  # atno 17395 bound_to 11000

$$$$
