AV-unprocessed.smi:2855|AV-procd|sdf|10979|dock7
  -GOLD-   2272015433D 1   1.00000     0.00000
 Structure written by MMmdl.
 47 48  0  0  0  0  0  0  0  0  1 V2000
  152.8777  144.7201  158.2600 C   0  0  0  0  0  0  0  0  0  0  0  0
  151.6874  144.1341  159.0403 C   0  0  2  0  0  0  0  0  0  0  0  0
  152.1287  143.2525  160.2229 C   0  0  0  0  0  0  0  0  0  0  0  0
  152.6925  141.8964  159.7668 C   0  0  0  0  0  0  0  0  0  0  0  0
  151.6907  141.1208  158.8787 C   0  0  2  0  0  0  0  0  0  0  0  0
  152.1940  139.7021  158.4725 C   0  0  0  0  0  0  0  0  0  0  0  0
  151.0384  138.7287  158.1828 C   0  0  0  0  0  0  0  0  0  0  0  0
  153.1946  139.0805  159.4641 C   0  0  0  0  0  0  0  0  0  0  0  0
  151.2562  142.0001  157.6745 C   0  0  1  0  0  0  0  0  0  0  0  0
  150.2385  141.3150  156.8814 N   0  0  0  0  0  0  0  0  0  0  0  0
  150.4686  140.5603  155.7966 C   0  0  0  0  0  0  0  0  0  0  0  0
  151.5855  140.4080  155.3004 O   0  0  0  0  0  0  0  0  0  0  0  0
  149.2397  139.8871  155.1711 C   0  0  0  0  0  0  0  0  0  0  0  0
  148.0910  140.7974  155.0607 N   0  0  0  0  0  0  0  0  0  0  0  0
  147.8067  141.4281  153.8576 C   0  0  0  0  0  0  0  0  0  0  0  0
  146.7617  142.2723  153.6874 C   0  0  0  0  0  0  0  0  0  0  0  0
  145.8595  142.5642  154.7962 C   0  0  0  0  0  0  0  0  0  0  0  0
  144.8881  143.3152  154.7415 O   0  0  0  0  0  0  0  0  0  0  0  0
  146.1768  141.9087  155.9886 N   0  0  0  0  0  0  0  0  0  0  0  0
  147.2515  141.0369  156.1710 C   0  0  0  0  0  0  0  0  0  0  0  0
  147.4401  140.5079  157.2662 O   0  0  0  0  0  0  0  0  0  0  0  0
  150.7045  143.3651  158.1373 C   0  0  0  0  0  0  0  0  0  0  0  0
  145.5778  142.0775  156.7837 H   0  0  0  0  0  0  0  0  0  0  0  0
  153.4923  143.9458  157.8018 H   0  0  0  0  0  0  0  0  0  0  0  0
  153.5226  145.3059  158.9153 H   0  0  0  0  0  0  0  0  0  0  0  0
  152.5350  145.3811  157.4638 H   0  0  0  0  0  0  0  0  0  0  0  0
  151.1470  144.9858  159.4552 H   0  0  0  0  0  0  0  0  0  0  0  0
  152.8669  143.7782  160.8294 H   0  0  0  0  0  0  0  0  0  0  0  0
  151.2728  143.0767  160.8761 H   0  0  0  0  0  0  0  0  0  0  0  0
  153.6277  142.0562  159.2311 H   0  0  0  0  0  0  0  0  0  0  0  0
  152.9456  141.3159  160.6531 H   0  0  0  0  0  0  0  0  0  0  0  0
  150.7961  140.9647  159.4844 H   0  0  0  0  0  0  0  0  0  0  0  0
  152.7232  139.8002  157.5245 H   0  0  0  0  0  0  0  0  0  0  0  0
  150.4931  138.4624  159.0879 H   0  0  0  0  0  0  0  0  0  0  0  0
  151.4122  137.8020  157.7465 H   0  0  0  0  0  0  0  0  0  0  0  0
  150.3281  139.1573  157.4755 H   0  0  0  0  0  0  0  0  0  0  0  0
  152.7448  138.9114  160.4421 H   0  0  0  0  0  0  0  0  0  0  0  0
  154.0737  139.7097  159.6009 H   0  0  0  0  0  0  0  0  0  0  0  0
  153.5497  138.1162  159.0994 H   0  0  0  0  0  0  0  0  0  0  0  0
  152.1331  142.1843  157.0534 H   0  0  0  0  0  0  0  0  0  0  0  0
  149.2862  141.3898  157.2081 H   0  0  0  0  0  0  0  0  0  0  0  0
  149.4893  139.4868  154.1859 H   0  0  0  0  0  0  0  0  0  0  0  0
  148.9849  139.0188  155.7802 H   0  0  0  0  0  0  0  0  0  0  0  0
  148.4455  141.2384  153.0067 H   0  0  0  0  0  0  0  0  0  0  0  0
  146.5916  142.7333  152.7250 H   0  0  0  0  0  0  0  0  0  0  0  0
  149.7750  143.2063  158.6865 H   0  0  0  0  0  0  0  0  0  0  0  0
  150.4412  143.9766  157.2732 H   0  0  0  0  0  0  0  0  0  0  0  0
  1  2  1  0  0  0  0
  1 24  1  0  0  0  0
  1 25  1  0  0  0  0
  1 26  1  0  0  0  0
  2 22  1  0  0  0  0
  2  3  1  0  0  0  0
  2 27  1  0  0  0  0
  3  4  1  0  0  0  0
  3 28  1  0  0  0  0
  3 29  1  0  0  0  0
  4  5  1  0  0  0  0
  4 30  1  0  0  0  0
  4 31  1  0  0  0  0
  5  6  1  0  0  0  0
  5  9  1  0  0  0  0
  5 32  1  0  0  0  0
  6  7  1  0  0  0  0
  6  8  1  0  0  0  0
  6 33  1  0  0  0  0
  7 34  1  0  0  0  0
  7 35  1  0  0  0  0
  7 36  1  0  0  0  0
  8 37  1  0  0  0  0
  8 38  1  0  0  0  0
  8 39  1  0  0  0  0
  9 10  1  0  0  0  0
  9 22  1  0  0  0  0
  9 40  1  0  0  0  0
 10 11  1  0  0  0  0
 10 41  1  0  0  0  0
 11 12  2  0  0  0  0
 11 13  1  0  0  0  0
 13 14  1  0  0  0  0
 13 42  1  0  0  0  0
 13 43  1  0  0  0  0
 14 20  1  0  0  0  0
 14 15  1  0  0  0  0
 15 16  2  0  0  0  0
 15 44  1  0  0  0  0
 16 17  1  0  0  0  0
 16 45  1  0  0  0  0
 17 18  2  0  0  0  0
 17 19  1  0  0  0  0
 19 23  1  0  0  0  0
 19 20  1  0  0  0  0
 20 21  2  0  0  0  0
 22 46  1  0  0  0  0
 22 47  1  0  0  0  0
M  END
> <s_m_source_file>
AV-unprocessed.smi

> <i_m_source_file_index>
2855

> <i_lp_mmshare_version>
43012

> <i_f3d_flags>
0

> <s_epik_input>
W0NIM11bQ0BASF0xW0NIMl1bQ0gyXVtDQEBIXShbQ0hdKFtDSDNdKVtDSDNdKVtDQEhdKFtDSDJdMSlbTkhdQyg9TylbQ0gyXW4yW2NIXVtjSF1jKD1PKVtuSF1jMj1P

> <s_epik_cmdline>
J2VwaWtfcHl0aG9uJywgJy1waCcsICc3LjAnLCAnLXRuJywgJzgnLCAnLW1hJywgJzIwMCcsICctbWV0YWxfYmluZGluZycsICctaW1hZScsICc8aW5maWxlLm1hZT4nLCAnLW9tYWUnLCAnPG91dGZpbGUubWFlPic=

> <r_lp_tautomer_probability>
0.999537

> <r_epik_Ionization_Penalty>
0.00306256

> <r_epik_Ionization_Penalty_Charging>
0.00306254

> <r_epik_Ionization_Penalty_Neutral>
2.0223e-08

> <r_epik_State_Penalty>
0.0021533

> <r_epik_Charging_Adjusted_Penalty>
0.00521583

> <i_epik_Tot_Q>
0

> <i_epik_Tot_abs_Q>
0

> <r_epik_Metal_State_Penalty>
0.362116

> <b_epik_Metal_Only>
0

> <s_lp_Force_Field>
OPLS_2005

> <r_lp_Energy>
15.7359

> <b_lp_Chiralities_Consistent>
1

> <s_lp_Variant>
AV-unprocessed.smi:2855-3

> <Gold.Version>
5.8.1

> <Gold.Id.Protein>
6NUR|6NUR_protein|mol2

> <Gold.PLP.Fitness>
44.9869

> <Gold.PLP.PLP>
-42.2517

> <Gold.PLP.part.hbond>
-1.0000

> <Gold.PLP.part.metal>
0.0000

> <Gold.PLP.part.buried>
-7.7696

> <Gold.PLP.part.nonpolar>
-34.4075

> <Gold.PLP.part.repulsive>
0.2580

> <Gold.PLP.ligand.clash>
0.0000

> <Gold.PLP.ligand.torsion>
1.4601

> <Gold.PLP.Chemscore.Hbond>
0.8640

> <Gold.PLP.Chemscore.CHOScore>
1.0000

> <Gold.PLP.Chemscore.Metal>
0.0000

> <Gold.Chemscore.Hbonds>
donor molecule, donor type, donor heavy atom, donor atom, acceptor molecule, acceptor atom, score
      P1  H  7989  7998       L1    12  0.86
      L1  C    15    44       P1  7957  1.00

> <Gold.PLP.Chemscore.Internal.Correction>
0.0634

> <Gold.Rescore>
     Score         DG    S(hbond)    S(metal)    S(lipo)     H(rot)  DE(clash)    DE(int)     intcor
     15.01     -16.65       0.93        0.00     109.48       1.85       0.07       1.57       ----

> <Gold.Chemscore.Fitness>
15.0105

> <Gold.Chemscore.DG>
-16.6528

> <Gold.Chemscore.ZeroCoef>
-5.4800

> <Gold.Chemscore.Hbond>
0.9311

> <Gold.Chemscore.Metal>
0.0000

> <Gold.Chemscore.Lipo>
109.4773

> <Gold.Chemscore.Internal_Hbond>
0.0000

> <Gold.Chemscore.DEClash>
0.0674

> <Gold.Chemscore.DEInternal>
1.5748

> <Gold.Chemscore.Rot>
1.8539

> <Gold.Chemscore.Internal.Correction>
   9.000000E+99

> <Gold.Chemscore.Hbonds>
donor molecule, donor type, donor heavy atom, donor atom, acceptor molecule, acceptor atom, score
      P1  H  7989  7998       L1    12  0.72

> <Gold.Chemscore.Hbond.Weighted>
-3.1100

> <Gold.Chemscore.Metal.Weighted>
-0.0000

> <Gold.Chemscore.Lipo.Weighted>
-12.8088

> <Gold.Chemscore.Internal_Hbond.Weighted>
0.0000

> <Gold.Chemscore.DEClash.Weighted>
0.0674

> <Gold.Chemscore.DEInternal.Weighted>
1.5748

> <Gold.Chemscore.Rot.Weighted>
4.7460

> <Gold.Chemscore.Internal.Correction.Weighted>
   9.000000E+99

> <Gold.Protein.RotatedTorsions>
[ 6907 6896 6895 6894 ] final    4.15 input  -60.11 | X-H torsion
[ 7974 7965 7964 7962 ] final  -13.45 input  175.53 | X-H torsion
[ 8008 7997 7996 7995 ] final  -82.22 input   59.86 | X-H torsion
[ 10167 10162 10161 10158 ] final -151.94 input  -65.29 | X-H torsion
[ 10718 10713 10712 10709 ] final -120.55 input   66.30 | X-H torsion
[ 10763 10752 10751 10750 ] final   22.13 input  -60.55 | X-H torsion
[ 11005 11000 10999 10996 ] final  -52.29 input  -57.11 | X-H torsion

> <Gold.Protein.ActiveResidues>
 VAL166  LYS551  ARG553  GLY616  TRP617  ASP618  TYR619  PRO620  LYS621  CYS622 
 ASP623  PHE694  ASN695  SER759  ASP760  ASP761  ALA762  ILE779  LEU786  VAL792 
 PHE793  MET794  SER795  GLU796  ALA797  LYS798  CYS799  TRP800  GLU811  SER814 

> <Gold.Protein.RotatedAtoms>
  151.6366  135.1017  160.0132 H   0  0  0  0  0  0  0  0  0  0  0  0  # atno 6907 bound_to 6896
  152.4077  133.6910  159.6379 H   0  0  0  0  0  0  0  0  0  0  0  0  # atno 6908 bound_to 6896
  150.7970  133.8597  159.3269 H   0  0  0  0  0  0  0  0  0  0  0  0  # atno 6909 bound_to 6896
  146.2114  140.3205  142.8390 H   0  0  0  0  0  0  0  0  0  0  0  0  # atno 7974 bound_to 7965
  154.6063  140.0636  156.9436 H   0  0  0  0  0  0  0  0  0  0  0  0  # atno 8008 bound_to 7997
  155.2047  140.3318  155.4319 H   0  0  0  0  0  0  0  0  0  0  0  0  # atno 8009 bound_to 7997
  156.2350  140.1858  156.7128 H   0  0  0  0  0  0  0  0  0  0  0  0  # atno 8010 bound_to 7997
  139.7224  143.8936  152.2508 H   0  0  0  0  0  0  0  0  0  0  0  0  # atno 10167 bound_to 10162
  156.1267  130.6364  150.9554 H   0  0  0  0  0  0  0  0  0  0  0  0  # atno 10718 bound_to 10713
  153.0940  135.6654  153.9799 H   0  0  0  0  0  0  0  0  0  0  0  0  # atno 10763 bound_to 10752
  153.9387  135.2996  155.3445 H   0  0  0  0  0  0  0  0  0  0  0  0  # atno 10764 bound_to 10752
  154.7357  135.5102  153.9112 H   0  0  0  0  0  0  0  0  0  0  0  0  # atno 10765 bound_to 10752
  141.0916  133.6631  156.4002 H   0  0  0  0  0  0  0  0  0  0  0  0  # atno 11005 bound_to 11000
  144.8924  140.7540  143.5918 LP  0  0  0  0  0  0  0  0  0  0  0  0  # atno 17320 bound_to 7965
  145.3128  139.1813  143.4630 LP  0  0  0  0  0  0  0  0  0  0  0  0  # atno 17321 bound_to 7965
  139.8836  144.7004  150.8850 LP  0  0  0  0  0  0  0  0  0  0  0  0  # atno 17342 bound_to 10162
  140.7756  143.3642  151.1771 LP  0  0  0  0  0  0  0  0  0  0  0  0  # atno 17343 bound_to 10162
  157.6448  131.0905  150.8176 LP  0  0  0  0  0  0  0  0  0  0  0  0  # atno 17370 bound_to 10713
  156.8266  130.5001  149.5336 LP  0  0  0  0  0  0  0  0  0  0  0  0  # atno 17371 bound_to 10713
  140.5238  134.6279  157.5327 LP  0  0  0  0  0  0  0  0  0  0  0  0  # atno 17394 bound_to 11000
  139.9744  134.7240  155.9979 LP  0  0  0  0  0  0  0  0  0  0  0  0  # atno 17395 bound_to 11000

$$$$
