AV-unprocessed.smi:2603|AV-procd|sdf|10187|dock6
  -GOLD-   2272014203D 1   1.00000     0.00000
 Structure written by MMmdl.
 35 36  0  0  0  0  0  0  0  0  1 V2000
  146.3102  128.4879  151.8967 C   0  0  0  0  0  0  0  0  0  0  0  0
  145.3978  129.6803  151.6002 C   0  0  0  0  0  0  0  0  0  0  0  0
  145.8368  130.7945  152.3559 O   0  0  0  0  0  0  0  0  0  0  0  0
  145.4426  132.0263  151.7728 C   0  0  2  0  0  0  0  0  0  0  0  0
  146.1188  132.3223  150.4635 C   0  0  0  0  0  0  0  0  0  0  0  0
  146.5553  133.0512  151.7226 C   0  0  2  0  0  0  0  0  0  0  0  0
  147.8164  132.6971  152.2871 N   0  0  0  0  0  0  0  0  0  0  0  0
  148.3183  133.1563  153.4426 C   0  0  0  0  0  0  0  0  0  0  0  0
  147.7547  133.9939  154.1464 O   0  0  0  0  0  0  0  0  0  0  0  0
  149.6637  132.5713  153.8762 C   0  0  0  0  0  0  0  0  0  0  0  0
  150.0185  133.0617  155.2589 C   0  0  0  0  0  0  0  0  0  0  0  0
  150.3535  132.2827  156.4039 C   0  0  0  0  0  0  0  0  0  0  0  0
  150.4341  130.7885  156.5301 C   0  0  0  0  0  0  0  0  0  0  0  0
  150.6157  133.0385  157.4566 N   0  0  0  0  0  0  0  0  0  0  0  0
  150.4658  134.3602  157.0263 O   0  0  0  0  0  0  0  0  0  0  0  0
  150.1120  134.3483  155.7165 C   0  0  0  0  0  0  0  0  0  0  0  0
  149.9151  135.6788  155.0721 C   0  0  0  0  0  0  0  0  0  0  0  0
  145.9846  127.6033  151.3493 H   0  0  0  0  0  0  0  0  0  0  0  0
  146.3045  128.2452  152.9597 H   0  0  0  0  0  0  0  0  0  0  0  0
  147.3391  128.6997  151.6063 H   0  0  0  0  0  0  0  0  0  0  0  0
  145.4232  129.9149  150.5350 H   0  0  0  0  0  0  0  0  0  0  0  0
  144.3675  129.4343  151.8612 H   0  0  0  0  0  0  0  0  0  0  0  0
  144.4230  132.3534  151.9701 H   0  0  0  0  0  0  0  0  0  0  0  0
  146.7834  131.5627  150.0561 H   0  0  0  0  0  0  0  0  0  0  0  0
  145.5545  132.8899  149.7264 H   0  0  0  0  0  0  0  0  0  0  0  0
  146.2518  134.0945  151.7957 H   0  0  0  0  0  0  0  0  0  0  0  0
  148.3524  132.0028  151.7870 H   0  0  0  0  0  0  0  0  0  0  0  0
  149.6005  131.4834  153.8397 H   0  0  0  0  0  0  0  0  0  0  0  0
  150.4280  132.8526  153.1507 H   0  0  0  0  0  0  0  0  0  0  0  0
  150.6730  130.3231  155.5736 H   0  0  0  0  0  0  0  0  0  0  0  0
  149.4857  130.3749  156.8732 H   0  0  0  0  0  0  0  0  0  0  0  0
  151.2055  130.4891  157.2406 H   0  0  0  0  0  0  0  0  0  0  0  0
  149.6624  135.5735  154.0172 H   0  0  0  0  0  0  0  0  0  0  0  0
  150.8230  136.2772  155.1403 H   0  0  0  0  0  0  0  0  0  0  0  0
  149.1098  136.2285  155.5595 H   0  0  0  0  0  0  0  0  0  0  0  0
  1  2  1  0  0  0  0
  1 18  1  0  0  0  0
  1 19  1  0  0  0  0
  1 20  1  0  0  0  0
  2  3  1  0  0  0  0
  2 21  1  0  0  0  0
  2 22  1  0  0  0  0
  3  4  1  0  0  0  0
  4  6  1  0  0  0  0
  4  5  1  0  0  0  0
  4 23  1  0  0  0  0
  5  6  1  0  0  0  0
  5 24  1  0  0  0  0
  5 25  1  0  0  0  0
  6  7  1  0  0  0  0
  6 26  1  0  0  0  0
  7  8  1  0  0  0  0
  7 27  1  0  0  0  0
  8  9  2  0  0  0  0
  8 10  1  0  0  0  0
 10 11  1  0  0  0  0
 10 28  1  0  0  0  0
 10 29  1  0  0  0  0
 11 16  2  0  0  0  0
 11 12  1  0  0  0  0
 12 13  1  0  0  0  0
 12 14  2  0  0  0  0
 13 30  1  0  0  0  0
 13 31  1  0  0  0  0
 13 32  1  0  0  0  0
 14 15  1  0  0  0  0
 15 16  1  0  0  0  0
 16 17  1  0  0  0  0
 17 33  1  0  0  0  0
 17 34  1  0  0  0  0
 17 35  1  0  0  0  0
M  END
> <s_m_source_file>
AV-unprocessed.smi

> <i_m_source_file_index>
2603

> <i_lp_mmshare_version>
43012

> <i_f3d_flags>
0

> <s_epik_input>
W0NIM11bQ0gyXU9bQ0BASF0xW0NIMl1bQ0BIXTFbTkhdQyg9TylbQ0gyXWMyYyhbQ0gzXSlub2MyW0NIM10=

> <s_epik_cmdline>
J2VwaWtfcHl0aG9uJywgJy1waCcsICc3LjAnLCAnLXRuJywgJzgnLCAnLW1hJywgJzIwMCcsICctbWV0YWxfYmluZGluZycsICctaW1hZScsICc8aW5maWxlLm1hZT4nLCAnLW9tYWUnLCAnPG91dGZpbGUubWFlPic=

> <r_lp_tautomer_probability>
1

> <r_epik_Ionization_Penalty>
2.37325e-08

> <r_epik_Ionization_Penalty_Charging>
0

> <r_epik_Ionization_Penalty_Neutral>
2.37325e-08

> <r_epik_State_Penalty>
-0

> <r_epik_Charging_Adjusted_Penalty>
0

> <i_epik_Tot_Q>
0

> <i_epik_Tot_abs_Q>
0

> <r_epik_Metal_State_Penalty>
-0

> <b_epik_Metal_Only>
0

> <s_lp_Force_Field>
OPLS_2005

> <r_lp_Energy>
11.1697

> <b_lp_Chiralities_Consistent>
1

> <s_lp_Variant>
AV-unprocessed.smi:2603-3

> <Gold.Version>
5.8.1

> <Gold.Id.Protein>
6NUR|6NUR_protein|mol2

> <Gold.PLP.Fitness>
34.6465

> <Gold.PLP.PLP>
-29.2291

> <Gold.PLP.part.hbond>
-2.6609

> <Gold.PLP.part.metal>
0.0000

> <Gold.PLP.part.buried>
-4.9265

> <Gold.PLP.part.nonpolar>
-22.2400

> <Gold.PLP.part.repulsive>
0.2957

> <Gold.PLP.ligand.clash>
0.0000

> <Gold.PLP.ligand.torsion>
0.6306

> <Gold.PLP.Chemscore.Hbond>
2.0000

> <Gold.PLP.Chemscore.CHOScore>
0.0000

> <Gold.PLP.Chemscore.Metal>
0.0000

> <Gold.Chemscore.Hbonds>
donor molecule, donor type, donor heavy atom, donor atom, acceptor molecule, acceptor atom, score
      L1  H     7    27       P1 10747  1.00
      P1  H  6896  6907       L1    14  0.80

> <Gold.PLP.Chemscore.Internal.Correction>
0.6785

> <Gold.Rescore>
     Score         DG    S(hbond)    S(metal)    S(lipo)     H(rot)  DE(clash)    DE(int)     intcor
     13.56     -15.61       1.70        0.00      75.04       1.69       0.23       1.82       ----

> <Gold.Chemscore.Fitness>
13.5592

> <Gold.Chemscore.DG>
-15.6107

> <Gold.Chemscore.ZeroCoef>
-5.4800

> <Gold.Chemscore.Hbond>
1.7024

> <Gold.Chemscore.Metal>
0.0000

> <Gold.Chemscore.Lipo>
75.0386

> <Gold.Chemscore.Internal_Hbond>
0.0000

> <Gold.Chemscore.DEClash>
0.2317

> <Gold.Chemscore.DEInternal>
1.8198

> <Gold.Chemscore.Rot>
1.6933

> <Gold.Chemscore.Internal.Correction>
   9.000000E+99

> <Gold.Chemscore.Hbonds>
donor molecule, donor type, donor heavy atom, donor atom, acceptor molecule, acceptor atom, score
      L1  H     7    27       P1 10747  0.97
      P1  H  6896  6907       L1    14  0.12

> <Gold.Chemscore.Hbond.Weighted>
-5.6859

> <Gold.Chemscore.Metal.Weighted>
-0.0000

> <Gold.Chemscore.Lipo.Weighted>
-8.7795

> <Gold.Chemscore.Internal_Hbond.Weighted>
0.0000

> <Gold.Chemscore.DEClash.Weighted>
0.2317

> <Gold.Chemscore.DEInternal.Weighted>
1.8198

> <Gold.Chemscore.Rot.Weighted>
4.3348

> <Gold.Chemscore.Internal.Correction.Weighted>
   9.000000E+99

> <Gold.Protein.RotatedTorsions>
[ 6907 6896 6895 6894 ] final -147.97 input  -60.11 | X-H torsion
[ 7974 7965 7964 7962 ] final  127.88 input  175.53 | X-H torsion
[ 8008 7997 7996 7995 ] final  153.63 input   59.86 | X-H torsion
[ 10167 10162 10161 10158 ] final  -74.60 input  -65.29 | X-H torsion
[ 10718 10713 10712 10709 ] final -179.59 input   66.30 | X-H torsion
[ 10763 10752 10751 10750 ] final  159.56 input  -60.55 | X-H torsion
[ 11005 11000 10999 10996 ] final   20.29 input  -57.11 | X-H torsion

> <Gold.Protein.ActiveResidues>
 VAL166  LYS551  ARG553  GLY616  TRP617  ASP618  TYR619  PRO620  LYS621  CYS622 
 ASP623  PHE694  ASN695  SER759  ASP760  ASP761  ALA762  ILE779  LEU786  VAL792 
 PHE793  MET794  SER795  GLU796  ALA797  LYS798  CYS799  TRP800  GLU811  SER814 

> <Gold.Protein.RotatedAtoms>
  151.1632  133.4832  159.2593 H   0  0  0  0  0  0  0  0  0  0  0  0  # atno 6907 bound_to 6896
  151.1433  135.0190  159.8645 H   0  0  0  0  0  0  0  0  0  0  0  0  # atno 6908 bound_to 6896
  152.5463  134.1523  159.8577 H   0  0  0  0  0  0  0  0  0  0  0  0  # atno 6909 bound_to 6896
  145.0457  139.3925  143.5079 H   0  0  0  0  0  0  0  0  0  0  0  0  # atno 7974 bound_to 7965
  156.2572  140.1988  156.6520 H   0  0  0  0  0  0  0  0  0  0  0  0  # atno 8008 bound_to 7997
  154.6529  140.0570  157.0001 H   0  0  0  0  0  0  0  0  0  0  0  0  # atno 8009 bound_to 7997
  155.1390  140.3241  155.4459 H   0  0  0  0  0  0  0  0  0  0  0  0  # atno 8010 bound_to 7997
  140.5013  143.2361  151.7747 H   0  0  0  0  0  0  0  0  0  0  0  0  # atno 10167 bound_to 10162
  156.8614  130.9753  151.3083 H   0  0  0  0  0  0  0  0  0  0  0  0  # atno 10718 bound_to 10713
  154.2337  135.2777  155.2880 H   0  0  0  0  0  0  0  0  0  0  0  0  # atno 10763 bound_to 10752
  154.5603  135.5649  153.7004 H   0  0  0  0  0  0  0  0  0  0  0  0  # atno 10764 bound_to 10752
  153.0014  135.6296  154.2479 H   0  0  0  0  0  0  0  0  0  0  0  0  # atno 10765 bound_to 10752
  140.4042  134.1686  155.7665 H   0  0  0  0  0  0  0  0  0  0  0  0  # atno 11005 bound_to 11000
  146.3513  140.0082  142.8669 LP  0  0  0  0  0  0  0  0  0  0  0  0  # atno 17320 bound_to 7965
  145.1590  140.9663  143.4388 LP  0  0  0  0  0  0  0  0  0  0  0  0  # atno 17321 bound_to 7965
  139.4873  144.4518  151.9645 LP  0  0  0  0  0  0  0  0  0  0  0  0  # atno 17342 bound_to 10162
  140.3607  144.2976  150.5934 LP  0  0  0  0  0  0  0  0  0  0  0  0  # atno 17343 bound_to 10162
  157.6248  130.8683  149.9170 LP  0  0  0  0  0  0  0  0  0  0  0  0  # atno 17370 bound_to 10713
  156.0775  130.3677  150.0648 LP  0  0  0  0  0  0  0  0  0  0  0  0  # atno 17371 bound_to 10713
  141.1845  133.8342  157.1137 LP  0  0  0  0  0  0  0  0  0  0  0  0  # atno 17394 bound_to 11000
  140.0314  134.9899  157.0787 LP  0  0  0  0  0  0  0  0  0  0  0  0  # atno 17395 bound_to 11000

$$$$
