AV-unprocessed.smi:2525|AV-procd|sdf|9927|dock3
  -GOLD-   2272013563D 1   1.00000     0.00000
 Structure written by MMmdl.
 44 45  0  0  0  0  0  0  0  0  1 V2000
  150.4237  140.9130  156.6996 C   0  0  0  0  0  0  0  0  0  0  0  0
  149.5556  139.6727  156.4443 C   0  0  0  0  0  0  0  0  0  0  0  0
  149.3913  139.2644  154.9634 C   0  0  0  0  0  0  0  0  0  0  0  0
  150.8132  138.9857  154.3818 C   0  0  0  0  0  0  0  0  0  0  0  0
  151.6358  137.8959  155.0909 C   0  0  0  0  0  0  0  0  0  0  0  0
  148.3178  138.1599  154.7339 C   0  0  2  0  0  0  0  0  0  0  0  0
  148.8429  136.8132  154.5461 N   0  0  0  0  0  0  0  0  0  0  0  0
  149.1974  135.9903  155.5438 C   0  0  0  0  0  0  0  0  0  0  0  0
  149.0122  136.2451  156.7335 O   0  0  0  0  0  0  0  0  0  0  0  0
  149.8950  134.6927  155.1363 C   0  0  0  0  0  0  0  0  0  0  0  0
  148.9820  133.8260  154.4112 N   0  0  0  0  0  0  0  0  0  0  0  0
  149.1680  133.2107  153.1901 C   0  0  0  0  0  0  0  0  0  0  0  0
  147.9895  132.5527  152.9830 C   0  0  0  0  0  0  0  0  0  0  0  0
  147.1485  132.7903  154.0687 N   0  0  0  0  0  0  0  0  0  0  0  0
  147.7562  133.5545  154.9207 N   0  0  0  0  0  0  0  0  0  0  0  0
  147.9435  138.8484  153.4168 C   0  0  1  0  0  0  0  0  0  0  0  0
  146.5216  138.7376  152.8817 C   0  0  0  0  0  0  0  0  0  0  0  0
  148.4387  140.1407  154.0957 C   0  0  1  0  0  0  0  0  0  0  0  0
  147.4302  140.7663  154.8843 O   0  0  0  0  0  0  0  0  0  0  0  0
  146.7030  141.7576  154.1787 C   0  0  0  0  0  0  0  0  0  0  0  0
  150.3454  141.2240  157.7414 H   0  0  0  0  0  0  0  0  0  0  0  0
  150.1136  141.7552  156.0809 H   0  0  0  0  0  0  0  0  0  0  0  0
  151.4766  140.7117  156.5078 H   0  0  0  0  0  0  0  0  0  0  0  0
  149.9491  138.8392  157.0272 H   0  0  0  0  0  0  0  0  0  0  0  0
  148.5747  139.8675  156.8790 H   0  0  0  0  0  0  0  0  0  0  0  0
  150.7462  138.7319  153.3234 H   0  0  0  0  0  0  0  0  0  0  0  0
  151.4312  139.8825  154.4013 H   0  0  0  0  0  0  0  0  0  0  0  0
  152.5280  137.6577  154.5114 H   0  0  0  0  0  0  0  0  0  0  0  0
  151.0798  136.9711  155.2313 H   0  0  0  0  0  0  0  0  0  0  0  0
  151.9766  138.2310  156.0703 H   0  0  0  0  0  0  0  0  0  0  0  0
  147.4971  138.2059  155.4543 H   0  0  0  0  0  0  0  0  0  0  0  0
  149.0247  136.5196  153.5972 H   0  0  0  0  0  0  0  0  0  0  0  0
  150.7526  134.9108  154.4984 H   0  0  0  0  0  0  0  0  0  0  0  0
  150.2711  134.1764  156.0209 H   0  0  0  0  0  0  0  0  0  0  0  0
  150.0722  133.2976  152.6059 H   0  0  0  0  0  0  0  0  0  0  0  0
  147.6785  131.9371  152.1520 H   0  0  0  0  0  0  0  0  0  0  0  0
  148.6550  138.5721  152.6353 H   0  0  0  0  0  0  0  0  0  0  0  0
  145.7848  138.9964  153.6424 H   0  0  0  0  0  0  0  0  0  0  0  0
  146.3063  137.7216  152.5509 H   0  0  0  0  0  0  0  0  0  0  0  0
  146.3673  139.4002  152.0302 H   0  0  0  0  0  0  0  0  0  0  0  0
  148.9418  140.8376  153.4261 H   0  0  0  0  0  0  0  0  0  0  0  0
  145.9200  142.1616  154.8202 H   0  0  0  0  0  0  0  0  0  0  0  0
  146.2302  141.3507  153.2849 H   0  0  0  0  0  0  0  0  0  0  0  0
  147.3538  142.5820  153.8843 H   0  0  0  0  0  0  0  0  0  0  0  0
  1  2  1  0  0  0  0
  1 21  1  0  0  0  0
  1 22  1  0  0  0  0
  1 23  1  0  0  0  0
  2  3  1  0  0  0  0
  2 24  1  0  0  0  0
  2 25  1  0  0  0  0
  3 18  1  0  0  0  0
  3  4  1  0  0  0  0
  3  6  1  0  0  0  0
  4  5  1  0  0  0  0
  4 26  1  0  0  0  0
  4 27  1  0  0  0  0
  5 28  1  0  0  0  0
  5 29  1  0  0  0  0
  5 30  1  0  0  0  0
  6  7  1  0  0  0  0
  6 16  1  0  0  0  0
  6 31  1  0  0  0  0
  7  8  1  0  0  0  0
  7 32  1  0  0  0  0
  8  9  2  0  0  0  0
  8 10  1  0  0  0  0
 10 11  1  0  0  0  0
 10 33  1  0  0  0  0
 10 34  1  0  0  0  0
 11 15  1  0  0  0  0
 11 12  1  0  0  0  0
 12 13  2  0  0  0  0
 12 35  1  0  0  0  0
 13 14  1  0  0  0  0
 13 36  1  0  0  0  0
 14 15  2  0  0  0  0
 16 17  1  0  0  0  0
 16 18  1  0  0  0  0
 16 37  1  0  0  0  0
 17 38  1  0  0  0  0
 17 39  1  0  0  0  0
 17 40  1  0  0  0  0
 18 19  1  0  0  0  0
 18 41  1  0  0  0  0
 19 20  1  0  0  0  0
 20 42  1  0  0  0  0
 20 43  1  0  0  0  0
 20 44  1  0  0  0  0
M  END
> <s_m_source_file>
AV-unprocessed.smi

> <i_m_source_file_index>
2525

> <i_lp_mmshare_version>
43012

> <i_f3d_flags>
0

> <s_epik_input>
W0NIM11PW0NAQEhdMVtDQEhdKFtDSDNdKVtDQEBIXShDMShbQ0gyXVtDSDNdKVtDSDJdW0NIM10pW05IXUMoPU8pW0NIMl1uMltjSF1bY0hdbm4y

> <s_epik_cmdline>
J2VwaWtfcHl0aG9uJywgJy1waCcsICc3LjAnLCAnLXRuJywgJzgnLCAnLW1hJywgJzIwMCcsICctbWV0YWxfYmluZGluZycsICctaW1hZScsICc8aW5maWxlLm1hZT4nLCAnLW9tYWUnLCAnPG91dGZpbGUubWFlPic=

> <r_lp_tautomer_probability>
1

> <r_epik_Ionization_Penalty>
1.18045e-06

> <r_epik_Ionization_Penalty_Charging>
0

> <r_epik_Ionization_Penalty_Neutral>
1.18045e-06

> <r_epik_State_Penalty>
-0

> <r_epik_Charging_Adjusted_Penalty>
0

> <i_epik_Tot_Q>
0

> <i_epik_Tot_abs_Q>
0

> <r_epik_Metal_State_Penalty>
-0

> <b_epik_Metal_Only>
0

> <s_lp_Force_Field>
OPLS_2005

> <r_lp_Energy>
28.7766

> <b_lp_Chiralities_Consistent>
1

> <s_lp_Variant>
AV-unprocessed.smi:2525-2

> <Gold.Version>
5.8.1

> <Gold.Id.Protein>
6NUR|6NUR_protein|mol2

> <Gold.PLP.Fitness>
34.1375

> <Gold.PLP.PLP>
-28.7888

> <Gold.PLP.part.hbond>
-1.0000

> <Gold.PLP.part.metal>
0.0000

> <Gold.PLP.part.buried>
-0.7731

> <Gold.PLP.part.nonpolar>
-27.0399

> <Gold.PLP.part.repulsive>
0.2008

> <Gold.PLP.ligand.clash>
0.0000

> <Gold.PLP.ligand.torsion>
0.6806

> <Gold.PLP.Chemscore.Hbond>
1.0000

> <Gold.PLP.Chemscore.CHOScore>
1.0000

> <Gold.PLP.Chemscore.Metal>
0.0000

> <Gold.Chemscore.Hbonds>
donor molecule, donor type, donor heavy atom, donor atom, acceptor molecule, acceptor atom, score
      L1  H     7    32       P1  7948  1.00
      L1  C    13    36       P1 10747  1.00

> <Gold.PLP.Chemscore.Internal.Correction>
0.7098

> <Gold.Rescore>
     Score         DG    S(hbond)    S(metal)    S(lipo)     H(rot)  DE(clash)    DE(int)     intcor
     12.09     -12.78       1.00        0.00      77.21       1.98       0.12       0.57       ----

> <Gold.Chemscore.Fitness>
12.0887

> <Gold.Chemscore.DG>
-12.7775

> <Gold.Chemscore.ZeroCoef>
-5.4800

> <Gold.Chemscore.Hbond>
0.9992

> <Gold.Chemscore.Metal>
0.0000

> <Gold.Chemscore.Lipo>
77.2070

> <Gold.Chemscore.Internal_Hbond>
0.0000

> <Gold.Chemscore.DEClash>
0.1220

> <Gold.Chemscore.DEInternal>
0.5669

> <Gold.Chemscore.Rot>
1.9817

> <Gold.Chemscore.Internal.Correction>
   9.000000E+99

> <Gold.Chemscore.Hbonds>
donor molecule, donor type, donor heavy atom, donor atom, acceptor molecule, acceptor atom, score
      L1  H     7    32       P1  7948  1.00

> <Gold.Chemscore.Hbond.Weighted>
-3.3374

> <Gold.Chemscore.Metal.Weighted>
-0.0000

> <Gold.Chemscore.Lipo.Weighted>
-9.0332

> <Gold.Chemscore.Internal_Hbond.Weighted>
0.0000

> <Gold.Chemscore.DEClash.Weighted>
0.1220

> <Gold.Chemscore.DEInternal.Weighted>
0.5669

> <Gold.Chemscore.Rot.Weighted>
5.0731

> <Gold.Chemscore.Internal.Correction.Weighted>
   9.000000E+99

> <Gold.Protein.RotatedTorsions>
[ 6907 6896 6895 6894 ] final    7.99 input  -60.11 | X-H torsion
[ 7974 7965 7964 7962 ] final   33.91 input  175.53 | X-H torsion
[ 8008 7997 7996 7995 ] final  -35.04 input   59.86 | X-H torsion
[ 10167 10162 10161 10158 ] final  157.71 input  -65.29 | X-H torsion
[ 10718 10713 10712 10709 ] final -107.38 input   66.30 | X-H torsion
[ 10763 10752 10751 10750 ] final    6.42 input  -60.55 | X-H torsion
[ 11005 11000 10999 10996 ] final  -22.80 input  -57.11 | X-H torsion

> <Gold.Protein.ActiveResidues>
 VAL166  LYS551  ARG553  GLY616  TRP617  ASP618  TYR619  PRO620  LYS621  CYS622 
 ASP623  PHE694  ASN695  SER759  ASP760  ASP761  ALA762  ILE779  LEU786  VAL792 
 PHE793  MET794  SER795  GLU796  ALA797  LYS798  CYS799  TRP800  GLU811  SER814 

> <Gold.Protein.RotatedAtoms>
  151.6989  135.0933  160.0246 H   0  0  0  0  0  0  0  0  0  0  0  0  # atno 6907 bound_to 6896
  152.3733  133.6443  159.6112 H   0  0  0  0  0  0  0  0  0  0  0  0  # atno 6908 bound_to 6896
  150.7690  133.9151  159.3422 H   0  0  0  0  0  0  0  0  0  0  0  0  # atno 6909 bound_to 6896
  146.1389  139.6337  142.9176 H   0  0  0  0  0  0  0  0  0  0  0  0  # atno 7974 bound_to 7965
  154.4105  140.1668  156.2147 H   0  0  0  0  0  0  0  0  0  0  0  0  # atno 8008 bound_to 7997
  155.9415  140.3407  155.6308 H   0  0  0  0  0  0  0  0  0  0  0  0  # atno 8009 bound_to 7997
  155.6983  140.0742  157.2411 H   0  0  0  0  0  0  0  0  0  0  0  0  # atno 8010 bound_to 7997
  139.4824  144.4892  151.8333 H   0  0  0  0  0  0  0  0  0  0  0  0  # atno 10167 bound_to 10162
  156.0434  130.5659  150.7813 H   0  0  0  0  0  0  0  0  0  0  0  0  # atno 10718 bound_to 10713
  153.2479  135.6910  153.7711 H   0  0  0  0  0  0  0  0  0  0  0  0  # atno 10763 bound_to 10752
  153.6816  135.3327  155.3180 H   0  0  0  0  0  0  0  0  0  0  0  0  # atno 10764 bound_to 10752
  154.8382  135.4524  154.1425 H   0  0  0  0  0  0  0  0  0  0  0  0  # atno 10765 bound_to 10752
  140.8692  133.7733  156.0166 H   0  0  0  0  0  0  0  0  0  0  0  0  # atno 11005 bound_to 11000
  145.5092  141.0436  143.2497 LP  0  0  0  0  0  0  0  0  0  0  0  0  # atno 17320 bound_to 7965
  144.7770  139.6608  143.7170 LP  0  0  0  0  0  0  0  0  0  0  0  0  # atno 17321 bound_to 7965
  140.4375  144.2032  150.5890 LP  0  0  0  0  0  0  0  0  0  0  0  0  # atno 17342 bound_to 10162
  140.4717  143.2410  151.9079 LP  0  0  0  0  0  0  0  0  0  0  0  0  # atno 17343 bound_to 10162
  157.5280  131.0935  150.9993 LP  0  0  0  0  0  0  0  0  0  0  0  0  # atno 17370 bound_to 10713
  157.0306  130.5710  149.5343 LP  0  0  0  0  0  0  0  0  0  0  0  0  # atno 17371 bound_to 10713
  140.8593  134.2859  157.5241 LP  0  0  0  0  0  0  0  0  0  0  0  0  # atno 17394 bound_to 11000
  139.8711  134.9510  156.4071 LP  0  0  0  0  0  0  0  0  0  0  0  0  # atno 17395 bound_to 11000

$$$$
