AV-unprocessed.smi:2570|AV-procd|sdf|10107|dock9
  -GOLD-   2272014123D 1   1.00000     0.00000
 Structure written by MMmdl.
 32 33  0  0  0  0  0  0  0  0  1 V2000
  148.8809  136.9792  159.5753 C   0  0  0  0  0  0  0  0  0  0  0  0
  149.8351  136.4571  158.6527 O   0  0  0  0  0  0  0  0  0  0  0  0
  150.0968  137.2193  157.5276 C   0  0  0  0  0  0  0  0  0  0  0  0
  149.6391  136.7346  156.2425 C   0  0  0  0  0  0  0  0  0  0  0  0
  149.9010  137.4638  155.1360 C   0  0  0  0  0  0  0  0  0  0  0  0
  150.6363  138.7264  155.2017 C   0  0  0  0  0  0  0  0  0  0  0  0
  150.9068  139.4024  154.2096 O   0  0  0  0  0  0  0  0  0  0  0  0
  151.0077  139.0824  156.4668 N   0  0  0  0  0  0  0  0  0  0  0  0
  151.7879  140.3032  156.7117 C   0  0  0  0  0  0  0  0  0  0  0  0
  152.1716  140.4773  158.2001 C   0  0  1  0  0  0  0  0  0  0  0  0
  153.4269  139.8674  158.4206 O   0  0  0  0  0  0  0  0  0  0  0  0
  152.1424  141.9314  158.6611 C   0  0  0  0  0  0  0  0  0  0  0  0
  151.5859  142.9179  157.8179 C   0  0  0  0  0  0  0  0  0  0  0  0
  151.5804  144.2702  158.2099 C   0  0  0  0  0  0  0  0  0  0  0  0
  152.1319  144.6462  159.4490 C   0  0  0  0  0  0  0  0  0  0  0  0
  152.1295  145.9470  159.8251 F   0  0  0  0  0  0  0  0  0  0  0  0
  152.6882  143.6692  160.2955 C   0  0  0  0  0  0  0  0  0  0  0  0
  152.6959  142.3158  159.9052 C   0  0  0  0  0  0  0  0  0  0  0  0
  153.2501  141.3929  160.7275 F   0  0  0  0  0  0  0  0  0  0  0  0
  150.7344  138.3441  157.6060 N   0  0  0  0  0  0  0  0  0  0  0  0
  148.7838  136.2914  160.4151 H   0  0  0  0  0  0  0  0  0  0  0  0
  147.8927  137.0828  159.1236 H   0  0  0  0  0  0  0  0  0  0  0  0
  149.1930  137.9441  159.9793 H   0  0  0  0  0  0  0  0  0  0  0  0
  149.0980  135.8020  156.1813 H   0  0  0  0  0  0  0  0  0  0  0  0
  149.5617  137.1051  154.1755 H   0  0  0  0  0  0  0  0  0  0  0  0
  152.6844  140.3086  156.0891 H   0  0  0  0  0  0  0  0  0  0  0  0
  151.2084  141.1679  156.3820 H   0  0  0  0  0  0  0  0  0  0  0  0
  151.4567  139.9177  158.8043 H   0  0  0  0  0  0  0  0  0  0  0  0
  153.7539  140.1491  159.2613 H   0  0  0  0  0  0  0  0  0  0  0  0
  151.1685  142.6425  156.8603 H   0  0  0  0  0  0  0  0  0  0  0  0
  151.1558  145.0192  157.5579 H   0  0  0  0  0  0  0  0  0  0  0  0
  153.1146  143.9583  161.2447 H   0  0  0  0  0  0  0  0  0  0  0  0
  1  2  1  0  0  0  0
  1 21  1  0  0  0  0
  1 22  1  0  0  0  0
  1 23  1  0  0  0  0
  2  3  1  0  0  0  0
  3 20  2  0  0  0  0
  3  4  1  0  0  0  0
  4  5  2  0  0  0  0
  4 24  1  0  0  0  0
  5  6  1  0  0  0  0
  5 25  1  0  0  0  0
  6  7  2  0  0  0  0
  6  8  1  0  0  0  0
  8  9  1  0  0  0  0
  8 20  1  0  0  0  0
  9 10  1  0  0  0  0
  9 26  1  0  0  0  0
  9 27  1  0  0  0  0
 10 11  1  0  0  0  0
 10 12  1  0  0  0  0
 10 28  1  0  0  0  0
 11 29  1  0  0  0  0
 12 18  1  0  0  0  0
 12 13  2  0  0  0  0
 13 14  1  0  0  0  0
 13 30  1  0  0  0  0
 14 15  2  0  0  0  0
 14 31  1  0  0  0  0
 15 16  1  0  0  0  0
 15 17  1  0  0  0  0
 17 18  2  0  0  0  0
 17 32  1  0  0  0  0
 18 19  1  0  0  0  0
M  END
> <s_m_source_file>
AV-unprocessed.smi

> <i_m_source_file_index>
2570

> <i_lp_mmshare_version>
43012

> <i_f3d_flags>
0

> <s_epik_input>
W0NIM11PYzFbY0hdW2NIXWMoPU8pbihuMSlbQ0gyXVtDQEhdKFtPSF0pYzJbY0hdW2NIXWMoRilbY0hdYzJG

> <s_epik_cmdline>
J2VwaWtfcHl0aG9uJywgJy1waCcsICc3LjAnLCAnLXRuJywgJzgnLCAnLW1hJywgJzIwMCcsICctbWV0YWxfYmluZGluZycsICctaW1hZScsICc8aW5maWxlLm1hZT4nLCAnLW9tYWUnLCAnPG91dGZpbGUubWFlPic=

> <r_lp_tautomer_probability>
1

> <r_epik_Ionization_Penalty>
6.40224e-06

> <r_epik_Ionization_Penalty_Charging>
4.38647e-06

> <r_epik_Ionization_Penalty_Neutral>
2.01577e-06

> <r_epik_State_Penalty>
-0

> <r_epik_Charging_Adjusted_Penalty>
4.38647e-06

> <i_epik_Tot_Q>
0

> <i_epik_Tot_abs_Q>
0

> <r_epik_Metal_State_Penalty>
-0

> <b_epik_Metal_Only>
0

> <s_lp_Force_Field>
OPLS_2005

> <r_lp_Energy>
26.7666

> <b_lp_Chiralities_Consistent>
1

> <s_lp_Variant>
AV-unprocessed.smi:2570-2

> <Gold.Version>
5.8.1

> <Gold.Id.Protein>
6NUR|6NUR_protein|mol2

> <Gold.PLP.Fitness>
48.1291

> <Gold.PLP.PLP>
-40.7693

> <Gold.PLP.part.hbond>
-3.0000

> <Gold.PLP.part.metal>
0.0000

> <Gold.PLP.part.buried>
-2.9660

> <Gold.PLP.part.nonpolar>
-34.4852

> <Gold.PLP.part.repulsive>
0.1649

> <Gold.PLP.ligand.clash>
0.0000

> <Gold.PLP.ligand.torsion>
0.8340

> <Gold.PLP.Chemscore.Hbond>
3.0000

> <Gold.PLP.Chemscore.CHOScore>
0.0000

> <Gold.PLP.Chemscore.Metal>
0.0000

> <Gold.Chemscore.Hbonds>
donor molecule, donor type, donor heavy atom, donor atom, acceptor molecule, acceptor atom, score
      P1  H  6896  6908       L1     2  0.68
      P1  H  7989  7998       L1     7  1.00
      P1  H  7997  8009       L1    11  1.00

> <Gold.PLP.Chemscore.Internal.Correction>
0.0278

> <Gold.Rescore>
     Score         DG    S(hbond)    S(metal)    S(lipo)     H(rot)  DE(clash)    DE(int)     intcor
     16.40     -18.93       2.71        0.00      91.42       2.45       0.52       2.02       ----

> <Gold.Chemscore.Fitness>
16.3962

> <Gold.Chemscore.DG>
-18.9330

> <Gold.Chemscore.ZeroCoef>
-5.4800

> <Gold.Chemscore.Hbond>
2.7058

> <Gold.Chemscore.Metal>
0.0000

> <Gold.Chemscore.Lipo>
91.4188

> <Gold.Chemscore.Internal_Hbond>
0.0000

> <Gold.Chemscore.DEClash>
0.5163

> <Gold.Chemscore.DEInternal>
2.0205

> <Gold.Chemscore.Rot>
2.4533

> <Gold.Chemscore.Internal.Correction>
   9.000000E+99

> <Gold.Chemscore.Hbonds>
donor molecule, donor type, donor heavy atom, donor atom, acceptor molecule, acceptor atom, score
      P1  H  6896  6908       L1     2  0.38
      P1  H  7989  7998       L1     7  1.00
      P1  H  7997  8009       L1    11  0.67

> <Gold.Chemscore.Hbond.Weighted>
-9.0373

> <Gold.Chemscore.Metal.Weighted>
-0.0000

> <Gold.Chemscore.Lipo.Weighted>
-10.6960

> <Gold.Chemscore.Internal_Hbond.Weighted>
0.0000

> <Gold.Chemscore.DEClash.Weighted>
0.5163

> <Gold.Chemscore.DEInternal.Weighted>
2.0205

> <Gold.Chemscore.Rot.Weighted>
6.2804

> <Gold.Chemscore.Internal.Correction.Weighted>
   9.000000E+99

> <Gold.Protein.RotatedTorsions>
[ 6907 6896 6895 6894 ] final -161.22 input  -60.11 | X-H torsion
[ 7974 7965 7964 7962 ] final  -12.56 input  175.53 | X-H torsion
[ 8008 7997 7996 7995 ] final  140.96 input   59.86 | X-H torsion
[ 10167 10162 10161 10158 ] final  105.41 input  -65.29 | X-H torsion
[ 10718 10713 10712 10709 ] final  -75.05 input   66.30 | X-H torsion
[ 10763 10752 10751 10750 ] final  -66.28 input  -60.55 | X-H torsion
[ 11005 11000 10999 10996 ] final  -36.92 input  -57.11 | X-H torsion

> <Gold.Protein.ActiveResidues>
 VAL166  LYS551  ARG553  GLY616  TRP617  ASP618  TYR619  PRO620  LYS621  CYS622 
 ASP623  PHE694  ASN695  SER759  ASP760  ASP761  ALA762  ILE779  LEU786  VAL792 
 PHE793  MET794  SER795  GLU796  ALA797  LYS798  CYS799  TRP800  GLU811  SER814 

> <Gold.Protein.RotatedAtoms>
  151.3612  133.3889  159.2689 H   0  0  0  0  0  0  0  0  0  0  0  0  # atno 6907 bound_to 6896
  150.9724  134.9095  159.7806 H   0  0  0  0  0  0  0  0  0  0  0  0  # atno 6908 bound_to 6896
  152.5189  134.3574  159.9325 H   0  0  0  0  0  0  0  0  0  0  0  0  # atno 6909 bound_to 6896
  146.2147  140.3075  142.8380 H   0  0  0  0  0  0  0  0  0  0  0  0  # atno 7974 bound_to 7965
  156.2972  140.2327  156.4487 H   0  0  0  0  0  0  0  0  0  0  0  0  # atno 8008 bound_to 7997
  154.8121  140.0442  157.1371 H   0  0  0  0  0  0  0  0  0  0  0  0  # atno 8009 bound_to 7997
  154.9411  140.3029  155.5124 H   0  0  0  0  0  0  0  0  0  0  0  0  # atno 8010 bound_to 7997
  139.7095  144.7080  151.1051 H   0  0  0  0  0  0  0  0  0  0  0  0  # atno 10167 bound_to 10162
  156.0221  130.4431  150.2984 H   0  0  0  0  0  0  0  0  0  0  0  0  # atno 10718 bound_to 10713
  154.3574  135.6123  153.5673 H   0  0  0  0  0  0  0  0  0  0  0  0  # atno 10763 bound_to 10752
  152.9795  135.5807  154.4672 H   0  0  0  0  0  0  0  0  0  0  0  0  # atno 10764 bound_to 10752
  154.4404  135.2850  155.1829 H   0  0  0  0  0  0  0  0  0  0  0  0  # atno 10765 bound_to 10752
  140.9912  133.7004  156.1853 H   0  0  0  0  0  0  0  0  0  0  0  0  # atno 11005 bound_to 11000
  144.9012  140.7645  143.5865 LP  0  0  0  0  0  0  0  0  0  0  0  0  # atno 17320 bound_to 7965
  145.3001  139.1853  143.4694 LP  0  0  0  0  0  0  0  0  0  0  0  0  # atno 17321 bound_to 7965
  140.7730  143.5313  150.9420 LP  0  0  0  0  0  0  0  0  0  0  0  0  # atno 17342 bound_to 10162
  139.8997  143.6851  152.3133 LP  0  0  0  0  0  0  0  0  0  0  0  0  # atno 17343 bound_to 10162
  157.1087  131.0215  151.3057 LP  0  0  0  0  0  0  0  0  0  0  0  0  # atno 17370 bound_to 10713
  157.4722  130.7715  149.7334 LP  0  0  0  0  0  0  0  0  0  0  0  0  # atno 17371 bound_to 10713
  140.7037  134.4536  157.5585 LP  0  0  0  0  0  0  0  0  0  0  0  0  # atno 17394 bound_to 11000
  139.8993  134.8594  156.1965 LP  0  0  0  0  0  0  0  0  0  0  0  0  # atno 17395 bound_to 11000

$$$$
