AV-unprocessed.smi:1686|AV-procd|sdf|6759|dock5
  -GOLD-   22720 7523D 1   1.00000     0.00000
 Structure written by MMmdl.
 41 43  0  0  0  0  0  0  0  0  1 V2000
  150.4331  135.1757  156.5228 C   0  0  0  0  0  0  0  0  0  0  0  0
  150.3208  133.6926  156.3132 C   0  0  0  0  0  0  0  0  0  0  0  0
  150.5822  132.8671  157.3184 N   0  0  0  0  0  0  0  0  0  0  0  0
  150.4074  131.5711  156.8193 O   0  0  0  0  0  0  0  0  0  0  0  0
  150.0454  131.6916  155.5213 C   0  0  0  0  0  0  0  0  0  0  0  0
  149.7446  130.3278  154.5185 Cl  0  0  0  0  0  0  0  0  0  0  0  0
  149.9650  132.9946  155.1223 C   0  0  0  0  0  0  0  0  0  0  0  0
  149.6087  133.5665  153.7744 C   0  0  0  0  0  0  0  0  0  0  0  0
  148.1131  133.3806  153.5257 C   0  0  0  0  0  0  0  0  0  0  0  0
  147.5081  132.4606  154.0753 O   0  0  0  0  0  0  0  0  0  0  0  0
  147.5326  134.2696  152.7049 N   0  0  0  0  0  0  0  0  0  0  0  0
  146.1169  134.3030  152.3483 C   0  0  1  0  0  0  0  0  0  0  0  0
  145.5798  135.7289  152.5552 C   0  0  0  0  0  0  0  0  0  0  0  0
  145.9314  133.8154  150.8926 C   0  0  2  0  0  0  0  0  0  0  0  0
  144.6405  134.3122  150.2030 C   0  0  0  0  0  0  0  0  0  0  0  0
  144.0328  133.0179  149.6302 C   0  0  2  0  0  0  0  0  0  0  0  0
  143.4403  132.1872  150.7835 C   0  0  0  0  0  0  0  0  0  0  0  0
  144.6967  131.6543  151.4955 C   0  0  0  0  0  0  0  0  0  0  0  0
  145.8452  132.2824  150.6789 C   0  0  1  0  0  0  0  0  0  0  0  0
  145.2745  132.2120  149.2662 C   0  0  0  0  0  0  0  0  0  0  0  0
  151.3177  135.5718  156.0240 H   0  0  0  0  0  0  0  0  0  0  0  0
  150.5058  135.4306  157.5806 H   0  0  0  0  0  0  0  0  0  0  0  0
  149.5643  135.6950  156.1179 H   0  0  0  0  0  0  0  0  0  0  0  0
  149.8569  134.6266  153.7078 H   0  0  0  0  0  0  0  0  0  0  0  0
  150.1658  133.0765  152.9751 H   0  0  0  0  0  0  0  0  0  0  0  0
  148.1162  134.9895  152.3038 H   0  0  0  0  0  0  0  0  0  0  0  0
  145.5563  133.6410  153.0098 H   0  0  0  0  0  0  0  0  0  0  0  0
  144.5163  135.7912  152.3250 H   0  0  0  0  0  0  0  0  0  0  0  0
  146.0998  136.4458  151.9191 H   0  0  0  0  0  0  0  0  0  0  0  0
  145.7074  136.0493  153.5896 H   0  0  0  0  0  0  0  0  0  0  0  0
  146.7839  134.1735  150.3121 H   0  0  0  0  0  0  0  0  0  0  0  0
  143.9525  134.8100  150.8876 H   0  0  0  0  0  0  0  0  0  0  0  0
  144.8810  135.0181  149.4071 H   0  0  0  0  0  0  0  0  0  0  0  0
  143.3341  133.1877  148.8104 H   0  0  0  0  0  0  0  0  0  0  0  0
  142.8103  132.7846  151.4435 H   0  0  0  0  0  0  0  0  0  0  0  0
  142.8372  131.3623  150.4023 H   0  0  0  0  0  0  0  0  0  0  0  0
  144.7252  131.9105  152.5540 H   0  0  0  0  0  0  0  0  0  0  0  0
  144.7343  130.5664  151.4272 H   0  0  0  0  0  0  0  0  0  0  0  0
  146.7991  131.7690  150.8046 H   0  0  0  0  0  0  0  0  0  0  0  0
  145.0494  131.1953  148.9385 H   0  0  0  0  0  0  0  0  0  0  0  0
  145.9025  132.6979  148.5173 H   0  0  0  0  0  0  0  0  0  0  0  0
  1  2  1  0  0  0  0
  1 21  1  0  0  0  0
  1 22  1  0  0  0  0
  1 23  1  0  0  0  0
  2  7  1  0  0  0  0
  2  3  2  0  0  0  0
  3  4  1  0  0  0  0
  4  5  1  0  0  0  0
  5  6  1  0  0  0  0
  5  7  2  0  0  0  0
  7  8  1  0  0  0  0
  8  9  1  0  0  0  0
  8 24  1  0  0  0  0
  8 25  1  0  0  0  0
  9 10  2  0  0  0  0
  9 11  1  0  0  0  0
 11 12  1  0  0  0  0
 11 26  1  0  0  0  0
 12 13  1  0  0  0  0
 12 14  1  0  0  0  0
 12 27  1  0  0  0  0
 13 28  1  0  0  0  0
 13 29  1  0  0  0  0
 13 30  1  0  0  0  0
 14 19  1  0  0  0  0
 14 15  1  0  0  0  0
 14 31  1  0  0  0  0
 15 16  1  0  0  0  0
 15 32  1  0  0  0  0
 15 33  1  0  0  0  0
 16 20  1  0  0  0  0
 16 17  1  0  0  0  0
 16 34  1  0  0  0  0
 17 18  1  0  0  0  0
 17 35  1  0  0  0  0
 17 36  1  0  0  0  0
 18 19  1  0  0  0  0
 18 37  1  0  0  0  0
 18 38  1  0  0  0  0
 19 20  1  0  0  0  0
 19 39  1  0  0  0  0
 20 40  1  0  0  0  0
 20 41  1  0  0  0  0
M  END
> <s_m_source_file>
AV-unprocessed.smi

> <i_m_source_file_index>
1686

> <i_lp_mmshare_version>
43012

> <i_f3d_flags>
0

> <s_epik_input>
W0NIM11jMW5vYyhDbCljMVtDSDJdQyg9TylbTkhdW0NASF0oW0NIM10pW0NASF0oW0NIMl1bQ0BIXTIzKVtDQEhdKFtDSDJdMylbQ0gyXVtDSDJdMg==

> <s_epik_cmdline>
J2VwaWtfcHl0aG9uJywgJy1waCcsICc3LjAnLCAnLXRuJywgJzgnLCAnLW1hJywgJzIwMCcsICctbWV0YWxfYmluZGluZycsICctaW1hZScsICc8aW5maWxlLm1hZT4nLCAnLW9tYWUnLCAnPG91dGZpbGUubWFlPic=

> <r_lp_tautomer_probability>
1

> <r_epik_Ionization_Penalty>
2.01576e-08

> <r_epik_Ionization_Penalty_Charging>
0

> <r_epik_Ionization_Penalty_Neutral>
2.01576e-08

> <r_epik_State_Penalty>
-0

> <r_epik_Charging_Adjusted_Penalty>
0

> <i_epik_Tot_Q>
0

> <i_epik_Tot_abs_Q>
0

> <r_epik_Metal_State_Penalty>
-0

> <b_epik_Metal_Only>
0

> <s_lp_Force_Field>
OPLS_2005

> <r_lp_Energy>
45.5395

> <b_lp_Chiralities_Consistent>
1

> <s_lp_Variant>
AV-unprocessed.smi:1686-2

> <Gold.Version>
5.8.1

> <Gold.Id.Protein>
6NUR|6NUR_protein|mol2

> <Gold.PLP.Fitness>
42.0023

> <Gold.PLP.PLP>
-38.2852

> <Gold.PLP.part.hbond>
-2.0000

> <Gold.PLP.part.metal>
0.0000

> <Gold.PLP.part.buried>
-3.3488

> <Gold.PLP.part.nonpolar>
-32.2709

> <Gold.PLP.part.repulsive>
0.0543

> <Gold.PLP.ligand.clash>
0.0000

> <Gold.PLP.ligand.torsion>
1.1484

> <Gold.PLP.Chemscore.Hbond>
2.0000

> <Gold.PLP.Chemscore.CHOScore>
0.0000

> <Gold.PLP.Chemscore.Metal>
0.0000

> <Gold.Chemscore.Hbonds>
donor molecule, donor type, donor heavy atom, donor atom, acceptor molecule, acceptor atom, score
      L1  H    11    26       P1  7948  0.98
      P1  H  6896  6907       L1     3  0.93

> <Gold.PLP.Chemscore.Internal.Correction>
0.0140

> <Gold.Rescore>
     Score         DG    S(hbond)    S(metal)    S(lipo)     H(rot)  DE(clash)    DE(int)     intcor
     18.89     -20.15       1.88        0.00     103.83       1.46       0.03       1.22       ----

> <Gold.Chemscore.Fitness>
18.8873

> <Gold.Chemscore.DG>
-20.1454

> <Gold.Chemscore.ZeroCoef>
-5.4800

> <Gold.Chemscore.Hbond>
1.8764

> <Gold.Chemscore.Metal>
0.0000

> <Gold.Chemscore.Lipo>
103.8309

> <Gold.Chemscore.Internal_Hbond>
0.0000

> <Gold.Chemscore.DEClash>
0.0345

> <Gold.Chemscore.DEInternal>
1.2236

> <Gold.Chemscore.Rot>
1.4648

> <Gold.Chemscore.Internal.Correction>
   9.000000E+99

> <Gold.Chemscore.Hbonds>
donor molecule, donor type, donor heavy atom, donor atom, acceptor molecule, acceptor atom, score
      L1  H    11    26       P1  7948  0.60
      P1  H  6896  6907       L1     3  0.86

> <Gold.Chemscore.Hbond.Weighted>
-6.2671

> <Gold.Chemscore.Metal.Weighted>
-0.0000

> <Gold.Chemscore.Lipo.Weighted>
-12.1482

> <Gold.Chemscore.Internal_Hbond.Weighted>
0.0000

> <Gold.Chemscore.DEClash.Weighted>
0.0345

> <Gold.Chemscore.DEInternal.Weighted>
1.2236

> <Gold.Chemscore.Rot.Weighted>
3.7500

> <Gold.Chemscore.Internal.Correction.Weighted>
   9.000000E+99

> <Gold.Protein.RotatedTorsions>
[ 6907 6896 6895 6894 ] final -154.16 input  -60.11 | X-H torsion
[ 7974 7965 7964 7962 ] final -144.20 input  175.53 | X-H torsion
[ 8008 7997 7996 7995 ] final   71.29 input   59.86 | X-H torsion
[ 10167 10162 10161 10158 ] final  149.70 input  -65.29 | X-H torsion
[ 10718 10713 10712 10709 ] final   94.18 input   66.30 | X-H torsion
[ 10763 10752 10751 10750 ] final -125.95 input  -60.55 | X-H torsion
[ 11005 11000 10999 10996 ] final  164.25 input  -57.11 | X-H torsion

> <Gold.Protein.ActiveResidues>
 VAL166  LYS551  ARG553  GLY616  TRP617  ASP618  TYR619  PRO620  LYS621  CYS622 
 ASP623  PHE694  ASN695  SER759  ASP760  ASP761  ALA762  ILE779  LEU786  VAL792 
 PHE793  MET794  SER795  GLU796  ALA797  LYS798  CYS799  TRP800  GLU811  SER814 

> <Gold.Protein.RotatedAtoms>
  151.2534  133.4338  159.2612 H   0  0  0  0  0  0  0  0  0  0  0  0  # atno 6907 bound_to 6896
  151.0597  134.9728  159.8264 H   0  0  0  0  0  0  0  0  0  0  0  0  # atno 6908 bound_to 6896
  152.5396  134.2484  159.8942 H   0  0  0  0  0  0  0  0  0  0  0  0  # atno 6909 bound_to 6896
  144.8314  140.5739  143.5512 H   0  0  0  0  0  0  0  0  0  0  0  0  # atno 7974 bound_to 7965
  155.7516  140.3488  155.5153 H   0  0  0  0  0  0  0  0  0  0  0  0  # atno 8008 bound_to 7997
  155.8999  140.1032  157.1379 H   0  0  0  0  0  0  0  0  0  0  0  0  # atno 8009 bound_to 7997
  154.4042  140.1288  156.4409 H   0  0  0  0  0  0  0  0  0  0  0  0  # atno 8010 bound_to 7997
  139.4858  144.5580  151.7282 H   0  0  0  0  0  0  0  0  0  0  0  0  # atno 10167 bound_to 10162
  157.6950  131.0504  150.4148 H   0  0  0  0  0  0  0  0  0  0  0  0  # atno 10718 bound_to 10713
  154.8741  135.4012  154.3351 H   0  0  0  0  0  0  0  0  0  0  0  0  # atno 10763 bound_to 10752
  153.4159  135.7022  153.6332 H   0  0  0  0  0  0  0  0  0  0  0  0  # atno 10764 bound_to 10752
  153.5015  135.3726  155.2512 H   0  0  0  0  0  0  0  0  0  0  0  0  # atno 10765 bound_to 10752
  140.2441  134.8028  157.3439 H   0  0  0  0  0  0  0  0  0  0  0  0  # atno 11005 bound_to 11000
  145.4887  139.1490  143.3721 LP  0  0  0  0  0  0  0  0  0  0  0  0  # atno 17320 bound_to 7965
  146.2617  140.5025  142.8851 LP  0  0  0  0  0  0  0  0  0  0  0  0  # atno 17321 bound_to 7965
  140.5145  144.0973  150.6004 LP  0  0  0  0  0  0  0  0  0  0  0  0  # atno 17342 bound_to 10162
  140.3911  143.2752  152.0059 LP  0  0  0  0  0  0  0  0  0  0  0  0  # atno 17343 bound_to 10162
  156.4528  130.4015  149.6625 LP  0  0  0  0  0  0  0  0  0  0  0  0  # atno 17370 bound_to 10713
  156.3768  130.7559  151.2547 LP  0  0  0  0  0  0  0  0  0  0  0  0  # atno 17371 bound_to 10713
  140.1624  134.4712  155.7886 LP  0  0  0  0  0  0  0  0  0  0  0  0  # atno 17394 bound_to 11000
  141.2208  133.6907  156.7567 LP  0  0  0  0  0  0  0  0  0  0  0  0  # atno 17395 bound_to 11000

$$$$
