AV-unprocessed.smi:2554|AV-procd|sdf|10020|dock1
  -GOLD-   2272014 63D 1   1.00000     0.00000
 Structure written by MMmdl.
 21 21  0  0  0  0  0  0  0  0  2 V2000
  146.8094  132.9977  151.6607 C   0  0  0  0  0  0  0  0  0  0  0  0
  145.6677  133.9142  151.3462 C   0  0  0  0  0  0  0  0  0  0  0  0
  145.6790  135.2451  151.7707 N   0  0  0  0  0  0  0  0  0  0  0  0
  144.5357  135.7420  151.3156 C   0  0  0  0  0  0  0  0  0  0  0  0
  143.8057  134.8499  150.6415 N   0  0  0  0  0  0  0  0  0  0  0  0
  144.5074  133.6553  150.6446 C   0  0  0  0  0  0  0  0  0  0  0  0
  144.0109  132.4161  149.9749 C   0  0  0  0  0  0  0  0  0  0  0  0
  143.6529  132.6399  148.5000 C   0  0  0  0  0  0  0  0  0  0  0  0
  142.2004  132.5440  148.2791 N   0  3  0  0  0  0  0  0  0  0  0  0
  142.9061  135.0182  150.2144 H   0  0  0  0  0  0  0  0  0  0  0  0
  146.6480  131.9984  151.2564 H   0  0  0  0  0  0  0  0  0  0  0  0
  146.9479  132.8986  152.7375 H   0  0  0  0  0  0  0  0  0  0  0  0
  147.7420  133.3749  151.2412 H   0  0  0  0  0  0  0  0  0  0  0  0
  144.2280  136.7653  151.4732 H   0  0  0  0  0  0  0  0  0  0  0  0
  143.1365  132.0438  150.5106 H   0  0  0  0  0  0  0  0  0  0  0  0
  144.7672  131.6344  150.0559 H   0  0  0  0  0  0  0  0  0  0  0  0
  143.9937  133.6222  148.1710 H   0  0  0  0  0  0  0  0  0  0  0  0
  144.1509  131.8999  147.8727 H   0  0  0  0  0  0  0  0  0  0  0  0
  142.0135  132.4867  147.2880 H   0  0  0  0  0  0  0  0  0  0  0  0
  141.7459  133.3616  148.6603 H   0  0  0  0  0  0  0  0  0  0  0  0
  141.8438  131.7169  148.7361 H   0  0  0  0  0  0  0  0  0  0  0  0
  1 11  1  0  0  0  0
  1 12  1  0  0  0  0
  1 13  1  0  0  0  0
  1  2  1  0  0  0  0
  2  6  2  0  0  0  0
  2  3  1  0  0  0  0
  3  4  2  0  0  0  0
  4  5  1  0  0  0  0
  4 14  1  0  0  0  0
  5  6  1  0  0  0  0
  5 10  1  0  0  0  0
  6  7  1  0  0  0  0
  7  8  1  0  0  0  0
  7 15  1  0  0  0  0
  7 16  1  0  0  0  0
  8  9  1  0  0  0  0
  8 17  1  0  0  0  0
  8 18  1  0  0  0  0
  9 19  1  0  0  0  0
  9 20  1  0  0  0  0
  9 21  1  0  0  0  0
M  CHG  1   9   1
M  END
> <s_m_source_file>
AV-unprocessed.smi

> <i_m_source_file_index>
2554

> <i_lp_mmshare_version>
43012

> <i_f3d_flags>
0

> <s_epik_input>
W0NIM11jMVtuSF1bY0hdbmMxW0NIMl1bQ0gyXVtOSDJd

> <s_epik_cmdline>
J2VwaWtfcHl0aG9uJywgJy1waCcsICc3LjAnLCAnLXRuJywgJzgnLCAnLW1hJywgJzIwMCcsICctbWV0YWxfYmluZGluZycsICctaW1hZScsICc8aW5maWxlLm1hZT4nLCAnLW9tYWUnLCAnPG91dGZpbGUubWFlPic=

> <r_lp_tautomer_probability>
0.5

> <r_epik_Ionization_Penalty>
0.309087

> <r_epik_Ionization_Penalty_Charging>
0.309086

> <r_epik_Ionization_Penalty_Neutral>
3.24025e-07

> <r_epik_State_Penalty>
0.652852

> <r_epik_Charging_Adjusted_Penalty>
0.961938

> <i_epik_Tot_Q>
1

> <i_epik_Tot_abs_Q>
1

> <r_epik_Metal_State_Penalty>
0.386365

> <b_epik_Metal_Only>
0

> <s_lp_Force_Field>
OPLS_2005

> <r_lp_Energy>
3.85871

> <b_lp_Chiralities_Consistent>
1

> <s_lp_Variant>
AV-unprocessed.smi:2554-2

> <Gold.Version>
5.8.1

> <Gold.Id.Protein>
6NUR|6NUR_protein|mol2

> <Gold.PLP.Fitness>
40.5058

> <Gold.PLP.PLP>
-23.3619

> <Gold.PLP.part.hbond>
-4.0000

> <Gold.PLP.part.metal>
0.0000

> <Gold.PLP.part.buried>
-4.8297

> <Gold.PLP.part.nonpolar>
-15.2972

> <Gold.PLP.part.repulsive>
0.4112

> <Gold.PLP.ligand.clash>
0.0000

> <Gold.PLP.ligand.torsion>
0.3907

> <Gold.PLP.Chemscore.Hbond>
4.9750

> <Gold.PLP.Chemscore.CHOScore>
0.9998

> <Gold.PLP.Chemscore.Metal>
0.0000

> <Gold.Chemscore.Hbonds>
donor molecule, donor type, donor heavy atom, donor atom, acceptor molecule, acceptor atom, score
      L1  H     5    10       P1 10186  0.83
      L1  H     9    19       P1 10195  1.00
      L1  H     9    20       P1 10186  2.00
      L1  H     9    21       P1 10952  1.00
      L1  C     4    14       P1 10171  0.99

> <Gold.PLP.Chemscore.Internal.Correction>
0.0009

> <Gold.Rescore>
     Score         DG    S(hbond)    S(metal)    S(lipo)     H(rot)  DE(clash)    DE(int)     intcor
     18.87     -19.51       3.66        0.00      47.17       1.45       0.26       0.38       ----

> <Gold.Chemscore.Fitness>
18.8675

> <Gold.Chemscore.DG>
-19.5085

> <Gold.Chemscore.ZeroCoef>
-5.4800

> <Gold.Chemscore.Hbond>
3.6560

> <Gold.Chemscore.Metal>
0.0000

> <Gold.Chemscore.Lipo>
47.1678

> <Gold.Chemscore.Internal_Hbond>
0.0000

> <Gold.Chemscore.DEClash>
0.2594

> <Gold.Chemscore.DEInternal>
0.3815

> <Gold.Chemscore.Rot>
1.4458

> <Gold.Chemscore.Internal.Correction>
   9.000000E+99

> <Gold.Chemscore.Hbonds>
donor molecule, donor type, donor heavy atom, donor atom, acceptor molecule, acceptor atom, score
      L1  H     5    10       P1 10186  0.18
      L1  H     9    19       P1 10195  0.98
      L1  H     9    20       P1 10186  0.94
      L1  H     9    21       P1 10952  1.00

> <Gold.Chemscore.Hbond.Weighted>
-12.2110

> <Gold.Chemscore.Metal.Weighted>
-0.0000

> <Gold.Chemscore.Lipo.Weighted>
-5.5186

> <Gold.Chemscore.Internal_Hbond.Weighted>
0.0000

> <Gold.Chemscore.DEClash.Weighted>
0.2594

> <Gold.Chemscore.DEInternal.Weighted>
0.3815

> <Gold.Chemscore.Rot.Weighted>
3.7012

> <Gold.Chemscore.Internal.Correction.Weighted>
   9.000000E+99

> <Gold.Protein.RotatedTorsions>
[ 6907 6896 6895 6894 ] final -150.83 input  -60.11 | X-H torsion
[ 7974 7965 7964 7962 ] final  -40.41 input  175.53 | X-H torsion
[ 8008 7997 7996 7995 ] final   22.95 input   59.86 | X-H torsion
[ 10167 10162 10161 10158 ] final  -60.83 input  -65.29 | X-H torsion
[ 10718 10713 10712 10709 ] final  -54.10 input   66.30 | X-H torsion
[ 10763 10752 10751 10750 ] final   76.87 input  -60.55 | X-H torsion
[ 11005 11000 10999 10996 ] final  -18.29 input  -57.11 | X-H torsion

> <Gold.Protein.ActiveResidues>
 VAL166  LYS551  ARG553  GLY616  TRP617  ASP618  TYR619  PRO620  LYS621  CYS622 
 ASP623  PHE694  ASN695  SER759  ASP760  ASP761  ALA762  ILE779  LEU786  VAL792 
 PHE793  MET794  SER795  GLU796  ALA797  LYS798  CYS799  TRP800  GLU811  SER814 

> <Gold.Protein.RotatedAtoms>
  151.2043  133.4592  159.2596 H   0  0  0  0  0  0  0  0  0  0  0  0  # atno 6907 bound_to 6896
  151.1039  134.9988  159.8472 H   0  0  0  0  0  0  0  0  0  0  0  0  # atno 6908 bound_to 6896
  152.5445  134.1968  159.8749 H   0  0  0  0  0  0  0  0  0  0  0  0  # atno 6909 bound_to 6896
  146.0307  140.6735  142.9134 H   0  0  0  0  0  0  0  0  0  0  0  0  # atno 7974 bound_to 7965
  154.9736  140.3093  155.4977 H   0  0  0  0  0  0  0  0  0  0  0  0  # atno 8008 bound_to 7997
  156.2962  140.2279  156.4769 H   0  0  0  0  0  0  0  0  0  0  0  0  # atno 8009 bound_to 7997
  154.7854  140.0443  157.1148 H   0  0  0  0  0  0  0  0  0  0  0  0  # atno 8010 bound_to 7997
  140.6046  143.2370  151.5851 H   0  0  0  0  0  0  0  0  0  0  0  0  # atno 10167 bound_to 10162
  156.1479  130.4152  149.9993 H   0  0  0  0  0  0  0  0  0  0  0  0  # atno 10718 bound_to 10713
  153.0757  135.4935  154.8398 H   0  0  0  0  0  0  0  0  0  0  0  0  # atno 10763 bound_to 10752
  154.7083  135.3015  154.9238 H   0  0  0  0  0  0  0  0  0  0  0  0  # atno 10764 bound_to 10752
  153.9940  135.6774  153.4808 H   0  0  0  0  0  0  0  0  0  0  0  0  # atno 10765 bound_to 10752
  140.8253  133.8037  155.9702 H   0  0  0  0  0  0  0  0  0  0  0  0  # atno 11005 bound_to 11000
  144.7029  140.3731  143.7141 LP  0  0  0  0  0  0  0  0  0  0  0  0  # atno 17320 bound_to 7965
  145.7045  139.1669  143.2574 LP  0  0  0  0  0  0  0  0  0  0  0  0  # atno 17321 bound_to 7965
  139.5315  144.2901  152.1159 LP  0  0  0  0  0  0  0  0  0  0  0  0  # atno 17342 bound_to 10162
  140.2089  144.4583  150.6395 LP  0  0  0  0  0  0  0  0  0  0  0  0  # atno 17343 bound_to 10162
  156.7859  130.9238  151.3646 LP  0  0  0  0  0  0  0  0  0  0  0  0  # atno 17370 bound_to 10713
  157.6632  130.8985  149.9876 LP  0  0  0  0  0  0  0  0  0  0  0  0  # atno 17371 bound_to 10713
  140.9056  134.2325  157.5016 LP  0  0  0  0  0  0  0  0  0  0  0  0  # atno 17394 bound_to 11000
  139.8707  134.9726  156.4780 LP  0  0  0  0  0  0  0  0  0  0  0  0  # atno 17395 bound_to 11000

$$$$
