AV-unprocessed.smi:2881|AV-procd|sdf|11060|dock4
  -GOLD-   2272015533D 1   1.00000     0.00000
 Structure written by MMmdl.
 40 42  0  0  0  0  0  0  0  0  1 V2000
  151.8625  145.5982  160.1180 C   0  0  0  0  0  0  0  0  0  0  0  0
  151.6557  144.1581  159.7923 C   0  0  0  0  0  0  0  0  0  0  0  0
  152.4129  143.0531  160.0613 C   0  0  0  0  0  0  0  0  0  0  0  0
  151.6744  141.9712  159.4948 C   0  0  0  0  0  0  0  0  0  0  0  0
  152.0255  140.5070  159.4937 C   0  0  0  0  0  0  0  0  0  0  0  0
  152.2114  140.0131  158.0587 C   0  0  0  0  0  0  0  0  0  0  0  0
  153.1942  139.3346  157.7609 O   0  0  0  0  0  0  0  0  0  0  0  0
  151.2605  140.3622  157.1791 N   0  0  0  0  0  0  0  0  0  0  0  0
  151.2683  140.0231  155.7586 C   0  0  1  0  0  0  0  0  0  0  0  0
  151.7386  138.5755  155.4682 C   0  0  1  0  0  0  0  0  0  0  0  0
  150.9599  137.5463  156.3156 C   0  0  0  0  0  0  0  0  0  0  0  0
  149.5519  137.5945  155.6935 C   0  0  0  0  0  0  0  0  0  0  0  0
  149.7160  138.6232  154.5578 C   0  0  2  0  0  0  0  0  0  0  0  0
  151.1378  138.3333  154.0898 C   0  0  0  0  0  0  0  0  0  0  0  0
  149.8356  140.0415  155.1660 C   0  0  2  0  0  0  0  0  0  0  0  0
  149.6302  141.1755  154.1432 C   0  0  0  0  0  0  0  0  0  0  0  0
  149.8931  142.4283  154.7391 O   0  0  0  0  0  0  0  0  0  0  0  0
  150.5545  142.3773  158.9125 N   0  0  0  0  0  0  0  0  0  0  0  0
  150.5535  143.7097  159.1023 N   0  0  0  0  0  0  0  0  0  0  0  0
  149.8025  144.2923  158.7605 H   0  0  0  0  0  0  0  0  0  0  0  0
  152.6253  145.7169  160.8878 H   0  0  0  0  0  0  0  0  0  0  0  0
  150.9412  146.0513  160.4854 H   0  0  0  0  0  0  0  0  0  0  0  0
  152.1847  146.1513  159.2357 H   0  0  0  0  0  0  0  0  0  0  0  0
  153.3534  143.0193  160.5907 H   0  0  0  0  0  0  0  0  0  0  0  0
  152.9397  140.3224  160.0599 H   0  0  0  0  0  0  0  0  0  0  0  0
  151.2399  139.9270  159.9798 H   0  0  0  0  0  0  0  0  0  0  0  0
  150.4862  140.9180  157.5117 H   0  0  0  0  0  0  0  0  0  0  0  0
  151.9072  140.7275  155.2215 H   0  0  0  0  0  0  0  0  0  0  0  0
  152.8206  138.4506  155.5205 H   0  0  0  0  0  0  0  0  0  0  0  0
  151.3911  136.5515  156.1972 H   0  0  0  0  0  0  0  0  0  0  0  0
  150.9567  137.7723  157.3819 H   0  0  0  0  0  0  0  0  0  0  0  0
  149.2763  136.6171  155.2958 H   0  0  0  0  0  0  0  0  0  0  0  0
  148.7878  137.8882  156.4142 H   0  0  0  0  0  0  0  0  0  0  0  0
  148.9514  138.5331  153.7857 H   0  0  0  0  0  0  0  0  0  0  0  0
  151.5020  139.0280  153.3315 H   0  0  0  0  0  0  0  0  0  0  0  0
  151.2756  137.3122  153.7296 H   0  0  0  0  0  0  0  0  0  0  0  0
  149.0926  140.1644  155.9566 H   0  0  0  0  0  0  0  0  0  0  0  0
  150.3119  141.0486  153.3015 H   0  0  0  0  0  0  0  0  0  0  0  0
  148.6175  141.1729  153.7400 H   0  0  0  0  0  0  0  0  0  0  0  0
  149.1255  142.9722  154.6476 H   0  0  0  0  0  0  0  0  0  0  0  0
  1  2  1  0  0  0  0
  1 21  1  0  0  0  0
  1 22  1  0  0  0  0
  1 23  1  0  0  0  0
  2 19  1  0  0  0  0
  2  3  2  0  0  0  0
  3  4  1  0  0  0  0
  3 24  1  0  0  0  0
  4  5  1  0  0  0  0
  4 18  2  0  0  0  0
  5  6  1  0  0  0  0
  5 25  1  0  0  0  0
  5 26  1  0  0  0  0
  6  7  2  0  0  0  0
  6  8  1  0  0  0  0
  8  9  1  0  0  0  0
  8 27  1  0  0  0  0
  9 15  1  0  0  0  0
  9 10  1  0  0  0  0
  9 28  1  0  0  0  0
 10 14  1  0  0  0  0
 10 11  1  0  0  0  0
 10 29  1  0  0  0  0
 11 12  1  0  0  0  0
 11 30  1  0  0  0  0
 11 31  1  0  0  0  0
 12 13  1  0  0  0  0
 12 32  1  0  0  0  0
 12 33  1  0  0  0  0
 13 14  1  0  0  0  0
 13 15  1  0  0  0  0
 13 34  1  0  0  0  0
 14 35  1  0  0  0  0
 14 36  1  0  0  0  0
 15 16  1  0  0  0  0
 15 37  1  0  0  0  0
 16 17  1  0  0  0  0
 16 38  1  0  0  0  0
 16 39  1  0  0  0  0
 17 40  1  0  0  0  0
 18 19  1  0  0  0  0
 19 20  1  0  0  0  0
M  END
> <s_m_source_file>
AV-unprocessed.smi

> <i_m_source_file_index>
2881

> <i_lp_mmshare_version>
43012

> <i_f3d_flags>
0

> <s_epik_input>
W0NIM11jMVtjSF1jKG5bbkhdMSlbQ0gyXUMoPU8pW05IXVtDQEhdKFtDQEBIXTIzKVtDQEhdKFtDSDJdW09IXSlbQ0BASF0oW0NIMl0zKVtDSDJdW0NIMl0y

> <s_epik_cmdline>
J2VwaWtfcHl0aG9uJywgJy1waCcsICc3LjAnLCAnLXRuJywgJzgnLCAnLW1hJywgJzIwMCcsICctbWV0YWxfYmluZGluZycsICctaW1hZScsICc8aW5maWxlLm1hZT4nLCAnLW9tYWUnLCAnPG91dGZpbGUubWFlPic=

> <r_lp_tautomer_probability>
0.5

> <r_epik_Ionization_Penalty>
9.4349e-05

> <r_epik_Ionization_Penalty_Charging>
0

> <r_epik_Ionization_Penalty_Neutral>
9.4349e-05

> <r_epik_State_Penalty>
0.41068

> <r_epik_Charging_Adjusted_Penalty>
0.41068

> <i_epik_Tot_Q>
0

> <i_epik_Tot_abs_Q>
0

> <r_epik_Metal_State_Penalty>
0.4107

> <b_epik_Metal_Only>
0

> <s_lp_Force_Field>
OPLS_2005

> <r_lp_Energy>
47.9612

> <b_lp_Chiralities_Consistent>
1

> <s_lp_Variant>
AV-unprocessed.smi:2881-6

> <Gold.Version>
5.8.1

> <Gold.Id.Protein>
6NUR|6NUR_protein|mol2

> <Gold.PLP.Fitness>
39.7027

> <Gold.PLP.PLP>
-36.6801

> <Gold.PLP.part.hbond>
-3.1778

> <Gold.PLP.part.metal>
0.0000

> <Gold.PLP.part.buried>
-4.2067

> <Gold.PLP.part.nonpolar>
-29.5495

> <Gold.PLP.part.repulsive>
0.1752

> <Gold.PLP.ligand.clash>
0.0000

> <Gold.PLP.ligand.torsion>
0.4552

> <Gold.PLP.Chemscore.Hbond>
1.3040

> <Gold.PLP.Chemscore.CHOScore>
0.0000

> <Gold.PLP.Chemscore.Metal>
0.0000

> <Gold.Chemscore.Hbonds>
donor molecule, donor type, donor heavy atom, donor atom, acceptor molecule, acceptor atom, score
      L1  H    17    40       P1  8028  0.48
      P1  H  7997  8008       L1     7  1.00

> <Gold.PLP.Chemscore.Internal.Correction>
0.0211

> <Gold.Rescore>
     Score         DG    S(hbond)    S(metal)    S(lipo)     H(rot)  DE(clash)    DE(int)     intcor
     12.26     -15.51       1.31        0.00      98.00       2.28       0.05       3.19       ----

> <Gold.Chemscore.Fitness>
12.2623

> <Gold.Chemscore.DG>
-15.5092

> <Gold.Chemscore.ZeroCoef>
-5.4800

> <Gold.Chemscore.Hbond>
1.3140

> <Gold.Chemscore.Metal>
0.0000

> <Gold.Chemscore.Lipo>
97.9980

> <Gold.Chemscore.Internal_Hbond>
0.0000

> <Gold.Chemscore.DEClash>
0.0529

> <Gold.Chemscore.DEInternal>
3.1940

> <Gold.Chemscore.Rot>
2.2755

> <Gold.Chemscore.Internal.Correction>
   9.000000E+99

> <Gold.Chemscore.Hbonds>
donor molecule, donor type, donor heavy atom, donor atom, acceptor molecule, acceptor atom, score
      L1  H    17    40       P1  8028  0.45
      P1  H  7997  8008       L1     7  0.91

> <Gold.Chemscore.Hbond.Weighted>
-4.3887

> <Gold.Chemscore.Metal.Weighted>
-0.0000

> <Gold.Chemscore.Lipo.Weighted>
-11.4658

> <Gold.Chemscore.Internal_Hbond.Weighted>
0.0000

> <Gold.Chemscore.DEClash.Weighted>
0.0529

> <Gold.Chemscore.DEInternal.Weighted>
3.1940

> <Gold.Chemscore.Rot.Weighted>
5.8252

> <Gold.Chemscore.Internal.Correction.Weighted>
   9.000000E+99

> <Gold.Protein.RotatedTorsions>
[ 6907 6896 6895 6894 ] final  -25.69 input  -60.11 | X-H torsion
[ 7974 7965 7964 7962 ] final -154.45 input  175.53 | X-H torsion
[ 8008 7997 7996 7995 ] final  -59.15 input   59.86 | X-H torsion
[ 10167 10162 10161 10158 ] final    1.61 input  -65.29 | X-H torsion
[ 10718 10713 10712 10709 ] final   96.36 input   66.30 | X-H torsion
[ 10763 10752 10751 10750 ] final -144.67 input  -60.55 | X-H torsion
[ 11005 11000 10999 10996 ] final  107.42 input  -57.11 | X-H torsion

> <Gold.Protein.ActiveResidues>
 VAL166  LYS551  ARG553  GLY616  TRP617  ASP618  TYR619  PRO620  LYS621  CYS622 
 ASP623  PHE694  ASN695  SER759  ASP760  ASP761  ALA762  ILE779  LEU786  VAL792 
 PHE793  MET794  SER795  GLU796  ALA797  LYS798  CYS799  TRP800  GLU811  SER814 

> <Gold.Protein.RotatedAtoms>
  151.1715  135.0320  159.8753 H   0  0  0  0  0  0  0  0  0  0  0  0  # atno 6907 bound_to 6896
  152.5448  134.1165  159.8391 H   0  0  0  0  0  0  0  0  0  0  0  0  # atno 6908 bound_to 6896
  151.1271  133.5016  159.2632 H   0  0  0  0  0  0  0  0  0  0  0  0  # atno 6909 bound_to 6896
  144.7689  140.4386  143.5922 H   0  0  0  0  0  0  0  0  0  0  0  0  # atno 7974 bound_to 7965
  154.4339  140.1068  156.6069 H   0  0  0  0  0  0  0  0  0  0  0  0  # atno 8008 bound_to 7997
  155.5851  140.3491  155.4532 H   0  0  0  0  0  0  0  0  0  0  0  0  # atno 8009 bound_to 7997
  156.0289  140.1256  157.0268 H   0  0  0  0  0  0  0  0  0  0  0  0  # atno 8010 bound_to 7997
  140.6675  143.7140  150.7855 H   0  0  0  0  0  0  0  0  0  0  0  0  # atno 10167 bound_to 10162
  157.6928  131.0575  150.4479 H   0  0  0  0  0  0  0  0  0  0  0  0  # atno 10718 bound_to 10713
  154.8418  135.3434  154.6382 H   0  0  0  0  0  0  0  0  0  0  0  0  # atno 10763 bound_to 10752
  153.6993  135.6970  153.5072 H   0  0  0  0  0  0  0  0  0  0  0  0  # atno 10764 bound_to 10752
  153.2535  135.4346  155.0776 H   0  0  0  0  0  0  0  0  0  0  0  0  # atno 10765 bound_to 10752
  139.8828  134.9400  156.5816 H   0  0  0  0  0  0  0  0  0  0  0  0  # atno 11005 bound_to 11000
  145.6385  139.1546  143.2929 LP  0  0  0  0  0  0  0  0  0  0  0  0  # atno 17320 bound_to 7965
  146.1819  140.6483  142.9185 LP  0  0  0  0  0  0  0  0  0  0  0  0  # atno 17321 bound_to 7965
  140.0820  143.4959  152.2525 LP  0  0  0  0  0  0  0  0  0  0  0  0  # atno 17342 bound_to 10162
  139.5929  144.7556  151.3357 LP  0  0  0  0  0  0  0  0  0  0  0  0  # atno 17343 bound_to 10162
  156.4833  130.4078  149.6449 LP  0  0  0  0  0  0  0  0  0  0  0  0  # atno 17370 bound_to 10713
  156.3487  130.7420  151.2376 LP  0  0  0  0  0  0  0  0  0  0  0  0  # atno 17371 bound_to 10713
  140.8022  133.8496  155.8737 LP  0  0  0  0  0  0  0  0  0  0  0  0  # atno 17394 bound_to 11000
  140.9582  134.1690  157.4675 LP  0  0  0  0  0  0  0  0  0  0  0  0  # atno 17395 bound_to 11000

$$$$
