AV-unprocessed.smi:610|AV-procd|sdf|3057|dock10
  -GOLD-   2262023583D 1   1.00000     0.00000
 Structure written by MMmdl.
 38 39  0  0  0  0  0  0  0  0  2 V2000
  146.5901  139.5061  151.3033 C   0  0  0  0  0  0  0  0  0  0  0  0
  146.4584  138.7578  152.6363 C   0  0  2  0  0  0  0  0  0  0  0  0
  147.5772  139.1652  153.6198 C   0  0  0  0  0  0  0  0  0  0  0  0
  147.4729  140.5592  154.0640 N   0  0  0  0  0  0  0  0  0  0  0  0
  146.3746  141.3774  153.9868 C   0  0  0  0  0  0  0  0  0  0  0  0
  146.7537  142.5897  154.5024 C   0  0  0  0  0  0  0  0  0  0  0  0
  148.0634  142.4581  154.8795 N   0  3  0  0  0  0  0  0  0  0  0  0
  148.4973  141.2212  154.6169 C   0  0  0  0  0  0  0  0  0  0  0  0
  146.4873  137.3192  152.3763 N   0  0  0  0  0  0  0  0  0  0  0  0
  145.4806  136.4542  152.5976 C   0  0  0  0  0  0  0  0  0  0  0  0
  144.3906  136.8160  153.0442 O   0  0  0  0  0  0  0  0  0  0  0  0
  145.7249  134.9530  152.3005 C   0  0  0  0  0  0  0  0  0  0  0  0
  146.9545  134.4670  152.9139 N   0  0  0  0  0  0  0  0  0  0  0  0
  144.5361  134.0849  152.7960 C   0  0  0  0  0  0  0  0  0  0  0  0
  143.9571  133.3722  151.5679 C   0  0  0  0  0  0  0  0  0  0  0  0
  144.4068  134.2053  150.3728 C   0  0  0  0  0  0  0  0  0  0  0  0
  145.7956  134.6990  150.7759 C   0  0  0  0  0  0  0  0  0  0  0  0
  146.5409  140.5851  151.4528 H   0  0  0  0  0  0  0  0  0  0  0  0
  145.7863  139.2332  150.6185 H   0  0  0  0  0  0  0  0  0  0  0  0
  147.5374  139.2812  150.8119 H   0  0  0  0  0  0  0  0  0  0  0  0
  145.4932  139.0346  153.0641 H   0  0  0  0  0  0  0  0  0  0  0  0
  147.5674  138.5261  154.5040 H   0  0  0  0  0  0  0  0  0  0  0  0
  148.5563  139.0443  153.1540 H   0  0  0  0  0  0  0  0  0  0  0  0
  145.4328  141.0478  153.5726 H   0  0  0  0  0  0  0  0  0  0  0  0
  146.2046  143.5117  154.6256 H   0  0  0  0  0  0  0  0  0  0  0  0
  149.4846  140.8373  154.8027 H   0  0  0  0  0  0  0  0  0  0  0  0
  147.3442  136.9417  151.9970 H   0  0  0  0  0  0  0  0  0  0  0  0
  147.7042  135.1147  152.7185 H   0  0  0  0  0  0  0  0  0  0  0  0
  146.8438  134.4593  153.9177 H   0  0  0  0  0  0  0  0  0  0  0  0
  144.8275  133.3575  153.5555 H   0  0  0  0  0  0  0  0  0  0  0  0
  143.7560  134.6967  153.2529 H   0  0  0  0  0  0  0  0  0  0  0  0
  144.3852  132.3717  151.4925 H   0  0  0  0  0  0  0  0  0  0  0  0
  142.8734  133.2639  151.6184 H   0  0  0  0  0  0  0  0  0  0  0  0
  144.4174  133.6352  149.4436 H   0  0  0  0  0  0  0  0  0  0  0  0
  143.7338  135.0527  150.2368 H   0  0  0  0  0  0  0  0  0  0  0  0
  146.0885  135.5801  150.2024 H   0  0  0  0  0  0  0  0  0  0  0  0
  146.5249  133.9207  150.5433 H   0  0  0  0  0  0  0  0  0  0  0  0
  148.6255  143.1903  155.2952 H   0  0  0  0  0  0  0  0  0  0  0  0
  1  2  1  0  0  0  0
  1 18  1  0  0  0  0
  1 19  1  0  0  0  0
  1 20  1  0  0  0  0
  2  3  1  0  0  0  0
  2  9  1  0  0  0  0
  2 21  1  0  0  0  0
  3  4  1  0  0  0  0
  3 22  1  0  0  0  0
  3 23  1  0  0  0  0
  4  8  1  0  0  0  0
  4  5  1  0  0  0  0
  5  6  2  0  0  0  0
  5 24  1  0  0  0  0
  6  7  1  0  0  0  0
  6 25  1  0  0  0  0
  7  8  2  0  0  0  0
  7 38  1  0  0  0  0
  8 26  1  0  0  0  0
  9 10  1  0  0  0  0
  9 27  1  0  0  0  0
 10 11  2  0  0  0  0
 10 12  1  0  0  0  0
 12 17  1  0  0  0  0
 12 13  1  0  0  0  0
 12 14  1  0  0  0  0
 13 28  1  0  0  0  0
 13 29  1  0  0  0  0
 14 15  1  0  0  0  0
 14 30  1  0  0  0  0
 14 31  1  0  0  0  0
 15 16  1  0  0  0  0
 15 32  1  0  0  0  0
 15 33  1  0  0  0  0
 16 17  1  0  0  0  0
 16 34  1  0  0  0  0
 16 35  1  0  0  0  0
 17 36  1  0  0  0  0
 17 37  1  0  0  0  0
M  CHG  1   7   1
M  END
> <s_m_source_file>
AV-unprocessed.smi

> <i_m_source_file_index>
610

> <i_lp_mmshare_version>
43012

> <i_f3d_flags>
0

> <s_epik_input>
W2NIXTFuW2NIXVtjSF1uMVtDSDJdW0NAQEhdKFtDSDNdKVtOSF1DKD1PKUMyKFtOSDJdKVtDSDJdW0NIMl1bQ0gyXVtDSDJdMg==

> <s_epik_cmdline>
J2VwaWtfcHl0aG9uJywgJy1waCcsICc3LjAnLCAnLXRuJywgJzgnLCAnLW1hJywgJzIwMCcsICctbWV0YWxfYmluZGluZycsICctaW1hZScsICc8aW5maWxlLm1hZT4nLCAnLW9tYWUnLCAnPG91dGZpbGUubWFlPic=

> <r_epik_Ionization_Penalty>
1.50287

> <r_epik_Ionization_Penalty_Charging>
0

> <r_epik_Ionization_Penalty_Neutral>
1.50287

> <r_epik_State_Penalty>
1.57152

> <r_epik_Charging_Adjusted_Penalty>
1.57152

> <i_epik_Tot_Q>
1

> <i_epik_Tot_abs_Q>
1

> <r_epik_Metal_State_Penalty>
1.8522

> <b_epik_Metal_Only>
0

> <s_lp_Force_Field>
OPLS_2005

> <r_lp_Energy>
22.5232

> <b_lp_Chiralities_Consistent>
1

> <s_lp_Variant>
AV-unprocessed.smi:610-5

> <Gold.Version>
5.8.1

> <Gold.Id.Protein>
6NUR|6NUR_protein|mol2

> <Gold.PLP.Fitness>
44.0952

> <Gold.PLP.PLP>
-30.1949

> <Gold.PLP.part.hbond>
-2.7947

> <Gold.PLP.part.metal>
0.0000

> <Gold.PLP.part.buried>
1.0599

> <Gold.PLP.part.nonpolar>
-27.7957

> <Gold.PLP.part.repulsive>
0.4393

> <Gold.PLP.ligand.clash>
0.0000

> <Gold.PLP.ligand.torsion>
0.5388

> <Gold.PLP.Chemscore.Hbond>
3.9840

> <Gold.PLP.Chemscore.CHOScore>
1.0000

> <Gold.PLP.Chemscore.Metal>
0.0000

> <Gold.Chemscore.Hbonds>
donor molecule, donor type, donor heavy atom, donor atom, acceptor molecule, acceptor atom, score
      L1  H     7    38       P1  8028  1.98
      L1  H     9    27       P1  7948  1.00
      L1  H    13    28       P1  7948  1.00
      L1  C     5    24       P1 10175  1.00

> <Gold.PLP.Chemscore.Internal.Correction>
0.0259

> <Gold.Rescore>
     Score         DG    S(hbond)    S(metal)    S(lipo)     H(rot)  DE(clash)    DE(int)     intcor
     16.24     -17.66       2.93        0.00      64.51       2.02       0.73       0.68       ----

> <Gold.Chemscore.Fitness>
16.2442

> <Gold.Chemscore.DG>
-17.6590

> <Gold.Chemscore.ZeroCoef>
-5.4800

> <Gold.Chemscore.Hbond>
2.9311

> <Gold.Chemscore.Metal>
0.0000

> <Gold.Chemscore.Lipo>
64.5130

> <Gold.Chemscore.Internal_Hbond>
0.0000

> <Gold.Chemscore.DEClash>
0.7339

> <Gold.Chemscore.DEInternal>
0.6809

> <Gold.Chemscore.Rot>
2.0152

> <Gold.Chemscore.Internal.Correction>
   9.000000E+99

> <Gold.Chemscore.Hbonds>
donor molecule, donor type, donor heavy atom, donor atom, acceptor molecule, acceptor atom, score
      L1  H     7    38       P1  8028  0.92
      L1  H     9    27       P1  7948  1.00
      L1  H    13    28       P1  7948  0.99

> <Gold.Chemscore.Hbond.Weighted>
-9.7899

> <Gold.Chemscore.Metal.Weighted>
-0.0000

> <Gold.Chemscore.Lipo.Weighted>
-7.5480

> <Gold.Chemscore.Internal_Hbond.Weighted>
0.0000

> <Gold.Chemscore.DEClash.Weighted>
0.7339

> <Gold.Chemscore.DEInternal.Weighted>
0.6809

> <Gold.Chemscore.Rot.Weighted>
5.1589

> <Gold.Chemscore.Internal.Correction.Weighted>
   9.000000E+99

> <Gold.Protein.RotatedTorsions>
[ 6907 6896 6895 6894 ] final  -73.30 input  -60.11 | X-H torsion
[ 7974 7965 7964 7962 ] final  -31.12 input  175.53 | X-H torsion
[ 8008 7997 7996 7995 ] final -138.22 input   59.86 | X-H torsion
[ 10167 10162 10161 10158 ] final  -81.77 input  -65.29 | X-H torsion
[ 10718 10713 10712 10709 ] final   50.95 input   66.30 | X-H torsion
[ 10763 10752 10751 10750 ] final  -38.29 input  -60.55 | X-H torsion
[ 11005 11000 10999 10996 ] final  103.33 input  -57.11 | X-H torsion

> <Gold.Protein.ActiveResidues>
 VAL166  LYS551  ARG553  GLY616  TRP617  ASP618  TYR619  PRO620  LYS621  CYS622 
 ASP623  PHE694  ASN695  SER759  ASP760  ASP761  ALA762  ILE779  LEU786  VAL792 
 PHE793  MET794  SER795  GLU796  ALA797  LYS798  CYS799  TRP800  GLU811  SER814 

> <Gold.Protein.RotatedAtoms>
  150.7136  134.5037  159.5573 H   0  0  0  0  0  0  0  0  0  0  0  0  # atno 6907 bound_to 6896
  152.2629  134.8012  160.0436 H   0  0  0  0  0  0  0  0  0  0  0  0  # atno 6908 bound_to 6896
  151.8719  133.3442  159.3774 H   0  0  0  0  0  0  0  0  0  0  0  0  # atno 6909 bound_to 6896
  146.1091  140.5627  142.8786 H   0  0  0  0  0  0  0  0  0  0  0  0  # atno 7974 bound_to 7965
  155.4247  140.0521  157.3023 H   0  0  0  0  0  0  0  0  0  0  0  0  # atno 8008 bound_to 7997
  154.4887  140.2111  155.9556 H   0  0  0  0  0  0  0  0  0  0  0  0  # atno 8009 bound_to 7997
  156.1311  140.3171  155.8355 H   0  0  0  0  0  0  0  0  0  0  0  0  # atno 8010 bound_to 7997
  140.4381  143.2524  151.8665 H   0  0  0  0  0  0  0  0  0  0  0  0  # atno 10167 bound_to 10162
  157.4934  130.8390  149.8229 H   0  0  0  0  0  0  0  0  0  0  0  0  # atno 10718 bound_to 10713
  153.9105  135.6793  153.4751 H   0  0  0  0  0  0  0  0  0  0  0  0  # atno 10763 bound_to 10752
  153.1081  135.4796  154.8984 H   0  0  0  0  0  0  0  0  0  0  0  0  # atno 10764 bound_to 10752
  154.7529  135.3190  154.8478 H   0  0  0  0  0  0  0  0  0  0  0  0  # atno 10765 bound_to 10752
  139.8783  134.9259  156.5193 H   0  0  0  0  0  0  0  0  0  0  0  0  # atno 11005 bound_to 11000
  144.7496  140.5158  143.6811 LP  0  0  0  0  0  0  0  0  0  0  0  0  # atno 17320 bound_to 7965
  145.5699  139.1483  143.3294 LP  0  0  0  0  0  0  0  0  0  0  0  0  # atno 17321 bound_to 7965
  139.4788  144.5260  151.8734 LP  0  0  0  0  0  0  0  0  0  0  0  0  # atno 17342 bound_to 10162
  140.4350  144.2064  150.5889 LP  0  0  0  0  0  0  0  0  0  0  0  0  # atno 17343 bound_to 10162
  156.0186  130.3804  150.2031 LP  0  0  0  0  0  0  0  0  0  0  0  0  # atno 17370 bound_to 10713
  157.0220  130.9982  151.3337 LP  0  0  0  0  0  0  0  0  0  0  0  0  # atno 17371 bound_to 10713
  140.8462  133.8167  155.9123 LP  0  0  0  0  0  0  0  0  0  0  0  0  # atno 17394 bound_to 11000
  140.9189  134.2167  157.4939 LP  0  0  0  0  0  0  0  0  0  0  0  0  # atno 17395 bound_to 11000

$$$$
