AV-unprocessed.smi:2183|AV-procd|sdf|8866|dock8
  -GOLD-   2272012 63D 1   1.00000     0.00000
 Structure written by MMmdl.
 40 42  0  0  0  0  0  0  0  0  1 V2000
  152.9974  138.5237  154.6328 O   0  0  0  0  0  0  0  0  0  0  0  0
  151.7586  138.9387  155.1725 C   0  0  0  0  0  0  0  0  0  0  0  0
  151.8823  139.9000  156.3211 C   0  0  0  0  0  0  0  0  0  0  0  0
  152.7160  139.7077  157.3465 N   0  0  0  0  0  0  0  0  0  0  0  0
  152.5010  140.8236  158.1307 C   0  0  0  0  0  0  0  0  0  0  0  0
  153.0852  141.2098  159.3584 C   0  0  0  0  0  0  0  0  0  0  0  0
  152.7038  142.4154  159.9826 C   0  0  0  0  0  0  0  0  0  0  0  0
  151.7338  143.2496  159.3901 C   0  0  0  0  0  0  0  0  0  0  0  0
  151.1387  142.8830  158.1674 C   0  0  0  0  0  0  0  0  0  0  0  0
  151.5240  141.6789  157.5476 C   0  0  0  0  0  0  0  0  0  0  0  0
  151.1459  141.0387  156.3709 N   0  0  0  0  0  0  0  0  0  0  0  0
  150.1642  141.5151  155.4051 C   0  0  0  0  0  0  0  0  0  0  0  0
  148.7112  141.3622  155.9010 C   0  0  1  0  0  0  0  0  0  0  0  0
  148.4607  142.2650  156.9598 O   0  0  0  0  0  0  0  0  0  0  0  0
  147.6815  141.6197  154.7913 C   0  0  0  0  0  0  0  0  0  0  0  0
  146.4006  141.8009  155.3808 O   0  0  0  0  0  0  0  0  0  0  0  0
  145.6467  142.8842  154.9836 C   0  0  0  0  0  0  0  0  0  0  0  0
  144.7055  143.3822  155.9084 C   0  0  0  0  0  0  0  0  0  0  0  0
  143.8945  144.4878  155.5878 C   0  0  0  0  0  0  0  0  0  0  0  0
  144.0185  145.1104  154.3319 C   0  0  0  0  0  0  0  0  0  0  0  0
  143.0289  146.4675  153.9373 Cl  0  0  0  0  0  0  0  0  0  0  0  0
  144.9525  144.6233  153.3987 C   0  0  0  0  0  0  0  0  0  0  0  0
  145.7629  143.5168  153.7195 C   0  0  0  0  0  0  0  0  0  0  0  0
  152.8303  137.9189  153.9266 H   0  0  0  0  0  0  0  0  0  0  0  0
  151.1758  139.4062  154.3786 H   0  0  0  0  0  0  0  0  0  0  0  0
  151.2155  138.0525  155.4991 H   0  0  0  0  0  0  0  0  0  0  0  0
  153.8285  140.5770  159.8204 H   0  0  0  0  0  0  0  0  0  0  0  0
  153.1571  142.7011  160.9207 H   0  0  0  0  0  0  0  0  0  0  0  0
  151.4463  144.1710  159.8751 H   0  0  0  0  0  0  0  0  0  0  0  0
  150.3946  143.5194  157.7129 H   0  0  0  0  0  0  0  0  0  0  0  0
  150.3788  142.5607  155.1816 H   0  0  0  0  0  0  0  0  0  0  0  0
  150.3052  140.9767  154.4677 H   0  0  0  0  0  0  0  0  0  0  0  0
  148.5593  140.3566  156.2929 H   0  0  0  0  0  0  0  0  0  0  0  0
  148.5035  143.1462  156.6214 H   0  0  0  0  0  0  0  0  0  0  0  0
  147.9575  142.5212  154.2412 H   0  0  0  0  0  0  0  0  0  0  0  0
  147.6690  140.7842  154.0889 H   0  0  0  0  0  0  0  0  0  0  0  0
  144.6040  142.9114  156.8753 H   0  0  0  0  0  0  0  0  0  0  0  0
  143.1788  144.8576  156.3072 H   0  0  0  0  0  0  0  0  0  0  0  0
  145.0504  145.0988  152.4337 H   0  0  0  0  0  0  0  0  0  0  0  0
  146.4680  143.1743  152.9777 H   0  0  0  0  0  0  0  0  0  0  0  0
  1  2  1  0  0  0  0
  1 24  1  0  0  0  0
  2  3  1  0  0  0  0
  2 25  1  0  0  0  0
  2 26  1  0  0  0  0
  3 11  1  0  0  0  0
  3  4  2  0  0  0  0
  4  5  1  0  0  0  0
  5 10  2  0  0  0  0
  5  6  1  0  0  0  0
  6  7  2  0  0  0  0
  6 27  1  0  0  0  0
  7  8  1  0  0  0  0
  7 28  1  0  0  0  0
  8  9  2  0  0  0  0
  8 29  1  0  0  0  0
  9 10  1  0  0  0  0
  9 30  1  0  0  0  0
 10 11  1  0  0  0  0
 11 12  1  0  0  0  0
 12 13  1  0  0  0  0
 12 31  1  0  0  0  0
 12 32  1  0  0  0  0
 13 14  1  0  0  0  0
 13 15  1  0  0  0  0
 13 33  1  0  0  0  0
 14 34  1  0  0  0  0
 15 16  1  0  0  0  0
 15 35  1  0  0  0  0
 15 36  1  0  0  0  0
 16 17  1  0  0  0  0
 17 23  1  0  0  0  0
 17 18  2  0  0  0  0
 18 19  1  0  0  0  0
 18 37  1  0  0  0  0
 19 20  2  0  0  0  0
 19 38  1  0  0  0  0
 20 21  1  0  0  0  0
 20 22  1  0  0  0  0
 22 23  2  0  0  0  0
 22 39  1  0  0  0  0
 23 40  1  0  0  0  0
M  END
> <s_m_source_file>
AV-unprocessed.smi

> <i_m_source_file_index>
2183

> <i_lp_mmshare_version>
43012

> <i_f3d_flags>
0

> <s_epik_input>
W2NIXTFbY0hdW2NIXVtjSF1jKGMxMiluKGMobjIpW0NIMl1bT0hdKVtDSDJdW0NASF0oW09IXSlbQ0gyXU9jM1tjSF1bY0hdYyhDbClbY0hdW2NIXTM=

> <s_epik_cmdline>
J2VwaWtfcHl0aG9uJywgJy1waCcsICc3LjAnLCAnLXRuJywgJzgnLCAnLW1hJywgJzIwMCcsICctbWV0YWxfYmluZGluZycsICctaW1hZScsICc8aW5maWxlLm1hZT4nLCAnLW9tYWUnLCAnPG91dGZpbGUubWFlPic=

> <r_lp_tautomer_probability>
1

> <r_epik_Ionization_Penalty>
0.0586933

> <r_epik_Ionization_Penalty_Charging>
0

> <r_epik_Ionization_Penalty_Neutral>
0.0586933

> <r_epik_State_Penalty>
0.0507031

> <r_epik_Charging_Adjusted_Penalty>
0.0507031

> <i_epik_Tot_Q>
0

> <i_epik_Tot_abs_Q>
0

> <r_epik_Metal_State_Penalty>
5.29335e-05

> <b_epik_Metal_Only>
0

> <s_lp_Force_Field>
OPLS_2005

> <r_lp_Energy>
14.4391

> <b_lp_Chiralities_Consistent>
1

> <s_lp_Variant>
AV-unprocessed.smi:2183-2

> <Gold.Version>
5.8.1

> <Gold.Id.Protein>
6NUR|6NUR_protein|mol2

> <Gold.PLP.Fitness>
52.2928

> <Gold.PLP.PLP>
-48.5861

> <Gold.PLP.part.hbond>
-2.0000

> <Gold.PLP.part.metal>
0.0000

> <Gold.PLP.part.buried>
-5.4255

> <Gold.PLP.part.nonpolar>
-40.0675

> <Gold.PLP.part.repulsive>
0.1132

> <Gold.PLP.ligand.clash>
0.0000

> <Gold.PLP.ligand.torsion>
1.1830

> <Gold.PLP.Chemscore.Hbond>
2.0000

> <Gold.PLP.Chemscore.CHOScore>
0.0000

> <Gold.PLP.Chemscore.Metal>
0.0000

> <Gold.Chemscore.Hbonds>
donor molecule, donor type, donor heavy atom, donor atom, acceptor molecule, acceptor atom, score
      L1  H    14    34       P1  8028  1.00
      P1  H  7997  8010       L1     4  1.00

> <Gold.PLP.Chemscore.Internal.Correction>
0.0726

> <Gold.Rescore>
     Score         DG    S(hbond)    S(metal)    S(lipo)     H(rot)  DE(clash)    DE(int)     intcor
     13.06     -15.96       0.88        0.00     130.80       3.04       1.88       1.02       ----

> <Gold.Chemscore.Fitness>
13.0610

> <Gold.Chemscore.DG>
-15.9580

> <Gold.Chemscore.ZeroCoef>
-5.4800

> <Gold.Chemscore.Hbond>
0.8819

> <Gold.Chemscore.Metal>
0.0000

> <Gold.Chemscore.Lipo>
130.8046

> <Gold.Chemscore.Internal_Hbond>
0.0000

> <Gold.Chemscore.DEClash>
1.8753

> <Gold.Chemscore.DEInternal>
1.0217

> <Gold.Chemscore.Rot>
3.0358

> <Gold.Chemscore.Internal.Correction>
   9.000000E+99

> <Gold.Chemscore.Hbonds>
donor molecule, donor type, donor heavy atom, donor atom, acceptor molecule, acceptor atom, score
      L1  H    14    34       P1  8028  0.65
      P1  H  7997  8010       L1     4  0.09

> <Gold.Chemscore.Hbond.Weighted>
-2.9454

> <Gold.Chemscore.Metal.Weighted>
-0.0000

> <Gold.Chemscore.Lipo.Weighted>
-15.3041

> <Gold.Chemscore.Internal_Hbond.Weighted>
0.0000

> <Gold.Chemscore.DEClash.Weighted>
1.8753

> <Gold.Chemscore.DEInternal.Weighted>
1.0217

> <Gold.Chemscore.Rot.Weighted>
7.7716

> <Gold.Chemscore.Internal.Correction.Weighted>
   9.000000E+99

> <Gold.Protein.RotatedTorsions>
[ 6907 6896 6895 6894 ] final -122.32 input  -60.11 | X-H torsion
[ 7974 7965 7964 7962 ] final -151.53 input  175.53 | X-H torsion
[ 8008 7997 7996 7995 ] final   68.62 input   59.86 | X-H torsion
[ 10167 10162 10161 10158 ] final  127.63 input  -65.29 | X-H torsion
[ 10718 10713 10712 10709 ] final   83.11 input   66.30 | X-H torsion
[ 10763 10752 10751 10750 ] final   21.64 input  -60.55 | X-H torsion
[ 11005 11000 10999 10996 ] final -173.76 input  -57.11 | X-H torsion

> <Gold.Protein.ActiveResidues>
 VAL166  LYS551  ARG553  GLY616  TRP617  ASP618  TYR619  PRO620  LYS621  CYS622 
 ASP623  PHE694  ASN695  SER759  ASP760  ASP761  ALA762  ILE779  LEU786  VAL792 
 PHE793  MET794  SER795  GLU796  ALA797  LYS798  CYS799  TRP800  GLU811  SER814 

> <Gold.Protein.RotatedAtoms>
  150.8565  133.7708  159.3006 H   0  0  0  0  0  0  0  0  0  0  0  0  # atno 6907 bound_to 6896
  151.5364  135.1067  159.9925 H   0  0  0  0  0  0  0  0  0  0  0  0  # atno 6908 bound_to 6896
  152.4593  133.7745  159.6873 H   0  0  0  0  0  0  0  0  0  0  0  0  # atno 6909 bound_to 6896
  144.7845  140.4785  143.5816 H   0  0  0  0  0  0  0  0  0  0  0  0  # atno 7974 bound_to 7965
  155.7111  140.3494  155.4974 H   0  0  0  0  0  0  0  0  0  0  0  0  # atno 8008 bound_to 7997
  155.9355  140.1092  157.1120 H   0  0  0  0  0  0  0  0  0  0  0  0  # atno 8009 bound_to 7997
  154.4093  140.1223  156.4845 H   0  0  0  0  0  0  0  0  0  0  0  0  # atno 8010 bound_to 7997
  139.5568  144.6854  151.4158 H   0  0  0  0  0  0  0  0  0  0  0  0  # atno 10167 bound_to 10162
  157.6872  131.0077  150.2474 H   0  0  0  0  0  0  0  0  0  0  0  0  # atno 10718 bound_to 10713
  153.0979  135.6665  153.9728 H   0  0  0  0  0  0  0  0  0  0  0  0  # atno 10763 bound_to 10752
  153.9307  135.3004  155.3447 H   0  0  0  0  0  0  0  0  0  0  0  0  # atno 10764 bound_to 10752
  154.7399  135.5084  153.9179 H   0  0  0  0  0  0  0  0  0  0  0  0  # atno 10765 bound_to 10752
  140.4821  134.6066  157.4923 H   0  0  0  0  0  0  0  0  0  0  0  0  # atno 11005 bound_to 11000
  145.5960  139.1499  143.3156 LP  0  0  0  0  0  0  0  0  0  0  0  0  # atno 17320 bound_to 7965
  146.2070  140.6084  142.9077 LP  0  0  0  0  0  0  0  0  0  0  0  0  # atno 17321 bound_to 7965
  140.6842  143.8011  150.7163 LP  0  0  0  0  0  0  0  0  0  0  0  0  # atno 17342 bound_to 10162
  140.1474  143.4387  152.2154 LP  0  0  0  0  0  0  0  0  0  0  0  0  # atno 17343 bound_to 10162
  156.3077  130.3767  149.7691 LP  0  0  0  0  0  0  0  0  0  0  0  0  # atno 17370 bound_to 10713
  156.5301  130.8253  151.3234 LP  0  0  0  0  0  0  0  0  0  0  0  0  # atno 17371 bound_to 10713
  139.9820  134.7121  155.9842 LP  0  0  0  0  0  0  0  0  0  0  0  0  # atno 17394 bound_to 11000
  141.1526  133.6546  156.4061 LP  0  0  0  0  0  0  0  0  0  0  0  0  # atno 17395 bound_to 11000

$$$$
