AV-unprocessed.smi:72|AV-procd|sdf|701|dock10
  -GOLD-   2262017 23D 1   1.00000     0.00000
 Structure written by MMmdl.
 30 31  0  0  0  0  0  0  0  0  2 V2000
  145.8058  138.4594  152.2567 N   0  0  0  0  0  0  0  0  0  0  0  0
  145.2856  137.1900  152.1148 C   0  0  0  0  0  0  0  0  0  0  0  0
  146.1346  136.1939  151.6689 N   0  3  0  0  0  0  0  0  0  0  0  0
  145.7850  134.9171  151.4627 C   0  0  0  0  0  0  0  0  0  0  0  0
  144.5321  134.5542  151.6638 N   0  0  0  0  0  0  0  0  0  0  0  0
  144.0681  133.1297  151.4563 C   0  0  2  0  0  0  0  0  0  0  0  0
  144.8453  132.2896  152.2480 O   0  0  0  0  0  0  0  0  0  0  0  0
  145.9838  131.8756  151.5045 C   0  0  1  0  0  0  0  0  0  0  0  0
  146.6184  130.6414  152.1613 C   0  0  0  0  0  0  0  0  0  0  0  0
  147.9070  130.9655  152.6381 O   0  0  0  0  0  0  0  0  0  0  0  0
  145.3769  131.6020  150.1266 C   0  0  2  0  0  0  0  0  0  0  0  0
  146.3569  131.7700  149.1223 O   0  0  0  0  0  0  0  0  0  0  0  0
  144.2887  132.6678  149.9976 C   0  0  1  0  0  0  0  0  0  0  0  0
  143.1136  132.1090  149.4477 O   0  0  0  0  0  0  0  0  0  0  0  0
  143.6049  135.4941  152.1855 C   0  0  0  0  0  0  0  0  0  0  0  0
  142.4551  135.1486  152.4557 O   0  0  0  0  0  0  0  0  0  0  0  0
  144.0646  136.8064  152.3657 N   0  0  0  0  0  0  0  0  0  0  0  0
  143.0288  133.1222  151.7900 H   0  0  0  0  0  0  0  0  0  0  0  0
  146.7031  132.6945  151.4338 H   0  0  0  0  0  0  0  0  0  0  0  0
  144.9548  130.5960  150.0892 H   0  0  0  0  0  0  0  0  0  0  0  0
  144.6193  133.5022  149.3771 H   0  0  0  0  0  0  0  0  0  0  0  0
  145.2628  139.2461  152.5836 H   0  0  0  0  0  0  0  0  0  0  0  0
  146.7633  138.7042  152.0482 H   0  0  0  0  0  0  0  0  0  0  0  0
  146.5470  134.2163  151.1482 H   0  0  0  0  0  0  0  0  0  0  0  0
  145.9971  130.2558  152.9703 H   0  0  0  0  0  0  0  0  0  0  0  0
  146.7308  129.8420  151.4282 H   0  0  0  0  0  0  0  0  0  0  0  0
  148.4640  131.1484  151.8966 H   0  0  0  0  0  0  0  0  0  0  0  0
  147.1969  131.5249  149.4804 H   0  0  0  0  0  0  0  0  0  0  0  0
  142.4329  132.7655  149.4594 H   0  0  0  0  0  0  0  0  0  0  0  0
  147.0948  136.4515  151.4897 H   0  0  0  0  0  0  0  0  0  0  0  0
  1  2  1  0  0  0  0
  1 22  1  0  0  0  0
  1 23  1  0  0  0  0
  2 17  2  0  0  0  0
  2  3  1  0  0  0  0
  3  4  2  0  0  0  0
  3 30  1  0  0  0  0
  4  5  1  0  0  0  0
  4 24  1  0  0  0  0
  5  6  1  0  0  0  0
  5 15  1  0  0  0  0
  6 18  1  0  0  0  0
  6 13  1  0  0  0  0
  6  7  1  0  0  0  0
  7  8  1  0  0  0  0
  8 19  1  0  0  0  0
  8  9  1  0  0  0  0
  8 11  1  0  0  0  0
  9 10  1  0  0  0  0
  9 25  1  0  0  0  0
  9 26  1  0  0  0  0
 10 27  1  0  0  0  0
 11 20  1  0  0  0  0
 11 12  1  0  0  0  0
 11 13  1  0  0  0  0
 12 28  1  0  0  0  0
 13 21  1  0  0  0  0
 13 14  1  0  0  0  0
 14 29  1  0  0  0  0
 15 16  2  0  0  0  0
 15 17  1  0  0  0  0
M  CHG  1   3   1
M  END
> <s_m_source_file>
AV-unprocessed.smi

> <i_m_source_file_index>
72

> <i_lp_mmshare_version>
43012

> <i_f3d_flags>
0

> <s_epik_input>
W05IMl1jMW5bY0hdbihjKD1PKW4xKVtDQEBIXTJPW0NASF0oW0NIMl1bT0hdKVtDQEBIXShbT0hdKVtDQEhdMltPSF0=

> <s_epik_cmdline>
J2VwaWtfcHl0aG9uJywgJy1waCcsICc3LjAnLCAnLXRuJywgJzgnLCAnLW1hJywgJzIwMCcsICctbWV0YWxfYmluZGluZycsICctaW1hZScsICc8aW5maWxlLm1hZT4nLCAnLW9tYWUnLCAnPG91dGZpbGUubWFlPic=

> <r_lp_tautomer_probability>
4.77166e-05

> <r_epik_Ionization_Penalty>
0.104979

> <r_epik_Ionization_Penalty_Charging>
0.0999619

> <r_epik_Ionization_Penalty_Neutral>
0.00501745

> <r_epik_State_Penalty>
2.51541

> <r_epik_Charging_Adjusted_Penalty>
2.61537

> <i_epik_Tot_Q>
1

> <i_epik_Tot_abs_Q>
1

> <r_epik_Metal_State_Penalty>
3.53763

> <b_epik_Metal_Only>
0

> <s_epik_Chemistry_Notes>
This compound contains an acetal/aminal-like group ( X-CH(R)-Y where X, Y are N, S, or O) that may be acid/base labile, releasing an aldehyde.

> <s_lp_Force_Field>
OPLS_2005

> <r_lp_Energy>
25.3585

> <b_lp_Chiralities_Consistent>
1

> <s_lp_Variant>
AV-unprocessed.smi:72-39

> <Gold.Version>
5.8.1

> <Gold.Id.Protein>
6NUR|6NUR_protein|mol2

> <Gold.PLP.Fitness>
45.7918

> <Gold.PLP.PLP>
-28.0101

> <Gold.PLP.part.hbond>
-7.1486

> <Gold.PLP.part.metal>
0.0000

> <Gold.PLP.part.buried>
-4.4920

> <Gold.PLP.part.nonpolar>
-17.4742

> <Gold.PLP.part.repulsive>
0.6395

> <Gold.PLP.ligand.clash>
0.0000

> <Gold.PLP.ligand.torsion>
0.7287

> <Gold.PLP.Chemscore.Hbond>
6.3978

> <Gold.PLP.Chemscore.CHOScore>
0.0000

> <Gold.PLP.Chemscore.Metal>
0.0000

> <Gold.Chemscore.Hbonds>
donor molecule, donor type, donor heavy atom, donor atom, acceptor molecule, acceptor atom, score
      L1  H     1    22       P1 10175  1.00
      L1  H     3    30       P1  7948  2.00
      L1  H    10    27       P1 10747  1.00
      L1  H    12    28       P1 10747  0.99
      L1  H    14    29       P1 10186  0.63
      P1  H 10785 10796       L1    14  0.84

> <Gold.PLP.Chemscore.Internal.Correction>
0.0458

> <Gold.Rescore>
     Score         DG    S(hbond)    S(metal)    S(lipo)     H(rot)  DE(clash)    DE(int)     intcor
     14.62     -16.59       5.20        0.00      35.75       4.08       0.36       1.61       ----

> <Gold.Chemscore.Fitness>
14.6224

> <Gold.Chemscore.DG>
-16.5949

> <Gold.Chemscore.ZeroCoef>
-5.4800

> <Gold.Chemscore.Hbond>
5.2014

> <Gold.Chemscore.Metal>
0.0000

> <Gold.Chemscore.Lipo>
35.7488

> <Gold.Chemscore.Internal_Hbond>
0.0000

> <Gold.Chemscore.DEClash>
0.3635

> <Gold.Chemscore.DEInternal>
1.6091

> <Gold.Chemscore.Rot>
4.0783

> <Gold.Chemscore.Internal.Correction>
   9.000000E+99

> <Gold.Chemscore.Hbonds>
donor molecule, donor type, donor heavy atom, donor atom, acceptor molecule, acceptor atom, score
      L1  H     1    22       P1 10175  0.92
      L1  H     3    30       P1  7948  0.94
      L1  H    10    27       P1 10747  0.96
      L1  H    12    28       P1 10747  0.92
      L1  H    14    29       P1 10186  0.63
      P1  H 10785 10796       L1    14  0.78

> <Gold.Chemscore.Hbond.Weighted>
-17.3727

> <Gold.Chemscore.Metal.Weighted>
-0.0000

> <Gold.Chemscore.Lipo.Weighted>
-4.1826

> <Gold.Chemscore.Internal_Hbond.Weighted>
0.0000

> <Gold.Chemscore.DEClash.Weighted>
0.3635

> <Gold.Chemscore.DEInternal.Weighted>
1.6091

> <Gold.Chemscore.Rot.Weighted>
10.4404

> <Gold.Chemscore.Internal.Correction.Weighted>
   9.000000E+99

> <Gold.Protein.RotatedTorsions>
[ 6907 6896 6895 6894 ] final  -46.81 input  -60.11 | X-H torsion
[ 7974 7965 7964 7962 ] final  -76.64 input  175.53 | X-H torsion
[ 8008 7997 7996 7995 ] final  112.45 input   59.86 | X-H torsion
[ 10167 10162 10161 10158 ] final  168.65 input  -65.29 | X-H torsion
[ 10718 10713 10712 10709 ] final   45.07 input   66.30 | X-H torsion
[ 10763 10752 10751 10750 ] final  110.29 input  -60.55 | X-H torsion
[ 11005 11000 10999 10996 ] final    2.48 input  -57.11 | X-H torsion

> <Gold.Protein.ActiveResidues>
 VAL166  LYS551  ARG553  GLY616  TRP617  ASP618  TYR619  PRO620  LYS621  CYS622 
 ASP623  PHE694  ASN695  SER759  ASP760  ASP761  ALA762  ILE779  LEU786  VAL792 
 PHE793  MET794  SER795  GLU796  ALA797  LYS798  CYS799  TRP800  GLU811  SER814 

> <Gold.Protein.RotatedAtoms>
  150.9074  134.8489  159.7401 H   0  0  0  0  0  0  0  0  0  0  0  0  # atno 6907 bound_to 6896
  152.4926  134.4411  159.9553 H   0  0  0  0  0  0  0  0  0  0  0  0  # atno 6908 bound_to 6896
  151.4457  133.3592  159.2823 H   0  0  0  0  0  0  0  0  0  0  0  0  # atno 6909 bound_to 6896
  145.6101  140.9388  143.1194 H   0  0  0  0  0  0  0  0  0  0  0  0  # atno 7974 bound_to 7965
  156.2193  140.2999  155.9914 H   0  0  0  0  0  0  0  0  0  0  0  0  # atno 8008 bound_to 7997
  155.2523  140.0426  157.3005 H   0  0  0  0  0  0  0  0  0  0  0  0  # atno 8009 bound_to 7997
  154.5816  140.2377  155.8054 H   0  0  0  0  0  0  0  0  0  0  0  0  # atno 8010 bound_to 7997
  139.4973  144.3791  151.9641 H   0  0  0  0  0  0  0  0  0  0  0  0  # atno 10167 bound_to 10162
  157.4336  130.8040  149.7627 H   0  0  0  0  0  0  0  0  0  0  0  0  # atno 10718 bound_to 10713
  153.4469  135.3753  155.2261 H   0  0  0  0  0  0  0  0  0  0  0  0  # atno 10763 bound_to 10752
  154.8755  135.3876  154.4085 H   0  0  0  0  0  0  0  0  0  0  0  0  # atno 10764 bound_to 10752
  153.4639  135.7087  153.6097 H   0  0  0  0  0  0  0  0  0  0  0  0  # atno 10765 bound_to 10752
  140.6039  133.9811  155.8145 H   0  0  0  0  0  0  0  0  0  0  0  0  # atno 11005 bound_to 11000
  144.7273  139.7835  143.7360 LP  0  0  0  0  0  0  0  0  0  0  0  0  # atno 17320 bound_to 7965
  146.1510  139.4594  143.0048 LP  0  0  0  0  0  0  0  0  0  0  0  0  # atno 17321 bound_to 7965
  140.3228  144.3408  150.6005 LP  0  0  0  0  0  0  0  0  0  0  0  0  # atno 17342 bound_to 10162
  140.5709  143.2181  151.7601 LP  0  0  0  0  0  0  0  0  0  0  0  0  # atno 17343 bound_to 10162
  155.9922  130.3932  150.2951 LP  0  0  0  0  0  0  0  0  0  0  0  0  # atno 17370 bound_to 10713
  157.1110  131.0221  151.3048 LP  0  0  0  0  0  0  0  0  0  0  0  0  # atno 17371 bound_to 10713
  141.0854  133.9999  157.3322 LP  0  0  0  0  0  0  0  0  0  0  0  0  # atno 17394 bound_to 11000
  139.9221  135.0201  156.8101 LP  0  0  0  0  0  0  0  0  0  0  0  0  # atno 17395 bound_to 11000

$$$$
