AV-unprocessed.smi:890|AV-procd|sdf|4059|dock3
  -GOLD-   22720 1543D 1   1.00000     0.00000
 Structure written by MMmdl.
 51 54  0  0  0  0  0  0  0  0  1 V2000
  150.6346  134.2471  155.6356 O   0  0  0  0  0  0  0  0  0  0  0  0
  149.9728  134.8131  154.7654 C   0  0  0  0  0  0  0  0  0  0  0  0
  149.1666  134.1984  153.8837 N   0  0  0  0  0  0  0  0  0  0  0  0
  148.8867  132.8076  153.7641 C   0  0  0  0  0  0  0  0  0  0  0  0
  149.7372  131.8262  154.3296 C   0  0  0  0  0  0  0  0  0  0  0  0
  149.4227  130.4657  154.1706 C   0  0  0  0  0  0  0  0  0  0  0  0
  148.2633  130.1317  153.4511 C   0  0  0  0  0  0  0  0  0  0  0  0
  147.4335  131.0532  152.9230 N   0  0  0  0  0  0  0  0  0  0  0  0
  147.7154  132.3699  153.0814 C   0  0  0  0  0  0  0  0  0  0  0  0
  146.7983  133.2909  152.5252 N   0  0  0  0  0  0  0  0  0  0  0  0
  146.6951  133.4503  151.0787 C   0  0  0  0  0  0  0  0  0  0  0  0
  145.3833  134.1977  150.8574 C   0  0  0  0  0  0  0  0  0  0  0  0
  144.4938  133.6235  151.9556 C   0  0  0  0  0  0  0  0  0  0  0  0
  145.4648  133.3706  153.1141 C   0  0  0  0  0  0  0  0  0  0  0  0
  149.9839  136.1381  154.5629 N   0  0  0  0  0  0  0  0  0  0  0  0
  150.7619  137.1124  155.3226 C   0  0  0  0  0  0  0  0  0  0  0  0
  150.0395  137.4465  156.6368 C   0  0  0  0  0  0  0  0  0  0  0  0
  150.7466  138.5927  157.3805 C   0  0  0  0  0  0  0  0  0  0  0  0
  150.8034  139.7830  156.5319 N   0  0  0  0  0  0  0  0  0  0  0  0
  151.4248  140.8641  157.2789 C   0  0  0  0  0  0  0  0  0  0  0  0
  150.5679  141.6046  158.2804 C   0  0  0  0  0  0  0  0  0  0  0  0
  150.9617  142.2732  156.9854 C   0  0  0  0  0  0  0  0  0  0  0  0
  151.6086  139.5045  155.3424 C   0  0  0  0  0  0  0  0  0  0  0  0
  150.9487  138.3981  154.5004 C   0  0  0  0  0  0  0  0  0  0  0  0
  148.7764  134.7809  153.1577 H   0  0  0  0  0  0  0  0  0  0  0  0
  150.6194  132.0950  154.8901 H   0  0  0  0  0  0  0  0  0  0  0  0
  150.0556  129.6975  154.5895 H   0  0  0  0  0  0  0  0  0  0  0  0
  147.9895  129.0977  153.3029 H   0  0  0  0  0  0  0  0  0  0  0  0
  147.5477  133.9991  150.6778 H   0  0  0  0  0  0  0  0  0  0  0  0
  146.6470  132.4801  150.5824 H   0  0  0  0  0  0  0  0  0  0  0  0
  145.5302  135.2667  151.0175 H   0  0  0  0  0  0  0  0  0  0  0  0
  144.9752  134.0552  149.8564 H   0  0  0  0  0  0  0  0  0  0  0  0
  143.6715  134.2852  152.2283 H   0  0  0  0  0  0  0  0  0  0  0  0
  144.0669  132.6766  151.6217 H   0  0  0  0  0  0  0  0  0  0  0  0
  145.2024  132.4646  153.6627 H   0  0  0  0  0  0  0  0  0  0  0  0
  145.4382  134.2094  153.8101 H   0  0  0  0  0  0  0  0  0  0  0  0
  149.4099  136.5053  153.8179 H   0  0  0  0  0  0  0  0  0  0  0  0
  151.7470  136.7118  155.5695 H   0  0  0  0  0  0  0  0  0  0  0  0
  149.0055  137.7314  156.4350 H   0  0  0  0  0  0  0  0  0  0  0  0
  149.9983  136.5627  157.2745 H   0  0  0  0  0  0  0  0  0  0  0  0
  150.2000  138.8226  158.2957 H   0  0  0  0  0  0  0  0  0  0  0  0
  151.7531  138.2905  157.6755 H   0  0  0  0  0  0  0  0  0  0  0  0
  152.4749  140.7691  157.5508 H   0  0  0  0  0  0  0  0  0  0  0  0
  149.5294  141.2976  158.3901 H   0  0  0  0  0  0  0  0  0  0  0  0
  151.0498  141.9512  159.1922 H   0  0  0  0  0  0  0  0  0  0  0  0
  151.7052  143.0659  157.0346 H   0  0  0  0  0  0  0  0  0  0  0  0
  150.1843  142.4096  156.2359 H   0  0  0  0  0  0  0  0  0  0  0  0
  151.6978  140.4114  154.7431 H   0  0  0  0  0  0  0  0  0  0  0  0
  152.6191  139.2104  155.6310 H   0  0  0  0  0  0  0  0  0  0  0  0
  151.5570  138.1925  153.6189 H   0  0  0  0  0  0  0  0  0  0  0  0
  149.9833  138.7521  154.1346 H   0  0  0  0  0  0  0  0  0  0  0  0
  1  2  2  0  0  0  0
  2  3  1  0  0  0  0
  2 15  1  0  0  0  0
  3  4  1  0  0  0  0
  3 25  1  0  0  0  0
  4  9  1  0  0  0  0
  4  5  2  0  0  0  0
  5  6  1  0  0  0  0
  5 26  1  0  0  0  0
  6  7  2  0  0  0  0
  6 27  1  0  0  0  0
  7  8  1  0  0  0  0
  7 28  1  0  0  0  0
  8  9  2  0  0  0  0
  9 10  1  0  0  0  0
 10 14  1  0  0  0  0
 10 11  1  0  0  0  0
 11 12  1  0  0  0  0
 11 29  1  0  0  0  0
 11 30  1  0  0  0  0
 12 13  1  0  0  0  0
 12 31  1  0  0  0  0
 12 32  1  0  0  0  0
 13 14  1  0  0  0  0
 13 33  1  0  0  0  0
 13 34  1  0  0  0  0
 14 35  1  0  0  0  0
 14 36  1  0  0  0  0
 15 16  1  0  0  0  0
 15 37  1  0  0  0  0
 16 24  1  0  0  0  0
 16 17  1  0  0  0  0
 16 38  1  0  0  0  0
 17 18  1  0  0  0  0
 17 39  1  0  0  0  0
 17 40  1  0  0  0  0
 18 19  1  0  0  0  0
 18 41  1  0  0  0  0
 18 42  1  0  0  0  0
 19 20  1  0  0  0  0
 19 23  1  0  0  0  0
 20 22  1  0  0  0  0
 20 21  1  0  0  0  0
 20 43  1  0  0  0  0
 21 22  1  0  0  0  0
 21 44  1  0  0  0  0
 21 45  1  0  0  0  0
 22 46  1  0  0  0  0
 22 47  1  0  0  0  0
 23 24  1  0  0  0  0
 23 48  1  0  0  0  0
 23 49  1  0  0  0  0
 24 50  1  0  0  0  0
 24 51  1  0  0  0  0
M  END
> <s_m_source_file>
AV-unprocessed.smi

> <i_m_source_file_index>
890

> <i_lp_mmshare_version>
43012

> <i_f3d_flags>
0

> <s_epik_input>
W0NIMl0xW0NIMl1bQ0hdMU4oW0NIMl1bQ0gyXTIpW0NIMl1bQ0gyXVtDSF0yW05IXUMoPU8pW05IXWMzW2NIXVtjSF1bY0hdbmMzTjRbQ0gyXVtDSDJdW0NIMl1bQ0gyXTQ=

> <s_epik_cmdline>
J2VwaWtfcHl0aG9uJywgJy1waCcsICc3LjAnLCAnLXRuJywgJzgnLCAnLW1hJywgJzIwMCcsICctbWV0YWxfYmluZGluZycsICctaW1hZScsICc8aW5maWxlLm1hZT4nLCAnLW9tYWUnLCAnPG91dGZpbGUubWFlPic=

> <r_lp_tautomer_probability>
1

> <r_epik_Ionization_Penalty>
1.12957

> <r_epik_Ionization_Penalty_Charging>
0

> <r_epik_Ionization_Penalty_Neutral>
1.12957

> <r_epik_State_Penalty>
1.1789

> <r_epik_Charging_Adjusted_Penalty>
1.1789

> <i_epik_Tot_Q>
0

> <i_epik_Tot_abs_Q>
0

> <r_epik_Metal_State_Penalty>
1.14786

> <b_epik_Metal_Only>
0

> <s_lp_Force_Field>
OPLS_2005

> <r_lp_Energy>
50.3158

> <b_lp_Chiralities_Consistent>
1

> <s_lp_Variant>
AV-unprocessed.smi:890-3

> <Gold.Version>
5.8.1

> <Gold.Id.Protein>
6NUR|6NUR_protein|mol2

> <Gold.PLP.Fitness>
44.2194

> <Gold.PLP.PLP>
-39.4335

> <Gold.PLP.part.hbond>
-2.2318

> <Gold.PLP.part.metal>
0.0000

> <Gold.PLP.part.buried>
-5.8211

> <Gold.PLP.part.nonpolar>
-32.0977

> <Gold.PLP.part.repulsive>
0.5066

> <Gold.PLP.ligand.clash>
0.0000

> <Gold.PLP.ligand.torsion>
1.1472

> <Gold.PLP.Chemscore.Hbond>
1.8640

> <Gold.PLP.Chemscore.CHOScore>
0.0000

> <Gold.PLP.Chemscore.Metal>
0.0000

> <Gold.Chemscore.Hbonds>
donor molecule, donor type, donor heavy atom, donor atom, acceptor molecule, acceptor atom, score
      L1  H     3    25       P1  7948  0.99
      L1  H    15    37       P1  7948  0.82

> <Gold.PLP.Chemscore.Internal.Correction>
1.4884

> <Gold.Rescore>
     Score         DG    S(hbond)    S(metal)    S(lipo)     H(rot)  DE(clash)    DE(int)     intcor
     13.85     -16.22       1.12        0.00      88.24       1.30       0.01       2.35       ----

> <Gold.Chemscore.Fitness>
13.8522

> <Gold.Chemscore.DG>
-16.2204

> <Gold.Chemscore.ZeroCoef>
-5.4800

> <Gold.Chemscore.Hbond>
1.1238

> <Gold.Chemscore.Metal>
0.0000

> <Gold.Chemscore.Lipo>
88.2444

> <Gold.Chemscore.Internal_Hbond>
0.0000

> <Gold.Chemscore.DEClash>
0.0133

> <Gold.Chemscore.DEInternal>
2.3549

> <Gold.Chemscore.Rot>
1.3037

> <Gold.Chemscore.Internal.Correction>
   9.000000E+99

> <Gold.Chemscore.Hbonds>
donor molecule, donor type, donor heavy atom, donor atom, acceptor molecule, acceptor atom, score
      L1  H     3    25       P1  7948  0.24
      L1  H    15    37       P1  7948  0.69

> <Gold.Chemscore.Hbond.Weighted>
-3.7533

> <Gold.Chemscore.Metal.Weighted>
-0.0000

> <Gold.Chemscore.Lipo.Weighted>
-10.3246

> <Gold.Chemscore.Internal_Hbond.Weighted>
0.0000

> <Gold.Chemscore.DEClash.Weighted>
0.0133

> <Gold.Chemscore.DEInternal.Weighted>
2.3549

> <Gold.Chemscore.Rot.Weighted>
3.3376

> <Gold.Chemscore.Internal.Correction.Weighted>
   9.000000E+99

> <Gold.Protein.RotatedTorsions>
[ 6907 6896 6895 6894 ] final  -99.63 input  -60.11 | X-H torsion
[ 7974 7965 7964 7962 ] final  103.50 input  175.53 | X-H torsion
[ 8008 7997 7996 7995 ] final -134.27 input   59.86 | X-H torsion
[ 10167 10162 10161 10158 ] final   39.23 input  -65.29 | X-H torsion
[ 10718 10713 10712 10709 ] final   -9.87 input   66.30 | X-H torsion
[ 10763 10752 10751 10750 ] final  -25.78 input  -60.55 | X-H torsion
[ 11005 11000 10999 10996 ] final  -19.55 input  -57.11 | X-H torsion

> <Gold.Protein.ActiveResidues>
 VAL166  LYS551  ARG553  GLY616  TRP617  ASP618  TYR619  PRO620  LYS621  CYS622 
 ASP623  PHE694  ASN695  SER759  ASP760  ASP761  ALA762  ILE779  LEU786  VAL792 
 PHE793  MET794  SER795  GLU796  ALA797  LYS798  CYS799  TRP800  GLU811  SER814 

> <Gold.Protein.RotatedAtoms>
  150.7087  134.1010  159.3965 H   0  0  0  0  0  0  0  0  0  0  0  0  # atno 6907 bound_to 6896
  151.8997  135.0381  160.0514 H   0  0  0  0  0  0  0  0  0  0  0  0  # atno 6908 bound_to 6896
  152.2424  133.5111  159.5315 H   0  0  0  0  0  0  0  0  0  0  0  0  # atno 6909 bound_to 6896
  145.3451  139.2452  143.3588 H   0  0  0  0  0  0  0  0  0  0  0  0  # atno 7974 bound_to 7965
  155.3593  140.0482  157.3046 H   0  0  0  0  0  0  0  0  0  0  0  0  # atno 8008 bound_to 7997
  154.5186  140.2217  155.8982 H   0  0  0  0  0  0  0  0  0  0  0  0  # atno 8009 bound_to 7997
  156.1664  140.3105  155.8903 H   0  0  0  0  0  0  0  0  0  0  0  0  # atno 8010 bound_to 7997
  140.3859  144.1917  150.6130 H   0  0  0  0  0  0  0  0  0  0  0  0  # atno 10167 bound_to 10162
  156.6818  130.5039  149.5969 H   0  0  0  0  0  0  0  0  0  0  0  0  # atno 10718 bound_to 10713
  153.7053  135.6954  153.5052 H   0  0  0  0  0  0  0  0  0  0  0  0  # atno 10763 bound_to 10752
  153.2312  135.4337  155.0596 H   0  0  0  0  0  0  0  0  0  0  0  0  # atno 10764 bound_to 10752
  154.8331  135.3484  154.6591 H   0  0  0  0  0  0  0  0  0  0  0  0  # atno 10765 bound_to 10752
  140.8377  133.7949  155.9827 H   0  0  0  0  0  0  0  0  0  0  0  0  # atno 11005 bound_to 11000
  146.2991  140.4056  142.8710 LP  0  0  0  0  0  0  0  0  0  0  0  0  # atno 17320 bound_to 7965
  144.8760  140.7337  143.6017 LP  0  0  0  0  0  0  0  0  0  0  0  0  # atno 17321 bound_to 7965
  140.4889  143.2354  151.8847 LP  0  0  0  0  0  0  0  0  0  0  0  0  # atno 17342 bound_to 10162
  139.4792  144.5187  151.8831 LP  0  0  0  0  0  0  0  0  0  0  0  0  # atno 17343 bound_to 10162
  156.1862  130.6530  151.1009 LP  0  0  0  0  0  0  0  0  0  0  0  0  # atno 17370 bound_to 10713
  157.7041  131.0764  150.6725 LP  0  0  0  0  0  0  0  0  0  0  0  0  # atno 17371 bound_to 10713
  140.8929  134.2473  157.5084 LP  0  0  0  0  0  0  0  0  0  0  0  0  # atno 17394 bound_to 11000
  139.8704  134.9670  156.4581 LP  0  0  0  0  0  0  0  0  0  0  0  0  # atno 17395 bound_to 11000

$$$$
