AV-unprocessed.smi:2180|AV-procd|sdf|8859|dock2
  -GOLD-   2272012 53D 1   1.00000     0.00000
 Structure written by MMmdl.
 39 40  0  0  0  0  0  0  0  0  1 V2000
  148.1160  136.1344  160.0136 C   0  0  0  0  0  0  0  0  0  0  0  0
  149.2083  136.6595  159.1289 C   0  0  0  0  0  0  0  0  0  0  0  0
  149.2698  136.6549  157.7075 C   0  0  0  0  0  0  0  0  0  0  0  0
  150.4673  137.2465  157.4185 C   0  0  0  0  0  0  0  0  0  0  0  0
  151.1021  137.5254  156.0949 C   0  0  0  0  0  0  0  0  0  0  0  0
  151.0575  137.5701  158.6292 N   0  0  0  0  0  0  0  0  0  0  0  0
  152.3377  138.2107  158.8907 C   0  0  0  0  0  0  0  0  0  0  0  0
  152.3700  139.6324  158.3276 C   0  0  0  0  0  0  0  0  0  0  0  0
  152.4858  139.8142  157.1159 O   0  0  0  0  0  0  0  0  0  0  0  0
  152.2594  140.6288  159.2199 N   0  0  0  0  0  0  0  0  0  0  0  0
  152.2124  142.0565  158.9096 C   0  0  2  0  0  0  0  0  0  0  0  0
  152.2298  142.9011  160.2095 C   0  0  0  0  0  0  0  0  0  0  0  0
  151.6124  144.3117  160.1096 C   0  0  0  0  0  0  0  0  0  0  0  0
  152.1715  145.2034  158.9823 C   0  0  0  0  0  0  0  0  0  0  0  0
  152.1155  144.6278  157.5467 C   0  0  0  0  0  0  0  0  0  0  0  0
  151.0894  143.6053  157.3444 N   0  0  0  0  0  0  0  0  0  0  0  0
  151.0807  142.3896  157.9179 C   0  0  0  0  0  0  0  0  0  0  0  0
  150.1914  141.5732  157.6789 O   0  0  0  0  0  0  0  0  0  0  0  0
  150.2794  137.2112  159.6740 N   0  0  0  0  0  0  0  0  0  0  0  0
  147.4129  135.5219  159.4490 H   0  0  0  0  0  0  0  0  0  0  0  0
  147.5551  136.9509  160.4688 H   0  0  0  0  0  0  0  0  0  0  0  0
  148.5200  135.5178  160.8172 H   0  0  0  0  0  0  0  0  0  0  0  0
  148.5438  136.2729  157.0053 H   0  0  0  0  0  0  0  0  0  0  0  0
  150.3768  137.4210  155.2878 H   0  0  0  0  0  0  0  0  0  0  0  0
  151.9169  136.8277  155.9019 H   0  0  0  0  0  0  0  0  0  0  0  0
  151.5024  138.5382  156.0524 H   0  0  0  0  0  0  0  0  0  0  0  0
  152.5215  138.2147  159.9657 H   0  0  0  0  0  0  0  0  0  0  0  0
  153.1383  137.6237  158.4375 H   0  0  0  0  0  0  0  0  0  0  0  0
  152.1667  140.3810  160.1946 H   0  0  0  0  0  0  0  0  0  0  0  0
  153.1338  142.2750  158.3681 H   0  0  0  0  0  0  0  0  0  0  0  0
  151.6943  142.3657  160.9951 H   0  0  0  0  0  0  0  0  0  0  0  0
  153.2589  142.9837  160.5613 H   0  0  0  0  0  0  0  0  0  0  0  0
  150.5307  144.2265  159.9975 H   0  0  0  0  0  0  0  0  0  0  0  0
  151.7563  144.8226  161.0620 H   0  0  0  0  0  0  0  0  0  0  0  0
  151.6122  146.1395  158.9975 H   0  0  0  0  0  0  0  0  0  0  0  0
  153.2018  145.4777  159.2118 H   0  0  0  0  0  0  0  0  0  0  0  0
  151.9384  145.4371  156.8381 H   0  0  0  0  0  0  0  0  0  0  0  0
  153.0869  144.2157  157.2716 H   0  0  0  0  0  0  0  0  0  0  0  0
  150.3395  143.8305  156.7063 H   0  0  0  0  0  0  0  0  0  0  0  0
  1  2  1  0  0  0  0
  1 20  1  0  0  0  0
  1 21  1  0  0  0  0
  1 22  1  0  0  0  0
  2 19  2  0  0  0  0
  2  3  1  0  0  0  0
  3  4  2  0  0  0  0
  3 23  1  0  0  0  0
  4  5  1  0  0  0  0
  4  6  1  0  0  0  0
  5 24  1  0  0  0  0
  5 25  1  0  0  0  0
  5 26  1  0  0  0  0
  6  7  1  0  0  0  0
  6 19  1  0  0  0  0
  7  8  1  0  0  0  0
  7 27  1  0  0  0  0
  7 28  1  0  0  0  0
  8  9  2  0  0  0  0
  8 10  1  0  0  0  0
 10 11  1  0  0  0  0
 10 29  1  0  0  0  0
 11 17  1  0  0  0  0
 11 12  1  0  0  0  0
 11 30  1  0  0  0  0
 12 13  1  0  0  0  0
 12 31  1  0  0  0  0
 12 32  1  0  0  0  0
 13 14  1  0  0  0  0
 13 33  1  0  0  0  0
 13 34  1  0  0  0  0
 14 15  1  0  0  0  0
 14 35  1  0  0  0  0
 14 36  1  0  0  0  0
 15 16  1  0  0  0  0
 15 37  1  0  0  0  0
 15 38  1  0  0  0  0
 16 17  1  0  0  0  0
 16 39  1  0  0  0  0
 17 18  2  0  0  0  0
M  END
> <s_m_source_file>
AV-unprocessed.smi

> <i_m_source_file_index>
2180

> <i_lp_mmshare_version>
43012

> <i_f3d_flags>
0

> <s_epik_input>
W0NIM11jMVtjSF1jKFtDSDNdKW4objEpW0NIMl1DKD1PKVtOSF1bQ0BASF0yW0NIMl1bQ0gyXVtDSDJdW0NIMl1bTkhdQzI9Tw==

> <s_epik_cmdline>
J2VwaWtfcHl0aG9uJywgJy1waCcsICc3LjAnLCAnLXRuJywgJzgnLCAnLW1hJywgJzIwMCcsICctbWV0YWxfYmluZGluZycsICctaW1hZScsICc8aW5maWxlLm1hZT4nLCAnLW9tYWUnLCAnPG91dGZpbGUubWFlPic=

> <r_lp_tautomer_probability>
1

> <r_epik_Ionization_Penalty>
0.000287215

> <r_epik_Ionization_Penalty_Charging>
0

> <r_epik_Ionization_Penalty_Neutral>
0.000287215

> <r_epik_State_Penalty>
-0

> <r_epik_Charging_Adjusted_Penalty>
0

> <i_epik_Tot_Q>
0

> <i_epik_Tot_abs_Q>
0

> <r_epik_Metal_State_Penalty>
-0

> <b_epik_Metal_Only>
0

> <s_lp_Force_Field>
OPLS_2005

> <r_lp_Energy>
13.5369

> <b_lp_Chiralities_Consistent>
1

> <s_lp_Variant>
AV-unprocessed.smi:2180-1

> <Gold.Version>
5.8.1

> <Gold.Id.Protein>
6NUR|6NUR_protein|mol2

> <Gold.PLP.Fitness>
42.0743

> <Gold.PLP.PLP>
-36.0190

> <Gold.PLP.part.hbond>
-3.1130

> <Gold.PLP.part.metal>
0.0000

> <Gold.PLP.part.buried>
-6.7886

> <Gold.PLP.part.nonpolar>
-26.3881

> <Gold.PLP.part.repulsive>
0.1833

> <Gold.PLP.ligand.clash>
0.0000

> <Gold.PLP.ligand.torsion>
0.2243

> <Gold.PLP.Chemscore.Hbond>
2.1502

> <Gold.PLP.Chemscore.CHOScore>
0.0000

> <Gold.PLP.Chemscore.Metal>
0.0000

> <Gold.Chemscore.Hbonds>
donor molecule, donor type, donor heavy atom, donor atom, acceptor molecule, acceptor atom, score
      L1  H    16    39       P1  8028  1.00
      P1  H  6896  6909       L1    19  0.07
      P1  H  7997  8008       L1     9  1.00

> <Gold.PLP.Chemscore.Internal.Correction>
0.0534

> <Gold.Rescore>
     Score         DG    S(hbond)    S(metal)    S(lipo)     H(rot)  DE(clash)    DE(int)     intcor
     17.79     -18.48       1.98        0.00      87.15       1.48       0.04       0.65       ----

> <Gold.Chemscore.Fitness>
17.7896

> <Gold.Chemscore.DG>
-18.4809

> <Gold.Chemscore.ZeroCoef>
-5.4800

> <Gold.Chemscore.Hbond>
1.9772

> <Gold.Chemscore.Metal>
0.0000

> <Gold.Chemscore.Lipo>
87.1471

> <Gold.Chemscore.Internal_Hbond>
0.0000

> <Gold.Chemscore.DEClash>
0.0392

> <Gold.Chemscore.DEInternal>
0.6520

> <Gold.Chemscore.Rot>
1.4840

> <Gold.Chemscore.Internal.Correction>
   9.000000E+99

> <Gold.Chemscore.Hbonds>
donor molecule, donor type, donor heavy atom, donor atom, acceptor molecule, acceptor atom, score
      L1  H    16    39       P1  8028  0.97
      P1  H  7997  8008       L1     9  0.86

> <Gold.Chemscore.Hbond.Weighted>
-6.6037

> <Gold.Chemscore.Metal.Weighted>
-0.0000

> <Gold.Chemscore.Lipo.Weighted>
-10.1962

> <Gold.Chemscore.Internal_Hbond.Weighted>
0.0000

> <Gold.Chemscore.DEClash.Weighted>
0.0392

> <Gold.Chemscore.DEInternal.Weighted>
0.6520

> <Gold.Chemscore.Rot.Weighted>
3.7991

> <Gold.Chemscore.Internal.Correction.Weighted>
   9.000000E+99

> <Gold.Protein.RotatedTorsions>
[ 6907 6896 6895 6894 ] final  113.83 input  -60.11 | X-H torsion
[ 7974 7965 7964 7962 ] final -147.98 input  175.53 | X-H torsion
[ 8008 7997 7996 7995 ] final  -52.49 input   59.86 | X-H torsion
[ 10167 10162 10161 10158 ] final  -60.90 input  -65.29 | X-H torsion
[ 10718 10713 10712 10709 ] final   49.33 input   66.30 | X-H torsion
[ 10763 10752 10751 10750 ] final -156.11 input  -60.55 | X-H torsion
[ 11005 11000 10999 10996 ] final   -5.54 input  -57.11 | X-H torsion

> <Gold.Protein.ActiveResidues>
 VAL166  LYS551  ARG553  GLY616  TRP617  ASP618  TYR619  PRO620  LYS621  CYS622 
 ASP623  PHE694  ASN695  SER759  ASP760  ASP761  ALA762  ILE779  LEU786  VAL792 
 PHE793  MET794  SER795  GLU796  ALA797  LYS798  CYS799  TRP800  GLU811  SER814 

> <Gold.Protein.RotatedAtoms>
  152.4838  133.8320  159.7107 H   0  0  0  0  0  0  0  0  0  0  0  0  # atno 6907 bound_to 6896
  150.8908  133.7237  159.2912 H   0  0  0  0  0  0  0  0  0  0  0  0  # atno 6908 bound_to 6896
  151.4710  135.1049  159.9804 H   0  0  0  0  0  0  0  0  0  0  0  0  # atno 6909 bound_to 6896
  144.8058  140.5256  143.5676 H   0  0  0  0  0  0  0  0  0  0  0  0  # atno 7974 bound_to 7965
  154.4108  140.1222  156.5000 H   0  0  0  0  0  0  0  0  0  0  0  0  # atno 8008 bound_to 7997
  155.6904  140.3495  155.4872 H   0  0  0  0  0  0  0  0  0  0  0  0  # atno 8009 bound_to 7997
  155.9474  140.1098  157.0996 H   0  0  0  0  0  0  0  0  0  0  0  0  # atno 8010 bound_to 7997
  140.6041  143.2369  151.5862 H   0  0  0  0  0  0  0  0  0  0  0  0  # atno 10167 bound_to 10162
  157.4776  130.8294  149.8057 H   0  0  0  0  0  0  0  0  0  0  0  0  # atno 10718 bound_to 10713
  154.7737  135.3153  154.8136 H   0  0  0  0  0  0  0  0  0  0  0  0  # atno 10763 bound_to 10752
  153.8864  135.6830  153.4767 H   0  0  0  0  0  0  0  0  0  0  0  0  # atno 10764 bound_to 10752
  153.1357  135.4761  154.9353 H   0  0  0  0  0  0  0  0  0  0  0  0  # atno 10765 bound_to 10752
  140.6922  133.9061  155.8626 H   0  0  0  0  0  0  0  0  0  0  0  0  # atno 11005 bound_to 11000
  145.5441  139.1475  143.3431 LP  0  0  0  0  0  0  0  0  0  0  0  0  # atno 17320 bound_to 7965
  146.2349  140.5580  142.8959 LP  0  0  0  0  0  0  0  0  0  0  0  0  # atno 17321 bound_to 7965
  139.5312  144.2911  152.1151 LP  0  0  0  0  0  0  0  0  0  0  0  0  # atno 17342 bound_to 10162
  140.2097  144.4575  150.6391 LP  0  0  0  0  0  0  0  0  0  0  0  0  # atno 17343 bound_to 10162
  156.0105  130.3835  150.2283 LP  0  0  0  0  0  0  0  0  0  0  0  0  # atno 17370 bound_to 10713
  157.0467  131.0051  151.3266 LP  0  0  0  0  0  0  0  0  0  0  0  0  # atno 17371 bound_to 10713
  141.0232  134.0860  157.4098 LP  0  0  0  0  0  0  0  0  0  0  0  0  # atno 17394 bound_to 11000
  139.8920  135.0122  156.6823 LP  0  0  0  0  0  0  0  0  0  0  0  0  # atno 17395 bound_to 11000

$$$$
