AV-unprocessed.smi:1244|AV-procd|sdf|5236|dock2
  -GOLD-   22720 4343D 1   1.00000     0.00000
 Structure written by MMmdl.
 55 57  0  0  0  0  0  0  0  0  4 V2000
  145.2381  135.4587  155.2999 C   0  0  0  0  0  0  0  0  0  0  0  0
  146.4514  135.0540  154.4553 C   0  0  1  0  0  0  0  0  0  0  0  0
  147.7798  135.3038  155.1916 C   0  0  0  0  0  0  0  0  0  0  0  0
  148.9248  134.8397  154.3651 N   0  3  1  0  0  0  0  0  0  0  0  0
  150.2549  135.1208  154.9678 C   0  0  0  0  0  0  0  0  0  0  0  0
  150.6901  136.5849  154.7459 C   0  0  0  0  0  0  0  0  0  0  0  0
  151.9049  136.8816  155.5044 N   0  5  0  0  0  0  0  0  0  0  0  0
  152.2282  138.1066  155.9994 C   0  0  0  0  0  0  0  0  0  0  0  0
  153.3166  138.4748  156.4573 O   0  0  0  0  0  0  0  0  0  0  0  0
  151.1896  138.9579  155.9647 N   0  0  0  0  0  0  0  0  0  0  0  0
  151.1315  140.2852  156.4696 C   0  0  0  0  0  0  0  0  0  0  0  0
  151.9845  140.6904  157.5262 C   0  0  0  0  0  0  0  0  0  0  0  0
  151.9071  142.0038  158.0262 C   0  0  0  0  0  0  0  0  0  0  0  0
  150.9795  142.8930  157.4568 C   0  0  0  0  0  0  0  0  0  0  0  0
  150.1951  142.4815  156.4389 N   0  3  0  0  0  0  0  0  0  0  0  0
  150.2323  141.2349  155.9041 C   0  0  0  0  0  0  0  0  0  0  0  0
  149.3502  140.9523  154.8357 N   0  0  0  0  0  0  0  0  0  0  0  0
  148.5183  139.7553  154.8553 C   0  0  0  0  0  0  0  0  0  0  0  0
  147.5132  139.9546  153.7236 C   0  0  0  0  0  0  0  0  0  0  0  0
  147.2763  141.4620  153.7539 C   0  0  0  0  0  0  0  0  0  0  0  0
  148.6354  142.0354  154.1690 C   0  0  0  0  0  0  0  0  0  0  0  0
  148.7425  133.4147  153.9988 C   0  0  0  0  0  0  0  0  0  0  0  0
  147.3845  133.2068  153.3011 C   0  0  1  0  0  0  0  0  0  0  0  0
  147.1209  131.7323  152.9770 C   0  0  0  0  0  0  0  0  0  0  0  0
  146.3430  133.6663  154.1562 O   0  0  0  0  0  0  0  0  0  0  0  0
  145.2703  136.5196  155.5500 H   0  0  0  0  0  0  0  0  0  0  0  0
  145.2013  134.8959  156.2329 H   0  0  0  0  0  0  0  0  0  0  0  0
  144.3087  135.2728  154.7616 H   0  0  0  0  0  0  0  0  0  0  0  0
  146.4327  135.6260  153.5256 H   0  0  0  0  0  0  0  0  0  0  0  0
  147.8800  136.3667  155.4142 H   0  0  0  0  0  0  0  0  0  0  0  0
  147.7847  134.7775  156.1476 H   0  0  0  0  0  0  0  0  0  0  0  0
  150.2401  134.8667  156.0290 H   0  0  0  0  0  0  0  0  0  0  0  0
  151.0086  134.4745  154.5149 H   0  0  0  0  0  0  0  0  0  0  0  0
  150.8460  136.7440  153.6787 H   0  0  0  0  0  0  0  0  0  0  0  0
  149.8698  137.2506  155.0181 H   0  0  0  0  0  0  0  0  0  0  0  0
  150.3094  138.5558  155.6777 H   0  0  0  0  0  0  0  0  0  0  0  0
  152.6992  140.0047  157.9572 H   0  0  0  0  0  0  0  0  0  0  0  0
  152.5480  142.3210  158.8358 H   0  0  0  0  0  0  0  0  0  0  0  0
  150.8456  143.9159  157.7773 H   0  0  0  0  0  0  0  0  0  0  0  0
  149.1140  138.8528  154.7129 H   0  0  0  0  0  0  0  0  0  0  0  0
  147.9917  139.6763  155.8073 H   0  0  0  0  0  0  0  0  0  0  0  0
  147.9622  139.6682  152.7712 H   0  0  0  0  0  0  0  0  0  0  0  0
  146.6002  139.3742  153.8577 H   0  0  0  0  0  0  0  0  0  0  0  0
  146.9236  141.8578  152.8010 H   0  0  0  0  0  0  0  0  0  0  0  0
  146.5298  141.6993  154.5134 H   0  0  0  0  0  0  0  0  0  0  0  0
  148.5171  142.9079  154.8129 H   0  0  0  0  0  0  0  0  0  0  0  0
  149.1989  142.3360  153.2850 H   0  0  0  0  0  0  0  0  0  0  0  0
  149.5471  133.1012  153.3322 H   0  0  0  0  0  0  0  0  0  0  0  0
  148.8088  132.7975  154.8964 H   0  0  0  0  0  0  0  0  0  0  0  0
  147.3591  133.7758  152.3699 H   0  0  0  0  0  0  0  0  0  0  0  0
  147.8837  131.3353  152.3067 H   0  0  0  0  0  0  0  0  0  0  0  0
  146.1536  131.6070  152.4897 H   0  0  0  0  0  0  0  0  0  0  0  0
  147.1193  131.1230  153.8813 H   0  0  0  0  0  0  0  0  0  0  0  0
  148.8971  135.3584  153.4988 H   0  0  0  0  0  0  0  0  0  0  0  0
  149.5367  143.1521  156.0426 H   0  0  0  0  0  0  0  0  0  0  0  0
  1  2  1  0  0  0  0
  1 26  1  0  0  0  0
  1 27  1  0  0  0  0
  1 28  1  0  0  0  0
  2 25  1  0  0  0  0
  2  3  1  0  0  0  0
  2 29  1  0  0  0  0
  3  4  1  0  0  0  0
  3 30  1  0  0  0  0
  3 31  1  0  0  0  0
  4  5  1  0  0  0  0
  4 22  1  0  0  0  0
  4 54  1  0  0  0  0
  5  6  1  0  0  0  0
  5 32  1  0  0  0  0
  5 33  1  0  0  0  0
  6  7  1  0  0  0  0
  6 34  1  0  0  0  0
  6 35  1  0  0  0  0
  7  8  1  0  0  0  0
  8  9  2  0  0  0  0
  8 10  1  0  0  0  0
 10 11  1  0  0  0  0
 10 36  1  0  0  0  0
 11 16  1  0  0  0  0
 11 12  2  0  0  0  0
 12 13  1  0  0  0  0
 12 37  1  0  0  0  0
 13 14  2  0  0  0  0
 13 38  1  0  0  0  0
 14 15  1  0  0  0  0
 14 39  1  0  0  0  0
 15 16  2  0  0  0  0
 15 55  1  0  0  0  0
 16 17  1  0  0  0  0
 17 21  1  0  0  0  0
 17 18  1  0  0  0  0
 18 19  1  0  0  0  0
 18 40  1  0  0  0  0
 18 41  1  0  0  0  0
 19 20  1  0  0  0  0
 19 42  1  0  0  0  0
 19 43  1  0  0  0  0
 20 21  1  0  0  0  0
 20 44  1  0  0  0  0
 20 45  1  0  0  0  0
 21 46  1  0  0  0  0
 21 47  1  0  0  0  0
 22 23  1  0  0  0  0
 22 48  1  0  0  0  0
 22 49  1  0  0  0  0
 23 24  1  0  0  0  0
 23 25  1  0  0  0  0
 23 50  1  0  0  0  0
 24 51  1  0  0  0  0
 24 52  1  0  0  0  0
 24 53  1  0  0  0  0
M  CHG  1   4   1
M  CHG  1   7  -1
M  CHG  1  15   1
M  END
> <s_m_source_file>
AV-unprocessed.smi

> <i_m_source_file_index>
1244

> <i_lp_mmshare_version>
43012

> <i_f3d_flags>
0

> <s_epik_input>
W0NIM11bQ0BASF0xW0NIMl1OKFtDSDJdW0NASF0oTzEpW0NIM10pW0NIMl1bQ0gyXVtOSF1DKD1PKVtOSF1jMltjSF1bY0hdW2NIXW5jMk4zW0NIMl1bQ0gyXVtDSDJdW0NIMl0z

> <s_epik_cmdline>
J2VwaWtfcHl0aG9uJywgJy1waCcsICc3LjAnLCAnLXRuJywgJzgnLCAnLW1hJywgJzIwMCcsICctbWV0YWxfYmluZGluZycsICctaW1hZScsICc8aW5maWxlLm1hZT4nLCAnLW9tYWUnLCAnPG91dGZpbGUubWFlPic=

> <r_lp_tautomer_probability>
0.999994

> <r_epik_Ionization_Penalty>
8.60539

> <r_epik_Ionization_Penalty_Charging>
8.60539

> <r_epik_Ionization_Penalty_Neutral>
3.60441e-06

> <r_epik_State_Penalty>
8.59967

> <r_epik_Charging_Adjusted_Penalty>
17.2051

> <i_epik_Tot_Q>
1

> <i_epik_Tot_abs_Q>
3

> <r_epik_Metal_State_Penalty>
4.59489

> <b_epik_Metal_Only>
1

> <s_lp_Force_Field>
OPLS_2005

> <r_lp_Energy>
44.1273

> <b_lp_Chiralities_Consistent>
1

> <s_lp_Variant>
AV-unprocessed.smi:1244-16

> <Gold.Version>
5.8.1

> <Gold.Id.Protein>
6NUR|6NUR_protein|mol2

> <Gold.PLP.Fitness>
56.1329

> <Gold.PLP.PLP>
-37.5657

> <Gold.PLP.part.hbond>
-4.0000

> <Gold.PLP.part.metal>
0.0000

> <Gold.PLP.part.buried>
-1.5990

> <Gold.PLP.part.nonpolar>
-32.5887

> <Gold.PLP.part.repulsive>
0.3034

> <Gold.PLP.ligand.clash>
1.2997

> <Gold.PLP.ligand.torsion>
1.0760

> <Gold.PLP.Chemscore.Hbond>
6.9120

> <Gold.PLP.Chemscore.CHOScore>
0.0000

> <Gold.PLP.Chemscore.Metal>
0.0000

> <Gold.Chemscore.Hbonds>
donor molecule, donor type, donor heavy atom, donor atom, acceptor molecule, acceptor atom, score
      L1  H     4    54       P1  7948  2.00
      L1  H    15    55       P1  8028  2.00
      P1  H  7997  8010       L1     9  0.94
      P1  H 10752 10763       L1     7  2.00

> <Gold.PLP.Chemscore.Internal.Correction>
1.2827

> <Gold.Rescore>
     Score         DG    S(hbond)    S(metal)    S(lipo)     H(rot)  DE(clash)    DE(int)     intcor
     19.37     -23.43       3.49        0.00      84.93       1.42       1.38       2.68       ----

> <Gold.Chemscore.Fitness>
19.3740

> <Gold.Chemscore.DG>
-23.4327

> <Gold.Chemscore.ZeroCoef>
-5.4800

> <Gold.Chemscore.Hbond>
3.4872

> <Gold.Chemscore.Metal>
0.0000

> <Gold.Chemscore.Lipo>
84.9286

> <Gold.Chemscore.Internal_Hbond>
0.0000

> <Gold.Chemscore.DEClash>
1.3813

> <Gold.Chemscore.DEInternal>
2.6774

> <Gold.Chemscore.Rot>
1.4185

> <Gold.Chemscore.Internal.Correction>
   9.000000E+99

> <Gold.Chemscore.Hbonds>
donor molecule, donor type, donor heavy atom, donor atom, acceptor molecule, acceptor atom, score
      L1  H     4    54       P1  7948  0.74
      L1  H    15    55       P1  8028  0.99
      P1  H  7997  8010       L1     9  0.91
      P1  H 10752 10763       L1     7  0.29

> <Gold.Chemscore.Hbond.Weighted>
-11.6474

> <Gold.Chemscore.Metal.Weighted>
-0.0000

> <Gold.Chemscore.Lipo.Weighted>
-9.9366

> <Gold.Chemscore.Internal_Hbond.Weighted>
0.0000

> <Gold.Chemscore.DEClash.Weighted>
1.3813

> <Gold.Chemscore.DEInternal.Weighted>
2.6774

> <Gold.Chemscore.Rot.Weighted>
3.6313

> <Gold.Chemscore.Internal.Correction.Weighted>
   9.000000E+99

> <Gold.Protein.RotatedTorsions>
[ 6907 6896 6895 6894 ] final   57.84 input  -60.11 | X-H torsion
[ 7974 7965 7964 7962 ] final -170.44 input  175.53 | X-H torsion
[ 8008 7997 7996 7995 ] final   67.92 input   59.86 | X-H torsion
[ 10167 10162 10161 10158 ] final   44.02 input  -65.29 | X-H torsion
[ 10718 10713 10712 10709 ] final   74.92 input   66.30 | X-H torsion
[ 10763 10752 10751 10750 ] final   78.60 input  -60.55 | X-H torsion
[ 11005 11000 10999 10996 ] final -138.67 input  -57.11 | X-H torsion

> <Gold.Protein.ActiveResidues>
 VAL166  LYS551  ARG553  GLY616  TRP617  ASP618  TYR619  PRO620  LYS621  CYS622 
 ASP623  PHE694  ASN695  SER759  ASP760  ASP761  ALA762  ILE779  LEU786  VAL792 
 PHE793  MET794  SER795  GLU796  ALA797  LYS798  CYS799  TRP800  GLU811  SER814 

> <Gold.Protein.RotatedAtoms>
  152.3768  134.6651  160.0156 H   0  0  0  0  0  0  0  0  0  0  0  0  # atno 6907 bound_to 6896
  151.6926  133.3305  159.3254 H   0  0  0  0  0  0  0  0  0  0  0  0  # atno 6908 bound_to 6896
  150.7716  134.6621  159.6390 H   0  0  0  0  0  0  0  0  0  0  0  0  # atno 6909 bound_to 6896
  144.7170  140.2072  143.6331 H   0  0  0  0  0  0  0  0  0  0  0  0  # atno 7974 bound_to 7965
  155.7003  140.3495  155.4930 H   0  0  0  0  0  0  0  0  0  0  0  0  # atno 8008 bound_to 7997
  155.9447  140.1108  157.1049 H   0  0  0  0  0  0  0  0  0  0  0  0  # atno 8009 bound_to 7997
  154.4109  140.1206  156.4959 H   0  0  0  0  0  0  0  0  0  0  0  0  # atno 8010 bound_to 7997
  140.3385  144.2499  150.6158 H   0  0  0  0  0  0  0  0  0  0  0  0  # atno 10167 bound_to 10162
  157.6612  130.9701  150.1279 H   0  0  0  0  0  0  0  0  0  0  0  0  # atno 10718 bound_to 10713
  153.0887  135.4871  154.8647 H   0  0  0  0  0  0  0  0  0  0  0  0  # atno 10763 bound_to 10752
  154.7242  135.3046  154.9000 H   0  0  0  0  0  0  0  0  0  0  0  0  # atno 10764 bound_to 10752
  153.9655  135.6807  153.4799 H   0  0  0  0  0  0  0  0  0  0  0  0  # atno 10765 bound_to 10752
  140.8594  134.2188  157.4716 H   0  0  0  0  0  0  0  0  0  0  0  0  # atno 11005 bound_to 11000
  145.8625  139.2230  143.1708 LP  0  0  0  0  0  0  0  0  0  0  0  0  # atno 17320 bound_to 7965
  146.0160  140.8391  142.9947 LP  0  0  0  0  0  0  0  0  0  0  0  0  # atno 17321 bound_to 7965
  140.5331  143.2239  151.8207 LP  0  0  0  0  0  0  0  0  0  0  0  0  # atno 17342 bound_to 10162
  139.4844  144.4696  151.9442 LP  0  0  0  0  0  0  0  0  0  0  0  0  # atno 17343 bound_to 10162
  156.2133  130.3668  149.8643 LP  0  0  0  0  0  0  0  0  0  0  0  0  # atno 17370 bound_to 10713
  156.6516  130.8746  151.3532 LP  0  0  0  0  0  0  0  0  0  0  0  0  # atno 17371 bound_to 10713
  139.8706  134.9722  156.4764 LP  0  0  0  0  0  0  0  0  0  0  0  0  # atno 17394 bound_to 11000
  140.8700  133.7995  155.9354 LP  0  0  0  0  0  0  0  0  0  0  0  0  # atno 17395 bound_to 11000

$$$$
