AV-unprocessed.smi:763|AV-procd|sdf|3641|dock8
  -GOLD-   22720 1 43D 1   1.00000     0.00000
 Structure written by MMmdl.
 43 44  0  0  0  0  0  0  0  0  2 V2000
  157.6385  137.7958  152.7735 C   0  0  0  0  0  0  0  0  0  0  0  0
  156.2331  137.6336  152.8488 O   0  0  0  0  0  0  0  0  0  0  0  0
  155.6365  138.5067  153.7937 C   0  0  0  0  0  0  0  0  0  0  0  0
  154.1185  138.3096  153.7709 C   0  0  0  0  0  0  0  0  0  0  0  0
  153.5321  139.2187  154.6962 O   0  0  0  0  0  0  0  0  0  0  0  0
  152.1651  139.1760  154.9028 C   0  0  0  0  0  0  0  0  0  0  0  0
  151.3806  138.7461  153.8820 N   0  0  0  0  0  0  0  0  0  0  0  0
  150.0478  138.7000  154.0706 C   0  0  0  0  0  0  0  0  0  0  0  0
  149.4317  139.0767  155.2752 C   0  0  0  0  0  0  0  0  0  0  0  0
  150.2491  139.5214  156.3298 C   0  0  0  0  0  0  0  0  0  0  0  0
  151.6544  139.5813  156.1620 C   0  0  0  0  0  0  0  0  0  0  0  0
  152.4919  139.9972  157.1270 N   0  5  0  0  0  0  0  0  0  0  0  0
  152.2204  139.9616  158.7225 S   0  0  0  0  0  0  0  0  0  0  0  0
  151.0092  139.1923  159.0474 O   0  0  0  0  0  0  0  0  0  0  0  0
  153.4435  139.6325  159.4708 O   0  0  0  0  0  0  0  0  0  0  0  0
  151.8404  141.7471  159.0862 C   0  0  1  0  0  0  0  0  0  0  0  0
  153.0988  142.6157  158.8738 C   0  0  0  0  0  0  0  0  0  0  0  0
  152.8229  144.1002  159.1553 C   0  0  0  0  0  0  0  0  0  0  0  0
  151.6513  144.6136  158.3063 C   0  0  0  0  0  0  0  0  0  0  0  0
  150.3870  143.7794  158.5571 C   0  0  0  0  0  0  0  0  0  0  0  0
  150.6285  142.2834  158.2812 C   0  0  2  0  0  0  0  0  0  0  0  0
  149.4453  141.5922  158.6262 O   0  0  0  0  0  0  0  0  0  0  0  0
  158.0487  137.1045  152.0373 H   0  0  0  0  0  0  0  0  0  0  0  0
  158.1118  137.5849  153.7333 H   0  0  0  0  0  0  0  0  0  0  0  0
  157.9028  138.8091  152.4680 H   0  0  0  0  0  0  0  0  0  0  0  0
  156.0229  138.2977  154.7926 H   0  0  0  0  0  0  0  0  0  0  0  0
  155.8808  139.5431  153.5551 H   0  0  0  0  0  0  0  0  0  0  0  0
  153.7385  138.4909  152.7643 H   0  0  0  0  0  0  0  0  0  0  0  0
  153.8775  137.2814  154.0457 H   0  0  0  0  0  0  0  0  0  0  0  0
  149.4556  138.3529  153.2368 H   0  0  0  0  0  0  0  0  0  0  0  0
  148.3592  139.0265  155.3897 H   0  0  0  0  0  0  0  0  0  0  0  0
  149.7825  139.8117  157.2595 H   0  0  0  0  0  0  0  0  0  0  0  0
  151.5906  141.7861  160.1470 H   0  0  0  0  0  0  0  0  0  0  0  0
  153.9080  142.2692  159.5167 H   0  0  0  0  0  0  0  0  0  0  0  0
  153.4549  142.5082  157.8488 H   0  0  0  0  0  0  0  0  0  0  0  0
  152.5977  144.2373  160.2138 H   0  0  0  0  0  0  0  0  0  0  0  0
  153.7171  144.6892  158.9498 H   0  0  0  0  0  0  0  0  0  0  0  0
  151.4564  145.6613  158.5361 H   0  0  0  0  0  0  0  0  0  0  0  0
  151.9161  144.5706  157.2490 H   0  0  0  0  0  0  0  0  0  0  0  0
  150.0672  143.9174  159.5912 H   0  0  0  0  0  0  0  0  0  0  0  0
  149.5734  144.1477  157.9311 H   0  0  0  0  0  0  0  0  0  0  0  0
  150.8026  142.1488  157.2134 H   0  0  0  0  0  0  0  0  0  0  0  0
  148.9381  141.4611  157.8382 H   0  0  0  0  0  0  0  0  0  0  0  0
  1  2  1  0  0  0  0
  1 23  1  0  0  0  0
  1 24  1  0  0  0  0
  1 25  1  0  0  0  0
  2  3  1  0  0  0  0
  3  4  1  0  0  0  0
  3 26  1  0  0  0  0
  3 27  1  0  0  0  0
  4  5  1  0  0  0  0
  4 28  1  0  0  0  0
  4 29  1  0  0  0  0
  5  6  1  0  0  0  0
  6 11  1  0  0  0  0
  6  7  2  0  0  0  0
  7  8  1  0  0  0  0
  8  9  2  0  0  0  0
  8 30  1  0  0  0  0
  9 10  1  0  0  0  0
  9 31  1  0  0  0  0
 10 11  2  0  0  0  0
 10 32  1  0  0  0  0
 11 12  1  0  0  0  0
 12 13  1  0  0  0  0
 13 14  2  0  0  0  0
 13 15  2  0  0  0  0
 13 16  1  0  0  0  0
 16 21  1  0  0  0  0
 16 17  1  0  0  0  0
 16 33  1  0  0  0  0
 17 18  1  0  0  0  0
 17 34  1  0  0  0  0
 17 35  1  0  0  0  0
 18 19  1  0  0  0  0
 18 36  1  0  0  0  0
 18 37  1  0  0  0  0
 19 20  1  0  0  0  0
 19 38  1  0  0  0  0
 19 39  1  0  0  0  0
 20 21  1  0  0  0  0
 20 40  1  0  0  0  0
 20 41  1  0  0  0  0
 21 22  1  0  0  0  0
 21 42  1  0  0  0  0
 22 43  1  0  0  0  0
M  CHG  1  12  -1
M  END
> <s_m_source_file>
AV-unprocessed.smi

> <i_m_source_file_index>
763

> <i_lp_mmshare_version>
43012

> <i_f3d_flags>
0

> <s_epik_input>
W0NIM11PW0NIMl1bQ0gyXU9jMW5bY0hdW2NIXVtjSF1jMVtOSF1TKD1PKSg9TylbQ0BASF0yW0NIMl1bQ0gyXVtDSDJdW0NIMl1bQ0BIXTJbT0hd

> <s_epik_cmdline>
J2VwaWtfcHl0aG9uJywgJy1waCcsICc3LjAnLCAnLXRuJywgJzgnLCAnLW1hJywgJzIwMCcsICctbWV0YWxfYmluZGluZycsICctaW1hZScsICc8aW5maWxlLm1hZT4nLCAnLW9tYWUnLCAnPG91dGZpbGUubWFlPic=

> <r_epik_Ionization_Penalty>
0.985866

> <r_epik_Ionization_Penalty_Charging>
0.984689

> <r_epik_Ionization_Penalty_Neutral>
0.00117669

> <r_epik_State_Penalty>
1.03185

> <r_epik_Charging_Adjusted_Penalty>
2.01654

> <i_epik_Tot_Q>
-1

> <i_epik_Tot_abs_Q>
1

> <r_epik_Metal_State_Penalty>
0.379327

> <b_epik_Metal_Only>
0

> <s_lp_Force_Field>
OPLS_2005

> <r_lp_Energy>
12.3321

> <b_lp_Chiralities_Consistent>
1

> <s_lp_Variant>
AV-unprocessed.smi:763-8

> <Gold.Version>
5.8.1

> <Gold.Id.Protein>
6NUR|6NUR_protein|mol2

> <Gold.PLP.Fitness>
45.7627

> <Gold.PLP.PLP>
-35.4409

> <Gold.PLP.part.hbond>
-3.9481

> <Gold.PLP.part.metal>
0.0000

> <Gold.PLP.part.buried>
0.8342

> <Gold.PLP.part.nonpolar>
-33.4336

> <Gold.PLP.part.repulsive>
0.2629

> <Gold.PLP.ligand.clash>
0.0000

> <Gold.PLP.ligand.torsion>
1.1056

> <Gold.PLP.Chemscore.Hbond>
2.2928

> <Gold.PLP.Chemscore.CHOScore>
1.5185

> <Gold.PLP.Chemscore.Metal>
0.0000

> <Gold.Chemscore.Hbonds>
donor molecule, donor type, donor heavy atom, donor atom, acceptor molecule, acceptor atom, score
      P1  H  7997  8008       L1    12  1.89
      P1  H  7997  8009       L1     5  0.22
      L1  C     8    30       P1  7948  0.97
      L1  C     8    30       P1  7957  0.42

> <Gold.PLP.Chemscore.Internal.Correction>
1.0991

> <Gold.Rescore>
     Score         DG    S(hbond)    S(metal)    S(lipo)     H(rot)  DE(clash)    DE(int)     intcor
     11.65     -16.12       0.78        0.00     120.23       2.35       2.15       2.32       ----

> <Gold.Chemscore.Fitness>
11.6507

> <Gold.Chemscore.DG>
-16.1248

> <Gold.Chemscore.ZeroCoef>
-5.4800

> <Gold.Chemscore.Hbond>
0.7773

> <Gold.Chemscore.Metal>
0.0000

> <Gold.Chemscore.Lipo>
120.2281

> <Gold.Chemscore.Internal_Hbond>
0.0000

> <Gold.Chemscore.DEClash>
2.1549

> <Gold.Chemscore.DEInternal>
2.3192

> <Gold.Chemscore.Rot>
2.3509

> <Gold.Chemscore.Internal.Correction>
   9.000000E+99

> <Gold.Chemscore.Hbonds>
donor molecule, donor type, donor heavy atom, donor atom, acceptor molecule, acceptor atom, score
      P1  H  7997  8008       L1    12  0.52
      P1  H  7997  8009       L1     5  0.08

> <Gold.Chemscore.Hbond.Weighted>
-2.5963

> <Gold.Chemscore.Metal.Weighted>
-0.0000

> <Gold.Chemscore.Lipo.Weighted>
-14.0667

> <Gold.Chemscore.Internal_Hbond.Weighted>
0.0000

> <Gold.Chemscore.DEClash.Weighted>
2.1549

> <Gold.Chemscore.DEInternal.Weighted>
2.3192

> <Gold.Chemscore.Rot.Weighted>
6.0182

> <Gold.Chemscore.Internal.Correction.Weighted>
   9.000000E+99

> <Gold.Protein.RotatedTorsions>
[ 6907 6896 6895 6894 ] final   -6.00 input  -60.11 | X-H torsion
[ 7974 7965 7964 7962 ] final  173.37 input  175.53 | X-H torsion
[ 8008 7997 7996 7995 ] final  -76.23 input   59.86 | X-H torsion
[ 10167 10162 10161 10158 ] final   47.44 input  -65.29 | X-H torsion
[ 10718 10713 10712 10709 ] final   79.63 input   66.30 | X-H torsion
[ 10763 10752 10751 10750 ] final  178.65 input  -60.55 | X-H torsion
[ 11005 11000 10999 10996 ] final -173.26 input  -57.11 | X-H torsion

> <Gold.Protein.ActiveResidues>
 VAL166  LYS551  ARG553  GLY616  TRP617  ASP618  TYR619  PRO620  LYS621  CYS622 
 ASP623  PHE694  ASN695  SER759  ASP760  ASP761  ALA762  ILE779  LEU786  VAL792 
 PHE793  MET794  SER795  GLU796  ALA797  LYS798  CYS799  TRP800  GLU811  SER814 

> <Gold.Protein.RotatedAtoms>
  151.4726  135.1047  159.9755 H   0  0  0  0  0  0  0  0  0  0  0  0  # atno 6907 bound_to 6896
  152.4810  133.8251  159.7084 H   0  0  0  0  0  0  0  0  0  0  0  0  # atno 6908 bound_to 6896
  150.8883  133.7217  159.2939 H   0  0  0  0  0  0  0  0  0  0  0  0  # atno 6909 bound_to 6896
  144.7245  139.9638  143.6435 H   0  0  0  0  0  0  0  0  0  0  0  0  # atno 7974 bound_to 7965
  154.5486  140.0730  156.8631 H   0  0  0  0  0  0  0  0  0  0  0  0  # atno 8008 bound_to 7997
  155.3037  140.3386  155.4228 H   0  0  0  0  0  0  0  0  0  0  0  0  # atno 8009 bound_to 7997
  156.1941  140.1697  156.8019 H   0  0  0  0  0  0  0  0  0  0  0  0  # atno 8010 bound_to 7997
  140.3036  144.2905  150.6214 H   0  0  0  0  0  0  0  0  0  0  0  0  # atno 10167 bound_to 10162
  157.6782  130.9923  150.1960 H   0  0  0  0  0  0  0  0  0  0  0  0  # atno 10718 bound_to 10713
  154.5104  135.2788  155.1347 H   0  0  0  0  0  0  0  0  0  0  0  0  # atno 10763 bound_to 10752
  154.2945  135.6260  153.5402 H   0  0  0  0  0  0  0  0  0  0  0  0  # atno 10764 bound_to 10752
  152.9917  135.5682  154.5568 H   0  0  0  0  0  0  0  0  0  0  0  0  # atno 10765 bound_to 10752
  140.4877  134.6014  157.4943 H   0  0  0  0  0  0  0  0  0  0  0  0  # atno 11005 bound_to 11000
  146.0617  139.3610  143.0577 LP  0  0  0  0  0  0  0  0  0  0  0  0  # atno 17320 bound_to 7965
  145.8084  140.9737  143.0962 LP  0  0  0  0  0  0  0  0  0  0  0  0  # atno 17321 bound_to 7965
  140.5630  143.2190  151.7733 LP  0  0  0  0  0  0  0  0  0  0  0  0  # atno 17342 bound_to 10162
  139.4909  144.4323  151.9858 LP  0  0  0  0  0  0  0  0  0  0  0  0  # atno 17343 bound_to 10162
  156.2661  130.3716  149.8080 LP  0  0  0  0  0  0  0  0  0  0  0  0  # atno 17370 bound_to 10713
  156.5810  130.8466  151.3383 LP  0  0  0  0  0  0  0  0  0  0  0  0  # atno 17371 bound_to 10713
  139.9788  134.7172  155.9899 LP  0  0  0  0  0  0  0  0  0  0  0  0  # atno 17394 bound_to 11000
  141.1499  133.6550  156.3983 LP  0  0  0  0  0  0  0  0  0  0  0  0  # atno 17395 bound_to 11000

$$$$
