AV-unprocessed.smi:1071|AV-procd|sdf|4677|dock9
  -GOLD-   22720 3193D 1   1.00000     0.00000
 Structure written by MMmdl.
 47 48  0  0  0  0  0  0  0  0  2 V2000
  138.2749  139.4170  153.6659 C   0  0  0  0  0  0  0  0  0  0  0  0
  137.9626  139.1618  155.0242 O   0  0  0  0  0  0  0  0  0  0  0  0
  137.4719  137.8475  155.2294 C   0  0  0  0  0  0  0  0  0  0  0  0
  138.4935  136.8417  154.6921 C   0  0  0  0  0  0  0  0  0  0  0  0
  139.7931  137.4169  154.7878 O   0  0  0  0  0  0  0  0  0  0  0  0
  140.8567  136.7387  154.2286 C   0  0  0  0  0  0  0  0  0  0  0  0
  141.9794  137.4776  153.8069 C   0  0  0  0  0  0  0  0  0  0  0  0
  143.0680  136.7906  153.2381 C   0  0  0  0  0  0  0  0  0  0  0  0
  143.0101  135.3878  153.1146 C   0  0  0  0  0  0  0  0  0  0  0  0
  144.1262  134.7314  152.5276 N   0  0  0  0  0  0  0  0  0  0  0  0
  144.1573  133.6075  151.7842 C   0  0  0  0  0  0  0  0  0  0  0  0
  143.1573  133.0433  151.3437 O   0  0  0  0  0  0  0  0  0  0  0  0
  145.4202  133.2321  151.4641 N   0  0  0  0  0  0  0  0  0  0  0  0
  146.4605  133.1865  152.5030 C   0  0  0  0  0  0  0  0  0  0  0  0
  146.4970  131.7731  153.1192 C   0  0  0  0  0  0  0  0  0  0  0  0
  146.6953  130.7297  152.0792 N   0  3  1  0  0  0  0  0  0  0  0  0
  146.7085  129.3639  152.6447 C   0  0  0  0  0  0  0  0  0  0  0  0
  145.7651  130.8585  150.9267 C   0  0  0  0  0  0  0  0  0  0  0  0
  145.7640  132.2985  150.3727 C   0  0  1  0  0  0  0  0  0  0  0  0
  144.9127  132.4427  149.0935 C   0  0  0  0  0  0  0  0  0  0  0  0
  141.8314  134.7372  153.5561 C   0  0  0  0  0  0  0  0  0  0  0  0
  140.7837  135.3907  154.1015 N   0  0  0  0  0  0  0  0  0  0  0  0
  138.6438  140.4372  153.5601 H   0  0  0  0  0  0  0  0  0  0  0  0
  137.3936  139.3106  153.0320 H   0  0  0  0  0  0  0  0  0  0  0  0
  139.0500  138.7393  153.3050 H   0  0  0  0  0  0  0  0  0  0  0  0
  137.3017  137.6728  156.2931 H   0  0  0  0  0  0  0  0  0  0  0  0
  136.5174  137.7197  154.7164 H   0  0  0  0  0  0  0  0  0  0  0  0
  138.4435  135.9199  155.2742 H   0  0  0  0  0  0  0  0  0  0  0  0
  138.2596  136.6005  153.6537 H   0  0  0  0  0  0  0  0  0  0  0  0
  142.0049  138.5516  153.9182 H   0  0  0  0  0  0  0  0  0  0  0  0
  143.9386  137.3374  152.9063 H   0  0  0  0  0  0  0  0  0  0  0  0
  145.0275  135.0994  152.7953 H   0  0  0  0  0  0  0  0  0  0  0  0
  147.4282  133.4301  152.0623 H   0  0  0  0  0  0  0  0  0  0  0  0
  146.3081  133.9232  153.2928 H   0  0  0  0  0  0  0  0  0  0  0  0
  147.3000  131.7102  153.8544 H   0  0  0  0  0  0  0  0  0  0  0  0
  145.5644  131.5780  153.6514 H   0  0  0  0  0  0  0  0  0  0  0  0
  145.7374  129.1070  153.0698 H   0  0  0  0  0  0  0  0  0  0  0  0
  147.4592  129.2803  153.4308 H   0  0  0  0  0  0  0  0  0  0  0  0
  146.9499  128.6310  151.8740 H   0  0  0  0  0  0  0  0  0  0  0  0
  146.0652  130.1590  150.1456 H   0  0  0  0  0  0  0  0  0  0  0  0
  144.7581  130.5739  151.2371 H   0  0  0  0  0  0  0  0  0  0  0  0
  146.7838  132.5364  150.0644 H   0  0  0  0  0  0  0  0  0  0  0  0
  145.3575  131.8758  148.2750 H   0  0  0  0  0  0  0  0  0  0  0  0
  144.8534  133.4830  148.7720 H   0  0  0  0  0  0  0  0  0  0  0  0
  143.8979  132.0668  149.2196 H   0  0  0  0  0  0  0  0  0  0  0  0
  141.6919  133.6718  153.4667 H   0  0  0  0  0  0  0  0  0  0  0  0
  147.6193  130.8901  151.7038 H   0  0  0  0  0  0  0  0  0  0  0  0
  1  2  1  0  0  0  0
  1 23  1  0  0  0  0
  1 24  1  0  0  0  0
  1 25  1  0  0  0  0
  2  3  1  0  0  0  0
  3  4  1  0  0  0  0
  3 26  1  0  0  0  0
  3 27  1  0  0  0  0
  4  5  1  0  0  0  0
  4 28  1  0  0  0  0
  4 29  1  0  0  0  0
  5  6  1  0  0  0  0
  6 22  1  0  0  0  0
  6  7  2  0  0  0  0
  7  8  1  0  0  0  0
  7 30  1  0  0  0  0
  8  9  2  0  0  0  0
  8 31  1  0  0  0  0
  9 10  1  0  0  0  0
  9 21  1  0  0  0  0
 10 11  1  0  0  0  0
 10 32  1  0  0  0  0
 11 12  2  0  0  0  0
 11 13  1  0  0  0  0
 13 19  1  0  0  0  0
 13 14  1  0  0  0  0
 14 15  1  0  0  0  0
 14 33  1  0  0  0  0
 14 34  1  0  0  0  0
 15 16  1  0  0  0  0
 15 35  1  0  0  0  0
 15 36  1  0  0  0  0
 16 17  1  0  0  0  0
 16 18  1  0  0  0  0
 16 47  1  0  0  0  0
 17 37  1  0  0  0  0
 17 38  1  0  0  0  0
 17 39  1  0  0  0  0
 18 19  1  0  0  0  0
 18 40  1  0  0  0  0
 18 41  1  0  0  0  0
 19 20  1  0  0  0  0
 19 42  1  0  0  0  0
 20 43  1  0  0  0  0
 20 44  1  0  0  0  0
 20 45  1  0  0  0  0
 21 22  2  0  0  0  0
 21 46  1  0  0  0  0
M  CHG  1  16   1
M  END
> <s_m_source_file>
AV-unprocessed.smi

> <i_m_source_file_index>
1071

> <i_lp_mmshare_version>
43012

> <i_f3d_flags>
0

> <s_epik_input>
W0NIM11PW0NIMl1bQ0gyXU9jMVtjSF1bY0hdYyhbY0hdbjEpW05IXUMoPU8pTjJbQ0gyXVtDSDJdTihbQ0gzXSlbQ0gyXVtDQEhdMltDSDNd

> <s_epik_cmdline>
J2VwaWtfcHl0aG9uJywgJy1waCcsICc3LjAnLCAnLXRuJywgJzgnLCAnLW1hJywgJzIwMCcsICctbWV0YWxfYmluZGluZycsICctaW1hZScsICc8aW5maWxlLm1hZT4nLCAnLW9tYWUnLCAnPG91dGZpbGUubWFlPic=

> <r_lp_tautomer_probability>
1

> <r_epik_Ionization_Penalty>
0.25455

> <r_epik_Ionization_Penalty_Charging>
0.254506

> <r_epik_Ionization_Penalty_Neutral>
4.43365e-05

> <r_epik_State_Penalty>
0.245983

> <r_epik_Charging_Adjusted_Penalty>
0.500488

> <i_epik_Tot_Q>
1

> <i_epik_Tot_abs_Q>
1

> <r_epik_Metal_State_Penalty>
0.245987

> <b_epik_Metal_Only>
0

> <s_lp_Force_Field>
OPLS_2005

> <r_lp_Energy>
54.998

> <b_lp_Chiralities_Consistent>
1

> <s_lp_Variant>
AV-unprocessed.smi:1071-1

> <Gold.Version>
5.8.1

> <Gold.Id.Protein>
6NUR|6NUR_protein|mol2

> <Gold.PLP.Fitness>
45.5677

> <Gold.PLP.PLP>
-38.6425

> <Gold.PLP.part.hbond>
-2.0000

> <Gold.PLP.part.metal>
0.0000

> <Gold.PLP.part.buried>
-7.5247

> <Gold.PLP.part.nonpolar>
-30.2764

> <Gold.PLP.part.repulsive>
0.5549

> <Gold.PLP.ligand.clash>
0.0000

> <Gold.PLP.ligand.torsion>
1.2001

> <Gold.PLP.Chemscore.Hbond>
1.9100

> <Gold.PLP.Chemscore.CHOScore>
0.9922

> <Gold.PLP.Chemscore.Metal>
0.0000

> <Gold.Chemscore.Hbonds>
donor molecule, donor type, donor heavy atom, donor atom, acceptor molecule, acceptor atom, score
      L1  H    16    47       P1 10747  1.00
      P1  H 11000 11005       L1    22  1.00
      L1  C    21    46       P1 10957  1.00

> <Gold.PLP.Chemscore.Internal.Correction>
0.6189

> <Gold.Rescore>
     Score         DG    S(hbond)    S(metal)    S(lipo)     H(rot)  DE(clash)    DE(int)     intcor
     15.04     -17.39       1.75        0.00      87.12       1.60       0.03       2.32       ----

> <Gold.Chemscore.Fitness>
15.0446

> <Gold.Chemscore.DG>
-17.3943

> <Gold.Chemscore.ZeroCoef>
-5.4800

> <Gold.Chemscore.Hbond>
1.7451

> <Gold.Chemscore.Metal>
0.0000

> <Gold.Chemscore.Lipo>
87.1204

> <Gold.Chemscore.Internal_Hbond>
0.0000

> <Gold.Chemscore.DEClash>
0.0337

> <Gold.Chemscore.DEInternal>
2.3160

> <Gold.Chemscore.Rot>
1.6045

> <Gold.Chemscore.Internal.Correction>
   9.000000E+99

> <Gold.Chemscore.Hbonds>
donor molecule, donor type, donor heavy atom, donor atom, acceptor molecule, acceptor atom, score
      L1  H    16    47       P1 10747  0.96
      P1  H 11000 11005       L1    22  0.53

> <Gold.Chemscore.Hbond.Weighted>
-5.8287

> <Gold.Chemscore.Metal.Weighted>
-0.0000

> <Gold.Chemscore.Lipo.Weighted>
-10.1931

> <Gold.Chemscore.Internal_Hbond.Weighted>
0.0000

> <Gold.Chemscore.DEClash.Weighted>
0.0337

> <Gold.Chemscore.DEInternal.Weighted>
2.3160

> <Gold.Chemscore.Rot.Weighted>
4.1075

> <Gold.Chemscore.Internal.Correction.Weighted>
   9.000000E+99

> <Gold.Protein.RotatedTorsions>
[ 6907 6896 6895 6894 ] final -114.70 input  -60.11 | X-H torsion
[ 7974 7965 7964 7962 ] final  -47.76 input  175.53 | X-H torsion
[ 8008 7997 7996 7995 ] final -105.95 input   59.86 | X-H torsion
[ 10167 10162 10161 10158 ] final  -25.12 input  -65.29 | X-H torsion
[ 10718 10713 10712 10709 ] final  -98.29 input   66.30 | X-H torsion
[ 10763 10752 10751 10750 ] final  -39.86 input  -60.55 | X-H torsion
[ 11005 11000 10999 10996 ] final   35.90 input  -57.11 | X-H torsion

> <Gold.Protein.ActiveResidues>
 VAL166  LYS551  ARG553  GLY616  TRP617  ASP618  TYR619  PRO620  LYS621  CYS622 
 ASP623  PHE694  ASN695  SER759  ASP760  ASP761  ALA762  ILE779  LEU786  VAL792 
 PHE793  MET794  SER795  GLU796  ALA797  LYS798  CYS799  TRP800  GLU811  SER814 

> <Gold.Protein.RotatedAtoms>
  150.7921  133.8764  159.3273 H   0  0  0  0  0  0  0  0  0  0  0  0  # atno 6907 bound_to 6896
  151.6599  135.0989  160.0187 H   0  0  0  0  0  0  0  0  0  0  0  0  # atno 6908 bound_to 6896
  152.3997  133.6761  159.6341 H   0  0  0  0  0  0  0  0  0  0  0  0  # atno 6909 bound_to 6896
  145.9583  140.7505  142.9470 H   0  0  0  0  0  0  0  0  0  0  0  0  # atno 7974 bound_to 7965
  154.9073  140.0411  157.1927 H   0  0  0  0  0  0  0  0  0  0  0  0  # atno 8008 bound_to 7997
  154.8383  140.2910  155.5655 H   0  0  0  0  0  0  0  0  0  0  0  0  # atno 8009 bound_to 7997
  156.2991  140.2487  156.3321 H   0  0  0  0  0  0  0  0  0  0  0  0  # atno 8010 bound_to 7997
  140.7287  143.4293  151.0827 H   0  0  0  0  0  0  0  0  0  0  0  0  # atno 10167 bound_to 10162
  156.0104  130.5231  150.6501 H   0  0  0  0  0  0  0  0  0  0  0  0  # atno 10718 bound_to 10713
  153.9364  135.6766  153.4745 H   0  0  0  0  0  0  0  0  0  0  0  0  # atno 10763 bound_to 10752
  153.0953  135.4854  154.8764 H   0  0  0  0  0  0  0  0  0  0  0  0  # atno 10764 bound_to 10752
  154.7400  135.3158  154.8702 H   0  0  0  0  0  0  0  0  0  0  0  0  # atno 10765 bound_to 10752
  140.2379  134.3449  155.7937 H   0  0  0  0  0  0  0  0  0  0  0  0  # atno 11005 bound_to 11000
  144.6809  140.2548  143.7327 LP  0  0  0  0  0  0  0  0  0  0  0  0  # atno 17320 bound_to 7965
  145.8076  139.1990  143.2012 LP  0  0  0  0  0  0  0  0  0  0  0  0  # atno 17321 bound_to 7965
  139.7948  143.8167  152.3156 LP  0  0  0  0  0  0  0  0  0  0  0  0  # atno 17342 bound_to 10162
  139.8163  144.7314  150.9630 LP  0  0  0  0  0  0  0  0  0  0  0  0  # atno 17343 bound_to 10162
  157.4264  131.0843  151.1081 LP  0  0  0  0  0  0  0  0  0  0  0  0  # atno 17370 bound_to 10713
  157.1667  130.6249  149.5628 LP  0  0  0  0  0  0  0  0  0  0  0  0  # atno 17371 bound_to 10713
  141.2213  133.7282  156.8838 LP  0  0  0  0  0  0  0  0  0  0  0  0  # atno 17394 bound_to 11000
  140.1683  134.9118  157.2801 LP  0  0  0  0  0  0  0  0  0  0  0  0  # atno 17395 bound_to 11000

$$$$
