AV-unprocessed.smi:2188|AV-procd|sdf|8881|dock10
  -GOLD-   2272012 83D 1   1.00000     0.00000
 Structure written by MMmdl.
 40 42  0  0  0  0  0  0  0  0  2 V2000
  154.8373  140.6537  160.5777 O   0  0  0  0  0  0  0  0  0  0  0  0
  153.8458  140.4032  159.8895 C   0  0  0  0  0  0  0  0  0  0  0  0
  153.4163  139.1347  159.7363 N   0  0  0  0  0  0  0  0  0  0  0  0
  154.0169  137.9443  160.3361 C   0  0  0  0  0  0  0  0  0  0  0  0
  153.0397  137.1862  161.2573 C   0  0  0  0  0  0  0  0  0  0  0  0
  153.6666  135.9995  161.9692 C   0  0  0  0  0  0  0  0  0  0  0  0
  153.9886  134.8197  161.2614 C   0  0  0  0  0  0  0  0  0  0  0  0
  154.5313  133.7208  161.9590 C   0  0  0  0  0  0  0  0  0  0  0  0
  154.7419  133.8263  163.3491 C   0  0  0  0  0  0  0  0  0  0  0  0
  154.4270  134.9722  163.9917 N   0  3  0  0  0  0  0  0  0  0  0  0
  153.9077  136.0474  163.3596 C   0  0  0  0  0  0  0  0  0  0  0  0
  153.0222  141.4099  159.1871 C   0  0  0  0  0  0  0  0  0  0  0  0
  153.3881  142.7198  159.2318 C   0  0  0  0  0  0  0  0  0  0  0  0
  152.6163  143.7503  158.5832 C   0  0  0  0  0  0  0  0  0  0  0  0
  151.5349  143.3832  157.8887 C   0  0  0  0  0  0  0  0  0  0  0  0
  151.1245  142.0581  157.7615 N   0  0  0  0  0  0  0  0  0  0  0  0
  149.9968  141.8001  156.8718 C   0  0  0  0  0  0  0  0  0  0  0  0
  149.0789  140.7501  157.4697 C   0  0  0  0  0  0  0  0  0  0  0  0
  150.0741  139.2205  157.5738 S   0  0  0  0  0  0  0  0  0  0  0  0
  149.3245  138.2395  158.3728 O   0  0  0  0  0  0  0  0  0  0  0  0
  150.5093  138.8641  156.2143 O   0  0  0  0  0  0  0  0  0  0  0  0
  151.3928  139.7754  158.4444 N   0  0  0  0  0  0  0  0  0  0  0  0
  151.8085  141.0106  158.4412 C   0  0  0  0  0  0  0  0  0  0  0  0
  152.6039  138.9846  159.1556 H   0  0  0  0  0  0  0  0  0  0  0  0
  154.3330  137.2864  159.5262 H   0  0  0  0  0  0  0  0  0  0  0  0
  154.9250  138.2069  160.8811 H   0  0  0  0  0  0  0  0  0  0  0  0
  152.6274  137.8727  161.9980 H   0  0  0  0  0  0  0  0  0  0  0  0
  152.1915  136.8289  160.6722 H   0  0  0  0  0  0  0  0  0  0  0  0
  153.8092  134.7502  160.1984 H   0  0  0  0  0  0  0  0  0  0  0  0
  154.7768  132.8084  161.4362 H   0  0  0  0  0  0  0  0  0  0  0  0
  155.1475  133.0344  163.9618 H   0  0  0  0  0  0  0  0  0  0  0  0
  153.6842  136.9002  163.9841 H   0  0  0  0  0  0  0  0  0  0  0  0
  154.2783  143.0432  159.7513 H   0  0  0  0  0  0  0  0  0  0  0  0
  152.9012  144.7893  158.6598 H   0  0  0  0  0  0  0  0  0  0  0  0
  150.9153  144.1098  157.3830 H   0  0  0  0  0  0  0  0  0  0  0  0
  149.4232  142.7117  156.7014 H   0  0  0  0  0  0  0  0  0  0  0  0
  150.3711  141.4810  155.8986 H   0  0  0  0  0  0  0  0  0  0  0  0
  148.7301  141.0258  158.4654 H   0  0  0  0  0  0  0  0  0  0  0  0
  148.2121  140.5614  156.8366 H   0  0  0  0  0  0  0  0  0  0  0  0
  154.5826  135.0263  164.9986 H   0  0  0  0  0  0  0  0  0  0  0  0
  1  2  2  0  0  0  0
  2  3  1  0  0  0  0
  2 12  1  0  0  0  0
  3  4  1  0  0  0  0
  3 24  1  0  0  0  0
  4  5  1  0  0  0  0
  4 25  1  0  0  0  0
  4 26  1  0  0  0  0
  5  6  1  0  0  0  0
  5 27  1  0  0  0  0
  5 28  1  0  0  0  0
  6 11  1  0  0  0  0
  6  7  2  0  0  0  0
  7  8  1  0  0  0  0
  7 29  1  0  0  0  0
  8  9  2  0  0  0  0
  8 30  1  0  0  0  0
  9 10  1  0  0  0  0
  9 31  1  0  0  0  0
 10 11  2  0  0  0  0
 10 40  1  0  0  0  0
 11 32  1  0  0  0  0
 12 23  1  0  0  0  0
 12 13  2  0  0  0  0
 13 14  1  0  0  0  0
 13 33  1  0  0  0  0
 14 15  2  0  0  0  0
 14 34  1  0  0  0  0
 15 16  1  0  0  0  0
 15 35  1  0  0  0  0
 16 23  1  0  0  0  0
 16 17  1  0  0  0  0
 17 18  1  0  0  0  0
 17 36  1  0  0  0  0
 17 37  1  0  0  0  0
 18 19  1  0  0  0  0
 18 38  1  0  0  0  0
 18 39  1  0  0  0  0
 19 20  2  0  0  0  0
 19 21  2  0  0  0  0
 19 22  1  0  0  0  0
 22 23  2  0  0  0  0
M  CHG  1  10   1
M  END
> <s_m_source_file>
AV-unprocessed.smi

> <i_m_source_file_index>
2188

> <i_lp_mmshare_version>
43012

> <i_f3d_flags>
0

> <s_epik_input>
W0NIMl0xW0NIMl1TKD1PKSg9TylOPUMoTjEyKUMoPVtDSF1bQ0hdPVtDSF0yKUMoPU8pW05IXVtDSDJdW0NIMl1jM1tjSF1bY0hdW2NIXW5bY0hdMw==

> <s_epik_cmdline>
J2VwaWtfcHl0aG9uJywgJy1waCcsICc3LjAnLCAnLXRuJywgJzgnLCAnLW1hJywgJzIwMCcsICctbWV0YWxfYmluZGluZycsICctaW1hZScsICc8aW5maWxlLm1hZT4nLCAnLW9tYWUnLCAnPG91dGZpbGUubWFlPic=

> <r_epik_Ionization_Penalty>
2.45954

> <r_epik_Ionization_Penalty_Charging>
2.45946

> <r_epik_Ionization_Penalty_Neutral>
8.13788e-05

> <r_epik_State_Penalty>
2.62155

> <r_epik_Charging_Adjusted_Penalty>
5.08101

> <i_epik_Tot_Q>
1

> <i_epik_Tot_abs_Q>
1

> <r_epik_Metal_State_Penalty>
2.74793

> <b_epik_Metal_Only>
0

> <s_lp_Force_Field>
OPLS_2005

> <r_lp_Energy>
33.7727

> <b_lp_Chiralities_Consistent>
1

> <s_lp_Variant>
AV-unprocessed.smi:2188-2

> <Gold.Version>
5.8.1

> <Gold.Id.Protein>
6NUR|6NUR_protein|mol2

> <Gold.PLP.Fitness>
52.4542

> <Gold.PLP.PLP>
-47.2563

> <Gold.PLP.part.hbond>
-2.9378

> <Gold.PLP.part.metal>
0.0000

> <Gold.PLP.part.buried>
-6.3242

> <Gold.PLP.part.nonpolar>
-37.1638

> <Gold.PLP.part.repulsive>
0.1583

> <Gold.PLP.ligand.clash>
0.6075

> <Gold.PLP.ligand.torsion>
0.1299

> <Gold.PLP.Chemscore.Hbond>
1.0000

> <Gold.PLP.Chemscore.CHOScore>
0.9954

> <Gold.PLP.Chemscore.Metal>
0.0000

> <Gold.Chemscore.Hbonds>
donor molecule, donor type, donor heavy atom, donor atom, acceptor molecule, acceptor atom, score
      L1  C    15    35       P1  8028  0.57

> <Gold.PLP.Chemscore.Internal.Correction>
0.0790

> <Gold.Rescore>
     Score         DG    S(hbond)    S(metal)    S(lipo)     H(rot)  DE(clash)    DE(int)     intcor
     15.03     -17.08       0.92        0.00     106.40       1.54       0.07       1.98       ----

> <Gold.Chemscore.Fitness>
15.0324

> <Gold.Chemscore.DG>
-17.0756

> <Gold.Chemscore.ZeroCoef>
-5.4800

> <Gold.Chemscore.Hbond>
0.9216

> <Gold.Chemscore.Metal>
0.0000

> <Gold.Chemscore.Lipo>
106.3963

> <Gold.Chemscore.Internal_Hbond>
0.0000

> <Gold.Chemscore.DEClash>
0.0676

> <Gold.Chemscore.DEInternal>
1.9757

> <Gold.Chemscore.Rot>
1.5355

> <Gold.Chemscore.Internal.Correction>
   9.000000E+99

> <Gold.Chemscore.Hbond.Weighted>
-3.0782

> <Gold.Chemscore.Metal.Weighted>
-0.0000

> <Gold.Chemscore.Lipo.Weighted>
-12.4484

> <Gold.Chemscore.Internal_Hbond.Weighted>
0.0000

> <Gold.Chemscore.DEClash.Weighted>
0.0676

> <Gold.Chemscore.DEInternal.Weighted>
1.9757

> <Gold.Chemscore.Rot.Weighted>
3.9309

> <Gold.Chemscore.Internal.Correction.Weighted>
   9.000000E+99

> <Gold.Protein.RotatedTorsions>
[ 6907 6896 6895 6894 ] final   36.35 input  -60.11 | X-H torsion
[ 7974 7965 7964 7962 ] final  -26.25 input  175.53 | X-H torsion
[ 8008 7997 7996 7995 ] final -137.52 input   59.86 | X-H torsion
[ 10167 10162 10161 10158 ] final   46.60 input  -65.29 | X-H torsion
[ 10718 10713 10712 10709 ] final  -36.46 input   66.30 | X-H torsion
[ 10763 10752 10751 10750 ] final  -63.75 input  -60.55 | X-H torsion
[ 11005 11000 10999 10996 ] final  118.45 input  -57.11 | X-H torsion

> <Gold.Protein.ActiveResidues>
 VAL166  LYS551  ARG553  GLY616  TRP617  ASP618  TYR619  PRO620  LYS621  CYS622 
 ASP623  PHE694  ASN695  SER759  ASP760  ASP761  ALA762  ILE779  LEU786  VAL792 
 PHE793  MET794  SER795  GLU796  ALA797  LYS798  CYS799  TRP800  GLU811  SER814 

> <Gold.Protein.RotatedAtoms>
  152.1286  134.9152  160.0559 H   0  0  0  0  0  0  0  0  0  0  0  0  # atno 6907 bound_to 6896
  152.0265  133.3915  159.4288 H   0  0  0  0  0  0  0  0  0  0  0  0  # atno 6908 bound_to 6896
  150.6854  134.3489  159.4944 H   0  0  0  0  0  0  0  0  0  0  0  0  # atno 6909 bound_to 6896
  146.1437  140.4995  142.8641 H   0  0  0  0  0  0  0  0  0  0  0  0  # atno 7974 bound_to 7965
  155.4131  140.0513  157.3030 H   0  0  0  0  0  0  0  0  0  0  0  0  # atno 8008 bound_to 7997
  154.4937  140.2130  155.9453 H   0  0  0  0  0  0  0  0  0  0  0  0  # atno 8009 bound_to 7997
  156.1377  140.3160  155.8451 H   0  0  0  0  0  0  0  0  0  0  0  0  # atno 8010 bound_to 7997
  140.3123  144.2805  150.6197 H   0  0  0  0  0  0  0  0  0  0  0  0  # atno 10167 bound_to 10162
  156.3266  130.4273  149.7911 H   0  0  0  0  0  0  0  0  0  0  0  0  # atno 10718 bound_to 10713
  154.3197  135.6198  153.5502 H   0  0  0  0  0  0  0  0  0  0  0  0  # atno 10763 bound_to 10752
  152.9821  135.5721  154.5083 H   0  0  0  0  0  0  0  0  0  0  0  0  # atno 10764 bound_to 10752
  154.4749  135.2861  155.1591 H   0  0  0  0  0  0  0  0  0  0  0  0  # atno 10765 bound_to 10752
  139.9110  134.9620  156.7505 H   0  0  0  0  0  0  0  0  0  0  0  0  # atno 11005 bound_to 11000
  144.7822  140.5864  143.6598 LP  0  0  0  0  0  0  0  0  0  0  0  0  # atno 17320 bound_to 7965
  145.4986  139.1484  143.3670 LP  0  0  0  0  0  0  0  0  0  0  0  0  # atno 17321 bound_to 7965
  140.5557  143.2199  151.7851 LP  0  0  0  0  0  0  0  0  0  0  0  0  # atno 17342 bound_to 10162
  139.4891  144.4416  151.9757 LP  0  0  0  0  0  0  0  0  0  0  0  0  # atno 17343 bound_to 10162
  156.5199  130.8210  151.3199 LP  0  0  0  0  0  0  0  0  0  0  0  0  # atno 17370 bound_to 10713
  157.7422  130.9886  150.2502 LP  0  0  0  0  0  0  0  0  0  0  0  0  # atno 17371 bound_to 10713
  140.6777  133.9502  155.7892 LP  0  0  0  0  0  0  0  0  0  0  0  0  # atno 17394 bound_to 11000
  141.0532  134.0454  157.3756 LP  0  0  0  0  0  0  0  0  0  0  0  0  # atno 17395 bound_to 11000

$$$$
