AV-unprocessed.smi:14|AV-procd|sdf|77|dock10
  -GOLD-   2262015203D 1   1.00000     0.00000
 Structure written by MMmdl.
 57 60  0  0  0  0  0  0  0  0  1 V2000
  143.2290  132.7153  157.7323 N   0  0  0  0  0  0  0  0  0  0  0  0
  143.9844  132.3498  158.5287 C   0  0  0  0  0  0  0  0  0  0  0  0
  144.9451  131.8853  159.5410 C   0  0  0  0  0  0  0  0  0  0  0  0
  146.4179  132.1227  159.1635 C   0  0  0  0  0  0  0  0  0  0  0  0
  146.8819  133.4835  159.4311 N   0  0  0  0  0  0  0  0  0  0  0  0
  146.4076  134.1445  160.6492 C   0  0  0  0  0  0  0  0  0  0  0  0
  147.5473  134.7410  161.5061 C   0  0  2  0  0  0  0  0  0  0  0  0
  147.0636  135.3562  162.8083 C   0  0  0  0  0  0  0  0  0  0  0  0
  146.6285  136.7597  162.3904 C   0  0  0  0  0  0  0  0  0  0  0  0
  147.3589  137.0663  161.2059 O   0  0  0  0  0  0  0  0  0  0  0  0
  148.1797  135.9626  160.8410 C   0  0  0  0  0  0  0  0  0  0  0  0
  147.0698  134.2371  158.3177 C   0  0  0  0  0  0  0  0  0  0  0  0
  145.9975  134.6577  157.5950 N   0  0  0  0  0  0  0  0  0  0  0  0
  146.1744  135.3884  156.4905 C   0  0  0  0  0  0  0  0  0  0  0  0
  147.3165  135.8006  155.9369 N   0  0  0  0  0  0  0  0  0  0  0  0
  148.3960  135.3798  156.6565 C   0  0  0  0  0  0  0  0  0  0  0  0
  148.3616  134.6041  157.8494 C   0  0  0  0  0  0  0  0  0  0  0  0
  149.6539  134.3861  158.3100 N   0  0  0  0  0  0  0  0  0  0  0  0
  150.4092  134.9931  157.4364 C   0  0  0  0  0  0  0  0  0  0  0  0
  149.7385  135.6013  156.3987 N   0  0  0  0  0  0  0  0  0  0  0  0
  150.3302  136.3479  155.2972 C   0  0  0  0  0  0  0  0  0  0  0  0
  149.9395  137.8586  155.2333 C   0  0  0  0  0  0  0  0  0  0  0  0
  148.6353  137.9949  154.3991 C   0  0  0  0  0  0  0  0  0  0  0  0
  148.7845  137.5945  153.0511 O   0  0  0  0  0  0  0  0  0  0  0  0
  149.7108  138.3817  156.6753 C   0  0  0  0  0  0  0  0  0  0  0  0
  151.0215  138.5155  157.4749 C   0  0  0  0  0  0  0  0  0  0  0  0
  151.9438  139.3403  156.7730 O   0  0  0  0  0  0  0  0  0  0  0  0
  152.3059  138.8158  155.5015 C   0  0  0  0  0  0  0  0  0  0  0  0
  151.0605  138.7242  154.6017 C   0  0  0  0  0  0  0  0  0  0  0  0
  144.7162  132.4225  160.4616 H   0  0  0  0  0  0  0  0  0  0  0  0
  144.7541  130.8302  159.7384 H   0  0  0  0  0  0  0  0  0  0  0  0
  147.0513  131.4203  159.7062 H   0  0  0  0  0  0  0  0  0  0  0  0
  146.5608  131.8881  158.1093 H   0  0  0  0  0  0  0  0  0  0  0  0
  145.7009  134.9310  160.3822 H   0  0  0  0  0  0  0  0  0  0  0  0
  145.8412  133.4265  161.2432 H   0  0  0  0  0  0  0  0  0  0  0  0
  148.3083  133.9832  161.6930 H   0  0  0  0  0  0  0  0  0  0  0  0
  146.2688  134.7919  163.2971 H   0  0  0  0  0  0  0  0  0  0  0  0
  147.8970  135.4253  163.5088 H   0  0  0  0  0  0  0  0  0  0  0  0
  145.5637  136.7789  162.1565 H   0  0  0  0  0  0  0  0  0  0  0  0
  146.8153  137.4960  163.1725 H   0  0  0  0  0  0  0  0  0  0  0  0
  149.1806  136.1313  161.2404 H   0  0  0  0  0  0  0  0  0  0  0  0
  148.2645  135.8665  159.7581 H   0  0  0  0  0  0  0  0  0  0  0  0
  145.2715  135.6839  155.9766 H   0  0  0  0  0  0  0  0  0  0  0  0
  151.4856  135.0096  157.5247 H   0  0  0  0  0  0  0  0  0  0  0  0
  151.4141  136.2513  155.3729 H   0  0  0  0  0  0  0  0  0  0  0  0
  150.0609  135.8279  154.3794 H   0  0  0  0  0  0  0  0  0  0  0  0
  147.8368  137.3887  154.8265 H   0  0  0  0  0  0  0  0  0  0  0  0
  148.2870  139.0283  154.4064 H   0  0  0  0  0  0  0  0  0  0  0  0
  149.1493  138.3161  152.5619 H   0  0  0  0  0  0  0  0  0  0  0  0
  149.2464  139.3678  156.6494 H   0  0  0  0  0  0  0  0  0  0  0  0
  149.0121  137.7369  157.2094 H   0  0  0  0  0  0  0  0  0  0  0  0
  150.8168  138.9737  158.4426 H   0  0  0  0  0  0  0  0  0  0  0  0
  151.4698  137.5444  157.6844 H   0  0  0  0  0  0  0  0  0  0  0  0
  153.0405  139.4816  155.0486 H   0  0  0  0  0  0  0  0  0  0  0  0
  152.7935  137.8476  155.6169 H   0  0  0  0  0  0  0  0  0  0  0  0
  151.3325  138.3596  153.6120 H   0  0  0  0  0  0  0  0  0  0  0  0
  150.6979  139.7406  154.4454 H   0  0  0  0  0  0  0  0  0  0  0  0
  1  2  3  0  0  0  0
  2  3  1  0  0  0  0
  3  4  1  0  0  0  0
  3 30  1  0  0  0  0
  3 31  1  0  0  0  0
  4  5  1  0  0  0  0
  4 32  1  0  0  0  0
  4 33  1  0  0  0  0
  5  6  1  0  0  0  0
  5 12  1  0  0  0  0
  6  7  1  0  0  0  0
  6 34  1  0  0  0  0
  6 35  1  0  0  0  0
  7 11  1  0  0  0  0
  7  8  1  0  0  0  0
  7 36  1  0  0  0  0
  8  9  1  0  0  0  0
  8 37  1  0  0  0  0
  8 38  1  0  0  0  0
  9 10  1  0  0  0  0
  9 39  1  0  0  0  0
  9 40  1  0  0  0  0
 10 11  1  0  0  0  0
 11 41  1  0  0  0  0
 11 42  1  0  0  0  0
 12 17  1  0  0  0  0
 12 13  2  0  0  0  0
 13 14  1  0  0  0  0
 14 15  2  0  0  0  0
 14 43  1  0  0  0  0
 15 16  1  0  0  0  0
 16 20  1  0  0  0  0
 16 17  2  0  0  0  0
 17 18  1  0  0  0  0
 18 19  2  0  0  0  0
 19 20  1  0  0  0  0
 19 44  1  0  0  0  0
 20 21  1  0  0  0  0
 21 22  1  0  0  0  0
 21 45  1  0  0  0  0
 21 46  1  0  0  0  0
 22 29  1  0  0  0  0
 22 23  1  0  0  0  0
 22 25  1  0  0  0  0
 23 24  1  0  0  0  0
 23 47  1  0  0  0  0
 23 48  1  0  0  0  0
 24 49  1  0  0  0  0
 25 26  1  0  0  0  0
 25 50  1  0  0  0  0
 25 51  1  0  0  0  0
 26 27  1  0  0  0  0
 26 52  1  0  0  0  0
 26 53  1  0  0  0  0
 27 28  1  0  0  0  0
 28 29  1  0  0  0  0
 28 54  1  0  0  0  0
 28 55  1  0  0  0  0
 29 56  1  0  0  0  0
 29 57  1  0  0  0  0
M  END
> <s_m_source_file>
AV-unprocessed.smi

> <i_m_source_file_index>
14

> <i_lp_mmshare_version>
43012

> <i_f3d_flags>
0

> <s_epik_input>
W0NIMl0xT1tDSDJdW0NIMl1bQ0BIXTFbQ0gyXU4oW0NIMl1bQ0gyXUMjTiljKG5bY0hdbjIpYyhjMjMpbltjSF1uM1tDSDJdQzQoW0NIMl1bT0hdKVtDSDJdW0NIMl1PW0NIMl1bQ0gyXTQ=

> <s_epik_cmdline>
J2VwaWtfcHl0aG9uJywgJy1waCcsICc3LjAnLCAnLXRuJywgJzgnLCAnLW1hJywgJzIwMCcsICctbWV0YWxfYmluZGluZycsICctaW1hZScsICc8aW5maWxlLm1hZT4nLCAnLW9tYWUnLCAnPG91dGZpbGUubWFlPic=

> <r_lp_tautomer_probability>
1

> <r_epik_Ionization_Penalty>
0.000542547

> <r_epik_Ionization_Penalty_Charging>
0

> <r_epik_Ionization_Penalty_Neutral>
0.000542547

> <r_epik_State_Penalty>
0.000265709

> <r_epik_Charging_Adjusted_Penalty>
0.000265709

> <i_epik_Tot_Q>
0

> <i_epik_Tot_abs_Q>
0

> <r_epik_Metal_State_Penalty>
-0

> <b_epik_Metal_Only>
0

> <s_lp_Force_Field>
OPLS_2005

> <r_lp_Energy>
44.4286

> <b_lp_Chiralities_Consistent>
1

> <s_lp_Variant>
AV-unprocessed.smi:14-1

> <Gold.Version>
5.8.1

> <Gold.Id.Protein>
6NUR|6NUR_protein|mol2

> <Gold.PLP.Fitness>
44.3405

> <Gold.PLP.PLP>
-33.7734

> <Gold.PLP.part.hbond>
-6.0000

> <Gold.PLP.part.metal>
0.0000

> <Gold.PLP.part.buried>
-4.4517

> <Gold.PLP.part.nonpolar>
-23.4161

> <Gold.PLP.part.repulsive>
0.1082

> <Gold.PLP.ligand.clash>
0.0000

> <Gold.PLP.ligand.torsion>
2.4864

> <Gold.PLP.Chemscore.Hbond>
4.8240

> <Gold.PLP.Chemscore.CHOScore>
0.0000

> <Gold.PLP.Chemscore.Metal>
0.0000

> <Gold.Chemscore.Hbonds>
donor molecule, donor type, donor heavy atom, donor atom, acceptor molecule, acceptor atom, score
      L1  H    24    49       P1  7957  0.46
      P1  H  6896  6908       L1    18  0.82
      P1  H  6931  6943       L1    10  0.43
      P1  H  6934  6947       L1    10  1.00
      P1  H 11000 11005       L1     1  0.10

> <Gold.PLP.Chemscore.Internal.Correction>
1.0679

> <Gold.Rescore>
     Score         DG    S(hbond)    S(metal)    S(lipo)     H(rot)  DE(clash)    DE(int)     intcor
     14.59     -17.24       3.30        0.00      77.60       3.26       0.01       2.65       ----

> <Gold.Chemscore.Fitness>
14.5907

> <Gold.Chemscore.DG>
-17.2444

> <Gold.Chemscore.ZeroCoef>
-5.4800

> <Gold.Chemscore.Hbond>
3.2992

> <Gold.Chemscore.Metal>
0.0000

> <Gold.Chemscore.Lipo>
77.5963

> <Gold.Chemscore.Internal_Hbond>
0.0000

> <Gold.Chemscore.DEClash>
0.0073

> <Gold.Chemscore.DEInternal>
2.6463

> <Gold.Chemscore.Rot>
3.2553

> <Gold.Chemscore.Internal.Correction>
   9.000000E+99

> <Gold.Chemscore.Hbonds>
donor molecule, donor type, donor heavy atom, donor atom, acceptor molecule, acceptor atom, score
      L1  H    24    49       P1  7957  0.30
      P1  H  6896  6908       L1    18  0.16
      P1  H  6931  6943       L1    10  0.02
      P1  H  6934  6947       L1    10  0.52
      P1  H 11000 11005       L1     1  0.13

> <Gold.Chemscore.Hbond.Weighted>
-11.0192

> <Gold.Chemscore.Metal.Weighted>
-0.0000

> <Gold.Chemscore.Lipo.Weighted>
-9.0788

> <Gold.Chemscore.Internal_Hbond.Weighted>
0.0000

> <Gold.Chemscore.DEClash.Weighted>
0.0073

> <Gold.Chemscore.DEInternal.Weighted>
2.6463

> <Gold.Chemscore.Rot.Weighted>
8.3336

> <Gold.Chemscore.Internal.Correction.Weighted>
   9.000000E+99

> <Gold.Protein.RotatedTorsions>
[ 6907 6896 6895 6894 ] final  155.23 input  -60.11 | X-H torsion
[ 7974 7965 7964 7962 ] final   68.74 input  175.53 | X-H torsion
[ 8008 7997 7996 7995 ] final -133.68 input   59.86 | X-H torsion
[ 10167 10162 10161 10158 ] final   16.95 input  -65.29 | X-H torsion
[ 10718 10713 10712 10709 ] final  -93.41 input   66.30 | X-H torsion
[ 10763 10752 10751 10750 ] final  -64.63 input  -60.55 | X-H torsion
[ 11005 11000 10999 10996 ] final  -99.96 input  -57.11 | X-H torsion

> <Gold.Protein.ActiveResidues>
 VAL166  LYS551  ARG553  GLY616  TRP617  ASP618  TYR619  PRO620  LYS621  CYS622 
 ASP623  PHE694  ASN695  SER759  ASP760  ASP761  ALA762  ILE779  LEU786  VAL792 
 PHE793  MET794  SER795  GLU796  ALA797  LYS798  CYS799  TRP800  GLU811  SER814 

> <Gold.Protein.RotatedAtoms>
  152.0472  133.4003  159.4361 H   0  0  0  0  0  0  0  0  0  0  0  0  # atno 6907 bound_to 6896
  150.6872  134.3349  159.4852 H   0  0  0  0  0  0  0  0  0  0  0  0  # atno 6908 bound_to 6896
  152.1154  134.9244  160.0616 H   0  0  0  0  0  0  0  0  0  0  0  0  # atno 6909 bound_to 6896
  145.7989  139.2972  143.1166 H   0  0  0  0  0  0  0  0  0  0  0  0  # atno 7974 bound_to 7965
  155.3495  140.0476  157.3046 H   0  0  0  0  0  0  0  0  0  0  0  0  # atno 8008 bound_to 7997
  154.5235  140.2233  155.8897 H   0  0  0  0  0  0  0  0  0  0  0  0  # atno 8009 bound_to 7997
  156.1714  140.3095  155.8987 H   0  0  0  0  0  0  0  0  0  0  0  0  # atno 8010 bound_to 7997
  140.5760  143.9071  150.6751 H   0  0  0  0  0  0  0  0  0  0  0  0  # atno 10167 bound_to 10162
  156.0013  130.5026  150.5772 H   0  0  0  0  0  0  0  0  0  0  0  0  # atno 10718 bound_to 10713
  154.3330  135.6172  153.5560 H   0  0  0  0  0  0  0  0  0  0  0  0  # atno 10763 bound_to 10752
  152.9810  135.5751  154.4940 H   0  0  0  0  0  0  0  0  0  0  0  0  # atno 10764 bound_to 10752
  154.4630  135.2856  155.1676 H   0  0  0  0  0  0  0  0  0  0  0  0  # atno 10765 bound_to 10752
  141.1289  133.8361  157.1039 H   0  0  0  0  0  0  0  0  0  0  0  0  # atno 11005 bound_to 11000
  145.9899  140.8612  143.0072 LP  0  0  0  0  0  0  0  0  0  0  0  0  # atno 17320 bound_to 7965
  144.6771  140.2200  143.7367 LP  0  0  0  0  0  0  0  0  0  0  0  0  # atno 17321 bound_to 7965
  140.2558  143.3560  152.1366 LP  0  0  0  0  0  0  0  0  0  0  0  0  # atno 17342 bound_to 10162
  139.5143  144.6946  151.5666 LP  0  0  0  0  0  0  0  0  0  0  0  0  # atno 17343 bound_to 10162
  157.3658  131.0757  151.1599 LP  0  0  0  0  0  0  0  0  0  0  0  0  # atno 17370 bound_to 10713
  157.2369  130.6551  149.5873 LP  0  0  0  0  0  0  0  0  0  0  0  0  # atno 17371 bound_to 10713
  140.0316  134.9898  157.0791 LP  0  0  0  0  0  0  0  0  0  0  0  0  # atno 17394 bound_to 11000
  140.4276  134.1814  155.7166 LP  0  0  0  0  0  0  0  0  0  0  0  0  # atno 17395 bound_to 11000

$$$$
