AV-unprocessed.smi:769|AV-procd|sdf|3676|dock3
  -GOLD-   22720 1 83D 1   1.00000     0.00000
 Structure written by MMmdl.
 50 52  0  0  0  0  0  0  0  0  2 V2000
  147.0282  132.7985  154.0462 O   0  0  0  0  0  0  0  0  0  0  0  0
  147.5694  133.7709  153.5205 C   0  0  0  0  0  0  0  0  0  0  0  0
  148.7611  134.2496  153.9055 N   0  0  0  0  0  0  0  0  0  0  0  0
  149.5789  133.6902  154.9751 C   0  0  0  0  0  0  0  0  0  0  0  0
  149.5556  134.5897  156.2268 C   0  0  0  0  0  0  0  0  0  0  0  0
  149.6472  136.0102  155.8931 N   0  0  0  0  0  0  0  0  0  0  0  0
  150.8861  136.3086  155.1625 C   0  0  0  0  0  0  0  0  0  0  0  0
  150.9719  137.8158  154.8546 C   0  0  0  0  0  0  0  0  0  0  0  0
  150.9467  138.5560  156.1193 N   0  0  0  0  0  0  0  0  0  0  0  0
  151.9596  139.2906  156.6390 C   0  0  0  0  0  0  0  0  0  0  0  0
  153.0387  139.4171  156.0585 O   0  0  0  0  0  0  0  0  0  0  0  0
  151.7338  140.0309  157.9725 C   0  0  0  0  0  0  0  0  0  0  0  0
  152.0830  141.5337  157.9854 C   0  0  0  0  0  0  0  0  0  0  0  0
  152.7445  141.3198  159.3496 C   0  0  0  0  0  0  0  0  0  0  0  0
  152.8625  139.8338  158.9992 C   0  0  0  0  0  0  0  0  0  0  0  0
  149.6900  138.3000  156.8281 C   0  0  0  0  0  0  0  0  0  0  0  0
  149.5966  136.7921  157.1337 C   0  0  0  0  0  0  0  0  0  0  0  0
  147.0541  134.4991  152.5143 N   0  0  0  0  0  0  0  0  0  0  0  0
  145.8229  134.3206  151.8257 C   0  0  0  0  0  0  0  0  0  0  0  0
  145.3300  135.4145  151.0797 C   0  0  0  0  0  0  0  0  0  0  0  0
  144.1202  135.2838  150.3678 C   0  0  0  0  0  0  0  0  0  0  0  0
  143.4462  134.1143  150.3966 N   0  3  0  0  0  0  0  0  0  0  0  0
  143.8832  133.0370  151.0832 C   0  0  0  0  0  0  0  0  0  0  0  0
  145.0871  133.1077  151.8138 C   0  0  0  0  0  0  0  0  0  0  0  0
  149.1332  135.0553  153.4241 H   0  0  0  0  0  0  0  0  0  0  0  0
  149.2303  132.6809  155.1949 H   0  0  0  0  0  0  0  0  0  0  0  0
  150.5999  133.5945  154.6047 H   0  0  0  0  0  0  0  0  0  0  0  0
  148.6146  134.4132  156.7501 H   0  0  0  0  0  0  0  0  0  0  0  0
  150.3533  134.3166  156.9196 H   0  0  0  0  0  0  0  0  0  0  0  0
  151.7532  135.9927  155.7451 H   0  0  0  0  0  0  0  0  0  0  0  0
  150.9136  135.7599  154.2223 H   0  0  0  0  0  0  0  0  0  0  0  0
  151.8512  138.0178  154.2464 H   0  0  0  0  0  0  0  0  0  0  0  0
  150.1222  138.1227  154.2427 H   0  0  0  0  0  0  0  0  0  0  0  0
  150.7406  139.8665  158.3942 H   0  0  0  0  0  0  0  0  0  0  0  0
  152.8018  141.8503  157.2281 H   0  0  0  0  0  0  0  0  0  0  0  0
  151.2180  142.1967  158.0127 H   0  0  0  0  0  0  0  0  0  0  0  0
  153.6964  141.8350  159.4814 H   0  0  0  0  0  0  0  0  0  0  0  0
  152.0639  141.5044  160.1822 H   0  0  0  0  0  0  0  0  0  0  0  0
  152.6153  139.1633  159.8229 H   0  0  0  0  0  0  0  0  0  0  0  0
  153.8249  139.5785  158.5513 H   0  0  0  0  0  0  0  0  0  0  0  0
  149.6065  138.8646  157.7575 H   0  0  0  0  0  0  0  0  0  0  0  0
  148.8492  138.6166  156.2089 H   0  0  0  0  0  0  0  0  0  0  0  0
  148.6630  136.5862  157.6584 H   0  0  0  0  0  0  0  0  0  0  0  0
  150.4103  136.4939  157.7971 H   0  0  0  0  0  0  0  0  0  0  0  0
  147.5869  135.3126  152.2433 H   0  0  0  0  0  0  0  0  0  0  0  0
  145.8690  136.3507  151.0552 H   0  0  0  0  0  0  0  0  0  0  0  0
  143.6753  136.0735  149.7798 H   0  0  0  0  0  0  0  0  0  0  0  0
  143.2643  132.1535  151.0232 H   0  0  0  0  0  0  0  0  0  0  0  0
  145.4246  132.2272  152.3383 H   0  0  0  0  0  0  0  0  0  0  0  0
  142.5729  134.0395  149.8739 H   0  0  0  0  0  0  0  0  0  0  0  0
  1  2  2  0  0  0  0
  2  3  1  0  0  0  0
  2 18  1  0  0  0  0
  3  4  1  0  0  0  0
  3 25  1  0  0  0  0
  4  5  1  0  0  0  0
  4 26  1  0  0  0  0
  4 27  1  0  0  0  0
  5  6  1  0  0  0  0
  5 28  1  0  0  0  0
  5 29  1  0  0  0  0
  6 17  1  0  0  0  0
  6  7  1  0  0  0  0
  7  8  1  0  0  0  0
  7 30  1  0  0  0  0
  7 31  1  0  0  0  0
  8  9  1  0  0  0  0
  8 32  1  0  0  0  0
  8 33  1  0  0  0  0
  9 10  1  0  0  0  0
  9 16  1  0  0  0  0
 10 11  2  0  0  0  0
 10 12  1  0  0  0  0
 12 15  1  0  0  0  0
 12 13  1  0  0  0  0
 12 34  1  0  0  0  0
 13 14  1  0  0  0  0
 13 35  1  0  0  0  0
 13 36  1  0  0  0  0
 14 15  1  0  0  0  0
 14 37  1  0  0  0  0
 14 38  1  0  0  0  0
 15 39  1  0  0  0  0
 15 40  1  0  0  0  0
 16 17  1  0  0  0  0
 16 41  1  0  0  0  0
 16 42  1  0  0  0  0
 17 43  1  0  0  0  0
 17 44  1  0  0  0  0
 18 19  1  0  0  0  0
 18 45  1  0  0  0  0
 19 24  1  0  0  0  0
 19 20  2  0  0  0  0
 20 21  1  0  0  0  0
 20 46  1  0  0  0  0
 21 22  2  0  0  0  0
 21 47  1  0  0  0  0
 22 23  1  0  0  0  0
 22 50  1  0  0  0  0
 23 24  2  0  0  0  0
 23 48  1  0  0  0  0
 24 49  1  0  0  0  0
M  CHG  1  22   1
M  END
> <s_m_source_file>
AV-unprocessed.smi

> <i_m_source_file_index>
769

> <i_lp_mmshare_version>
43012

> <i_f3d_flags>
0

> <s_epik_input>
W2NIXTFbY0hdbltjSF1bY0hdYzFbTkhdQyg9TylbTkhdW0NIMl1bQ0gyXU4yW0NIMl1bQ0gyXU4oW0NIMl1bQ0gyXTIpQyg9TylbQ0hdM1tDSDJdW0NIMl1bQ0gyXTM=

> <s_epik_cmdline>
J2VwaWtfcHl0aG9uJywgJy1waCcsICc3LjAnLCAnLXRuJywgJzgnLCAnLW1hJywgJzIwMCcsICctbWV0YWxfYmluZGluZycsICctaW1hZScsICc8aW5maWxlLm1hZT4nLCAnLW9tYWUnLCAnPG91dGZpbGUubWFlPic=

> <r_epik_Ionization_Penalty>
1.23972

> <r_epik_Ionization_Penalty_Charging>
0.991409

> <r_epik_Ionization_Penalty_Neutral>
0.248308

> <r_epik_State_Penalty>
1.32283

> <r_epik_Charging_Adjusted_Penalty>
2.31424

> <i_epik_Tot_Q>
1

> <i_epik_Tot_abs_Q>
1

> <r_epik_Metal_State_Penalty>
1.42026

> <b_epik_Metal_Only>
0

> <s_lp_Force_Field>
OPLS_2005

> <r_lp_Energy>
53.8523

> <b_lp_Chiralities_Consistent>
1

> <s_lp_Variant>
AV-unprocessed.smi:769-3

> <Gold.Version>
5.8.1

> <Gold.Id.Protein>
6NUR|6NUR_protein|mol2

> <Gold.PLP.Fitness>
49.9038

> <Gold.PLP.PLP>
-36.0076

> <Gold.PLP.part.hbond>
-4.0000

> <Gold.PLP.part.metal>
0.0000

> <Gold.PLP.part.buried>
-5.5691

> <Gold.PLP.part.nonpolar>
-27.3244

> <Gold.PLP.part.repulsive>
0.1748

> <Gold.PLP.ligand.clash>
0.0000

> <Gold.PLP.ligand.torsion>
0.4421

> <Gold.PLP.Chemscore.Hbond>
4.7728

> <Gold.PLP.Chemscore.CHOScore>
0.0000

> <Gold.PLP.Chemscore.Metal>
0.0000

> <Gold.Chemscore.Hbonds>
donor molecule, donor type, donor heavy atom, donor atom, acceptor molecule, acceptor atom, score
      L1  H     3    25       P1  7948  0.87
      L1  H    18    45       P1  7948  1.00
      L1  H    22    50       P1 10186  2.00
      P1  H  7997  8008       L1    11  1.00

> <Gold.PLP.Chemscore.Internal.Correction>
0.4620

> <Gold.Rescore>
     Score         DG    S(hbond)    S(metal)    S(lipo)     H(rot)  DE(clash)    DE(int)     intcor
     19.25     -20.87       3.08        0.00      81.34       1.72       0.01       1.61       ----

> <Gold.Chemscore.Fitness>
19.2538

> <Gold.Chemscore.DG>
-20.8707

> <Gold.Chemscore.ZeroCoef>
-5.4800

> <Gold.Chemscore.Hbond>
3.0794

> <Gold.Chemscore.Metal>
0.0000

> <Gold.Chemscore.Lipo>
81.3446

> <Gold.Chemscore.Internal_Hbond>
0.0000

> <Gold.Chemscore.DEClash>
0.0118

> <Gold.Chemscore.DEInternal>
1.6052

> <Gold.Chemscore.Rot>
1.7233

> <Gold.Chemscore.Internal.Correction>
   9.000000E+99

> <Gold.Chemscore.Hbonds>
donor molecule, donor type, donor heavy atom, donor atom, acceptor molecule, acceptor atom, score
      L1  H     3    25       P1  7948  0.19
      L1  H    18    45       P1  7948  0.98
      L1  H    22    50       P1 10186  0.97
      P1  H  7997  8008       L1    11  0.93

> <Gold.Chemscore.Hbond.Weighted>
-10.2851

> <Gold.Chemscore.Metal.Weighted>
-0.0000

> <Gold.Chemscore.Lipo.Weighted>
-9.5173

> <Gold.Chemscore.Internal_Hbond.Weighted>
0.0000

> <Gold.Chemscore.DEClash.Weighted>
0.0118

> <Gold.Chemscore.DEInternal.Weighted>
1.6052

> <Gold.Chemscore.Rot.Weighted>
4.4116

> <Gold.Chemscore.Internal.Correction.Weighted>
   9.000000E+99

> <Gold.Protein.RotatedTorsions>
[ 6907 6896 6895 6894 ] final -115.15 input  -60.11 | X-H torsion
[ 7974 7965 7964 7962 ] final  111.30 input  175.53 | X-H torsion
[ 8008 7997 7996 7995 ] final  -26.26 input   59.86 | X-H torsion
[ 10167 10162 10161 10158 ] final  -87.94 input  -65.29 | X-H torsion
[ 10718 10713 10712 10709 ] final  -85.57 input   66.30 | X-H torsion
[ 10763 10752 10751 10750 ] final  126.38 input  -60.55 | X-H torsion
[ 11005 11000 10999 10996 ] final  -21.57 input  -57.11 | X-H torsion

> <Gold.Protein.ActiveResidues>
 VAL166  LYS551  ARG553  GLY616  TRP617  ASP618  TYR619  PRO620  LYS621  CYS622 
 ASP623  PHE694  ASN695  SER759  ASP760  ASP761  ALA762  ILE779  LEU786  VAL792 
 PHE793  MET794  SER795  GLU796  ALA797  LYS798  CYS799  TRP800  GLU811  SER814 

> <Gold.Protein.RotatedAtoms>
  150.7956  133.8699  159.3255 H   0  0  0  0  0  0  0  0  0  0  0  0  # atno 6907 bound_to 6896
  151.6525  135.0998  160.0173 H   0  0  0  0  0  0  0  0  0  0  0  0  # atno 6908 bound_to 6896
  152.4037  133.6817  159.6373 H   0  0  0  0  0  0  0  0  0  0  0  0  # atno 6909 bound_to 6896
  145.2440  139.2767  143.4102 H   0  0  0  0  0  0  0  0  0  0  0  0  # atno 7974 bound_to 7965
  154.4434  140.1904  156.0747 H   0  0  0  0  0  0  0  0  0  0  0  0  # atno 8008 bound_to 7997
  156.0484  140.3311  155.7296 H   0  0  0  0  0  0  0  0  0  0  0  0  # atno 8009 bound_to 7997
  155.5594  140.0602  157.2823 H   0  0  0  0  0  0  0  0  0  0  0  0  # atno 8010 bound_to 7997
  140.3795  143.2755  151.9401 H   0  0  0  0  0  0  0  0  0  0  0  0  # atno 10167 bound_to 10162
  155.9996  130.4735  150.4582 H   0  0  0  0  0  0  0  0  0  0  0  0  # atno 10718 bound_to 10713
  153.6924  135.3297  155.3205 H   0  0  0  0  0  0  0  0  0  0  0  0  # atno 10763 bound_to 10752
  154.8436  135.4434  154.1495 H   0  0  0  0  0  0  0  0  0  0  0  0  # atno 10764 bound_to 10752
  153.2540  135.6984  153.7726 H   0  0  0  0  0  0  0  0  0  0  0  0  # atno 10765 bound_to 10752
  140.8574  133.7813  156.0035 H   0  0  0  0  0  0  0  0  0  0  0  0  # atno 11005 bound_to 11000
  146.3321  140.2812  142.8610 LP  0  0  0  0  0  0  0  0  0  0  0  0  # atno 17320 bound_to 7965
  144.9563  140.8230  143.5541 LP  0  0  0  0  0  0  0  0  0  0  0  0  # atno 17321 bound_to 7965
  139.4796  144.5831  151.7898 LP  0  0  0  0  0  0  0  0  0  0  0  0  # atno 17342 bound_to 10162
  140.4951  144.1252  150.5958 LP  0  0  0  0  0  0  0  0  0  0  0  0  # atno 17343 bound_to 10162
  157.2608  131.0566  151.2321 LP  0  0  0  0  0  0  0  0  0  0  0  0  # atno 17370 bound_to 10713
  157.3436  130.7046  149.6397 LP  0  0  0  0  0  0  0  0  0  0  0  0  # atno 17371 bound_to 10713
  140.8722  134.2713  157.5185 LP  0  0  0  0  0  0  0  0  0  0  0  0  # atno 17394 bound_to 11000
  139.8706  134.9573  156.4263 LP  0  0  0  0  0  0  0  0  0  0  0  0  # atno 17395 bound_to 11000

$$$$
