AV-unprocessed.smi:3075|AV-procd|sdf|11724|dock2
  -GOLD-   2272017123D 1   1.00000     0.00000
 Structure written by MMmdl.
 29 30  0  0  0  0  0  0  0  0  1 V2000
  150.2807  142.1354  155.9342 N   0  0  0  0  0  0  0  0  0  0  0  0
  150.0434  141.6431  157.2771 C   0  0  0  0  0  0  0  0  0  0  0  0
  151.3312  141.3108  158.0164 C   0  0  0  0  0  0  0  0  0  0  0  0
  151.7628  142.1656  159.0528 C   0  0  0  0  0  0  0  0  0  0  0  0
  152.9634  141.8795  159.7270 C   0  0  0  0  0  0  0  0  0  0  0  0
  153.6922  140.7430  159.3334 C   0  0  0  0  0  0  0  0  0  0  0  0
  153.2929  139.9151  158.3462 N   0  0  0  0  0  0  0  0  0  0  0  0
  152.1340  140.1826  157.6945 C   0  0  0  0  0  0  0  0  0  0  0  0
  151.7341  139.2805  156.6911 N   0  0  0  0  0  0  0  0  0  0  0  0
  152.4777  139.3171  155.4356 C   0  0  0  0  0  0  0  0  0  0  0  0
  151.7881  138.4201  154.3936 C   0  0  0  0  0  0  0  0  0  0  0  0
  151.6649  137.0977  154.9103 O   0  0  0  0  0  0  0  0  0  0  0  0
  150.8784  137.0573  156.0977 C   0  0  0  0  0  0  0  0  0  0  0  0
  151.5356  137.9239  157.1858 C   0  0  0  0  0  0  0  0  0  0  0  0
  149.7225  141.6045  155.2809 H   0  0  0  0  0  0  0  0  0  0  0  0
  149.9543  143.0887  155.8664 H   0  0  0  0  0  0  0  0  0  0  0  0
  149.4431  142.3687  157.8254 H   0  0  0  0  0  0  0  0  0  0  0  0
  149.4395  140.7378  157.2086 H   0  0  0  0  0  0  0  0  0  0  0  0
  151.1810  143.0337  159.3265 H   0  0  0  0  0  0  0  0  0  0  0  0
  153.3177  142.5166  160.5236 H   0  0  0  0  0  0  0  0  0  0  0  0
  154.6198  140.4903  159.8255 H   0  0  0  0  0  0  0  0  0  0  0  0
  152.5358  140.3427  155.0690 H   0  0  0  0  0  0  0  0  0  0  0  0
  153.4992  138.9701  155.5986 H   0  0  0  0  0  0  0  0  0  0  0  0
  150.8043  138.8130  154.1315 H   0  0  0  0  0  0  0  0  0  0  0  0
  152.3750  138.3901  153.4755 H   0  0  0  0  0  0  0  0  0  0  0  0
  149.8647  137.4022  155.8867 H   0  0  0  0  0  0  0  0  0  0  0  0
  150.7994  136.0243  156.4371 H   0  0  0  0  0  0  0  0  0  0  0  0
  152.5012  137.5015  157.4673 H   0  0  0  0  0  0  0  0  0  0  0  0
  150.9165  137.9271  158.0824 H   0  0  0  0  0  0  0  0  0  0  0  0
  1  2  1  0  0  0  0
  1 15  1  0  0  0  0
  1 16  1  0  0  0  0
  2  3  1  0  0  0  0
  2 17  1  0  0  0  0
  2 18  1  0  0  0  0
  3  8  1  0  0  0  0
  3  4  2  0  0  0  0
  4  5  1  0  0  0  0
  4 19  1  0  0  0  0
  5  6  2  0  0  0  0
  5 20  1  0  0  0  0
  6  7  1  0  0  0  0
  6 21  1  0  0  0  0
  7  8  2  0  0  0  0
  8  9  1  0  0  0  0
  9 14  1  0  0  0  0
  9 10  1  0  0  0  0
 10 11  1  0  0  0  0
 10 22  1  0  0  0  0
 10 23  1  0  0  0  0
 11 12  1  0  0  0  0
 11 24  1  0  0  0  0
 11 25  1  0  0  0  0
 12 13  1  0  0  0  0
 13 14  1  0  0  0  0
 13 26  1  0  0  0  0
 13 27  1  0  0  0  0
 14 28  1  0  0  0  0
 14 29  1  0  0  0  0
M  END
> <s_m_source_file>
AV-unprocessed.smi

> <i_m_source_file_index>
3075

> <i_lp_mmshare_version>
43012

> <i_f3d_flags>
0

> <s_epik_input>
W05IMl1bQ0gyXWMxW2NIXVtjSF1bY0hdbmMxTjJbQ0gyXVtDSDJdT1tDSDJdW0NIMl0y

> <s_epik_cmdline>
J2VwaWtfcHl0aG9uJywgJy1waCcsICc3LjAnLCAnLXRuJywgJzgnLCAnLW1hJywgJzIwMCcsICctbWV0YWxfYmluZGluZycsICctaW1hZScsICc8aW5maWxlLm1hZT4nLCAnLW9tYWUnLCAnPG91dGZpbGUubWFlPic=

> <r_lp_tautomer_probability>
1

> <r_epik_Ionization_Penalty>
1.38161

> <r_epik_Ionization_Penalty_Charging>
0

> <r_epik_Ionization_Penalty_Neutral>
1.38161

> <r_epik_State_Penalty>
1.45585

> <r_epik_Charging_Adjusted_Penalty>
1.45585

> <i_epik_Tot_Q>
0

> <i_epik_Tot_abs_Q>
0

> <r_epik_Metal_State_Penalty>
1.45048

> <b_epik_Metal_Only>
0

> <s_lp_Force_Field>
OPLS_2005

> <r_lp_Energy>
18.9945

> <b_lp_Chiralities_Consistent>
1

> <s_lp_Variant>
AV-unprocessed.smi:3075-2

> <Gold.Version>
5.8.1

> <Gold.Id.Protein>
6NUR|6NUR_protein|mol2

> <Gold.PLP.Fitness>
32.8362

> <Gold.PLP.PLP>
-24.2258

> <Gold.PLP.part.hbond>
-3.0000

> <Gold.PLP.part.metal>
0.0000

> <Gold.PLP.part.buried>
-2.8645

> <Gold.PLP.part.nonpolar>
-17.0203

> <Gold.PLP.part.repulsive>
0.1163

> <Gold.PLP.ligand.clash>
0.0000

> <Gold.PLP.ligand.torsion>
0.2835

> <Gold.PLP.Chemscore.Hbond>
3.0000

> <Gold.PLP.Chemscore.CHOScore>
0.0000

> <Gold.PLP.Chemscore.Metal>
0.0000

> <Gold.Chemscore.Hbonds>
donor molecule, donor type, donor heavy atom, donor atom, acceptor molecule, acceptor atom, score
      L1  H     1    16       P1  8028  1.00
      P1  H  7997  8010       L1     7  1.00
      P1  H 10752 10764       L1    12  1.00

> <Gold.PLP.Chemscore.Internal.Correction>
0.1774

> <Gold.Rescore>
     Score         DG    S(hbond)    S(metal)    S(lipo)     H(rot)  DE(clash)    DE(int)     intcor
     17.40     -17.73       2.40        0.00      64.34       1.29       0.03       0.29       ----

> <Gold.Chemscore.Fitness>
17.4003

> <Gold.Chemscore.DG>
-17.7263

> <Gold.Chemscore.ZeroCoef>
-5.4800

> <Gold.Chemscore.Hbond>
2.3996

> <Gold.Chemscore.Metal>
0.0000

> <Gold.Chemscore.Lipo>
64.3384

> <Gold.Chemscore.Internal_Hbond>
0.0000

> <Gold.Chemscore.DEClash>
0.0341

> <Gold.Chemscore.DEInternal>
0.2920

> <Gold.Chemscore.Rot>
1.2875

> <Gold.Chemscore.Internal.Correction>
   9.000000E+99

> <Gold.Chemscore.Hbonds>
donor molecule, donor type, donor heavy atom, donor atom, acceptor molecule, acceptor atom, score
      L1  H     1    16       P1  8028  0.99
      P1  H  7997  8010       L1     7  0.20
      P1  H 10752 10764       L1    12  0.92

> <Gold.Chemscore.Hbond.Weighted>
-8.0148

> <Gold.Chemscore.Metal.Weighted>
-0.0000

> <Gold.Chemscore.Lipo.Weighted>
-7.5276

> <Gold.Chemscore.Internal_Hbond.Weighted>
0.0000

> <Gold.Chemscore.DEClash.Weighted>
0.0341

> <Gold.Chemscore.DEInternal.Weighted>
0.2920

> <Gold.Chemscore.Rot.Weighted>
3.2961

> <Gold.Chemscore.Internal.Correction.Weighted>
   9.000000E+99

> <Gold.Protein.RotatedTorsions>
[ 6907 6896 6895 6894 ] final -118.60 input  -60.11 | X-H torsion
[ 7974 7965 7964 7962 ] final  112.92 input  175.53 | X-H torsion
[ 8008 7997 7996 7995 ] final   39.42 input   59.86 | X-H torsion
[ 10167 10162 10161 10158 ] final   66.08 input  -65.29 | X-H torsion
[ 10718 10713 10712 10709 ] final  179.16 input   66.30 | X-H torsion
[ 10763 10752 10751 10750 ] final  -62.69 input  -60.55 | X-H torsion
[ 11005 11000 10999 10996 ] final  120.15 input  -57.11 | X-H torsion

> <Gold.Protein.ActiveResidues>
 VAL166  LYS551  ARG553  GLY616  TRP617  ASP618  TYR619  PRO620  LYS621  CYS622 
 ASP623  PHE694  ASN695  SER759  ASP760  ASP761  ALA762  ILE779  LEU786  VAL792 
 PHE793  MET794  SER795  GLU796  ALA797  LYS798  CYS799  TRP800  GLU811  SER814 

> <Gold.Protein.RotatedAtoms>
  150.8234  133.8214  159.3129 H   0  0  0  0  0  0  0  0  0  0  0  0  # atno 6907 bound_to 6896
  151.5966  135.1048  160.0060 H   0  0  0  0  0  0  0  0  0  0  0  0  # atno 6908 bound_to 6896
  152.4321  133.7255  159.6614 H   0  0  0  0  0  0  0  0  0  0  0  0  # atno 6909 bound_to 6896
  145.2235  139.2851  143.4206 H   0  0  0  0  0  0  0  0  0  0  0  0  # atno 7974 bound_to 7965
  155.2363  140.3342  155.4297 H   0  0  0  0  0  0  0  0  0  0  0  0  # atno 8008 bound_to 7997
  156.2274  140.1835  156.7374 H   0  0  0  0  0  0  0  0  0  0  0  0  # atno 8009 bound_to 7997
  154.5921  140.0636  156.9239 H   0  0  0  0  0  0  0  0  0  0  0  0  # atno 8010 bound_to 7997
  140.1043  144.4875  150.7017 H   0  0  0  0  0  0  0  0  0  0  0  0  # atno 10167 bound_to 10162
  156.8798  130.9812  151.3063 H   0  0  0  0  0  0  0  0  0  0  0  0  # atno 10718 bound_to 10713
  154.3038  135.6229  153.5436 H   0  0  0  0  0  0  0  0  0  0  0  0  # atno 10763 bound_to 10752
  152.9837  135.5685  154.5254 H   0  0  0  0  0  0  0  0  0  0  0  0  # atno 10764 bound_to 10752
  154.4890  135.2866  155.1488 H   0  0  0  0  0  0  0  0  0  0  0  0  # atno 10765 bound_to 10752
  139.9174  134.9633  156.7764 H   0  0  0  0  0  0  0  0  0  0  0  0  # atno 11005 bound_to 11000
  146.3370  140.2548  142.8600 LP  0  0  0  0  0  0  0  0  0  0  0  0  # atno 17320 bound_to 7965
  144.9743  140.8399  143.5436 LP  0  0  0  0  0  0  0  0  0  0  0  0  # atno 17321 bound_to 7965
  140.6960  143.2404  151.4998 LP  0  0  0  0  0  0  0  0  0  0  0  0  # atno 17342 bound_to 10162
  139.5654  144.2056  152.1756 LP  0  0  0  0  0  0  0  0  0  0  0  0  # atno 17343 bound_to 10162
  157.6147  130.8609  149.9008 LP  0  0  0  0  0  0  0  0  0  0  0  0  # atno 17370 bound_to 10713
  156.0683  130.3689  150.0831 LP  0  0  0  0  0  0  0  0  0  0  0  0  # atno 17371 bound_to 10713
  140.6579  133.9671  155.7789 LP  0  0  0  0  0  0  0  0  0  0  0  0  # atno 17394 bound_to 11000
  141.0663  134.0271  157.3589 LP  0  0  0  0  0  0  0  0  0  0  0  0  # atno 17395 bound_to 11000

$$$$
