AV-unprocessed.smi:859|AV-procd|sdf|3963|dock8
  -GOLD-   22720 1433D 1   1.00000     0.00000
 Structure written by MMmdl.
 36 37  0  0  0  0  0  0  0  0  2 V2000
  152.5095  140.1707  157.1289 O   0  0  0  0  0  0  0  0  0  0  0  0
  151.5713  140.9680  157.1579 C   0  0  0  0  0  0  0  0  0  0  0  0
  150.6283  141.0291  156.2041 N   0  0  0  0  0  0  0  0  0  0  0  0
  150.5884  140.2027  155.0010 C   0  0  0  0  0  0  0  0  0  0  0  0
  149.2615  139.4309  154.8715 C   0  0  0  0  0  0  0  0  0  0  0  0
  148.1626  140.2683  154.3794 N   0  0  0  0  0  0  0  0  0  0  0  0
  148.0767  141.6362  154.4254 C   0  0  0  0  0  0  0  0  0  0  0  0
  146.8690  141.9705  153.8690 C   0  0  0  0  0  0  0  0  0  0  0  0
  146.2715  140.7943  153.5028 N   0  3  0  0  0  0  0  0  0  0  0  0
  147.0617  139.7607  153.8094 C   0  0  0  0  0  0  0  0  0  0  0  0
  151.4508  141.9783  158.3054 C   0  0  0  0  0  0  0  0  0  0  0  0
  151.3974  143.4218  157.7604 C   0  0  0  0  0  0  0  0  0  0  0  0
  151.2793  144.4448  158.9018 C   0  0  0  0  0  0  0  0  0  0  0  0
  152.4264  144.2863  159.9125 C   0  0  0  0  0  0  0  0  0  0  0  0
  152.5007  142.8486  160.4512 C   0  0  0  0  0  0  0  0  0  0  0  0
  152.6159  141.8285  159.3064 C   0  0  0  0  0  0  0  0  0  0  0  0
  149.8905  141.7104  156.3129 H   0  0  0  0  0  0  0  0  0  0  0  0
  150.7779  140.7996  154.1072 H   0  0  0  0  0  0  0  0  0  0  0  0
  151.4103  139.4898  155.0677 H   0  0  0  0  0  0  0  0  0  0  0  0
  149.3778  138.6050  154.1691 H   0  0  0  0  0  0  0  0  0  0  0  0
  148.9706  138.9938  155.8280 H   0  0  0  0  0  0  0  0  0  0  0  0
  148.8569  142.2529  154.8478 H   0  0  0  0  0  0  0  0  0  0  0  0
  146.4008  142.9316  153.7124 H   0  0  0  0  0  0  0  0  0  0  0  0
  146.8454  138.7205  153.6421 H   0  0  0  0  0  0  0  0  0  0  0  0
  150.5187  141.7818  158.8388 H   0  0  0  0  0  0  0  0  0  0  0  0
  152.2948  143.6375  157.1779 H   0  0  0  0  0  0  0  0  0  0  0  0
  150.5530  143.5365  157.0792 H   0  0  0  0  0  0  0  0  0  0  0  0
  151.2794  145.4569  158.4959 H   0  0  0  0  0  0  0  0  0  0  0  0
  150.3232  144.3157  159.4104 H   0  0  0  0  0  0  0  0  0  0  0  0
  153.3722  144.5461  159.4350 H   0  0  0  0  0  0  0  0  0  0  0  0
  152.2941  144.9863  160.7378 H   0  0  0  0  0  0  0  0  0  0  0  0
  153.3517  142.7480  161.1256 H   0  0  0  0  0  0  0  0  0  0  0  0
  151.6107  142.6336  161.0438 H   0  0  0  0  0  0  0  0  0  0  0  0
  152.6307  140.8189  159.7192 H   0  0  0  0  0  0  0  0  0  0  0  0
  153.5712  141.9676  158.7976 H   0  0  0  0  0  0  0  0  0  0  0  0
  145.3614  140.7154  153.0668 H   0  0  0  0  0  0  0  0  0  0  0  0
  1  2  2  0  0  0  0
  2  3  1  0  0  0  0
  2 11  1  0  0  0  0
  3  4  1  0  0  0  0
  3 17  1  0  0  0  0
  4  5  1  0  0  0  0
  4 18  1  0  0  0  0
  4 19  1  0  0  0  0
  5  6  1  0  0  0  0
  5 20  1  0  0  0  0
  5 21  1  0  0  0  0
  6 10  1  0  0  0  0
  6  7  1  0  0  0  0
  7  8  2  0  0  0  0
  7 22  1  0  0  0  0
  8  9  1  0  0  0  0
  8 23  1  0  0  0  0
  9 10  2  0  0  0  0
  9 36  1  0  0  0  0
 10 24  1  0  0  0  0
 11 16  1  0  0  0  0
 11 12  1  0  0  0  0
 11 25  1  0  0  0  0
 12 13  1  0  0  0  0
 12 26  1  0  0  0  0
 12 27  1  0  0  0  0
 13 14  1  0  0  0  0
 13 28  1  0  0  0  0
 13 29  1  0  0  0  0
 14 15  1  0  0  0  0
 14 30  1  0  0  0  0
 14 31  1  0  0  0  0
 15 16  1  0  0  0  0
 15 32  1  0  0  0  0
 15 33  1  0  0  0  0
 16 34  1  0  0  0  0
 16 35  1  0  0  0  0
M  CHG  1   9   1
M  END
> <s_m_source_file>
AV-unprocessed.smi

> <i_m_source_file_index>
859

> <i_lp_mmshare_version>
43012

> <i_f3d_flags>
0

> <s_epik_input>
W0NIMl0xW0NIMl1bQ0gyXVtDSDJdW0NIMl1bQ0hdMUMoPU8pW05IXVtDSDJdW0NIMl1uMltjSF1bY0hdbltjSF0y

> <s_epik_cmdline>
J2VwaWtfcHl0aG9uJywgJy1waCcsICc3LjAnLCAnLXRuJywgJzgnLCAnLW1hJywgJzIwMCcsICctbWV0YWxfYmluZGluZycsICctaW1hZScsICc8aW5maWxlLm1hZT4nLCAnLW9tYWUnLCAnPG91dGZpbGUubWFlPic=

> <r_lp_tautomer_probability>
1

> <r_epik_Ionization_Penalty>
0.267085

> <r_epik_Ionization_Penalty_Charging>
0

> <r_epik_Ionization_Penalty_Neutral>
0.267085

> <r_epik_State_Penalty>
0.259064

> <r_epik_Charging_Adjusted_Penalty>
0.259064

> <i_epik_Tot_Q>
1

> <i_epik_Tot_abs_Q>
1

> <r_epik_Metal_State_Penalty>
0.54496

> <b_epik_Metal_Only>
0

> <s_lp_Force_Field>
OPLS_2005

> <r_lp_Energy>
13.141

> <b_lp_Chiralities_Consistent>
1

> <s_lp_Variant>
AV-unprocessed.smi:859-1

> <Gold.Version>
5.8.1

> <Gold.Id.Protein>
6NUR|6NUR_protein|mol2

> <Gold.PLP.Fitness>
48.1142

> <Gold.PLP.PLP>
-36.9271

> <Gold.PLP.part.hbond>
-2.0000

> <Gold.PLP.part.metal>
0.0000

> <Gold.PLP.part.buried>
-2.8750

> <Gold.PLP.part.nonpolar>
-31.5993

> <Gold.PLP.part.repulsive>
0.1150

> <Gold.PLP.ligand.clash>
0.0000

> <Gold.PLP.ligand.torsion>
0.4080

> <Gold.PLP.Chemscore.Hbond>
3.0000

> <Gold.PLP.Chemscore.CHOScore>
0.9935

> <Gold.PLP.Chemscore.Metal>
0.0000

> <Gold.Chemscore.Hbonds>
donor molecule, donor type, donor heavy atom, donor atom, acceptor molecule, acceptor atom, score
      L1  H     9    36       P1 10175  2.00
      P1  H  7997  8008       L1     1  1.00
      L1  C     7    22       P1  8028  0.87

> <Gold.PLP.Chemscore.Internal.Correction>
0.0227

> <Gold.Rescore>
     Score         DG    S(hbond)    S(metal)    S(lipo)     H(rot)  DE(clash)    DE(int)     intcor
     17.70     -17.97       1.88        0.00      93.55       1.86       0.04       0.23       ----

> <Gold.Chemscore.Fitness>
17.6986

> <Gold.Chemscore.DG>
-17.9650

> <Gold.Chemscore.ZeroCoef>
-5.4800

> <Gold.Chemscore.Hbond>
1.8841

> <Gold.Chemscore.Metal>
0.0000

> <Gold.Chemscore.Lipo>
93.5485

> <Gold.Chemscore.Internal_Hbond>
0.0000

> <Gold.Chemscore.DEClash>
0.0368

> <Gold.Chemscore.DEInternal>
0.2296

> <Gold.Chemscore.Rot>
1.8567

> <Gold.Chemscore.Internal.Correction>
   9.000000E+99

> <Gold.Chemscore.Hbonds>
donor molecule, donor type, donor heavy atom, donor atom, acceptor molecule, acceptor atom, score
      L1  H     9    36       P1 10175  0.70
      P1  H  7997  8008       L1     1  0.94

> <Gold.Chemscore.Hbond.Weighted>
-6.2930

> <Gold.Chemscore.Metal.Weighted>
-0.0000

> <Gold.Chemscore.Lipo.Weighted>
-10.9452

> <Gold.Chemscore.Internal_Hbond.Weighted>
0.0000

> <Gold.Chemscore.DEClash.Weighted>
0.0368

> <Gold.Chemscore.DEInternal.Weighted>
0.2296

> <Gold.Chemscore.Rot.Weighted>
4.7531

> <Gold.Chemscore.Internal.Correction.Weighted>
   9.000000E+99

> <Gold.Protein.RotatedTorsions>
[ 6907 6896 6895 6894 ] final  121.47 input  -60.11 | X-H torsion
[ 7974 7965 7964 7962 ] final   54.05 input  175.53 | X-H torsion
[ 8008 7997 7996 7995 ] final  -67.71 input   59.86 | X-H torsion
[ 10167 10162 10161 10158 ] final   66.33 input  -65.29 | X-H torsion
[ 10718 10713 10712 10709 ] final   63.17 input   66.30 | X-H torsion
[ 10763 10752 10751 10750 ] final    8.04 input  -60.55 | X-H torsion
[ 11005 11000 10999 10996 ] final  101.22 input  -57.11 | X-H torsion

> <Gold.Protein.ActiveResidues>
 VAL166  LYS551  ARG553  GLY616  TRP617  ASP618  TYR619  PRO620  LYS621  CYS622 
 ASP623  PHE694  ASN695  SER759  ASP760  ASP761  ALA762  ILE779  LEU786  VAL792 
 PHE793  MET794  SER795  GLU796  ALA797  LYS798  CYS799  TRP800  GLU811  SER814 

> <Gold.Protein.RotatedAtoms>
  152.4319  133.7293  159.6577 H   0  0  0  0  0  0  0  0  0  0  0  0  # atno 6907 bound_to 6896
  150.8199  133.8260  159.3149 H   0  0  0  0  0  0  0  0  0  0  0  0  # atno 6908 bound_to 6896
  151.5945  135.1053  160.0098 H   0  0  0  0  0  0  0  0  0  0  0  0  # atno 6909 bound_to 6896
  145.9649  139.4093  143.0226 H   0  0  0  0  0  0  0  0  0  0  0  0  # atno 7974 bound_to 7965
  154.4818  140.0887  156.7396 H   0  0  0  0  0  0  0  0  0  0  0  0  # atno 8008 bound_to 7997
  155.4450  140.3455  155.4276 H   0  0  0  0  0  0  0  0  0  0  0  0  # atno 8009 bound_to 7997
  156.1203  140.1472  156.9202 H   0  0  0  0  0  0  0  0  0  0  0  0  # atno 8010 bound_to 7997
  140.1016  144.4899  150.7034 H   0  0  0  0  0  0  0  0  0  0  0  0  # atno 10167 bound_to 10162
  157.5952  130.9090  149.9681 H   0  0  0  0  0  0  0  0  0  0  0  0  # atno 10718 bound_to 10713
  153.2295  135.6891  153.7906 H   0  0  0  0  0  0  0  0  0  0  0  0  # atno 10763 bound_to 10752
  153.7076  135.3287  155.3240 H   0  0  0  0  0  0  0  0  0  0  0  0  # atno 10764 bound_to 10752
  154.8307  135.4582  154.1175 H   0  0  0  0  0  0  0  0  0  0  0  0  # atno 10765 bound_to 10752
  139.8773  134.9174  156.4874 H   0  0  0  0  0  0  0  0  0  0  0  0  # atno 11005 bound_to 11000
  145.7988  140.9780  143.1009 LP  0  0  0  0  0  0  0  0  0  0  0  0  # atno 17320 bound_to 7965
  144.6823  139.9776  143.7483 LP  0  0  0  0  0  0  0  0  0  0  0  0  # atno 17321 bound_to 7965
  140.6975  143.2413  151.4960 LP  0  0  0  0  0  0  0  0  0  0  0  0  # atno 17342 bound_to 10162
  139.5668  144.2023  152.1777 LP  0  0  0  0  0  0  0  0  0  0  0  0  # atno 17343 bound_to 10162
  156.1014  130.3655  150.0212 LP  0  0  0  0  0  0  0  0  0  0  0  0  # atno 17370 bound_to 10713
  156.8327  130.9398  151.3636 LP  0  0  0  0  0  0  0  0  0  0  0  0  # atno 17371 bound_to 10713
  140.8683  133.8008  155.9337 LP  0  0  0  0  0  0  0  0  0  0  0  0  # atno 17394 bound_to 11000
  140.8979  134.2415  157.5058 LP  0  0  0  0  0  0  0  0  0  0  0  0  # atno 17395 bound_to 11000

$$$$
