AV-unprocessed.smi:1333|AV-procd|sdf|5490|dock3
  -GOLD-   22720 5 63D 1   1.00000     0.00000
 Structure written by MMmdl.
 33 34  0  0  0  0  0  0  0  0  1 V2000
  150.2531  140.0871  154.6435 O   0  0  0  0  0  0  0  0  0  0  0  0
  149.5180  141.0648  154.8078 C   0  0  0  0  0  0  0  0  0  0  0  0
  148.2464  141.2258  153.9636 C   0  0  0  0  0  0  0  0  0  0  0  0
  147.3263  140.1090  154.0992 N   0  0  0  0  0  0  0  0  0  0  0  0
  147.4534  138.8441  153.5388 C   0  0  0  0  0  0  0  0  0  0  0  0
  146.3469  138.1264  153.9331 C   0  0  0  0  0  0  0  0  0  0  0  0
  145.5309  138.9239  154.7322 N   0  0  0  0  0  0  0  0  0  0  0  0
  146.1744  140.0830  154.7846 C   0  0  0  0  0  0  0  0  0  0  0  0
  149.7250  142.0617  155.6989 N   0  0  0  0  0  0  0  0  0  0  0  0
  150.7188  142.2621  156.5972 C   0  0  0  0  0  0  0  0  0  0  0  0
  151.5159  141.3625  156.8586 O   0  0  0  0  0  0  0  0  0  0  0  0
  150.7853  143.4737  157.1806 N   0  0  0  0  0  0  0  0  0  0  0  0
  151.9402  144.0091  157.8960 C   0  0  0  0  0  0  0  0  0  0  0  0
  152.5215  142.9780  158.8844 C   0  0  0  0  0  0  0  0  0  0  0  0
  152.1448  143.4750  160.2802 C   0  0  0  0  0  0  0  0  0  0  0  0
  152.1145  144.9932  160.1386 C   0  0  0  0  0  0  0  0  0  0  0  0
  151.5370  145.2324  158.7421 C   0  0  0  0  0  0  0  0  0  0  0  0
  147.7288  142.1409  154.2549 H   0  0  0  0  0  0  0  0  0  0  0  0
  148.5190  141.3290  152.9124 H   0  0  0  0  0  0  0  0  0  0  0  0
  148.2950  138.5683  152.9205 H   0  0  0  0  0  0  0  0  0  0  0  0
  146.0770  137.1062  153.7038 H   0  0  0  0  0  0  0  0  0  0  0  0
  145.7979  140.9341  155.3331 H   0  0  0  0  0  0  0  0  0  0  0  0
  149.0183  142.7827  155.6955 H   0  0  0  0  0  0  0  0  0  0  0  0
  149.9709  144.0688  157.1226 H   0  0  0  0  0  0  0  0  0  0  0  0
  152.7090  144.3007  157.1780 H   0  0  0  0  0  0  0  0  0  0  0  0
  152.1755  141.9586  158.7078 H   0  0  0  0  0  0  0  0  0  0  0  0
  153.6080  142.9659  158.7891 H   0  0  0  0  0  0  0  0  0  0  0  0
  151.1515  143.1103  160.5451 H   0  0  0  0  0  0  0  0  0  0  0  0
  152.8412  143.1373  161.0483 H   0  0  0  0  0  0  0  0  0  0  0  0
  151.5318  145.4773  160.9229 H   0  0  0  0  0  0  0  0  0  0  0  0
  153.1311  145.3855  160.1886 H   0  0  0  0  0  0  0  0  0  0  0  0
  151.8945  146.1678  158.3097 H   0  0  0  0  0  0  0  0  0  0  0  0
  150.4507  145.3081  158.8166 H   0  0  0  0  0  0  0  0  0  0  0  0
  1  2  2  0  0  0  0
  2  3  1  0  0  0  0
  2  9  1  0  0  0  0
  3  4  1  0  0  0  0
  3 18  1  0  0  0  0
  3 19  1  0  0  0  0
  4  8  1  0  0  0  0
  4  5  1  0  0  0  0
  5  6  2  0  0  0  0
  5 20  1  0  0  0  0
  6  7  1  0  0  0  0
  6 21  1  0  0  0  0
  7  8  2  0  0  0  0
  8 22  1  0  0  0  0
  9 10  1  0  0  0  0
  9 23  1  0  0  0  0
 10 11  2  0  0  0  0
 10 12  1  0  0  0  0
 12 13  1  0  0  0  0
 12 24  1  0  0  0  0
 13 17  1  0  0  0  0
 13 14  1  0  0  0  0
 13 25  1  0  0  0  0
 14 15  1  0  0  0  0
 14 26  1  0  0  0  0
 14 27  1  0  0  0  0
 15 16  1  0  0  0  0
 15 28  1  0  0  0  0
 15 29  1  0  0  0  0
 16 17  1  0  0  0  0
 16 30  1  0  0  0  0
 16 31  1  0  0  0  0
 17 32  1  0  0  0  0
 17 33  1  0  0  0  0
M  END
> <s_m_source_file>
AV-unprocessed.smi

> <i_m_source_file_index>
1333

> <i_lp_mmshare_version>
43012

> <i_f3d_flags>
0

> <s_epik_input>
W2NIXTFuW2NIXVtjSF1uMVtDSDJdQyg9TylbTkhdQyg9TylbTkhdW0NIXTJbQ0gyXVtDSDJdW0NIMl1bQ0gyXTI=

> <s_epik_cmdline>
J2VwaWtfcHl0aG9uJywgJy1waCcsICc3LjAnLCAnLXRuJywgJzgnLCAnLW1hJywgJzIwMCcsICctbWV0YWxfYmluZGluZycsICctaW1hZScsICc8aW5maWxlLm1hZT4nLCAnLW9tYWUnLCAnPG91dGZpbGUubWFlPic=

> <r_lp_tautomer_probability>
1

> <r_epik_Ionization_Penalty>
0.171964

> <r_epik_Ionization_Penalty_Charging>
0.171937

> <r_epik_Ionization_Penalty_Neutral>
2.73302e-05

> <r_epik_State_Penalty>
0.161333

> <r_epik_Charging_Adjusted_Penalty>
0.33327

> <i_epik_Tot_Q>
0

> <i_epik_Tot_abs_Q>
0

> <r_epik_Metal_State_Penalty>
0.124658

> <b_epik_Metal_Only>
0

> <s_lp_Force_Field>
OPLS_2005

> <r_lp_Energy>
24.334

> <b_lp_Chiralities_Consistent>
1

> <s_lp_Variant>
AV-unprocessed.smi:1333-1

> <Gold.Version>
5.8.1

> <Gold.Id.Protein>
6NUR|6NUR_protein|mol2

> <Gold.PLP.Fitness>
48.3498

> <Gold.PLP.PLP>
-36.3067

> <Gold.PLP.part.hbond>
-3.0000

> <Gold.PLP.part.metal>
0.0000

> <Gold.PLP.part.buried>
-3.6496

> <Gold.PLP.part.nonpolar>
-30.4236

> <Gold.PLP.part.repulsive>
0.3642

> <Gold.PLP.ligand.clash>
0.0000

> <Gold.PLP.ligand.torsion>
0.4594

> <Gold.PLP.Chemscore.Hbond>
2.5360

> <Gold.PLP.Chemscore.CHOScore>
1.7698

> <Gold.PLP.Chemscore.Metal>
0.0000

> <Gold.Chemscore.Hbonds>
donor molecule, donor type, donor heavy atom, donor atom, acceptor molecule, acceptor atom, score
      L1  H     9    23       P1  8028  0.80
      L1  H    12    24       P1  8028  0.70
      P1  H  7989  7998       L1     1  1.00
      L1  C     5    20       P1  7948  0.76
      L1  C     5    20       P1  7957  0.74

> <Gold.PLP.Chemscore.Internal.Correction>
0.0444

> <Gold.Rescore>
     Score         DG    S(hbond)    S(metal)    S(lipo)     H(rot)  DE(clash)    DE(int)     intcor
     13.59     -16.54       1.81        0.00      80.56       1.73       0.18       2.77       ----

> <Gold.Chemscore.Fitness>
13.5859

> <Gold.Chemscore.DG>
-16.5400

> <Gold.Chemscore.ZeroCoef>
-5.4800

> <Gold.Chemscore.Hbond>
1.8125

> <Gold.Chemscore.Metal>
0.0000

> <Gold.Chemscore.Lipo>
80.5594

> <Gold.Chemscore.Internal_Hbond>
0.0000

> <Gold.Chemscore.DEClash>
0.1800

> <Gold.Chemscore.DEInternal>
2.7741

> <Gold.Chemscore.Rot>
1.7263

> <Gold.Chemscore.Internal.Correction>
   9.000000E+99

> <Gold.Chemscore.Hbonds>
donor molecule, donor type, donor heavy atom, donor atom, acceptor molecule, acceptor atom, score
      L1  H     9    23       P1  8028  0.79
      L1  H    12    24       P1  8028  0.57
      P1  H  7989  7998       L1     1  0.25

> <Gold.Chemscore.Hbond.Weighted>
-6.0539

> <Gold.Chemscore.Metal.Weighted>
-0.0000

> <Gold.Chemscore.Lipo.Weighted>
-9.4254

> <Gold.Chemscore.Internal_Hbond.Weighted>
0.0000

> <Gold.Chemscore.DEClash.Weighted>
0.1800

> <Gold.Chemscore.DEInternal.Weighted>
2.7741

> <Gold.Chemscore.Rot.Weighted>
4.4193

> <Gold.Chemscore.Internal.Correction.Weighted>
   9.000000E+99

> <Gold.Protein.RotatedTorsions>
[ 6907 6896 6895 6894 ] final  129.66 input  -60.11 | X-H torsion
[ 7974 7965 7964 7962 ] final -152.71 input  175.53 | X-H torsion
[ 8008 7997 7996 7995 ] final -153.88 input   59.86 | X-H torsion
[ 10167 10162 10161 10158 ] final   34.15 input  -65.29 | X-H torsion
[ 10718 10713 10712 10709 ] final   55.49 input   66.30 | X-H torsion
[ 10763 10752 10751 10750 ] final    5.89 input  -60.55 | X-H torsion
[ 11005 11000 10999 10996 ] final    7.39 input  -57.11 | X-H torsion

> <Gold.Protein.ActiveResidues>
 VAL166  LYS551  ARG553  GLY616  TRP617  ASP618  TYR619  PRO620  LYS621  CYS622 
 ASP623  PHE694  ASN695  SER759  ASP760  ASP761  ALA762  ILE779  LEU786  VAL792 
 PHE793  MET794  SER795  GLU796  ALA797  LYS798  CYS799  TRP800  GLU811  SER814 

> <Gold.Protein.RotatedAtoms>
  152.3602  133.6287  159.6009 H   0  0  0  0  0  0  0  0  0  0  0  0  # atno 6907 bound_to 6896
  150.7596  133.9435  159.3472 H   0  0  0  0  0  0  0  0  0  0  0  0  # atno 6908 bound_to 6896
  151.7275  135.0883  160.0345 H   0  0  0  0  0  0  0  0  0  0  0  0  # atno 6909 bound_to 6896
  144.7779  140.4624  143.5860 H   0  0  0  0  0  0  0  0  0  0  0  0  # atno 7974 bound_to 7965
  155.6777  140.0740  157.2496 H   0  0  0  0  0  0  0  0  0  0  0  0  # atno 8008 bound_to 7997
  154.4111  140.1687  156.2000 H   0  0  0  0  0  0  0  0  0  0  0  0  # atno 8009 bound_to 7997
  155.9562  140.3373  155.6454 H   0  0  0  0  0  0  0  0  0  0  0  0  # atno 8010 bound_to 7997
  140.4341  144.1282  150.6164 H   0  0  0  0  0  0  0  0  0  0  0  0  # atno 10167 bound_to 10162
  157.5349  130.8656  149.8740 H   0  0  0  0  0  0  0  0  0  0  0  0  # atno 10718 bound_to 10713
  153.2541  135.6916  153.7647 H   0  0  0  0  0  0  0  0  0  0  0  0  # atno 10763 bound_to 10752
  153.6731  135.3341  155.3159 H   0  0  0  0  0  0  0  0  0  0  0  0  # atno 10764 bound_to 10752
  154.8406  135.4504  154.1509 H   0  0  0  0  0  0  0  0  0  0  0  0  # atno 10765 bound_to 10752
  140.5487  134.0304  155.7929 H   0  0  0  0  0  0  0  0  0  0  0  0  # atno 11005 bound_to 11000
  145.6133  139.1515  143.3063 LP  0  0  0  0  0  0  0  0  0  0  0  0  # atno 17320 bound_to 7965
  146.1970  140.6248  142.9119 LP  0  0  0  0  0  0  0  0  0  0  0  0  # atno 17321 bound_to 7965
  140.4393  143.2533  151.9494 LP  0  0  0  0  0  0  0  0  0  0  0  0  # atno 17342 bound_to 10162
  139.4786  144.5669  151.8150 LP  0  0  0  0  0  0  0  0  0  0  0  0  # atno 17343 bound_to 10162
  156.0451  130.3730  150.1337 LP  0  0  0  0  0  0  0  0  0  0  0  0  # atno 17370 bound_to 10713
  156.9520  130.9778  151.3496 LP  0  0  0  0  0  0  0  0  0  0  0  0  # atno 17371 bound_to 10713
  141.1184  133.9502  157.2777 LP  0  0  0  0  0  0  0  0  0  0  0  0  # atno 17394 bound_to 11000
  139.9466  135.0183  156.8870 LP  0  0  0  0  0  0  0  0  0  0  0  0  # atno 17395 bound_to 11000

$$$$
