AV-unprocessed.smi:21|AV-procd|sdf|143|dock6
  -GOLD-   2262015353D 1   1.00000     0.00000
 Structure written by MMmdl.
 62 65  0  0  0  0  0  0  0  0  2 V2000
  144.5207  132.0641  151.0507 C   0  0  0  0  0  0  0  0  0  0  0  0
  144.1975  133.4042  151.3869 O   0  0  0  0  0  0  0  0  0  0  0  0
  145.0857  134.3652  150.8313 C   0  0  1  0  0  0  0  0  0  0  0  0
  144.6132  135.7515  151.2488 C   0  0  0  0  0  0  0  0  0  0  0  0
  145.2140  135.9352  152.6457 C   0  0  2  0  0  0  0  0  0  0  0  0
  145.3740  137.4094  153.0740 C   0  0  0  0  0  0  0  0  0  0  0  0
  146.2105  137.5676  154.2642 N   0  0  0  0  0  0  0  0  0  0  0  0
  145.7691  136.9546  155.5103 C   0  0  0  0  0  0  0  0  0  0  0  0
  147.0840  138.6087  154.3065 C   0  0  0  0  0  0  0  0  0  0  0  0
  147.0973  139.4672  153.2534 N   0  0  0  0  0  0  0  0  0  0  0  0
  147.9242  140.5156  153.2416 C   0  0  0  0  0  0  0  0  0  0  0  0
  148.7988  140.8959  154.1725 N   0  0  0  0  0  0  0  0  0  0  0  0
  148.7856  140.0505  155.2418 C   0  0  0  0  0  0  0  0  0  0  0  0
  147.9750  138.8873  155.3866 C   0  0  0  0  0  0  0  0  0  0  0  0
  148.2404  138.2875  156.6123 N   0  0  0  0  0  0  0  0  0  0  0  0
  149.1558  139.0427  157.1525 C   0  0  0  0  0  0  0  0  0  0  0  0
  149.5278  140.1388  156.4081 N   0  0  0  0  0  0  0  0  0  0  0  0
  150.5109  141.1503  156.7728 C   0  0  0  0  0  0  0  0  0  0  0  0
  151.2004  140.9129  158.1455 C   0  0  1  0  0  0  0  0  0  0  0  0
  152.1367  139.6818  158.1244 C   0  0  0  0  0  0  0  0  0  0  0  0
  152.8832  139.6386  156.9264 O   0  0  0  0  0  0  0  0  0  0  0  0
  151.9368  142.1761  158.6652 C   0  0  2  0  0  0  0  0  0  0  0  0
  152.4579  142.0796  160.0898 C   0  0  0  0  0  0  0  0  0  0  0  0
  152.6603  143.5430  160.4730 C   0  0  0  0  0  0  0  0  0  0  0  0
  151.7231  144.2846  159.7000 O   0  0  0  0  0  0  0  0  0  0  0  0
  151.0479  143.4171  158.7975 C   0  0  0  0  0  0  0  0  0  0  0  0
  146.5213  135.2418  152.5857 N   0  3  1  0  0  0  0  0  0  0  0  0
  146.9595  134.6621  153.8743 C   0  0  0  0  0  0  0  0  0  0  0  0
  146.4763  134.2589  151.4759 C   0  0  0  0  0  0  0  0  0  0  0  0
  145.1190  134.2772  149.7438 H   0  0  0  0  0  0  0  0  0  0  0  0
  144.5793  135.4071  153.3599 H   0  0  0  0  0  0  0  0  0  0  0  0
  143.8049  131.3895  151.5202 H   0  0  0  0  0  0  0  0  0  0  0  0
  145.5166  131.7865  151.3962 H   0  0  0  0  0  0  0  0  0  0  0  0
  144.4698  131.9064  149.9726 H   0  0  0  0  0  0  0  0  0  0  0  0
  145.0224  136.4957  150.5639 H   0  0  0  0  0  0  0  0  0  0  0  0
  143.5271  135.8480  151.2346 H   0  0  0  0  0  0  0  0  0  0  0  0
  145.8459  137.9710  152.2676 H   0  0  0  0  0  0  0  0  0  0  0  0
  144.3951  137.8697  153.2102 H   0  0  0  0  0  0  0  0  0  0  0  0
  146.6015  136.8363  156.2049 H   0  0  0  0  0  0  0  0  0  0  0  0
  145.3544  135.9644  155.3209 H   0  0  0  0  0  0  0  0  0  0  0  0
  144.9965  137.5581  155.9876 H   0  0  0  0  0  0  0  0  0  0  0  0
  147.8760  141.1408  152.3620 H   0  0  0  0  0  0  0  0  0  0  0  0
  149.5778  138.8203  158.1210 H   0  0  0  0  0  0  0  0  0  0  0  0
  151.2555  141.2005  155.9783 H   0  0  0  0  0  0  0  0  0  0  0  0
  150.0169  142.1224  156.7644 H   0  0  0  0  0  0  0  0  0  0  0  0
  150.4060  140.6932  158.8608 H   0  0  0  0  0  0  0  0  0  0  0  0
  152.8112  139.6783  158.9805 H   0  0  0  0  0  0  0  0  0  0  0  0
  151.5663  138.7550  158.1710 H   0  0  0  0  0  0  0  0  0  0  0  0
  152.8524  138.7587  156.5829 H   0  0  0  0  0  0  0  0  0  0  0  0
  152.7806  142.4102  158.0145 H   0  0  0  0  0  0  0  0  0  0  0  0
  151.7078  141.6250  160.7391 H   0  0  0  0  0  0  0  0  0  0  0  0
  153.3785  141.5017  160.1758 H   0  0  0  0  0  0  0  0  0  0  0  0
  152.5188  143.7136  161.5405 H   0  0  0  0  0  0  0  0  0  0  0  0
  153.6653  143.8725  160.2072 H   0  0  0  0  0  0  0  0  0  0  0  0
  150.8619  143.9157  157.8473 H   0  0  0  0  0  0  0  0  0  0  0  0
  150.0823  143.1545  159.2317 H   0  0  0  0  0  0  0  0  0  0  0  0
  146.2678  133.8889  154.2117 H   0  0  0  0  0  0  0  0  0  0  0  0
  147.0172  135.4304  154.6454 H   0  0  0  0  0  0  0  0  0  0  0  0
  147.9489  134.2153  153.7730 H   0  0  0  0  0  0  0  0  0  0  0  0
  146.7068  133.2448  151.8040 H   0  0  0  0  0  0  0  0  0  0  0  0
  147.2430  134.5430  150.7545 H   0  0  0  0  0  0  0  0  0  0  0  0
  147.2050  135.9359  152.3191 H   0  0  0  0  0  0  0  0  0  0  0  0
  1  2  1  0  0  0  0
  1 32  1  0  0  0  0
  1 33  1  0  0  0  0
  1 34  1  0  0  0  0
  2  3  1  0  0  0  0
  3 30  1  0  0  0  0
  3 29  1  0  0  0  0
  3  4  1  0  0  0  0
  4  5  1  0  0  0  0
  4 35  1  0  0  0  0
  4 36  1  0  0  0  0
  5 31  1  0  0  0  0
  5  6  1  0  0  0  0
  5 27  1  0  0  0  0
  6  7  1  0  0  0  0
  6 37  1  0  0  0  0
  6 38  1  0  0  0  0
  7  8  1  0  0  0  0
  7  9  1  0  0  0  0
  8 39  1  0  0  0  0
  8 40  1  0  0  0  0
  8 41  1  0  0  0  0
  9 14  1  0  0  0  0
  9 10  2  0  0  0  0
 10 11  1  0  0  0  0
 11 12  2  0  0  0  0
 11 42  1  0  0  0  0
 12 13  1  0  0  0  0
 13 17  1  0  0  0  0
 13 14  2  0  0  0  0
 14 15  1  0  0  0  0
 15 16  2  0  0  0  0
 16 17  1  0  0  0  0
 16 43  1  0  0  0  0
 17 18  1  0  0  0  0
 18 19  1  0  0  0  0
 18 44  1  0  0  0  0
 18 45  1  0  0  0  0
 19 20  1  0  0  0  0
 19 22  1  0  0  0  0
 19 46  1  0  0  0  0
 20 21  1  0  0  0  0
 20 47  1  0  0  0  0
 20 48  1  0  0  0  0
 21 49  1  0  0  0  0
 22 26  1  0  0  0  0
 22 23  1  0  0  0  0
 22 50  1  0  0  0  0
 23 24  1  0  0  0  0
 23 51  1  0  0  0  0
 23 52  1  0  0  0  0
 24 25  1  0  0  0  0
 24 53  1  0  0  0  0
 24 54  1  0  0  0  0
 25 26  1  0  0  0  0
 26 55  1  0  0  0  0
 26 56  1  0  0  0  0
 27 28  1  0  0  0  0
 27 29  1  0  0  0  0
 27 62  1  0  0  0  0
 28 57  1  0  0  0  0
 28 58  1  0  0  0  0
 28 59  1  0  0  0  0
 29 60  1  0  0  0  0
 29 61  1  0  0  0  0
M  CHG  1  27   1
M  END
> <s_m_source_file>
AV-unprocessed.smi

> <i_m_source_file_index>
21

> <i_lp_mmshare_version>
43012

> <i_f3d_flags>
0

> <s_epik_input>
W0NIM11PW0NASF0xW0NIMl1bQ0BIXShOKFtDSDNdKVtDSDJdMSlbQ0gyXU4oW0NIM10pYyhuW2NIXW4yKWMoYzIzKW5bY0hdbjNbQ0gyXVtDQEhdKFtDSDJdW09IXSlbQ0BASF00W0NIMl1bQ0gyXU9bQ0gyXTQ=

> <s_epik_cmdline>
J2VwaWtfcHl0aG9uJywgJy1waCcsICc3LjAnLCAnLXRuJywgJzgnLCAnLW1hJywgJzIwMCcsICctbWV0YWxfYmluZGluZycsICctaW1hZScsICc8aW5maWxlLm1hZT4nLCAnLW9tYWUnLCAnPG91dGZpbGUubWFlPic=

> <r_lp_tautomer_probability>
1

> <r_epik_Ionization_Penalty>
0.0157465

> <r_epik_Ionization_Penalty_Charging>
0.015354

> <r_epik_Ionization_Penalty_Neutral>
0.000392529

> <r_epik_State_Penalty>
0.0120612

> <r_epik_Charging_Adjusted_Penalty>
0.0274152

> <i_epik_Tot_Q>
1

> <i_epik_Tot_abs_Q>
1

> <r_epik_Metal_State_Penalty>
0.0121253

> <b_epik_Metal_Only>
0

> <s_lp_Force_Field>
OPLS_2005

> <r_lp_Energy>
58.9185

> <b_lp_Chiralities_Consistent>
1

> <s_lp_Variant>
AV-unprocessed.smi:21-23

> <Gold.Version>
5.8.1

> <Gold.Id.Protein>
6NUR|6NUR_protein|mol2

> <Gold.PLP.Fitness>
46.3313

> <Gold.PLP.PLP>
-36.6670

> <Gold.PLP.part.hbond>
-2.0000

> <Gold.PLP.part.metal>
0.0000

> <Gold.PLP.part.buried>
-4.3600

> <Gold.PLP.part.nonpolar>
-31.3707

> <Gold.PLP.part.repulsive>
0.7338

> <Gold.PLP.ligand.clash>
0.0000

> <Gold.PLP.ligand.torsion>
0.6806

> <Gold.PLP.Chemscore.Hbond>
3.0000

> <Gold.PLP.Chemscore.CHOScore>
0.4311

> <Gold.PLP.Chemscore.Metal>
0.0000

> <Gold.Chemscore.Hbonds>
donor molecule, donor type, donor heavy atom, donor atom, acceptor molecule, acceptor atom, score
      L1  H    27    62       P1  7948  1.79
      P1  H  7997  8010       L1    21  1.00
      L1  C    11    42       P1  7957  0.35

> <Gold.PLP.Chemscore.Internal.Correction>
0.7323

> <Gold.Rescore>
     Score         DG    S(hbond)    S(metal)    S(lipo)     H(rot)  DE(clash)    DE(int)     intcor
     11.59     -14.16       1.99        0.00      84.85       3.08       0.17       2.40       ----

> <Gold.Chemscore.Fitness>
11.5899

> <Gold.Chemscore.DG>
-14.1645

> <Gold.Chemscore.ZeroCoef>
-5.4800

> <Gold.Chemscore.Hbond>
1.9855

> <Gold.Chemscore.Metal>
0.0000

> <Gold.Chemscore.Lipo>
84.8475

> <Gold.Chemscore.Internal_Hbond>
0.0000

> <Gold.Chemscore.DEClash>
0.1743

> <Gold.Chemscore.DEInternal>
2.4003

> <Gold.Chemscore.Rot>
3.0758

> <Gold.Chemscore.Internal.Correction>
   9.000000E+99

> <Gold.Chemscore.Hbonds>
donor molecule, donor type, donor heavy atom, donor atom, acceptor molecule, acceptor atom, score
      L1  H    27    62       P1  7948  0.88
      P1  H  7997  8010       L1    21  0.43

> <Gold.Chemscore.Hbond.Weighted>
-6.6315

> <Gold.Chemscore.Metal.Weighted>
-0.0000

> <Gold.Chemscore.Lipo.Weighted>
-9.9272

> <Gold.Chemscore.Internal_Hbond.Weighted>
0.0000

> <Gold.Chemscore.DEClash.Weighted>
0.1743

> <Gold.Chemscore.DEInternal.Weighted>
2.4003

> <Gold.Chemscore.Rot.Weighted>
7.8741

> <Gold.Chemscore.Internal.Correction.Weighted>
   9.000000E+99

> <Gold.Protein.RotatedTorsions>
[ 6907 6896 6895 6894 ] final  126.29 input  -60.11 | X-H torsion
[ 7974 7965 7964 7962 ] final  113.70 input  175.53 | X-H torsion
[ 8008 7997 7996 7995 ] final   46.18 input   59.86 | X-H torsion
[ 10167 10162 10161 10158 ] final -177.31 input  -65.29 | X-H torsion
[ 10718 10713 10712 10709 ] final  -75.65 input   66.30 | X-H torsion
[ 10763 10752 10751 10750 ] final  -97.12 input  -60.55 | X-H torsion
[ 11005 11000 10999 10996 ] final   52.92 input  -57.11 | X-H torsion

> <Gold.Protein.ActiveResidues>
 VAL166  LYS551  ARG553  GLY616  TRP617  ASP618  TYR619  PRO620  LYS621  CYS622 
 ASP623  PHE694  ASN695  SER759  ASP760  ASP761  ALA762  ILE779  LEU786  VAL792 
 PHE793  MET794  SER795  GLU796  ALA797  LYS798  CYS799  TRP800  GLU811  SER814 

> <Gold.Protein.RotatedAtoms>
  152.3916  133.6687  159.6242 H   0  0  0  0  0  0  0  0  0  0  0  0  # atno 6907 bound_to 6896
  150.7823  133.8944  159.3331 H   0  0  0  0  0  0  0  0  0  0  0  0  # atno 6908 bound_to 6896
  151.6729  135.0975  160.0253 H   0  0  0  0  0  0  0  0  0  0  0  0  # atno 6909 bound_to 6896
  145.2136  139.2895  143.4255 H   0  0  0  0  0  0  0  0  0  0  0  0  # atno 7974 bound_to 7965
  155.3482  140.3412  155.4239 H   0  0  0  0  0  0  0  0  0  0  0  0  # atno 8008 bound_to 7997
  156.1778  140.1653  156.8366 H   0  0  0  0  0  0  0  0  0  0  0  0  # atno 8009 bound_to 7997
  154.5300  140.0747  156.8311 H   0  0  0  0  0  0  0  0  0  0  0  0  # atno 8010 bound_to 7997
  139.5486  144.2168  152.1036 H   0  0  0  0  0  0  0  0  0  0  0  0  # atno 10167 bound_to 10162
  156.0200  130.4446  150.3075 H   0  0  0  0  0  0  0  0  0  0  0  0  # atno 10718 bound_to 10713
  154.7300  135.5058  153.8948 H   0  0  0  0  0  0  0  0  0  0  0  0  # atno 10763 bound_to 10752
  153.0941  135.6667  153.9806 H   0  0  0  0  0  0  0  0  0  0  0  0  # atno 10764 bound_to 10752
  153.9609  135.3048  155.3413 H   0  0  0  0  0  0  0  0  0  0  0  0  # atno 10765 bound_to 10752
  140.0810  134.5339  155.8947 H   0  0  0  0  0  0  0  0  0  0  0  0  # atno 11005 bound_to 11000
  146.3392  140.2419  142.8596 LP  0  0  0  0  0  0  0  0  0  0  0  0  # atno 17320 bound_to 7965
  144.9832  140.8479  143.5384 LP  0  0  0  0  0  0  0  0  0  0  0  0  # atno 17321 bound_to 7965
  140.1659  144.4982  150.6606 LP  0  0  0  0  0  0  0  0  0  0  0  0  # atno 17342 bound_to 10162
  140.6743  143.2298  151.5548 LP  0  0  0  0  0  0  0  0  0  0  0  0  # atno 17343 bound_to 10162
  157.1177  131.0238  151.3022 LP  0  0  0  0  0  0  0  0  0  0  0  0  # atno 17370 bound_to 10713
  157.4653  130.7677  149.7273 LP  0  0  0  0  0  0  0  0  0  0  0  0  # atno 17371 bound_to 10713
  141.2046  133.6641  156.6133 LP  0  0  0  0  0  0  0  0  0  0  0  0  # atno 17394 bound_to 11000
  140.3488  134.7786  157.4452 LP  0  0  0  0  0  0  0  0  0  0  0  0  # atno 17395 bound_to 11000

$$$$
