AV-unprocessed.smi:2621|AV-procd|sdf|10225|dock1
  -GOLD-   2272014233D 1   1.00000     0.00000
 Structure written by MMmdl.
 24 25  0  0  0  0  0  0  0  0  1 V2000
  152.1671  145.2889  159.3942 C   0  0  0  0  0  0  0  0  0  0  0  0
  152.0371  143.8990  158.8063 C   0  0  0  0  0  0  0  0  0  0  0  0
  152.7131  142.8407  159.3054 C   0  0  0  0  0  0  0  0  0  0  0  0
  152.5640  141.5123  158.7141 C   0  0  0  0  0  0  0  0  0  0  0  0
  153.1896  140.5377  159.1336 O   0  0  0  0  0  0  0  0  0  0  0  0
  151.6827  141.4318  157.6698 N   0  0  0  0  0  0  0  0  0  0  0  0
  151.4309  140.1109  157.0473 C   0  0  0  0  0  0  0  0  0  0  0  0
  151.9012  139.9377  155.6099 C   0  0  2  0  0  0  0  0  0  0  0  0
  152.0755  138.6086  154.9115 C   0  0  0  0  0  0  0  0  0  0  0  0
  153.1866  139.3114  155.4749 O   0  0  0  0  0  0  0  0  0  0  0  0
  151.0268  142.5892  157.1606 C   0  0  0  0  0  0  0  0  0  0  0  0
  150.2266  142.4002  156.0474 N   0  0  0  0  0  0  0  0  0  0  0  0
  151.1905  143.7523  157.7065 N   0  0  0  0  0  0  0  0  0  0  0  0
  152.7917  145.2870  160.2881 H   0  0  0  0  0  0  0  0  0  0  0  0
  151.1860  145.6787  159.6668 H   0  0  0  0  0  0  0  0  0  0  0  0
  152.6156  145.9657  158.6665 H   0  0  0  0  0  0  0  0  0  0  0  0
  153.3705  142.9685  160.1532 H   0  0  0  0  0  0  0  0  0  0  0  0
  151.9280  139.3400  157.6388 H   0  0  0  0  0  0  0  0  0  0  0  0
  150.3854  139.8077  157.1099 H   0  0  0  0  0  0  0  0  0  0  0  0
  151.7976  140.8232  154.9862 H   0  0  0  0  0  0  0  0  0  0  0  0
  151.8172  137.6855  155.4261 H   0  0  0  0  0  0  0  0  0  0  0  0
  152.0610  138.5830  153.8239 H   0  0  0  0  0  0  0  0  0  0  0  0
  150.0979  141.5032  155.6021 H   0  0  0  0  0  0  0  0  0  0  0  0
  149.6883  143.1373  155.6153 H   0  0  0  0  0  0  0  0  0  0  0  0
  1  2  1  0  0  0  0
  1 14  1  0  0  0  0
  1 15  1  0  0  0  0
  1 16  1  0  0  0  0
  2 13  1  0  0  0  0
  2  3  2  0  0  0  0
  3  4  1  0  0  0  0
  3 17  1  0  0  0  0
  4  5  2  0  0  0  0
  4  6  1  0  0  0  0
  6  7  1  0  0  0  0
  6 11  1  0  0  0  0
  7  8  1  0  0  0  0
  7 18  1  0  0  0  0
  7 19  1  0  0  0  0
  8 10  1  0  0  0  0
  8  9  1  0  0  0  0
  8 20  1  0  0  0  0
  9 10  1  0  0  0  0
  9 21  1  0  0  0  0
  9 22  1  0  0  0  0
 11 12  1  0  0  0  0
 11 13  2  0  0  0  0
 12 23  1  0  0  0  0
 12 24  1  0  0  0  0
M  END
> <s_m_source_file>
AV-unprocessed.smi

> <i_m_source_file_index>
2621

> <i_lp_mmshare_version>
43012

> <i_f3d_flags>
0

> <s_epik_input>
W0NIM11jMVtjSF1jKD1PKW4oYyhuMSlbTkgyXSlbQ0gyXVtDQEBIXTJbQ0gyXU8y

> <s_epik_cmdline>
J2VwaWtfcHl0aG9uJywgJy1waCcsICc3LjAnLCAnLXRuJywgJzgnLCAnLW1hJywgJzIwMCcsICctbWV0YWxfYmluZGluZycsICctaW1hZScsICc8aW5maWxlLm1hZT4nLCAnLW9tYWUnLCAnPG91dGZpbGUubWFlPic=

> <r_lp_tautomer_probability>
1

> <r_epik_Ionization_Penalty>
0.000262373

> <r_epik_Ionization_Penalty_Charging>
1.89272e-07

> <r_epik_Ionization_Penalty_Neutral>
0.000262184

> <r_epik_State_Penalty>
-0

> <r_epik_Charging_Adjusted_Penalty>
1.89272e-07

> <i_epik_Tot_Q>
0

> <i_epik_Tot_abs_Q>
0

> <r_epik_Metal_State_Penalty>
-0

> <b_epik_Metal_Only>
0

> <s_epik_Chemistry_Notes>
This compound has an imine and may undergo hydrolysis.

> <s_lp_Force_Field>
OPLS_2005

> <r_lp_Energy>
23.2987

> <b_lp_Chiralities_Consistent>
1

> <s_lp_Variant>
AV-unprocessed.smi:2621-1

> <Gold.Version>
5.8.1

> <Gold.Id.Protein>
6NUR|6NUR_protein|mol2

> <Gold.PLP.Fitness>
37.0914

> <Gold.PLP.PLP>
-31.1767

> <Gold.PLP.part.hbond>
-2.0000

> <Gold.PLP.part.metal>
0.0000

> <Gold.PLP.part.buried>
-4.6981

> <Gold.PLP.part.nonpolar>
-24.4952

> <Gold.PLP.part.repulsive>
0.2763

> <Gold.PLP.ligand.clash>
0.0000

> <Gold.PLP.ligand.torsion>
0.3506

> <Gold.PLP.Chemscore.Hbond>
2.0000

> <Gold.PLP.Chemscore.CHOScore>
0.0000

> <Gold.PLP.Chemscore.Metal>
0.0000

> <Gold.Chemscore.Hbonds>
donor molecule, donor type, donor heavy atom, donor atom, acceptor molecule, acceptor atom, score
      L1  H    12    24       P1  8028  1.00
      P1  H  7997  8008       L1    10  1.00

> <Gold.PLP.Chemscore.Internal.Correction>
0.6159

> <Gold.Rescore>
     Score         DG    S(hbond)    S(metal)    S(lipo)     H(rot)  DE(clash)    DE(int)     intcor
     15.38     -15.89       2.03        0.00      59.70       1.31       0.07       0.44       ----

> <Gold.Chemscore.Fitness>
15.3764

> <Gold.Chemscore.DG>
-15.8878

> <Gold.Chemscore.ZeroCoef>
-5.4800

> <Gold.Chemscore.Hbond>
2.0319

> <Gold.Chemscore.Metal>
0.0000

> <Gold.Chemscore.Lipo>
59.6993

> <Gold.Chemscore.Internal_Hbond>
0.0000

> <Gold.Chemscore.DEClash>
0.0714

> <Gold.Chemscore.DEInternal>
0.4400

> <Gold.Chemscore.Rot>
1.3139

> <Gold.Chemscore.Internal.Correction>
   9.000000E+99

> <Gold.Chemscore.Hbonds>
donor molecule, donor type, donor heavy atom, donor atom, acceptor molecule, acceptor atom, score
      L1  H    12    24       P1  8028  0.96
      P1  H  7997  8008       L1    10  0.93

> <Gold.Chemscore.Hbond.Weighted>
-6.7866

> <Gold.Chemscore.Metal.Weighted>
-0.0000

> <Gold.Chemscore.Lipo.Weighted>
-6.9848

> <Gold.Chemscore.Internal_Hbond.Weighted>
0.0000

> <Gold.Chemscore.DEClash.Weighted>
0.0714

> <Gold.Chemscore.DEInternal.Weighted>
0.4400

> <Gold.Chemscore.Rot.Weighted>
3.3636

> <Gold.Chemscore.Internal.Correction.Weighted>
   9.000000E+99

> <Gold.Protein.RotatedTorsions>
[ 6907 6896 6895 6894 ] final  -76.36 input  -60.11 | X-H torsion
[ 7974 7965 7964 7962 ] final -168.28 input  175.53 | X-H torsion
[ 8008 7997 7996 7995 ] final  -10.16 input   59.86 | X-H torsion
[ 10167 10162 10161 10158 ] final   -8.59 input  -65.29 | X-H torsion
[ 10718 10713 10712 10709 ] final   58.81 input   66.30 | X-H torsion
[ 10763 10752 10751 10750 ] final   18.85 input  -60.55 | X-H torsion
[ 11005 11000 10999 10996 ] final -162.63 input  -57.11 | X-H torsion

> <Gold.Protein.ActiveResidues>
 VAL166  LYS551  ARG553  GLY616  TRP617  ASP618  TYR619  PRO620  LYS621  CYS622 
 ASP623  PHE694  ASN695  SER759  ASP760  ASP761  ALA762  ILE779  LEU786  VAL792 
 PHE793  MET794  SER795  GLU796  ALA797  LYS798  CYS799  TRP800  GLU811  SER814 

> <Gold.Protein.RotatedAtoms>
  150.7030  134.4584  159.5368 H   0  0  0  0  0  0  0  0  0  0  0  0  # atno 6907 bound_to 6896
  152.2263  134.8362  160.0488 H   0  0  0  0  0  0  0  0  0  0  0  0  # atno 6908 bound_to 6896
  151.9194  133.3546  159.3928 H   0  0  0  0  0  0  0  0  0  0  0  0  # atno 6909 bound_to 6896
  144.7206  140.2394  143.6293 H   0  0  0  0  0  0  0  0  0  0  0  0  # atno 7974 bound_to 7965
  154.5580  140.2336  155.8380 H   0  0  0  0  0  0  0  0  0  0  0  0  # atno 8008 bound_to 7997
  156.2005  140.3054  155.9476 H   0  0  0  0  0  0  0  0  0  0  0  0  # atno 8009 bound_to 7997
  155.2943  140.0428  157.3016 H   0  0  0  0  0  0  0  0  0  0  0  0  # atno 8010 bound_to 7997
  140.7063  143.5951  150.8854 H   0  0  0  0  0  0  0  0  0  0  0  0  # atno 10167 bound_to 10162
  157.5626  130.8847  149.9135 H   0  0  0  0  0  0  0  0  0  0  0  0  # atno 10718 bound_to 10713
  153.1213  135.6720  153.9331 H   0  0  0  0  0  0  0  0  0  0  0  0  # atno 10763 bound_to 10752
  153.8845  135.3054  155.3447 H   0  0  0  0  0  0  0  0  0  0  0  0  # atno 10764 bound_to 10752
  154.7624  135.4981  153.9569 H   0  0  0  0  0  0  0  0  0  0  0  0  # atno 10765 bound_to 10752
  140.6071  134.4888  157.5211 H   0  0  0  0  0  0  0  0  0  0  0  0  # atno 11005 bound_to 11000
  145.8335  139.2096  143.1869 LP  0  0  0  0  0  0  0  0  0  0  0  0  # atno 17320 bound_to 7965
  146.0410  140.8165  142.9828 LP  0  0  0  0  0  0  0  0  0  0  0  0  # atno 17321 bound_to 7965
  139.9677  143.6092  152.2983 LP  0  0  0  0  0  0  0  0  0  0  0  0  # atno 17342 bound_to 10162
  139.6668  144.7662  151.1858 LP  0  0  0  0  0  0  0  0  0  0  0  0  # atno 17343 bound_to 10162
  156.0677  130.3690  150.0843 LP  0  0  0  0  0  0  0  0  0  0  0  0  # atno 17370 bound_to 10713
  156.9005  130.9619  151.3577 LP  0  0  0  0  0  0  0  0  0  0  0  0  # atno 17371 bound_to 10713
  139.9208  134.8153  156.1218 LP  0  0  0  0  0  0  0  0  0  0  0  0  # atno 17394 bound_to 11000
  141.0833  133.6745  156.2383 LP  0  0  0  0  0  0  0  0  0  0  0  0  # atno 17395 bound_to 11000

$$$$
