AV-unprocessed.smi:1207|AV-procd|sdf|5059|dock3
  -GOLD-   22720 4 93D 1   1.00000     0.00000
 Structure written by MMmdl.
 53 55  0  0  0  0  0  0  0  0  3 V2000
  152.3678  144.0446  159.9572 C   0  0  0  0  0  0  0  0  0  0  0  0
  152.0356  142.9737  158.9320 C   0  0  0  0  0  0  0  0  0  0  0  0
  151.1231  143.2886  157.8999 C   0  0  0  0  0  0  0  0  0  0  0  0
  150.8394  142.2889  156.9773 C   0  0  0  0  0  0  0  0  0  0  0  0
  150.0021  142.2855  155.8595 N   0  3  0  0  0  0  0  0  0  0  0  0
  150.0523  141.0651  155.2573 C   0  0  0  0  0  0  0  0  0  0  0  0
  150.8999  140.2845  155.9824 N   0  0  0  0  0  0  0  0  0  0  0  0
  151.3157  138.8920  155.7728 C   0  0  0  0  0  0  0  0  0  0  0  0
  150.3686  138.1027  154.8454 C   0  0  2  0  0  0  0  0  0  0  0  0
  150.6137  138.5251  153.5199 O   0  0  0  0  0  0  0  0  0  0  0  0
  148.8701  138.3011  155.1634 C   0  0  0  0  0  0  0  0  0  0  0  0
  148.0189  137.3267  154.4347 N   0  3  2  0  0  0  0  0  0  0  0  0
  146.7809  137.9465  153.9075 C   0  0  0  0  0  0  0  0  0  0  0  0
  147.7533  136.0882  155.2116 C   0  0  0  0  0  0  0  0  0  0  0  0
  149.0333  135.4923  155.7358 C   0  0  0  0  0  0  0  0  0  0  0  0
  149.7858  134.3963  155.2205 C   0  0  0  0  0  0  0  0  0  0  0  0
  149.5103  133.5382  154.0190 C   0  0  0  0  0  0  0  0  0  0  0  0
  150.8623  134.1537  155.9484 N   0  0  0  0  0  0  0  0  0  0  0  0
  150.8475  135.0927  156.9839 O   0  0  0  0  0  0  0  0  0  0  0  0
  149.7491  135.8750  156.8366 C   0  0  0  0  0  0  0  0  0  0  0  0
  149.5460  136.9475  157.8533 C   0  0  0  0  0  0  0  0  0  0  0  0
  151.4265  141.0112  157.0560 C   0  0  0  0  0  0  0  0  0  0  0  0
  152.3329  140.6862  158.0621 C   0  0  0  0  0  0  0  0  0  0  0  0
  152.6335  141.6893  159.0113 C   0  0  0  0  0  0  0  0  0  0  0  0
  153.6149  141.3627  160.1241 C   0  0  0  0  0  0  0  0  0  0  0  0
  151.8316  144.9720  159.7539 H   0  0  0  0  0  0  0  0  0  0  0  0
  153.4348  144.2682  159.9447 H   0  0  0  0  0  0  0  0  0  0  0  0
  152.0940  143.7143  160.9597 H   0  0  0  0  0  0  0  0  0  0  0  0
  150.6676  144.2659  157.8311 H   0  0  0  0  0  0  0  0  0  0  0  0
  149.5152  140.7708  154.3669 H   0  0  0  0  0  0  0  0  0  0  0  0
  152.3224  138.9150  155.3528 H   0  0  0  0  0  0  0  0  0  0  0  0
  151.3966  138.4124  156.7496 H   0  0  0  0  0  0  0  0  0  0  0  0
  150.6250  137.0458  154.8991 H   0  0  0  0  0  0  0  0  0  0  0  0
  149.8602  139.0030  153.2070 H   0  0  0  0  0  0  0  0  0  0  0  0
  148.6733  138.2047  156.2318 H   0  0  0  0  0  0  0  0  0  0  0  0
  148.5920  139.3223  154.8972 H   0  0  0  0  0  0  0  0  0  0  0  0
  146.1346  138.2817  154.7197 H   0  0  0  0  0  0  0  0  0  0  0  0
  146.2206  137.2429  153.2921 H   0  0  0  0  0  0  0  0  0  0  0  0
  147.0159  138.8066  153.2798 H   0  0  0  0  0  0  0  0  0  0  0  0
  147.0923  136.3098  156.0492 H   0  0  0  0  0  0  0  0  0  0  0  0
  147.1981  135.3820  154.5931 H   0  0  0  0  0  0  0  0  0  0  0  0
  148.7179  133.9560  153.3987 H   0  0  0  0  0  0  0  0  0  0  0  0
  149.2025  132.5360  154.3178 H   0  0  0  0  0  0  0  0  0  0  0  0
  150.3980  133.4408  153.3932 H   0  0  0  0  0  0  0  0  0  0  0  0
  149.3567  137.9065  157.3711 H   0  0  0  0  0  0  0  0  0  0  0  0
  150.4245  137.0591  158.4895 H   0  0  0  0  0  0  0  0  0  0  0  0
  148.6938  136.7162  158.4922 H   0  0  0  0  0  0  0  0  0  0  0  0
  152.7928  139.7108  158.1200 H   0  0  0  0  0  0  0  0  0  0  0  0
  153.9974  140.3456  160.0339 H   0  0  0  0  0  0  0  0  0  0  0  0
  153.1324  141.4520  161.0978 H   0  0  0  0  0  0  0  0  0  0  0  0
  154.4672  142.0417  160.0958 H   0  0  0  0  0  0  0  0  0  0  0  0
  148.5591  137.0515  153.6264 H   0  0  0  0  0  0  0  0  0  0  0  0
  149.4440  143.0607  155.5246 H   0  0  0  0  0  0  0  0  0  0  0  0
  1  2  1  0  0  0  0
  1 26  1  0  0  0  0
  1 27  1  0  0  0  0
  1 28  1  0  0  0  0
  2 24  1  0  0  0  0
  2  3  2  0  0  0  0
  3  4  1  0  0  0  0
  3 29  1  0  0  0  0
  4 22  2  0  0  0  0
  4  5  1  0  0  0  0
  5  6  2  0  0  0  0
  5 53  1  0  0  0  0
  6  7  1  0  0  0  0
  6 30  1  0  0  0  0
  7  8  1  0  0  0  0
  7 22  1  0  0  0  0
  8  9  1  0  0  0  0
  8 31  1  0  0  0  0
  8 32  1  0  0  0  0
  9 10  1  0  0  0  0
  9 11  1  0  0  0  0
  9 33  1  0  0  0  0
 10 34  1  0  0  0  0
 11 12  1  0  0  0  0
 11 35  1  0  0  0  0
 11 36  1  0  0  0  0
 12 13  1  0  0  0  0
 12 14  1  0  0  0  0
 12 52  1  0  0  0  0
 13 37  1  0  0  0  0
 13 38  1  0  0  0  0
 13 39  1  0  0  0  0
 14 15  1  0  0  0  0
 14 40  1  0  0  0  0
 14 41  1  0  0  0  0
 15 20  2  0  0  0  0
 15 16  1  0  0  0  0
 16 17  1  0  0  0  0
 16 18  2  0  0  0  0
 17 42  1  0  0  0  0
 17 43  1  0  0  0  0
 17 44  1  0  0  0  0
 18 19  1  0  0  0  0
 19 20  1  0  0  0  0
 20 21  1  0  0  0  0
 21 45  1  0  0  0  0
 21 46  1  0  0  0  0
 21 47  1  0  0  0  0
 22 23  1  0  0  0  0
 23 24  2  0  0  0  0
 23 48  1  0  0  0  0
 24 25  1  0  0  0  0
 25 49  1  0  0  0  0
 25 50  1  0  0  0  0
 25 51  1  0  0  0  0
M  CHG  1   5   1
M  CHG  1  12   1
M  END
> <s_m_source_file>
AV-unprocessed.smi

> <i_m_source_file_index>
1207

> <i_lp_mmshare_version>
43012

> <i_f3d_flags>
0

> <s_epik_input>
W0NIM11jKFtjSF0xKWMoW0NIM10pW2NIXWMoYzEyKW4oW2NIXW4yKVtDSDJdW0NASF0oW09IXSlbQ0gyXU4oW0NIM10pW0NIMl1jM2MoW0NIM10pbm9jM1tDSDNd

> <s_epik_cmdline>
J2VwaWtfcHl0aG9uJywgJy1waCcsICc3LjAnLCAnLXRuJywgJzgnLCAnLW1hJywgJzIwMCcsICctbWV0YWxfYmluZGluZycsICctaW1hZScsICc8aW5maWxlLm1hZT4nLCAnLW9tYWUnLCAnPG91dGZpbGUubWFlPic=

> <r_epik_Ionization_Penalty>
1.77463

> <r_epik_Ionization_Penalty_Charging>
1.77463

> <r_epik_Ionization_Penalty_Neutral>
3.70885e-06

> <r_epik_State_Penalty>
1.85225

> <r_epik_Charging_Adjusted_Penalty>
3.62688

> <i_epik_Tot_Q>
2

> <i_epik_Tot_abs_Q>
2

> <r_epik_Metal_State_Penalty>
1.92674

> <b_epik_Metal_Only>
0

> <s_lp_Force_Field>
OPLS_2005

> <r_lp_Energy>
20.2471

> <b_lp_Chiralities_Consistent>
1

> <s_lp_Variant>
AV-unprocessed.smi:1207-11

> <Gold.Version>
5.8.1

> <Gold.Id.Protein>
6NUR|6NUR_protein|mol2

> <Gold.PLP.Fitness>
53.0465

> <Gold.PLP.PLP>
-42.4297

> <Gold.PLP.part.hbond>
-3.9610

> <Gold.PLP.part.metal>
0.0000

> <Gold.PLP.part.buried>
-3.3821

> <Gold.PLP.part.nonpolar>
-34.8627

> <Gold.PLP.part.repulsive>
0.1607

> <Gold.PLP.ligand.clash>
0.0000

> <Gold.PLP.ligand.torsion>
1.2067

> <Gold.PLP.Chemscore.Hbond>
4.2298

> <Gold.PLP.Chemscore.CHOScore>
0.0000

> <Gold.PLP.Chemscore.Metal>
0.0000

> <Gold.Chemscore.Hbonds>
donor molecule, donor type, donor heavy atom, donor atom, acceptor molecule, acceptor atom, score
      L1  H     5    53       P1  8028  2.00
      L1  H    10    34       P1  7957  0.17
      L1  H    12    52       P1  7948  2.00

> <Gold.PLP.Chemscore.Internal.Correction>
0.3407

> <Gold.Rescore>
     Score         DG    S(hbond)    S(metal)    S(lipo)     H(rot)  DE(clash)    DE(int)     intcor
     16.28     -19.74       2.23        0.00     113.59       2.54       1.13       2.33       ----

> <Gold.Chemscore.Fitness>
16.2820

> <Gold.Chemscore.DG>
-19.7398

> <Gold.Chemscore.ZeroCoef>
-5.4800

> <Gold.Chemscore.Hbond>
2.2333

> <Gold.Chemscore.Metal>
0.0000

> <Gold.Chemscore.Lipo>
113.5940

> <Gold.Chemscore.Internal_Hbond>
0.0000

> <Gold.Chemscore.DEClash>
1.1292

> <Gold.Chemscore.DEInternal>
2.3285

> <Gold.Chemscore.Rot>
2.5351

> <Gold.Chemscore.Internal.Correction>
   9.000000E+99

> <Gold.Chemscore.Hbonds>
donor molecule, donor type, donor heavy atom, donor atom, acceptor molecule, acceptor atom, score
      L1  H     5    53       P1  8028  0.95
      L1  H    10    34       P1  7957  0.17
      L1  H    12    52       P1  7948  0.97

> <Gold.Chemscore.Hbond.Weighted>
-7.4592

> <Gold.Chemscore.Metal.Weighted>
-0.0000

> <Gold.Chemscore.Lipo.Weighted>
-13.2905

> <Gold.Chemscore.Internal_Hbond.Weighted>
0.0000

> <Gold.Chemscore.DEClash.Weighted>
1.1292

> <Gold.Chemscore.DEInternal.Weighted>
2.3285

> <Gold.Chemscore.Rot.Weighted>
6.4900

> <Gold.Chemscore.Internal.Correction.Weighted>
   9.000000E+99

> <Gold.Protein.RotatedTorsions>
[ 6907 6896 6895 6894 ] final   64.20 input  -60.11 | X-H torsion
[ 7974 7965 7964 7962 ] final -128.07 input  175.53 | X-H torsion
[ 8008 7997 7996 7995 ] final  -51.46 input   59.86 | X-H torsion
[ 10167 10162 10161 10158 ] final   80.24 input  -65.29 | X-H torsion
[ 10718 10713 10712 10709 ] final  -16.02 input   66.30 | X-H torsion
[ 10763 10752 10751 10750 ] final   35.68 input  -60.55 | X-H torsion
[ 11005 11000 10999 10996 ] final   57.72 input  -57.11 | X-H torsion

> <Gold.Protein.ActiveResidues>
 VAL166  LYS551  ARG553  GLY616  TRP617  ASP618  TYR619  PRO620  LYS621  CYS622 
 ASP623  PHE694  ASN695  SER759  ASP760  ASP761  ALA762  ILE779  LEU786  VAL792 
 PHE793  MET794  SER795  GLU796  ALA797  LYS798  CYS799  TRP800  GLU811  SER814 

> <Gold.Protein.RotatedAtoms>
  152.4313  134.5772  159.9937 H   0  0  0  0  0  0  0  0  0  0  0  0  # atno 6907 bound_to 6896
  151.5894  133.3362  159.3032 H   0  0  0  0  0  0  0  0  0  0  0  0  # atno 6908 bound_to 6896
  150.8206  134.7448  159.6834 H   0  0  0  0  0  0  0  0  0  0  0  0  # atno 6909 bound_to 6896
  144.9707  140.7542  143.4672 H   0  0  0  0  0  0  0  0  0  0  0  0  # atno 7974 bound_to 7965
  154.4083  140.1247  156.4832 H   0  0  0  0  0  0  0  0  0  0  0  0  # atno 8008 bound_to 7997
  155.7064  140.3494  155.4935 H   0  0  0  0  0  0  0  0  0  0  0  0  # atno 8009 bound_to 7997
  155.9340  140.1075  157.1100 H   0  0  0  0  0  0  0  0  0  0  0  0  # atno 8010 bound_to 7997
  139.9518  144.6021  150.8153 H   0  0  0  0  0  0  0  0  0  0  0  0  # atno 10167 bound_to 10162
  156.5934  130.4805  149.6269 H   0  0  0  0  0  0  0  0  0  0  0  0  # atno 10718 bound_to 10713
  153.0108  135.6326  154.1866 H   0  0  0  0  0  0  0  0  0  0  0  0  # atno 10763 bound_to 10752
  154.1608  135.2823  155.3111 H   0  0  0  0  0  0  0  0  0  0  0  0  # atno 10764 bound_to 10752
  154.5983  135.5595  153.7408 H   0  0  0  0  0  0  0  0  0  0  0  0  # atno 10765 bound_to 10752
  140.0431  134.5845  155.9357 H   0  0  0  0  0  0  0  0  0  0  0  0  # atno 11005 bound_to 11000
  145.2563  139.2010  143.4915 LP  0  0  0  0  0  0  0  0  0  0  0  0  # atno 17320 bound_to 7965
  146.3381  140.2485  142.8598 LP  0  0  0  0  0  0  0  0  0  0  0  0  # atno 17321 bound_to 7965
  140.7580  143.3099  151.2871 LP  0  0  0  0  0  0  0  0  0  0  0  0  # atno 17342 bound_to 10162
  139.6622  144.0168  152.2700 LP  0  0  0  0  0  0  0  0  0  0  0  0  # atno 17343 bound_to 10162
  156.2530  130.6918  151.1662 LP  0  0  0  0  0  0  0  0  0  0  0  0  # atno 17370 bound_to 10713
  157.7298  131.0621  150.5758 LP  0  0  0  0  0  0  0  0  0  0  0  0  # atno 17371 bound_to 10713
  141.1893  133.6565  156.5362 LP  0  0  0  0  0  0  0  0  0  0  0  0  # atno 17394 bound_to 11000
  140.4037  134.7334  157.4795 LP  0  0  0  0  0  0  0  0  0  0  0  0  # atno 17395 bound_to 11000

$$$$
