AV-unprocessed.smi:2636|AV-procd|sdf|10260|dock6
  -GOLD-   2272014273D 1   1.00000     0.00000
 Structure written by MMmdl.
 35 36  0  0  0  0  0  0  0  0  2 V2000
  153.0054  137.4907  159.1639 C   0  0  0  0  0  0  0  0  0  0  0  0
  152.4813  138.1625  157.9082 C   0  0  0  0  0  0  0  0  0  0  0  0
  151.6892  139.2538  157.9408 C   0  0  0  0  0  0  0  0  0  0  0  0
  151.2014  139.8606  156.7711 N   0  0  0  0  0  0  0  0  0  0  0  0
  150.3814  141.0609  156.8897 C   0  0  0  0  0  0  0  0  0  0  0  0
  151.1338  142.1643  157.3111 O   0  0  0  0  0  0  0  0  0  0  0  0
  150.4464  143.1743  158.0443 C   0  0  0  0  0  0  0  0  0  0  0  0
  151.3316  144.3788  158.3210 C   0  0  0  0  0  0  0  0  0  0  0  0
  152.3056  144.5037  159.2442 C   0  0  0  0  0  0  0  0  0  0  0  0
  152.8309  143.4938  160.1794 C   0  0  0  0  0  0  0  0  0  0  0  0
  153.5964  142.3841  159.7545 C   0  0  0  0  0  0  0  0  0  0  0  0
  154.0569  141.4327  160.6855 C   0  0  0  0  0  0  0  0  0  0  0  0
  153.7631  141.5850  162.0532 C   0  0  0  0  0  0  0  0  0  0  0  0
  153.0095  142.6910  162.4877 C   0  0  0  0  0  0  0  0  0  0  0  0
  152.5449  143.6375  161.5542 C   0  0  0  0  0  0  0  0  0  0  0  0
  151.5351  139.3599  155.5447 C   0  0  0  0  0  0  0  0  0  0  0  0
  151.1048  139.9128  154.5318 O   0  0  0  0  0  0  0  0  0  0  0  0
  152.3395  138.2548  155.4880 N   0  5  0  0  0  0  0  0  0  0  0  0
  152.8345  137.6236  156.5927 C   0  0  0  0  0  0  0  0  0  0  0  0
  153.5578  136.6309  156.5150 O   0  0  0  0  0  0  0  0  0  0  0  0
  152.6467  137.9982  160.0596 H   0  0  0  0  0  0  0  0  0  0  0  0
  154.0956  137.5047  159.1774 H   0  0  0  0  0  0  0  0  0  0  0  0
  152.6732  136.4533  159.2075 H   0  0  0  0  0  0  0  0  0  0  0  0
  151.3826  139.7261  158.8625 H   0  0  0  0  0  0  0  0  0  0  0  0
  149.9509  141.2811  155.9115 H   0  0  0  0  0  0  0  0  0  0  0  0
  149.5522  140.8799  157.5746 H   0  0  0  0  0  0  0  0  0  0  0  0
  149.5237  143.4393  157.5342 H   0  0  0  0  0  0  0  0  0  0  0  0
  150.1565  142.7470  159.0040 H   0  0  0  0  0  0  0  0  0  0  0  0
  151.1230  145.2356  157.6973 H   0  0  0  0  0  0  0  0  0  0  0  0
  152.7979  145.4639  159.2987 H   0  0  0  0  0  0  0  0  0  0  0  0
  153.8548  142.2603  158.7138 H   0  0  0  0  0  0  0  0  0  0  0  0
  154.6400  140.5881  160.3493 H   0  0  0  0  0  0  0  0  0  0  0  0
  154.1155  140.8552  162.7670 H   0  0  0  0  0  0  0  0  0  0  0  0
  152.7805  142.8099  163.5363 H   0  0  0  0  0  0  0  0  0  0  0  0
  151.9585  144.4766  161.8993 H   0  0  0  0  0  0  0  0  0  0  0  0
  1  2  1  0  0  0  0
  1 21  1  0  0  0  0
  1 22  1  0  0  0  0
  1 23  1  0  0  0  0
  2 19  1  0  0  0  0
  2  3  2  0  0  0  0
  3  4  1  0  0  0  0
  3 24  1  0  0  0  0
  4  5  1  0  0  0  0
  4 16  1  0  0  0  0
  5  6  1  0  0  0  0
  5 25  1  0  0  0  0
  5 26  1  0  0  0  0
  6  7  1  0  0  0  0
  7  8  1  0  0  0  0
  7 27  1  0  0  0  0
  7 28  1  0  0  0  0
  8  9  2  0  0  0  0
  8 29  1  0  0  0  0
  9 10  1  0  0  0  0
  9 30  1  0  0  0  0
 10 15  1  0  0  0  0
 10 11  2  0  0  0  0
 11 12  1  0  0  0  0
 11 31  1  0  0  0  0
 12 13  2  0  0  0  0
 12 32  1  0  0  0  0
 13 14  1  0  0  0  0
 13 33  1  0  0  0  0
 14 15  2  0  0  0  0
 14 34  1  0  0  0  0
 15 35  1  0  0  0  0
 16 17  2  0  0  0  0
 16 18  1  0  0  0  0
 18 19  1  0  0  0  0
 19 20  2  0  0  0  0
M  CHG  1  18  -1
M  END
> <s_m_source_file>
AV-unprocessed.smi

> <i_m_source_file_index>
2636

> <i_lp_mmshare_version>
43012

> <i_f3d_flags>
0

> <s_epik_input>
Tz1jMVtuSF1jKD1PKW4oW2NIXWMxW0NIM10pW0NIMl1PW0NIMl0vW0NIXT1bQ0hdL2MyW2NIXVtjSF1bY0hdW2NIXVtjSF0y

> <s_epik_cmdline>
J2VwaWtfcHl0aG9uJywgJy1waCcsICc3LjAnLCAnLXRuJywgJzgnLCAnLW1hJywgJzIwMCcsICctbWV0YWxfYmluZGluZycsICctaW1hZScsICc8aW5maWxlLm1hZT4nLCAnLW9tYWUnLCAnPG91dGZpbGUubWFlPic=

> <r_lp_tautomer_probability>
0.999537

> <r_epik_Ionization_Penalty>
3.43625

> <r_epik_Ionization_Penalty_Charging>
7.29021e-08

> <r_epik_Ionization_Penalty_Neutral>
3.43625

> <r_epik_State_Penalty>
3.43567

> <r_epik_Charging_Adjusted_Penalty>
3.43567

> <i_epik_Tot_Q>
-1

> <i_epik_Tot_abs_Q>
1

> <r_epik_Metal_State_Penalty>
0.168611

> <b_epik_Metal_Only>
1

> <s_epik_Chemistry_Notes>
This compound contains an acetal/aminal-like group ( X-CH(R)-Y where X, Y are N, S, or O) that may be acid/base labile, releasing an aldehyde.

> <s_lp_Force_Field>
OPLS_2005

> <r_lp_Energy>
10.6813

> <b_lp_Chiralities_Consistent>
1

> <s_lp_Variant>
AV-unprocessed.smi:2636-4

> <Gold.Version>
5.8.1

> <Gold.Id.Protein>
6NUR|6NUR_protein|mol2

> <Gold.PLP.Fitness>
50.4594

> <Gold.PLP.PLP>
-46.7543

> <Gold.PLP.part.hbond>
-2.0000

> <Gold.PLP.part.metal>
0.0000

> <Gold.PLP.part.buried>
-6.1128

> <Gold.PLP.part.nonpolar>
-39.1969

> <Gold.PLP.part.repulsive>
0.1482

> <Gold.PLP.ligand.clash>
0.0000

> <Gold.PLP.ligand.torsion>
1.0753

> <Gold.PLP.Chemscore.Hbond>
1.9440

> <Gold.PLP.Chemscore.CHOScore>
0.0000

> <Gold.PLP.Chemscore.Metal>
0.0000

> <Gold.Chemscore.Hbonds>
donor molecule, donor type, donor heavy atom, donor atom, acceptor molecule, acceptor atom, score
      P1  H  7989  7998       L1    17  0.93
      P1  H 10752 10763       L1    20  0.82

> <Gold.PLP.Chemscore.Internal.Correction>
0.0237

> <Gold.Rescore>
     Score         DG    S(hbond)    S(metal)    S(lipo)     H(rot)  DE(clash)    DE(int)     intcor
     19.93     -21.00       1.97        0.00     117.45       1.88       0.03       1.04       ----

> <Gold.Chemscore.Fitness>
19.9292

> <Gold.Chemscore.DG>
-21.0033

> <Gold.Chemscore.ZeroCoef>
-5.4800

> <Gold.Chemscore.Hbond>
1.9746

> <Gold.Chemscore.Metal>
0.0000

> <Gold.Chemscore.Lipo>
117.4454

> <Gold.Chemscore.Internal_Hbond>
0.0000

> <Gold.Chemscore.DEClash>
0.0310

> <Gold.Chemscore.DEInternal>
1.0432

> <Gold.Chemscore.Rot>
1.8800

> <Gold.Chemscore.Internal.Correction>
   9.000000E+99

> <Gold.Chemscore.Hbonds>
donor molecule, donor type, donor heavy atom, donor atom, acceptor molecule, acceptor atom, score
      P1  H  7989  7998       L1    17  0.89
      P1  H 10752 10763       L1    20  0.81

> <Gold.Chemscore.Hbond.Weighted>
-6.5951

> <Gold.Chemscore.Metal.Weighted>
-0.0000

> <Gold.Chemscore.Lipo.Weighted>
-13.7411

> <Gold.Chemscore.Internal_Hbond.Weighted>
0.0000

> <Gold.Chemscore.DEClash.Weighted>
0.0310

> <Gold.Chemscore.DEInternal.Weighted>
1.0432

> <Gold.Chemscore.Rot.Weighted>
4.8129

> <Gold.Chemscore.Internal.Correction.Weighted>
   9.000000E+99

> <Gold.Protein.RotatedTorsions>
[ 6907 6896 6895 6894 ] final   20.16 input  -60.11 | X-H torsion
[ 7974 7965 7964 7962 ] final -172.03 input  175.53 | X-H torsion
[ 8008 7997 7996 7995 ] final  121.32 input   59.86 | X-H torsion
[ 10167 10162 10161 10158 ] final -101.31 input  -65.29 | X-H torsion
[ 10718 10713 10712 10709 ] final  -87.53 input   66.30 | X-H torsion
[ 10763 10752 10751 10750 ] final  131.10 input  -60.55 | X-H torsion
[ 11005 11000 10999 10996 ] final -123.70 input  -57.11 | X-H torsion

> <Gold.Protein.ActiveResidues>
 VAL166  LYS551  ARG553  GLY616  TRP617  ASP618  TYR619  PRO620  LYS621  CYS622 
 ASP623  PHE694  ASN695  SER759  ASP760  ASP761  ALA762  ILE779  LEU786  VAL792 
 PHE793  MET794  SER795  GLU796  ALA797  LYS798  CYS799  TRP800  GLU811  SER814 

> <Gold.Protein.RotatedAtoms>
  151.8921  135.0412  160.0498 H   0  0  0  0  0  0  0  0  0  0  0  0  # atno 6907 bound_to 6896
  152.2427  133.5144  159.5288 H   0  0  0  0  0  0  0  0  0  0  0  0  # atno 6908 bound_to 6896
  150.7058  134.0983  159.3999 H   0  0  0  0  0  0  0  0  0  0  0  0  # atno 6909 bound_to 6896
  144.7150  140.1833  143.6356 H   0  0  0  0  0  0  0  0  0  0  0  0  # atno 7974 bound_to 7965
  156.2681  140.2811  156.1289 H   0  0  0  0  0  0  0  0  0  0  0  0  # atno 8008 bound_to 7997
  155.1076  140.0390  157.2732 H   0  0  0  0  0  0  0  0  0  0  0  0  # atno 8009 bound_to 7997
  154.6767  140.2600  155.6956 H   0  0  0  0  0  0  0  0  0  0  0  0  # atno 8010 bound_to 7997
  140.2426  143.3528  152.0788 H   0  0  0  0  0  0  0  0  0  0  0  0  # atno 10167 bound_to 10162
  155.9985  130.4803  150.4882 H   0  0  0  0  0  0  0  0  0  0  0  0  # atno 10718 bound_to 10713
  153.7688  135.3185  155.3348 H   0  0  0  0  0  0  0  0  0  0  0  0  # atno 10763 bound_to 10752
  154.8204  135.4607  154.0765 H   0  0  0  0  0  0  0  0  0  0  0  0  # atno 10764 bound_to 10752
  153.2018  135.6923  153.8306 H   0  0  0  0  0  0  0  0  0  0  0  0  # atno 10765 bound_to 10752
  140.9898  134.0555  157.3668 H   0  0  0  0  0  0  0  0  0  0  0  0  # atno 11005 bound_to 11000
  145.8836  139.2336  143.1591 LP  0  0  0  0  0  0  0  0  0  0  0  0  # atno 17320 bound_to 7965
  145.9971  140.8552  143.0037 LP  0  0  0  0  0  0  0  0  0  0  0  0  # atno 17321 bound_to 7965
  139.5072  144.6828  151.5965 LP  0  0  0  0  0  0  0  0  0  0  0  0  # atno 17342 bound_to 10162
  140.6102  143.9451  150.6447 LP  0  0  0  0  0  0  0  0  0  0  0  0  # atno 17343 bound_to 10162
  157.2880  131.0620  151.2153 LP  0  0  0  0  0  0  0  0  0  0  0  0  # atno 17370 bound_to 10713
  157.3176  130.6921  149.6251 LP  0  0  0  0  0  0  0  0  0  0  0  0  # atno 17371 bound_to 10713
  139.8987  135.0155  156.7161 LP  0  0  0  0  0  0  0  0  0  0  0  0  # atno 17394 bound_to 11000
  140.7057  133.9267  155.8052 LP  0  0  0  0  0  0  0  0  0  0  0  0  # atno 17395 bound_to 11000

$$$$
