AV-unprocessed.smi:2283|AV-procd|sdf|9199|dock2
  -GOLD-   2272012413D 1   1.00000     0.00000
 Structure written by MMmdl.
 37 38  0  0  0  0  0  0  0  0  1 V2000
  152.6276  141.3224  161.0232 C   0  0  0  0  0  0  0  0  0  0  0  0
  152.3645  142.6930  160.4233 C   0  0  0  0  0  0  0  0  0  0  0  0
  152.4577  143.8243  161.2628 C   0  0  0  0  0  0  0  0  0  0  0  0
  152.2083  145.1134  160.7584 C   0  0  0  0  0  0  0  0  0  0  0  0
  151.8586  145.2806  159.4074 C   0  0  0  0  0  0  0  0  0  0  0  0
  151.7651  144.1591  158.5628 C   0  0  0  0  0  0  0  0  0  0  0  0
  152.0233  142.8578  159.0539 C   0  0  0  0  0  0  0  0  0  0  0  0
  151.9069  141.6669  158.1018 C   0  0  2  0  0  0  0  0  0  0  0  0
  153.0929  140.8950  158.0909 O   0  0  0  0  0  0  0  0  0  0  0  0
  151.6139  142.1409  156.6603 C   0  0  0  0  0  0  0  0  0  0  0  0
  150.8874  141.1307  155.8705 N   0  0  0  0  0  0  0  0  0  0  0  0
  149.5884  141.4766  155.4626 C   0  0  0  0  0  0  0  0  0  0  0  0
  148.8581  140.6709  154.7631 N   0  0  0  0  0  0  0  0  0  0  0  0
  149.3600  139.4205  154.3910 C   0  0  0  0  0  0  0  0  0  0  0  0
  148.4226  138.5558  153.5671 C   0  0  0  0  0  0  0  0  0  0  0  0
  150.6112  139.0252  154.7522 C   0  0  0  0  0  0  0  0  0  0  0  0
  151.2121  137.6771  154.3734 C   0  0  0  0  0  0  0  0  0  0  0  0
  151.4528  139.9307  155.5508 C   0  0  0  0  0  0  0  0  0  0  0  0
  152.5939  139.6363  155.9104 O   0  0  0  0  0  0  0  0  0  0  0  0
  152.7919  141.3834  162.0995 H   0  0  0  0  0  0  0  0  0  0  0  0
  153.5141  140.8714  160.5769 H   0  0  0  0  0  0  0  0  0  0  0  0
  151.7760  140.6634  160.8577 H   0  0  0  0  0  0  0  0  0  0  0  0
  152.7193  143.7084  162.3045 H   0  0  0  0  0  0  0  0  0  0  0  0
  152.2807  145.9724  161.4090 H   0  0  0  0  0  0  0  0  0  0  0  0
  151.6608  146.2686  159.0185 H   0  0  0  0  0  0  0  0  0  0  0  0
  151.4895  144.3056  157.5286 H   0  0  0  0  0  0  0  0  0  0  0  0
  151.1165  140.9998  158.4421 H   0  0  0  0  0  0  0  0  0  0  0  0
  152.9671  140.1637  157.5056 H   0  0  0  0  0  0  0  0  0  0  0  0
  151.0038  143.0455  156.6995 H   0  0  0  0  0  0  0  0  0  0  0  0
  152.5366  142.4601  156.1707 H   0  0  0  0  0  0  0  0  0  0  0  0
  149.2461  142.4656  155.7722 H   0  0  0  0  0  0  0  0  0  0  0  0
  148.2079  137.6220  154.0872 H   0  0  0  0  0  0  0  0  0  0  0  0
  148.8694  138.3225  152.6003 H   0  0  0  0  0  0  0  0  0  0  0  0
  147.4739  139.0612  153.3827 H   0  0  0  0  0  0  0  0  0  0  0  0
  152.1203  137.8224  153.7873 H   0  0  0  0  0  0  0  0  0  0  0  0
  150.5387  137.0563  153.7848 H   0  0  0  0  0  0  0  0  0  0  0  0
  151.4747  137.1166  155.2712 H   0  0  0  0  0  0  0  0  0  0  0  0
  1  2  1  0  0  0  0
  1 20  1  0  0  0  0
  1 21  1  0  0  0  0
  1 22  1  0  0  0  0
  2  7  1  0  0  0  0
  2  3  2  0  0  0  0
  3  4  1  0  0  0  0
  3 23  1  0  0  0  0
  4  5  2  0  0  0  0
  4 24  1  0  0  0  0
  5  6  1  0  0  0  0
  5 25  1  0  0  0  0
  6  7  2  0  0  0  0
  6 26  1  0  0  0  0
  7  8  1  0  0  0  0
  8  9  1  0  0  0  0
  8 10  1  0  0  0  0
  8 27  1  0  0  0  0
  9 28  1  0  0  0  0
 10 11  1  0  0  0  0
 10 29  1  0  0  0  0
 10 30  1  0  0  0  0
 11 18  1  0  0  0  0
 11 12  1  0  0  0  0
 12 13  2  0  0  0  0
 12 31  1  0  0  0  0
 13 14  1  0  0  0  0
 14 15  1  0  0  0  0
 14 16  2  0  0  0  0
 15 32  1  0  0  0  0
 15 33  1  0  0  0  0
 15 34  1  0  0  0  0
 16 17  1  0  0  0  0
 16 18  1  0  0  0  0
 17 35  1  0  0  0  0
 17 36  1  0  0  0  0
 17 37  1  0  0  0  0
 18 19  2  0  0  0  0
M  END
> <s_m_source_file>
AV-unprocessed.smi

> <i_m_source_file_index>
2283

> <i_lp_mmshare_version>
43012

> <i_f3d_flags>
0

> <s_epik_input>
W0NIM11jMVtjSF1bY0hdW2NIXVtjSF1jMVtDQEhdKFtPSF0pW0NIMl1uMltjSF1uYyhbQ0gzXSljKFtDSDNdKWMyPU8=

> <s_epik_cmdline>
J2VwaWtfcHl0aG9uJywgJy1waCcsICc3LjAnLCAnLXRuJywgJzgnLCAnLW1hJywgJzIwMCcsICctbWV0YWxfYmluZGluZycsICctaW1hZScsICc8aW5maWxlLm1hZT4nLCAnLW9tYWUnLCAnPG91dGZpbGUubWFlPic=

> <r_lp_tautomer_probability>
1

> <r_epik_Ionization_Penalty>
5.07259e-05

> <r_epik_Ionization_Penalty_Charging>
7.56727e-08

> <r_epik_Ionization_Penalty_Neutral>
5.06502e-05

> <r_epik_State_Penalty>
-0

> <r_epik_Charging_Adjusted_Penalty>
7.56727e-08

> <i_epik_Tot_Q>
0

> <i_epik_Tot_abs_Q>
0

> <r_epik_Metal_State_Penalty>
-0

> <b_epik_Metal_Only>
0

> <s_lp_Force_Field>
OPLS_2005

> <r_lp_Energy>
20.4761

> <b_lp_Chiralities_Consistent>
1

> <s_lp_Variant>
AV-unprocessed.smi:2283-1

> <Gold.Version>
5.8.1

> <Gold.Id.Protein>
6NUR|6NUR_protein|mol2

> <Gold.PLP.Fitness>
43.5590

> <Gold.PLP.PLP>
-38.2869

> <Gold.PLP.part.hbond>
-2.0000

> <Gold.PLP.part.metal>
0.0000

> <Gold.PLP.part.buried>
2.1863

> <Gold.PLP.part.nonpolar>
-37.5063

> <Gold.PLP.part.repulsive>
0.1017

> <Gold.PLP.ligand.clash>
0.0129

> <Gold.PLP.ligand.torsion>
0.3619

> <Gold.PLP.Chemscore.Hbond>
1.0000

> <Gold.PLP.Chemscore.CHOScore>
1.0000

> <Gold.PLP.Chemscore.Metal>
0.0000

> <Gold.Chemscore.Hbonds>
donor molecule, donor type, donor heavy atom, donor atom, acceptor molecule, acceptor atom, score
      P1  H  7997  8009       L1    19  1.00
      L1  C    12    31       P1  8028  1.00

> <Gold.PLP.Chemscore.Internal.Correction>
0.0088

> <Gold.Rescore>
     Score         DG    S(hbond)    S(metal)    S(lipo)     H(rot)  DE(clash)    DE(int)     intcor
     12.96     -18.55       1.00        0.00     124.84       1.91       2.77       2.82       ----

> <Gold.Chemscore.Fitness>
12.9564

> <Gold.Chemscore.DG>
-18.5469

> <Gold.Chemscore.ZeroCoef>
-5.4800

> <Gold.Chemscore.Hbond>
0.9999

> <Gold.Chemscore.Metal>
0.0000

> <Gold.Chemscore.Lipo>
124.8446

> <Gold.Chemscore.Internal_Hbond>
0.0000

> <Gold.Chemscore.DEClash>
2.7697

> <Gold.Chemscore.DEInternal>
2.8207

> <Gold.Chemscore.Rot>
1.9061

> <Gold.Chemscore.Internal.Correction>
   9.000000E+99

> <Gold.Chemscore.Hbonds>
donor molecule, donor type, donor heavy atom, donor atom, acceptor molecule, acceptor atom, score
      P1  H  7997  8009       L1    19  1.00

> <Gold.Chemscore.Hbond.Weighted>
-3.3398

> <Gold.Chemscore.Metal.Weighted>
-0.0000

> <Gold.Chemscore.Lipo.Weighted>
-14.6068

> <Gold.Chemscore.Internal_Hbond.Weighted>
0.0000

> <Gold.Chemscore.DEClash.Weighted>
2.7697

> <Gold.Chemscore.DEInternal.Weighted>
2.8207

> <Gold.Chemscore.Rot.Weighted>
4.8797

> <Gold.Chemscore.Internal.Correction.Weighted>
   9.000000E+99

> <Gold.Protein.RotatedTorsions>
[ 6907 6896 6895 6894 ] final  -28.74 input  -60.11 | X-H torsion
[ 7974 7965 7964 7962 ] final  -28.09 input  175.53 | X-H torsion
[ 8008 7997 7996 7995 ] final -144.69 input   59.86 | X-H torsion
[ 10167 10162 10161 10158 ] final -116.61 input  -65.29 | X-H torsion
[ 10718 10713 10712 10709 ] final  145.83 input   66.30 | X-H torsion
[ 10763 10752 10751 10750 ] final  162.78 input  -60.55 | X-H torsion
[ 11005 11000 10999 10996 ] final   61.95 input  -57.11 | X-H torsion

> <Gold.Protein.ActiveResidues>
 VAL166  LYS551  ARG553  GLY616  TRP617  ASP618  TYR619  PRO620  LYS621  CYS622 
 ASP623  PHE694  ASN695  SER759  ASP760  ASP761  ALA762  ILE779  LEU786  VAL792 
 PHE793  MET794  SER795  GLU796  ALA797  LYS798  CYS799  TRP800  GLU811  SER814 

> <Gold.Protein.RotatedAtoms>
  151.1288  135.0119  159.8572 H   0  0  0  0  0  0  0  0  0  0  0  0  # atno 6907 bound_to 6896
  152.5450  134.1635  159.8577 H   0  0  0  0  0  0  0  0  0  0  0  0  # atno 6908 bound_to 6896
  151.1700  133.4745  159.2627 H   0  0  0  0  0  0  0  0  0  0  0  0  # atno 6909 bound_to 6896
  146.1312  140.5238  142.8692 H   0  0  0  0  0  0  0  0  0  0  0  0  # atno 7974 bound_to 7965
  155.5310  140.0599  157.2889 H   0  0  0  0  0  0  0  0  0  0  0  0  # atno 8008 bound_to 7997
  154.4484  140.1936  156.0539 H   0  0  0  0  0  0  0  0  0  0  0  0  # atno 8009 bound_to 7997
  156.0652  140.3267  155.7513 H   0  0  0  0  0  0  0  0  0  0  0  0  # atno 8010 bound_to 7997
  140.0773  143.4820  152.1946 H   0  0  0  0  0  0  0  0  0  0  0  0  # atno 10167 bound_to 10162
  157.3405  131.0935  151.1086 H   0  0  0  0  0  0  0  0  0  0  0  0  # atno 10718 bound_to 10713
  154.2836  135.2762  155.2686 H   0  0  0  0  0  0  0  0  0  0  0  0  # atno 10763 bound_to 10752
  154.5196  135.5760  153.6674 H   0  0  0  0  0  0  0  0  0  0  0  0  # atno 10764 bound_to 10752
  152.9925  135.6201  154.2996 H   0  0  0  0  0  0  0  0  0  0  0  0  # atno 10765 bound_to 10752
  140.0125  134.6274  155.9759 H   0  0  0  0  0  0  0  0  0  0  0  0  # atno 11005 bound_to 11000
  144.7692  140.5600  143.6681 LP  0  0  0  0  0  0  0  0  0  0  0  0  # atno 17320 bound_to 7965
  145.5256  139.1476  143.3528 LP  0  0  0  0  0  0  0  0  0  0  0  0  # atno 17321 bound_to 7965
  139.5800  144.7506  151.3665 LP  0  0  0  0  0  0  0  0  0  0  0  0  # atno 17342 bound_to 10162
  140.7095  143.7427  150.7542 LP  0  0  0  0  0  0  0  0  0  0  0  0  # atno 17343 bound_to 10162
  157.2300  130.6521  149.5846 LP  0  0  0  0  0  0  0  0  0  0  0  0  # atno 17370 bound_to 10713
  155.9707  130.4602  150.6063 LP  0  0  0  0  0  0  0  0  0  0  0  0  # atno 17371 bound_to 10713
  141.1721  133.6538  156.4689 LP  0  0  0  0  0  0  0  0  0  0  0  0  # atno 17394 bound_to 11000
  140.4529  134.6912  157.5048 LP  0  0  0  0  0  0  0  0  0  0  0  0  # atno 17395 bound_to 11000

$$$$
