AV-unprocessed.smi:1423|AV-procd|sdf|5796|dock8
  -GOLD-   22720 5443D 1   1.00000     0.00000
 Structure written by MMmdl.
 44 45  0  0  0  0  0  0  0  0  2 V2000
  152.9822  139.0676  158.8763 C   0  0  0  0  0  0  0  0  0  0  0  0
  153.0206  139.2982  157.4724 O   0  0  0  0  0  0  0  0  0  0  0  0
  152.1621  138.5787  156.6665 C   0  0  0  0  0  0  0  0  0  0  0  0
  152.1678  138.8318  155.2807 C   0  0  0  0  0  0  0  0  0  0  0  0
  151.2931  138.1048  154.4508 C   0  0  0  0  0  0  0  0  0  0  0  0
  150.4294  137.1484  155.0372 C   0  0  0  0  0  0  0  0  0  0  0  0
  149.5083  136.3414  154.3142 N   0  0  0  0  0  0  0  0  0  0  0  0
  148.6541  135.4136  154.7795 C   0  0  0  0  0  0  0  0  0  0  0  0
  148.5262  135.0874  155.9589 O   0  0  0  0  0  0  0  0  0  0  0  0
  147.9510  134.8579  153.7817 N   0  0  0  0  0  0  0  0  0  0  0  0
  146.9269  133.8259  153.9444 C   0  0  2  0  0  0  0  0  0  0  0  0
  147.1158  132.6627  152.9495 C   0  0  0  0  0  0  0  0  0  0  0  0
  146.7709  133.0739  151.5079 C   0  0  0  0  0  0  0  0  0  0  0  0
  145.3884  133.6155  151.4241 N   0  3  2  0  0  0  0  0  0  0  0  0
  144.9514  133.8892  150.0305 C   0  0  0  0  0  0  0  0  0  0  0  0
  144.6774  132.6146  149.2249 C   0  0  0  0  0  0  0  0  0  0  0  0
  143.4504  132.4762  148.7178 N   0  0  0  0  0  0  0  0  0  0  0  0
  145.5491  131.7607  149.0726 O   0  0  0  0  0  0  0  0  0  0  0  0
  145.2085  134.7887  152.3166 C   0  0  0  0  0  0  0  0  0  0  0  0
  145.5205  134.4286  153.7809 C   0  0  0  0  0  0  0  0  0  0  0  0
  150.5122  136.9616  156.4329 C   0  0  0  0  0  0  0  0  0  0  0  0
  151.3484  137.6544  157.2340 N   0  0  0  0  0  0  0  0  0  0  0  0
  153.7067  139.7167  159.3680 H   0  0  0  0  0  0  0  0  0  0  0  0
  153.2444  138.0364  159.1175 H   0  0  0  0  0  0  0  0  0  0  0  0
  151.9997  139.2940  159.2926 H   0  0  0  0  0  0  0  0  0  0  0  0
  152.8350  139.5696  154.8603 H   0  0  0  0  0  0  0  0  0  0  0  0
  151.3146  138.2902  153.3886 H   0  0  0  0  0  0  0  0  0  0  0  0
  149.5387  136.4512  153.3112 H   0  0  0  0  0  0  0  0  0  0  0  0
  148.1218  135.1884  152.8432 H   0  0  0  0  0  0  0  0  0  0  0  0
  147.0081  133.4346  154.9604 H   0  0  0  0  0  0  0  0  0  0  0  0
  148.1347  132.2764  152.9948 H   0  0  0  0  0  0  0  0  0  0  0  0
  146.4697  131.8346  153.2443 H   0  0  0  0  0  0  0  0  0  0  0  0
  147.4804  133.8203  151.1476 H   0  0  0  0  0  0  0  0  0  0  0  0
  146.8747  132.2053  150.8570 H   0  0  0  0  0  0  0  0  0  0  0  0
  144.0188  134.4549  150.0425 H   0  0  0  0  0  0  0  0  0  0  0  0
  145.6889  134.5121  149.5215 H   0  0  0  0  0  0  0  0  0  0  0  0
  143.2139  131.6587  148.1738 H   0  0  0  0  0  0  0  0  0  0  0  0
  142.7588  133.1955  148.8760 H   0  0  0  0  0  0  0  0  0  0  0  0
  145.8481  135.6057  151.9790 H   0  0  0  0  0  0  0  0  0  0  0  0
  144.1801  135.1458  152.2518 H   0  0  0  0  0  0  0  0  0  0  0  0
  144.7817  133.7068  154.1320 H   0  0  0  0  0  0  0  0  0  0  0  0
  145.4087  135.3079  154.4168 H   0  0  0  0  0  0  0  0  0  0  0  0
  149.8835  136.2347  156.9265 H   0  0  0  0  0  0  0  0  0  0  0  0
  144.7694  132.8967  151.7724 H   0  0  0  0  0  0  0  0  0  0  0  0
  1  2  1  0  0  0  0
  1 23  1  0  0  0  0
  1 24  1  0  0  0  0
  1 25  1  0  0  0  0
  2  3  1  0  0  0  0
  3 22  1  0  0  0  0
  3  4  2  0  0  0  0
  4  5  1  0  0  0  0
  4 26  1  0  0  0  0
  5  6  2  0  0  0  0
  5 27  1  0  0  0  0
  6  7  1  0  0  0  0
  6 21  1  0  0  0  0
  7  8  1  0  0  0  0
  7 28  1  0  0  0  0
  8  9  2  0  0  0  0
  8 10  1  0  0  0  0
 10 11  1  0  0  0  0
 10 29  1  0  0  0  0
 11 20  1  0  0  0  0
 11 12  1  0  0  0  0
 11 30  1  0  0  0  0
 12 13  1  0  0  0  0
 12 31  1  0  0  0  0
 12 32  1  0  0  0  0
 13 14  1  0  0  0  0
 13 33  1  0  0  0  0
 13 34  1  0  0  0  0
 14 15  1  0  0  0  0
 14 19  1  0  0  0  0
 14 44  1  0  0  0  0
 15 16  1  0  0  0  0
 15 35  1  0  0  0  0
 15 36  1  0  0  0  0
 16 17  1  0  0  0  0
 16 18  2  0  0  0  0
 17 37  1  0  0  0  0
 17 38  1  0  0  0  0
 19 20  1  0  0  0  0
 19 39  1  0  0  0  0
 19 40  1  0  0  0  0
 20 41  1  0  0  0  0
 20 42  1  0  0  0  0
 21 22  2  0  0  0  0
 21 43  1  0  0  0  0
M  CHG  1  14   1
M  END
> <s_m_source_file>
AV-unprocessed.smi

> <i_m_source_file_index>
1423

> <i_lp_mmshare_version>
43012

> <i_f3d_flags>
0

> <s_epik_input>
W0NIM11PYzFbY0hdW2NIXWMoW2NIXW4xKVtOSF1DKD1PKVtOSF1bQ0hdMltDSDJdW0NIMl1OKFtDSDJdW0NIMl0yKVtDSDJdQyg9TylbTkgyXQ==

> <s_epik_cmdline>
J2VwaWtfcHl0aG9uJywgJy1waCcsICc3LjAnLCAnLXRuJywgJzgnLCAnLW1hJywgJzIwMCcsICctbWV0YWxfYmluZGluZycsICctaW1hZScsICc8aW5maWxlLm1hZT4nLCAnLW9tYWUnLCAnPG91dGZpbGUubWFlPic=

> <r_lp_tautomer_probability>
1

> <r_epik_Ionization_Penalty>
0.838963

> <r_epik_Ionization_Penalty_Charging>
0.838844

> <r_epik_Ionization_Penalty_Neutral>
0.0001192

> <r_epik_State_Penalty>
0.8734

> <r_epik_Charging_Adjusted_Penalty>
1.71224

> <i_epik_Tot_Q>
1

> <i_epik_Tot_abs_Q>
1

> <r_epik_Metal_State_Penalty>
0.890706

> <b_epik_Metal_Only>
0

> <s_lp_Force_Field>
OPLS_2005

> <r_lp_Energy>
16.4792

> <b_lp_Chiralities_Consistent>
1

> <s_lp_Variant>
AV-unprocessed.smi:1423-3

> <Gold.Version>
5.8.1

> <Gold.Id.Protein>
6NUR|6NUR_protein|mol2

> <Gold.PLP.Fitness>
43.1925

> <Gold.PLP.PLP>
-31.9344

> <Gold.PLP.part.hbond>
-5.0988

> <Gold.PLP.part.metal>
0.0000

> <Gold.PLP.part.buried>
-4.6525

> <Gold.PLP.part.nonpolar>
-22.5476

> <Gold.PLP.part.repulsive>
0.3881

> <Gold.PLP.ligand.clash>
0.0000

> <Gold.PLP.ligand.torsion>
0.2986

> <Gold.PLP.Chemscore.Hbond>
3.9440

> <Gold.PLP.Chemscore.CHOScore>
0.0000

> <Gold.PLP.Chemscore.Metal>
0.0000

> <Gold.Chemscore.Hbonds>
donor molecule, donor type, donor heavy atom, donor atom, acceptor molecule, acceptor atom, score
      L1  H     7    28       P1  7948  1.00
      L1  H    10    29       P1  7948  0.96
      L1  H    17    38       P1 10186  0.50
      P1  H  7997  8009       L1     2  1.00

> <Gold.PLP.Chemscore.Internal.Correction>
0.0234

> <Gold.Rescore>
     Score         DG    S(hbond)    S(metal)    S(lipo)     H(rot)  DE(clash)    DE(int)     intcor
     15.80     -17.62       3.46        0.00      55.89       2.33       0.04       1.79       ----

> <Gold.Chemscore.Fitness>
15.7988

> <Gold.Chemscore.DG>
-17.6243

> <Gold.Chemscore.ZeroCoef>
-5.4800

> <Gold.Chemscore.Hbond>
3.4617

> <Gold.Chemscore.Metal>
0.0000

> <Gold.Chemscore.Lipo>
55.8928

> <Gold.Chemscore.Internal_Hbond>
0.0000

> <Gold.Chemscore.DEClash>
0.0384

> <Gold.Chemscore.DEInternal>
1.7870

> <Gold.Chemscore.Rot>
2.3271

> <Gold.Chemscore.Internal.Correction>
   9.000000E+99

> <Gold.Chemscore.Hbonds>
donor molecule, donor type, donor heavy atom, donor atom, acceptor molecule, acceptor atom, score
      L1  H     7    28       P1  7948  0.51
      L1  H    10    29       P1  7948  0.90
      L1  H    17    38       P1 10186  0.50
      P1  H  7997  8009       L1     2  0.93

> <Gold.Chemscore.Hbond.Weighted>
-11.5622

> <Gold.Chemscore.Metal.Weighted>
-0.0000

> <Gold.Chemscore.Lipo.Weighted>
-6.5395

> <Gold.Chemscore.Internal_Hbond.Weighted>
0.0000

> <Gold.Chemscore.DEClash.Weighted>
0.0384

> <Gold.Chemscore.DEInternal.Weighted>
1.7870

> <Gold.Chemscore.Rot.Weighted>
5.9573

> <Gold.Chemscore.Internal.Correction.Weighted>
   9.000000E+99

> <Gold.Protein.RotatedTorsions>
[ 6907 6896 6895 6894 ] final -129.75 input  -60.11 | X-H torsion
[ 7974 7965 7964 7962 ] final  150.77 input  175.53 | X-H torsion
[ 8008 7997 7996 7995 ] final  178.43 input   59.86 | X-H torsion
[ 10167 10162 10161 10158 ] final   28.06 input  -65.29 | X-H torsion
[ 10718 10713 10712 10709 ] final  118.77 input   66.30 | X-H torsion
[ 10763 10752 10751 10750 ] final   99.90 input  -60.55 | X-H torsion
[ 11005 11000 10999 10996 ] final -106.35 input  -57.11 | X-H torsion

> <Gold.Protein.ActiveResidues>
 VAL166  LYS551  ARG553  GLY616  TRP617  ASP618  TYR619  PRO620  LYS621  CYS622 
 ASP623  PHE694  ASN695  SER759  ASP760  ASP761  ALA762  ILE779  LEU786  VAL792 
 PHE793  MET794  SER795  GLU796  ALA797  LYS798  CYS799  TRP800  GLU811  SER814 

> <Gold.Protein.RotatedAtoms>
  150.9321  133.6755  159.2808 H   0  0  0  0  0  0  0  0  0  0  0  0  # atno 6907 bound_to 6896
  151.4173  135.0992  159.9613 H   0  0  0  0  0  0  0  0  0  0  0  0  # atno 6908 bound_to 6896
  152.5031  133.8781  159.7387 H   0  0  0  0  0  0  0  0  0  0  0  0  # atno 6909 bound_to 6896
  144.8340  139.6452  143.6046 H   0  0  0  0  0  0  0  0  0  0  0  0  # atno 7974 bound_to 7965
  156.0547  140.1333  157.0010 H   0  0  0  0  0  0  0  0  0  0  0  0  # atno 8008 bound_to 7997
  154.4452  140.1003  156.6499 H   0  0  0  0  0  0  0  0  0  0  0  0  # atno 8009 bound_to 7997
  155.5469  140.3462  155.4462 H   0  0  0  0  0  0  0  0  0  0  0  0  # atno 8010 bound_to 7997
  140.4885  144.0504  150.6289 H   0  0  0  0  0  0  0  0  0  0  0  0  # atno 10167 bound_to 10162
  157.6008  131.1051  150.7803 H   0  0  0  0  0  0  0  0  0  0  0  0  # atno 10718 bound_to 10713
  153.3072  135.4097  155.1304 H   0  0  0  0  0  0  0  0  0  0  0  0  # atno 10763 bound_to 10752
  154.8566  135.3556  154.5772 H   0  0  0  0  0  0  0  0  0  0  0  0  # atno 10764 bound_to 10752
  153.6199  135.7065  153.5373 H   0  0  0  0  0  0  0  0  0  0  0  0  # atno 10765 bound_to 10752
  141.1009  133.8886  157.1845 H   0  0  0  0  0  0  0  0  0  0  0  0  # atno 11005 bound_to 11000
  146.2640  139.6477  142.9342 LP  0  0  0  0  0  0  0  0  0  0  0  0  # atno 17320 bound_to 7965
  145.4835  141.0438  143.2633 LP  0  0  0  0  0  0  0  0  0  0  0  0  # atno 17321 bound_to 7965
  140.3766  143.2825  152.0218 LP  0  0  0  0  0  0  0  0  0  0  0  0  # atno 17342 bound_to 10162
  139.4846  144.6188  151.7295 LP  0  0  0  0  0  0  0  0  0  0  0  0  # atno 17343 bound_to 10162
  156.8202  130.4981  149.5344 LP  0  0  0  0  0  0  0  0  0  0  0  0  # atno 17370 bound_to 10713
  156.1080  130.6019  151.0002 LP  0  0  0  0  0  0  0  0  0  0  0  0  # atno 17371 bound_to 10713
  139.9860  135.0082  156.9864 LP  0  0  0  0  0  0  0  0  0  0  0  0  # atno 17394 bound_to 11000
  140.5024  134.1083  155.7253 LP  0  0  0  0  0  0  0  0  0  0  0  0  # atno 17395 bound_to 11000

$$$$
