AV-unprocessed.smi:3336|AV-procd|sdf|12857|dock8
  -GOLD-   2272019253D 1   1.00000     0.00000
 Structure written by MMmdl.
 41 42  0  0  0  0  0  0  0  0  1 V2000
  149.0017  133.3188  153.8949 C   0  0  0  0  0  0  0  0  0  0  0  0
  147.5822  133.7333  153.4750 C   0  0  2  0  0  0  0  0  0  0  0  0
  147.2487  133.3218  152.0178 C   0  0  0  0  0  0  0  0  0  0  0  0
  146.0315  133.9217  151.4939 N   0  0  0  0  0  0  0  0  0  0  0  0
  145.7884  135.2457  151.1923 C   0  0  0  0  0  0  0  0  0  0  0  0
  144.5089  135.3286  150.7230 C   0  0  0  0  0  0  0  0  0  0  0  0
  144.0444  133.9844  150.7698 C   0  0  0  0  0  0  0  0  0  0  0  0
  144.9590  133.1447  151.2260 N   0  0  0  0  0  0  0  0  0  0  0  0
  147.4700  135.1767  153.7059 N   0  0  0  0  0  0  0  0  0  0  0  0
  147.8050  135.6671  155.0599 C   0  0  2  0  0  0  0  0  0  0  0  0
  146.9725  134.8950  156.0957 C   0  0  0  0  0  0  0  0  0  0  0  0
  147.5995  137.1891  155.2450 C   0  0  0  0  0  0  0  0  0  0  0  0
  146.4446  137.6202  155.2449 O   0  0  0  0  0  0  0  0  0  0  0  0
  148.6667  138.0117  155.4085 N   0  0  0  0  0  0  0  0  0  0  0  0
  150.0465  137.5157  155.4655 C   0  0  0  0  0  0  0  0  0  0  0  0
  150.8187  138.0621  154.2525 C   0  0  0  0  0  0  0  0  0  0  0  0
  150.7801  139.4859  154.2680 O   0  0  0  0  0  0  0  0  0  0  0  0
  149.4537  140.0046  154.2359 C   0  0  0  0  0  0  0  0  0  0  0  0
  148.6552  139.4798  155.4433 C   0  0  0  0  0  0  0  0  0  0  0  0
  149.1585  132.2510  153.7398 H   0  0  0  0  0  0  0  0  0  0  0  0
  149.1732  133.5227  154.9524 H   0  0  0  0  0  0  0  0  0  0  0  0
  149.7659  133.8529  153.3294 H   0  0  0  0  0  0  0  0  0  0  0  0
  146.8956  133.2054  154.1359 H   0  0  0  0  0  0  0  0  0  0  0  0
  148.0702  133.6237  151.3672 H   0  0  0  0  0  0  0  0  0  0  0  0
  147.1857  132.2386  151.9118 H   0  0  0  0  0  0  0  0  0  0  0  0
  146.5378  136.0099  151.3382 H   0  0  0  0  0  0  0  0  0  0  0  0
  143.9847  136.2140  150.3953 H   0  0  0  0  0  0  0  0  0  0  0  0
  143.0773  133.5962  150.4855 H   0  0  0  0  0  0  0  0  0  0  0  0
  148.0026  135.6681  153.0022 H   0  0  0  0  0  0  0  0  0  0  0  0
  148.8486  135.4163  155.2254 H   0  0  0  0  0  0  0  0  0  0  0  0
  147.2229  135.1908  157.1147 H   0  0  0  0  0  0  0  0  0  0  0  0
  147.1527  133.8222  156.0176 H   0  0  0  0  0  0  0  0  0  0  0  0
  145.9039  135.0622  155.9550 H   0  0  0  0  0  0  0  0  0  0  0  0
  150.5131  137.8562  156.3911 H   0  0  0  0  0  0  0  0  0  0  0  0
  150.1119  136.4272  155.4811 H   0  0  0  0  0  0  0  0  0  0  0  0
  151.8584  137.7371  154.2887 H   0  0  0  0  0  0  0  0  0  0  0  0
  150.3969  137.6850  153.3195 H   0  0  0  0  0  0  0  0  0  0  0  0
  149.5005  141.0933  154.2593 H   0  0  0  0  0  0  0  0  0  0  0  0
  148.9681  139.7260  153.2992 H   0  0  0  0  0  0  0  0  0  0  0  0
  147.6651  139.9263  155.4155 H   0  0  0  0  0  0  0  0  0  0  0  0
  149.1120  139.8205  156.3735 H   0  0  0  0  0  0  0  0  0  0  0  0
  1  2  1  0  0  0  0
  1 20  1  0  0  0  0
  1 21  1  0  0  0  0
  1 22  1  0  0  0  0
  2  3  1  0  0  0  0
  2  9  1  0  0  0  0
  2 23  1  0  0  0  0
  3  4  1  0  0  0  0
  3 24  1  0  0  0  0
  3 25  1  0  0  0  0
  4  8  1  0  0  0  0
  4  5  1  0  0  0  0
  5  6  2  0  0  0  0
  5 26  1  0  0  0  0
  6  7  1  0  0  0  0
  6 27  1  0  0  0  0
  7  8  2  0  0  0  0
  7 28  1  0  0  0  0
  9 10  1  0  0  0  0
  9 29  1  0  0  0  0
 10 11  1  0  0  0  0
 10 12  1  0  0  0  0
 10 30  1  0  0  0  0
 11 31  1  0  0  0  0
 11 32  1  0  0  0  0
 11 33  1  0  0  0  0
 12 13  2  0  0  0  0
 12 14  1  0  0  0  0
 14 19  1  0  0  0  0
 14 15  1  0  0  0  0
 15 16  1  0  0  0  0
 15 34  1  0  0  0  0
 15 35  1  0  0  0  0
 16 17  1  0  0  0  0
 16 36  1  0  0  0  0
 16 37  1  0  0  0  0
 17 18  1  0  0  0  0
 18 19  1  0  0  0  0
 18 38  1  0  0  0  0
 18 39  1  0  0  0  0
 19 40  1  0  0  0  0
 19 41  1  0  0  0  0
M  END
> <s_m_source_file>
AV-unprocessed.smi

> <i_m_source_file_index>
3336

> <i_lp_mmshare_version>
43012

> <i_f3d_flags>
0

> <s_epik_input>
bjFbY0hdW2NIXVtjSF1uMVtDSDJdW0NAQEhdKFtDSDNdKVtOSF1bQ0BIXShbQ0gzXSlDKD1PKU4yW0NIMl1bQ0gyXU9bQ0gyXVtDSDJdMg==

> <s_epik_cmdline>
J2VwaWtfcHl0aG9uJywgJy1waCcsICc3LjAnLCAnLXRuJywgJzgnLCAnLW1hJywgJzIwMCcsICctbWV0YWxfYmluZGluZycsICctaW1hZScsICc8aW5maWxlLm1hZT4nLCAnLW9tYWUnLCAnPG91dGZpbGUubWFlPic=

> <r_lp_tautomer_probability>
1

> <r_epik_Ionization_Penalty>
0.739958

> <r_epik_Ionization_Penalty_Charging>
0

> <r_epik_Ionization_Penalty_Neutral>
0.739958

> <r_epik_State_Penalty>
0.765967

> <r_epik_Charging_Adjusted_Penalty>
0.765967

> <i_epik_Tot_Q>
0

> <i_epik_Tot_abs_Q>
0

> <r_epik_Metal_State_Penalty>
0.765947

> <b_epik_Metal_Only>
0

> <s_lp_Force_Field>
OPLS_2005

> <r_lp_Energy>
28.3859

> <b_lp_Chiralities_Consistent>
1

> <s_lp_Variant>
AV-unprocessed.smi:3336-5

> <Gold.Version>
5.8.1

> <Gold.Id.Protein>
6NUR|6NUR_protein|mol2

> <Gold.PLP.Fitness>
39.5539

> <Gold.PLP.PLP>
-28.0068

> <Gold.PLP.part.hbond>
-1.9936

> <Gold.PLP.part.metal>
0.0000

> <Gold.PLP.part.buried>
-4.0431

> <Gold.PLP.part.nonpolar>
-22.4422

> <Gold.PLP.part.repulsive>
0.2788

> <Gold.PLP.ligand.clash>
0.0000

> <Gold.PLP.ligand.torsion>
0.2839

> <Gold.PLP.Chemscore.Hbond>
2.0000

> <Gold.PLP.Chemscore.CHOScore>
2.0000

> <Gold.PLP.Chemscore.Metal>
0.0000

> <Gold.Chemscore.Hbonds>
donor molecule, donor type, donor heavy atom, donor atom, acceptor molecule, acceptor atom, score
      L1  H     9    29       P1  7948  1.00
      P1  H  7989  7998       L1    17  0.95
      L1  C     5    26       P1  7948  1.00
      L1  C     7    28       P1 10186  1.00

> <Gold.PLP.Chemscore.Internal.Correction>
0.1149

> <Gold.Rescore>
     Score         DG    S(hbond)    S(metal)    S(lipo)     H(rot)  DE(clash)    DE(int)     intcor
     13.93     -14.46       1.96        0.00      60.16       1.79       0.17       0.36       ----

> <Gold.Chemscore.Fitness>
13.9307

> <Gold.Chemscore.DG>
-14.4645

> <Gold.Chemscore.ZeroCoef>
-5.4800

> <Gold.Chemscore.Hbond>
1.9572

> <Gold.Chemscore.Metal>
0.0000

> <Gold.Chemscore.Lipo>
60.1593

> <Gold.Chemscore.Internal_Hbond>
0.0000

> <Gold.Chemscore.DEClash>
0.1746

> <Gold.Chemscore.DEInternal>
0.3593

> <Gold.Chemscore.Rot>
1.7935

> <Gold.Chemscore.Internal.Correction>
   9.000000E+99

> <Gold.Chemscore.Hbonds>
donor molecule, donor type, donor heavy atom, donor atom, acceptor molecule, acceptor atom, score
      L1  H     9    29       P1  7948  0.97
      P1  H  7989  7998       L1    17  0.22

> <Gold.Chemscore.Hbond.Weighted>
-6.5371

> <Gold.Chemscore.Metal.Weighted>
-0.0000

> <Gold.Chemscore.Lipo.Weighted>
-7.0386

> <Gold.Chemscore.Internal_Hbond.Weighted>
0.0000

> <Gold.Chemscore.DEClash.Weighted>
0.1746

> <Gold.Chemscore.DEInternal.Weighted>
0.3593

> <Gold.Chemscore.Rot.Weighted>
4.5912

> <Gold.Chemscore.Internal.Correction.Weighted>
   9.000000E+99

> <Gold.Protein.RotatedTorsions>
[ 6907 6896 6895 6894 ] final  -85.90 input  -60.11 | X-H torsion
[ 7974 7965 7964 7962 ] final -142.61 input  175.53 | X-H torsion
[ 8008 7997 7996 7995 ] final   47.93 input   59.86 | X-H torsion
[ 10167 10162 10161 10158 ] final -129.30 input  -65.29 | X-H torsion
[ 10718 10713 10712 10709 ] final  -47.21 input   66.30 | X-H torsion
[ 10763 10752 10751 10750 ] final   54.77 input  -60.55 | X-H torsion
[ 11005 11000 10999 10996 ] final  108.88 input  -57.11 | X-H torsion

> <Gold.Protein.ActiveResidues>
 VAL166  LYS551  ARG553  GLY616  TRP617  ASP618  TYR619  PRO620  LYS621  CYS622 
 ASP623  PHE694  ASN695  SER759  ASP760  ASP761  ALA762  ILE779  LEU786  VAL792 
 PHE793  MET794  SER795  GLU796  ALA797  LYS798  CYS799  TRP800  GLU811  SER814 

> <Gold.Protein.RotatedAtoms>
  150.6868  134.3133  159.4755 H   0  0  0  0  0  0  0  0  0  0  0  0  # atno 6907 bound_to 6896
  152.1016  134.9335  160.0578 H   0  0  0  0  0  0  0  0  0  0  0  0  # atno 6908 bound_to 6896
  152.0612  133.4028  159.4455 H   0  0  0  0  0  0  0  0  0  0  0  0  # atno 6909 bound_to 6896
  144.8430  140.5936  143.5439 H   0  0  0  0  0  0  0  0  0  0  0  0  # atno 7974 bound_to 7965
  155.3772  140.3427  155.4245 H   0  0  0  0  0  0  0  0  0  0  0  0  # atno 8008 bound_to 7997
  156.1630  140.1607  156.8613 H   0  0  0  0  0  0  0  0  0  0  0  0  # atno 8009 bound_to 7997
  154.5158  140.0779  156.8060 H   0  0  0  0  0  0  0  0  0  0  0  0  # atno 8010 bound_to 7997
  139.9412  143.6161  152.2503 H   0  0  0  0  0  0  0  0  0  0  0  0  # atno 10167 bound_to 10162
  156.2107  130.4160  149.9118 H   0  0  0  0  0  0  0  0  0  0  0  0  # atno 10718 bound_to 10713
  152.9808  135.5733  154.4959 H   0  0  0  0  0  0  0  0  0  0  0  0  # atno 10763 bound_to 10752
  154.4486  135.2778  155.1799 H   0  0  0  0  0  0  0  0  0  0  0  0  # atno 10764 bound_to 10752
  154.3437  135.6224  153.5662 H   0  0  0  0  0  0  0  0  0  0  0  0  # atno 10765 bound_to 10752
  139.8852  134.9443  156.6041 H   0  0  0  0  0  0  0  0  0  0  0  0  # atno 11005 bound_to 11000
  145.4654  139.1508  143.3843 LP  0  0  0  0  0  0  0  0  0  0  0  0  # atno 17320 bound_to 7965
  146.2720  140.4785  142.8811 LP  0  0  0  0  0  0  0  0  0  0  0  0  # atno 17321 bound_to 7965
  139.6703  144.7661  151.1796 LP  0  0  0  0  0  0  0  0  0  0  0  0  # atno 17342 bound_to 10162
  140.7610  143.5876  150.8830 LP  0  0  0  0  0  0  0  0  0  0  0  0  # atno 17343 bound_to 10162
  156.6797  130.8853  151.3574 LP  0  0  0  0  0  0  0  0  0  0  0  0  # atno 17370 bound_to 10713
  157.7037  130.9361  150.0863 LP  0  0  0  0  0  0  0  0  0  0  0  0  # atno 17371 bound_to 10713
  140.7861  133.8620  155.8607 LP  0  0  0  0  0  0  0  0  0  0  0  0  # atno 17394 bound_to 11000
  140.9718  134.1521  157.4570 LP  0  0  0  0  0  0  0  0  0  0  0  0  # atno 17395 bound_to 11000

$$$$
