AV-unprocessed.smi:3324|AV-procd|sdf|12783|dock7
  -GOLD-   2272019133D 1   1.00000     0.00000
 Structure written by MMmdl.
 30 30  0  0  0  0  0  0  0  0  3 V2000
  146.6272  138.1545  150.3569 O   0  0  0  0  0  0  0  0  0  0  0  0
  146.3162  137.8131  151.5023 C   0  0  0  0  0  0  0  0  0  0  0  0
  146.7351  138.7119  152.6671 C   0  0  0  0  0  0  0  0  0  0  0  0
  148.2041  138.6820  152.8040 N   0  3  0  0  0  0  0  0  0  0  0  0
  148.6927  139.0564  154.1435 C   0  0  0  0  0  0  0  0  0  0  0  0
  148.8339  140.5792  154.2720 C   0  0  0  0  0  0  0  0  0  0  0  0
  149.7054  140.9439  155.3718 N   0  0  0  0  0  0  0  0  0  0  0  0
  149.4417  141.7816  156.4352 C   0  0  0  0  0  0  0  0  0  0  0  0
  150.5626  141.8129  157.2144 C   0  0  0  0  0  0  0  0  0  0  0  0
  151.4705  140.9523  156.5358 C   0  0  0  0  0  0  0  0  0  0  0  0
  150.9535  140.4328  155.4336 N   0  0  0  0  0  0  0  0  0  0  0  0
  145.6346  136.7232  151.9494 N   0  5  0  0  0  0  0  0  0  0  0  0
  145.2728  135.5907  151.0959 C   0  0  0  0  0  0  0  0  0  0  0  0
  144.3194  134.6327  151.8349 C   0  0  0  0  0  0  0  0  0  0  0  0
  144.9273  134.1621  152.9237 F   0  0  0  0  0  0  0  0  0  0  0  0
  143.2098  135.2706  152.2118 F   0  0  0  0  0  0  0  0  0  0  0  0
  143.9893  133.6019  151.0550 F   0  0  0  0  0  0  0  0  0  0  0  0
  146.4026  139.7350  152.4858 H   0  0  0  0  0  0  0  0  0  0  0  0
  146.2619  138.3736  153.5906 H   0  0  0  0  0  0  0  0  0  0  0  0
  148.5100  137.7430  152.5898 H   0  0  0  0  0  0  0  0  0  0  0  0
  147.9978  138.6806  154.8960 H   0  0  0  0  0  0  0  0  0  0  0  0
  149.6545  138.5729  154.3207 H   0  0  0  0  0  0  0  0  0  0  0  0
  149.2357  141.0065  153.3517 H   0  0  0  0  0  0  0  0  0  0  0  0
  147.8586  141.0398  154.4358 H   0  0  0  0  0  0  0  0  0  0  0  0
  148.4898  142.2794  156.5487 H   0  0  0  0  0  0  0  0  0  0  0  0
  150.7119  142.3663  158.1298 H   0  0  0  0  0  0  0  0  0  0  0  0
  152.4819  140.6910  156.8096 H   0  0  0  0  0  0  0  0  0  0  0  0
  144.7928  135.9233  150.1743 H   0  0  0  0  0  0  0  0  0  0  0  0
  146.1578  135.0347  150.7834 H   0  0  0  0  0  0  0  0  0  0  0  0
  148.5972  139.3114  152.1194 H   0  0  0  0  0  0  0  0  0  0  0  0
  1  2  2  0  0  0  0
  2  3  1  0  0  0  0
  2 12  1  0  0  0  0
  3  4  1  0  0  0  0
  3 18  1  0  0  0  0
  3 19  1  0  0  0  0
  4  5  1  0  0  0  0
  4 20  1  0  0  0  0
  4 30  1  0  0  0  0
  5  6  1  0  0  0  0
  5 21  1  0  0  0  0
  5 22  1  0  0  0  0
  6  7  1  0  0  0  0
  6 23  1  0  0  0  0
  6 24  1  0  0  0  0
  7 11  1  0  0  0  0
  7  8  1  0  0  0  0
  8  9  2  0  0  0  0
  8 25  1  0  0  0  0
  9 10  1  0  0  0  0
  9 26  1  0  0  0  0
 10 11  2  0  0  0  0
 10 27  1  0  0  0  0
 12 13  1  0  0  0  0
 13 14  1  0  0  0  0
 13 28  1  0  0  0  0
 13 29  1  0  0  0  0
 14 15  1  0  0  0  0
 14 16  1  0  0  0  0
 14 17  1  0  0  0  0
M  CHG  1   4   1
M  CHG  1  12  -1
M  END
> <s_m_source_file>
AV-unprocessed.smi

> <i_m_source_file_index>
3324

> <i_lp_mmshare_version>
43012

> <i_f3d_flags>
0

> <s_epik_input>
RkMoRikoRilbQ0gyXVtOSF1DKD1PKVtDSDJdW05IXVtDSDJdW0NIMl1uMVtjSF1bY0hdW2NIXW4x

> <s_epik_cmdline>
J2VwaWtfcHl0aG9uJywgJy1waCcsICc3LjAnLCAnLXRuJywgJzgnLCAnLW1hJywgJzIwMCcsICctbWV0YWxfYmluZGluZycsICctaW1hZScsICc8aW5maWxlLm1hZT4nLCAnLW9tYWUnLCAnPG91dGZpbGUubWFlPic=

> <r_lp_tautomer_probability>
1

> <r_epik_Ionization_Penalty>
6.17309

> <r_epik_Ionization_Penalty_Charging>
6.17309

> <r_epik_Ionization_Penalty_Neutral>
2.40201e-06

> <r_epik_State_Penalty>
6.46579

> <r_epik_Charging_Adjusted_Penalty>
12.6389

> <i_epik_Tot_Q>
0

> <i_epik_Tot_abs_Q>
2

> <r_epik_Metal_State_Penalty>
2.40143

> <b_epik_Metal_Only>
1

> <s_lp_Force_Field>
OPLS_2005

> <r_lp_Energy>
2.56422

> <b_lp_Chiralities_Consistent>
1

> <s_lp_Variant>
AV-unprocessed.smi:3324-3

> <Gold.Version>
5.8.1

> <Gold.Id.Protein>
6NUR|6NUR_protein|mol2

> <Gold.PLP.Fitness>
45.3715

> <Gold.PLP.PLP>
-30.1307

> <Gold.PLP.part.hbond>
-3.9427

> <Gold.PLP.part.metal>
0.0000

> <Gold.PLP.part.buried>
-2.4140

> <Gold.PLP.part.nonpolar>
-26.8235

> <Gold.PLP.part.repulsive>
2.9709

> <Gold.PLP.ligand.clash>
0.0000

> <Gold.PLP.ligand.torsion>
0.4871

> <Gold.PLP.Chemscore.Hbond>
4.7568

> <Gold.PLP.Chemscore.CHOScore>
0.6191

> <Gold.PLP.Chemscore.Metal>
0.0000

> <Gold.Chemscore.Hbonds>
donor molecule, donor type, donor heavy atom, donor atom, acceptor molecule, acceptor atom, score
      L1  H     4    20       P1  7948  2.00
      L1  H     4    30       P1  7957  1.00
      P1  H  7954  7966       L1     1  0.83
      P1  H  7989  7998       L1    11  0.82
      L1  C     8    25       P1  8028  0.40

> <Gold.PLP.Chemscore.Internal.Correction>
0.0872

> <Gold.Rescore>
     Score         DG    S(hbond)    S(metal)    S(lipo)     H(rot)  DE(clash)    DE(int)     intcor
     13.93     -15.93       3.69        0.00      46.07       2.83       1.59       0.42       ----

> <Gold.Chemscore.Fitness>
13.9278

> <Gold.Chemscore.DG>
-15.9323

> <Gold.Chemscore.ZeroCoef>
-5.4800

> <Gold.Chemscore.Hbond>
3.6878

> <Gold.Chemscore.Metal>
0.0000

> <Gold.Chemscore.Lipo>
46.0741

> <Gold.Chemscore.Internal_Hbond>
0.0000

> <Gold.Chemscore.DEClash>
1.5854

> <Gold.Chemscore.DEInternal>
0.4191

> <Gold.Chemscore.Rot>
2.8342

> <Gold.Chemscore.Internal.Correction>
   9.000000E+99

> <Gold.Chemscore.Hbonds>
donor molecule, donor type, donor heavy atom, donor atom, acceptor molecule, acceptor atom, score
      L1  H     4    20       P1  7948  1.00
      L1  H     4    30       P1  7957  0.96
      P1  H  7954  7966       L1     1  0.77
      P1  H  7989  7998       L1    11  0.20

> <Gold.Chemscore.Hbond.Weighted>
-12.3171

> <Gold.Chemscore.Metal.Weighted>
-0.0000

> <Gold.Chemscore.Lipo.Weighted>
-5.3907

> <Gold.Chemscore.Internal_Hbond.Weighted>
0.0000

> <Gold.Chemscore.DEClash.Weighted>
1.5854

> <Gold.Chemscore.DEInternal.Weighted>
0.4191

> <Gold.Chemscore.Rot.Weighted>
7.2555

> <Gold.Chemscore.Internal.Correction.Weighted>
   9.000000E+99

> <Gold.Protein.RotatedTorsions>
[ 6907 6896 6895 6894 ] final -145.14 input  -60.11 | X-H torsion
[ 7974 7965 7964 7962 ] final  -67.66 input  175.53 | X-H torsion
[ 8008 7997 7996 7995 ] final -123.65 input   59.86 | X-H torsion
[ 10167 10162 10161 10158 ] final -163.32 input  -65.29 | X-H torsion
[ 10718 10713 10712 10709 ] final -116.40 input   66.30 | X-H torsion
[ 10763 10752 10751 10750 ] final -153.53 input  -60.55 | X-H torsion
[ 11005 11000 10999 10996 ] final  -63.84 input  -57.11 | X-H torsion

> <Gold.Protein.ActiveResidues>
 VAL166  LYS551  ARG553  GLY616  TRP617  ASP618  TYR619  PRO620  LYS621  CYS622 
 ASP623  PHE694  ASN695  SER759  ASP760  ASP761  ALA762  ILE779  LEU786  VAL792 
 PHE793  MET794  SER795  GLU796  ALA797  LYS798  CYS799  TRP800  GLU811  SER814 

> <Gold.Protein.RotatedAtoms>
  151.1236  133.5086  159.2601 H   0  0  0  0  0  0  0  0  0  0  0  0  # atno 6907 bound_to 6896
  151.1834  135.0370  159.8812 H   0  0  0  0  0  0  0  0  0  0  0  0  # atno 6908 bound_to 6896
  152.5457  134.1086  159.8402 H   0  0  0  0  0  0  0  0  0  0  0  0  # atno 6909 bound_to 6896
  145.7264  140.9016  143.0603 H   0  0  0  0  0  0  0  0  0  0  0  0  # atno 7974 bound_to 7965
  155.1839  140.0411  157.2887 H   0  0  0  0  0  0  0  0  0  0  0  0  # atno 8008 bound_to 7997
  154.6184  140.2494  155.7552 H   0  0  0  0  0  0  0  0  0  0  0  0  # atno 8009 bound_to 7997
  156.2420  140.2900  156.0481 H   0  0  0  0  0  0  0  0  0  0  0  0  # atno 8010 bound_to 7997
  139.6329  144.0405  152.2030 H   0  0  0  0  0  0  0  0  0  0  0  0  # atno 10167 bound_to 10162
  156.0961  130.6133  150.9031 H   0  0  0  0  0  0  0  0  0  0  0  0  # atno 10718 bound_to 10713
  154.7922  135.3211  154.7751 H   0  0  0  0  0  0  0  0  0  0  0  0  # atno 10763 bound_to 10752
  153.8438  135.6868  153.4804 H   0  0  0  0  0  0  0  0  0  0  0  0  # atno 10764 bound_to 10752
  153.1596  135.4666  154.9695 H   0  0  0  0  0  0  0  0  0  0  0  0  # atno 10765 bound_to 10752
  141.1406  133.6657  156.5741 H   0  0  0  0  0  0  0  0  0  0  0  0  # atno 11005 bound_to 11000
  144.6904  139.9271  143.7470 LP  0  0  0  0  0  0  0  0  0  0  0  0  # atno 17320 bound_to 7965
  146.0578  139.3574  143.0600 LP  0  0  0  0  0  0  0  0  0  0  0  0  # atno 17321 bound_to 7965
  140.0075  144.6248  150.7676 LP  0  0  0  0  0  0  0  0  0  0  0  0  # atno 17342 bound_to 10162
  140.7449  143.2868  151.3442 LP  0  0  0  0  0  0  0  0  0  0  0  0  # atno 17343 bound_to 10162
  157.6122  131.0935  150.8774 LP  0  0  0  0  0  0  0  0  0  0  0  0  # atno 17370 bound_to 10713
  156.8912  130.5213  149.5286 LP  0  0  0  0  0  0  0  0  0  0  0  0  # atno 17371 bound_to 10713
  140.3889  134.7457  157.4709 LP  0  0  0  0  0  0  0  0  0  0  0  0  # atno 17394 bound_to 11000
  140.0581  134.6035  155.8781 LP  0  0  0  0  0  0  0  0  0  0  0  0  # atno 17395 bound_to 11000

$$$$
