AV-unprocessed.smi:1783|AV-procd|sdf|7195|dock5
  -GOLD-   22720 8433D 1   1.00000     0.00000
 Structure written by MMmdl.
 29 30  0  0  0  0  0  0  0  0  2 V2000
  150.0536  141.9672  159.0610 O   0  0  0  0  0  0  0  0  0  0  0  0
  151.1864  142.0984  158.5974 C   0  0  0  0  0  0  0  0  0  0  0  0
  151.5783  141.6671  157.3818 N   0  0  0  0  0  0  0  0  0  0  0  0
  150.8440  141.0034  156.3844 C   0  0  0  0  0  0  0  0  0  0  0  0
  149.5453  141.2652  156.0690 C   0  0  0  0  0  0  0  0  0  0  0  0
  148.8391  140.5493  155.0140 C   0  0  0  0  0  0  0  0  0  0  0  0
  147.3651  140.7441  154.7057 C   0  0  0  0  0  0  0  0  0  0  0  0
  147.0199  140.0027  153.6540 F   0  0  0  0  0  0  0  0  0  0  0  0
  146.6056  140.3790  155.7389 F   0  0  0  0  0  0  0  0  0  0  0  0
  147.1016  142.0191  154.4197 F   0  0  0  0  0  0  0  0  0  0  0  0
  149.6335  139.5983  154.4034 C   0  0  0  0  0  0  0  0  0  0  0  0
  150.9303  139.2974  154.6343 N   0  5  0  0  0  0  0  0  0  0  0  0
  151.5808  139.9727  155.6236 C   0  0  0  0  0  0  0  0  0  0  0  0
  152.7605  139.7428  155.8924 O   0  0  0  0  0  0  0  0  0  0  0  0
  152.2737  142.8002  159.4366 C   0  0  1  0  0  0  0  0  0  0  0  0
  152.8002  144.1032  158.8260 C   0  0  0  0  0  0  0  0  0  0  0  0
  151.7575  145.1326  159.2313 C   0  0  0  0  0  0  0  0  0  0  0  0
  151.1125  144.5298  160.4840 C   0  0  0  0  0  0  0  0  0  0  0  0
  151.7362  143.2607  160.6742 O   0  0  0  0  0  0  0  0  0  0  0  0
  152.5571  141.7904  157.1642 H   0  0  0  0  0  0  0  0  0  0  0  0
  148.9949  142.0363  156.5821 H   0  0  0  0  0  0  0  0  0  0  0  0
  149.1530  138.9826  153.6132 H   0  0  0  0  0  0  0  0  0  0  0  0
  153.0821  142.0913  159.6173 H   0  0  0  0  0  0  0  0  0  0  0  0
  153.7594  144.3524  159.2813 H   0  0  0  0  0  0  0  0  0  0  0  0
  152.9542  144.0616  157.7472 H   0  0  0  0  0  0  0  0  0  0  0  0
  152.2012  146.1106  159.4194 H   0  0  0  0  0  0  0  0  0  0  0  0
  151.0104  145.2481  158.4452 H   0  0  0  0  0  0  0  0  0  0  0  0
  151.2627  145.1548  161.3647 H   0  0  0  0  0  0  0  0  0  0  0  0
  150.0389  144.3985  160.3416 H   0  0  0  0  0  0  0  0  0  0  0  0
  1  2  2  0  0  0  0
  2  3  1  0  0  0  0
  2 15  1  0  0  0  0
  3  4  1  0  0  0  0
  3 20  1  0  0  0  0
  4 13  1  0  0  0  0
  4  5  2  0  0  0  0
  5  6  1  0  0  0  0
  5 21  1  0  0  0  0
  6  7  1  0  0  0  0
  6 11  2  0  0  0  0
  7  8  1  0  0  0  0
  7  9  1  0  0  0  0
  7 10  1  0  0  0  0
 11 12  1  0  0  0  0
 11 22  1  0  0  0  0
 12 13  1  0  0  0  0
 13 14  2  0  0  0  0
 15 19  1  0  0  0  0
 15 16  1  0  0  0  0
 15 23  1  0  0  0  0
 16 17  1  0  0  0  0
 16 24  1  0  0  0  0
 16 25  1  0  0  0  0
 17 18  1  0  0  0  0
 17 26  1  0  0  0  0
 17 27  1  0  0  0  0
 18 19  1  0  0  0  0
 18 28  1  0  0  0  0
 18 29  1  0  0  0  0
M  CHG  1  12  -1
M  END
> <s_m_source_file>
AV-unprocessed.smi

> <i_m_source_file_index>
1783

> <i_lp_mmshare_version>
43012

> <i_f3d_flags>
0

> <s_epik_input>
TzFbQ0gyXVtDSDJdW0NIMl1bQ0BIXTFDKD1PKVtOSF1jMltjSF1jKEMoRikoRilGKVtjSF1bbkhdYzI9Tw==

> <s_epik_cmdline>
J2VwaWtfcHl0aG9uJywgJy1waCcsICc3LjAnLCAnLXRuJywgJzgnLCAnLW1hJywgJzIwMCcsICctbWV0YWxfYmluZGluZycsICctaW1hZScsICc8aW5maWxlLm1hZT4nLCAnLW9tYWUnLCAnPG91dGZpbGUubWFlPic=

> <r_epik_Ionization_Penalty>
2.55264

> <r_epik_Ionization_Penalty_Charging>
0.0580859

> <r_epik_Ionization_Penalty_Neutral>
2.49455

> <r_epik_State_Penalty>
2.65913

> <r_epik_Charging_Adjusted_Penalty>
2.71721

> <i_epik_Tot_Q>
-1

> <i_epik_Tot_abs_Q>
1

> <r_epik_Metal_State_Penalty>
0.516671

> <b_epik_Metal_Only>
0

> <s_lp_Force_Field>
OPLS_2005

> <r_lp_Energy>
34.221

> <b_lp_Chiralities_Consistent>
1

> <s_lp_Variant>
AV-unprocessed.smi:1783-4

> <Gold.Version>
5.8.1

> <Gold.Id.Protein>
6NUR|6NUR_protein|mol2

> <Gold.PLP.Fitness>
44.4989

> <Gold.PLP.PLP>
-42.1768

> <Gold.PLP.part.hbond>
-2.6888

> <Gold.PLP.part.metal>
0.0000

> <Gold.PLP.part.buried>
-4.0973

> <Gold.PLP.part.nonpolar>
-35.8470

> <Gold.PLP.part.repulsive>
0.3338

> <Gold.PLP.ligand.clash>
0.0425

> <Gold.PLP.ligand.torsion>
0.4140

> <Gold.PLP.Chemscore.Hbond>
1.0357

> <Gold.PLP.Chemscore.CHOScore>
0.0000

> <Gold.PLP.Chemscore.Metal>
0.0000

> <Gold.Chemscore.Hbonds>
donor molecule, donor type, donor heavy atom, donor atom, acceptor molecule, acceptor atom, score
      P1  H  7989  7998       L1    12  0.06
      P1  H  7997  8010       L1    14  1.00

> <Gold.PLP.Chemscore.Internal.Correction>
0.0853

> <Gold.Rescore>
     Score         DG    S(hbond)    S(metal)    S(lipo)     H(rot)  DE(clash)    DE(int)     intcor
     14.71     -16.01       1.00        0.00      83.31       1.00       0.03       1.27       ----

> <Gold.Chemscore.Fitness>
14.7132

> <Gold.Chemscore.DG>
-16.0071

> <Gold.Chemscore.ZeroCoef>
-5.4800

> <Gold.Chemscore.Hbond>
1.0000

> <Gold.Chemscore.Metal>
0.0000

> <Gold.Chemscore.Lipo>
83.3084

> <Gold.Chemscore.Internal_Hbond>
0.0000

> <Gold.Chemscore.DEClash>
0.0275

> <Gold.Chemscore.DEInternal>
1.2664

> <Gold.Chemscore.Rot>
1.0000

> <Gold.Chemscore.Internal.Correction>
   9.000000E+99

> <Gold.Chemscore.Hbonds>
donor molecule, donor type, donor heavy atom, donor atom, acceptor molecule, acceptor atom, score
      P1  H  7997  8010       L1    14  1.00

> <Gold.Chemscore.Hbond.Weighted>
-3.3400

> <Gold.Chemscore.Metal.Weighted>
-0.0000

> <Gold.Chemscore.Lipo.Weighted>
-9.7471

> <Gold.Chemscore.Internal_Hbond.Weighted>
0.0000

> <Gold.Chemscore.DEClash.Weighted>
0.0275

> <Gold.Chemscore.DEInternal.Weighted>
1.2664

> <Gold.Chemscore.Rot.Weighted>
2.5600

> <Gold.Chemscore.Internal.Correction.Weighted>
   9.000000E+99

> <Gold.Protein.RotatedTorsions>
[ 6907 6896 6895 6894 ] final   83.76 input  -60.11 | X-H torsion
[ 7974 7965 7964 7962 ] final  -27.00 input  175.53 | X-H torsion
[ 8008 7997 7996 7995 ] final   78.83 input   59.86 | X-H torsion
[ 10167 10162 10161 10158 ] final   -4.93 input  -65.29 | X-H torsion
[ 10718 10713 10712 10709 ] final -112.47 input   66.30 | X-H torsion
[ 10763 10752 10751 10750 ] final  109.88 input  -60.55 | X-H torsion
[ 11005 11000 10999 10996 ] final   55.12 input  -57.11 | X-H torsion

> <Gold.Protein.ActiveResidues>
 VAL166  LYS551  ARG553  GLY616  TRP617  ASP618  TYR619  PRO620  LYS621  CYS622 
 ASP623  PHE694  ASN695  SER759  ASP760  ASP761  ALA762  ILE779  LEU786  VAL792 
 PHE793  MET794  SER795  GLU796  ALA797  LYS798  CYS799  TRP800  GLU811  SER814 

> <Gold.Protein.RotatedAtoms>
  152.5335  134.2845  159.9019 H   0  0  0  0  0  0  0  0  0  0  0  0  # atno 6907 bound_to 6896
  151.2799  133.4208  159.2634 H   0  0  0  0  0  0  0  0  0  0  0  0  # atno 6908 bound_to 6896
  151.0293  134.9543  159.8159 H   0  0  0  0  0  0  0  0  0  0  0  0  # atno 6909 bound_to 6896
  146.1387  140.5094  142.8661 H   0  0  0  0  0  0  0  0  0  0  0  0  # atno 7974 bound_to 7965
  155.8611  140.3453  155.5757 H   0  0  0  0  0  0  0  0  0  0  0  0  # atno 8008 bound_to 7997
  155.7932  140.0874  157.2017 H   0  0  0  0  0  0  0  0  0  0  0  0  # atno 8009 bound_to 7997
  154.4012  140.1479  156.3174 H   0  0  0  0  0  0  0  0  0  0  0  0  # atno 8010 bound_to 7997
  140.6945  143.6367  150.8473 H   0  0  0  0  0  0  0  0  0  0  0  0  # atno 10167 bound_to 10162
  156.0708  130.5922  150.8513 H   0  0  0  0  0  0  0  0  0  0  0  0  # atno 10718 bound_to 10713
  153.4410  135.3766  155.2228 H   0  0  0  0  0  0  0  0  0  0  0  0  # atno 10763 bound_to 10752
  154.8754  135.3863  154.4153 H   0  0  0  0  0  0  0  0  0  0  0  0  # atno 10764 bound_to 10752
  153.4699  135.7087  153.6063 H   0  0  0  0  0  0  0  0  0  0  0  0  # atno 10765 bound_to 10752
  140.0632  134.5573  155.9129 H   0  0  0  0  0  0  0  0  0  0  0  0  # atno 11005 bound_to 11000
  144.7768  140.5757  143.6632 LP  0  0  0  0  0  0  0  0  0  0  0  0  # atno 17320 bound_to 7965
  145.5096  139.1480  143.3612 LP  0  0  0  0  0  0  0  0  0  0  0  0  # atno 17321 bound_to 7965
  140.0083  143.5670  152.2849 LP  0  0  0  0  0  0  0  0  0  0  0  0  # atno 17342 bound_to 10162
  139.6384  144.7652  151.2389 LP  0  0  0  0  0  0  0  0  0  0  0  0  # atno 17343 bound_to 10162
  157.5777  131.0946  150.9319 LP  0  0  0  0  0  0  0  0  0  0  0  0  # atno 17370 bound_to 10713
  156.9522  130.5424  149.5283 LP  0  0  0  0  0  0  0  0  0  0  0  0  # atno 17371 bound_to 10713
  141.1982  133.6600  156.5779 LP  0  0  0  0  0  0  0  0  0  0  0  0  # atno 17394 bound_to 11000
  140.3739  134.7582  157.4616 LP  0  0  0  0  0  0  0  0  0  0  0  0  # atno 17395 bound_to 11000

$$$$
