AV-unprocessed.smi:196|AV-procd|sdf|1538|dock4
  -GOLD-   2262019393D 1   1.00000     0.00000
 Structure written by MMmdl.
 47 50  0  0  0  0  0  0  0  0  1 V2000
  144.0900  135.7500  162.0370 C   0  0  0  0  0  0  0  0  0  0  0  0
  145.4852  135.1552  161.7862 C   0  0  2  0  0  0  0  0  0  0  0  0
  145.9850  134.5349  162.9619 O   0  0  0  0  0  0  0  0  0  0  0  0
  147.3787  134.3649  162.7784 C   0  0  0  0  0  0  0  0  0  0  0  0
  147.8042  135.7052  162.1909 C   0  0  0  0  0  0  0  0  0  0  0  0
  146.6038  136.1352  161.3416 C   0  0  2  0  0  0  0  0  0  0  0  0
  146.2892  137.4784  161.6714 O   0  0  0  0  0  0  0  0  0  0  0  0
  146.9097  136.0676  159.8250 C   0  0  0  0  0  0  0  0  0  0  0  0
  148.0544  136.8735  159.4271 N   0  0  0  0  0  0  0  0  0  0  0  0
  149.3765  136.6369  159.7329 C   0  0  0  0  0  0  0  0  0  0  0  0
  150.2234  137.5128  159.2653 N   0  0  0  0  0  0  0  0  0  0  0  0
  149.4250  138.4153  158.5754 C   0  0  0  0  0  0  0  0  0  0  0  0
  149.6914  139.5947  157.8316 C   0  0  0  0  0  0  0  0  0  0  0  0
  150.9581  140.0697  157.6992 N   0  0  0  0  0  0  0  0  0  0  0  0
  151.2306  141.1335  158.6599 C   0  0  0  0  0  0  0  0  0  0  0  0
  151.1092  142.4589  157.8904 C   0  0  2  0  0  0  0  0  0  0  0  0
  150.0013  143.1161  158.2346 F   0  0  0  0  0  0  0  0  0  0  0  0
  151.0563  142.0633  156.4094 C   0  0  0  0  0  0  0  0  0  0  0  0
  151.4576  140.5789  156.4140 C   0  0  2  0  0  0  0  0  0  0  0  0
  151.0891  139.7836  155.1430 C   0  0  0  0  0  0  0  0  0  0  0  0
  151.4852  138.5094  155.0882 N   0  0  0  0  0  0  0  0  0  0  0  0
  150.4201  140.2882  154.2426 O   0  0  0  0  0  0  0  0  0  0  0  0
  148.6303  140.2510  157.2897 N   0  0  0  0  0  0  0  0  0  0  0  0
  147.3934  139.7708  157.4460 C   0  0  0  0  0  0  0  0  0  0  0  0
  146.9990  138.6780  158.1027 N   0  0  0  0  0  0  0  0  0  0  0  0
  148.0591  138.0267  158.6616 C   0  0  0  0  0  0  0  0  0  0  0  0
  151.9528  143.1150  158.1068 H   0  0  0  0  0  0  0  0  0  0  0  0
  152.5460  140.5252  156.4796 H   0  0  0  0  0  0  0  0  0  0  0  0
  143.7015  136.2335  161.1404 H   0  0  0  0  0  0  0  0  0  0  0  0
  144.1055  136.4868  162.8404 H   0  0  0  0  0  0  0  0  0  0  0  0
  143.3849  134.9694  162.3227 H   0  0  0  0  0  0  0  0  0  0  0  0
  145.3914  134.3573  161.0490 H   0  0  0  0  0  0  0  0  0  0  0  0
  147.8850  134.1345  163.7159 H   0  0  0  0  0  0  0  0  0  0  0  0
  147.5631  133.5510  162.0751 H   0  0  0  0  0  0  0  0  0  0  0  0
  147.9770  136.4061  163.0097 H   0  0  0  0  0  0  0  0  0  0  0  0
  148.7342  135.6315  161.6260 H   0  0  0  0  0  0  0  0  0  0  0  0
  145.3725  137.5253  161.8955 H   0  0  0  0  0  0  0  0  0  0  0  0
  147.0960  135.0368  159.5198 H   0  0  0  0  0  0  0  0  0  0  0  0
  146.0422  136.4002  159.2537 H   0  0  0  0  0  0  0  0  0  0  0  0
  149.6955  135.7915  160.3250 H   0  0  0  0  0  0  0  0  0  0  0  0
  150.5770  141.1104  159.5347 H   0  0  0  0  0  0  0  0  0  0  0  0
  152.2495  141.0030  159.0267 H   0  0  0  0  0  0  0  0  0  0  0  0
  150.0487  142.1961  156.0127 H   0  0  0  0  0  0  0  0  0  0  0  0
  151.7298  142.6701  155.8032 H   0  0  0  0  0  0  0  0  0  0  0  0
  151.2641  137.9464  154.2799 H   0  0  0  0  0  0  0  0  0  0  0  0
  152.0013  138.1127  155.8600 H   0  0  0  0  0  0  0  0  0  0  0  0
  146.6072  140.3459  156.9795 H   0  0  0  0  0  0  0  0  0  0  0  0
  1  2  1  0  0  0  0
  1 29  1  0  0  0  0
  1 30  1  0  0  0  0
  1 31  1  0  0  0  0
  2  6  1  0  0  0  0
  2  3  1  0  0  0  0
  2 32  1  0  0  0  0
  3  4  1  0  0  0  0
  4  5  1  0  0  0  0
  4 33  1  0  0  0  0
  4 34  1  0  0  0  0
  5  6  1  0  0  0  0
  5 35  1  0  0  0  0
  5 36  1  0  0  0  0
  6  7  1  0  0  0  0
  6  8  1  0  0  0  0
  7 37  1  0  0  0  0
  8  9  1  0  0  0  0
  8 38  1  0  0  0  0
  8 39  1  0  0  0  0
  9 26  1  0  0  0  0
  9 10  1  0  0  0  0
 10 11  2  0  0  0  0
 10 40  1  0  0  0  0
 11 12  1  0  0  0  0
 12 26  2  0  0  0  0
 12 13  1  0  0  0  0
 13 14  1  0  0  0  0
 13 23  2  0  0  0  0
 14 19  1  0  0  0  0
 14 15  1  0  0  0  0
 15 16  1  0  0  0  0
 15 41  1  0  0  0  0
 15 42  1  0  0  0  0
 16 27  1  0  0  0  0
 16 17  1  0  0  0  0
 16 18  1  0  0  0  0
 18 19  1  0  0  0  0
 18 43  1  0  0  0  0
 18 44  1  0  0  0  0
 19 28  1  0  0  0  0
 19 20  1  0  0  0  0
 20 21  1  0  0  0  0
 20 22  2  0  0  0  0
 21 45  1  0  0  0  0
 21 46  1  0  0  0  0
 23 24  1  0  0  0  0
 24 25  2  0  0  0  0
 24 47  1  0  0  0  0
 25 26  1  0  0  0  0
M  END
> <s_m_source_file>
AV-unprocessed.smi

> <i_m_source_file_index>
196

> <i_lp_mmshare_version>
43012

> <i_f3d_flags>
0

> <s_epik_input>
W0NIMl0xW0NIMl1PW0NAQEhdKFtDSDNdKVtDQEBdMShbT0hdKVtDSDJdbihbY0hdbjIpYyhjMjMpbltjSF1uYzNONFtDSDJdW0NASF0oRilbQ0gyXVtDQEhdNEMoPU8pW05IMl0=

> <s_epik_cmdline>
J2VwaWtfcHl0aG9uJywgJy1waCcsICc3LjAnLCAnLXRuJywgJzgnLCAnLW1hJywgJzIwMCcsICctbWV0YWxfYmluZGluZycsICctaW1hZScsICc8aW5maWxlLm1hZT4nLCAnLW9tYWUnLCAnPG91dGZpbGUubWFlPic=

> <r_lp_tautomer_probability>
1

> <r_epik_Ionization_Penalty>
0.000857933

> <r_epik_Ionization_Penalty_Charging>
0

> <r_epik_Ionization_Penalty_Neutral>
0.000857933

> <r_epik_State_Penalty>
0.000462053

> <r_epik_Charging_Adjusted_Penalty>
0.000462053

> <i_epik_Tot_Q>
0

> <i_epik_Tot_abs_Q>
0

> <r_epik_Metal_State_Penalty>
-0

> <b_epik_Metal_Only>
0

> <s_lp_Force_Field>
OPLS_2005

> <r_lp_Energy>
50.5725

> <b_lp_Chiralities_Consistent>
1

> <s_lp_Variant>
AV-unprocessed.smi:196-11

> <Gold.Version>
5.8.1

> <Gold.Id.Protein>
6NUR|6NUR_protein|mol2

> <Gold.PLP.Fitness>
40.9355

> <Gold.PLP.PLP>
-36.1667

> <Gold.PLP.part.hbond>
-3.2317

> <Gold.PLP.part.metal>
0.0000

> <Gold.PLP.part.buried>
-4.2900

> <Gold.PLP.part.nonpolar>
-28.8051

> <Gold.PLP.part.repulsive>
0.2827

> <Gold.PLP.ligand.clash>
0.0000

> <Gold.PLP.ligand.torsion>
0.6387

> <Gold.PLP.Chemscore.Hbond>
1.9920

> <Gold.PLP.Chemscore.CHOScore>
0.0000

> <Gold.PLP.Chemscore.Metal>
0.0000

> <Gold.Chemscore.Hbonds>
donor molecule, donor type, donor heavy atom, donor atom, acceptor molecule, acceptor atom, score
      P1  H  6934  6947       L1     7  0.98
      P1  H  7989  7998       L1    22  0.80

> <Gold.PLP.Chemscore.Internal.Correction>
0.0703

> <Gold.Rescore>
     Score         DG    S(hbond)    S(metal)    S(lipo)     H(rot)  DE(clash)    DE(int)     intcor
     10.99     -11.73       1.83        0.00      67.87       3.04       0.09       0.65       ----

> <Gold.Chemscore.Fitness>
10.9944

> <Gold.Chemscore.DG>
-11.7347

> <Gold.Chemscore.ZeroCoef>
-5.4800

> <Gold.Chemscore.Hbond>
1.8263

> <Gold.Chemscore.Metal>
0.0000

> <Gold.Chemscore.Lipo>
67.8658

> <Gold.Chemscore.Internal_Hbond>
0.0000

> <Gold.Chemscore.DEClash>
0.0903

> <Gold.Chemscore.DEInternal>
0.6500

> <Gold.Chemscore.Rot>
3.0413

> <Gold.Chemscore.Internal.Correction>
   9.000000E+99

> <Gold.Chemscore.Hbonds>
donor molecule, donor type, donor heavy atom, donor atom, acceptor molecule, acceptor atom, score
      P1  H  6934  6947       L1     7  0.90
      P1  H  7989  7998       L1    22  0.11

> <Gold.Chemscore.Hbond.Weighted>
-6.1000

> <Gold.Chemscore.Metal.Weighted>
-0.0000

> <Gold.Chemscore.Lipo.Weighted>
-7.9403

> <Gold.Chemscore.Internal_Hbond.Weighted>
0.0000

> <Gold.Chemscore.DEClash.Weighted>
0.0903

> <Gold.Chemscore.DEInternal.Weighted>
0.6500

> <Gold.Chemscore.Rot.Weighted>
7.7856

> <Gold.Chemscore.Internal.Correction.Weighted>
   9.000000E+99

> <Gold.Protein.RotatedTorsions>
[ 6907 6896 6895 6894 ] final  160.87 input  -60.11 | X-H torsion
[ 7974 7965 7964 7962 ] final -106.41 input  175.53 | X-H torsion
[ 8008 7997 7996 7995 ] final -108.41 input   59.86 | X-H torsion
[ 10167 10162 10161 10158 ] final   -2.63 input  -65.29 | X-H torsion
[ 10718 10713 10712 10709 ] final -101.52 input   66.30 | X-H torsion
[ 10763 10752 10751 10750 ] final   58.39 input  -60.55 | X-H torsion
[ 11005 11000 10999 10996 ] final  -47.89 input  -57.11 | X-H torsion

> <Gold.Protein.ActiveResidues>
 VAL166  LYS551  ARG553  GLY616  TRP617  ASP618  TYR619  PRO620  LYS621  CYS622 
 ASP623  PHE694  ASN695  SER759  ASP760  ASP761  ALA762  ILE779  LEU786  VAL792 
 PHE793  MET794  SER795  GLU796  ALA797  LYS798  CYS799  TRP800  GLU811  SER814 

> <Gold.Protein.RotatedAtoms>
  151.9642  133.3705  159.4046 H   0  0  0  0  0  0  0  0  0  0  0  0  # atno 6907 bound_to 6896
  150.6959  134.4209  159.5213 H   0  0  0  0  0  0  0  0  0  0  0  0  # atno 6908 bound_to 6896
  152.1902  134.8678  160.0569 H   0  0  0  0  0  0  0  0  0  0  0  0  # atno 6909 bound_to 6896
  145.2182  140.9123  143.3275 H   0  0  0  0  0  0  0  0  0  0  0  0  # atno 7974 bound_to 7965
  154.9439  140.0402  157.2110 H   0  0  0  0  0  0  0  0  0  0  0  0  # atno 8008 bound_to 7997
  154.8042  140.2857  155.5877 H   0  0  0  0  0  0  0  0  0  0  0  0  # atno 8009 bound_to 7997
  156.2965  140.2549  156.2917 H   0  0  0  0  0  0  0  0  0  0  0  0  # atno 8010 bound_to 7997
  140.6858  143.6635  150.8246 H   0  0  0  0  0  0  0  0  0  0  0  0  # atno 10167 bound_to 10162
  156.0197  130.5377  150.6975 H   0  0  0  0  0  0  0  0  0  0  0  0  # atno 10718 bound_to 10713
  152.9870  135.5608  154.5544 H   0  0  0  0  0  0  0  0  0  0  0  0  # atno 10763 bound_to 10752
  154.4975  135.2795  155.1449 H   0  0  0  0  0  0  0  0  0  0  0  0  # atno 10764 bound_to 10752
  154.2893  135.6329  153.5432 H   0  0  0  0  0  0  0  0  0  0  0  0  # atno 10765 bound_to 10752
  141.0668  133.6691  156.3363 H   0  0  0  0  0  0  0  0  0  0  0  0  # atno 11005 bound_to 11000
  144.9791  139.3802  143.6271 LP  0  0  0  0  0  0  0  0  0  0  0  0  # atno 17320 bound_to 7965
  146.3382  139.8923  142.8807 LP  0  0  0  0  0  0  0  0  0  0  0  0  # atno 17321 bound_to 7965
  140.0342  143.5413  152.2747 LP  0  0  0  0  0  0  0  0  0  0  0  0  # atno 17342 bound_to 10162
  139.6216  144.7630  151.2728 LP  0  0  0  0  0  0  0  0  0  0  0  0  # atno 17343 bound_to 10162
  157.4643  131.0886  151.0712 LP  0  0  0  0  0  0  0  0  0  0  0  0  # atno 17370 bound_to 10713
  157.1191  130.6054  149.5500 LP  0  0  0  0  0  0  0  0  0  0  0  0  # atno 17371 bound_to 10713
  140.5756  134.5797  157.5468 LP  0  0  0  0  0  0  0  0  0  0  0  0  # atno 17394 bound_to 11000
  139.9484  134.7660  156.0506 LP  0  0  0  0  0  0  0  0  0  0  0  0  # atno 17395 bound_to 11000

$$$$
