AV-unprocessed.smi:632|AV-procd|sdf|3128|dock1
  -GOLD-   22720 0 53D 1   1.00000     0.00000
 Structure written by MMmdl.
 41 42  0  0  0  0  0  0  0  0  2 V2000
  150.4030  143.6703  159.1148 C   0  0  0  0  0  0  0  0  0  0  0  0
  151.9200  143.6429  159.3850 C   0  0  0  0  0  0  0  0  0  0  0  0
  152.5914  144.5790  158.3561 C   0  0  0  0  0  0  0  0  0  0  0  0
  152.2314  144.1967  160.7890 C   0  0  0  0  0  0  0  0  0  0  0  0
  152.4372  142.2282  159.2655 C   0  0  0  0  0  0  0  0  0  0  0  0
  152.3393  141.5297  158.1275 N   0  0  0  0  0  0  0  0  0  0  0  0
  152.8756  140.2556  158.2336 N   0  0  0  0  0  0  0  0  0  0  0  0
  153.3832  139.9978  159.4457 C   0  0  0  0  0  0  0  0  0  0  0  0
  153.9483  138.8189  159.7543 N   0  5  0  0  0  0  0  0  0  0  0  0
  154.3469  138.5724  161.0231 C   0  0  0  0  0  0  0  0  0  0  0  0
  154.6870  139.4138  161.8579 O   0  0  0  0  0  0  0  0  0  0  0  0
  154.3507  137.2702  161.3437 N   0  0  0  0  0  0  0  0  0  0  0  0
  154.7284  136.7018  162.6351 C   0  0  2  0  0  0  0  0  0  0  0  0
  154.7545  135.1604  162.5658 C   0  0  0  0  0  0  0  0  0  0  0  0
  155.0740  134.5413  163.9361 C   0  0  0  0  0  0  0  0  0  0  0  0
  154.0846  135.0278  165.0089 C   0  0  1  0  0  0  0  0  0  0  0  0
  154.4508  134.4962  166.2648 O   0  0  0  0  0  0  0  0  0  0  0  0
  154.0647  136.5640  165.0872 C   0  0  0  0  0  0  0  0  0  0  0  0
  153.7437  137.1836  163.7174 C   0  0  0  0  0  0  0  0  0  0  0  0
  153.2099  141.3369  160.5771 S   0  0  0  0  0  0  0  0  0  0  0  0
  150.0054  144.6838  159.1779 H   0  0  0  0  0  0  0  0  0  0  0  0
  149.8573  143.0631  159.8377 H   0  0  0  0  0  0  0  0  0  0  0  0
  150.1705  143.2860  158.1210 H   0  0  0  0  0  0  0  0  0  0  0  0
  152.4012  144.2546  157.3324 H   0  0  0  0  0  0  0  0  0  0  0  0
  153.6719  144.6233  158.4968 H   0  0  0  0  0  0  0  0  0  0  0  0
  152.2152  145.5989  158.4443 H   0  0  0  0  0  0  0  0  0  0  0  0
  151.8826  145.2240  160.8984 H   0  0  0  0  0  0  0  0  0  0  0  0
  153.3035  144.1887  160.9887 H   0  0  0  0  0  0  0  0  0  0  0  0
  151.7484  143.6058  161.5679 H   0  0  0  0  0  0  0  0  0  0  0  0
  154.0654  136.6193  160.6269 H   0  0  0  0  0  0  0  0  0  0  0  0
  155.7241  137.0603  162.9033 H   0  0  0  0  0  0  0  0  0  0  0  0
  153.7889  134.7904  162.2178 H   0  0  0  0  0  0  0  0  0  0  0  0
  155.4930  134.8276  161.8356 H   0  0  0  0  0  0  0  0  0  0  0  0
  155.0459  133.4534  163.8644 H   0  0  0  0  0  0  0  0  0  0  0  0
  156.0928  134.8073  164.2217 H   0  0  0  0  0  0  0  0  0  0  0  0
  153.0844  134.6647  164.7694 H   0  0  0  0  0  0  0  0  0  0  0  0
  155.0200  133.7557  166.1216 H   0  0  0  0  0  0  0  0  0  0  0  0
  153.3294  136.8931  165.8223 H   0  0  0  0  0  0  0  0  0  0  0  0
  155.0328  136.9318  165.4308 H   0  0  0  0  0  0  0  0  0  0  0  0
  153.7730  138.2714  163.7913 H   0  0  0  0  0  0  0  0  0  0  0  0
  152.7237  136.9206  163.4329 H   0  0  0  0  0  0  0  0  0  0  0  0
  1  2  1  0  0  0  0
  1 21  1  0  0  0  0
  1 22  1  0  0  0  0
  1 23  1  0  0  0  0
  2  3  1  0  0  0  0
  2  4  1  0  0  0  0
  2  5  1  0  0  0  0
  3 24  1  0  0  0  0
  3 25  1  0  0  0  0
  3 26  1  0  0  0  0
  4 27  1  0  0  0  0
  4 28  1  0  0  0  0
  4 29  1  0  0  0  0
  5 20  1  0  0  0  0
  5  6  2  0  0  0  0
  6  7  1  0  0  0  0
  7  8  2  0  0  0  0
  8  9  1  0  0  0  0
  8 20  1  0  0  0  0
  9 10  1  0  0  0  0
 10 11  2  0  0  0  0
 10 12  1  0  0  0  0
 12 13  1  0  0  0  0
 12 30  1  0  0  0  0
 13 19  1  0  0  0  0
 13 14  1  0  0  0  0
 13 31  1  0  0  0  0
 14 15  1  0  0  0  0
 14 32  1  0  0  0  0
 14 33  1  0  0  0  0
 15 16  1  0  0  0  0
 15 34  1  0  0  0  0
 15 35  1  0  0  0  0
 16 17  1  0  0  0  0
 16 18  1  0  0  0  0
 16 36  1  0  0  0  0
 17 37  1  0  0  0  0
 18 19  1  0  0  0  0
 18 38  1  0  0  0  0
 18 39  1  0  0  0  0
 19 40  1  0  0  0  0
 19 41  1  0  0  0  0
M  CHG  1   9  -1
M  END
> <s_m_source_file>
AV-unprocessed.smi

> <i_m_source_file_index>
632

> <i_lp_mmshare_version>
43012

> <i_f3d_flags>
0

> <s_epik_input>
W0NIM11DKFtDSDNdKShbQ0gzXSljMW5uYyhzMSlbTkhdQyg9TylbTkhdW0NAQEhdMltDSDJdW0NIMl1bQ0BASF0oW09IXSlbQ0gyXVtDSDJdMg==

> <s_epik_cmdline>
J2VwaWtfcHl0aG9uJywgJy1waCcsICc3LjAnLCAnLXRuJywgJzgnLCAnLW1hJywgJzIwMCcsICctbWV0YWxfYmluZGluZycsICctaW1hZScsICc8aW5maWxlLm1hZT4nLCAnLW9tYWUnLCAnPG91dGZpbGUubWFlPic=

> <r_lp_tautomer_probability>
1

> <r_epik_Ionization_Penalty>
4.62389

> <r_epik_Ionization_Penalty_Charging>
4.45204

> <r_epik_Ionization_Penalty_Neutral>
0.171842

> <r_epik_State_Penalty>
4.45172

> <r_epik_Charging_Adjusted_Penalty>
8.90376

> <i_epik_Tot_Q>
-1

> <i_epik_Tot_abs_Q>
1

> <r_epik_Metal_State_Penalty>
0.795834

> <b_epik_Metal_Only>
1

> <s_lp_Force_Field>
OPLS_2005

> <r_lp_Energy>
0.241417

> <b_lp_Chiralities_Consistent>
1

> <s_lp_Variant>
AV-unprocessed.smi:632-3

> <Gold.Version>
5.8.1

> <Gold.Id.Protein>
6NUR|6NUR_protein|mol2

> <Gold.PLP.Fitness>
42.1610

> <Gold.PLP.PLP>
-40.1376

> <Gold.PLP.part.hbond>
-2.0000

> <Gold.PLP.part.metal>
0.0000

> <Gold.PLP.part.buried>
-1.9713

> <Gold.PLP.part.nonpolar>
-36.4021

> <Gold.PLP.part.repulsive>
0.0442

> <Gold.PLP.ligand.clash>
0.2774

> <Gold.PLP.ligand.torsion>
0.1966

> <Gold.PLP.Chemscore.Hbond>
0.8897

> <Gold.PLP.Chemscore.CHOScore>
0.0000

> <Gold.PLP.Chemscore.Metal>
0.0000

> <Gold.Chemscore.Hbonds>
donor molecule, donor type, donor heavy atom, donor atom, acceptor molecule, acceptor atom, score
      P1  H  7997  8008       L1     7  0.70

> <Gold.PLP.Chemscore.Internal.Correction>
0.0248

> <Gold.Rescore>
     Score         DG    S(hbond)    S(metal)    S(lipo)     H(rot)  DE(clash)    DE(int)     intcor
     12.96     -14.69       0.26        0.00     107.94       1.67       0.06       1.68       ----

> <Gold.Chemscore.Fitness>
12.9557

> <Gold.Chemscore.DG>
-14.6924

> <Gold.Chemscore.ZeroCoef>
-5.4800

> <Gold.Chemscore.Hbond>
0.2599

> <Gold.Chemscore.Metal>
0.0000

> <Gold.Chemscore.Lipo>
107.9420

> <Gold.Chemscore.Internal_Hbond>
0.0000

> <Gold.Chemscore.DEClash>
0.0554

> <Gold.Chemscore.DEInternal>
1.6814

> <Gold.Chemscore.Rot>
1.6737

> <Gold.Chemscore.Internal.Correction>
   9.000000E+99

> <Gold.Chemscore.Hbonds>
donor molecule, donor type, donor heavy atom, donor atom, acceptor molecule, acceptor atom, score
      P1  H  7997  8008       L1     7  0.29

> <Gold.Chemscore.Hbond.Weighted>
-0.8680

> <Gold.Chemscore.Metal.Weighted>
-0.0000

> <Gold.Chemscore.Lipo.Weighted>
-12.6292

> <Gold.Chemscore.Internal_Hbond.Weighted>
0.0000

> <Gold.Chemscore.DEClash.Weighted>
0.0554

> <Gold.Chemscore.DEInternal.Weighted>
1.6814

> <Gold.Chemscore.Rot.Weighted>
4.2848

> <Gold.Chemscore.Internal.Correction.Weighted>
   9.000000E+99

> <Gold.Protein.RotatedTorsions>
[ 6907 6896 6895 6894 ] final  158.20 input  -60.11 | X-H torsion
[ 7974 7965 7964 7962 ] final  171.88 input  175.53 | X-H torsion
[ 8008 7997 7996 7995 ] final  -69.99 input   59.86 | X-H torsion
[ 10167 10162 10161 10158 ] final   44.48 input  -65.29 | X-H torsion
[ 10718 10713 10712 10709 ] final  157.43 input   66.30 | X-H torsion
[ 10763 10752 10751 10750 ] final   14.09 input  -60.55 | X-H torsion
[ 11005 11000 10999 10996 ] final  167.30 input  -57.11 | X-H torsion

> <Gold.Protein.ActiveResidues>
 VAL166  LYS551  ARG553  GLY616  TRP617  ASP618  TYR619  PRO620  LYS621  CYS622 
 ASP623  PHE694  ASN695  SER759  ASP760  ASP761  ALA762  ILE779  LEU786  VAL792 
 PHE793  MET794  SER795  GLU796  ALA797  LYS798  CYS799  TRP800  GLU811  SER814 

> <Gold.Protein.RotatedAtoms>
  152.0039  133.3836  159.4192 H   0  0  0  0  0  0  0  0  0  0  0  0  # atno 6907 bound_to 6896
  150.6907  134.3804  159.5040 H   0  0  0  0  0  0  0  0  0  0  0  0  # atno 6908 bound_to 6896
  152.1555  134.8954  160.0596 H   0  0  0  0  0  0  0  0  0  0  0  0  # atno 6909 bound_to 6896
  144.7283  139.9415  143.6429 H   0  0  0  0  0  0  0  0  0  0  0  0  # atno 7974 bound_to 7965
  154.4979  140.0843  156.7735 H   0  0  0  0  0  0  0  0  0  0  0  0  # atno 8008 bound_to 7997
  155.4073  140.3440  155.4243 H   0  0  0  0  0  0  0  0  0  0  0  0  # atno 8009 bound_to 7997
  156.1418  140.1531  156.8897 H   0  0  0  0  0  0  0  0  0  0  0  0  # atno 8010 bound_to 7997
  140.3338  144.2555  150.6164 H   0  0  0  0  0  0  0  0  0  0  0  0  # atno 10167 bound_to 10162
  157.1916  131.0656  151.2076 H   0  0  0  0  0  0  0  0  0  0  0  0  # atno 10718 bound_to 10713
  153.1656  135.6803  153.8680 H   0  0  0  0  0  0  0  0  0  0  0  0  # atno 10763 bound_to 10752
  153.8061  135.3149  155.3397 H   0  0  0  0  0  0  0  0  0  0  0  0  # atno 10764 bound_to 10752
  154.7963  135.4805  154.0259 H   0  0  0  0  0  0  0  0  0  0  0  0  # atno 10765 bound_to 10752
  140.2754  134.7793  157.3712 H   0  0  0  0  0  0  0  0  0  0  0  0  # atno 11005 bound_to 11000
  146.0781  139.3769  143.0481 LP  0  0  0  0  0  0  0  0  0  0  0  0  # atno 17320 bound_to 7965
  145.7878  140.9828  143.1065 LP  0  0  0  0  0  0  0  0  0  0  0  0  # atno 17321 bound_to 7965
  140.5372  143.2231  151.8143 LP  0  0  0  0  0  0  0  0  0  0  0  0  # atno 17342 bound_to 10162
  139.4852  144.4646  151.9500 LP  0  0  0  0  0  0  0  0  0  0  0  0  # atno 17343 bound_to 10162
  157.3855  130.7254  149.6660 LP  0  0  0  0  0  0  0  0  0  0  0  0  # atno 17370 bound_to 10713
  155.9711  130.4160  150.4212 LP  0  0  0  0  0  0  0  0  0  0  0  0  # atno 17371 bound_to 10713
  140.1334  134.5066  155.8088 LP  0  0  0  0  0  0  0  0  0  0  0  0  # atno 17394 bound_to 11000
  141.2171  133.6798  156.7080 LP  0  0  0  0  0  0  0  0  0  0  0  0  # atno 17395 bound_to 11000

$$$$
