AV-unprocessed.smi:679|AV-procd|sdf|3321|dock1
  -GOLD-   22720 0283D 1   1.00000     0.00000
 Structure written by MMmdl.
 41 43  0  0  0  0  0  0  0  0  1 V2000
  145.9977  142.2352  154.4693 C   0  0  0  0  0  0  0  0  0  0  0  0
  147.3416  141.9586  153.7920 C   0  0  0  0  0  0  0  0  0  0  0  0
  148.3116  141.7002  154.7921 O   0  0  0  0  0  0  0  0  0  0  0  0
  149.2262  140.6792  154.4257 C   0  0  2  0  0  0  0  0  0  0  0  0
  148.5953  139.2977  154.2257 C   0  0  0  0  0  0  0  0  0  0  0  0
  149.8656  138.7439  154.8740 C   0  0  2  0  0  0  0  0  0  0  0  0
  149.6002  137.5989  155.7349 N   0  0  0  0  0  0  0  0  0  0  0  0
  150.5071  136.6653  156.0569 C   0  0  0  0  0  0  0  0  0  0  0  0
  151.6383  136.6200  155.5746 O   0  0  0  0  0  0  0  0  0  0  0  0
  150.0833  135.6467  157.1135 C   0  0  0  0  0  0  0  0  0  0  0  0
  149.4620  136.3184  158.2396 N   0  0  0  0  0  0  0  0  0  0  0  0
  148.2686  136.9038  158.3613 C   0  0  0  0  0  0  0  0  0  0  0  0
  148.0773  137.3732  159.5848 N   0  0  0  0  0  0  0  0  0  0  0  0
  149.2524  137.0391  160.2377 N   0  0  0  0  0  0  0  0  0  0  0  0
  150.0779  136.4129  159.4448 N   0  0  0  0  0  0  0  0  0  0  0  0
  150.0096  140.0926  155.6265 C   0  0  0  0  0  0  0  0  0  0  0  0
  151.4128  140.6398  155.8684 C   0  0  0  0  0  0  0  0  0  0  0  0
  151.2984  141.7475  156.9227 C   0  0  0  0  0  0  0  0  0  0  0  0
  149.9414  141.5457  157.6045 C   0  0  0  0  0  0  0  0  0  0  0  0
  149.3818  140.2492  157.0190 C   0  0  0  0  0  0  0  0  0  0  0  0
  145.2238  142.4423  153.7301 H   0  0  0  0  0  0  0  0  0  0  0  0
  146.0653  143.0968  155.1340 H   0  0  0  0  0  0  0  0  0  0  0  0
  145.6750  141.3788  155.0619 H   0  0  0  0  0  0  0  0  0  0  0  0
  147.2504  141.1036  153.1209 H   0  0  0  0  0  0  0  0  0  0  0  0
  147.6408  142.8197  153.1927 H   0  0  0  0  0  0  0  0  0  0  0  0
  149.8839  140.9656  153.6013 H   0  0  0  0  0  0  0  0  0  0  0  0
  147.6924  139.1477  154.8210 H   0  0  0  0  0  0  0  0  0  0  0  0
  148.4488  139.0093  153.1846 H   0  0  0  0  0  0  0  0  0  0  0  0
  150.6592  138.5826  154.1401 H   0  0  0  0  0  0  0  0  0  0  0  0
  148.6934  137.5578  156.1775 H   0  0  0  0  0  0  0  0  0  0  0  0
  149.3858  134.9245  156.6862 H   0  0  0  0  0  0  0  0  0  0  0  0
  150.9509  135.0905  157.4704 H   0  0  0  0  0  0  0  0  0  0  0  0
  147.5434  136.9757  157.5640 H   0  0  0  0  0  0  0  0  0  0  0  0
  152.0585  139.8467  156.2473 H   0  0  0  0  0  0  0  0  0  0  0  0
  151.8780  141.0104  154.9545 H   0  0  0  0  0  0  0  0  0  0  0  0
  152.1206  141.6930  157.6371 H   0  0  0  0  0  0  0  0  0  0  0  0
  151.3370  142.7311  156.4529 H   0  0  0  0  0  0  0  0  0  0  0  0
  150.0249  141.4988  158.6907 H   0  0  0  0  0  0  0  0  0  0  0  0
  149.2808  142.3787  157.3607 H   0  0  0  0  0  0  0  0  0  0  0  0
  148.2914  140.2561  156.9989 H   0  0  0  0  0  0  0  0  0  0  0  0
  149.6778  139.4255  157.6691 H   0  0  0  0  0  0  0  0  0  0  0  0
  1  2  1  0  0  0  0
  1 21  1  0  0  0  0
  1 22  1  0  0  0  0
  1 23  1  0  0  0  0
  2  3  1  0  0  0  0
  2 24  1  0  0  0  0
  2 25  1  0  0  0  0
  3  4  1  0  0  0  0
  4 16  1  0  0  0  0
  4  5  1  0  0  0  0
  4 26  1  0  0  0  0
  5  6  1  0  0  0  0
  5 27  1  0  0  0  0
  5 28  1  0  0  0  0
  6  7  1  0  0  0  0
  6 16  1  0  0  0  0
  6 29  1  0  0  0  0
  7  8  1  0  0  0  0
  7 30  1  0  0  0  0
  8  9  2  0  0  0  0
  8 10  1  0  0  0  0
 10 11  1  0  0  0  0
 10 31  1  0  0  0  0
 10 32  1  0  0  0  0
 11 15  1  0  0  0  0
 11 12  1  0  0  0  0
 12 13  2  0  0  0  0
 12 33  1  0  0  0  0
 13 14  1  0  0  0  0
 14 15  2  0  0  0  0
 16 20  1  0  0  0  0
 16 17  1  0  0  0  0
 17 18  1  0  0  0  0
 17 34  1  0  0  0  0
 17 35  1  0  0  0  0
 18 19  1  0  0  0  0
 18 36  1  0  0  0  0
 18 37  1  0  0  0  0
 19 20  1  0  0  0  0
 19 38  1  0  0  0  0
 19 39  1  0  0  0  0
 20 40  1  0  0  0  0
 20 41  1  0  0  0  0
M  END
> <s_m_source_file>
AV-unprocessed.smi

> <i_m_source_file_index>
679

> <i_lp_mmshare_version>
43012

> <i_f3d_flags>
0

> <s_epik_input>
W0NIMl0xW0NIMl1bQ0gyXVtDSDJdQzEyW0NASF0oT1tDSDJdW0NIM10pW0NIMl1bQ0BIXTJbTkhdQyg9TylbQ0gyXW4zW2NIXW5ubjM=

> <s_epik_cmdline>
J2VwaWtfcHl0aG9uJywgJy1waCcsICc3LjAnLCAnLXRuJywgJzgnLCAnLW1hJywgJzIwMCcsICctbWV0YWxfYmluZGluZycsICctaW1hZScsICc8aW5maWxlLm1hZT4nLCAnLW9tYWUnLCAnPG91dGZpbGUubWFlPic=

> <r_lp_tautomer_probability>
1

> <r_epik_Ionization_Penalty>
7.96741e-07

> <r_epik_Ionization_Penalty_Charging>
0

> <r_epik_Ionization_Penalty_Neutral>
7.96741e-07

> <r_epik_State_Penalty>
-0

> <r_epik_Charging_Adjusted_Penalty>
0

> <i_epik_Tot_Q>
0

> <i_epik_Tot_abs_Q>
0

> <r_epik_Metal_State_Penalty>
-0

> <b_epik_Metal_Only>
0

> <s_lp_Force_Field>
OPLS_2005

> <r_lp_Energy>
37

> <b_lp_Chiralities_Consistent>
1

> <s_lp_Variant>
AV-unprocessed.smi:679-3

> <Gold.Version>
5.8.1

> <Gold.Id.Protein>
6NUR|6NUR_protein|mol2

> <Gold.PLP.Fitness>
37.1048

> <Gold.PLP.PLP>
-29.5122

> <Gold.PLP.part.hbond>
-4.0979

> <Gold.PLP.part.metal>
0.0000

> <Gold.PLP.part.buried>
-6.1284

> <Gold.PLP.part.nonpolar>
-19.7878

> <Gold.PLP.part.repulsive>
0.2050

> <Gold.PLP.ligand.clash>
0.0000

> <Gold.PLP.ligand.torsion>
0.8714

> <Gold.PLP.Chemscore.Hbond>
2.9859

> <Gold.PLP.Chemscore.CHOScore>
0.0000

> <Gold.PLP.Chemscore.Metal>
0.0000

> <Gold.Chemscore.Hbonds>
donor molecule, donor type, donor heavy atom, donor atom, acceptor molecule, acceptor atom, score
      P1  H  6896  6907       L1    15  1.00
      P1  H  6931  6943       L1    14  0.48
      P1  H  6934  6947       L1    13  0.20
      P1  H 10752 10763       L1     9  1.00

> <Gold.PLP.Chemscore.Internal.Correction>
0.3778

> <Gold.Rescore>
     Score         DG    S(hbond)    S(metal)    S(lipo)     H(rot)  DE(clash)    DE(int)     intcor
     11.95     -13.80       2.21        0.00      60.63       2.41       0.01       1.84       ----

> <Gold.Chemscore.Fitness>
11.9527

> <Gold.Chemscore.DG>
-13.8005

> <Gold.Chemscore.ZeroCoef>
-5.4800

> <Gold.Chemscore.Hbond>
2.2137

> <Gold.Chemscore.Metal>
0.0000

> <Gold.Chemscore.Lipo>
60.6289

> <Gold.Chemscore.Internal_Hbond>
0.0000

> <Gold.Chemscore.DEClash>
0.0110

> <Gold.Chemscore.DEInternal>
1.8369

> <Gold.Chemscore.Rot>
2.4089

> <Gold.Chemscore.Internal.Correction>
   9.000000E+99

> <Gold.Chemscore.Hbonds>
donor molecule, donor type, donor heavy atom, donor atom, acceptor molecule, acceptor atom, score
      P1  H  6896  6907       L1    15  0.74
      P1  H  6931  6943       L1    14  0.10
      P1  H  6934  6947       L1    13  0.08
      P1  H 10752 10763       L1     9  0.97

> <Gold.Chemscore.Hbond.Weighted>
-7.3938

> <Gold.Chemscore.Metal.Weighted>
-0.0000

> <Gold.Chemscore.Lipo.Weighted>
-7.0936

> <Gold.Chemscore.Internal_Hbond.Weighted>
0.0000

> <Gold.Chemscore.DEClash.Weighted>
0.0110

> <Gold.Chemscore.DEInternal.Weighted>
1.8369

> <Gold.Chemscore.Rot.Weighted>
6.1668

> <Gold.Chemscore.Internal.Correction.Weighted>
   9.000000E+99

> <Gold.Protein.RotatedTorsions>
[ 6907 6896 6895 6894 ] final  -40.92 input  -60.11 | X-H torsion
[ 7974 7965 7964 7962 ] final -134.99 input  175.53 | X-H torsion
[ 8008 7997 7996 7995 ] final   79.76 input   59.86 | X-H torsion
[ 10167 10162 10161 10158 ] final  -48.93 input  -65.29 | X-H torsion
[ 10718 10713 10712 10709 ] final -140.97 input   66.30 | X-H torsion
[ 10763 10752 10751 10750 ] final   56.22 input  -60.55 | X-H torsion
[ 11005 11000 10999 10996 ] final  105.73 input  -57.11 | X-H torsion

> <Gold.Protein.ActiveResidues>
 VAL166  LYS551  ARG553  GLY616  TRP617  ASP618  TYR619  PRO620  LYS621  CYS622 
 ASP623  PHE694  ASN695  SER759  ASP760  ASP761  ALA762  ILE779  LEU786  VAL792 
 PHE793  MET794  SER795  GLU796  ALA797  LYS798  CYS799  TRP800  GLU811  SER814 

> <Gold.Protein.RotatedAtoms>
  150.9727  134.9097  159.7797 H   0  0  0  0  0  0  0  0  0  0  0  0  # atno 6907 bound_to 6896
  152.5196  134.3518  159.9264 H   0  0  0  0  0  0  0  0  0  0  0  0  # atno 6908 bound_to 6896
  151.3527  133.3878  159.2716 H   0  0  0  0  0  0  0  0  0  0  0  0  # atno 6909 bound_to 6896
  144.9053  140.6825  143.5059 H   0  0  0  0  0  0  0  0  0  0  0  0  # atno 7974 bound_to 7965
  155.8741  140.3447  155.5842 H   0  0  0  0  0  0  0  0  0  0  0  0  # atno 8008 bound_to 7997
  155.7794  140.0856  157.2086 H   0  0  0  0  0  0  0  0  0  0  0  0  # atno 8009 bound_to 7997
  154.4019  140.1503  156.3021 H   0  0  0  0  0  0  0  0  0  0  0  0  # atno 8010 bound_to 7997
  140.6708  143.2719  151.4142 H   0  0  0  0  0  0  0  0  0  0  0  0  # atno 10167 bound_to 10162
  156.3285  130.7573  151.1686 H   0  0  0  0  0  0  0  0  0  0  0  0  # atno 10718 bound_to 10713
  152.9828  135.5684  154.5193 H   0  0  0  0  0  0  0  0  0  0  0  0  # atno 10763 bound_to 10752
  154.4684  135.2784  155.1663 H   0  0  0  0  0  0  0  0  0  0  0  0  # atno 10764 bound_to 10752
  154.3222  135.6266  153.5566 H   0  0  0  0  0  0  0  0  0  0  0  0  # atno 10765 bound_to 10752
  139.8805  134.9345  156.5558 H   0  0  0  0  0  0  0  0  0  0  0  0  # atno 11005 bound_to 11000
  145.3546  139.1697  143.4416 LP  0  0  0  0  0  0  0  0  0  0  0  0  # atno 17320 bound_to 7965
  146.3130  140.3601  142.8664 LP  0  0  0  0  0  0  0  0  0  0  0  0  # atno 17321 bound_to 7965
  139.5976  144.1364  152.2161 LP  0  0  0  0  0  0  0  0  0  0  0  0  # atno 17342 bound_to 10162
  140.0738  144.5757  150.7172 LP  0  0  0  0  0  0  0  0  0  0  0  0  # atno 17343 bound_to 10162
  157.7426  131.0488  150.5013 LP  0  0  0  0  0  0  0  0  0  0  0  0  # atno 17370 bound_to 10713
  156.5175  130.4154  149.6268 LP  0  0  0  0  0  0  0  0  0  0  0  0  # atno 17371 bound_to 10713
  140.8206  133.8357  155.8892 LP  0  0  0  0  0  0  0  0  0  0  0  0  # atno 17394 bound_to 11000
  140.9422  134.1886  157.4789 LP  0  0  0  0  0  0  0  0  0  0  0  0  # atno 17395 bound_to 11000

$$$$
