AV-unprocessed.smi:1128|AV-procd|sdf|4845|dock5
  -GOLD-   22720 3413D 1   1.00000     0.00000
 Structure written by MMmdl.
 37 38  0  0  0  0  0  0  0  0  2 V2000
  153.0792  138.1424  159.6023 O   0  0  0  0  0  0  0  0  0  0  0  0
  154.0835  138.8063  159.8570 C   0  0  0  0  0  0  0  0  0  0  0  0
  155.2394  138.2601  160.2600 N   0  0  0  0  0  0  0  0  0  0  0  0
  155.4744  136.8323  160.4479 C   0  0  0  0  0  0  0  0  0  0  0  0
  154.6517  136.2449  161.6139 C   0  0  1  0  0  0  0  0  0  0  0  0
  155.0912  134.8070  161.9792 C   0  0  0  0  0  0  0  0  0  0  0  0
  154.5033  134.3300  163.2954 C   0  0  0  0  0  0  0  0  0  0  0  0
  153.9266  135.1500  164.1898 C   0  0  0  0  0  0  0  0  0  0  0  0
  153.8053  136.6488  163.9888 C   0  0  0  0  0  0  0  0  0  0  0  0
  154.7108  137.1589  162.8523 C   0  0  0  0  0  0  0  0  0  0  0  0
  154.1890  140.1460  159.7905 N   0  0  0  0  0  0  0  0  0  0  0  0
  153.2343  141.1089  159.4188 C   0  0  0  0  0  0  0  0  0  0  0  0
  152.9501  142.2427  160.1187 C   0  0  0  0  0  0  0  0  0  0  0  0
  151.9432  143.2003  159.6779 C   0  0  0  0  0  0  0  0  0  0  0  0
  151.5443  144.4306  160.4735 C   0  0  0  0  0  0  0  0  0  0  0  0
  150.2460  144.4062  160.7760 F   0  0  0  0  0  0  0  0  0  0  0  0
  152.2388  144.5121  161.6085 F   0  0  0  0  0  0  0  0  0  0  0  0
  151.7837  145.5297  159.7598 F   0  0  0  0  0  0  0  0  0  0  0  0
  151.3193  142.8053  158.5105 C   0  0  0  0  0  0  0  0  0  0  0  0
  151.5462  141.7099  157.7534 N   0  5  0  0  0  0  0  0  0  0  0  0
  152.4925  140.8232  158.1728 C   0  0  0  0  0  0  0  0  0  0  0  0
  152.7393  139.7974  157.5375 O   0  0  0  0  0  0  0  0  0  0  0  0
  156.0136  138.8781  160.4543 H   0  0  0  0  0  0  0  0  0  0  0  0
  155.2161  136.3246  159.5182 H   0  0  0  0  0  0  0  0  0  0  0  0
  156.5394  136.6548  160.6065 H   0  0  0  0  0  0  0  0  0  0  0  0
  153.6076  136.2034  161.2989 H   0  0  0  0  0  0  0  0  0  0  0  0
  154.7917  134.1128  161.1933 H   0  0  0  0  0  0  0  0  0  0  0  0
  156.1772  134.7475  162.0577 H   0  0  0  0  0  0  0  0  0  0  0  0
  154.5726  133.2726  163.5042 H   0  0  0  0  0  0  0  0  0  0  0  0
  153.5116  134.7453  165.1014 H   0  0  0  0  0  0  0  0  0  0  0  0
  152.7616  136.8769  163.7710 H   0  0  0  0  0  0  0  0  0  0  0  0
  154.0549  137.1590  164.9194 H   0  0  0  0  0  0  0  0  0  0  0  0
  155.7408  137.2136  163.2075 H   0  0  0  0  0  0  0  0  0  0  0  0
  154.4231  138.1775  162.5895 H   0  0  0  0  0  0  0  0  0  0  0  0
  155.0756  140.5369  160.0738 H   0  0  0  0  0  0  0  0  0  0  0  0
  153.4602  142.4715  161.0390 H   0  0  0  0  0  0  0  0  0  0  0  0
  150.5118  143.4671  158.1303 H   0  0  0  0  0  0  0  0  0  0  0  0
  1  2  2  0  0  0  0
  2  3  1  0  0  0  0
  2 11  1  0  0  0  0
  3  4  1  0  0  0  0
  3 23  1  0  0  0  0
  4  5  1  0  0  0  0
  4 24  1  0  0  0  0
  4 25  1  0  0  0  0
  5 10  1  0  0  0  0
  5  6  1  0  0  0  0
  5 26  1  0  0  0  0
  6  7  1  0  0  0  0
  6 27  1  0  0  0  0
  6 28  1  0  0  0  0
  7  8  2  0  0  0  0
  7 29  1  0  0  0  0
  8  9  1  0  0  0  0
  8 30  1  0  0  0  0
  9 10  1  0  0  0  0
  9 31  1  0  0  0  0
  9 32  1  0  0  0  0
 10 33  1  0  0  0  0
 10 34  1  0  0  0  0
 11 12  1  0  0  0  0
 11 35  1  0  0  0  0
 12 21  1  0  0  0  0
 12 13  2  0  0  0  0
 13 14  1  0  0  0  0
 13 36  1  0  0  0  0
 14 15  1  0  0  0  0
 14 19  2  0  0  0  0
 15 16  1  0  0  0  0
 15 17  1  0  0  0  0
 15 18  1  0  0  0  0
 19 20  1  0  0  0  0
 19 37  1  0  0  0  0
 20 21  1  0  0  0  0
 21 22  2  0  0  0  0
M  CHG  1  20  -1
M  END
> <s_m_source_file>
AV-unprocessed.smi

> <i_m_source_file_index>
1128

> <i_lp_mmshare_version>
43012

> <i_f3d_flags>
0

> <s_epik_input>
Tz1jMVtuSF1bY0hdYyhDKEYpKEYpRilbY0hdYzFbTkhdQyg9TylbTkhdW0NIMl1bQ0BASF0yW0NIMl1bQ0hdPVtDSF1bQ0gyXVtDSDJdMg==

> <s_epik_cmdline>
J2VwaWtfcHl0aG9uJywgJy1waCcsICc3LjAnLCAnLXRuJywgJzgnLCAnLW1hJywgJzIwMCcsICctbWV0YWxfYmluZGluZycsICctaW1hZScsICc8aW5maWxlLm1hZT4nLCAnLW9tYWUnLCAnPG91dGZpbGUubWFlPic=

> <r_lp_tautomer_probability>
1

> <r_epik_Ionization_Penalty>
3.16664

> <r_epik_Ionization_Penalty_Charging>
0.172425

> <r_epik_Ionization_Penalty_Neutral>
2.99422

> <r_epik_State_Penalty>
2.99038

> <r_epik_Charging_Adjusted_Penalty>
3.16281

> <i_epik_Tot_Q>
-1

> <i_epik_Tot_abs_Q>
1

> <r_epik_Metal_State_Penalty>
0.453031

> <b_epik_Metal_Only>
1

> <s_lp_Force_Field>
OPLS_2005

> <r_lp_Energy>
22.2299

> <b_lp_Chiralities_Consistent>
1

> <s_lp_Variant>
AV-unprocessed.smi:1128-4

> <Gold.Version>
5.8.1

> <Gold.Id.Protein>
6NUR|6NUR_protein|mol2

> <Gold.PLP.Fitness>
44.0509

> <Gold.PLP.PLP>
-42.1149

> <Gold.PLP.part.hbond>
-1.0000

> <Gold.PLP.part.metal>
0.0000

> <Gold.PLP.part.buried>
-2.7378

> <Gold.PLP.part.nonpolar>
-38.1913

> <Gold.PLP.part.repulsive>
0.1137

> <Gold.PLP.ligand.clash>
0.0000

> <Gold.PLP.ligand.torsion>
0.5638

> <Gold.PLP.Chemscore.Hbond>
1.0000

> <Gold.PLP.Chemscore.CHOScore>
0.0000

> <Gold.PLP.Chemscore.Metal>
0.0000

> <Gold.Chemscore.Hbonds>
donor molecule, donor type, donor heavy atom, donor atom, acceptor molecule, acceptor atom, score
      P1  H  7997  8010       L1    22  1.00

> <Gold.PLP.Chemscore.Internal.Correction>
0.0635

> <Gold.Rescore>
     Score         DG    S(hbond)    S(metal)    S(lipo)     H(rot)  DE(clash)    DE(int)     intcor
     12.68     -16.74       0.91        0.00      98.49       1.29       0.80       3.27       ----

> <Gold.Chemscore.Fitness>
12.6805

> <Gold.Chemscore.DG>
-16.7447

> <Gold.Chemscore.ZeroCoef>
-5.4800

> <Gold.Chemscore.Hbond>
0.9147

> <Gold.Chemscore.Metal>
0.0000

> <Gold.Chemscore.Lipo>
98.4859

> <Gold.Chemscore.Internal_Hbond>
0.0000

> <Gold.Chemscore.DEClash>
0.7990

> <Gold.Chemscore.DEInternal>
3.2652

> <Gold.Chemscore.Rot>
1.2943

> <Gold.Chemscore.Internal.Correction>
   9.000000E+99

> <Gold.Chemscore.Hbonds>
donor molecule, donor type, donor heavy atom, donor atom, acceptor molecule, acceptor atom, score
      P1  H  7997  8010       L1    22  0.44

> <Gold.Chemscore.Hbond.Weighted>
-3.0552

> <Gold.Chemscore.Metal.Weighted>
-0.0000

> <Gold.Chemscore.Lipo.Weighted>
-11.5229

> <Gold.Chemscore.Internal_Hbond.Weighted>
0.0000

> <Gold.Chemscore.DEClash.Weighted>
0.7990

> <Gold.Chemscore.DEInternal.Weighted>
3.2652

> <Gold.Chemscore.Rot.Weighted>
3.3133

> <Gold.Chemscore.Internal.Correction.Weighted>
   9.000000E+99

> <Gold.Protein.RotatedTorsions>
[ 6907 6896 6895 6894 ] final   97.84 input  -60.11 | X-H torsion
[ 7974 7965 7964 7962 ] final -149.63 input  175.53 | X-H torsion
[ 8008 7997 7996 7995 ] final   41.57 input   59.86 | X-H torsion
[ 10167 10162 10161 10158 ] final    2.07 input  -65.29 | X-H torsion
[ 10718 10713 10712 10709 ] final  134.99 input   66.30 | X-H torsion
[ 10763 10752 10751 10750 ] final  144.78 input  -60.55 | X-H torsion
[ 11005 11000 10999 10996 ] final  -35.49 input  -57.11 | X-H torsion

> <Gold.Protein.ActiveResidues>
 VAL166  LYS551  ARG553  GLY616  TRP617  ASP618  TYR619  PRO620  LYS621  CYS622 
 ASP623  PHE694  ASN695  SER759  ASP760  ASP761  ALA762  ILE779  LEU786  VAL792 
 PHE793  MET794  SER795  GLU796  ALA797  LYS798  CYS799  TRP800  GLU811  SER814 

> <Gold.Protein.RotatedAtoms>
  152.5418  134.0671  159.8177 H   0  0  0  0  0  0  0  0  0  0  0  0  # atno 6907 bound_to 6896
  151.0791  133.5397  159.2629 H   0  0  0  0  0  0  0  0  0  0  0  0  # atno 6908 bound_to 6896
  151.2231  135.0534  159.9012 H   0  0  0  0  0  0  0  0  0  0  0  0  # atno 6909 bound_to 6896
  144.7956  140.5040  143.5742 H   0  0  0  0  0  0  0  0  0  0  0  0  # atno 7974 bound_to 7965
  155.2719  140.3366  155.4264 H   0  0  0  0  0  0  0  0  0  0  0  0  # atno 8008 bound_to 7997
  156.2129  140.1777  156.7696 H   0  0  0  0  0  0  0  0  0  0  0  0  # atno 8009 bound_to 7997
  154.5711  140.0670  156.8951 H   0  0  0  0  0  0  0  0  0  0  0  0  # atno 8010 bound_to 7997
  140.6653  143.7196  150.7815 H   0  0  0  0  0  0  0  0  0  0  0  0  # atno 10167 bound_to 10162
  157.4616  131.1074  150.9913 H   0  0  0  0  0  0  0  0  0  0  0  0  # atno 10718 bound_to 10713
  153.9946  135.2929  155.3408 H   0  0  0  0  0  0  0  0  0  0  0  0  # atno 10763 bound_to 10752
  154.7195  135.5115  153.8792 H   0  0  0  0  0  0  0  0  0  0  0  0  # atno 10764 bound_to 10752
  153.0794  135.6674  154.0194 H   0  0  0  0  0  0  0  0  0  0  0  0  # atno 10765 bound_to 10752
  140.9801  133.7061  156.1668 H   0  0  0  0  0  0  0  0  0  0  0  0  # atno 11005 bound_to 11000
  145.5682  139.1482  143.3303 LP  0  0  0  0  0  0  0  0  0  0  0  0  # atno 17320 bound_to 7965
  146.2223  140.5816  142.9012 LP  0  0  0  0  0  0  0  0  0  0  0  0  # atno 17321 bound_to 7965
  140.0872  143.4912  152.2498 LP  0  0  0  0  0  0  0  0  0  0  0  0  # atno 17342 bound_to 10162
  139.5900  144.7546  151.3425 LP  0  0  0  0  0  0  0  0  0  0  0  0  # atno 17343 bound_to 10162
  157.0708  130.5863  149.5402 LP  0  0  0  0  0  0  0  0  0  0  0  0  # atno 17370 bound_to 10713
  156.0031  130.5114  150.7735 LP  0  0  0  0  0  0  0  0  0  0  0  0  # atno 17371 bound_to 10713
  140.7200  134.4369  157.5575 LP  0  0  0  0  0  0  0  0  0  0  0  0  # atno 17394 bound_to 11000
  139.8946  134.8702  156.2168 LP  0  0  0  0  0  0  0  0  0  0  0  0  # atno 17395 bound_to 11000

$$$$
