AV-unprocessed.smi:3345|AV-procd|sdf|12899|dock8
  -GOLD-   2272019313D 1   1.00000     0.00000
 Structure written by MMmdl.
 40 41  0  0  0  0  0  0  0  0  1 V2000
  151.3793  140.6568  157.0549 C   0  0  0  0  0  0  0  0  0  0  0  0
  150.6220  141.9399  156.6891 C   0  0  2  0  0  0  0  0  0  0  0  0
  150.1538  142.7038  157.9469 C   0  0  0  0  0  0  0  0  0  0  0  0
  151.2240  143.2292  158.7981 N   0  0  0  0  0  0  0  0  0  0  0  0
  151.8791  142.1918  159.5908 C   0  0  0  0  0  0  0  0  0  0  0  0
  152.9983  142.7706  160.4732 C   0  0  0  0  0  0  0  0  0  0  0  0
  152.4674  143.7926  161.3107 O   0  0  0  0  0  0  0  0  0  0  0  0
  151.8542  144.8451  160.5733 C   0  0  0  0  0  0  0  0  0  0  0  0
  150.7320  144.2715  159.6910 C   0  0  0  0  0  0  0  0  0  0  0  0
  149.4629  141.6048  155.8658 N   0  0  0  0  0  0  0  0  0  0  0  0
  149.4859  140.8884  154.7302 C   0  0  0  0  0  0  0  0  0  0  0  0
  150.4762  140.2712  154.3368 O   0  0  0  0  0  0  0  0  0  0  0  0
  148.1975  140.9226  153.8949 C   0  0  2  0  0  0  0  0  0  0  0  0
  147.2330  142.0480  154.3219 C   0  0  0  0  0  0  0  0  0  0  0  0
  147.5654  139.6077  153.9249 N   0  0  0  0  0  0  0  0  0  0  0  0
  146.5554  139.1263  153.1967 C   0  0  0  0  0  0  0  0  0  0  0  0
  146.2763  137.8529  153.4353 N   0  0  0  0  0  0  0  0  0  0  0  0
  147.2271  137.5851  154.3785 C   0  0  0  0  0  0  0  0  0  0  0  0
  148.0323  138.5971  154.7001 N   0  0  0  0  0  0  0  0  0  0  0  0
  152.2559  140.8808  157.6635 H   0  0  0  0  0  0  0  0  0  0  0  0
  151.7243  140.1365  156.1607 H   0  0  0  0  0  0  0  0  0  0  0  0
  150.7494  139.9686  157.6193 H   0  0  0  0  0  0  0  0  0  0  0  0
  151.3154  142.5720  156.1333 H   0  0  0  0  0  0  0  0  0  0  0  0
  149.5349  143.5386  157.6147 H   0  0  0  0  0  0  0  0  0  0  0  0
  149.4961  142.0644  158.5376 H   0  0  0  0  0  0  0  0  0  0  0  0
  151.1449  141.6879  160.2210 H   0  0  0  0  0  0  0  0  0  0  0  0
  152.3083  141.4304  158.9410 H   0  0  0  0  0  0  0  0  0  0  0  0
  153.4338  141.9888  161.0952 H   0  0  0  0  0  0  0  0  0  0  0  0
  153.8026  143.1761  159.8580 H   0  0  0  0  0  0  0  0  0  0  0  0
  151.4514  145.5808  161.2695 H   0  0  0  0  0  0  0  0  0  0  0  0
  152.6017  145.3554  159.9648 H   0  0  0  0  0  0  0  0  0  0  0  0
  150.2866  145.0785  159.1082 H   0  0  0  0  0  0  0  0  0  0  0  0
  149.9409  143.8712  160.3267 H   0  0  0  0  0  0  0  0  0  0  0  0
  148.5965  142.0621  156.1098 H   0  0  0  0  0  0  0  0  0  0  0  0
  148.4850  141.1172  152.8604 H   0  0  0  0  0  0  0  0  0  0  0  0
  147.7076  143.0258  154.2339 H   0  0  0  0  0  0  0  0  0  0  0  0
  146.9003  141.9347  155.3545 H   0  0  0  0  0  0  0  0  0  0  0  0
  146.3451  142.0589  153.6890 H   0  0  0  0  0  0  0  0  0  0  0  0
  146.0193  139.7174  152.4687 H   0  0  0  0  0  0  0  0  0  0  0  0
  147.3357  136.6119  154.8343 H   0  0  0  0  0  0  0  0  0  0  0  0
  1  2  1  0  0  0  0
  1 20  1  0  0  0  0
  1 21  1  0  0  0  0
  1 22  1  0  0  0  0
  2  3  1  0  0  0  0
  2 10  1  0  0  0  0
  2 23  1  0  0  0  0
  3  4  1  0  0  0  0
  3 24  1  0  0  0  0
  3 25  1  0  0  0  0
  4  9  1  0  0  0  0
  4  5  1  0  0  0  0
  5  6  1  0  0  0  0
  5 26  1  0  0  0  0
  5 27  1  0  0  0  0
  6  7  1  0  0  0  0
  6 28  1  0  0  0  0
  6 29  1  0  0  0  0
  7  8  1  0  0  0  0
  8  9  1  0  0  0  0
  8 30  1  0  0  0  0
  8 31  1  0  0  0  0
  9 32  1  0  0  0  0
  9 33  1  0  0  0  0
 10 11  1  0  0  0  0
 10 34  1  0  0  0  0
 11 12  2  0  0  0  0
 11 13  1  0  0  0  0
 13 14  1  0  0  0  0
 13 15  1  0  0  0  0
 13 35  1  0  0  0  0
 14 36  1  0  0  0  0
 14 37  1  0  0  0  0
 14 38  1  0  0  0  0
 15 19  1  0  0  0  0
 15 16  1  0  0  0  0
 16 17  2  0  0  0  0
 16 39  1  0  0  0  0
 17 18  1  0  0  0  0
 18 19  2  0  0  0  0
 18 40  1  0  0  0  0
M  END
> <s_m_source_file>
AV-unprocessed.smi

> <i_m_source_file_index>
3345

> <i_lp_mmshare_version>
43012

> <i_f3d_flags>
0

> <s_epik_input>
W0NIMl0xW0NIMl1PW0NIMl1bQ0gyXU4xW0NIMl1bQ0BASF0oW0NIM10pW05IXUMoPU8pW0NASF0oW0NIM10pbjJbY0hdbltjSF1uMg==

> <s_epik_cmdline>
J2VwaWtfcHl0aG9uJywgJy1waCcsICc3LjAnLCAnLXRuJywgJzgnLCAnLW1hJywgJzIwMCcsICctbWV0YWxfYmluZGluZycsICctaW1hZScsICc8aW5maWxlLm1hZT4nLCAnLW9tYWUnLCAnPG91dGZpbGUubWFlPic=

> <r_lp_tautomer_probability>
1

> <r_epik_Ionization_Penalty>
0.211373

> <r_epik_Ionization_Penalty_Charging>
0

> <r_epik_Ionization_Penalty_Neutral>
0.211373

> <r_epik_State_Penalty>
0.201459

> <r_epik_Charging_Adjusted_Penalty>
0.201459

> <i_epik_Tot_Q>
0

> <i_epik_Tot_abs_Q>
0

> <r_epik_Metal_State_Penalty>
0.201458

> <b_epik_Metal_Only>
0

> <s_lp_Force_Field>
OPLS_2005

> <r_lp_Energy>
29.1887

> <b_lp_Chiralities_Consistent>
1

> <s_lp_Variant>
AV-unprocessed.smi:3345-1

> <Gold.Version>
5.8.1

> <Gold.Id.Protein>
6NUR|6NUR_protein|mol2

> <Gold.PLP.Fitness>
39.1468

> <Gold.PLP.PLP>
-34.1726

> <Gold.PLP.part.hbond>
-1.3963

> <Gold.PLP.part.metal>
0.0000

> <Gold.PLP.part.buried>
-3.4730

> <Gold.PLP.part.nonpolar>
-30.4370

> <Gold.PLP.part.repulsive>
0.6850

> <Gold.PLP.ligand.clash>
0.0653

> <Gold.PLP.ligand.torsion>
0.5444

> <Gold.PLP.Chemscore.Hbond>
1.0000

> <Gold.PLP.Chemscore.CHOScore>
0.9910

> <Gold.PLP.Chemscore.Metal>
0.0000

> <Gold.Chemscore.Hbonds>
donor molecule, donor type, donor heavy atom, donor atom, acceptor molecule, acceptor atom, score
      P1  H  7989  7998       L1    12  1.00
      L1  C    16    39       P1 10175  1.00

> <Gold.PLP.Chemscore.Internal.Correction>
0.1552

> <Gold.Rescore>
     Score         DG    S(hbond)    S(metal)    S(lipo)     H(rot)  DE(clash)    DE(int)     intcor
      8.72     -10.98       0.97        0.00      74.78       2.54       0.02       2.25       ----

> <Gold.Chemscore.Fitness>
8.7161

> <Gold.Chemscore.DG>
-10.9807

> <Gold.Chemscore.ZeroCoef>
-5.4800

> <Gold.Chemscore.Hbond>
0.9705

> <Gold.Chemscore.Metal>
0.0000

> <Gold.Chemscore.Lipo>
74.7842

> <Gold.Chemscore.Internal_Hbond>
0.0000

> <Gold.Chemscore.DEClash>
0.0186

> <Gold.Chemscore.DEInternal>
2.2460

> <Gold.Chemscore.Rot>
2.5353

> <Gold.Chemscore.Internal.Correction>
   9.000000E+99

> <Gold.Chemscore.Hbonds>
donor molecule, donor type, donor heavy atom, donor atom, acceptor molecule, acceptor atom, score
      P1  H  7989  7998       L1    12  0.92

> <Gold.Chemscore.Hbond.Weighted>
-3.2415

> <Gold.Chemscore.Metal.Weighted>
-0.0000

> <Gold.Chemscore.Lipo.Weighted>
-8.7497

> <Gold.Chemscore.Internal_Hbond.Weighted>
0.0000

> <Gold.Chemscore.DEClash.Weighted>
0.0186

> <Gold.Chemscore.DEInternal.Weighted>
2.2460

> <Gold.Chemscore.Rot.Weighted>
6.4905

> <Gold.Chemscore.Internal.Correction.Weighted>
   9.000000E+99

> <Gold.Protein.RotatedTorsions>
[ 6907 6896 6895 6894 ] final -119.35 input  -60.11 | X-H torsion
[ 7974 7965 7964 7962 ] final  -96.25 input  175.53 | X-H torsion
[ 8008 7997 7996 7995 ] final  -55.41 input   59.86 | X-H torsion
[ 10167 10162 10161 10158 ] final  102.71 input  -65.29 | X-H torsion
[ 10718 10713 10712 10709 ] final  141.97 input   66.30 | X-H torsion
[ 10763 10752 10751 10750 ] final -154.03 input  -60.55 | X-H torsion
[ 11005 11000 10999 10996 ] final  136.50 input  -57.11 | X-H torsion

> <Gold.Protein.ActiveResidues>
 VAL166  LYS551  ARG553  GLY616  TRP617  ASP618  TYR619  PRO620  LYS621  CYS622 
 ASP623  PHE694  ASN695  SER759  ASP760  ASP761  ALA762  ILE779  LEU786  VAL792 
 PHE793  MET794  SER795  GLU796  ALA797  LYS798  CYS799  TRP800  GLU811  SER814 

> <Gold.Protein.RotatedAtoms>
  150.8298  133.8111  159.3103 H   0  0  0  0  0  0  0  0  0  0  0  0  # atno 6907 bound_to 6896
  151.5844  135.1055  160.0034 H   0  0  0  0  0  0  0  0  0  0  0  0  # atno 6908 bound_to 6896
  152.4379  133.7352  159.6666 H   0  0  0  0  0  0  0  0  0  0  0  0  # atno 6909 bound_to 6896
  145.3494  140.9474  143.2563 H   0  0  0  0  0  0  0  0  0  0  0  0  # atno 7974 bound_to 7965
  154.4194  140.1153  156.5473 H   0  0  0  0  0  0  0  0  0  0  0  0  # atno 8008 bound_to 7997
  155.6446  140.3496  155.4708 H   0  0  0  0  0  0  0  0  0  0  0  0  # atno 8009 bound_to 7997
  155.9842  140.1166  157.0688 H   0  0  0  0  0  0  0  0  0  0  0  0  # atno 8010 bound_to 7997
  139.7326  144.7032  151.0698 H   0  0  0  0  0  0  0  0  0  0  0  0  # atno 10167 bound_to 10162
  157.3859  131.0998  151.0693 H   0  0  0  0  0  0  0  0  0  0  0  0  # atno 10718 bound_to 10713
  154.7887  135.3199  154.7827 H   0  0  0  0  0  0  0  0  0  0  0  0  # atno 10763 bound_to 10752
  153.8521  135.6861  153.4795 H   0  0  0  0  0  0  0  0  0  0  0  0  # atno 10764 bound_to 10752
  153.1549  135.4684  154.9629 H   0  0  0  0  0  0  0  0  0  0  0  0  # atno 10765 bound_to 10752
  140.0050  134.9463  157.0156 H   0  0  0  0  0  0  0  0  0  0  0  0  # atno 11005 bound_to 11000
  144.8729  139.5012  143.6759 LP  0  0  0  0  0  0  0  0  0  0  0  0  # atno 17320 bound_to 7965
  146.2974  139.7321  142.9116 LP  0  0  0  0  0  0  0  0  0  0  0  0  # atno 17321 bound_to 7965
  140.7774  143.5024  150.9755 LP  0  0  0  0  0  0  0  0  0  0  0  0  # atno 17342 bound_to 10162
  139.8712  143.7190  152.3166 LP  0  0  0  0  0  0  0  0  0  0  0  0  # atno 17343 bound_to 10162
  157.1745  130.6282  149.5651 LP  0  0  0  0  0  0  0  0  0  0  0  0  # atno 17370 bound_to 10713
  155.9786  130.4774  150.6669 LP  0  0  0  0  0  0  0  0  0  0  0  0  # atno 17371 bound_to 10713
  140.4657  134.1438  155.7196 LP  0  0  0  0  0  0  0  0  0  0  0  0  # atno 17394 bound_to 11000
  141.1670  133.8683  157.1684 LP  0  0  0  0  0  0  0  0  0  0  0  0  # atno 17395 bound_to 11000

$$$$
