AV-unprocessed.smi:837|AV-procd|sdf|3900|dock5
  -GOLD-   22720 1363D 1   1.00000     0.00000
 Structure written by MMmdl.
 48 50  0  0  0  0  0  0  0  0  2 V2000
  152.2380  138.9694  158.6027 C   0  0  0  0  0  0  0  0  0  0  0  0
  152.1532  140.4601  158.2076 C   0  0  2  0  0  0  0  0  0  0  0  0
  151.9006  141.3434  159.4486 C   0  0  0  0  0  0  0  0  0  0  0  0
  151.9293  142.8390  159.1001 C   0  0  0  0  0  0  0  0  0  0  0  0
  150.9170  143.1713  157.9960 C   0  0  0  0  0  0  0  0  0  0  0  0
  151.1495  142.3050  156.7455 C   0  0  0  0  0  0  0  0  0  0  0  0
  151.1415  140.7863  157.0605 C   0  0  2  0  0  0  0  0  0  0  0  0
  149.7934  140.3493  157.3887 N   0  5  0  0  0  0  0  0  0  0  0  0
  149.3844  139.4519  156.4625 C   0  0  0  0  0  0  0  0  0  0  0  0
  148.3011  138.8689  156.4323 O   0  0  0  0  0  0  0  0  0  0  0  0
  150.3355  139.2495  155.5309 N   0  0  0  0  0  0  0  0  0  0  0  0
  150.2178  138.3154  154.4033 C   0  0  0  0  0  0  0  0  0  0  0  0
  150.0191  136.8623  154.8542 C   0  0  0  0  0  0  0  0  0  0  0  0
  150.9840  136.1108  155.0005 O   0  0  0  0  0  0  0  0  0  0  0  0
  148.7499  136.4724  155.0450 N   0  0  0  0  0  0  0  0  0  0  0  0
  148.3378  135.1345  155.4574 C   0  0  0  0  0  0  0  0  0  0  0  0
  148.9642  134.0309  154.5847 C   0  0  0  0  0  0  0  0  0  0  0  0
  147.9427  133.0541  154.0285 C   0  0  0  0  0  0  0  0  0  0  0  0
  147.9947  131.6833  154.3559 C   0  0  0  0  0  0  0  0  0  0  0  0
  147.0279  130.8184  153.8077 C   0  0  0  0  0  0  0  0  0  0  0  0
  146.0486  131.3627  152.9529 C   0  0  0  0  0  0  0  0  0  0  0  0
  145.9898  132.6732  152.6322 N   0  0  0  0  0  0  0  0  0  0  0  0
  146.9191  133.4960  153.1635 C   0  0  0  0  0  0  0  0  0  0  0  0
  151.4191  139.9883  155.7938 C   0  0  0  0  0  0  0  0  0  0  0  0
  152.4710  140.0332  155.1538 O   0  0  0  0  0  0  0  0  0  0  0  0
  151.2881  138.6016  158.9912 H   0  0  0  0  0  0  0  0  0  0  0  0
  152.9887  138.8162  159.3781 H   0  0  0  0  0  0  0  0  0  0  0  0
  152.5189  138.3393  157.7589 H   0  0  0  0  0  0  0  0  0  0  0  0
  153.1452  140.7285  157.8399 H   0  0  0  0  0  0  0  0  0  0  0  0
  150.9381  141.0899  159.8952 H   0  0  0  0  0  0  0  0  0  0  0  0
  152.6529  141.1383  160.2107 H   0  0  0  0  0  0  0  0  0  0  0  0
  151.7149  143.4310  159.9900 H   0  0  0  0  0  0  0  0  0  0  0  0
  152.9316  143.1199  158.7748 H   0  0  0  0  0  0  0  0  0  0  0  0
  149.9041  143.0164  158.3692 H   0  0  0  0  0  0  0  0  0  0  0  0
  150.9884  144.2268  157.7330 H   0  0  0  0  0  0  0  0  0  0  0  0
  150.3996  142.5468  155.9901 H   0  0  0  0  0  0  0  0  0  0  0  0
  152.1112  142.5813  156.3098 H   0  0  0  0  0  0  0  0  0  0  0  0
  149.3912  138.6220  153.7599 H   0  0  0  0  0  0  0  0  0  0  0  0
  151.1104  138.3594  153.7774 H   0  0  0  0  0  0  0  0  0  0  0  0
  148.0179  137.1515  154.8958 H   0  0  0  0  0  0  0  0  0  0  0  0
  148.5805  134.9706  156.5084 H   0  0  0  0  0  0  0  0  0  0  0  0
  147.2511  135.0866  155.3834 H   0  0  0  0  0  0  0  0  0  0  0  0
  149.5147  134.4818  153.7577 H   0  0  0  0  0  0  0  0  0  0  0  0
  149.6991  133.4756  155.1683 H   0  0  0  0  0  0  0  0  0  0  0  0
  148.7628  131.2993  155.0114 H   0  0  0  0  0  0  0  0  0  0  0  0
  147.0374  129.7628  154.0354 H   0  0  0  0  0  0  0  0  0  0  0  0
  145.2933  130.7279  152.5138 H   0  0  0  0  0  0  0  0  0  0  0  0
  146.8469  134.5374  152.8865 H   0  0  0  0  0  0  0  0  0  0  0  0
  1  2  1  0  0  0  0
  1 26  1  0  0  0  0
  1 27  1  0  0  0  0
  1 28  1  0  0  0  0
  2  7  1  0  0  0  0
  2  3  1  0  0  0  0
  2 29  1  0  0  0  0
  3  4  1  0  0  0  0
  3 30  1  0  0  0  0
  3 31  1  0  0  0  0
  4  5  1  0  0  0  0
  4 32  1  0  0  0  0
  4 33  1  0  0  0  0
  5  6  1  0  0  0  0
  5 34  1  0  0  0  0
  5 35  1  0  0  0  0
  6  7  1  0  0  0  0
  6 36  1  0  0  0  0
  6 37  1  0  0  0  0
  7 24  1  0  0  0  0
  7  8  1  0  0  0  0
  8  9  1  0  0  0  0
  9 10  2  0  0  0  0
  9 11  1  0  0  0  0
 11 12  1  0  0  0  0
 11 24  1  0  0  0  0
 12 13  1  0  0  0  0
 12 38  1  0  0  0  0
 12 39  1  0  0  0  0
 13 14  2  0  0  0  0
 13 15  1  0  0  0  0
 15 16  1  0  0  0  0
 15 40  1  0  0  0  0
 16 17  1  0  0  0  0
 16 41  1  0  0  0  0
 16 42  1  0  0  0  0
 17 18  1  0  0  0  0
 17 43  1  0  0  0  0
 17 44  1  0  0  0  0
 18 23  1  0  0  0  0
 18 19  2  0  0  0  0
 19 20  1  0  0  0  0
 19 45  1  0  0  0  0
 20 21  2  0  0  0  0
 20 46  1  0  0  0  0
 21 22  1  0  0  0  0
 21 47  1  0  0  0  0
 22 23  2  0  0  0  0
 23 48  1  0  0  0  0
 24 25  2  0  0  0  0
M  CHG  1   8  -1
M  END
> <s_m_source_file>
AV-unprocessed.smi

> <i_m_source_file_index>
837

> <i_lp_mmshare_version>
43012

> <i_f3d_flags>
0

> <s_epik_input>
W0NIMl0xW0NIMl1bQ0gyXVtDSDJdW0NAQEhdKFtDSDNdKVtDQEBdMTJbTkhdQyg9TylOKEMyPU8pW0NIMl1DKD1PKVtOSF1bQ0gyXVtDSDJdYzNbY0hdW2NIXVtjSF1uW2NIXTM=

> <s_epik_cmdline>
J2VwaWtfcHl0aG9uJywgJy1waCcsICc3LjAnLCAnLXRuJywgJzgnLCAnLW1hJywgJzIwMCcsICctbWV0YWxfYmluZGluZycsICctaW1hZScsICc8aW5maWxlLm1hZT4nLCAnLW9tYWUnLCAnPG91dGZpbGUubWFlPic=

> <r_lp_tautomer_probability>
1

> <r_epik_Ionization_Penalty>
6.03002

> <r_epik_Ionization_Penalty_Charging>
6.01728

> <r_epik_Ionization_Penalty_Neutral>
0.0127382

> <r_epik_State_Penalty>
6.02713

> <r_epik_Charging_Adjusted_Penalty>
12.0444

> <i_epik_Tot_Q>
-1

> <i_epik_Tot_abs_Q>
1

> <r_epik_Metal_State_Penalty>
1.99078

> <b_epik_Metal_Only>
1

> <s_lp_Force_Field>
OPLS_2005

> <r_lp_Energy>
20.4671

> <b_lp_Chiralities_Consistent>
1

> <s_lp_Variant>
AV-unprocessed.smi:837-9

> <Gold.Version>
5.8.1

> <Gold.Id.Protein>
6NUR|6NUR_protein|mol2

> <Gold.PLP.Fitness>
47.6420

> <Gold.PLP.PLP>
-39.2035

> <Gold.PLP.part.hbond>
-4.0000

> <Gold.PLP.part.metal>
0.0000

> <Gold.PLP.part.buried>
-2.0485

> <Gold.PLP.part.nonpolar>
-34.1169

> <Gold.PLP.part.repulsive>
0.2926

> <Gold.PLP.ligand.clash>
0.0000

> <Gold.PLP.ligand.torsion>
0.7726

> <Gold.PLP.Chemscore.Hbond>
2.3196

> <Gold.PLP.Chemscore.CHOScore>
1.0000

> <Gold.PLP.Chemscore.Metal>
0.0000

> <Gold.Chemscore.Hbonds>
donor molecule, donor type, donor heavy atom, donor atom, acceptor molecule, acceptor atom, score
      P1  H  7989  7998       L1    25  0.47
      P1  H  7997  8010       L1    25  0.80
      P1  H 10752 10765       L1    14  0.93
      L1  C    23    48       P1  7948  0.16

> <Gold.PLP.Chemscore.Internal.Correction>
0.0249

> <Gold.Rescore>
     Score         DG    S(hbond)    S(metal)    S(lipo)     H(rot)  DE(clash)    DE(int)     intcor
     17.90     -19.17       1.98        0.00     100.06       1.81       0.54       0.74       ----

> <Gold.Chemscore.Fitness>
17.8978

> <Gold.Chemscore.DG>
-19.1734

> <Gold.Chemscore.ZeroCoef>
-5.4800

> <Gold.Chemscore.Hbond>
1.9814

> <Gold.Chemscore.Metal>
0.0000

> <Gold.Chemscore.Lipo>
100.0567

> <Gold.Chemscore.Internal_Hbond>
0.0000

> <Gold.Chemscore.DEClash>
0.5401

> <Gold.Chemscore.DEInternal>
0.7356

> <Gold.Chemscore.Rot>
1.8090

> <Gold.Chemscore.Internal.Correction>
   9.000000E+99

> <Gold.Chemscore.Hbonds>
donor molecule, donor type, donor heavy atom, donor atom, acceptor molecule, acceptor atom, score
      P1  H  7989  7998       L1    25  0.07
      P1  H  7997  8010       L1    25  0.79
      P1  H 10752 10765       L1    14  0.89

> <Gold.Chemscore.Hbond.Weighted>
-6.6178

> <Gold.Chemscore.Metal.Weighted>
-0.0000

> <Gold.Chemscore.Lipo.Weighted>
-11.7066

> <Gold.Chemscore.Internal_Hbond.Weighted>
0.0000

> <Gold.Chemscore.DEClash.Weighted>
0.5401

> <Gold.Chemscore.DEInternal.Weighted>
0.7356

> <Gold.Chemscore.Rot.Weighted>
4.6310

> <Gold.Chemscore.Internal.Correction.Weighted>
   9.000000E+99

> <Gold.Protein.RotatedTorsions>
[ 6907 6896 6895 6894 ] final  -47.99 input  -60.11 | X-H torsion
[ 7974 7965 7964 7962 ] final -102.64 input  175.53 | X-H torsion
[ 8008 7997 7996 7995 ] final  103.35 input   59.86 | X-H torsion
[ 10167 10162 10161 10158 ] final  -41.25 input  -65.29 | X-H torsion
[ 10718 10713 10712 10709 ] final  -73.56 input   66.30 | X-H torsion
[ 10763 10752 10751 10750 ] final -177.14 input  -60.55 | X-H torsion
[ 11005 11000 10999 10996 ] final  105.42 input  -57.11 | X-H torsion

> <Gold.Protein.ActiveResidues>
 VAL166  LYS551  ARG553  GLY616  TRP617  ASP618  TYR619  PRO620  LYS621  CYS622 
 ASP623  PHE694  ASN695  SER759  ASP760  ASP761  ALA762  ILE779  LEU786  VAL792 
 PHE793  MET794  SER795  GLU796  ALA797  LYS798  CYS799  TRP800  GLU811  SER814 

> <Gold.Protein.RotatedAtoms>
  150.8951  134.8359  159.7320 H   0  0  0  0  0  0  0  0  0  0  0  0  # atno 6907 bound_to 6896
  152.4860  134.4588  159.9608 H   0  0  0  0  0  0  0  0  0  0  0  0  # atno 6908 bound_to 6896
  151.4646  133.3545  159.2849 H   0  0  0  0  0  0  0  0  0  0  0  0  # atno 6909 bound_to 6896
  145.2661  140.9284  143.3013 H   0  0  0  0  0  0  0  0  0  0  0  0  # atno 7974 bound_to 7965
  156.1476  140.3166  155.8595 H   0  0  0  0  0  0  0  0  0  0  0  0  # atno 8008 bound_to 7997
  155.4035  140.0501  157.3052 H   0  0  0  0  0  0  0  0  0  0  0  0  # atno 8009 bound_to 7997
  154.5029  140.2136  155.9321 H   0  0  0  0  0  0  0  0  0  0  0  0  # atno 8010 bound_to 7997
  140.7008  143.3105  151.3040 H   0  0  0  0  0  0  0  0  0  0  0  0  # atno 10167 bound_to 10162
  156.0276  130.4397  150.2760 H   0  0  0  0  0  0  0  0  0  0  0  0  # atno 10718 bound_to 10713
  154.5638  135.2822  155.0894 H   0  0  0  0  0  0  0  0  0  0  0  0  # atno 10763 bound_to 10752
  154.2292  135.6377  153.5173 H   0  0  0  0  0  0  0  0  0  0  0  0  # atno 10764 bound_to 10752
  153.0037  135.5533  154.6240 H   0  0  0  0  0  0  0  0  0  0  0  0  # atno 10765 bound_to 10752
  139.8802  134.9335  156.5511 H   0  0  0  0  0  0  0  0  0  0  0  0  # atno 11005 bound_to 11000
  144.9376  139.4226  143.6464 LP  0  0  0  0  0  0  0  0  0  0  0  0  # atno 17320 bound_to 7965
  146.3261  139.8319  142.8906 LP  0  0  0  0  0  0  0  0  0  0  0  0  # atno 17321 bound_to 7965
  139.6527  144.0333  152.2637 LP  0  0  0  0  0  0  0  0  0  0  0  0  # atno 17342 bound_to 10162
  139.9875  144.6385  150.7844 LP  0  0  0  0  0  0  0  0  0  0  0  0  # atno 17343 bound_to 10162
  157.0863  131.0157  151.3138 LP  0  0  0  0  0  0  0  0  0  0  0  0  # atno 17370 bound_to 10713
  157.4888  130.7810  149.7487 LP  0  0  0  0  0  0  0  0  0  0  0  0  # atno 17371 bound_to 10713
  140.8240  133.8331  155.8921 LP  0  0  0  0  0  0  0  0  0  0  0  0  # atno 17394 bound_to 11000
  140.9392  134.1923  157.4810 LP  0  0  0  0  0  0  0  0  0  0  0  0  # atno 17395 bound_to 11000

$$$$
