AV-unprocessed.smi:153|AV-procd|sdf|1252|dock1
  -GOLD-   2262018483D 1   1.00000     0.00000
 Structure written by MMmdl.
 60 63  0  0  0  0  0  0  0  0  2 V2000
  153.5047  142.2989  159.5454 C   0  0  0  0  0  0  0  0  0  0  0  0
  152.5549  143.2682  158.8200 C   0  0  2  0  0  0  0  0  0  0  0  0
  152.2076  144.3501  159.6822 O   0  0  0  0  0  0  0  0  0  0  0  0
  150.8091  144.3442  159.9233 C   0  0  0  0  0  0  0  0  0  0  0  0
  150.2209  143.7580  158.6471 C   0  0  0  0  0  0  0  0  0  0  0  0
  151.2251  142.6722  158.2882 C   0  0  2  0  0  0  0  0  0  0  0  0
  150.8763  141.4988  159.0061 O   0  0  0  0  0  0  0  0  0  0  0  0
  151.2282  142.3437  156.7746 C   0  0  0  0  0  0  0  0  0  0  0  0
  150.0601  141.5906  156.3469 N   0  0  0  0  0  0  0  0  0  0  0  0
  148.7512  141.8327  156.6952 C   0  0  0  0  0  0  0  0  0  0  0  0
  147.8750  141.0392  156.1442 N   0  0  0  0  0  0  0  0  0  0  0  0
  148.6364  140.1633  155.3782 C   0  0  0  0  0  0  0  0  0  0  0  0
  148.3351  139.0821  154.4975 C   0  0  0  0  0  0  0  0  0  0  0  0
  147.0822  138.6628  154.1875 N   0  0  0  0  0  0  0  0  0  0  0  0
  146.0927  138.5520  155.2515 C   0  0  0  0  0  0  0  0  0  0  0  0
  146.6209  138.8438  152.8096 C   0  0  0  0  0  0  0  0  0  0  0  0
  146.3970  137.5122  152.0582 C   0  0  2  0  0  0  0  0  0  0  0  0
  146.4615  137.8009  150.6760 O   0  0  0  0  0  0  0  0  0  0  0  0
  145.0238  136.8619  152.3507 C   0  0  0  0  0  0  0  0  0  0  0  0
  144.7871  135.6046  151.5964 N   0  3  0  0  0  0  0  0  0  0  0  0
  146.0097  134.7770  151.4255 C   0  0  0  0  0  0  0  0  0  0  0  0
  145.6909  133.4816  150.6600 C   0  0  0  0  0  0  0  0  0  0  0  0
  144.6660  132.7647  151.3344 O   0  0  0  0  0  0  0  0  0  0  0  0
  143.4579  133.5106  151.4003 C   0  0  0  0  0  0  0  0  0  0  0  0
  143.6965  134.8012  152.2008 C   0  0  0  0  0  0  0  0  0  0  0  0
  149.3789  138.4669  153.8837 N   0  0  0  0  0  0  0  0  0  0  0  0
  150.6320  138.8669  154.1150 C   0  0  0  0  0  0  0  0  0  0  0  0
  151.0585  139.8607  154.8951 N   0  0  0  0  0  0  0  0  0  0  0  0
  150.0163  140.4927  155.5060 C   0  0  0  0  0  0  0  0  0  0  0  0
  153.7418  141.4396  158.9191 H   0  0  0  0  0  0  0  0  0  0  0  0
  153.0668  141.9275  160.4723 H   0  0  0  0  0  0  0  0  0  0  0  0
  154.4423  142.7926  159.8018 H   0  0  0  0  0  0  0  0  0  0  0  0
  153.0979  143.7240  157.9917 H   0  0  0  0  0  0  0  0  0  0  0  0
  150.5940  143.7037  160.7797 H   0  0  0  0  0  0  0  0  0  0  0  0
  150.4350  145.3447  160.1410 H   0  0  0  0  0  0  0  0  0  0  0  0
  149.2015  143.3910  158.7739 H   0  0  0  0  0  0  0  0  0  0  0  0
  150.2033  144.5297  157.8761 H   0  0  0  0  0  0  0  0  0  0  0  0
  150.4174  140.9140  158.4223 H   0  0  0  0  0  0  0  0  0  0  0  0
  151.2848  143.2600  156.1854 H   0  0  0  0  0  0  0  0  0  0  0  0
  152.1143  141.7616  156.5182 H   0  0  0  0  0  0  0  0  0  0  0  0
  148.4622  142.6348  157.3585 H   0  0  0  0  0  0  0  0  0  0  0  0
  146.5382  138.1437  156.1594 H   0  0  0  0  0  0  0  0  0  0  0  0
  145.2856  137.8841  154.9494 H   0  0  0  0  0  0  0  0  0  0  0  0
  145.6574  139.5241  155.4834 H   0  0  0  0  0  0  0  0  0  0  0  0
  145.7210  139.4584  152.7674 H   0  0  0  0  0  0  0  0  0  0  0  0
  147.3897  139.4200  152.2929 H   0  0  0  0  0  0  0  0  0  0  0  0
  147.2185  136.8374  152.2923 H   0  0  0  0  0  0  0  0  0  0  0  0
  145.5866  137.7977  150.3201 H   0  0  0  0  0  0  0  0  0  0  0  0
  144.9114  136.6267  153.4068 H   0  0  0  0  0  0  0  0  0  0  0  0
  144.2392  137.5855  152.1221 H   0  0  0  0  0  0  0  0  0  0  0  0
  146.7754  135.3278  150.8816 H   0  0  0  0  0  0  0  0  0  0  0  0
  146.4308  134.5345  152.4016 H   0  0  0  0  0  0  0  0  0  0  0  0
  145.3863  133.6994  149.6348 H   0  0  0  0  0  0  0  0  0  0  0  0
  146.5797  132.8530  150.6003 H   0  0  0  0  0  0  0  0  0  0  0  0
  143.0961  133.7340  150.3953 H   0  0  0  0  0  0  0  0  0  0  0  0
  142.6939  132.9035  151.8862 H   0  0  0  0  0  0  0  0  0  0  0  0
  143.9511  134.5557  153.2329 H   0  0  0  0  0  0  0  0  0  0  0  0
  142.7779  135.3886  152.2300 H   0  0  0  0  0  0  0  0  0  0  0  0
  151.4021  138.3183  153.5927 H   0  0  0  0  0  0  0  0  0  0  0  0
  144.4705  135.8680  150.6741 H   0  0  0  0  0  0  0  0  0  0  0  0
  1  2  1  0  0  0  0
  1 30  1  0  0  0  0
  1 31  1  0  0  0  0
  1 32  1  0  0  0  0
  2  6  1  0  0  0  0
  2  3  1  0  0  0  0
  2 33  1  0  0  0  0
  3  4  1  0  0  0  0
  4  5  1  0  0  0  0
  4 34  1  0  0  0  0
  4 35  1  0  0  0  0
  5  6  1  0  0  0  0
  5 36  1  0  0  0  0
  5 37  1  0  0  0  0
  6  7  1  0  0  0  0
  6  8  1  0  0  0  0
  7 38  1  0  0  0  0
  8  9  1  0  0  0  0
  8 39  1  0  0  0  0
  8 40  1  0  0  0  0
  9 29  1  0  0  0  0
  9 10  1  0  0  0  0
 10 11  2  0  0  0  0
 10 41  1  0  0  0  0
 11 12  1  0  0  0  0
 12 29  2  0  0  0  0
 12 13  1  0  0  0  0
 13 14  1  0  0  0  0
 13 26  2  0  0  0  0
 14 15  1  0  0  0  0
 14 16  1  0  0  0  0
 15 42  1  0  0  0  0
 15 43  1  0  0  0  0
 15 44  1  0  0  0  0
 16 17  1  0  0  0  0
 16 45  1  0  0  0  0
 16 46  1  0  0  0  0
 17 18  1  0  0  0  0
 17 19  1  0  0  0  0
 17 47  1  0  0  0  0
 18 48  1  0  0  0  0
 19 20  1  0  0  0  0
 19 49  1  0  0  0  0
 19 50  1  0  0  0  0
 20 25  1  0  0  0  0
 20 21  1  0  0  0  0
 20 60  1  0  0  0  0
 21 22  1  0  0  0  0
 21 51  1  0  0  0  0
 21 52  1  0  0  0  0
 22 23  1  0  0  0  0
 22 53  1  0  0  0  0
 22 54  1  0  0  0  0
 23 24  1  0  0  0  0
 24 25  1  0  0  0  0
 24 55  1  0  0  0  0
 24 56  1  0  0  0  0
 25 57  1  0  0  0  0
 25 58  1  0  0  0  0
 26 27  1  0  0  0  0
 27 28  2  0  0  0  0
 27 59  1  0  0  0  0
 28 29  1  0  0  0  0
M  CHG  1  20   1
M  END
> <s_m_source_file>
AV-unprocessed.smi

> <i_m_source_file_index>
153

> <i_lp_mmshare_version>
43012

> <i_f3d_flags>
0

> <s_epik_input>
W0NIMl0xW0NIMl1PW0NAQEhdKFtDSDNdKVtDQEBdMShbT0hdKVtDSDJdbihbY0hdbjIpYyhjMjMpbltjSF1uYzNOKFtDSDNdKVtDSDJdW0NASF0oW09IXSlbQ0gyXU40W0NIMl1bQ0gyXU9bQ0gyXVtDSDJdNA==

> <s_epik_cmdline>
J2VwaWtfcHl0aG9uJywgJy1waCcsICc3LjAnLCAnLXRuJywgJzgnLCAnLW1hJywgJzIwMCcsICctbWV0YWxfYmluZGluZycsICctaW1hZScsICc8aW5maWxlLm1hZT4nLCAnLW9tYWUnLCAnPG91dGZpbGUubWFlPic=

> <r_lp_tautomer_probability>
1

> <r_epik_Ionization_Penalty>
0.403509

> <r_epik_Ionization_Penalty_Charging>
0.40072

> <r_epik_Ionization_Penalty_Neutral>
0.00278876

> <r_epik_State_Penalty>
0.400058

> <r_epik_Charging_Adjusted_Penalty>
0.800778

> <i_epik_Tot_Q>
1

> <i_epik_Tot_abs_Q>
1

> <r_epik_Metal_State_Penalty>
0.400321

> <b_epik_Metal_Only>
0

> <s_lp_Force_Field>
OPLS_2005

> <r_lp_Energy>
42.6993

> <b_lp_Chiralities_Consistent>
1

> <s_lp_Variant>
AV-unprocessed.smi:153-3

> <Gold.Version>
5.8.1

> <Gold.Id.Protein>
6NUR|6NUR_protein|mol2

> <Gold.PLP.Fitness>
51.4388

> <Gold.PLP.PLP>
-45.1642

> <Gold.PLP.part.hbond>
-4.2531

> <Gold.PLP.part.metal>
0.0000

> <Gold.PLP.part.buried>
-6.5266

> <Gold.PLP.part.nonpolar>
-36.2012

> <Gold.PLP.part.repulsive>
1.0068

> <Gold.PLP.ligand.clash>
0.0000

> <Gold.PLP.ligand.torsion>
1.9012

> <Gold.PLP.Chemscore.Hbond>
2.7000

> <Gold.PLP.Chemscore.CHOScore>
0.2920

> <Gold.PLP.Chemscore.Metal>
0.0000

> <Gold.Chemscore.Hbonds>
donor molecule, donor type, donor heavy atom, donor atom, acceptor molecule, acceptor atom, score
      L1  H    18    48       P1 10171  1.00
      P1  H  7954  7966       L1    18  1.00
      P1  H  7989  7998       L1    28  0.70
      L1  C    10    41       P1  8028  0.21

> <Gold.PLP.Chemscore.Internal.Correction>
1.1010

> <Gold.Rescore>
     Score         DG    S(hbond)    S(metal)    S(lipo)     H(rot)  DE(clash)    DE(int)     intcor
     12.61     -15.10       1.98        0.00     104.89       3.62       0.64       1.84       ----

> <Gold.Chemscore.Fitness>
12.6129

> <Gold.Chemscore.DG>
-15.0997

> <Gold.Chemscore.ZeroCoef>
-5.4800

> <Gold.Chemscore.Hbond>
1.9791

> <Gold.Chemscore.Metal>
0.0000

> <Gold.Chemscore.Lipo>
104.8900

> <Gold.Chemscore.Internal_Hbond>
0.0000

> <Gold.Chemscore.DEClash>
0.6419

> <Gold.Chemscore.DEInternal>
1.8449

> <Gold.Chemscore.Rot>
3.6182

> <Gold.Chemscore.Internal.Correction>
   9.000000E+99

> <Gold.Chemscore.Hbonds>
donor molecule, donor type, donor heavy atom, donor atom, acceptor molecule, acceptor atom, score
      L1  H    18    48       P1 10171  0.97
      P1  H  7954  7966       L1    18  0.92
      P1  H  7989  7998       L1    28  0.05

> <Gold.Chemscore.Hbond.Weighted>
-6.6100

> <Gold.Chemscore.Metal.Weighted>
-0.0000

> <Gold.Chemscore.Lipo.Weighted>
-12.2721

> <Gold.Chemscore.Internal_Hbond.Weighted>
0.0000

> <Gold.Chemscore.DEClash.Weighted>
0.6419

> <Gold.Chemscore.DEInternal.Weighted>
1.8449

> <Gold.Chemscore.Rot.Weighted>
9.2625

> <Gold.Chemscore.Internal.Correction.Weighted>
   9.000000E+99

> <Gold.Protein.RotatedTorsions>
[ 6907 6896 6895 6894 ] final   51.18 input  -60.11 | X-H torsion
[ 7974 7965 7964 7962 ] final   91.04 input  175.53 | X-H torsion
[ 8008 7997 7996 7995 ] final   49.81 input   59.86 | X-H torsion
[ 10167 10162 10161 10158 ] final  179.74 input  -65.29 | X-H torsion
[ 10718 10713 10712 10709 ] final -137.11 input   66.30 | X-H torsion
[ 10763 10752 10751 10750 ] final   56.18 input  -60.55 | X-H torsion
[ 11005 11000 10999 10996 ] final  -26.01 input  -57.11 | X-H torsion

> <Gold.Protein.ActiveResidues>
 VAL166  LYS551  ARG553  GLY616  TRP617  ASP618  TYR619  PRO620  LYS621  CYS622 
 ASP623  PHE694  ASN695  SER759  ASP760  ASP761  ALA762  ILE779  LEU786  VAL792 
 PHE793  MET794  SER795  GLU796  ALA797  LYS798  CYS799  TRP800  GLU811  SER814 

> <Gold.Protein.RotatedAtoms>
  152.3098  134.7510  160.0338 H   0  0  0  0  0  0  0  0  0  0  0  0  # atno 6907 bound_to 6896
  151.7995  133.3363  159.3531 H   0  0  0  0  0  0  0  0  0  0  0  0  # atno 6908 bound_to 6896
  150.7315  134.5697  159.5928 H   0  0  0  0  0  0  0  0  0  0  0  0  # atno 6909 bound_to 6896
  145.5110  139.2277  143.2725 H   0  0  0  0  0  0  0  0  0  0  0  0  # atno 7974 bound_to 7965
  155.4084  140.3441  155.4262 H   0  0  0  0  0  0  0  0  0  0  0  0  # atno 8008 bound_to 7997
  156.1463  140.1557  156.8873 H   0  0  0  0  0  0  0  0  0  0  0  0  # atno 8009 bound_to 7997
  154.5013  140.0814  156.7785 H   0  0  0  0  0  0  0  0  0  0  0  0  # atno 8010 bound_to 7997
  139.5350  144.2524  152.0773 H   0  0  0  0  0  0  0  0  0  0  0  0  # atno 10167 bound_to 10162
  156.2845  130.7340  151.1347 H   0  0  0  0  0  0  0  0  0  0  0  0  # atno 10718 bound_to 10713
  152.9828  135.5685  154.5187 H   0  0  0  0  0  0  0  0  0  0  0  0  # atno 10763 bound_to 10752
  154.4679  135.2784  155.1667 H   0  0  0  0  0  0  0  0  0  0  0  0  # atno 10764 bound_to 10752
  154.3227  135.6265  153.5568 H   0  0  0  0  0  0  0  0  0  0  0  0  # atno 10765 bound_to 10752
  140.8990  133.7537  156.0519 H   0  0  0  0  0  0  0  0  0  0  0  0  # atno 11005 bound_to 11000
  146.2167  140.5916  142.9035 LP  0  0  0  0  0  0  0  0  0  0  0  0  # atno 17320 bound_to 7965
  144.7727  140.5674  143.6659 LP  0  0  0  0  0  0  0  0  0  0  0  0  # atno 17321 bound_to 7965
  140.1993  144.4673  150.6439 LP  0  0  0  0  0  0  0  0  0  0  0  0  # atno 17342 bound_to 10162
  140.6551  143.2235  151.5988 LP  0  0  0  0  0  0  0  0  0  0  0  0  # atno 17343 bound_to 10162
  157.7324  131.0600  150.5628 LP  0  0  0  0  0  0  0  0  0  0  0  0  # atno 17370 bound_to 10713
  156.5737  130.4286  149.6008 LP  0  0  0  0  0  0  0  0  0  0  0  0  # atno 17371 bound_to 10713
  140.8253  134.3241  157.5367 LP  0  0  0  0  0  0  0  0  0  0  0  0  # atno 17394 bound_to 11000
  139.8739  134.9333  156.3576 LP  0  0  0  0  0  0  0  0  0  0  0  0  # atno 17395 bound_to 11000

$$$$
