AV-unprocessed.smi:1006|AV-procd|sdf|4390|dock8
  -GOLD-   22720 2323D 1   1.00000     0.00000
 Structure written by MMmdl.
 45 47  0  0  0  0  0  0  0  0  1 V2000
  143.1593  140.6481  155.8721 C   0  0  0  0  0  0  0  0  0  0  0  0
  144.3699  141.5354  156.0704 C   0  0  0  0  0  0  0  0  0  0  0  0
  144.3090  142.6914  156.8780 C   0  0  0  0  0  0  0  0  0  0  0  0
  145.5027  143.4336  156.9953 C   0  0  0  0  0  0  0  0  0  0  0  0
  145.5484  144.5908  157.7682 N   0  0  0  0  0  0  0  0  0  0  0  0
  146.6395  143.0569  156.3715 N   0  0  0  0  0  0  0  0  0  0  0  0
  146.5743  141.9470  155.6324 C   0  0  0  0  0  0  0  0  0  0  0  0
  148.0981  141.4637  154.8441 S   0  0  0  0  0  0  0  0  0  0  0  0
  149.2166  141.2750  156.2667 C   0  0  0  0  0  0  0  0  0  0  0  0
  150.6938  141.2517  155.8426 C   0  0  2  0  0  0  0  0  0  0  0  0
  150.9026  140.2027  154.9156 O   0  0  0  0  0  0  0  0  0  0  0  0
  151.6359  141.0667  157.0472 C   0  0  0  0  0  0  0  0  0  0  0  0
  151.4979  142.1313  158.0242 N   0  0  0  0  0  0  0  0  0  0  0  0
  150.7711  143.2594  157.9071 C   0  0  0  0  0  0  0  0  0  0  0  0
  150.7880  144.1038  158.9347 N   0  0  0  0  0  0  0  0  0  0  0  0
  151.6228  143.4461  159.8222 C   0  0  0  0  0  0  0  0  0  0  0  0
  152.0575  143.8107  161.1154 C   0  0  0  0  0  0  0  0  0  0  0  0
  152.9240  142.9718  161.8523 C   0  0  0  0  0  0  0  0  0  0  0  0
  153.3664  143.4029  163.2396 C   0  0  0  0  0  0  0  0  0  0  0  0
  153.3687  141.7453  161.2965 C   0  0  0  0  0  0  0  0  0  0  0  0
  154.2999  140.8278  162.0691 C   0  0  0  0  0  0  0  0  0  0  0  0
  152.9441  141.3660  160.0059 C   0  0  0  0  0  0  0  0  0  0  0  0
  152.0829  142.2096  159.2826 C   0  0  0  0  0  0  0  0  0  0  0  0
  145.5089  141.1619  155.4460 N   0  0  0  0  0  0  0  0  0  0  0  0
  142.2376  141.2182  155.9921 H   0  0  0  0  0  0  0  0  0  0  0  0
  143.1618  139.8411  156.6052 H   0  0  0  0  0  0  0  0  0  0  0  0
  143.1577  140.2076  154.8745 H   0  0  0  0  0  0  0  0  0  0  0  0
  143.3994  142.9881  157.3796 H   0  0  0  0  0  0  0  0  0  0  0  0
  144.7359  144.9294  158.2629 H   0  0  0  0  0  0  0  0  0  0  0  0
  146.3950  145.1355  157.8470 H   0  0  0  0  0  0  0  0  0  0  0  0
  149.0503  142.1088  156.9492 H   0  0  0  0  0  0  0  0  0  0  0  0
  148.9594  140.3622  156.8055 H   0  0  0  0  0  0  0  0  0  0  0  0
  150.9332  142.1931  155.3459 H   0  0  0  0  0  0  0  0  0  0  0  0
  150.0685  139.9550  154.5471 H   0  0  0  0  0  0  0  0  0  0  0  0
  151.4255  140.1206  157.5472 H   0  0  0  0  0  0  0  0  0  0  0  0
  152.6759  141.0212  156.7206 H   0  0  0  0  0  0  0  0  0  0  0  0
  150.1950  143.4713  157.0180 H   0  0  0  0  0  0  0  0  0  0  0  0
  151.7181  144.7447  161.5388 H   0  0  0  0  0  0  0  0  0  0  0  0
  154.4527  143.4826  163.2868 H   0  0  0  0  0  0  0  0  0  0  0  0
  153.0385  142.6795  163.9866 H   0  0  0  0  0  0  0  0  0  0  0  0
  152.9481  144.3735  163.5076 H   0  0  0  0  0  0  0  0  0  0  0  0
  154.5152  139.9170  161.5097 H   0  0  0  0  0  0  0  0  0  0  0  0
  153.8502  140.5374  163.0189 H   0  0  0  0  0  0  0  0  0  0  0  0
  155.2469  141.3284  162.2720 H   0  0  0  0  0  0  0  0  0  0  0  0
  153.2743  140.4347  159.5698 H   0  0  0  0  0  0  0  0  0  0  0  0
  1  2  1  0  0  0  0
  1 25  1  0  0  0  0
  1 26  1  0  0  0  0
  1 27  1  0  0  0  0
  2 24  1  0  0  0  0
  2  3  2  0  0  0  0
  3  4  1  0  0  0  0
  3 28  1  0  0  0  0
  4  5  1  0  0  0  0
  4  6  2  0  0  0  0
  5 29  1  0  0  0  0
  5 30  1  0  0  0  0
  6  7  1  0  0  0  0
  7  8  1  0  0  0  0
  7 24  2  0  0  0  0
  8  9  1  0  0  0  0
  9 10  1  0  0  0  0
  9 31  1  0  0  0  0
  9 32  1  0  0  0  0
 10 11  1  0  0  0  0
 10 12  1  0  0  0  0
 10 33  1  0  0  0  0
 11 34  1  0  0  0  0
 12 13  1  0  0  0  0
 12 35  1  0  0  0  0
 12 36  1  0  0  0  0
 13 23  1  0  0  0  0
 13 14  1  0  0  0  0
 14 15  2  0  0  0  0
 14 37  1  0  0  0  0
 15 16  1  0  0  0  0
 16 23  2  0  0  0  0
 16 17  1  0  0  0  0
 17 18  2  0  0  0  0
 17 38  1  0  0  0  0
 18 19  1  0  0  0  0
 18 20  1  0  0  0  0
 19 39  1  0  0  0  0
 19 40  1  0  0  0  0
 19 41  1  0  0  0  0
 20 21  1  0  0  0  0
 20 22  2  0  0  0  0
 21 42  1  0  0  0  0
 21 43  1  0  0  0  0
 21 44  1  0  0  0  0
 22 23  1  0  0  0  0
 22 45  1  0  0  0  0
M  END
> <s_m_source_file>
AV-unprocessed.smi

> <i_m_source_file_index>
1006

> <i_lp_mmshare_version>
43012

> <i_f3d_flags>
0

> <s_epik_input>
W0NIM11jMVtjSF1jKFtOSDJdKW5jKG4xKVNbQ0gyXVtDQEhdKFtPSF0pW0NIMl1uKFtjSF1uMiljKGMyMylbY0hdYyhbQ0gzXSljKFtjSF0zKVtDSDNd

> <s_epik_cmdline>
J2VwaWtfcHl0aG9uJywgJy1waCcsICc3LjAnLCAnLXRuJywgJzgnLCAnLW1hJywgJzIwMCcsICctbWV0YWxfYmluZGluZycsICctaW1hZScsICc8aW5maWxlLm1hZT4nLCAnLW9tYWUnLCAnPG91dGZpbGUubWFlPic=

> <r_lp_tautomer_probability>
1

> <r_epik_Ionization_Penalty>
0.490208

> <r_epik_Ionization_Penalty_Charging>
0

> <r_epik_Ionization_Penalty_Neutral>
0.490208

> <r_epik_State_Penalty>
0.473203

> <r_epik_Charging_Adjusted_Penalty>
0.473203

> <i_epik_Tot_Q>
0

> <i_epik_Tot_abs_Q>
0

> <r_epik_Metal_State_Penalty>
0.354099

> <b_epik_Metal_Only>
0

> <s_lp_Force_Field>
OPLS_2005

> <r_lp_Energy>
3.13918

> <b_lp_Chiralities_Consistent>
1

> <s_lp_Variant>
AV-unprocessed.smi:1006-1

> <Gold.Version>
5.8.1

> <Gold.Id.Protein>
6NUR|6NUR_protein|mol2

> <Gold.PLP.Fitness>
52.9555

> <Gold.PLP.PLP>
-44.1531

> <Gold.PLP.part.hbond>
-2.0000

> <Gold.PLP.part.metal>
0.0000

> <Gold.PLP.part.buried>
-5.9869

> <Gold.PLP.part.nonpolar>
-36.5112

> <Gold.PLP.part.repulsive>
1.0448

> <Gold.PLP.ligand.clash>
0.0000

> <Gold.PLP.ligand.torsion>
0.1206

> <Gold.PLP.Chemscore.Hbond>
2.0000

> <Gold.PLP.Chemscore.CHOScore>
1.0000

> <Gold.PLP.Chemscore.Metal>
0.0000

> <Gold.Chemscore.Hbonds>
donor molecule, donor type, donor heavy atom, donor atom, acceptor molecule, acceptor atom, score
      L1  H     5    30       P1  8029  1.00
      P1  H  7989  7998       L1    11  0.95
      L1  C    14    37       P1  8028  1.00

> <Gold.PLP.Chemscore.Internal.Correction>
0.0437

> <Gold.Rescore>
     Score         DG    S(hbond)    S(metal)    S(lipo)     H(rot)  DE(clash)    DE(int)     intcor
     14.18     -15.50       1.28        0.00     110.72       2.82       0.20       1.12       ----

> <Gold.Chemscore.Fitness>
14.1818

> <Gold.Chemscore.DG>
-15.4977

> <Gold.Chemscore.ZeroCoef>
-5.4800

> <Gold.Chemscore.Hbond>
1.2831

> <Gold.Chemscore.Metal>
0.0000

> <Gold.Chemscore.Lipo>
110.7154

> <Gold.Chemscore.Internal_Hbond>
0.0000

> <Gold.Chemscore.DEClash>
0.1996

> <Gold.Chemscore.DEInternal>
1.1164

> <Gold.Chemscore.Rot>
2.8209

> <Gold.Chemscore.Internal.Correction>
   9.000000E+99

> <Gold.Chemscore.Hbonds>
donor molecule, donor type, donor heavy atom, donor atom, acceptor molecule, acceptor atom, score
      L1  H     5    30       P1  8029  0.69
      P1  H  7989  7998       L1    11  0.14

> <Gold.Chemscore.Hbond.Weighted>
-4.2855

> <Gold.Chemscore.Metal.Weighted>
-0.0000

> <Gold.Chemscore.Lipo.Weighted>
-12.9537

> <Gold.Chemscore.Internal_Hbond.Weighted>
0.0000

> <Gold.Chemscore.DEClash.Weighted>
0.1996

> <Gold.Chemscore.DEInternal.Weighted>
1.1164

> <Gold.Chemscore.Rot.Weighted>
7.2215

> <Gold.Chemscore.Internal.Correction.Weighted>
   9.000000E+99

> <Gold.Protein.RotatedTorsions>
[ 6907 6896 6895 6894 ] final   92.74 input  -60.11 | X-H torsion
[ 7974 7965 7964 7962 ] final    9.34 input  175.53 | X-H torsion
[ 8008 7997 7996 7995 ] final   15.65 input   59.86 | X-H torsion
[ 10167 10162 10161 10158 ] final  124.26 input  -65.29 | X-H torsion
[ 10718 10713 10712 10709 ] final  -26.61 input   66.30 | X-H torsion
[ 10763 10752 10751 10750 ] final   -6.10 input  -60.55 | X-H torsion
[ 11005 11000 10999 10996 ] final   98.42 input  -57.11 | X-H torsion

> <Gold.Protein.ActiveResidues>
 VAL166  LYS551  ARG553  GLY616  TRP617  ASP618  TYR619  PRO620  LYS621  CYS622 
 ASP623  PHE694  ASN695  SER759  ASP760  ASP761  ALA762  ILE779  LEU786  VAL792 
 PHE793  MET794  SER795  GLU796  ALA797  LYS798  CYS799  TRP800  GLU811  SER814 

> <Gold.Protein.RotatedAtoms>
  152.5453  134.1455  159.8496 H   0  0  0  0  0  0  0  0  0  0  0  0  # atno 6907 bound_to 6896
  151.1487  133.4915  159.2603 H   0  0  0  0  0  0  0  0  0  0  0  0  # atno 6908 bound_to 6896
  151.1496  135.0231  159.8717 H   0  0  0  0  0  0  0  0  0  0  0  0  # atno 6909 bound_to 6896
  146.2405  139.9798  142.8437 H   0  0  0  0  0  0  0  0  0  0  0  0  # atno 7974 bound_to 7965
  154.8657  140.2951  155.5512 H   0  0  0  0  0  0  0  0  0  0  0  0  # atno 8008 bound_to 7997
  156.3020  140.2469  156.3571 H   0  0  0  0  0  0  0  0  0  0  0  0  # atno 8009 bound_to 7997
  154.8871  140.0396  157.1806 H   0  0  0  0  0  0  0  0  0  0  0  0  # atno 8010 bound_to 7997
  139.5752  144.6959  151.3673 H   0  0  0  0  0  0  0  0  0  0  0  0  # atno 10167 bound_to 10162
  156.4489  130.4480  149.7003 H   0  0  0  0  0  0  0  0  0  0  0  0  # atno 10718 bound_to 10713
  153.4077  135.7007  153.6381 H   0  0  0  0  0  0  0  0  0  0  0  0  # atno 10763 bound_to 10752
  153.4888  135.3677  155.2481 H   0  0  0  0  0  0  0  0  0  0  0  0  # atno 10764 bound_to 10752
  154.8715  135.4084  154.3423 H   0  0  0  0  0  0  0  0  0  0  0  0  # atno 10765 bound_to 10752
  139.8772  134.9048  156.4454 H   0  0  0  0  0  0  0  0  0  0  0  0  # atno 11005 bound_to 11000
  145.1602  140.9669  143.4381 LP  0  0  0  0  0  0  0  0  0  0  0  0  # atno 17320 bound_to 7965
  145.0123  139.3499  143.6114 LP  0  0  0  0  0  0  0  0  0  0  0  0  # atno 17321 bound_to 7965
  140.7035  143.7573  150.7442 LP  0  0  0  0  0  0  0  0  0  0  0  0  # atno 17342 bound_to 10162
  140.1091  143.4716  152.2381 LP  0  0  0  0  0  0  0  0  0  0  0  0  # atno 17343 bound_to 10162
  156.3837  130.7592  151.2587 LP  0  0  0  0  0  0  0  0  0  0  0  0  # atno 17370 bound_to 10713
  157.7503  131.0288  150.4065 LP  0  0  0  0  0  0  0  0  0  0  0  0  # atno 17371 bound_to 10713
  140.8970  133.7807  155.9636 LP  0  0  0  0  0  0  0  0  0  0  0  0  # atno 17394 bound_to 11000
  140.8692  134.2746  157.5198 LP  0  0  0  0  0  0  0  0  0  0  0  0  # atno 17395 bound_to 11000

$$$$
