AV-unprocessed.smi:2886|AV-procd|sdf|11093|dock6
  -GOLD-   2272015563D 1   1.00000     0.00000
 Structure written by MMmdl.
 28 30  0  0  0  0  0  0  0  0  3 V2000
  152.6646  136.9388  159.8198 O   0  0  0  0  0  0  0  0  0  0  0  0
  153.1504  138.0446  160.0497 C   0  0  0  0  0  0  0  0  0  0  0  0
  154.3138  138.2219  160.7439 N   0  5  0  0  0  0  0  0  0  0  0  0
  154.8091  139.4169  160.9768 N   0  3  0  0  0  0  0  0  0  0  0  0
  154.2358  140.5442  160.5676 C   0  0  0  0  0  0  0  0  0  0  0  0
  153.0217  140.5001  159.8267 C   0  0  0  0  0  0  0  0  0  0  0  0
  152.3811  141.6479  159.3764 N   0  0  0  0  0  0  0  0  0  0  0  0
  152.7644  143.0444  159.5402 C   0  0  2  0  0  0  0  0  0  0  0  0
  152.2018  143.6843  160.8101 C   0  0  0  0  0  0  0  0  0  0  0  0
  151.4908  144.9220  160.2440 C   0  0  2  0  0  0  0  0  0  0  0  0
  150.1752  144.5461  159.5501 C   0  0  0  0  0  0  0  0  0  0  0  0
  150.6787  143.8748  158.2736 C   0  0  0  0  0  0  0  0  0  0  0  0
  152.2050  143.9674  158.4441 C   0  0  1  0  0  0  0  0  0  0  0  0
  152.3022  145.2120  159.1168 O   0  0  0  0  0  0  0  0  0  0  0  0
  152.4842  139.2716  159.5750 C   0  0  0  0  0  0  0  0  0  0  0  0
  151.0041  139.1160  158.6870 Cl  0  0  0  0  0  0  0  0  0  0  0  0
  155.6879  139.5261  161.5069 H   0  0  0  0  0  0  0  0  0  0  0  0
  154.7337  141.4690  160.8287 H   0  0  0  0  0  0  0  0  0  0  0  0
  151.5948  141.5040  158.7582 H   0  0  0  0  0  0  0  0  0  0  0  0
  153.8491  143.1466  159.5398 H   0  0  0  0  0  0  0  0  0  0  0  0
  151.5184  143.0365  161.3614 H   0  0  0  0  0  0  0  0  0  0  0  0
  153.0130  143.9702  161.4802 H   0  0  0  0  0  0  0  0  0  0  0  0
  151.3960  145.7428  160.9554 H   0  0  0  0  0  0  0  0  0  0  0  0
  149.5556  143.8877  160.1599 H   0  0  0  0  0  0  0  0  0  0  0  0
  149.5940  145.4373  159.3095 H   0  0  0  0  0  0  0  0  0  0  0  0
  150.3204  142.8513  158.1610 H   0  0  0  0  0  0  0  0  0  0  0  0
  150.3569  144.4402  157.3983 H   0  0  0  0  0  0  0  0  0  0  0  0
  152.7577  143.9216  157.5052 H   0  0  0  0  0  0  0  0  0  0  0  0
  1  2  2  0  0  0  0
  2  3  1  0  0  0  0
  2 15  1  0  0  0  0
  3  4  1  0  0  0  0
  4  5  2  0  0  0  0
  4 17  1  0  0  0  0
  5  6  1  0  0  0  0
  5 18  1  0  0  0  0
  6 15  2  0  0  0  0
  6  7  1  0  0  0  0
  7  8  1  0  0  0  0
  7 19  1  0  0  0  0
  8 13  1  0  0  0  0
  8  9  1  0  0  0  0
  8 20  1  0  0  0  0
  9 10  1  0  0  0  0
  9 21  1  0  0  0  0
  9 22  1  0  0  0  0
 10 14  1  0  0  0  0
 10 11  1  0  0  0  0
 10 23  1  0  0  0  0
 11 12  1  0  0  0  0
 11 24  1  0  0  0  0
 11 25  1  0  0  0  0
 12 13  1  0  0  0  0
 12 26  1  0  0  0  0
 12 27  1  0  0  0  0
 13 14  1  0  0  0  0
 13 28  1  0  0  0  0
 15 16  1  0  0  0  0
M  CHG  1   3  -1
M  CHG  1   4   1
M  END
> <s_m_source_file>
AV-unprocessed.smi

> <i_m_source_file_index>
2886

> <i_lp_mmshare_version>
43012

> <i_f3d_flags>
0

> <s_epik_input>
Tz1jMVtuSF1uW2NIXWMoYzFDbClbTkhdW0NASF0oW0NIMl1bQ0BASF0yMylbQ0BASF0oTzMpW0NIMl1bQ0gyXTI=

> <s_epik_cmdline>
J2VwaWtfcHl0aG9uJywgJy1waCcsICc3LjAnLCAnLXRuJywgJzgnLCAnLW1hJywgJzIwMCcsICctbWV0YWxfYmluZGluZycsICctaW1hZScsICc8aW5maWxlLm1hZT4nLCAnLW9tYWUnLCAnPG91dGZpbGUubWFlPic=

> <r_lp_tautomer_probability>
0.0138196

> <r_epik_Ionization_Penalty>
2.43027

> <r_epik_Ionization_Penalty_Charging>
2.43027

> <r_epik_Ionization_Penalty_Neutral>
1.33267e-06

> <r_epik_State_Penalty>
2.7044

> <r_epik_Charging_Adjusted_Penalty>
5.13467

> <i_epik_Tot_Q>
0

> <i_epik_Tot_abs_Q>
2

> <r_epik_Metal_State_Penalty>
2.98589

> <b_epik_Metal_Only>
0

> <s_lp_Force_Field>
OPLS_2005

> <r_lp_Energy>
57.8079

> <b_lp_Chiralities_Consistent>
1

> <s_lp_Variant>
AV-unprocessed.smi:2886-7

> <Gold.Version>
5.8.1

> <Gold.Id.Protein>
6NUR|6NUR_protein|mol2

> <Gold.PLP.Fitness>
34.3595

> <Gold.PLP.PLP>
-32.1038

> <Gold.PLP.part.hbond>
-0.9968

> <Gold.PLP.part.metal>
0.0000

> <Gold.PLP.part.buried>
-6.3307

> <Gold.PLP.part.nonpolar>
-26.1942

> <Gold.PLP.part.repulsive>
0.1694

> <Gold.PLP.ligand.clash>
0.0000

> <Gold.PLP.ligand.torsion>
0.3636

> <Gold.PLP.Chemscore.Hbond>
0.9913

> <Gold.PLP.Chemscore.CHOScore>
0.0000

> <Gold.PLP.Chemscore.Metal>
0.0000

> <Gold.Chemscore.Hbonds>
donor molecule, donor type, donor heavy atom, donor atom, acceptor molecule, acceptor atom, score
      P1  H  6896  6909       L1     1  1.00

> <Gold.PLP.Chemscore.Internal.Correction>
0.0093

> <Gold.Rescore>
     Score         DG    S(hbond)    S(metal)    S(lipo)     H(rot)  DE(clash)    DE(int)     intcor
     16.95     -17.63       1.00        0.00      97.22       1.00       0.31       0.37       ----

> <Gold.Chemscore.Fitness>
16.9503

> <Gold.Chemscore.DG>
-17.6287

> <Gold.Chemscore.ZeroCoef>
-5.4800

> <Gold.Chemscore.Hbond>
0.9983

> <Gold.Chemscore.Metal>
0.0000

> <Gold.Chemscore.Lipo>
97.2173

> <Gold.Chemscore.Internal_Hbond>
0.0000

> <Gold.Chemscore.DEClash>
0.3081

> <Gold.Chemscore.DEInternal>
0.3703

> <Gold.Chemscore.Rot>
1.0000

> <Gold.Chemscore.Internal.Correction>
   9.000000E+99

> <Gold.Chemscore.Hbonds>
donor molecule, donor type, donor heavy atom, donor atom, acceptor molecule, acceptor atom, score
      P1  H  6896  6909       L1     1  0.96

> <Gold.Chemscore.Hbond.Weighted>
-3.3342

> <Gold.Chemscore.Metal.Weighted>
-0.0000

> <Gold.Chemscore.Lipo.Weighted>
-11.3744

> <Gold.Chemscore.Internal_Hbond.Weighted>
0.0000

> <Gold.Chemscore.DEClash.Weighted>
0.3081

> <Gold.Chemscore.DEInternal.Weighted>
0.3703

> <Gold.Chemscore.Rot.Weighted>
2.5600

> <Gold.Chemscore.Internal.Correction.Weighted>
   9.000000E+99

> <Gold.Protein.RotatedTorsions>
[ 6907 6896 6895 6894 ] final  146.11 input  -60.11 | X-H torsion
[ 7974 7965 7964 7962 ] final -108.38 input  175.53 | X-H torsion
[ 8008 7997 7996 7995 ] final    4.04 input   59.86 | X-H torsion
[ 10167 10162 10161 10158 ] final  174.62 input  -65.29 | X-H torsion
[ 10718 10713 10712 10709 ] final   28.25 input   66.30 | X-H torsion
[ 10763 10752 10751 10750 ] final   99.07 input  -60.55 | X-H torsion
[ 11005 11000 10999 10996 ] final  110.17 input  -57.11 | X-H torsion

> <Gold.Protein.ActiveResidues>
 VAL166  LYS551  ARG553  GLY616  TRP617  ASP618  TYR619  PRO620  LYS621  CYS622 
 ASP623  PHE694  ASN695  SER759  ASP760  ASP761  ALA762  ILE779  LEU786  VAL792 
 PHE793  MET794  SER795  GLU796  ALA797  LYS798  CYS799  TRP800  GLU811  SER814 

> <Gold.Protein.RotatedAtoms>
  152.1721  133.4650  159.4914 H   0  0  0  0  0  0  0  0  0  0  0  0  # atno 6907 bound_to 6896
  150.6921  134.1940  159.4305 H   0  0  0  0  0  0  0  0  0  0  0  0  # atno 6908 bound_to 6896
  151.9847  135.0010  160.0609 H   0  0  0  0  0  0  0  0  0  0  0  0  # atno 6909 bound_to 6896
  145.1936  140.9026  143.3410 H   0  0  0  0  0  0  0  0  0  0  0  0  # atno 7974 bound_to 7965
  154.7110  140.2692  155.6629 H   0  0  0  0  0  0  0  0  0  0  0  0  # atno 8008 bound_to 7997
  156.2795  140.2753  156.1676 H   0  0  0  0  0  0  0  0  0  0  0  0  # atno 8009 bound_to 7997
  155.0634  140.0371  157.2574 H   0  0  0  0  0  0  0  0  0  0  0  0  # atno 8010 bound_to 7997
  139.5148  144.3125  152.0278 H   0  0  0  0  0  0  0  0  0  0  0  0  # atno 10167 bound_to 10162
  157.2309  130.7023  149.6313 H   0  0  0  0  0  0  0  0  0  0  0  0  # atno 10718 bound_to 10713
  153.2969  135.4126  155.1217 H   0  0  0  0  0  0  0  0  0  0  0  0  # atno 10763 bound_to 10752
  154.8537  135.3532  154.5905 H   0  0  0  0  0  0  0  0  0  0  0  0  # atno 10764 bound_to 10752
  153.6329  135.7060  153.5327 H   0  0  0  0  0  0  0  0  0  0  0  0  # atno 10765 bound_to 10752
  139.8876  134.9477  156.6238 H   0  0  0  0  0  0  0  0  0  0  0  0  # atno 11005 bound_to 11000
  145.0016  139.3593  143.6164 LP  0  0  0  0  0  0  0  0  0  0  0  0  # atno 17320 bound_to 7965
  146.3431  139.9242  142.8762 LP  0  0  0  0  0  0  0  0  0  0  0  0  # atno 17321 bound_to 7965
  140.2569  144.4109  150.6200 LP  0  0  0  0  0  0  0  0  0  0  0  0  # atno 17342 bound_to 10162
  140.6185  143.2174  151.6743 LP  0  0  0  0  0  0  0  0  0  0  0  0  # atno 17343 bound_to 10162
  155.9675  130.4489  150.5637 LP  0  0  0  0  0  0  0  0  0  0  0  0  # atno 17370 bound_to 10713
  157.3479  131.0728  151.1737 LP  0  0  0  0  0  0  0  0  0  0  0  0  # atno 17371 bound_to 10713
  140.7719  133.8731  155.8498 LP  0  0  0  0  0  0  0  0  0  0  0  0  # atno 17394 bound_to 11000
  140.9835  134.1374  157.4473 LP  0  0  0  0  0  0  0  0  0  0  0  0  # atno 17395 bound_to 11000

$$$$
