AV-unprocessed.smi:1464|AV-procd|sdf|5948|dock6
  -GOLD-   22720 6 33D 1   1.00000     0.00000
 Structure written by MMmdl.
 41 42  0  0  0  0  0  0  0  0  1 V2000
  151.9415  145.6316  160.0621 C   0  0  0  0  0  0  0  0  0  0  0  0
  152.4071  144.2034  159.7217 C   0  0  1  0  0  0  0  0  0  0  0  0
  152.2049  143.2909  160.9477 C   0  0  0  0  0  0  0  0  0  0  0  0
  152.6839  141.8603  160.6798 C   0  0  0  0  0  0  0  0  0  0  0  0
  151.9617  141.2687  159.4662 C   0  0  0  0  0  0  0  0  0  0  0  0
  152.1506  142.1476  158.2144 C   0  0  1  0  0  0  0  0  0  0  0  0
  151.3998  141.5646  157.1034 N   0  0  0  0  0  0  0  0  0  0  0  0
  150.0939  141.7533  156.8595 C   0  0  0  0  0  0  0  0  0  0  0  0
  149.3663  142.4460  157.5726 O   0  0  0  0  0  0  0  0  0  0  0  0
  149.5322  141.0290  155.6275 C   0  0  0  0  0  0  0  0  0  0  0  0
  150.2705  139.8065  155.2781 N   0  0  0  0  0  0  0  0  0  0  0  0
  151.6374  139.9912  155.1355 N   0  0  0  0  0  0  0  0  0  0  0  0
  152.3957  138.9906  154.8383 C   0  0  0  0  0  0  0  0  0  0  0  0
  153.7437  139.2181  154.7081 O   0  0  0  0  0  0  0  0  0  0  0  0
  151.8467  137.6662  154.6465 C   0  0  0  0  0  0  0  0  0  0  0  0
  150.5132  137.4970  154.7825 C   0  0  0  0  0  0  0  0  0  0  0  0
  149.6238  138.6109  155.1169 C   0  0  0  0  0  0  0  0  0  0  0  0
  148.4055  138.4868  155.2421 O   0  0  0  0  0  0  0  0  0  0  0  0
  151.7070  143.6153  158.4632 C   0  0  2  0  0  0  0  0  0  0  0  0
  151.9469  144.4859  157.2097 C   0  0  0  0  0  0  0  0  0  0  0  0
  153.8306  139.7874  153.9591 H   0  0  0  0  0  0  0  0  0  0  0  0
  150.8591  145.6774  160.1857 H   0  0  0  0  0  0  0  0  0  0  0  0
  152.2238  146.3470  159.2904 H   0  0  0  0  0  0  0  0  0  0  0  0
  152.3946  145.9796  160.9909 H   0  0  0  0  0  0  0  0  0  0  0  0
  153.4786  144.2490  159.5204 H   0  0  0  0  0  0  0  0  0  0  0  0
  152.7428  143.6940  161.8065 H   0  0  0  0  0  0  0  0  0  0  0  0
  151.1500  143.2752  161.2259 H   0  0  0  0  0  0  0  0  0  0  0  0
  153.7613  141.8557  160.5082 H   0  0  0  0  0  0  0  0  0  0  0  0
  152.5063  141.2381  161.5574 H   0  0  0  0  0  0  0  0  0  0  0  0
  152.3347  140.2609  159.2788 H   0  0  0  0  0  0  0  0  0  0  0  0
  150.8990  141.1671  159.6915 H   0  0  0  0  0  0  0  0  0  0  0  0
  153.2123  142.1602  157.9598 H   0  0  0  0  0  0  0  0  0  0  0  0
  151.9181  140.9755  156.4678 H   0  0  0  0  0  0  0  0  0  0  0  0
  148.4798  140.7905  155.7931 H   0  0  0  0  0  0  0  0  0  0  0  0
  149.5448  141.7300  154.7909 H   0  0  0  0  0  0  0  0  0  0  0  0
  152.4958  136.8388  154.4001 H   0  0  0  0  0  0  0  0  0  0  0  0
  150.0895  136.5136  154.6419 H   0  0  0  0  0  0  0  0  0  0  0  0
  150.6327  143.6087  158.6557 H   0  0  0  0  0  0  0  0  0  0  0  0
  153.0113  144.5777  156.9916 H   0  0  0  0  0  0  0  0  0  0  0  0
  151.5417  145.4898  157.3293 H   0  0  0  0  0  0  0  0  0  0  0  0
  151.4651  144.0687  156.3257 H   0  0  0  0  0  0  0  0  0  0  0  0
  1  2  1  0  0  0  0
  1 22  1  0  0  0  0
  1 23  1  0  0  0  0
  1 24  1  0  0  0  0
  2 19  1  0  0  0  0
  2  3  1  0  0  0  0
  2 25  1  0  0  0  0
  3  4  1  0  0  0  0
  3 26  1  0  0  0  0
  3 27  1  0  0  0  0
  4  5  1  0  0  0  0
  4 28  1  0  0  0  0
  4 29  1  0  0  0  0
  5  6  1  0  0  0  0
  5 30  1  0  0  0  0
  5 31  1  0  0  0  0
  6  7  1  0  0  0  0
  6 19  1  0  0  0  0
  6 32  1  0  0  0  0
  7  8  1  0  0  0  0
  7 33  1  0  0  0  0
  8  9  2  0  0  0  0
  8 10  1  0  0  0  0
 10 34  1  0  0  0  0
 10 35  1  0  0  0  0
 10 11  1  0  0  0  0
 11 12  1  0  0  0  0
 11 17  1  0  0  0  0
 12 13  2  0  0  0  0
 13 14  1  0  0  0  0
 13 15  1  0  0  0  0
 14 21  1  0  0  0  0
 15 36  1  0  0  0  0
 15 16  2  0  0  0  0
 16 37  1  0  0  0  0
 16 17  1  0  0  0  0
 17 18  2  0  0  0  0
 19 20  1  0  0  0  0
 19 38  1  0  0  0  0
 20 39  1  0  0  0  0
 20 40  1  0  0  0  0
 20 41  1  0  0  0  0
M  END
> <s_m_source_file>
AV-unprocessed.smi

> <i_m_source_file_index>
1464

> <i_lp_mmshare_version>
43012

> <i_f3d_flags>
0

> <s_epik_input>
W0NIM11bQ0BASF0xW0NIMl1bQ0gyXVtDSDJdW0NASF0oW0NASF0xW0NIM10pW05IXUMoPU8pW0NIMl1uMltuSF1jKD1PKVtjSF1bY0hdYzI9Tw==

> <s_epik_cmdline>
J2VwaWtfcHl0aG9uJywgJy1waCcsICc3LjAnLCAnLXRuJywgJzgnLCAnLW1hJywgJzIwMCcsICctbWV0YWxfYmluZGluZycsICctaW1hZScsICc8aW5maWxlLm1hZT4nLCAnLW9tYWUnLCAnPG91dGZpbGUubWFlPic=

> <r_lp_tautomer_probability>
0.9996

> <r_epik_Ionization_Penalty>
2.10335

> <r_epik_Ionization_Penalty_Charging>
3.98079e-08

> <r_epik_Ionization_Penalty_Neutral>
2.10335

> <r_epik_State_Penalty>
1.67957

> <r_epik_Charging_Adjusted_Penalty>
1.67957

> <i_epik_Tot_Q>
0

> <i_epik_Tot_abs_Q>
0

> <r_epik_Metal_State_Penalty>
1.67957

> <b_epik_Metal_Only>
0

> <s_lp_Force_Field>
OPLS_2005

> <r_lp_Energy>
24.139

> <b_lp_Chiralities_Consistent>
1

> <s_lp_Variant>
AV-unprocessed.smi:1464-14

> <Gold.Version>
5.8.1

> <Gold.Id.Protein>
6NUR|6NUR_protein|mol2

> <Gold.PLP.Fitness>
47.9956

> <Gold.PLP.PLP>
-43.7447

> <Gold.PLP.part.hbond>
-2.0755

> <Gold.PLP.part.metal>
0.0000

> <Gold.PLP.part.buried>
-5.6283

> <Gold.PLP.part.nonpolar>
-37.0009

> <Gold.PLP.part.repulsive>
0.8911

> <Gold.PLP.ligand.clash>
0.0000

> <Gold.PLP.ligand.torsion>
0.7282

> <Gold.PLP.Chemscore.Hbond>
1.9000

> <Gold.PLP.Chemscore.CHOScore>
0.0000

> <Gold.PLP.Chemscore.Metal>
0.0000

> <Gold.Chemscore.Hbonds>
donor molecule, donor type, donor heavy atom, donor atom, acceptor molecule, acceptor atom, score
      P1  H  7989  7998       L1    12  0.95
      P1  H  7997  8009       L1    14  0.85

> <Gold.PLP.Chemscore.Internal.Correction>
0.0073

> <Gold.Rescore>
     Score         DG    S(hbond)    S(metal)    S(lipo)     H(rot)  DE(clash)    DE(int)     intcor
     11.64     -15.47       0.87        0.00     109.09       2.22       0.23       3.60       ----

> <Gold.Chemscore.Fitness>
11.6387

> <Gold.Chemscore.DG>
-15.4719

> <Gold.Chemscore.ZeroCoef>
-5.4800

> <Gold.Chemscore.Hbond>
0.8736

> <Gold.Chemscore.Metal>
0.0000

> <Gold.Chemscore.Lipo>
109.0877

> <Gold.Chemscore.Internal_Hbond>
0.0000

> <Gold.Chemscore.DEClash>
0.2338

> <Gold.Chemscore.DEInternal>
3.5994

> <Gold.Chemscore.Rot>
2.2224

> <Gold.Chemscore.Internal.Correction>
   9.000000E+99

> <Gold.Chemscore.Hbonds>
donor molecule, donor type, donor heavy atom, donor atom, acceptor molecule, acceptor atom, score
      P1  H  7989  7998       L1    12  0.05
      P1  H  7997  8009       L1    14  0.14

> <Gold.Chemscore.Hbond.Weighted>
-2.9179

> <Gold.Chemscore.Metal.Weighted>
-0.0000

> <Gold.Chemscore.Lipo.Weighted>
-12.7633

> <Gold.Chemscore.Internal_Hbond.Weighted>
0.0000

> <Gold.Chemscore.DEClash.Weighted>
0.2338

> <Gold.Chemscore.DEInternal.Weighted>
3.5994

> <Gold.Chemscore.Rot.Weighted>
5.6893

> <Gold.Chemscore.Internal.Correction.Weighted>
   9.000000E+99

> <Gold.Protein.RotatedTorsions>
[ 6907 6896 6895 6894 ] final -123.62 input  -60.11 | X-H torsion
[ 7974 7965 7964 7962 ] final  -31.54 input  175.53 | X-H torsion
[ 8008 7997 7996 7995 ] final -129.15 input   59.86 | X-H torsion
[ 10167 10162 10161 10158 ] final  135.32 input  -65.29 | X-H torsion
[ 10718 10713 10712 10709 ] final  126.90 input   66.30 | X-H torsion
[ 10763 10752 10751 10750 ] final   83.48 input  -60.55 | X-H torsion
[ 11005 11000 10999 10996 ] final    0.31 input  -57.11 | X-H torsion

> <Gold.Protein.ActiveResidues>
 VAL166  LYS551  ARG553  GLY616  TRP617  ASP618  TYR619  PRO620  LYS621  CYS622 
 ASP623  PHE694  ASN695  SER759  ASP760  ASP761  ALA762  ILE779  LEU786  VAL792 
 PHE793  MET794  SER795  GLU796  ALA797  LYS798  CYS799  TRP800  GLU811  SER814 

> <Gold.Protein.RotatedAtoms>
  150.8688  133.7535  159.2967 H   0  0  0  0  0  0  0  0  0  0  0  0  # atno 6907 bound_to 6896
  151.5154  135.1064  159.9874 H   0  0  0  0  0  0  0  0  0  0  0  0  # atno 6908 bound_to 6896
  152.4680  133.7922  159.6963 H   0  0  0  0  0  0  0  0  0  0  0  0  # atno 6909 bound_to 6896
  146.1059  140.5680  142.8799 H   0  0  0  0  0  0  0  0  0  0  0  0  # atno 7974 bound_to 7965
  155.2745  140.0441  157.3010 H   0  0  0  0  0  0  0  0  0  0  0  0  # atno 8008 bound_to 7997
  154.5633  140.2352  155.8270 H   0  0  0  0  0  0  0  0  0  0  0  0  # atno 8009 bound_to 7997
  156.2065  140.3011  155.9646 H   0  0  0  0  0  0  0  0  0  0  0  0  # atno 8010 bound_to 7997
  139.5222  144.6523  151.5266 H   0  0  0  0  0  0  0  0  0  0  0  0  # atno 10167 bound_to 10162
  157.5379  131.1097  150.8906 H   0  0  0  0  0  0  0  0  0  0  0  0  # atno 10718 bound_to 10713
  153.1295  135.4689  154.9326 H   0  0  0  0  0  0  0  0  0  0  0  0  # atno 10763 bound_to 10752
  154.7651  135.3142  154.8304 H   0  0  0  0  0  0  0  0  0  0  0  0  # atno 10764 bound_to 10752
  153.8850  135.6890  153.4818 H   0  0  0  0  0  0  0  0  0  0  0  0  # atno 10765 bound_to 10752
  140.6279  133.9601  155.8259 H   0  0  0  0  0  0  0  0  0  0  0  0  # atno 11005 bound_to 11000
  144.7471  140.5095  143.6828 LP  0  0  0  0  0  0  0  0  0  0  0  0  # atno 17320 bound_to 7965
  145.5761  139.1486  143.3261 LP  0  0  0  0  0  0  0  0  0  0  0  0  # atno 17321 bound_to 7965
  140.6333  143.9033  150.6625 LP  0  0  0  0  0  0  0  0  0  0  0  0  # atno 17342 bound_to 10162
  140.2344  143.3711  152.1539 LP  0  0  0  0  0  0  0  0  0  0  0  0  # atno 17343 bound_to 10162
  156.9467  130.5405  149.5281 LP  0  0  0  0  0  0  0  0  0  0  0  0  # atno 17370 bound_to 10713
  156.0473  130.5548  150.8910 LP  0  0  0  0  0  0  0  0  0  0  0  0  # atno 17371 bound_to 10713
  141.0696  134.0225  157.3545 LP  0  0  0  0  0  0  0  0  0  0  0  0  # atno 17394 bound_to 11000
  139.9127  135.0192  156.7758 LP  0  0  0  0  0  0  0  0  0  0  0  0  # atno 17395 bound_to 11000

$$$$
