AV-unprocessed.smi:1626|AV-procd|sdf|6510|dock10
  -GOLD-   22720 7183D 1   1.00000     0.00000
 Structure written by MMmdl.
 49 51  0  0  0  0  0  0  0  0  3 V2000
  152.1236  144.3199  160.7112 C   0  0  0  0  0  0  0  0  0  0  0  0
  151.9655  143.2809  159.6143 C   0  0  0  0  0  0  0  0  0  0  0  0
  151.0810  143.5564  158.5468 C   0  0  0  0  0  0  0  0  0  0  0  0
  150.9608  142.5885  157.5568 C   0  0  0  0  0  0  0  0  0  0  0  0
  150.1915  142.5610  156.3913 N   0  3  0  0  0  0  0  0  0  0  0  0
  150.4128  141.3923  155.7277 C   0  0  0  0  0  0  0  0  0  0  0  0
  151.3031  140.6677  156.4596 N   0  0  0  0  0  0  0  0  0  0  0  0
  151.8884  139.3459  156.1997 C   0  0  0  0  0  0  0  0  0  0  0  0
  150.8437  138.2116  156.1537 C   0  0  2  0  0  0  0  0  0  0  0  0
  151.2922  137.1956  157.0274 O   0  0  0  0  0  0  0  0  0  0  0  0
  150.6476  137.6153  154.7418 C   0  0  0  0  0  0  0  0  0  0  0  0
  149.2403  137.6980  154.2727 N   0  3  2  0  0  0  0  0  0  0  0  0
  148.7763  139.1028  154.1317 C   0  0  0  0  0  0  0  0  0  0  0  0
  147.3715  139.1646  153.5090 C   0  0  0  0  0  0  0  0  0  0  0  0
  146.3702  138.3423  154.3333 C   0  0  1  0  0  0  0  0  0  0  0  0
  145.1167  138.3334  153.6845 O   0  0  0  0  0  0  0  0  0  0  0  0
  146.8835  136.9038  154.4929 C   0  0  0  0  0  0  0  0  0  0  0  0
  148.2983  136.8919  155.0962 C   0  0  0  0  0  0  0  0  0  0  0  0
  151.6810  141.3792  157.6032 C   0  0  0  0  0  0  0  0  0  0  0  0
  152.5580  141.0923  158.6462 C   0  0  0  0  0  0  0  0  0  0  0  0
  152.6933  142.0637  159.6637 C   0  0  0  0  0  0  0  0  0  0  0  0
  153.6409  141.7776  160.8163 C   0  0  0  0  0  0  0  0  0  0  0  0
  151.5337  145.2131  160.5031 H   0  0  0  0  0  0  0  0  0  0  0  0
  153.1661  144.6253  160.8036 H   0  0  0  0  0  0  0  0  0  0  0  0
  151.7938  143.9177  161.6693 H   0  0  0  0  0  0  0  0  0  0  0  0
  150.5255  144.4818  158.5016 H   0  0  0  0  0  0  0  0  0  0  0  0
  149.9625  141.0951  154.7913 H   0  0  0  0  0  0  0  0  0  0  0  0
  152.4199  139.4087  155.2488 H   0  0  0  0  0  0  0  0  0  0  0  0
  152.6430  139.1531  156.9639 H   0  0  0  0  0  0  0  0  0  0  0  0
  149.9004  138.5915  156.5431 H   0  0  0  0  0  0  0  0  0  0  0  0
  150.9324  137.3455  157.8881 H   0  0  0  0  0  0  0  0  0  0  0  0
  151.2849  138.1155  154.0116 H   0  0  0  0  0  0  0  0  0  0  0  0
  150.9738  136.5741  154.7613 H   0  0  0  0  0  0  0  0  0  0  0  0
  148.7783  139.5892  155.1086 H   0  0  0  0  0  0  0  0  0  0  0  0
  149.4697  139.6585  153.4989 H   0  0  0  0  0  0  0  0  0  0  0  0
  147.0411  140.2019  153.4419 H   0  0  0  0  0  0  0  0  0  0  0  0
  147.4124  138.7855  152.4865 H   0  0  0  0  0  0  0  0  0  0  0  0
  146.2429  138.7982  155.3163 H   0  0  0  0  0  0  0  0  0  0  0  0
  144.8638  139.2253  153.4991 H   0  0  0  0  0  0  0  0  0  0  0  0
  146.2051  136.3309  155.1266 H   0  0  0  0  0  0  0  0  0  0  0  0
  146.8993  136.4036  153.5231 H   0  0  0  0  0  0  0  0  0  0  0  0
  148.6407  135.8604  155.1697 H   0  0  0  0  0  0  0  0  0  0  0  0
  148.2734  137.2868  156.1131 H   0  0  0  0  0  0  0  0  0  0  0  0
  153.1172  140.1689  158.6804 H   0  0  0  0  0  0  0  0  0  0  0  0
  154.0899  140.7880  160.7274 H   0  0  0  0  0  0  0  0  0  0  0  0
  153.1113  141.8171  161.7684 H   0  0  0  0  0  0  0  0  0  0  0  0
  154.4487  142.5094  160.8374 H   0  0  0  0  0  0  0  0  0  0  0  0
  149.2278  137.3085  153.3410 H   0  0  0  0  0  0  0  0  0  0  0  0
  149.5683  143.2893  156.0660 H   0  0  0  0  0  0  0  0  0  0  0  0
  1  2  1  0  0  0  0
  1 23  1  0  0  0  0
  1 24  1  0  0  0  0
  1 25  1  0  0  0  0
  2 21  1  0  0  0  0
  2  3  2  0  0  0  0
  3  4  1  0  0  0  0
  3 26  1  0  0  0  0
  4 19  2  0  0  0  0
  4  5  1  0  0  0  0
  5  6  2  0  0  0  0
  5 49  1  0  0  0  0
  6  7  1  0  0  0  0
  6 27  1  0  0  0  0
  7  8  1  0  0  0  0
  7 19  1  0  0  0  0
  8  9  1  0  0  0  0
  8 28  1  0  0  0  0
  8 29  1  0  0  0  0
  9 10  1  0  0  0  0
  9 11  1  0  0  0  0
  9 30  1  0  0  0  0
 10 31  1  0  0  0  0
 11 12  1  0  0  0  0
 11 32  1  0  0  0  0
 11 33  1  0  0  0  0
 12 18  1  0  0  0  0
 12 13  1  0  0  0  0
 12 48  1  0  0  0  0
 13 14  1  0  0  0  0
 13 34  1  0  0  0  0
 13 35  1  0  0  0  0
 14 15  1  0  0  0  0
 14 36  1  0  0  0  0
 14 37  1  0  0  0  0
 15 16  1  0  0  0  0
 15 17  1  0  0  0  0
 15 38  1  0  0  0  0
 16 39  1  0  0  0  0
 17 18  1  0  0  0  0
 17 40  1  0  0  0  0
 17 41  1  0  0  0  0
 18 42  1  0  0  0  0
 18 43  1  0  0  0  0
 19 20  1  0  0  0  0
 20 21  2  0  0  0  0
 20 44  1  0  0  0  0
 21 22  1  0  0  0  0
 22 45  1  0  0  0  0
 22 46  1  0  0  0  0
 22 47  1  0  0  0  0
M  CHG  1   5   1
M  CHG  1  12   1
M  END
> <s_m_source_file>
AV-unprocessed.smi

> <i_m_source_file_index>
1626

> <i_lp_mmshare_version>
43012

> <i_f3d_flags>
0

> <s_epik_input>
W0NIM11jKFtjSF0xKWMoW0NIM10pW2NIXWMoYzEyKW4oW2NIXW4yKVtDSDJdW0NASF0oW09IXSlbQ0gyXU4zW0NIMl1bQ0gyXVtDSF0oW09IXSlbQ0gyXVtDSDJdMw==

> <s_epik_cmdline>
J2VwaWtfcHl0aG9uJywgJy1waCcsICc3LjAnLCAnLXRuJywgJzgnLCAnLW1hJywgJzIwMCcsICctbWV0YWxfYmluZGluZycsICctaW1hZScsICc8aW5maWxlLm1hZT4nLCAnLW9tYWUnLCAnPG91dGZpbGUubWFlPic=

> <r_epik_Ionization_Penalty>
1.19369

> <r_epik_Ionization_Penalty_Charging>
1.19369

> <r_epik_Ionization_Penalty_Neutral>
1.68219e-06

> <r_epik_State_Penalty>
1.27429

> <r_epik_Charging_Adjusted_Penalty>
2.46798

> <i_epik_Tot_Q>
2

> <i_epik_Tot_abs_Q>
2

> <r_epik_Metal_State_Penalty>
5.29157

> <b_epik_Metal_Only>
0

> <s_lp_Force_Field>
OPLS_2005

> <r_lp_Energy>
33.2617

> <b_lp_Chiralities_Consistent>
1

> <s_lp_Variant>
AV-unprocessed.smi:1626-5

> <Gold.Version>
5.8.1

> <Gold.Id.Protein>
6NUR|6NUR_protein|mol2

> <Gold.PLP.Fitness>
54.0637

> <Gold.PLP.PLP>
-42.0009

> <Gold.PLP.part.hbond>
-3.0000

> <Gold.PLP.part.metal>
0.0000

> <Gold.PLP.part.buried>
-4.5318

> <Gold.PLP.part.nonpolar>
-34.2149

> <Gold.PLP.part.repulsive>
0.1076

> <Gold.PLP.ligand.clash>
0.0000

> <Gold.PLP.ligand.torsion>
1.4692

> <Gold.PLP.Chemscore.Hbond>
4.9920

> <Gold.PLP.Chemscore.CHOScore>
0.0000

> <Gold.PLP.Chemscore.Metal>
0.0000

> <Gold.Chemscore.Hbonds>
donor molecule, donor type, donor heavy atom, donor atom, acceptor molecule, acceptor atom, score
      L1  H     5    49       P1  8028  2.00
      L1  H    12    48       P1  7948  2.00
      L1  H    16    39       P1 10175  0.94

> <Gold.PLP.Chemscore.Internal.Correction>
0.0253

> <Gold.Rescore>
     Score         DG    S(hbond)    S(metal)    S(lipo)     H(rot)  DE(clash)    DE(int)     intcor
     19.98     -21.58       2.95        0.00     113.45       2.74       0.11       1.49       ----

> <Gold.Chemscore.Fitness>
19.9797

> <Gold.Chemscore.DG>
-21.5838

> <Gold.Chemscore.ZeroCoef>
-5.4800

> <Gold.Chemscore.Hbond>
2.9462

> <Gold.Chemscore.Metal>
0.0000

> <Gold.Chemscore.Lipo>
113.4502

> <Gold.Chemscore.Internal_Hbond>
0.0000

> <Gold.Chemscore.DEClash>
0.1138

> <Gold.Chemscore.DEInternal>
1.4903

> <Gold.Chemscore.Rot>
2.7384

> <Gold.Chemscore.Internal.Correction>
   9.000000E+99

> <Gold.Chemscore.Hbonds>
donor molecule, donor type, donor heavy atom, donor atom, acceptor molecule, acceptor atom, score
      L1  H     5    49       P1  8028  0.99
      L1  H    12    48       P1  7948  0.99
      L1  H    16    39       P1 10175  0.87

> <Gold.Chemscore.Hbond.Weighted>
-9.8405

> <Gold.Chemscore.Metal.Weighted>
-0.0000

> <Gold.Chemscore.Lipo.Weighted>
-13.2737

> <Gold.Chemscore.Internal_Hbond.Weighted>
0.0000

> <Gold.Chemscore.DEClash.Weighted>
0.1138

> <Gold.Chemscore.DEInternal.Weighted>
1.4903

> <Gold.Chemscore.Rot.Weighted>
7.0103

> <Gold.Chemscore.Internal.Correction.Weighted>
   9.000000E+99

> <Gold.Protein.RotatedTorsions>
[ 6907 6896 6895 6894 ] final  -93.59 input  -60.11 | X-H torsion
[ 7974 7965 7964 7962 ] final   65.67 input  175.53 | X-H torsion
[ 8008 7997 7996 7995 ] final   33.91 input   59.86 | X-H torsion
[ 10167 10162 10161 10158 ] final -137.86 input  -65.29 | X-H torsion
[ 10718 10713 10712 10709 ] final    9.84 input   66.30 | X-H torsion
[ 10763 10752 10751 10750 ] final   75.93 input  -60.55 | X-H torsion
[ 11005 11000 10999 10996 ] final   13.39 input  -57.11 | X-H torsion

> <Gold.Protein.ActiveResidues>
 VAL166  LYS551  ARG553  GLY616  TRP617  ASP618  TYR619  PRO620  LYS621  CYS622 
 ASP623  PHE694  ASN695  SER759  ASP760  ASP761  ALA762  ILE779  LEU786  VAL792 
 PHE793  MET794  SER795  GLU796  ALA797  LYS798  CYS799  TRP800  GLU811  SER814 

> <Gold.Protein.RotatedAtoms>
  150.6925  134.1944  159.4297 H   0  0  0  0  0  0  0  0  0  0  0  0  # atno 6907 bound_to 6896
  151.9913  134.9975  160.0571 H   0  0  0  0  0  0  0  0  0  0  0  0  # atno 6908 bound_to 6896
  152.1664  133.4580  159.4924 H   0  0  0  0  0  0  0  0  0  0  0  0  # atno 6909 bound_to 6896
  145.8358  139.3166  143.0961 H   0  0  0  0  0  0  0  0  0  0  0  0  # atno 7974 bound_to 7965
  155.1463  140.3271  155.4441 H   0  0  0  0  0  0  0  0  0  0  0  0  # atno 8008 bound_to 7997
  156.2589  140.1985  156.6526 H   0  0  0  0  0  0  0  0  0  0  0  0  # atno 8009 bound_to 7997
  154.6506  140.0559  156.9937 H   0  0  0  0  0  0  0  0  0  0  0  0  # atno 8010 bound_to 7997
  139.8536  143.7167  152.2656 H   0  0  0  0  0  0  0  0  0  0  0  0  # atno 10167 bound_to 10162
  156.9722  130.5973  149.5670 H   0  0  0  0  0  0  0  0  0  0  0  0  # atno 10718 bound_to 10713
  153.0689  135.4970  154.8261 H   0  0  0  0  0  0  0  0  0  0  0  0  # atno 10763 bound_to 10752
  154.6994  135.2999  154.9366 H   0  0  0  0  0  0  0  0  0  0  0  0  # atno 10764 bound_to 10752
  154.0094  135.6756  153.4817 H   0  0  0  0  0  0  0  0  0  0  0  0  # atno 10765 bound_to 10752
  140.4812  134.0933  155.7751 H   0  0  0  0  0  0  0  0  0  0  0  0  # atno 11005 bound_to 11000
  145.9521  140.8901  143.0254 LP  0  0  0  0  0  0  0  0  0  0  0  0  # atno 17320 bound_to 7965
  144.6736  140.1694  143.7415 LP  0  0  0  0  0  0  0  0  0  0  0  0  # atno 17321 bound_to 7965
  139.7441  144.7552  151.0606 LP  0  0  0  0  0  0  0  0  0  0  0  0  # atno 17342 bound_to 10162
  140.7784  143.4937  150.9860 LP  0  0  0  0  0  0  0  0  0  0  0  0  # atno 17343 bound_to 10162
  156.0278  130.5371  150.8453 LP  0  0  0  0  0  0  0  0  0  0  0  0  # atno 17370 bound_to 10713
  157.5584  131.0945  150.9594 LP  0  0  0  0  0  0  0  0  0  0  0  0  # atno 17371 bound_to 10713
  141.1530  133.8934  157.2050 LP  0  0  0  0  0  0  0  0  0  0  0  0  # atno 17394 bound_to 11000
  139.9825  135.0093  156.9784 LP  0  0  0  0  0  0  0  0  0  0  0  0  # atno 17395 bound_to 11000

$$$$
