AV-unprocessed.smi:3102|AV-procd|sdf|11812|dock8
  -GOLD-   2272017183D 1   1.00000     0.00000
 Structure written by MMmdl.
 31 32  0  0  0  0  0  0  0  0  1 V2000
  153.8977  142.9435  163.8915 C   0  0  0  0  0  0  0  0  0  0  0  0
  154.1027  141.9231  162.9205 O   0  0  0  0  0  0  0  0  0  0  0  0
  153.4716  142.0449  161.6996 C   0  0  0  0  0  0  0  0  0  0  0  0
  153.6312  141.0164  160.7519 C   0  0  0  0  0  0  0  0  0  0  0  0
  152.9916  141.1378  159.5044 C   0  0  0  0  0  0  0  0  0  0  0  0
  152.2096  142.2859  159.2348 C   0  0  0  0  0  0  0  0  0  0  0  0
  151.5418  142.4807  158.0140 N   0  0  0  0  0  0  0  0  0  0  0  0
  150.7553  141.4207  157.3960 C   0  0  2  0  0  0  0  0  0  0  0  0
  151.2056  141.0679  155.9914 C   0  0  0  0  0  0  0  0  0  0  0  0
  149.9643  140.3769  155.4358 C   0  0  0  0  0  0  0  0  0  0  0  0
  148.8533  140.9925  156.0831 O   0  0  0  0  0  0  0  0  0  0  0  0
  149.3083  141.8353  157.1381 C   0  0  0  0  0  0  0  0  0  0  0  0
  152.1081  143.2616  160.2572 C   0  0  0  0  0  0  0  0  0  0  0  0
  151.2900  144.5272  160.0667 C   0  0  0  0  0  0  0  0  0  0  0  0
  152.7221  143.1471  161.4555 N   0  0  0  0  0  0  0  0  0  0  0  0
  154.4618  142.7026  164.7924 H   0  0  0  0  0  0  0  0  0  0  0  0
  152.8463  143.0231  164.1712 H   0  0  0  0  0  0  0  0  0  0  0  0
  154.2471  143.9123  163.5318 H   0  0  0  0  0  0  0  0  0  0  0  0
  154.2338  140.1491  160.9774 H   0  0  0  0  0  0  0  0  0  0  0  0
  153.1114  140.3481  158.7786 H   0  0  0  0  0  0  0  0  0  0  0  0
  151.8265  143.2531  157.4286 H   0  0  0  0  0  0  0  0  0  0  0  0
  150.7533  140.5301  158.0254 H   0  0  0  0  0  0  0  0  0  0  0  0
  151.4149  141.9722  155.4174 H   0  0  0  0  0  0  0  0  0  0  0  0
  152.0915  140.4334  155.9630 H   0  0  0  0  0  0  0  0  0  0  0  0
  149.8918  140.4621  154.3513 H   0  0  0  0  0  0  0  0  0  0  0  0
  149.9715  139.3171  155.6929 H   0  0  0  0  0  0  0  0  0  0  0  0
  148.6807  141.7424  158.0249 H   0  0  0  0  0  0  0  0  0  0  0  0
  149.2546  142.8689  156.7923 H   0  0  0  0  0  0  0  0  0  0  0  0
  151.6734  145.1038  159.2244 H   0  0  0  0  0  0  0  0  0  0  0  0
  151.3223  145.1633  160.9523 H   0  0  0  0  0  0  0  0  0  0  0  0
  150.2467  144.2789  159.8696 H   0  0  0  0  0  0  0  0  0  0  0  0
  1  2  1  0  0  0  0
  1 16  1  0  0  0  0
  1 17  1  0  0  0  0
  1 18  1  0  0  0  0
  2  3  1  0  0  0  0
  3 15  1  0  0  0  0
  3  4  2  0  0  0  0
  4  5  1  0  0  0  0
  4 19  1  0  0  0  0
  5  6  2  0  0  0  0
  5 20  1  0  0  0  0
  6  7  1  0  0  0  0
  6 13  1  0  0  0  0
  7  8  1  0  0  0  0
  7 21  1  0  0  0  0
  8 12  1  0  0  0  0
  8  9  1  0  0  0  0
  8 22  1  0  0  0  0
  9 10  1  0  0  0  0
  9 23  1  0  0  0  0
  9 24  1  0  0  0  0
 10 11  1  0  0  0  0
 10 25  1  0  0  0  0
 10 26  1  0  0  0  0
 11 12  1  0  0  0  0
 12 27  1  0  0  0  0
 12 28  1  0  0  0  0
 13 14  1  0  0  0  0
 13 15  2  0  0  0  0
 14 29  1  0  0  0  0
 14 30  1  0  0  0  0
 14 31  1  0  0  0  0
M  END
> <s_m_source_file>
AV-unprocessed.smi

> <i_m_source_file_index>
3102

> <i_lp_mmshare_version>
43012

> <i_f3d_flags>
0

> <s_epik_input>
W0NIM11PYzFbY0hdW2NIXWMoYyhuMSlbQ0gzXSlbTkhdW0NAQEhdMltDSDJdW0NIMl1PW0NIMl0y

> <s_epik_cmdline>
J2VwaWtfcHl0aG9uJywgJy1waCcsICc3LjAnLCAnLXRuJywgJzgnLCAnLW1hJywgJzIwMCcsICctbWV0YWxfYmluZGluZycsICctaW1hZScsICc8aW5maWxlLm1hZT4nLCAnLW9tYWUnLCAnPG91dGZpbGUubWFlPic=

> <r_lp_tautomer_probability>
1

> <r_epik_Ionization_Penalty>
0.00117248

> <r_epik_Ionization_Penalty_Charging>
0

> <r_epik_Ionization_Penalty_Neutral>
0.00117248

> <r_epik_State_Penalty>
0.000742146

> <r_epik_Charging_Adjusted_Penalty>
0.000742146

> <i_epik_Tot_Q>
0

> <i_epik_Tot_abs_Q>
0

> <r_epik_Metal_State_Penalty>
-0

> <b_epik_Metal_Only>
0

> <s_lp_Force_Field>
OPLS_2005

> <r_lp_Energy>
20.6196

> <b_lp_Chiralities_Consistent>
1

> <s_lp_Variant>
AV-unprocessed.smi:3102-1

> <Gold.Version>
5.8.1

> <Gold.Id.Protein>
6NUR|6NUR_protein|mol2

> <Gold.PLP.Fitness>
32.9141

> <Gold.PLP.PLP>
-33.7107

> <Gold.PLP.part.hbond>
-1.0000

> <Gold.PLP.part.metal>
0.0000

> <Gold.PLP.part.buried>
-3.7400

> <Gold.PLP.part.nonpolar>
-26.7623

> <Gold.PLP.part.repulsive>
0.2003

> <Gold.PLP.ligand.clash>
0.0000

> <Gold.PLP.ligand.torsion>
0.4086

> <Gold.PLP.Chemscore.Hbond>
0.0000

> <Gold.PLP.Chemscore.CHOScore>
0.0000

> <Gold.PLP.Chemscore.Metal>
0.0000

> <Gold.PLP.Chemscore.Internal.Correction>
0.0206

> <Gold.Rescore>
     Score         DG    S(hbond)    S(metal)    S(lipo)     H(rot)  DE(clash)    DE(int)     intcor
     11.94     -12.55       0.00        0.00      86.38       1.18       0.07       0.54       ----

> <Gold.Chemscore.Fitness>
11.9448

> <Gold.Chemscore.DG>
-12.5535

> <Gold.Chemscore.ZeroCoef>
-5.4800

> <Gold.Chemscore.Hbond>
0.0000

> <Gold.Chemscore.Metal>
0.0000

> <Gold.Chemscore.Lipo>
86.3787

> <Gold.Chemscore.Internal_Hbond>
0.0000

> <Gold.Chemscore.DEClash>
0.0713

> <Gold.Chemscore.DEInternal>
0.5374

> <Gold.Chemscore.Rot>
1.1847

> <Gold.Chemscore.Internal.Correction>
   9.000000E+99

> <Gold.Chemscore.Hbond.Weighted>
-0.0000

> <Gold.Chemscore.Metal.Weighted>
-0.0000

> <Gold.Chemscore.Lipo.Weighted>
-10.1063

> <Gold.Chemscore.Internal_Hbond.Weighted>
0.0000

> <Gold.Chemscore.DEClash.Weighted>
0.0713

> <Gold.Chemscore.DEInternal.Weighted>
0.5374

> <Gold.Chemscore.Rot.Weighted>
3.0328

> <Gold.Chemscore.Internal.Correction.Weighted>
   9.000000E+99

> <Gold.Protein.RotatedTorsions>
[ 6907 6896 6895 6894 ] final   82.03 input  -60.11 | X-H torsion
[ 7974 7965 7964 7962 ] final  -23.69 input  175.53 | X-H torsion
[ 8008 7997 7996 7995 ] final  -88.18 input   59.86 | X-H torsion
[ 10167 10162 10161 10158 ] final   24.11 input  -65.29 | X-H torsion
[ 10718 10713 10712 10709 ] final   54.92 input   66.30 | X-H torsion
[ 10763 10752 10751 10750 ] final   16.87 input  -60.55 | X-H torsion
[ 11005 11000 10999 10996 ] final  172.82 input  -57.11 | X-H torsion

> <Gold.Protein.ActiveResidues>
 VAL166  LYS551  ARG553  GLY616  TRP617  ASP618  TYR619  PRO620  LYS621  CYS622 
 ASP623  PHE694  ASN695  SER759  ASP760  ASP761  ALA762  ILE779  LEU786  VAL792 
 PHE793  MET794  SER795  GLU796  ALA797  LYS798  CYS799  TRP800  GLU811  SER814 

> <Gold.Protein.RotatedAtoms>
  152.5287  134.3113  159.9114 H   0  0  0  0  0  0  0  0  0  0  0  0  # atno 6907 bound_to 6896
  151.3063  133.4094  159.2651 H   0  0  0  0  0  0  0  0  0  0  0  0  # atno 6908 bound_to 6896
  151.0076  134.9388  159.8046 H   0  0  0  0  0  0  0  0  0  0  0  0  # atno 6909 bound_to 6896
  146.1601  140.4650  142.8575 H   0  0  0  0  0  0  0  0  0  0  0  0  # atno 7974 bound_to 7965
  154.6718  140.0557  157.0173 H   0  0  0  0  0  0  0  0  0  0  0  0  # atno 8008 bound_to 7997
  155.1078  140.3235  155.4511 H   0  0  0  0  0  0  0  0  0  0  0  0  # atno 8009 bound_to 7997
  156.2660  140.2020  156.6203 H   0  0  0  0  0  0  0  0  0  0  0  0  # atno 8010 bound_to 7997
  140.5215  143.9995  150.6419 H   0  0  0  0  0  0  0  0  0  0  0  0  # atno 10167 bound_to 10162
  157.5299  130.8623  149.8673 H   0  0  0  0  0  0  0  0  0  0  0  0  # atno 10718 bound_to 10713
  153.1390  135.6756  153.9056 H   0  0  0  0  0  0  0  0  0  0  0  0  # atno 10763 bound_to 10752
  153.8519  135.3092  155.3434 H   0  0  0  0  0  0  0  0  0  0  0  0  # atno 10764 bound_to 10752
  154.7772  135.4908  153.9852 H   0  0  0  0  0  0  0  0  0  0  0  0  # atno 10765 bound_to 10752
  140.3339  134.7334  157.4154 H   0  0  0  0  0  0  0  0  0  0  0  0  # atno 11005 bound_to 11000
  144.8015  140.6222  143.6475 LP  0  0  0  0  0  0  0  0  0  0  0  0  # atno 17320 bound_to 7965
  145.4610  139.1513  143.3866 LP  0  0  0  0  0  0  0  0  0  0  0  0  # atno 17321 bound_to 7965
  140.3345  143.3057  152.0653 LP  0  0  0  0  0  0  0  0  0  0  0  0  # atno 17342 bound_to 10162
  139.4925  144.6486  151.6724 LP  0  0  0  0  0  0  0  0  0  0  0  0  # atno 17343 bound_to 10162
  156.0415  130.3738  150.1424 LP  0  0  0  0  0  0  0  0  0  0  0  0  # atno 17370 bound_to 10713
  156.9609  130.9804  151.3479 LP  0  0  0  0  0  0  0  0  0  0  0  0  # atno 17371 bound_to 10713
  140.0838  134.5695  155.8513 LP  0  0  0  0  0  0  0  0  0  0  0  0  # atno 17394 bound_to 11000
  141.2056  133.6648  156.6192 LP  0  0  0  0  0  0  0  0  0  0  0  0  # atno 17395 bound_to 11000

$$$$
