AV-unprocessed.smi:3283|AV-procd|sdf|12568|dock1
  -GOLD-   2272018483D 1   1.00000     0.00000
 Structure written by MMmdl.
 44 45  0  0  0  0  0  0  0  0  2 V2000
  148.5879  132.9950  152.9337 C   0  0  0  0  0  0  0  0  0  0  0  0
  147.1591  133.0418  152.4190 C   0  0  0  0  0  0  0  0  0  0  0  0
  146.4514  131.9124  152.2204 C   0  0  0  0  0  0  0  0  0  0  0  0
  145.0376  131.8648  151.6711 C   0  0  0  0  0  0  0  0  0  0  0  0
  144.3896  133.2541  151.5687 C   0  0  0  0  0  0  0  0  0  0  0  0
  145.4035  134.3166  151.1080 C   0  0  1  0  0  0  0  0  0  0  0  0
  144.7130  135.6450  150.7554 C   0  0  0  0  0  0  0  0  0  0  0  0
  146.5986  134.4316  152.1037 C   0  0  1  0  0  0  0  0  0  0  0  0
  146.2744  135.1874  153.4185 C   0  0  0  0  0  0  0  0  0  0  0  0
  147.4403  135.9283  153.9406 N   0  3  0  0  0  0  0  0  0  0  0  0
  147.0972  137.0381  154.8504 C   0  0  0  0  0  0  0  0  0  0  0  0
  147.5743  138.3816  154.2800 C   0  0  0  0  0  0  0  0  0  0  0  0
  149.0411  138.6384  154.4470 C   0  0  0  0  0  0  0  0  0  0  0  0
  150.0928  137.7830  154.6332 C   0  0  0  0  0  0  0  0  0  0  0  0
  151.2257  138.6379  154.7238 C   0  0  0  0  0  0  0  0  0  0  0  0
  150.9077  139.9147  154.6038 N   0  0  0  0  0  0  0  0  0  0  0  0
  149.5689  139.9169  154.4331 N   0  0  0  0  0  0  0  0  0  0  0  0
  148.8776  141.1813  154.2683 C   0  0  0  0  0  0  0  0  0  0  0  0
  149.2601  133.4834  152.2279 H   0  0  0  0  0  0  0  0  0  0  0  0
  148.9292  131.9671  153.0609 H   0  0  0  0  0  0  0  0  0  0  0  0
  148.6803  133.4944  153.8970 H   0  0  0  0  0  0  0  0  0  0  0  0
  146.9028  130.9542  152.4331 H   0  0  0  0  0  0  0  0  0  0  0  0
  145.0845  131.4058  150.6832 H   0  0  0  0  0  0  0  0  0  0  0  0
  144.4268  131.2109  152.2938 H   0  0  0  0  0  0  0  0  0  0  0  0
  143.5466  133.2052  150.8784 H   0  0  0  0  0  0  0  0  0  0  0  0
  143.9702  133.5348  152.5350 H   0  0  0  0  0  0  0  0  0  0  0  0
  145.8244  133.9532  150.1686 H   0  0  0  0  0  0  0  0  0  0  0  0
  144.1406  136.0396  151.5952 H   0  0  0  0  0  0  0  0  0  0  0  0
  144.0151  135.5096  149.9285 H   0  0  0  0  0  0  0  0  0  0  0  0
  145.4377  136.3990  150.4474 H   0  0  0  0  0  0  0  0  0  0  0  0
  147.3964  134.9718  151.5916 H   0  0  0  0  0  0  0  0  0  0  0  0
  145.4369  135.8696  153.2728 H   0  0  0  0  0  0  0  0  0  0  0  0
  145.9684  134.4923  154.1994 H   0  0  0  0  0  0  0  0  0  0  0  0
  148.0403  135.2798  154.4303 H   0  0  0  0  0  0  0  0  0  0  0  0
  146.0163  137.0584  154.9964 H   0  0  0  0  0  0  0  0  0  0  0  0
  147.5552  136.8579  155.8239 H   0  0  0  0  0  0  0  0  0  0  0  0
  147.3257  138.4283  153.2191 H   0  0  0  0  0  0  0  0  0  0  0  0
  147.0185  139.1895  154.7577 H   0  0  0  0  0  0  0  0  0  0  0  0
  150.0626  136.7055  154.6971 H   0  0  0  0  0  0  0  0  0  0  0  0
  152.2616  138.3710  154.8726 H   0  0  0  0  0  0  0  0  0  0  0  0
  148.2066  141.3439  155.1119 H   0  0  0  0  0  0  0  0  0  0  0  0
  148.2961  141.1656  153.3463 H   0  0  0  0  0  0  0  0  0  0  0  0
  149.5893  142.0065  154.2194 H   0  0  0  0  0  0  0  0  0  0  0  0
  147.9487  136.3082  153.1548 H   0  0  0  0  0  0  0  0  0  0  0  0
  1  2  1  0  0  0  0
  1 19  1  0  0  0  0
  1 20  1  0  0  0  0
  1 21  1  0  0  0  0
  2  8  1  0  0  0  0
  2  3  2  0  0  0  0
  3  4  1  0  0  0  0
  3 22  1  0  0  0  0
  4  5  1  0  0  0  0
  4 23  1  0  0  0  0
  4 24  1  0  0  0  0
  5  6  1  0  0  0  0
  5 25  1  0  0  0  0
  5 26  1  0  0  0  0
  6  7  1  0  0  0  0
  6  8  1  0  0  0  0
  6 27  1  0  0  0  0
  7 28  1  0  0  0  0
  7 29  1  0  0  0  0
  7 30  1  0  0  0  0
  8  9  1  0  0  0  0
  8 31  1  0  0  0  0
  9 10  1  0  0  0  0
  9 32  1  0  0  0  0
  9 33  1  0  0  0  0
 10 11  1  0  0  0  0
 10 34  1  0  0  0  0
 10 44  1  0  0  0  0
 11 12  1  0  0  0  0
 11 35  1  0  0  0  0
 11 36  1  0  0  0  0
 12 13  1  0  0  0  0
 12 37  1  0  0  0  0
 12 38  1  0  0  0  0
 13 17  1  0  0  0  0
 13 14  2  0  0  0  0
 14 15  1  0  0  0  0
 14 39  1  0  0  0  0
 15 16  2  0  0  0  0
 15 40  1  0  0  0  0
 16 17  1  0  0  0  0
 17 18  1  0  0  0  0
 18 41  1  0  0  0  0
 18 42  1  0  0  0  0
 18 43  1  0  0  0  0
M  CHG  1  10   1
M  END
> <s_m_source_file>
AV-unprocessed.smi

> <i_m_source_file_index>
3283

> <i_lp_mmshare_version>
43012

> <i_f3d_flags>
0

> <s_epik_input>
W0NIM11DMT1bQ0hdW0NIMl1bQ0gyXVtDQEBIXShbQ0gzXSlbQ0BIXTFbQ0gyXVtOSF1bQ0gyXVtDSDJdYzJbY0hdW2NIXW5uMltDSDNd

> <s_epik_cmdline>
J2VwaWtfcHl0aG9uJywgJy1waCcsICc3LjAnLCAnLXRuJywgJzgnLCAnLW1hJywgJzIwMCcsICctbWV0YWxfYmluZGluZycsICctaW1hZScsICc8aW5maWxlLm1hZT4nLCAnLW9tYWUnLCAnPG91dGZpbGUubWFlPic=

> <r_lp_tautomer_probability>
1

> <r_epik_Ionization_Penalty>
0.000866911

> <r_epik_Ionization_Penalty_Charging>
0.000836385

> <r_epik_Ionization_Penalty_Neutral>
3.05258e-05

> <r_epik_State_Penalty>
-0

> <r_epik_Charging_Adjusted_Penalty>
0.000836385

> <i_epik_Tot_Q>
1

> <i_epik_Tot_abs_Q>
1

> <r_epik_Metal_State_Penalty>
-0

> <b_epik_Metal_Only>
0

> <s_lp_Force_Field>
OPLS_2005

> <r_lp_Energy>
14.2558

> <b_lp_Chiralities_Consistent>
1

> <s_lp_Variant>
AV-unprocessed.smi:3283-1

> <Gold.Version>
5.8.1

> <Gold.Id.Protein>
6NUR|6NUR_protein|mol2

> <Gold.PLP.Fitness>
40.5030

> <Gold.PLP.PLP>
-33.8087

> <Gold.PLP.part.hbond>
-2.0000

> <Gold.PLP.part.metal>
0.0000

> <Gold.PLP.part.buried>
-2.1538

> <Gold.PLP.part.nonpolar>
-29.8686

> <Gold.PLP.part.repulsive>
0.0877

> <Gold.PLP.ligand.clash>
0.0000

> <Gold.PLP.ligand.torsion>
1.2606

> <Gold.PLP.Chemscore.Hbond>
3.0000

> <Gold.PLP.Chemscore.CHOScore>
0.0000

> <Gold.PLP.Chemscore.Metal>
0.0000

> <Gold.Chemscore.Hbonds>
donor molecule, donor type, donor heavy atom, donor atom, acceptor molecule, acceptor atom, score
      L1  H    10    44       P1  7948  2.00
      P1  H  7989  7998       L1    16  1.00

> <Gold.PLP.Chemscore.Internal.Correction>
0.2154

> <Gold.Rescore>
     Score         DG    S(hbond)    S(metal)    S(lipo)     H(rot)  DE(clash)    DE(int)     intcor
     15.35     -17.48       1.85        0.00      82.16       1.48       0.92       1.21       ----

> <Gold.Chemscore.Fitness>
15.3499

> <Gold.Chemscore.DG>
-17.4771

> <Gold.Chemscore.ZeroCoef>
-5.4800

> <Gold.Chemscore.Hbond>
1.8517

> <Gold.Chemscore.Metal>
0.0000

> <Gold.Chemscore.Lipo>
82.1636

> <Gold.Chemscore.Internal_Hbond>
0.0000

> <Gold.Chemscore.DEClash>
0.9219

> <Gold.Chemscore.DEInternal>
1.2054

> <Gold.Chemscore.Rot>
1.4847

> <Gold.Chemscore.Internal.Correction>
   9.000000E+99

> <Gold.Chemscore.Hbonds>
donor molecule, donor type, donor heavy atom, donor atom, acceptor molecule, acceptor atom, score
      L1  H    10    44       P1  7948  0.97
      P1  H  7989  7998       L1    16  0.77

> <Gold.Chemscore.Hbond.Weighted>
-6.1848

> <Gold.Chemscore.Metal.Weighted>
-0.0000

> <Gold.Chemscore.Lipo.Weighted>
-9.6131

> <Gold.Chemscore.Internal_Hbond.Weighted>
0.0000

> <Gold.Chemscore.DEClash.Weighted>
0.9219

> <Gold.Chemscore.DEInternal.Weighted>
1.2054

> <Gold.Chemscore.Rot.Weighted>
3.8008

> <Gold.Chemscore.Internal.Correction.Weighted>
   9.000000E+99

> <Gold.Protein.RotatedTorsions>
[ 6907 6896 6895 6894 ] final   76.59 input  -60.11 | X-H torsion
[ 7974 7965 7964 7962 ] final   55.59 input  175.53 | X-H torsion
[ 8008 7997 7996 7995 ] final   -4.27 input   59.86 | X-H torsion
[ 10167 10162 10161 10158 ] final   86.34 input  -65.29 | X-H torsion
[ 10718 10713 10712 10709 ] final  -94.71 input   66.30 | X-H torsion
[ 10763 10752 10751 10750 ] final  159.76 input  -60.55 | X-H torsion
[ 11005 11000 10999 10996 ] final  151.54 input  -57.11 | X-H torsion

> <Gold.Protein.ActiveResidues>
 VAL166  LYS551  ARG553  GLY616  TRP617  ASP618  TYR619  PRO620  LYS621  CYS622 
 ASP623  PHE694  ASN695  SER759  ASP760  ASP761  ALA762  ILE779  LEU786  VAL792 
 PHE793  MET794  SER795  GLU796  ALA797  LYS798  CYS799  TRP800  GLU811  SER814 

> <Gold.Protein.RotatedAtoms>
  152.5080  134.3945  159.9395 H   0  0  0  0  0  0  0  0  0  0  0  0  # atno 6907 bound_to 6896
  151.3907  133.3784  159.2728 H   0  0  0  0  0  0  0  0  0  0  0  0  # atno 6908 bound_to 6896
  150.9435  134.8863  159.7686 H   0  0  0  0  0  0  0  0  0  0  0  0  # atno 6909 bound_to 6896
  145.9487  139.3953  143.0319 H   0  0  0  0  0  0  0  0  0  0  0  0  # atno 7974 bound_to 7965
  154.6160  140.2488  155.7608 H   0  0  0  0  0  0  0  0  0  0  0  0  # atno 8008 bound_to 7997
  156.2399  140.2936  156.0365 H   0  0  0  0  0  0  0  0  0  0  0  0  # atno 8009 bound_to 7997
  155.1973  140.0393  157.2901 H   0  0  0  0  0  0  0  0  0  0  0  0  # atno 8010 bound_to 7997
  139.8885  144.6399  150.8764 H   0  0  0  0  0  0  0  0  0  0  0  0  # atno 10167 bound_to 10162
  156.0031  130.5079  150.5967 H   0  0  0  0  0  0  0  0  0  0  0  0  # atno 10718 bound_to 10713
  154.2368  135.2776  155.2869 H   0  0  0  0  0  0  0  0  0  0  0  0  # atno 10763 bound_to 10752
  154.5578  135.5656  153.6983 H   0  0  0  0  0  0  0  0  0  0  0  0  # atno 10764 bound_to 10752
  153.0008  135.6290  154.2511 H   0  0  0  0  0  0  0  0  0  0  0  0  # atno 10765 bound_to 10752
  140.1228  134.8852  157.2096 H   0  0  0  0  0  0  0  0  0  0  0  0  # atno 11005 bound_to 11000
  145.8200  140.9684  143.0904 LP  0  0  0  0  0  0  0  0  0  0  0  0  # atno 17320 bound_to 7965
  144.6792  140.0029  143.7484 LP  0  0  0  0  0  0  0  0  0  0  0  0  # atno 17321 bound_to 7965
  140.7731  143.3528  151.1980 LP  0  0  0  0  0  0  0  0  0  0  0  0  # atno 17342 bound_to 10162
  139.7131  143.9345  152.2955 LP  0  0  0  0  0  0  0  0  0  0  0  0  # atno 17343 bound_to 10162
  157.3823  131.0783  151.1466 LP  0  0  0  0  0  0  0  0  0  0  0  0  # atno 17370 bound_to 10713
  157.2185  130.6470  149.5802 LP  0  0  0  0  0  0  0  0  0  0  0  0  # atno 17371 bound_to 10713
  140.2943  134.3205  155.7307 LP  0  0  0  0  0  0  0  0  0  0  0  0  # atno 17394 bound_to 11000
  141.2155  133.7553  156.9548 LP  0  0  0  0  0  0  0  0  0  0  0  0  # atno 17395 bound_to 11000

$$$$
