AV-unprocessed.smi:1983|AV-procd|sdf|8035|dock1
  -GOLD-   2272010233D 1   1.00000     0.00000
 Structure written by MMmdl.
 50 51  0  0  0  0  0  0  0  0  2 V2000
  143.4565  138.1167  155.5434 C   0  0  0  0  0  0  0  0  0  0  0  0
  144.2973  137.5422  154.3925 C   0  0  1  0  0  0  0  0  0  0  0  0
  143.4493  137.0328  153.2082 C   0  0  0  0  0  0  0  0  0  0  0  0
  142.8810  138.1021  152.4794 O   0  0  0  0  0  0  0  0  0  0  0  0
  145.2893  138.5197  153.9502 N   0  0  0  0  0  0  0  0  0  0  0  0
  146.6160  138.3305  153.9402 C   0  0  0  0  0  0  0  0  0  0  0  0
  147.1710  137.2956  154.3107 O   0  0  0  0  0  0  0  0  0  0  0  0
  147.2687  139.4019  153.4683 N   0  0  0  0  0  0  0  0  0  0  0  0
  148.7193  139.5014  153.3427 C   0  0  0  0  0  0  0  0  0  0  0  0
  149.3943  140.2607  154.4763 C   0  0  0  0  0  0  0  0  0  0  0  0
  150.2318  139.5767  155.3841 C   0  0  0  0  0  0  0  0  0  0  0  0
  150.8553  140.2895  156.4286 C   0  0  0  0  0  0  0  0  0  0  0  0
  150.6282  141.6801  156.5506 C   0  0  0  0  0  0  0  0  0  0  0  0
  151.2031  142.4735  157.5519 N   0  0  0  0  0  0  0  0  0  0  0  0
  152.1158  141.7487  158.4265 C   0  0  0  0  0  0  0  0  0  0  0  0
  152.7871  142.7239  159.4112 C   0  0  2  0  0  0  0  0  0  0  0  0
  153.6880  141.9992  160.4166 C   0  0  0  0  0  0  0  0  0  0  0  0
  151.7729  143.4172  160.1351 O   0  0  0  0  0  0  0  0  0  0  0  0
  150.9214  144.1880  159.2896 C   0  0  2  0  0  0  0  0  0  0  0  0
  149.9231  144.9443  160.1722 C   0  0  0  0  0  0  0  0  0  0  0  0
  150.2169  143.2483  158.2923 C   0  0  0  0  0  0  0  0  0  0  0  0
  149.8093  142.2944  155.6688 N   0  3  0  0  0  0  0  0  0  0  0  0
  149.1945  141.6480  154.6546 C   0  0  0  0  0  0  0  0  0  0  0  0
  142.7279  137.3869  155.8973 H   0  0  0  0  0  0  0  0  0  0  0  0
  142.9111  139.0107  155.2387 H   0  0  0  0  0  0  0  0  0  0  0  0
  144.0873  138.3877  156.3906 H   0  0  0  0  0  0  0  0  0  0  0  0
  144.8379  136.6845  154.7974 H   0  0  0  0  0  0  0  0  0  0  0  0
  144.0414  136.4115  152.5354 H   0  0  0  0  0  0  0  0  0  0  0  0
  142.6366  136.4070  153.5782 H   0  0  0  0  0  0  0  0  0  0  0  0
  143.3578  138.8918  152.6847 H   0  0  0  0  0  0  0  0  0  0  0  0
  144.9324  139.4044  153.6198 H   0  0  0  0  0  0  0  0  0  0  0  0
  146.7271  140.2075  153.1900 H   0  0  0  0  0  0  0  0  0  0  0  0
  149.1289  138.4916  153.3158 H   0  0  0  0  0  0  0  0  0  0  0  0
  148.9680  139.9616  152.3847 H   0  0  0  0  0  0  0  0  0  0  0  0
  150.4005  138.5147  155.2803 H   0  0  0  0  0  0  0  0  0  0  0  0
  151.4966  139.7693  157.1251 H   0  0  0  0  0  0  0  0  0  0  0  0
  151.5713  140.9823  158.9797 H   0  0  0  0  0  0  0  0  0  0  0  0
  152.8714  141.2401  157.8262 H   0  0  0  0  0  0  0  0  0  0  0  0
  153.3920  143.4467  158.8606 H   0  0  0  0  0  0  0  0  0  0  0  0
  154.4883  141.4602  159.9091 H   0  0  0  0  0  0  0  0  0  0  0  0
  153.1217  141.2794  161.0083 H   0  0  0  0  0  0  0  0  0  0  0  0
  154.1496  142.7069  161.1057 H   0  0  0  0  0  0  0  0  0  0  0  0
  151.5248  144.9167  158.7449 H   0  0  0  0  0  0  0  0  0  0  0  0
  149.2514  145.5567  159.5700 H   0  0  0  0  0  0  0  0  0  0  0  0
  150.4414  145.6056  160.8671 H   0  0  0  0  0  0  0  0  0  0  0  0
  149.3136  144.2566  160.7592 H   0  0  0  0  0  0  0  0  0  0  0  0
  149.6074  143.8282  157.5978 H   0  0  0  0  0  0  0  0  0  0  0  0
  149.5456  142.5723  158.8243 H   0  0  0  0  0  0  0  0  0  0  0  0
  148.5693  142.2594  154.0203 H   0  0  0  0  0  0  0  0  0  0  0  0
  149.6505  143.2970  155.7710 H   0  0  0  0  0  0  0  0  0  0  0  0
  1  2  1  0  0  0  0
  1 24  1  0  0  0  0
  1 25  1  0  0  0  0
  1 26  1  0  0  0  0
  2  3  1  0  0  0  0
  2  5  1  0  0  0  0
  2 27  1  0  0  0  0
  3  4  1  0  0  0  0
  3 28  1  0  0  0  0
  3 29  1  0  0  0  0
  4 30  1  0  0  0  0
  5  6  1  0  0  0  0
  5 31  1  0  0  0  0
  6  7  2  0  0  0  0
  6  8  1  0  0  0  0
  8  9  1  0  0  0  0
  8 32  1  0  0  0  0
  9 10  1  0  0  0  0
  9 33  1  0  0  0  0
  9 34  1  0  0  0  0
 10 23  1  0  0  0  0
 10 11  2  0  0  0  0
 11 12  1  0  0  0  0
 11 35  1  0  0  0  0
 12 13  2  0  0  0  0
 12 36  1  0  0  0  0
 13 14  1  0  0  0  0
 13 22  1  0  0  0  0
 14 21  1  0  0  0  0
 14 15  1  0  0  0  0
 15 16  1  0  0  0  0
 15 37  1  0  0  0  0
 15 38  1  0  0  0  0
 16 17  1  0  0  0  0
 16 18  1  0  0  0  0
 16 39  1  0  0  0  0
 17 40  1  0  0  0  0
 17 41  1  0  0  0  0
 17 42  1  0  0  0  0
 18 19  1  0  0  0  0
 19 20  1  0  0  0  0
 19 21  1  0  0  0  0
 19 43  1  0  0  0  0
 20 44  1  0  0  0  0
 20 45  1  0  0  0  0
 20 46  1  0  0  0  0
 21 47  1  0  0  0  0
 21 48  1  0  0  0  0
 22 23  2  0  0  0  0
 22 50  1  0  0  0  0
 23 49  1  0  0  0  0
M  CHG  1  22   1
M  END
> <s_m_source_file>
AV-unprocessed.smi

> <i_m_source_file_index>
1983

> <i_lp_mmshare_version>
43012

> <i_f3d_flags>
0

> <s_epik_input>
W09IXVtDSDJdW0NAQEhdKFtDSDNdKVtOSF1DKD1PKVtOSF1bQ0gyXWMxW2NIXVtjSF1jKG5bY0hdMSlOMltDSDJdW0NAQEhdKFtDSDNdKU9bQ0BASF0oW0NIM10pW0NIMl0y

> <s_epik_cmdline>
J2VwaWtfcHl0aG9uJywgJy1waCcsICc3LjAnLCAnLXRuJywgJzgnLCAnLW1hJywgJzIwMCcsICctbWV0YWxfYmluZGluZycsICctaW1hZScsICc8aW5maWxlLm1hZT4nLCAnLW9tYWUnLCAnPG91dGZpbGUubWFlPic=

> <r_lp_tautomer_probability>
0.999994

> <r_epik_Ionization_Penalty>
2.55677

> <r_epik_Ionization_Penalty_Charging>
2.55673

> <r_epik_Ionization_Penalty_Neutral>
3.71772e-05

> <r_epik_State_Penalty>
2.72571

> <r_epik_Charging_Adjusted_Penalty>
5.28244

> <i_epik_Tot_Q>
1

> <i_epik_Tot_abs_Q>
1

> <r_epik_Metal_State_Penalty>
2.73364

> <b_epik_Metal_Only>
0

> <s_lp_Force_Field>
OPLS_2005

> <r_lp_Energy>
22.1941

> <b_lp_Chiralities_Consistent>
1

> <s_lp_Variant>
AV-unprocessed.smi:1983-8

> <Gold.Version>
5.8.1

> <Gold.Id.Protein>
6NUR|6NUR_protein|mol2

> <Gold.PLP.Fitness>
47.7395

> <Gold.PLP.PLP>
-36.2644

> <Gold.PLP.part.hbond>
-3.7571

> <Gold.PLP.part.metal>
0.0000

> <Gold.PLP.part.buried>
-1.2932

> <Gold.PLP.part.nonpolar>
-32.0745

> <Gold.PLP.part.repulsive>
0.3938

> <Gold.PLP.ligand.clash>
0.0000

> <Gold.PLP.ligand.torsion>
0.3459

> <Gold.PLP.Chemscore.Hbond>
3.9920

> <Gold.PLP.Chemscore.CHOScore>
0.0000

> <Gold.PLP.Chemscore.Metal>
0.0000

> <Gold.Chemscore.Hbonds>
donor molecule, donor type, donor heavy atom, donor atom, acceptor molecule, acceptor atom, score
      L1  H     4    30       P1 10175  0.99
      L1  H     5    31       P1 10175  1.00
      L1  H    22    50       P1  8028  2.00

> <Gold.PLP.Chemscore.Internal.Correction>
0.1909

> <Gold.Rescore>
     Score         DG    S(hbond)    S(metal)    S(lipo)     H(rot)  DE(clash)    DE(int)     intcor
     17.61     -19.85       2.91        0.00      98.10       2.66       1.89       0.35       ----

> <Gold.Chemscore.Fitness>
17.6064

> <Gold.Chemscore.DG>
-19.8501

> <Gold.Chemscore.ZeroCoef>
-5.4800

> <Gold.Chemscore.Hbond>
2.9077

> <Gold.Chemscore.Metal>
0.0000

> <Gold.Chemscore.Lipo>
98.0973

> <Gold.Chemscore.Internal_Hbond>
0.0000

> <Gold.Chemscore.DEClash>
1.8918

> <Gold.Chemscore.DEInternal>
0.3519

> <Gold.Chemscore.Rot>
2.6637

> <Gold.Chemscore.Internal.Correction>
   9.000000E+99

> <Gold.Chemscore.Hbonds>
donor molecule, donor type, donor heavy atom, donor atom, acceptor molecule, acceptor atom, score
      L1  H     4    30       P1 10175  0.92
      L1  H     5    31       P1 10175  0.92
      L1  H    22    50       P1  8028  0.99

> <Gold.Chemscore.Hbond.Weighted>
-9.7119

> <Gold.Chemscore.Metal.Weighted>
-0.0000

> <Gold.Chemscore.Lipo.Weighted>
-11.4774

> <Gold.Chemscore.Internal_Hbond.Weighted>
0.0000

> <Gold.Chemscore.DEClash.Weighted>
1.8918

> <Gold.Chemscore.DEInternal.Weighted>
0.3519

> <Gold.Chemscore.Rot.Weighted>
6.8191

> <Gold.Chemscore.Internal.Correction.Weighted>
   9.000000E+99

> <Gold.Protein.RotatedTorsions>
[ 6907 6896 6895 6894 ] final   50.93 input  -60.11 | X-H torsion
[ 7974 7965 7964 7962 ] final  106.20 input  175.53 | X-H torsion
[ 8008 7997 7996 7995 ] final   47.88 input   59.86 | X-H torsion
[ 10167 10162 10161 10158 ] final -105.53 input  -65.29 | X-H torsion
[ 10718 10713 10712 10709 ] final  -68.47 input   66.30 | X-H torsion
[ 10763 10752 10751 10750 ] final  119.90 input  -60.55 | X-H torsion
[ 11005 11000 10999 10996 ] final   -1.00 input  -57.11 | X-H torsion

> <Gold.Protein.ActiveResidues>
 VAL166  LYS551  ARG553  GLY616  TRP617  ASP618  TYR619  PRO620  LYS621  CYS622 
 ASP623  PHE694  ASN695  SER759  ASP760  ASP761  ALA762  ILE779  LEU786  VAL792 
 PHE793  MET794  SER795  GLU796  ALA797  LYS798  CYS799  TRP800  GLU811  SER814 

> <Gold.Protein.RotatedAtoms>
  152.3072  134.7541  160.0344 H   0  0  0  0  0  0  0  0  0  0  0  0  # atno 6907 bound_to 6896
  151.8034  133.3367  159.3542 H   0  0  0  0  0  0  0  0  0  0  0  0  # atno 6908 bound_to 6896
  150.7302  134.5662  159.5912 H   0  0  0  0  0  0  0  0  0  0  0  0  # atno 6909 bound_to 6896
  145.3097  139.2544  143.3769 H   0  0  0  0  0  0  0  0  0  0  0  0  # atno 7974 bound_to 7965
  155.3764  140.3426  155.4245 H   0  0  0  0  0  0  0  0  0  0  0  0  # atno 8008 bound_to 7997
  156.1634  140.1608  156.8606 H   0  0  0  0  0  0  0  0  0  0  0  0  # atno 8009 bound_to 7997
  154.5162  140.0778  156.8067 H   0  0  0  0  0  0  0  0  0  0  0  0  # atno 8010 bound_to 7997
  140.1975  143.3844  152.1156 H   0  0  0  0  0  0  0  0  0  0  0  0  # atno 10167 bound_to 10162
  156.0504  130.4295  150.2006 H   0  0  0  0  0  0  0  0  0  0  0  0  # atno 10718 bound_to 10713
  153.5902  135.3467  155.2908 H   0  0  0  0  0  0  0  0  0  0  0  0  # atno 10763 bound_to 10752
  154.8654  135.4203  154.2525 H   0  0  0  0  0  0  0  0  0  0  0  0  # atno 10764 bound_to 10752
  153.3330  135.7045  153.7002 H   0  0  0  0  0  0  0  0  0  0  0  0  # atno 10765 bound_to 10752
  140.6425  133.9477  155.8334 H   0  0  0  0  0  0  0  0  0  0  0  0  # atno 11005 bound_to 11000
  146.3122  140.3630  142.8667 LP  0  0  0  0  0  0  0  0  0  0  0  0  # atno 17320 bound_to 7965
  144.9026  140.7661  143.5857 LP  0  0  0  0  0  0  0  0  0  0  0  0  # atno 17321 bound_to 7965
  139.5230  144.7066  151.5334 LP  0  0  0  0  0  0  0  0  0  0  0  0  # atno 17342 bound_to 10162
  140.6413  143.8883  150.6695 LP  0  0  0  0  0  0  0  0  0  0  0  0  # atno 17343 bound_to 10162
  157.0090  130.9945  151.3371 LP  0  0  0  0  0  0  0  0  0  0  0  0  # atno 17370 bound_to 10713
  157.5423  130.8128  149.8044 LP  0  0  0  0  0  0  0  0  0  0  0  0  # atno 17371 bound_to 10713
  141.0596  134.0365  157.3676 LP  0  0  0  0  0  0  0  0  0  0  0  0  # atno 17394 bound_to 11000
  139.9075  135.0183  156.7549 LP  0  0  0  0  0  0  0  0  0  0  0  0  # atno 17395 bound_to 11000

$$$$
