AV-unprocessed.smi:2902|AV-procd|sdf|11158|dock9
  -GOLD-   2272016 43D 1   1.00000     0.00000
 Structure written by MMmdl.
 47 48  0  0  0  0  0  0  0  0  1 V2000
  149.1310  133.3713  154.0238 C   0  0  0  0  0  0  0  0  0  0  0  0
  147.6037  133.2938  153.9054 C   0  0  0  0  0  0  0  0  0  0  0  0
  146.9800  134.5898  153.3546 C   0  0  1  0  0  0  0  0  0  0  0  0
  145.6275  134.3079  152.9931 O   0  0  0  0  0  0  0  0  0  0  0  0
  145.4076  133.8610  151.6578 C   0  0  0  0  0  0  0  0  0  0  0  0
  143.9288  133.6045  151.3557 C   0  0  0  0  0  0  0  0  0  0  0  0
  143.9380  132.6139  150.1872 C   0  0  0  0  0  0  0  0  0  0  0  0
  145.2895  131.8845  150.2553 C   0  0  0  0  0  0  0  0  0  0  0  0
  146.0394  132.4857  151.4494 C   0  0  0  0  0  0  0  0  0  0  0  0
  147.0346  135.7219  154.3933 C   0  0  0  0  0  0  0  0  0  0  0  0
  146.3709  135.6493  155.4276 O   0  0  0  0  0  0  0  0  0  0  0  0
  147.8139  136.7718  154.0889 N   0  0  0  0  0  0  0  0  0  0  0  0
  147.9675  137.9794  154.8975 C   0  0  1  0  0  0  0  0  0  0  0  0
  148.4397  137.5944  156.3131 C   0  0  0  0  0  0  0  0  0  0  0  0
  148.9154  138.9777  154.1843 C   0  0  1  0  0  0  0  0  0  0  0  0
  148.6228  140.4482  154.5372 C   0  0  0  0  0  0  0  0  0  0  0  0
  150.3145  138.6725  154.4504 N   0  0  0  0  0  0  0  0  0  0  0  0
  151.0082  137.5440  154.2820 C   0  0  0  0  0  0  0  0  0  0  0  0
  152.2822  137.6394  154.6354 N   0  0  0  0  0  0  0  0  0  0  0  0
  152.3085  138.9432  155.0425 C   0  0  0  0  0  0  0  0  0  0  0  0
  151.1559  139.6069  154.9532 N   0  0  0  0  0  0  0  0  0  0  0  0
  149.5356  132.4428  154.4269 H   0  0  0  0  0  0  0  0  0  0  0  0
  149.4344  134.1819  154.6866 H   0  0  0  0  0  0  0  0  0  0  0  0
  149.5953  133.5400  153.0517 H   0  0  0  0  0  0  0  0  0  0  0  0
  147.3357  132.4494  153.2688 H   0  0  0  0  0  0  0  0  0  0  0  0
  147.1903  133.0778  154.8919 H   0  0  0  0  0  0  0  0  0  0  0  0
  147.5362  134.8883  152.4634 H   0  0  0  0  0  0  0  0  0  0  0  0
  145.8290  134.5491  150.9223 H   0  0  0  0  0  0  0  0  0  0  0  0
  143.4542  133.1411  152.2218 H   0  0  0  0  0  0  0  0  0  0  0  0
  143.3732  134.5128  151.1247 H   0  0  0  0  0  0  0  0  0  0  0  0
  143.0960  131.9237  150.2432 H   0  0  0  0  0  0  0  0  0  0  0  0
  143.8580  133.1512  149.2415 H   0  0  0  0  0  0  0  0  0  0  0  0
  145.1670  130.8064  150.3660 H   0  0  0  0  0  0  0  0  0  0  0  0
  145.8483  132.0563  149.3345 H   0  0  0  0  0  0  0  0  0  0  0  0
  147.1163  132.5387  151.2877 H   0  0  0  0  0  0  0  0  0  0  0  0
  145.8685  131.8663  152.3314 H   0  0  0  0  0  0  0  0  0  0  0  0
  148.3220  136.7427  153.2169 H   0  0  0  0  0  0  0  0  0  0  0  0
  146.9923  138.4612  154.9918 H   0  0  0  0  0  0  0  0  0  0  0  0
  148.4721  138.4583  156.9770 H   0  0  0  0  0  0  0  0  0  0  0  0
  149.4372  137.1547  156.2907 H   0  0  0  0  0  0  0  0  0  0  0  0
  147.7673  136.8674  156.7698 H   0  0  0  0  0  0  0  0  0  0  0  0
  148.7605  138.8692  153.1088 H   0  0  0  0  0  0  0  0  0  0  0  0
  147.6190  140.7436  154.2323 H   0  0  0  0  0  0  0  0  0  0  0  0
  149.3213  141.1169  154.0330 H   0  0  0  0  0  0  0  0  0  0  0  0
  148.7102  140.6251  155.6097 H   0  0  0  0  0  0  0  0  0  0  0  0
  150.5726  136.6358  153.8915 H   0  0  0  0  0  0  0  0  0  0  0  0
  153.2041  139.4173  155.4167 H   0  0  0  0  0  0  0  0  0  0  0  0
  1  2  1  0  0  0  0
  1 22  1  0  0  0  0
  1 23  1  0  0  0  0
  1 24  1  0  0  0  0
  2  3  1  0  0  0  0
  2 25  1  0  0  0  0
  2 26  1  0  0  0  0
  3  4  1  0  0  0  0
  3 10  1  0  0  0  0
  3 27  1  0  0  0  0
  4  5  1  0  0  0  0
  5  9  1  0  0  0  0
  5  6  1  0  0  0  0
  5 28  1  0  0  0  0
  6  7  1  0  0  0  0
  6 29  1  0  0  0  0
  6 30  1  0  0  0  0
  7  8  1  0  0  0  0
  7 31  1  0  0  0  0
  7 32  1  0  0  0  0
  8  9  1  0  0  0  0
  8 33  1  0  0  0  0
  8 34  1  0  0  0  0
  9 35  1  0  0  0  0
  9 36  1  0  0  0  0
 10 11  2  0  0  0  0
 10 12  1  0  0  0  0
 12 13  1  0  0  0  0
 12 37  1  0  0  0  0
 13 14  1  0  0  0  0
 13 15  1  0  0  0  0
 13 38  1  0  0  0  0
 14 39  1  0  0  0  0
 14 40  1  0  0  0  0
 14 41  1  0  0  0  0
 15 16  1  0  0  0  0
 15 17  1  0  0  0  0
 15 42  1  0  0  0  0
 16 43  1  0  0  0  0
 16 44  1  0  0  0  0
 16 45  1  0  0  0  0
 17 21  1  0  0  0  0
 17 18  1  0  0  0  0
 18 19  2  0  0  0  0
 18 46  1  0  0  0  0
 19 20  1  0  0  0  0
 20 21  2  0  0  0  0
 20 47  1  0  0  0  0
M  END
> <s_m_source_file>
AV-unprocessed.smi

> <i_m_source_file_index>
2902

> <i_lp_mmshare_version>
43012

> <i_f3d_flags>
0

> <s_epik_input>
W0NIMl0xW0NIMl1bQ0gyXVtDSDJdW0NIXTFPW0NAQEhdKFtDSDJdW0NIM10pQyg9TylbTkhdW0NASF0oW0NIM10pW0NASF0oW0NIM10pbjJbY0hdbltjSF1uMg==

> <s_epik_cmdline>
J2VwaWtfcHl0aG9uJywgJy1waCcsICc3LjAnLCAnLXRuJywgJzgnLCAnLW1hJywgJzIwMCcsICctbWV0YWxfYmluZGluZycsICctaW1hZScsICc8aW5maWxlLm1hZT4nLCAnLW9tYWUnLCAnPG91dGZpbGUubWFlPic=

> <r_lp_tautomer_probability>
1

> <r_epik_Ionization_Penalty>
6.95617e-05

> <r_epik_Ionization_Penalty_Charging>
0

> <r_epik_Ionization_Penalty_Neutral>
6.95617e-05

> <r_epik_State_Penalty>
-0

> <r_epik_Charging_Adjusted_Penalty>
0

> <i_epik_Tot_Q>
0

> <i_epik_Tot_abs_Q>
0

> <r_epik_Metal_State_Penalty>
-0

> <b_epik_Metal_Only>
0

> <s_lp_Force_Field>
OPLS_2005

> <r_lp_Energy>
30.3462

> <b_lp_Chiralities_Consistent>
1

> <s_lp_Variant>
AV-unprocessed.smi:2902-8

> <Gold.Version>
5.8.1

> <Gold.Id.Protein>
6NUR|6NUR_protein|mol2

> <Gold.PLP.Fitness>
43.7924

> <Gold.PLP.PLP>
-35.2795

> <Gold.PLP.part.hbond>
-3.0000

> <Gold.PLP.part.metal>
0.0000

> <Gold.PLP.part.buried>
-2.9526

> <Gold.PLP.part.nonpolar>
-30.0750

> <Gold.PLP.part.repulsive>
0.2624

> <Gold.PLP.ligand.clash>
0.0000

> <Gold.PLP.ligand.torsion>
1.1363

> <Gold.PLP.Chemscore.Hbond>
2.6978

> <Gold.PLP.Chemscore.CHOScore>
0.8331

> <Gold.PLP.Chemscore.Metal>
0.0000

> <Gold.Chemscore.Hbonds>
donor molecule, donor type, donor heavy atom, donor atom, acceptor molecule, acceptor atom, score
      L1  H    12    37       P1  7948  1.00
      P1  H  7989  7998       L1    21  0.95
      P1  H 10752 10765       L1    19  0.58
      L1  C    18    46       P1  7948  0.46
      L1  C    18    46       P1  7949  0.40

> <Gold.PLP.Chemscore.Internal.Correction>
0.1928

> <Gold.Rescore>
     Score         DG    S(hbond)    S(metal)    S(lipo)     H(rot)  DE(clash)    DE(int)     intcor
     10.69     -14.07       2.39        0.00      64.00       2.69       1.03       2.34       ----

> <Gold.Chemscore.Fitness>
10.6950

> <Gold.Chemscore.DG>
-14.0669

> <Gold.Chemscore.ZeroCoef>
-5.4800

> <Gold.Chemscore.Hbond>
2.3934

> <Gold.Chemscore.Metal>
0.0000

> <Gold.Chemscore.Lipo>
64.0021

> <Gold.Chemscore.Internal_Hbond>
0.0000

> <Gold.Chemscore.DEClash>
1.0321

> <Gold.Chemscore.DEInternal>
2.3398

> <Gold.Chemscore.Rot>
2.6935

> <Gold.Chemscore.Internal.Correction>
   9.000000E+99

> <Gold.Chemscore.Hbonds>
donor molecule, donor type, donor heavy atom, donor atom, acceptor molecule, acceptor atom, score
      L1  H    12    37       P1  7948  0.97
      P1  H  7989  7998       L1    21  0.15
      P1  H 10752 10765       L1    19  0.20

> <Gold.Chemscore.Hbond.Weighted>
-7.9940

> <Gold.Chemscore.Metal.Weighted>
-0.0000

> <Gold.Chemscore.Lipo.Weighted>
-7.4882

> <Gold.Chemscore.Internal_Hbond.Weighted>
0.0000

> <Gold.Chemscore.DEClash.Weighted>
1.0321

> <Gold.Chemscore.DEInternal.Weighted>
2.3398

> <Gold.Chemscore.Rot.Weighted>
6.8954

> <Gold.Chemscore.Internal.Correction.Weighted>
   9.000000E+99

> <Gold.Protein.RotatedTorsions>
[ 6907 6896 6895 6894 ] final   35.04 input  -60.11 | X-H torsion
[ 7974 7965 7964 7962 ] final -106.28 input  175.53 | X-H torsion
[ 8008 7997 7996 7995 ] final -128.82 input   59.86 | X-H torsion
[ 10167 10162 10161 10158 ] final  169.36 input  -65.29 | X-H torsion
[ 10718 10713 10712 10709 ] final  -38.57 input   66.30 | X-H torsion
[ 10763 10752 10751 10750 ] final  165.76 input  -60.55 | X-H torsion
[ 11005 11000 10999 10996 ] final -106.93 input  -57.11 | X-H torsion

> <Gold.Protein.ActiveResidues>
 VAL166  LYS551  ARG553  GLY616  TRP617  ASP618  TYR619  PRO620  LYS621  CYS622 
 ASP623  PHE694  ASN695  SER759  ASP760  ASP761  ALA762  ILE779  LEU786  VAL792 
 PHE793  MET794  SER795  GLU796  ALA797  LYS798  CYS799  TRP800  GLU811  SER814 

> <Gold.Protein.RotatedAtoms>
  152.1107  134.9276  160.0566 H   0  0  0  0  0  0  0  0  0  0  0  0  # atno 6907 bound_to 6896
  152.0455  133.3991  159.4363 H   0  0  0  0  0  0  0  0  0  0  0  0  # atno 6908 bound_to 6896
  150.6843  134.3287  159.4861 H   0  0  0  0  0  0  0  0  0  0  0  0  # atno 6909 bound_to 6896
  145.2198  140.9130  143.3266 H   0  0  0  0  0  0  0  0  0  0  0  0  # atno 7974 bound_to 7965
  155.2690  140.0439  157.3005 H   0  0  0  0  0  0  0  0  0  0  0  0  # atno 8008 bound_to 7997
  154.5664  140.2361  155.8225 H   0  0  0  0  0  0  0  0  0  0  0  0  # atno 8009 bound_to 7997
  156.2089  140.3004  155.9695 H   0  0  0  0  0  0  0  0  0  0  0  0  # atno 8010 bound_to 7997
  139.4990  144.3714  151.9720 H   0  0  0  0  0  0  0  0  0  0  0  0  # atno 10167 bound_to 10162
  156.3022  130.4241  149.8131 H   0  0  0  0  0  0  0  0  0  0  0  0  # atno 10718 bound_to 10713
  154.3289  135.2755  155.2482 H   0  0  0  0  0  0  0  0  0  0  0  0  # atno 10763 bound_to 10752
  154.4802  135.5860  153.6388 H   0  0  0  0  0  0  0  0  0  0  0  0  # atno 10764 bound_to 10752
  152.9868  135.6109  154.3480 H   0  0  0  0  0  0  0  0  0  0  0  0  # atno 10765 bound_to 10752
  141.0980  133.8936  157.1915 H   0  0  0  0  0  0  0  0  0  0  0  0  # atno 11005 bound_to 11000
  144.9776  139.3816  143.6278 LP  0  0  0  0  0  0  0  0  0  0  0  0  # atno 17320 bound_to 7965
  146.3378  139.8902  142.8810 LP  0  0  0  0  0  0  0  0  0  0  0  0  # atno 17321 bound_to 7965
  140.3151  144.3493  150.6024 LP  0  0  0  0  0  0  0  0  0  0  0  0  # atno 17342 bound_to 10162
  140.5768  143.2176  151.7501 LP  0  0  0  0  0  0  0  0  0  0  0  0  # atno 17343 bound_to 10162
  156.5505  130.8340  151.3298 LP  0  0  0  0  0  0  0  0  0  0  0  0  # atno 17370 bound_to 10713
  157.7371  130.9790  150.2173 LP  0  0  0  0  0  0  0  0  0  0  0  0  # atno 17371 bound_to 10713
  139.9822  135.0094  156.9777 LP  0  0  0  0  0  0  0  0  0  0  0  0  # atno 17394 bound_to 11000
  140.5093  134.1018  155.7267 LP  0  0  0  0  0  0  0  0  0  0  0  0  # atno 17395 bound_to 11000

$$$$
