AV-unprocessed.smi:573|AV-procd|sdf|2971|dock10
  -GOLD-   2262023473D 1   1.00000     0.00000
 Structure written by MMmdl.
 44 46  0  0  0  0  0  0  0  0  1 V2000
  150.7113  135.1994  156.0117 C   0  0  0  0  0  0  0  0  0  0  0  0
  150.7643  136.7105  155.7368 C   0  0  2  0  0  0  0  0  0  0  0  0
  151.8307  137.0110  154.8604 O   0  0  0  0  0  0  0  0  0  0  0  0
  150.8653  137.5961  156.9939 C   0  0  0  0  0  0  0  0  0  0  0  0
  150.7883  139.0165  156.6980 N   0  0  0  0  0  0  0  0  0  0  0  0
  151.2051  140.1415  157.3997 C   0  0  0  0  0  0  0  0  0  0  0  0
  151.8119  140.0974  158.5845 N   0  0  0  0  0  0  0  0  0  0  0  0
  152.0166  141.4367  158.8581 C   0  0  0  0  0  0  0  0  0  0  0  0
  152.6185  142.0630  159.9730 C   0  0  0  0  0  0  0  0  0  0  0  0
  152.7160  143.4687  160.0357 C   0  0  0  0  0  0  0  0  0  0  0  0
  152.2127  144.2670  158.9882 C   0  0  0  0  0  0  0  0  0  0  0  0
  151.6097  143.6642  157.8675 C   0  0  0  0  0  0  0  0  0  0  0  0
  151.5170  142.2606  157.8073 C   0  0  0  0  0  0  0  0  0  0  0  0
  150.9993  141.3703  156.8710 N   0  0  0  0  0  0  0  0  0  0  0  0
  150.3719  141.7088  155.6012 C   0  0  0  0  0  0  0  0  0  0  0  0
  148.8839  141.3231  155.5726 C   0  0  2  0  0  0  0  0  0  0  0  0
  148.2147  141.6987  154.2370 C   0  0  0  0  0  0  0  0  0  0  0  0
  146.7205  141.3583  154.2704 C   0  0  0  0  0  0  0  0  0  0  0  0
  146.0718  141.9970  155.5033 C   0  0  0  0  0  0  0  0  0  0  0  0
  146.8477  141.6164  156.7745 C   0  0  0  0  0  0  0  0  0  0  0  0
  148.2144  141.9923  156.6398 O   0  0  0  0  0  0  0  0  0  0  0  0
  149.8944  134.9547  156.6911 H   0  0  0  0  0  0  0  0  0  0  0  0
  151.6373  134.8364  156.4585 H   0  0  0  0  0  0  0  0  0  0  0  0
  150.5521  134.6404  155.0893 H   0  0  0  0  0  0  0  0  0  0  0  0
  149.8502  136.9881  155.2114 H   0  0  0  0  0  0  0  0  0  0  0  0
  152.0031  137.9389  154.9060 H   0  0  0  0  0  0  0  0  0  0  0  0
  150.0825  137.3376  157.7076 H   0  0  0  0  0  0  0  0  0  0  0  0
  151.8146  137.4055  157.4959 H   0  0  0  0  0  0  0  0  0  0  0  0
  150.4129  139.2137  155.7818 H   0  0  0  0  0  0  0  0  0  0  0  0
  153.0050  141.4609  160.7817 H   0  0  0  0  0  0  0  0  0  0  0  0
  153.1781  143.9365  160.8926 H   0  0  0  0  0  0  0  0  0  0  0  0
  152.2892  145.3429  159.0460 H   0  0  0  0  0  0  0  0  0  0  0  0
  151.2211  144.2735  157.0652 H   0  0  0  0  0  0  0  0  0  0  0  0
  150.4866  142.7797  155.4312 H   0  0  0  0  0  0  0  0  0  0  0  0
  150.9132  141.2123  154.7951 H   0  0  0  0  0  0  0  0  0  0  0  0
  148.8000  140.2455  155.7256 H   0  0  0  0  0  0  0  0  0  0  0  0
  148.3412  142.7658  154.0488 H   0  0  0  0  0  0  0  0  0  0  0  0
  148.6976  141.1757  153.4110 H   0  0  0  0  0  0  0  0  0  0  0  0
  146.2303  141.7034  153.3599 H   0  0  0  0  0  0  0  0  0  0  0  0
  146.5914  140.2760  154.3065 H   0  0  0  0  0  0  0  0  0  0  0  0
  146.0650  143.0820  155.3932 H   0  0  0  0  0  0  0  0  0  0  0  0
  145.0309  141.6841  155.5876 H   0  0  0  0  0  0  0  0  0  0  0  0
  146.4260  142.1295  157.6389 H   0  0  0  0  0  0  0  0  0  0  0  0
  146.7720  140.5461  156.9723 H   0  0  0  0  0  0  0  0  0  0  0  0
  1  2  1  0  0  0  0
  1 22  1  0  0  0  0
  1 23  1  0  0  0  0
  1 24  1  0  0  0  0
  2  3  1  0  0  0  0
  2  4  1  0  0  0  0
  2 25  1  0  0  0  0
  3 26  1  0  0  0  0
  4  5  1  0  0  0  0
  4 27  1  0  0  0  0
  4 28  1  0  0  0  0
  5  6  1  0  0  0  0
  5 29  1  0  0  0  0
  6 14  1  0  0  0  0
  6  7  2  0  0  0  0
  7  8  1  0  0  0  0
  8 13  2  0  0  0  0
  8  9  1  0  0  0  0
  9 10  2  0  0  0  0
  9 30  1  0  0  0  0
 10 11  1  0  0  0  0
 10 31  1  0  0  0  0
 11 12  2  0  0  0  0
 11 32  1  0  0  0  0
 12 13  1  0  0  0  0
 12 33  1  0  0  0  0
 13 14  1  0  0  0  0
 14 15  1  0  0  0  0
 15 16  1  0  0  0  0
 15 34  1  0  0  0  0
 15 35  1  0  0  0  0
 16 21  1  0  0  0  0
 16 17  1  0  0  0  0
 16 36  1  0  0  0  0
 17 18  1  0  0  0  0
 17 37  1  0  0  0  0
 17 38  1  0  0  0  0
 18 19  1  0  0  0  0
 18 39  1  0  0  0  0
 18 40  1  0  0  0  0
 19 20  1  0  0  0  0
 19 41  1  0  0  0  0
 19 42  1  0  0  0  0
 20 21  1  0  0  0  0
 20 43  1  0  0  0  0
 20 44  1  0  0  0  0
M  END
> <s_m_source_file>
AV-unprocessed.smi

> <i_m_source_file_index>
573

> <i_lp_mmshare_version>
43012

> <i_f3d_flags>
0

> <s_epik_input>
W0NIM11bQ0BIXShbT0hdKVtDSDJdW05IXWMobjEpbihjKGMxMilbY0hdW2NIXVtjSF1bY0hdMilbQ0gyXVtDQEBIXTNbQ0gyXVtDSDJdW0NIMl1bQ0gyXU8z

> <s_epik_cmdline>
J2VwaWtfcHl0aG9uJywgJy1waCcsICc3LjAnLCAnLXRuJywgJzgnLCAnLW1hJywgJzIwMCcsICctbWV0YWxfYmluZGluZycsICctaW1hZScsICc8aW5maWxlLm1hZT4nLCAnLW9tYWUnLCAnPG91dGZpbGUubWFlPic=

> <r_epik_Ionization_Penalty>
1.30635

> <r_epik_Ionization_Penalty_Charging>
0

> <r_epik_Ionization_Penalty_Neutral>
1.30635

> <r_epik_State_Penalty>
1.38073

> <r_epik_Charging_Adjusted_Penalty>
1.38073

> <i_epik_Tot_Q>
0

> <i_epik_Tot_abs_Q>
0

> <r_epik_Metal_State_Penalty>
0.00547412

> <b_epik_Metal_Only>
0

> <s_lp_Force_Field>
OPLS_2005

> <r_lp_Energy>
12.415

> <b_lp_Chiralities_Consistent>
1

> <s_lp_Variant>
AV-unprocessed.smi:573-5

> <Gold.Version>
5.8.1

> <Gold.Id.Protein>
6NUR|6NUR_protein|mol2

> <Gold.PLP.Fitness>
42.7643

> <Gold.PLP.PLP>
-40.1318

> <Gold.PLP.part.hbond>
-1.0000

> <Gold.PLP.part.metal>
0.0000

> <Gold.PLP.part.buried>
-5.9467

> <Gold.PLP.part.nonpolar>
-33.9526

> <Gold.PLP.part.repulsive>
1.2013

> <Gold.PLP.ligand.clash>
0.0000

> <Gold.PLP.ligand.torsion>
0.1914

> <Gold.PLP.Chemscore.Hbond>
1.0000

> <Gold.PLP.Chemscore.CHOScore>
0.0000

> <Gold.PLP.Chemscore.Metal>
0.0000

> <Gold.Chemscore.Hbonds>
donor molecule, donor type, donor heavy atom, donor atom, acceptor molecule, acceptor atom, score
      P1  H 10752 10763       L1     3  1.00

> <Gold.PLP.Chemscore.Internal.Correction>
0.0154

> <Gold.Rescore>
     Score         DG    S(hbond)    S(metal)    S(lipo)     H(rot)  DE(clash)    DE(int)     intcor
     16.26     -16.54       0.97        0.00     111.16       2.02       0.13       0.15       ----

> <Gold.Chemscore.Fitness>
16.2573

> <Gold.Chemscore.DG>
-16.5396

> <Gold.Chemscore.ZeroCoef>
-5.4800

> <Gold.Chemscore.Hbond>
0.9673

> <Gold.Chemscore.Metal>
0.0000

> <Gold.Chemscore.Lipo>
111.1626

> <Gold.Chemscore.Internal_Hbond>
0.0000

> <Gold.Chemscore.DEClash>
0.1337

> <Gold.Chemscore.DEInternal>
0.1486

> <Gold.Chemscore.Rot>
2.0224

> <Gold.Chemscore.Internal.Correction>
   9.000000E+99

> <Gold.Chemscore.Hbonds>
donor molecule, donor type, donor heavy atom, donor atom, acceptor molecule, acceptor atom, score
      P1  H 10752 10763       L1     3  0.82

> <Gold.Chemscore.Hbond.Weighted>
-3.2309

> <Gold.Chemscore.Metal.Weighted>
-0.0000

> <Gold.Chemscore.Lipo.Weighted>
-13.0060

> <Gold.Chemscore.Internal_Hbond.Weighted>
0.0000

> <Gold.Chemscore.DEClash.Weighted>
0.1337

> <Gold.Chemscore.DEInternal.Weighted>
0.1486

> <Gold.Chemscore.Rot.Weighted>
5.1773

> <Gold.Chemscore.Internal.Correction.Weighted>
   9.000000E+99

> <Gold.Protein.RotatedTorsions>
[ 6907 6896 6895 6894 ] final  138.96 input  -60.11 | X-H torsion
[ 7974 7965 7964 7962 ] final  -59.48 input  175.53 | X-H torsion
[ 8008 7997 7996 7995 ] final  167.58 input   59.86 | X-H torsion
[ 10167 10162 10161 10158 ] final -163.95 input  -65.29 | X-H torsion
[ 10718 10713 10712 10709 ] final  144.13 input   66.30 | X-H torsion
[ 10763 10752 10751 10750 ] final   60.10 input  -60.55 | X-H torsion
[ 11005 11000 10999 10996 ] final  -16.53 input  -57.11 | X-H torsion

> <Gold.Protein.ActiveResidues>
 VAL166  LYS551  ARG553  GLY616  TRP617  ASP618  TYR619  PRO620  LYS621  CYS622 
 ASP623  PHE694  ASN695  SER759  ASP760  ASP761  ALA762  ILE779  LEU786  VAL792 
 PHE793  MET794  SER795  GLU796  ALA797  LYS798  CYS799  TRP800  GLU811  SER814 

> <Gold.Protein.RotatedAtoms>
  152.2605  133.5293  159.5378 H   0  0  0  0  0  0  0  0  0  0  0  0  # atno 6907 bound_to 6896
  150.7123  134.0836  159.3916 H   0  0  0  0  0  0  0  0  0  0  0  0  # atno 6908 bound_to 6896
  151.8754  135.0474  160.0534 H   0  0  0  0  0  0  0  0  0  0  0  0  # atno 6909 bound_to 6896
  145.8269  140.8504  143.0103 H   0  0  0  0  0  0  0  0  0  0  0  0  # atno 7974 bound_to 7965
  156.1622  140.1613  156.8593 H   0  0  0  0  0  0  0  0  0  0  0  0  # atno 8008 bound_to 7997
  154.5171  140.0787  156.8138 H   0  0  0  0  0  0  0  0  0  0  0  0  # atno 8009 bound_to 7997
  155.3685  140.3399  155.4245 H   0  0  0  0  0  0  0  0  0  0  0  0  # atno 8010 bound_to 7997
  139.6285  144.0486  152.1995 H   0  0  0  0  0  0  0  0  0  0  0  0  # atno 10167 bound_to 10162
  157.3608  131.0965  151.0917 H   0  0  0  0  0  0  0  0  0  0  0  0  # atno 10718 bound_to 10713
  152.9912  135.5548  154.5820 H   0  0  0  0  0  0  0  0  0  0  0  0  # atno 10763 bound_to 10752
  154.5199  135.2807  155.1273 H   0  0  0  0  0  0  0  0  0  0  0  0  # atno 10764 bound_to 10752
  154.2631  135.6377  153.5334 H   0  0  0  0  0  0  0  0  0  0  0  0  # atno 10765 bound_to 10752
  140.8077  133.8165  155.9532 H   0  0  0  0  0  0  0  0  0  0  0  0  # atno 11005 bound_to 11000
  144.6743  140.0615  143.7476 LP  0  0  0  0  0  0  0  0  0  0  0  0  # atno 17320 bound_to 7965
  145.9613  139.2803  143.1153 LP  0  0  0  0  0  0  0  0  0  0  0  0  # atno 17321 bound_to 7965
  140.0145  144.6199  150.7618 LP  0  0  0  0  0  0  0  0  0  0  0  0  # atno 17342 bound_to 10162
  140.7425  143.2833  151.3536 LP  0  0  0  0  0  0  0  0  0  0  0  0  # atno 17343 bound_to 10162
  157.2057  130.6415  149.5755 LP  0  0  0  0  0  0  0  0  0  0  0  0  # atno 17370 bound_to 10713
  155.9737  130.4676  150.6331 LP  0  0  0  0  0  0  0  0  0  0  0  0  # atno 17371 bound_to 10713
  140.9230  134.2118  157.4914 LP  0  0  0  0  0  0  0  0  0  0  0  0  # atno 17394 bound_to 11000
  139.8716  134.9800  156.5060 LP  0  0  0  0  0  0  0  0  0  0  0  0  # atno 17395 bound_to 11000

$$$$
