AV-unprocessed.smi:890|AV-procd|sdf|4060|dock7
  -GOLD-   22720 1553D 1   1.00000     0.00000
 Structure written by MMmdl.
 53 56  0  0  0  0  0  0  0  0  3 V2000
  154.7521  139.1951  161.4701 O   0  0  0  0  0  0  0  0  0  0  0  0
  154.3367  139.6069  160.3885 C   0  0  0  0  0  0  0  0  0  0  0  0
  153.7286  140.7873  160.1770 N   0  0  0  0  0  0  0  0  0  0  0  0
  153.4357  141.8475  161.0872 C   0  0  0  0  0  0  0  0  0  0  0  0
  153.7268  141.8017  162.4766 C   0  0  0  0  0  0  0  0  0  0  0  0
  153.4052  142.9013  163.2970 C   0  0  0  0  0  0  0  0  0  0  0  0
  152.8001  144.0330  162.7221 C   0  0  0  0  0  0  0  0  0  0  0  0
  152.5388  144.0499  161.3992 N   0  3  0  0  0  0  0  0  0  0  0  0
  152.8278  143.0201  160.5661 C   0  0  0  0  0  0  0  0  0  0  0  0
  152.5108  143.1444  159.2019 N   0  0  0  0  0  0  0  0  0  0  0  0
  152.1954  144.4890  158.7495 C   0  0  0  0  0  0  0  0  0  0  0  0
  151.5446  144.3093  157.3769 C   0  0  0  0  0  0  0  0  0  0  0  0
  150.9851  142.8815  157.3936 C   0  0  0  0  0  0  0  0  0  0  0  0
  151.4216  142.2988  158.7417 C   0  0  0  0  0  0  0  0  0  0  0  0
  154.4378  138.9070  159.2492 N   0  0  0  0  0  0  0  0  0  0  0  0
  155.0761  137.5997  159.1202 C   0  0  2  0  0  0  0  0  0  0  0  0
  155.0230  137.1347  157.6555 C   0  0  0  0  0  0  0  0  0  0  0  0
  155.6193  135.7253  157.5005 C   0  0  0  0  0  0  0  0  0  0  0  0
  154.9244  134.7531  158.3804 N   0  3  1  0  0  0  0  0  0  0  0  0
  155.4028  133.3697  158.1678 C   0  0  0  0  0  0  0  0  0  0  0  0
  154.6258  132.6145  157.1146 C   0  0  0  0  0  0  0  0  0  0  0  0
  154.4068  132.3108  158.5799 C   0  0  0  0  0  0  0  0  0  0  0  0
  154.9931  135.1567  159.8071 C   0  0  0  0  0  0  0  0  0  0  0  0
  154.3868  136.5545  160.0178 C   0  0  0  0  0  0  0  0  0  0  0  0
  153.4323  140.9552  159.2266 H   0  0  0  0  0  0  0  0  0  0  0  0
  154.1952  140.9517  162.9443 H   0  0  0  0  0  0  0  0  0  0  0  0
  153.6227  142.8752  164.3549 H   0  0  0  0  0  0  0  0  0  0  0  0
  152.5212  144.9186  163.2746 H   0  0  0  0  0  0  0  0  0  0  0  0
  151.4969  144.9724  159.4340 H   0  0  0  0  0  0  0  0  0  0  0  0
  153.0924  145.1063  158.6903 H   0  0  0  0  0  0  0  0  0  0  0  0
  150.7745  145.0587  157.1923 H   0  0  0  0  0  0  0  0  0  0  0  0
  152.2941  144.4028  156.5900 H   0  0  0  0  0  0  0  0  0  0  0  0
  149.8999  142.8640  157.2880 H   0  0  0  0  0  0  0  0  0  0  0  0
  151.4078  142.3048  156.5700 H   0  0  0  0  0  0  0  0  0  0  0  0
  151.7460  141.2625  158.6430 H   0  0  0  0  0  0  0  0  0  0  0  0
  150.5908  142.3251  159.4483 H   0  0  0  0  0  0  0  0  0  0  0  0
  154.0645  139.3159  158.4048 H   0  0  0  0  0  0  0  0  0  0  0  0
  156.1246  137.6851  159.4132 H   0  0  0  0  0  0  0  0  0  0  0  0
  153.9902  137.1311  157.3030 H   0  0  0  0  0  0  0  0  0  0  0  0
  155.5647  137.8357  157.0193 H   0  0  0  0  0  0  0  0  0  0  0  0
  155.5326  135.4062  156.4612 H   0  0  0  0  0  0  0  0  0  0  0  0
  156.6838  135.7385  157.7403 H   0  0  0  0  0  0  0  0  0  0  0  0
  156.4712  133.2020  158.2911 H   0  0  0  0  0  0  0  0  0  0  0  0
  153.8291  133.1359  156.5865 H   0  0  0  0  0  0  0  0  0  0  0  0
  155.1654  131.8742  156.5273 H   0  0  0  0  0  0  0  0  0  0  0  0
  154.8013  131.3696  158.9575 H   0  0  0  0  0  0  0  0  0  0  0  0
  153.4659  132.6314  159.0234 H   0  0  0  0  0  0  0  0  0  0  0  0
  154.4551  134.4312  160.4185 H   0  0  0  0  0  0  0  0  0  0  0  0
  156.0319  135.1437  160.1414 H   0  0  0  0  0  0  0  0  0  0  0  0
  154.4779  136.8368  161.0674 H   0  0  0  0  0  0  0  0  0  0  0  0
  153.3183  136.5222  159.7986 H   0  0  0  0  0  0  0  0  0  0  0  0
  153.9490  134.7652  158.1188 H   0  0  0  0  0  0  0  0  0  0  0  0
  152.1005  144.8828  161.0054 H   0  0  0  0  0  0  0  0  0  0  0  0
  1  2  2  0  0  0  0
  2  3  1  0  0  0  0
  2 15  1  0  0  0  0
  3  4  1  0  0  0  0
  3 25  1  0  0  0  0
  4  9  1  0  0  0  0
  4  5  2  0  0  0  0
  5  6  1  0  0  0  0
  5 26  1  0  0  0  0
  6  7  2  0  0  0  0
  6 27  1  0  0  0  0
  7  8  1  0  0  0  0
  7 28  1  0  0  0  0
  8  9  2  0  0  0  0
  8 53  1  0  0  0  0
  9 10  1  0  0  0  0
 10 14  1  0  0  0  0
 10 11  1  0  0  0  0
 11 12  1  0  0  0  0
 11 29  1  0  0  0  0
 11 30  1  0  0  0  0
 12 13  1  0  0  0  0
 12 31  1  0  0  0  0
 12 32  1  0  0  0  0
 13 14  1  0  0  0  0
 13 33  1  0  0  0  0
 13 34  1  0  0  0  0
 14 35  1  0  0  0  0
 14 36  1  0  0  0  0
 15 16  1  0  0  0  0
 15 37  1  0  0  0  0
 16 24  1  0  0  0  0
 16 17  1  0  0  0  0
 16 38  1  0  0  0  0
 17 18  1  0  0  0  0
 17 39  1  0  0  0  0
 17 40  1  0  0  0  0
 18 19  1  0  0  0  0
 18 41  1  0  0  0  0
 18 42  1  0  0  0  0
 19 20  1  0  0  0  0
 19 23  1  0  0  0  0
 19 52  1  0  0  0  0
 20 22  1  0  0  0  0
 20 21  1  0  0  0  0
 20 43  1  0  0  0  0
 21 22  1  0  0  0  0
 21 44  1  0  0  0  0
 21 45  1  0  0  0  0
 22 46  1  0  0  0  0
 22 47  1  0  0  0  0
 23 24  1  0  0  0  0
 23 48  1  0  0  0  0
 23 49  1  0  0  0  0
 24 50  1  0  0  0  0
 24 51  1  0  0  0  0
M  CHG  1   8   1
M  CHG  1  19   1
M  END
> <s_m_source_file>
AV-unprocessed.smi

> <i_m_source_file_index>
890

> <i_lp_mmshare_version>
43012

> <i_f3d_flags>
0

> <s_epik_input>
W0NIMl0xW0NIMl1bQ0hdMU4oW0NIMl1bQ0gyXTIpW0NIMl1bQ0gyXVtDSF0yW05IXUMoPU8pW05IXWMzW2NIXVtjSF1bY0hdbmMzTjRbQ0gyXVtDSDJdW0NIMl1bQ0gyXTQ=

> <s_epik_cmdline>
J2VwaWtfcHl0aG9uJywgJy1waCcsICc3LjAnLCAnLXRuJywgJzgnLCAnLW1hJywgJzIwMCcsICctbWV0YWxfYmluZGluZycsICctaW1hZScsICc8aW5maWxlLm1hZT4nLCAnLW9tYWUnLCAnPG91dGZpbGUubWFlPic=

> <r_lp_tautomer_probability>
0.999994

> <r_epik_Ionization_Penalty>
1.36901

> <r_epik_Ionization_Penalty_Charging>
1.36899

> <r_epik_Ionization_Penalty_Neutral>
1.88098e-05

> <r_epik_State_Penalty>
1.38441

> <r_epik_Charging_Adjusted_Penalty>
2.7534

> <i_epik_Tot_Q>
2

> <i_epik_Tot_abs_Q>
2

> <r_epik_Metal_State_Penalty>
1.45718

> <b_epik_Metal_Only>
0

> <s_lp_Force_Field>
OPLS_2005

> <r_lp_Energy>
65.7128

> <b_lp_Chiralities_Consistent>
1

> <s_lp_Variant>
AV-unprocessed.smi:890-4

> <Gold.Version>
5.8.1

> <Gold.Id.Protein>
6NUR|6NUR_protein|mol2

> <Gold.PLP.Fitness>
37.0021

> <Gold.PLP.PLP>
-39.0465

> <Gold.PLP.part.hbond>
0.0000

> <Gold.PLP.part.metal>
0.0000

> <Gold.PLP.part.buried>
-3.5247

> <Gold.PLP.part.nonpolar>
-35.0365

> <Gold.PLP.part.repulsive>
0.3003

> <Gold.PLP.ligand.clash>
1.5279

> <Gold.PLP.ligand.torsion>
0.9020

> <Gold.PLP.Chemscore.Hbond>
0.0000

> <Gold.PLP.Chemscore.CHOScore>
0.0000

> <Gold.PLP.Chemscore.Metal>
0.0000

> <Gold.PLP.Chemscore.Internal.Correction>
1.2874

> <Gold.Rescore>
     Score         DG    S(hbond)    S(metal)    S(lipo)     H(rot)  DE(clash)    DE(int)     intcor
     13.50     -15.90       0.00        0.00     118.58       1.35       0.34       2.06       ----

> <Gold.Chemscore.Fitness>
13.4956

> <Gold.Chemscore.DG>
-15.9002

> <Gold.Chemscore.ZeroCoef>
-5.4800

> <Gold.Chemscore.Hbond>
0.0000

> <Gold.Chemscore.Metal>
0.0000

> <Gold.Chemscore.Lipo>
118.5759

> <Gold.Chemscore.Internal_Hbond>
0.0000

> <Gold.Chemscore.DEClash>
0.3444

> <Gold.Chemscore.DEInternal>
2.0602

> <Gold.Chemscore.Rot>
1.3489

> <Gold.Chemscore.Internal.Correction>
   9.000000E+99

> <Gold.Chemscore.Hbond.Weighted>
-0.0000

> <Gold.Chemscore.Metal.Weighted>
-0.0000

> <Gold.Chemscore.Lipo.Weighted>
-13.8734

> <Gold.Chemscore.Internal_Hbond.Weighted>
0.0000

> <Gold.Chemscore.DEClash.Weighted>
0.3444

> <Gold.Chemscore.DEInternal.Weighted>
2.0602

> <Gold.Chemscore.Rot.Weighted>
3.4532

> <Gold.Chemscore.Internal.Correction.Weighted>
   9.000000E+99

> <Gold.Protein.RotatedTorsions>
[ 6907 6896 6895 6894 ] final -139.95 input  -60.11 | X-H torsion
[ 7974 7965 7964 7962 ] final   63.53 input  175.53 | X-H torsion
[ 8008 7997 7996 7995 ] final -166.72 input   59.86 | X-H torsion
[ 10167 10162 10161 10158 ] final   76.62 input  -65.29 | X-H torsion
[ 10718 10713 10712 10709 ] final  108.04 input   66.30 | X-H torsion
[ 10763 10752 10751 10750 ] final -104.27 input  -60.55 | X-H torsion
[ 11005 11000 10999 10996 ] final  -36.39 input  -57.11 | X-H torsion

> <Gold.Protein.ActiveResidues>
 VAL166  LYS551  ARG553  GLY616  TRP617  ASP618  TYR619  PRO620  LYS621  CYS622 
 ASP623  PHE694  ASN695  SER759  ASP760  ASP761  ALA762  ILE779  LEU786  VAL792 
 PHE793  MET794  SER795  GLU796  ALA797  LYS798  CYS799  TRP800  GLU811  SER814 

> <Gold.Protein.RotatedAtoms>
  151.0544  133.5597  159.2639 H   0  0  0  0  0  0  0  0  0  0  0  0  # atno 6907 bound_to 6896
  151.2595  135.0648  159.9103 H   0  0  0  0  0  0  0  0  0  0  0  0  # atno 6908 bound_to 6896
  152.5387  134.0292  159.8071 H   0  0  0  0  0  0  0  0  0  0  0  0  # atno 6909 bound_to 6896
  145.8608  139.3313  143.0820 H   0  0  0  0  0  0  0  0  0  0  0  0  # atno 7974 bound_to 7965
  155.8678  140.0988  157.1570 H   0  0  0  0  0  0  0  0  0  0  0  0  # atno 8008 bound_to 7997
  154.3995  140.1353  156.4103 H   0  0  0  0  0  0  0  0  0  0  0  0  # atno 8009 bound_to 7997
  155.7784  140.3459  155.5287 H   0  0  0  0  0  0  0  0  0  0  0  0  # atno 8010 bound_to 7997
  139.9903  144.5762  150.7824 H   0  0  0  0  0  0  0  0  0  0  0  0  # atno 10167 bound_to 10162
  157.6603  131.0885  150.6246 H   0  0  0  0  0  0  0  0  0  0  0  0  # atno 10718 bound_to 10713
  154.7866  135.4792  153.9960 H   0  0  0  0  0  0  0  0  0  0  0  0  # atno 10763 bound_to 10752
  153.1570  135.6801  153.8805 H   0  0  0  0  0  0  0  0  0  0  0  0  # atno 10764 bound_to 10752
  153.8431  135.3177  155.3405 H   0  0  0  0  0  0  0  0  0  0  0  0  # atno 10765 bound_to 10752
  140.9871  133.7025  156.1784 H   0  0  0  0  0  0  0  0  0  0  0  0  # atno 11005 bound_to 11000
  145.9250  140.9088  143.0385 LP  0  0  0  0  0  0  0  0  0  0  0  0  # atno 17320 bound_to 7965
  144.6726  140.1341  143.7441 LP  0  0  0  0  0  0  0  0  0  0  0  0  # atno 17321 bound_to 7965
  140.7457  143.2880  151.3410 LP  0  0  0  0  0  0  0  0  0  0  0  0  # atno 17342 bound_to 10162
  139.6345  144.0657  152.2504 LP  0  0  0  0  0  0  0  0  0  0  0  0  # atno 17343 bound_to 10162
  156.6550  130.4496  149.5706 LP  0  0  0  0  0  0  0  0  0  0  0  0  # atno 17370 bound_to 10713
  156.2109  130.6678  151.1269 LP  0  0  0  0  0  0  0  0  0  0  0  0  # atno 17371 bound_to 10713
  140.7097  134.4474  157.5582 LP  0  0  0  0  0  0  0  0  0  0  0  0  # atno 17394 bound_to 11000
  139.8975  134.8634  156.2040 LP  0  0  0  0  0  0  0  0  0  0  0  0  # atno 17395 bound_to 11000

$$$$
