AV-unprocessed.smi:655|AV-procd|sdf|3214|dock10
  -GOLD-   22720 0153D 1   1.00000     0.00000
 Structure written by MMmdl.
 35 36  0  0  0  0  0  0  0  0  1 V2000
  151.8893  145.7282  160.5225 C   0  0  0  0  0  0  0  0  0  0  0  0
  151.5044  144.3682  159.9233 C   0  0  2  0  0  0  0  0  0  0  0  0
  152.5908  143.8467  158.9669 C   0  0  0  0  0  0  0  0  0  0  0  0
  152.2158  142.4810  158.3645 C   0  0  0  0  0  0  0  0  0  0  0  0
  150.8365  142.4844  157.6577 C   0  0  1  0  0  0  0  0  0  0  0  0
  150.8972  143.3339  156.5261 O   0  0  0  0  0  0  0  0  0  0  0  0
  150.3817  141.0784  157.1685 C   0  0  0  0  0  0  0  0  0  0  0  0
  149.3723  141.0714  156.1316 N   0  0  0  0  0  0  0  0  0  0  0  0
  148.0962  141.5774  156.3335 C   0  0  0  0  0  0  0  0  0  0  0  0
  147.1315  141.5656  155.3824 C   0  0  0  0  0  0  0  0  0  0  0  0
  145.5632  142.2081  155.7162 Cl  0  0  0  0  0  0  0  0  0  0  0  0
  147.4128  141.0033  154.0624 C   0  0  0  0  0  0  0  0  0  0  0  0
  146.6144  140.9419  153.1295 O   0  0  0  0  0  0  0  0  0  0  0  0
  148.7109  140.5100  153.9013 N   0  0  0  0  0  0  0  0  0  0  0  0
  149.7102  140.5170  154.8750 C   0  0  0  0  0  0  0  0  0  0  0  0
  150.8208  140.0555  154.6129 O   0  0  0  0  0  0  0  0  0  0  0  0
  149.7572  143.0739  158.5977 C   0  0  0  0  0  0  0  0  0  0  0  0
  150.1496  144.4363  159.1973 C   0  0  0  0  0  0  0  0  0  0  0  0
  148.9465  140.1157  153.0020 H   0  0  0  0  0  0  0  0  0  0  0  0
  152.0095  146.4840  159.7456 H   0  0  0  0  0  0  0  0  0  0  0  0
  152.8288  145.6634  161.0720 H   0  0  0  0  0  0  0  0  0  0  0  0
  151.1261  146.0822  161.2162 H   0  0  0  0  0  0  0  0  0  0  0  0
  151.4110  143.6592  160.7473 H   0  0  0  0  0  0  0  0  0  0  0  0
  152.7549  144.5678  158.1651 H   0  0  0  0  0  0  0  0  0  0  0  0
  153.5402  143.7588  159.4961 H   0  0  0  0  0  0  0  0  0  0  0  0
  153.0004  142.1736  157.6719 H   0  0  0  0  0  0  0  0  0  0  0  0
  152.2067  141.7397  159.1641 H   0  0  0  0  0  0  0  0  0  0  0  0
  150.0258  143.6458  156.3355 H   0  0  0  0  0  0  0  0  0  0  0  0
  151.2272  140.5516  156.7231 H   0  0  0  0  0  0  0  0  0  0  0  0
  150.0457  140.4286  157.9801 H   0  0  0  0  0  0  0  0  0  0  0  0
  147.8524  141.9966  157.2995 H   0  0  0  0  0  0  0  0  0  0  0  0
  148.8059  143.1659  158.0714 H   0  0  0  0  0  0  0  0  0  0  0  0
  149.5776  142.3794  159.4197 H   0  0  0  0  0  0  0  0  0  0  0  0
  149.3738  144.7623  159.8909 H   0  0  0  0  0  0  0  0  0  0  0  0
  150.1892  145.1897  158.4094 H   0  0  0  0  0  0  0  0  0  0  0  0
  1  2  1  0  0  0  0
  1 20  1  0  0  0  0
  1 21  1  0  0  0  0
  1 22  1  0  0  0  0
  2 18  1  0  0  0  0
  2  3  1  0  0  0  0
  2 23  1  0  0  0  0
  3  4  1  0  0  0  0
  3 24  1  0  0  0  0
  3 25  1  0  0  0  0
  4  5  1  0  0  0  0
  4 26  1  0  0  0  0
  4 27  1  0  0  0  0
  5  6  1  0  0  0  0
  5  7  1  0  0  0  0
  5 17  1  0  0  0  0
  6 28  1  0  0  0  0
  7  8  1  0  0  0  0
  7 29  1  0  0  0  0
  7 30  1  0  0  0  0
  8 15  1  0  0  0  0
  8  9  1  0  0  0  0
  9 10  2  0  0  0  0
  9 31  1  0  0  0  0
 10 11  1  0  0  0  0
 10 12  1  0  0  0  0
 12 13  2  0  0  0  0
 12 14  1  0  0  0  0
 14 19  1  0  0  0  0
 14 15  1  0  0  0  0
 15 16  2  0  0  0  0
 17 18  1  0  0  0  0
 17 32  1  0  0  0  0
 17 33  1  0  0  0  0
 18 34  1  0  0  0  0
 18 35  1  0  0  0  0
M  END
> <s_m_source_file>
AV-unprocessed.smi

> <i_m_source_file_index>
655

> <i_lp_mmshare_version>
43012

> <i_f3d_flags>
0

> <s_epik_input>
W0NIMl0xW0NIMl1bQ0BIXShbQ0gzXSlbQ0gyXVtDSDJdW0NAQF0xKFtPSF0pW0NIMl1uMltjSF1jKENsKWMoPU8pW25IXWMyPU8=

> <s_epik_cmdline>
J2VwaWtfcHl0aG9uJywgJy1waCcsICc3LjAnLCAnLXRuJywgJzgnLCAnLW1hJywgJzIwMCcsICctbWV0YWxfYmluZGluZycsICctaW1hZScsICc8aW5maWxlLm1hZT4nLCAnLW9tYWUnLCAnPG91dGZpbGUubWFlPic=

> <r_lp_tautomer_probability>
0.999537

> <r_epik_Ionization_Penalty>
0.0114762

> <r_epik_Ionization_Penalty_Charging>
0.0114753

> <r_epik_Ionization_Penalty_Neutral>
8.25878e-07

> <r_epik_State_Penalty>
0.00883314

> <r_epik_Charging_Adjusted_Penalty>
0.0203085

> <i_epik_Tot_Q>
0

> <i_epik_Tot_abs_Q>
0

> <r_epik_Metal_State_Penalty>
1.64347

> <b_epik_Metal_Only>
0

> <s_lp_Force_Field>
OPLS_2005

> <r_lp_Energy>
18.0938

> <b_lp_Chiralities_Consistent>
1

> <s_lp_Variant>
AV-unprocessed.smi:655-1

> <Gold.Version>
5.8.1

> <Gold.Id.Protein>
6NUR|6NUR_protein|mol2

> <Gold.PLP.Fitness>
42.9276

> <Gold.PLP.PLP>
-34.4859

> <Gold.PLP.part.hbond>
-3.0000

> <Gold.PLP.part.metal>
0.0000

> <Gold.PLP.part.buried>
-2.1582

> <Gold.PLP.part.nonpolar>
-29.7488

> <Gold.PLP.part.repulsive>
0.4397

> <Gold.PLP.ligand.clash>
0.0000

> <Gold.PLP.ligand.torsion>
0.2822

> <Gold.PLP.Chemscore.Hbond>
3.0000

> <Gold.PLP.Chemscore.CHOScore>
0.0000

> <Gold.PLP.Chemscore.Metal>
0.0000

> <Gold.Chemscore.Hbonds>
donor molecule, donor type, donor heavy atom, donor atom, acceptor molecule, acceptor atom, score
      L1  H     6    28       P1  8028  1.00
      L1  H    14    19       P1  7957  1.00
      P1  H  7989  7998       L1    16  1.00

> <Gold.PLP.Chemscore.Internal.Correction>
0.0060

> <Gold.Rescore>
     Score         DG    S(hbond)    S(metal)    S(lipo)     H(rot)  DE(clash)    DE(int)     intcor
     19.45     -20.09       2.93        0.00      81.67       1.84       0.47       0.17       ----

> <Gold.Chemscore.Fitness>
19.4506

> <Gold.Chemscore.DG>
-20.0901

> <Gold.Chemscore.ZeroCoef>
-5.4800

> <Gold.Chemscore.Hbond>
2.9256

> <Gold.Chemscore.Metal>
0.0000

> <Gold.Chemscore.Lipo>
81.6682

> <Gold.Chemscore.Internal_Hbond>
0.0000

> <Gold.Chemscore.DEClash>
0.4678

> <Gold.Chemscore.DEInternal>
0.1717

> <Gold.Chemscore.Rot>
1.8424

> <Gold.Chemscore.Internal.Correction>
   9.000000E+99

> <Gold.Chemscore.Hbonds>
donor molecule, donor type, donor heavy atom, donor atom, acceptor molecule, acceptor atom, score
      L1  H     6    28       P1  8028  0.98
      L1  H    14    19       P1  7957  0.98
      P1  H  7989  7998       L1    16  0.87

> <Gold.Chemscore.Hbond.Weighted>
-9.7714

> <Gold.Chemscore.Metal.Weighted>
-0.0000

> <Gold.Chemscore.Lipo.Weighted>
-9.5552

> <Gold.Chemscore.Internal_Hbond.Weighted>
0.0000

> <Gold.Chemscore.DEClash.Weighted>
0.4678

> <Gold.Chemscore.DEInternal.Weighted>
0.1717

> <Gold.Chemscore.Rot.Weighted>
4.7164

> <Gold.Chemscore.Internal.Correction.Weighted>
   9.000000E+99

> <Gold.Protein.RotatedTorsions>
[ 6907 6896 6895 6894 ] final -110.18 input  -60.11 | X-H torsion
[ 7974 7965 7964 7962 ] final  -31.25 input  175.53 | X-H torsion
[ 8008 7997 7996 7995 ] final   -5.53 input   59.86 | X-H torsion
[ 10167 10162 10161 10158 ] final   58.60 input  -65.29 | X-H torsion
[ 10718 10713 10712 10709 ] final  175.86 input   66.30 | X-H torsion
[ 10763 10752 10751 10750 ] final  152.89 input  -60.55 | X-H torsion
[ 11005 11000 10999 10996 ] final -138.25 input  -57.11 | X-H torsion

> <Gold.Protein.ActiveResidues>
 VAL166  LYS551  ARG553  GLY616  TRP617  ASP618  TYR619  PRO620  LYS621  CYS622 
 ASP623  PHE694  ASN695  SER759  ASP760  ASP761  ALA762  ILE779  LEU786  VAL792 
 PHE793  MET794  SER795  GLU796  ALA797  LYS798  CYS799  TRP800  GLU811  SER814 

> <Gold.Protein.RotatedAtoms>
  150.7608  133.9420  159.3458 H   0  0  0  0  0  0  0  0  0  0  0  0  # atno 6907 bound_to 6896
  151.7329  135.0869  160.0312 H   0  0  0  0  0  0  0  0  0  0  0  0  # atno 6908 bound_to 6896
  152.3578  133.6221  159.6028 H   0  0  0  0  0  0  0  0  0  0  0  0  # atno 6909 bound_to 6896
  146.1081  140.5643  142.8790 H   0  0  0  0  0  0  0  0  0  0  0  0  # atno 7974 bound_to 7965
  154.6030  140.2456  155.7767 H   0  0  0  0  0  0  0  0  0  0  0  0  # atno 8008 bound_to 7997
  156.2323  140.2962  156.0172 H   0  0  0  0  0  0  0  0  0  0  0  0  # atno 8009 bound_to 7997
  155.2179  140.0399  157.2934 H   0  0  0  0  0  0  0  0  0  0  0  0  # atno 8010 bound_to 7997
  140.1855  144.4139  150.6595 H   0  0  0  0  0  0  0  0  0  0  0  0  # atno 10167 bound_to 10162
  156.9287  130.9964  151.2991 H   0  0  0  0  0  0  0  0  0  0  0  0  # atno 10718 bound_to 10713
  154.1273  135.2829  155.3194 H   0  0  0  0  0  0  0  0  0  0  0  0  # atno 10763 bound_to 10752
  154.6380  135.5412  153.7760 H   0  0  0  0  0  0  0  0  0  0  0  0  # atno 10764 bound_to 10752
  153.0293  135.6479  154.1425 H   0  0  0  0  0  0  0  0  0  0  0  0  # atno 10765 bound_to 10752
  140.8634  134.2141  157.4694 H   0  0  0  0  0  0  0  0  0  0  0  0  # atno 11005 bound_to 11000
  144.7488  140.5138  143.6816 LP  0  0  0  0  0  0  0  0  0  0  0  0  # atno 17320 bound_to 7965
  145.5719  139.1484  143.3284 LP  0  0  0  0  0  0  0  0  0  0  0  0  # atno 17321 bound_to 7965
  140.6491  143.2220  151.6118 LP  0  0  0  0  0  0  0  0  0  0  0  0  # atno 17342 bound_to 10162
  139.5278  144.3006  152.1076 LP  0  0  0  0  0  0  0  0  0  0  0  0  # atno 17343 bound_to 10162
  157.5861  130.8411  149.8592 LP  0  0  0  0  0  0  0  0  0  0  0  0  # atno 17370 bound_to 10713
  156.0457  130.3728  150.1323 LP  0  0  0  0  0  0  0  0  0  0  0  0  # atno 17371 bound_to 10713
  139.8708  134.9740  156.4831 LP  0  0  0  0  0  0  0  0  0  0  0  0  # atno 17394 bound_to 11000
  140.8657  133.8026  155.9311 LP  0  0  0  0  0  0  0  0  0  0  0  0  # atno 17395 bound_to 11000

$$$$
