AV-unprocessed.smi:1001|AV-procd|sdf|4357|dock3
  -GOLD-   22720 2253D 1   1.00000     0.00000
 Structure written by MMmdl.
 47 48  0  0  0  0  0  0  0  0  1 V2000
  148.5566  132.9350  150.4744 N   0  0  0  0  0  0  0  0  0  0  0  0
  148.2299  133.9437  151.2917 C   0  0  0  0  0  0  0  0  0  0  0  0
  147.3423  134.7462  151.0051 O   0  0  0  0  0  0  0  0  0  0  0  0
  149.0050  134.0316  152.5603 C   0  0  0  0  0  0  0  0  0  0  0  0
  150.0925  133.0855  152.7445 C   0  0  0  0  0  0  0  0  0  0  0  0
  150.8076  133.1445  153.8891 C   0  0  0  0  0  0  0  0  0  0  0  0
  150.5170  134.1273  154.9341 C   0  0  0  0  0  0  0  0  0  0  0  0
  151.1521  134.1997  155.9859 O   0  0  0  0  0  0  0  0  0  0  0  0
  149.4743  134.9618  154.6365 N   0  0  0  0  0  0  0  0  0  0  0  0
  149.0603  136.0213  155.5678 C   0  0  0  0  0  0  0  0  0  0  0  0
  149.0731  137.4198  154.9332 C   0  0  0  0  0  0  0  0  0  0  0  0
  148.3671  137.6725  153.9558 O   0  0  0  0  0  0  0  0  0  0  0  0
  149.8754  138.3253  155.5131 N   0  0  0  0  0  0  0  0  0  0  0  0
  150.0568  139.6969  155.0528 C   0  0  0  0  0  0  0  0  0  0  0  0
  151.0411  140.4632  155.9518 C   0  0  0  0  0  0  0  0  0  0  0  0
  150.3445  141.1495  157.1388 C   0  0  0  0  0  0  0  0  0  0  0  0
  151.3156  141.8251  158.1292 C   0  0  0  0  0  0  0  0  0  0  0  0
  151.7565  140.8784  159.2677 C   0  0  0  0  0  0  0  0  0  0  0  0
  152.7139  141.5744  160.2489 C   0  0  0  0  0  0  0  0  0  0  0  0
  152.0909  142.8543  160.8251 C   0  0  0  0  0  0  0  0  0  0  0  0
  151.6493  143.8054  159.7029 C   0  0  0  0  0  0  0  0  0  0  0  0
  150.6930  143.1058  158.7230 C   0  0  0  0  0  0  0  0  0  0  0  0
  148.7287  134.9098  153.4695 N   0  0  0  0  0  0  0  0  0  0  0  0
  148.0666  132.8186  149.5993 H   0  0  0  0  0  0  0  0  0  0  0  0
  149.2903  132.2929  150.7376 H   0  0  0  0  0  0  0  0  0  0  0  0
  150.3296  132.3504  151.9892 H   0  0  0  0  0  0  0  0  0  0  0  0
  151.6191  132.4478  154.0389 H   0  0  0  0  0  0  0  0  0  0  0  0
  148.0518  135.8275  155.9372 H   0  0  0  0  0  0  0  0  0  0  0  0
  149.7025  136.0105  156.4507 H   0  0  0  0  0  0  0  0  0  0  0  0
  150.4154  138.0377  156.3165 H   0  0  0  0  0  0  0  0  0  0  0  0
  150.3976  139.7029  154.0161 H   0  0  0  0  0  0  0  0  0  0  0  0
  149.0841  140.1895  155.0624 H   0  0  0  0  0  0  0  0  0  0  0  0
  151.8004  139.7705  156.3142 H   0  0  0  0  0  0  0  0  0  0  0  0
  151.5658  141.2153  155.3612 H   0  0  0  0  0  0  0  0  0  0  0  0
  149.6655  141.9056  156.7424 H   0  0  0  0  0  0  0  0  0  0  0  0
  149.7180  140.4297  157.6671 H   0  0  0  0  0  0  0  0  0  0  0  0
  152.2055  142.1232  157.5727 H   0  0  0  0  0  0  0  0  0  0  0  0
  150.8801  140.5190  159.8088 H   0  0  0  0  0  0  0  0  0  0  0  0
  152.2512  139.9961  158.8629 H   0  0  0  0  0  0  0  0  0  0  0  0
  152.9765  140.8925  161.0580 H   0  0  0  0  0  0  0  0  0  0  0  0
  153.6457  141.8193  159.7371 H   0  0  0  0  0  0  0  0  0  0  0  0
  151.2319  142.5958  161.4454 H   0  0  0  0  0  0  0  0  0  0  0  0
  152.8061  143.3549  161.4785 H   0  0  0  0  0  0  0  0  0  0  0  0
  151.1659  144.6841  160.1304 H   0  0  0  0  0  0  0  0  0  0  0  0
  152.5258  144.1661  159.1631 H   0  0  0  0  0  0  0  0  0  0  0  0
  150.4286  143.7983  157.9232 H   0  0  0  0  0  0  0  0  0  0  0  0
  149.7628  142.8593  159.2369 H   0  0  0  0  0  0  0  0  0  0  0  0
  1  2  1  0  0  0  0
  1 24  1  0  0  0  0
  1 25  1  0  0  0  0
  2  3  2  0  0  0  0
  2  4  1  0  0  0  0
  4 23  2  0  0  0  0
  4  5  1  0  0  0  0
  5  6  2  0  0  0  0
  5 26  1  0  0  0  0
  6  7  1  0  0  0  0
  6 27  1  0  0  0  0
  7  8  2  0  0  0  0
  7  9  1  0  0  0  0
  9 10  1  0  0  0  0
  9 23  1  0  0  0  0
 10 11  1  0  0  0  0
 10 28  1  0  0  0  0
 10 29  1  0  0  0  0
 11 12  2  0  0  0  0
 11 13  1  0  0  0  0
 13 14  1  0  0  0  0
 13 30  1  0  0  0  0
 14 15  1  0  0  0  0
 14 31  1  0  0  0  0
 14 32  1  0  0  0  0
 15 16  1  0  0  0  0
 15 33  1  0  0  0  0
 15 34  1  0  0  0  0
 16 17  1  0  0  0  0
 16 35  1  0  0  0  0
 16 36  1  0  0  0  0
 17 22  1  0  0  0  0
 17 18  1  0  0  0  0
 17 37  1  0  0  0  0
 18 19  1  0  0  0  0
 18 38  1  0  0  0  0
 18 39  1  0  0  0  0
 19 20  1  0  0  0  0
 19 40  1  0  0  0  0
 19 41  1  0  0  0  0
 20 21  1  0  0  0  0
 20 42  1  0  0  0  0
 20 43  1  0  0  0  0
 21 22  1  0  0  0  0
 21 44  1  0  0  0  0
 21 45  1  0  0  0  0
 22 46  1  0  0  0  0
 22 47  1  0  0  0  0
M  END
> <s_m_source_file>
AV-unprocessed.smi

> <i_m_source_file_index>
1001

> <i_lp_mmshare_version>
43012

> <i_f3d_flags>
0

> <s_epik_input>
W05IMl1DKD1PKWMxW2NIXVtjSF1jKD1PKW4objEpW0NIMl1DKD1PKVtOSF1bQ0gyXVtDSDJdW0NIMl1bQ0hdMltDSDJdW0NIMl1bQ0gyXVtDSDJdW0NIMl0y

> <s_epik_cmdline>
J2VwaWtfcHl0aG9uJywgJy1waCcsICc3LjAnLCAnLXRuJywgJzgnLCAnLW1hJywgJzIwMCcsICctbWV0YWxfYmluZGluZycsICctaW1hZScsICc8aW5maWxlLm1hZT4nLCAnLW9tYWUnLCAnPG91dGZpbGUubWFlPic=

> <r_lp_tautomer_probability>
1

> <r_epik_Ionization_Penalty>
2.90452e-06

> <r_epik_Ionization_Penalty_Charging>
3.08996e-10

> <r_epik_Ionization_Penalty_Neutral>
2.90421e-06

> <r_epik_State_Penalty>
-0

> <r_epik_Charging_Adjusted_Penalty>
3.08996e-10

> <i_epik_Tot_Q>
0

> <i_epik_Tot_abs_Q>
0

> <r_epik_Metal_State_Penalty>
-0

> <b_epik_Metal_Only>
0

> <s_lp_Force_Field>
OPLS_2005

> <r_lp_Energy>
27.0219

> <b_lp_Chiralities_Consistent>
1

> <s_lp_Variant>
AV-unprocessed.smi:1001-1

> <Gold.Version>
5.8.1

> <Gold.Id.Protein>
6NUR|6NUR_protein|mol2

> <Gold.PLP.Fitness>
41.3729

> <Gold.PLP.PLP>
-40.9194

> <Gold.PLP.part.hbond>
-1.7282

> <Gold.PLP.part.metal>
0.0000

> <Gold.PLP.part.buried>
-6.6026

> <Gold.PLP.part.nonpolar>
-34.6939

> <Gold.PLP.part.repulsive>
1.8278

> <Gold.PLP.ligand.clash>
0.1843

> <Gold.PLP.ligand.torsion>
0.6302

> <Gold.PLP.Chemscore.Hbond>
0.5440

> <Gold.PLP.Chemscore.CHOScore>
0.0000

> <Gold.PLP.Chemscore.Metal>
0.0000

> <Gold.Chemscore.Hbonds>
donor molecule, donor type, donor heavy atom, donor atom, acceptor molecule, acceptor atom, score
      L1  H     1    25       P1 10747  0.23

> <Gold.PLP.Chemscore.Internal.Correction>
0.2663

> <Gold.Rescore>
     Score         DG    S(hbond)    S(metal)    S(lipo)     H(rot)  DE(clash)    DE(int)     intcor
     10.88     -12.95       0.90        0.00      92.13       2.46       0.00       2.08       ----

> <Gold.Chemscore.Fitness>
10.8756

> <Gold.Chemscore.DG>
-12.9542

> <Gold.Chemscore.ZeroCoef>
-5.4800

> <Gold.Chemscore.Hbond>
0.8955

> <Gold.Chemscore.Metal>
0.0000

> <Gold.Chemscore.Lipo>
92.1293

> <Gold.Chemscore.Internal_Hbond>
0.0000

> <Gold.Chemscore.DEClash>
0.0000

> <Gold.Chemscore.DEInternal>
2.0786

> <Gold.Chemscore.Rot>
2.4593

> <Gold.Chemscore.Internal.Correction>
   9.000000E+99

> <Gold.Chemscore.Hbonds>
donor molecule, donor type, donor heavy atom, donor atom, acceptor molecule, acceptor atom, score
      L1  H     1    25       P1 10747  0.12

> <Gold.Chemscore.Hbond.Weighted>
-2.9909

> <Gold.Chemscore.Metal.Weighted>
-0.0000

> <Gold.Chemscore.Lipo.Weighted>
-10.7791

> <Gold.Chemscore.Internal_Hbond.Weighted>
0.0000

> <Gold.Chemscore.DEClash.Weighted>
0.0000

> <Gold.Chemscore.DEInternal.Weighted>
2.0786

> <Gold.Chemscore.Rot.Weighted>
6.2958

> <Gold.Chemscore.Internal.Correction.Weighted>
   9.000000E+99

> <Gold.Protein.RotatedTorsions>
[ 6907 6896 6895 6894 ] final  112.01 input  -60.11 | X-H torsion
[ 7974 7965 7964 7962 ] final    4.93 input  175.53 | X-H torsion
[ 8008 7997 7996 7995 ] final  160.10 input   59.86 | X-H torsion
[ 10167 10162 10161 10158 ] final   73.40 input  -65.29 | X-H torsion
[ 10718 10713 10712 10709 ] final  128.18 input   66.30 | X-H torsion
[ 10763 10752 10751 10750 ] final  -79.73 input  -60.55 | X-H torsion
[ 11005 11000 10999 10996 ] final  -52.53 input  -57.11 | X-H torsion

> <Gold.Protein.ActiveResidues>
 VAL166  LYS551  ARG553  GLY616  TRP617  ASP618  TYR619  PRO620  LYS621  CYS622 
 ASP623  PHE694  ASN695  SER759  ASP760  ASP761  ALA762  ILE779  LEU786  VAL792 
 PHE793  MET794  SER795  GLU796  ALA797  LYS798  CYS799  TRP800  GLU811  SER814 

> <Gold.Protein.RotatedAtoms>
  152.4939  133.8577  159.7233 H   0  0  0  0  0  0  0  0  0  0  0  0  # atno 6907 bound_to 6896
  150.9097  133.7004  159.2864 H   0  0  0  0  0  0  0  0  0  0  0  0  # atno 6908 bound_to 6896
  151.4418  135.1025  159.9725 H   0  0  0  0  0  0  0  0  0  0  0  0  # atno 6909 bound_to 6896
  146.2442  140.0460  142.8378 H   0  0  0  0  0  0  0  0  0  0  0  0  # atno 7974 bound_to 7965
  156.2195  140.1813  156.7510 H   0  0  0  0  0  0  0  0  0  0  0  0  # atno 8008 bound_to 7997
  154.5843  140.0661  156.9178 H   0  0  0  0  0  0  0  0  0  0  0  0  # atno 8009 bound_to 7997
  155.2447  140.3324  155.4291 H   0  0  0  0  0  0  0  0  0  0  0  0  # atno 8010 bound_to 7997
  140.0249  144.5511  150.7552 H   0  0  0  0  0  0  0  0  0  0  0  0  # atno 10167 bound_to 10162
  157.5268  131.1098  150.9071 H   0  0  0  0  0  0  0  0  0  0  0  0  # atno 10718 bound_to 10713
  154.5423  135.5685  153.6850 H   0  0  0  0  0  0  0  0  0  0  0  0  # atno 10763 bound_to 10752
  152.9967  135.6231  154.2485 H   0  0  0  0  0  0  0  0  0  0  0  0  # atno 10764 bound_to 10752
  154.2416  135.2862  155.2831 H   0  0  0  0  0  0  0  0  0  0  0  0  # atno 10765 bound_to 10752
  141.0929  133.6629  156.4038 H   0  0  0  0  0  0  0  0  0  0  0  0  # atno 11005 bound_to 11000
  145.1027  140.9356  143.4703 LP  0  0  0  0  0  0  0  0  0  0  0  0  # atno 17320 bound_to 7965
  145.0656  139.3071  143.5858 LP  0  0  0  0  0  0  0  0  0  0  0  0  # atno 17321 bound_to 7965
  140.7327  143.2708  151.3894 LP  0  0  0  0  0  0  0  0  0  0  0  0  # atno 17342 bound_to 10162
  139.6115  144.1089  152.2303 LP  0  0  0  0  0  0  0  0  0  0  0  0  # atno 17343 bound_to 10162
  156.9664  130.5474  149.5288 LP  0  0  0  0  0  0  0  0  0  0  0  0  # atno 17370 bound_to 10713
  156.0393  130.5477  150.8730 LP  0  0  0  0  0  0  0  0  0  0  0  0  # atno 17371 bound_to 10713
  140.5209  134.6305  157.5318 LP  0  0  0  0  0  0  0  0  0  0  0  0  # atno 17394 bound_to 11000
  139.9759  134.7216  155.9951 LP  0  0  0  0  0  0  0  0  0  0  0  0  # atno 17395 bound_to 11000

$$$$
