AV-unprocessed.smi:334|AV-procd|sdf|2368|dock1
  -GOLD-   2262022283D 1   1.00000     0.00000
 Structure written by MMmdl.
 44 46  0  0  0  0  0  0  0  0  3 V2000
  144.7850  135.7610  154.3835 C   0  0  0  0  0  0  0  0  0  0  0  0
  146.0083  135.5535  153.4713 C   0  0  2  0  0  0  0  0  0  0  0  0
  146.5538  136.8601  153.1064 N   0  0  0  0  0  0  0  0  0  0  0  0
  146.7753  137.8779  153.9522 C   0  0  0  0  0  0  0  0  0  0  0  0
  146.5410  137.8163  155.1600 O   0  0  0  0  0  0  0  0  0  0  0  0
  147.3681  139.1498  153.3292 C   0  0  0  0  0  0  0  0  0  0  0  0
  148.5085  139.6920  154.0871 N   0  0  0  0  0  0  0  0  0  0  0  0
  149.6804  138.9108  154.1275 C   0  0  0  0  0  0  0  0  0  0  0  0
  150.7810  139.3056  154.7972 C   0  0  0  0  0  0  0  0  0  0  0  0
  151.9740  138.4883  154.8319 N   0  3  0  0  0  0  0  0  0  0  0  0
  151.9320  137.3647  154.3409 O   0  0  0  0  0  0  0  0  0  0  0  0
  152.9907  138.9400  155.3505 O   0  5  0  0  0  0  0  0  0  0  0  0
  150.7293  140.5796  155.4881 C   0  0  0  0  0  0  0  0  0  0  0  0
  149.6105  141.3297  155.4556 C   0  0  0  0  0  0  0  0  0  0  0  0
  148.4126  140.8966  154.7289 C   0  0  0  0  0  0  0  0  0  0  0  0
  147.3860  141.5755  154.6987 O   0  0  0  0  0  0  0  0  0  0  0  0
  145.6706  134.7575  152.1859 C   0  0  1  0  0  0  0  0  0  0  0  0
  145.3439  133.2645  152.4453 C   0  0  0  0  0  0  0  0  0  0  0  0
  143.9803  133.0732  151.7591 C   0  0  2  0  0  0  0  0  0  0  0  0
  144.1529  133.1617  150.2320 C   0  0  0  0  0  0  0  0  0  0  0  0
  144.4132  134.6629  150.0086 C   0  0  0  0  0  0  0  0  0  0  0  0
  144.3948  135.2288  151.4420 C   0  0  1  0  0  0  0  0  0  0  0  0
  143.2913  134.3917  152.0811 C   0  0  0  0  0  0  0  0  0  0  0  0
  144.3888  134.8165  154.7534 H   0  0  0  0  0  0  0  0  0  0  0  0
  143.9810  136.2765  153.8573 H   0  0  0  0  0  0  0  0  0  0  0  0
  145.0435  136.3590  155.2580 H   0  0  0  0  0  0  0  0  0  0  0  0
  146.7639  134.9993  154.0304 H   0  0  0  0  0  0  0  0  0  0  0  0
  146.7806  136.9988  152.1322 H   0  0  0  0  0  0  0  0  0  0  0  0
  147.6632  138.9196  152.3045 H   0  0  0  0  0  0  0  0  0  0  0  0
  146.5859  139.9057  153.2360 H   0  0  0  0  0  0  0  0  0  0  0  0
  149.6148  137.9769  153.5882 H   0  0  0  0  0  0  0  0  0  0  0  0
  151.5866  140.9406  156.0372 H   0  0  0  0  0  0  0  0  0  0  0  0
  149.5940  142.2747  155.9788 H   0  0  0  0  0  0  0  0  0  0  0  0
  146.5285  134.8282  151.5150 H   0  0  0  0  0  0  0  0  0  0  0  0
  146.1078  132.5965  152.0455 H   0  0  0  0  0  0  0  0  0  0  0  0
  145.2487  133.0538  153.5116 H   0  0  0  0  0  0  0  0  0  0  0  0
  143.4467  132.1813  152.0888 H   0  0  0  0  0  0  0  0  0  0  0  0
  144.9725  132.5382  149.8730 H   0  0  0  0  0  0  0  0  0  0  0  0
  143.2431  132.8495  149.7175 H   0  0  0  0  0  0  0  0  0  0  0  0
  145.3563  134.8520  149.4948 H   0  0  0  0  0  0  0  0  0  0  0  0
  143.6149  135.1033  149.4096 H   0  0  0  0  0  0  0  0  0  0  0  0
  144.2203  136.3035  151.4660 H   0  0  0  0  0  0  0  0  0  0  0  0
  142.3228  134.5045  151.5904 H   0  0  0  0  0  0  0  0  0  0  0  0
  143.1710  134.5686  153.1510 H   0  0  0  0  0  0  0  0  0  0  0  0
  1  2  1  0  0  0  0
  1 24  1  0  0  0  0
  1 25  1  0  0  0  0
  1 26  1  0  0  0  0
  2  3  1  0  0  0  0
  2 17  1  0  0  0  0
  2 27  1  0  0  0  0
  3  4  1  0  0  0  0
  3 28  1  0  0  0  0
  4  5  2  0  0  0  0
  4  6  1  0  0  0  0
  6  7  1  0  0  0  0
  6 29  1  0  0  0  0
  6 30  1  0  0  0  0
  7 15  1  0  0  0  0
  7  8  1  0  0  0  0
  8  9  2  0  0  0  0
  8 31  1  0  0  0  0
  9 10  1  0  0  0  0
  9 13  1  0  0  0  0
 10 11  2  0  0  0  0
 10 12  1  0  0  0  0
 13 14  2  0  0  0  0
 13 32  1  0  0  0  0
 14 15  1  0  0  0  0
 14 33  1  0  0  0  0
 15 16  2  0  0  0  0
 17 22  1  0  0  0  0
 17 18  1  0  0  0  0
 17 34  1  0  0  0  0
 18 19  1  0  0  0  0
 18 35  1  0  0  0  0
 18 36  1  0  0  0  0
 19 23  1  0  0  0  0
 19 20  1  0  0  0  0
 19 37  1  0  0  0  0
 20 21  1  0  0  0  0
 20 38  1  0  0  0  0
 20 39  1  0  0  0  0
 21 22  1  0  0  0  0
 21 40  1  0  0  0  0
 21 41  1  0  0  0  0
 22 23  1  0  0  0  0
 22 42  1  0  0  0  0
 23 43  1  0  0  0  0
 23 44  1  0  0  0  0
M  CHG  1  10   1
M  CHG  1  12  -1
M  END
> <s_m_source_file>
AV-unprocessed.smi

> <i_m_source_file_index>
334

> <i_lp_mmshare_version>
43012

> <i_f3d_flags>
0

> <s_epik_input>
W0NIMl0xW0NIMl1bQ0BIXShbQ0gyXTIpW0NAQEhdKFtDSDJdW0NAQEhdMTIpW0NASF0oW0NIM10pW05IXUMoPU8pW0NIMl1uM1tjSF1jKFtOK10oPU8pW08tXSlbY0hdW2NIXWMzPU8=

> <s_epik_cmdline>
J2VwaWtfcHl0aG9uJywgJy1waCcsICc3LjAnLCAnLXRuJywgJzgnLCAnLW1hJywgJzIwMCcsICctbWV0YWxfYmluZGluZycsICctaW1hZScsICc8aW5maWxlLm1hZT4nLCAnLW9tYWUnLCAnPG91dGZpbGUubWFlPic=

> <r_lp_tautomer_probability>
1

> <r_epik_Ionization_Penalty>
2.17081e-08

> <r_epik_Ionization_Penalty_Charging>
8.1195e-11

> <r_epik_Ionization_Penalty_Neutral>
2.16269e-08

> <r_epik_State_Penalty>
-0

> <r_epik_Charging_Adjusted_Penalty>
8.1195e-11

> <i_epik_Tot_Q>
0

> <i_epik_Tot_abs_Q>
2

> <r_epik_Metal_State_Penalty>
-0

> <b_epik_Metal_Only>
0

> <s_lp_Force_Field>
OPLS_2005

> <r_lp_Energy>
62.5387

> <b_lp_Chiralities_Consistent>
1

> <s_lp_Variant>
AV-unprocessed.smi:334-7

> <Gold.Version>
5.8.1

> <Gold.Id.Protein>
6NUR|6NUR_protein|mol2

> <Gold.PLP.Fitness>
46.7163

> <Gold.PLP.PLP>
-38.6371

> <Gold.PLP.part.hbond>
-3.0000

> <Gold.PLP.part.metal>
0.0000

> <Gold.PLP.part.buried>
-1.4619

> <Gold.PLP.part.nonpolar>
-34.4332

> <Gold.PLP.part.repulsive>
0.3414

> <Gold.PLP.ligand.clash>
0.0000

> <Gold.PLP.ligand.torsion>
0.4939

> <Gold.PLP.Chemscore.Hbond>
2.0005

> <Gold.PLP.Chemscore.CHOScore>
1.0000

> <Gold.PLP.Chemscore.Metal>
0.0000

> <Gold.Chemscore.Hbonds>
donor molecule, donor type, donor heavy atom, donor atom, acceptor molecule, acceptor atom, score
      L1  H     3    28       P1  7948  0.05
      P1  H  7997  8009       L1    12  1.00
      P1  H 10752 10764       L1    11  0.94
      L1  C     8    31       P1  7948  1.00

> <Gold.PLP.Chemscore.Internal.Correction>
0.0657

> <Gold.Rescore>
     Score         DG    S(hbond)    S(metal)    S(lipo)     H(rot)  DE(clash)    DE(int)     intcor
     13.81     -16.55       1.97        0.00      76.70       1.75       0.00       2.75       ----

> <Gold.Chemscore.Fitness>
13.8063

> <Gold.Chemscore.DG>
-16.5539

> <Gold.Chemscore.ZeroCoef>
-5.4800

> <Gold.Chemscore.Hbond>
1.9682

> <Gold.Chemscore.Metal>
0.0000

> <Gold.Chemscore.Lipo>
76.6955

> <Gold.Chemscore.Internal_Hbond>
0.0000

> <Gold.Chemscore.DEClash>
0.0000

> <Gold.Chemscore.DEInternal>
2.7476

> <Gold.Chemscore.Rot>
1.7474

> <Gold.Chemscore.Internal.Correction>
   9.000000E+99

> <Gold.Chemscore.Hbonds>
donor molecule, donor type, donor heavy atom, donor atom, acceptor molecule, acceptor atom, score
      L1  H     3    28       P1  7948  0.05
      P1  H  7997  8009       L1    12  0.90
      P1  H 10752 10764       L1    11  0.90

> <Gold.Chemscore.Hbond.Weighted>
-6.5738

> <Gold.Chemscore.Metal.Weighted>
-0.0000

> <Gold.Chemscore.Lipo.Weighted>
-8.9734

> <Gold.Chemscore.Internal_Hbond.Weighted>
0.0000

> <Gold.Chemscore.DEClash.Weighted>
0.0000

> <Gold.Chemscore.DEInternal.Weighted>
2.7476

> <Gold.Chemscore.Rot.Weighted>
4.4733

> <Gold.Chemscore.Internal.Correction.Weighted>
   9.000000E+99

> <Gold.Protein.RotatedTorsions>
[ 6907 6896 6895 6894 ] final   97.19 input  -60.11 | X-H torsion
[ 7974 7965 7964 7962 ] final  -90.10 input  175.53 | X-H torsion
[ 8008 7997 7996 7995 ] final -161.20 input   59.86 | X-H torsion
[ 10167 10162 10161 10158 ] final  -79.60 input  -65.29 | X-H torsion
[ 10718 10713 10712 10709 ] final   47.61 input   66.30 | X-H torsion
[ 10763 10752 10751 10750 ] final  -81.36 input  -60.55 | X-H torsion
[ 11005 11000 10999 10996 ] final  -77.90 input  -57.11 | X-H torsion

> <Gold.Protein.ActiveResidues>
 VAL166  LYS551  ARG553  GLY616  TRP617  ASP618  TYR619  PRO620  LYS621  CYS622 
 ASP623  PHE694  ASN695  SER759  ASP760  ASP761  ALA762  ILE779  LEU786  VAL792 
 PHE793  MET794  SER795  GLU796  ALA797  LYS798  CYS799  TRP800  GLU811  SER814 

> <Gold.Protein.RotatedAtoms>
  152.5426  134.0771  159.8219 H   0  0  0  0  0  0  0  0  0  0  0  0  # atno 6907 bound_to 6896
  151.0878  133.5332  159.2624 H   0  0  0  0  0  0  0  0  0  0  0  0  # atno 6908 bound_to 6896
  151.2135  135.0499  159.8975 H   0  0  0  0  0  0  0  0  0  0  0  0  # atno 6909 bound_to 6896
  145.4309  140.9555  143.2128 H   0  0  0  0  0  0  0  0  0  0  0  0  # atno 7974 bound_to 7965
  155.7887  140.0875  157.2020 H   0  0  0  0  0  0  0  0  0  0  0  0  # atno 8008 bound_to 7997
  154.3986  140.1494  156.3195 H   0  0  0  0  0  0  0  0  0  0  0  0  # atno 8009 bound_to 7997
  155.8581  140.3431  155.5740 H   0  0  0  0  0  0  0  0  0  0  0  0  # atno 8010 bound_to 7997
  140.4579  143.2462  151.8392 H   0  0  0  0  0  0  0  0  0  0  0  0  # atno 10167 bound_to 10162
  157.4603  130.8192  149.7879 H   0  0  0  0  0  0  0  0  0  0  0  0  # atno 10718 bound_to 10713
  154.5625  135.5629  153.7021 H   0  0  0  0  0  0  0  0  0  0  0  0  # atno 10763 bound_to 10752
  153.0022  135.6277  154.2225 H   0  0  0  0  0  0  0  0  0  0  0  0  # atno 10764 bound_to 10752
  154.2163  135.2871  155.2920 H   0  0  0  0  0  0  0  0  0  0  0  0  # atno 10765 bound_to 10752
  141.1662  133.7041  156.7890 H   0  0  0  0  0  0  0  0  0  0  0  0  # atno 11005 bound_to 11000
  144.8183  139.5837  143.6998 LP  0  0  0  0  0  0  0  0  0  0  0  0  # atno 17320 bound_to 7965
  146.2607  139.6404  142.9364 LP  0  0  0  0  0  0  0  0  0  0  0  0  # atno 17321 bound_to 7965
  139.4803  144.5043  151.9019 LP  0  0  0  0  0  0  0  0  0  0  0  0  # atno 17342 bound_to 10162
  140.4129  144.2345  150.5888 LP  0  0  0  0  0  0  0  0  0  0  0  0  # atno 17343 bound_to 10162
  156.0025  130.3872  150.2551 LP  0  0  0  0  0  0  0  0  0  0  0  0  # atno 17370 bound_to 10713
  157.0728  131.0121  151.3184 LP  0  0  0  0  0  0  0  0  0  0  0  0  # atno 17371 bound_to 10713
  140.2339  134.8665  157.3505 LP  0  0  0  0  0  0  0  0  0  0  0  0  # atno 17394 bound_to 11000
  140.1863  134.4427  155.7742 LP  0  0  0  0  0  0  0  0  0  0  0  0  # atno 17395 bound_to 11000

$$$$
