AV-unprocessed.smi:61|AV-procd|sdf|598|dock2
  -GOLD-   2262016493D 1   1.00000     0.00000
 Structure written by MMmdl.
 28 29  0  0  0  0  0  0  0  0  1 V2000
  152.9091  138.9266  154.5376 N   0  0  0  0  0  0  0  0  0  0  0  0
  152.1428  139.7348  155.3414 C   0  0  0  0  0  0  0  0  0  0  0  0
  151.0532  140.2673  154.7873 N   0  0  0  0  0  0  0  0  0  0  0  0
  150.3016  141.0618  155.5788 C   0  0  0  0  0  0  0  0  0  0  0  0
  150.6483  141.3158  156.9213 C   0  0  0  0  0  0  0  0  0  0  0  0
  151.8267  140.6996  157.4057 C   0  0  0  0  0  0  0  0  0  0  0  0
  152.2437  140.8993  158.7386 N   0  0  0  0  0  0  0  0  0  0  0  0
  153.0220  139.8297  159.3551 C   0  0  0  0  0  0  0  0  0  0  0  0
  154.0897  140.5137  160.2166 C   0  0  0  0  0  0  0  0  0  0  0  0
  153.5027  141.8935  160.4975 C   0  0  0  0  0  0  0  0  0  0  0  0
  152.7374  142.1944  159.2040 C   0  0  2  0  0  0  0  0  0  0  0  0
  151.6449  143.2808  159.3251 C   0  0  0  0  0  0  0  0  0  0  0  0
  150.6844  142.9554  160.3092 O   0  0  0  0  0  0  0  0  0  0  0  0
  152.5676  139.9050  156.5947 N   0  0  0  0  0  0  0  0  0  0  0  0
  153.7468  138.4945  154.8992 H   0  0  0  0  0  0  0  0  0  0  0  0
  152.6136  138.7158  153.5957 H   0  0  0  0  0  0  0  0  0  0  0  0
  149.4182  141.4999  155.1383 H   0  0  0  0  0  0  0  0  0  0  0  0
  150.0396  141.9590  157.5395 H   0  0  0  0  0  0  0  0  0  0  0  0
  152.3550  139.2314  159.9766 H   0  0  0  0  0  0  0  0  0  0  0  0
  153.4828  139.1679  158.6205 H   0  0  0  0  0  0  0  0  0  0  0  0
  154.3230  139.9559  161.1238 H   0  0  0  0  0  0  0  0  0  0  0  0
  155.0111  140.6203  159.6422 H   0  0  0  0  0  0  0  0  0  0  0  0
  152.8286  141.8295  161.3523 H   0  0  0  0  0  0  0  0  0  0  0  0
  154.2631  142.6417  160.7228 H   0  0  0  0  0  0  0  0  0  0  0  0
  153.4684  142.5364  158.4696 H   0  0  0  0  0  0  0  0  0  0  0  0
  152.1048  144.2284  159.6064 H   0  0  0  0  0  0  0  0  0  0  0  0
  151.1364  143.4530  158.3774 H   0  0  0  0  0  0  0  0  0  0  0  0
  149.9982  142.4487  159.9025 H   0  0  0  0  0  0  0  0  0  0  0  0
  1  2  1  0  0  0  0
  1 15  1  0  0  0  0
  1 16  1  0  0  0  0
  2 14  1  0  0  0  0
  2  3  2  0  0  0  0
  3  4  1  0  0  0  0
  4  5  2  0  0  0  0
  4 17  1  0  0  0  0
  5  6  1  0  0  0  0
  5 18  1  0  0  0  0
  6  7  1  0  0  0  0
  6 14  2  0  0  0  0
  7 11  1  0  0  0  0
  7  8  1  0  0  0  0
  8  9  1  0  0  0  0
  8 19  1  0  0  0  0
  8 20  1  0  0  0  0
  9 10  1  0  0  0  0
  9 21  1  0  0  0  0
  9 22  1  0  0  0  0
 10 11  1  0  0  0  0
 10 23  1  0  0  0  0
 10 24  1  0  0  0  0
 11 12  1  0  0  0  0
 11 25  1  0  0  0  0
 12 13  1  0  0  0  0
 12 26  1  0  0  0  0
 12 27  1  0  0  0  0
 13 28  1  0  0  0  0
M  END
> <s_m_source_file>
AV-unprocessed.smi

> <i_m_source_file_index>
61

> <i_lp_mmshare_version>
43012

> <i_f3d_flags>
0

> <s_epik_input>
W05IMl1jMW5bY0hdW2NIXWMobjEpTjJbQ0gyXVtDSDJdW0NIMl1bQ0BIXTJbQ0gyXVtPSF0=

> <s_epik_cmdline>
J2VwaWtfcHl0aG9uJywgJy1waCcsICc3LjAnLCAnLXRuJywgJzgnLCAnLW1hJywgJzIwMCcsICctbWV0YWxfYmluZGluZycsICctaW1hZScsICc8aW5maWxlLm1hZT4nLCAnLW9tYWUnLCAnPG91dGZpbGUubWFlPic=

> <r_lp_tautomer_probability>
1

> <r_epik_Ionization_Penalty>
0.76024

> <r_epik_Ionization_Penalty_Charging>
0

> <r_epik_Ionization_Penalty_Neutral>
0.76024

> <r_epik_State_Penalty>
0.587668

> <r_epik_Charging_Adjusted_Penalty>
0.587668

> <i_epik_Tot_Q>
0

> <i_epik_Tot_abs_Q>
0

> <r_epik_Metal_State_Penalty>
0.307814

> <b_epik_Metal_Only>
0

> <s_lp_Force_Field>
OPLS_2005

> <r_lp_Energy>
26.7573

> <b_lp_Chiralities_Consistent>
1

> <s_lp_Variant>
AV-unprocessed.smi:61-4

> <Gold.Version>
5.8.1

> <Gold.Id.Protein>
6NUR|6NUR_protein|mol2

> <Gold.PLP.Fitness>
36.4356

> <Gold.PLP.PLP>
-30.9942

> <Gold.PLP.part.hbond>
-2.9784

> <Gold.PLP.part.metal>
0.0000

> <Gold.PLP.part.buried>
-4.0573

> <Gold.PLP.part.nonpolar>
-23.4206

> <Gold.PLP.part.repulsive>
0.2881

> <Gold.PLP.ligand.clash>
0.0000

> <Gold.PLP.ligand.torsion>
0.4520

> <Gold.PLP.Chemscore.Hbond>
2.0000

> <Gold.PLP.Chemscore.CHOScore>
0.0000

> <Gold.PLP.Chemscore.Metal>
0.0000

> <Gold.Chemscore.Hbonds>
donor molecule, donor type, donor heavy atom, donor atom, acceptor molecule, acceptor atom, score
      P1  H  7989  7998       L1     3  1.00
      P1  H  7997  8009       L1    14  1.00

> <Gold.PLP.Chemscore.Internal.Correction>
0.3454

> <Gold.Rescore>
     Score         DG    S(hbond)    S(metal)    S(lipo)     H(rot)  DE(clash)    DE(int)     intcor
     10.86     -11.45       1.25        0.00      58.23       1.96       0.01       0.59       ----

> <Gold.Chemscore.Fitness>
10.8567

> <Gold.Chemscore.DG>
-11.4543

> <Gold.Chemscore.ZeroCoef>
-5.4800

> <Gold.Chemscore.Hbond>
1.2482

> <Gold.Chemscore.Metal>
0.0000

> <Gold.Chemscore.Lipo>
58.2291

> <Gold.Chemscore.Internal_Hbond>
0.0000

> <Gold.Chemscore.DEClash>
0.0106

> <Gold.Chemscore.DEInternal>
0.5870

> <Gold.Chemscore.Rot>
1.9561

> <Gold.Chemscore.Internal.Correction>
   9.000000E+99

> <Gold.Chemscore.Hbonds>
donor molecule, donor type, donor heavy atom, donor atom, acceptor molecule, acceptor atom, score
      P1  H  7989  7998       L1     3  0.27
      P1  H  7997  8009       L1    14  0.34

> <Gold.Chemscore.Hbond.Weighted>
-4.1691

> <Gold.Chemscore.Metal.Weighted>
-0.0000

> <Gold.Chemscore.Lipo.Weighted>
-6.8128

> <Gold.Chemscore.Internal_Hbond.Weighted>
0.0000

> <Gold.Chemscore.DEClash.Weighted>
0.0106

> <Gold.Chemscore.DEInternal.Weighted>
0.5870

> <Gold.Chemscore.Rot.Weighted>
5.0077

> <Gold.Chemscore.Internal.Correction.Weighted>
   9.000000E+99

> <Gold.Protein.RotatedTorsions>
[ 6907 6896 6895 6894 ] final -139.71 input  -60.11 | X-H torsion
[ 7974 7965 7964 7962 ] final   80.78 input  175.53 | X-H torsion
[ 8008 7997 7996 7995 ] final -163.85 input   59.86 | X-H torsion
[ 10167 10162 10161 10158 ] final -165.60 input  -65.29 | X-H torsion
[ 10718 10713 10712 10709 ] final    7.49 input   66.30 | X-H torsion
[ 10763 10752 10751 10750 ] final -143.89 input  -60.55 | X-H torsion
[ 11005 11000 10999 10996 ] final -130.81 input  -57.11 | X-H torsion

> <Gold.Protein.ActiveResidues>
 VAL166  LYS551  ARG553  GLY616  TRP617  ASP618  TYR619  PRO620  LYS621  CYS622 
 ASP623  PHE694  ASN695  SER759  ASP760  ASP761  ALA762  ILE779  LEU786  VAL792 
 PHE793  MET794  SER795  GLU796  ALA797  LYS798  CYS799  TRP800  GLU811  SER814 

> <Gold.Protein.RotatedAtoms>
  151.0513  133.5622  159.2641 H   0  0  0  0  0  0  0  0  0  0  0  0  # atno 6907 bound_to 6896
  151.2632  135.0660  159.9116 H   0  0  0  0  0  0  0  0  0  0  0  0  # atno 6908 bound_to 6896
  152.5382  134.0255  159.8055 H   0  0  0  0  0  0  0  0  0  0  0  0  # atno 6909 bound_to 6896
  145.6467  139.2438  143.2000 H   0  0  0  0  0  0  0  0  0  0  0  0  # atno 7974 bound_to 7965
  155.8272  140.0928  157.1814 H   0  0  0  0  0  0  0  0  0  0  0  0  # atno 8008 bound_to 7997
  154.3979  140.1425  156.3631 H   0  0  0  0  0  0  0  0  0  0  0  0  # atno 8009 bound_to 7997
  155.8204  140.3446  155.5513 H   0  0  0  0  0  0  0  0  0  0  0  0  # atno 8010 bound_to 7997
  139.6171  144.0698  152.1898 H   0  0  0  0  0  0  0  0  0  0  0  0  # atno 10167 bound_to 10162
  156.9377  130.5849  149.5651 H   0  0  0  0  0  0  0  0  0  0  0  0  # atno 10718 bound_to 10713
  154.8451  135.3455  154.6259 H   0  0  0  0  0  0  0  0  0  0  0  0  # atno 10763 bound_to 10752
  153.6868  135.6977  153.5106 H   0  0  0  0  0  0  0  0  0  0  0  0  # atno 10764 bound_to 10752
  153.2626  135.4318  155.0864 H   0  0  0  0  0  0  0  0  0  0  0  0  # atno 10765 bound_to 10752
  140.9313  134.1315  157.4232 H   0  0  0  0  0  0  0  0  0  0  0  0  # atno 11005 bound_to 11000
  146.1237  140.7276  142.9445 LP  0  0  0  0  0  0  0  0  0  0  0  0  # atno 17320 bound_to 7965
  144.7137  140.4134  143.7060 LP  0  0  0  0  0  0  0  0  0  0  0  0  # atno 17321 bound_to 7965
  140.0331  144.6066  150.7472 LP  0  0  0  0  0  0  0  0  0  0  0  0  # atno 17342 bound_to 10162
  140.7358  143.2745  151.3784 LP  0  0  0  0  0  0  0  0  0  0  0  0  # atno 17343 bound_to 10162
  156.0418  130.5500  150.8789 LP  0  0  0  0  0  0  0  0  0  0  0  0  # atno 17370 bound_to 10713
  157.5806  131.0946  150.9277 LP  0  0  0  0  0  0  0  0  0  0  0  0  # atno 17371 bound_to 10713
  139.8797  135.0006  156.6020 LP  0  0  0  0  0  0  0  0  0  0  0  0  # atno 17394 bound_to 11000
  140.7858  133.8623  155.8605 LP  0  0  0  0  0  0  0  0  0  0  0  0  # atno 17395 bound_to 11000

$$$$
