AV-unprocessed.smi:1675|AV-procd|sdf|6717|dock6
  -GOLD-   22720 7463D 1   1.00000     0.00000
 Structure written by MMmdl.
 40 42  0  0  0  0  0  0  0  0  1 V2000
  154.8455  144.0852  169.3548 N   0  0  0  0  0  0  0  0  0  0  0  0
  155.5398  143.7560  168.2626 C   0  0  0  0  0  0  0  0  0  0  0  0
  156.3364  142.8195  168.2519 O   0  0  0  0  0  0  0  0  0  0  0  0
  155.3058  144.6001  167.0059 C   0  0  0  0  0  0  0  0  0  0  0  0
  154.9383  143.7739  165.8688 N   0  0  0  0  0  0  0  0  0  0  0  0
  154.1443  144.1123  164.7900 C   0  0  0  0  0  0  0  0  0  0  0  0
  154.0935  142.9964  164.0034 C   0  0  0  0  0  0  0  0  0  0  0  0
  153.4038  142.7865  162.7827 N   0  0  0  0  0  0  0  0  0  0  0  0
  153.6980  141.8976  161.8176 C   0  0  0  0  0  0  0  0  0  0  0  0
  154.6370  141.1036  161.8695 O   0  0  0  0  0  0  0  0  0  0  0  0
  152.7808  141.9178  160.5895 C   0  0  0  0  0  0  0  0  0  0  0  0
  152.8706  143.2321  159.7817 C   0  0  2  0  0  0  0  0  0  0  0  0
  152.2034  144.4684  160.4277 C   0  0  0  0  0  0  0  0  0  0  0  0
  151.3235  145.0194  159.2897 C   0  0  2  0  0  0  0  0  0  0  0  0
  150.1000  144.1021  159.1132 C   0  0  0  0  0  0  0  0  0  0  0  0
  150.7115  142.8460  158.4661 C   0  0  0  0  0  0  0  0  0  0  0  0
  152.2116  143.1979  158.3827 C   0  0  1  0  0  0  0  0  0  0  0  0
  152.1481  144.6857  158.0512 C   0  0  0  0  0  0  0  0  0  0  0  0
  154.8772  142.0180  164.6682 C   0  0  0  0  0  0  0  0  0  0  0  0
  155.3902  142.4968  165.7910 N   0  0  0  0  0  0  0  0  0  0  0  0
  154.9719  143.5554  170.2050 H   0  0  0  0  0  0  0  0  0  0  0  0
  154.1998  144.8610  169.3302 H   0  0  0  0  0  0  0  0  0  0  0  0
  154.5122  145.3300  167.1734 H   0  0  0  0  0  0  0  0  0  0  0  0
  156.2130  145.1596  166.7724 H   0  0  0  0  0  0  0  0  0  0  0  0
  153.6966  145.0902  164.6922 H   0  0  0  0  0  0  0  0  0  0  0  0
  152.5921  143.3674  162.6301 H   0  0  0  0  0  0  0  0  0  0  0  0
  153.0311  141.0786  159.9386 H   0  0  0  0  0  0  0  0  0  0  0  0
  151.7608  141.7461  160.9337 H   0  0  0  0  0  0  0  0  0  0  0  0
  153.9281  143.4586  159.6318 H   0  0  0  0  0  0  0  0  0  0  0  0
  151.6114  144.2231  161.3104 H   0  0  0  0  0  0  0  0  0  0  0  0
  152.9578  145.1964  160.7280 H   0  0  0  0  0  0  0  0  0  0  0  0
  151.0672  146.0730  159.4051 H   0  0  0  0  0  0  0  0  0  0  0  0
  149.6055  143.8841  160.0606 H   0  0  0  0  0  0  0  0  0  0  0  0
  149.3644  144.5562  158.4484 H   0  0  0  0  0  0  0  0  0  0  0  0
  150.5093  141.9381  159.0334 H   0  0  0  0  0  0  0  0  0  0  0  0
  150.2995  142.7003  157.4669 H   0  0  0  0  0  0  0  0  0  0  0  0
  152.7603  142.5952  157.6583 H   0  0  0  0  0  0  0  0  0  0  0  0
  151.6295  144.9004  157.1152 H   0  0  0  0  0  0  0  0  0  0  0  0
  153.1252  145.1724  158.0377 H   0  0  0  0  0  0  0  0  0  0  0  0
  155.0878  140.9987  164.3795 H   0  0  0  0  0  0  0  0  0  0  0  0
  1  2  1  0  0  0  0
  1 21  1  0  0  0  0
  1 22  1  0  0  0  0
  2  3  2  0  0  0  0
  2  4  1  0  0  0  0
  4  5  1  0  0  0  0
  4 23  1  0  0  0  0
  4 24  1  0  0  0  0
  5 20  1  0  0  0  0
  5  6  1  0  0  0  0
  6  7  2  0  0  0  0
  6 25  1  0  0  0  0
  7  8  1  0  0  0  0
  7 19  1  0  0  0  0
  8  9  1  0  0  0  0
  8 26  1  0  0  0  0
  9 10  2  0  0  0  0
  9 11  1  0  0  0  0
 11 12  1  0  0  0  0
 11 27  1  0  0  0  0
 11 28  1  0  0  0  0
 12 17  1  0  0  0  0
 12 13  1  0  0  0  0
 12 29  1  0  0  0  0
 13 14  1  0  0  0  0
 13 30  1  0  0  0  0
 13 31  1  0  0  0  0
 14 18  1  0  0  0  0
 14 15  1  0  0  0  0
 14 32  1  0  0  0  0
 15 16  1  0  0  0  0
 15 33  1  0  0  0  0
 15 34  1  0  0  0  0
 16 17  1  0  0  0  0
 16 35  1  0  0  0  0
 16 36  1  0  0  0  0
 17 18  1  0  0  0  0
 17 37  1  0  0  0  0
 18 38  1  0  0  0  0
 18 39  1  0  0  0  0
 19 20  2  0  0  0  0
 19 40  1  0  0  0  0
M  END
> <s_m_source_file>
AV-unprocessed.smi

> <i_m_source_file_index>
1675

> <i_lp_mmshare_version>
43012

> <i_f3d_flags>
0

> <s_epik_input>
W05IMl1DKD1PKVtDSDJdbjFbY0hdYyhbY0hdbjEpW05IXUMoPU8pW0NIMl1bQ0BIXShbQ0gyXVtDQEBIXTIzKVtDQEBIXShbQ0gyXTMpW0NIMl1bQ0gyXTI=

> <s_epik_cmdline>
J2VwaWtfcHl0aG9uJywgJy1waCcsICc3LjAnLCAnLXRuJywgJzgnLCAnLW1hJywgJzIwMCcsICctbWV0YWxfYmluZGluZycsICctaW1hZScsICc8aW5maWxlLm1hZT4nLCAnLW9tYWUnLCAnPG91dGZpbGUubWFlPic=

> <r_lp_tautomer_probability>
1

> <r_epik_Ionization_Penalty>
2.17494e-05

> <r_epik_Ionization_Penalty_Charging>
0

> <r_epik_Ionization_Penalty_Neutral>
2.17494e-05

> <r_epik_State_Penalty>
-0

> <r_epik_Charging_Adjusted_Penalty>
0

> <i_epik_Tot_Q>
0

> <i_epik_Tot_abs_Q>
0

> <r_epik_Metal_State_Penalty>
-0

> <b_epik_Metal_Only>
0

> <s_lp_Force_Field>
OPLS_2005

> <r_lp_Energy>
53.8438

> <b_lp_Chiralities_Consistent>
1

> <s_lp_Variant>
AV-unprocessed.smi:1675-3

> <Gold.Version>
5.8.1

> <Gold.Id.Protein>
6NUR|6NUR_protein|mol2

> <Gold.PLP.Fitness>
51.8078

> <Gold.PLP.PLP>
-53.0974

> <Gold.PLP.part.hbond>
-2.3803

> <Gold.PLP.part.metal>
0.0000

> <Gold.PLP.part.buried>
-6.2113

> <Gold.PLP.part.nonpolar>
-43.4842

> <Gold.PLP.part.repulsive>
0.1408

> <Gold.PLP.ligand.clash>
0.0000

> <Gold.PLP.ligand.torsion>
0.6487

> <Gold.PLP.Chemscore.Hbond>
0.0000

> <Gold.PLP.Chemscore.CHOScore>
0.0000

> <Gold.PLP.Chemscore.Metal>
0.0000

> <Gold.PLP.Chemscore.Internal.Correction>
0.0077

> <Gold.Rescore>
     Score         DG    S(hbond)    S(metal)    S(lipo)     H(rot)  DE(clash)    DE(int)     intcor
     11.65     -14.95       0.00        0.00     127.93       2.15       0.27       3.02       ----

> <Gold.Chemscore.Fitness>
11.6529

> <Gold.Chemscore.DG>
-14.9473

> <Gold.Chemscore.ZeroCoef>
-5.4800

> <Gold.Chemscore.Hbond>
0.0000

> <Gold.Chemscore.Metal>
0.0000

> <Gold.Chemscore.Lipo>
127.9290

> <Gold.Chemscore.Internal_Hbond>
0.0000

> <Gold.Chemscore.DEClash>
0.2700

> <Gold.Chemscore.DEInternal>
3.0245

> <Gold.Chemscore.Rot>
2.1486

> <Gold.Chemscore.Internal.Correction>
   9.000000E+99

> <Gold.Chemscore.Hbond.Weighted>
-0.0000

> <Gold.Chemscore.Metal.Weighted>
-0.0000

> <Gold.Chemscore.Lipo.Weighted>
-14.9677

> <Gold.Chemscore.Internal_Hbond.Weighted>
0.0000

> <Gold.Chemscore.DEClash.Weighted>
0.2700

> <Gold.Chemscore.DEInternal.Weighted>
3.0245

> <Gold.Chemscore.Rot.Weighted>
5.5004

> <Gold.Chemscore.Internal.Correction.Weighted>
   9.000000E+99

> <Gold.Protein.RotatedTorsions>
[ 6907 6896 6895 6894 ] final  122.21 input  -60.11 | X-H torsion
[ 7974 7965 7964 7962 ] final    5.63 input  175.53 | X-H torsion
[ 8008 7997 7996 7995 ] final  -41.48 input   59.86 | X-H torsion
[ 10167 10162 10161 10158 ] final -161.76 input  -65.29 | X-H torsion
[ 10718 10713 10712 10709 ] final    0.37 input   66.30 | X-H torsion
[ 10763 10752 10751 10750 ] final   59.75 input  -60.55 | X-H torsion
[ 11005 11000 10999 10996 ] final  -62.13 input  -57.11 | X-H torsion

> <Gold.Protein.ActiveResidues>
 VAL166  LYS551  ARG553  GLY616  TRP617  ASP618  TYR619  PRO620  LYS621  CYS622 
 ASP623  PHE694  ASN695  SER759  ASP760  ASP761  ALA762  ILE779  LEU786  VAL792 
 PHE793  MET794  SER795  GLU796  ALA797  LYS798  CYS799  TRP800  GLU811  SER814 

> <Gold.Protein.RotatedAtoms>
  152.4261  133.7197  159.6526 H   0  0  0  0  0  0  0  0  0  0  0  0  # atno 6907 bound_to 6896
  150.8138  133.8364  159.3176 H   0  0  0  0  0  0  0  0  0  0  0  0  # atno 6908 bound_to 6896
  151.6066  135.1045  160.0123 H   0  0  0  0  0  0  0  0  0  0  0  0  # atno 6909 bound_to 6896
  146.2439  140.0354  142.8386 H   0  0  0  0  0  0  0  0  0  0  0  0  # atno 7974 bound_to 7965
  154.4004  140.1498  156.3198 H   0  0  0  0  0  0  0  0  0  0  0  0  # atno 8008 bound_to 7997
  155.8539  140.3456  155.5690 H   0  0  0  0  0  0  0  0  0  0  0  0  # atno 8009 bound_to 7997
  155.7954  140.0862  157.1977 H   0  0  0  0  0  0  0  0  0  0  0  0  # atno 8010 bound_to 7997
  139.6441  144.0204  152.2114 H   0  0  0  0  0  0  0  0  0  0  0  0  # atno 10167 bound_to 10162
  156.8324  130.5493  149.5685 H   0  0  0  0  0  0  0  0  0  0  0  0  # atno 10718 bound_to 10713
  152.9903  135.5560  154.5764 H   0  0  0  0  0  0  0  0  0  0  0  0  # atno 10763 bound_to 10752
  154.5154  135.2804  155.1310 H   0  0  0  0  0  0  0  0  0  0  0  0  # atno 10764 bound_to 10752
  154.2684  135.6367  153.5354 H   0  0  0  0  0  0  0  0  0  0  0  0  # atno 10765 bound_to 10752
  141.1349  133.6637  156.5480 H   0  0  0  0  0  0  0  0  0  0  0  0  # atno 11005 bound_to 11000
  145.1117  140.9409  143.4652 LP  0  0  0  0  0  0  0  0  0  0  0  0  # atno 17320 bound_to 7965
  145.0569  139.3136  143.5900 LP  0  0  0  0  0  0  0  0  0  0  0  0  # atno 17321 bound_to 7965
  139.9902  144.6367  150.7821 LP  0  0  0  0  0  0  0  0  0  0  0  0  # atno 17342 bound_to 10162
  140.7506  143.2958  151.3210 LP  0  0  0  0  0  0  0  0  0  0  0  0  # atno 17343 bound_to 10162
  156.0926  130.5908  150.9759 LP  0  0  0  0  0  0  0  0  0  0  0  0  # atno 17370 bound_to 10713
  157.6399  131.0911  150.8272 LP  0  0  0  0  0  0  0  0  0  0  0  0  # atno 17371 bound_to 10713
  140.4086  134.7292  157.4822 LP  0  0  0  0  0  0  0  0  0  0  0  0  # atno 17394 bound_to 11000
  140.0444  134.6221  155.8940 LP  0  0  0  0  0  0  0  0  0  0  0  0  # atno 17395 bound_to 11000

$$$$
