AV-unprocessed.smi:1933|AV-procd|sdf|7822|dock2
  -GOLD-   22720 9563D 1   1.00000     0.00000
 Structure written by MMmdl.
 48 50  0  0  0  0  0  0  0  0  2 V2000
  144.5557  136.8119  152.0393 O   0  0  0  0  0  0  0  0  0  0  0  0
  145.7584  136.5722  151.9311 C   0  0  0  0  0  0  0  0  0  0  0  0
  146.7201  137.4424  152.2721 N   0  0  0  0  0  0  0  0  0  0  0  0
  146.4982  138.7830  152.8054 C   0  0  0  0  0  0  0  0  0  0  0  0
  147.8033  139.4449  153.3246 C   0  0  1  0  0  0  0  0  0  0  0  0
  147.5620  140.5942  154.3450 C   0  0  1  0  0  0  0  0  0  0  0  0
  146.8689  141.8140  153.7566 C   0  0  0  0  0  0  0  0  0  0  0  0
  146.3621  142.5269  155.0023 C   0  0  0  0  0  0  0  0  0  0  0  0
  145.9611  141.4810  155.8745 O   0  0  0  0  0  0  0  0  0  0  0  0
  146.6155  140.2687  155.5112 C   0  0  0  0  0  0  0  0  0  0  0  0
  148.7418  138.4388  153.9085 N   0  3  0  0  0  0  0  0  0  0  0  0
  150.1149  138.9193  154.2096 C   0  0  0  0  0  0  0  0  0  0  0  0
  151.0042  137.7358  154.6248 C   0  0  0  0  0  0  0  0  0  0  0  0
  150.4279  137.0798  155.7482 O   0  0  0  0  0  0  0  0  0  0  0  0
  149.1407  136.5479  155.4568 C   0  0  0  0  0  0  0  0  0  0  0  0
  148.1856  137.6866  155.0595 C   0  0  0  0  0  0  0  0  0  0  0  0
  146.2842  135.4275  151.4607 N   0  0  0  0  0  0  0  0  0  0  0  0
  145.5984  134.2803  150.9794 C   0  0  0  0  0  0  0  0  0  0  0  0
  146.4302  133.2224  150.5475 C   0  0  0  0  0  0  0  0  0  0  0  0
  145.8468  132.0399  150.0528 C   0  0  0  0  0  0  0  0  0  0  0  0
  144.4446  131.9453  150.0022 C   0  0  0  0  0  0  0  0  0  0  0  0
  143.6897  133.0449  150.4501 C   0  0  0  0  0  0  0  0  0  0  0  0
  144.2468  134.1790  150.9247 N   0  0  0  0  0  0  0  0  0  0  0  0
  147.6804  137.1549  152.1521 H   0  0  0  0  0  0  0  0  0  0  0  0
  146.0406  139.4200  152.0472 H   0  0  0  0  0  0  0  0  0  0  0  0
  145.7690  138.6865  153.6092 H   0  0  0  0  0  0  0  0  0  0  0  0
  148.3157  139.8884  152.4692 H   0  0  0  0  0  0  0  0  0  0  0  0
  148.5148  140.9172  154.7667 H   0  0  0  0  0  0  0  0  0  0  0  0
  147.5328  142.4420  153.1616 H   0  0  0  0  0  0  0  0  0  0  0  0
  146.0274  141.5137  153.1302 H   0  0  0  0  0  0  0  0  0  0  0  0
  147.1673  143.0916  155.4741 H   0  0  0  0  0  0  0  0  0  0  0  0
  145.5404  143.2119  154.7922 H   0  0  0  0  0  0  0  0  0  0  0  0
  145.8505  139.5515  155.2114 H   0  0  0  0  0  0  0  0  0  0  0  0
  147.1484  139.8558  156.3675 H   0  0  0  0  0  0  0  0  0  0  0  0
  150.5480  139.4128  153.3401 H   0  0  0  0  0  0  0  0  0  0  0  0
  150.0930  139.6493  155.0194 H   0  0  0  0  0  0  0  0  0  0  0  0
  151.1287  137.0322  153.7999 H   0  0  0  0  0  0  0  0  0  0  0  0
  151.9993  138.0901  154.8945 H   0  0  0  0  0  0  0  0  0  0  0  0
  149.2132  135.8048  154.6609 H   0  0  0  0  0  0  0  0  0  0  0  0
  148.7631  136.0323  156.3400 H   0  0  0  0  0  0  0  0  0  0  0  0
  148.0354  138.3543  155.9083 H   0  0  0  0  0  0  0  0  0  0  0  0
  147.2115  137.2700  154.8008 H   0  0  0  0  0  0  0  0  0  0  0  0
  147.2915  135.3698  151.4389 H   0  0  0  0  0  0  0  0  0  0  0  0
  147.5059  133.3110  150.5931 H   0  0  0  0  0  0  0  0  0  0  0  0
  146.4650  131.2201  149.7185 H   0  0  0  0  0  0  0  0  0  0  0  0
  143.9605  131.0546  149.6299 H   0  0  0  0  0  0  0  0  0  0  0  0
  142.6105  133.0138  150.4270 H   0  0  0  0  0  0  0  0  0  0  0  0
  148.8531  137.7469  153.1810 H   0  0  0  0  0  0  0  0  0  0  0  0
  1  2  2  0  0  0  0
  2  3  1  0  0  0  0
  2 17  1  0  0  0  0
  3  4  1  0  0  0  0
  3 24  1  0  0  0  0
  4  5  1  0  0  0  0
  4 25  1  0  0  0  0
  4 26  1  0  0  0  0
  5  6  1  0  0  0  0
  5 11  1  0  0  0  0
  5 27  1  0  0  0  0
  6 10  1  0  0  0  0
  6  7  1  0  0  0  0
  6 28  1  0  0  0  0
  7  8  1  0  0  0  0
  7 29  1  0  0  0  0
  7 30  1  0  0  0  0
  8  9  1  0  0  0  0
  8 31  1  0  0  0  0
  8 32  1  0  0  0  0
  9 10  1  0  0  0  0
 10 33  1  0  0  0  0
 10 34  1  0  0  0  0
 11 16  1  0  0  0  0
 11 12  1  0  0  0  0
 11 48  1  0  0  0  0
 12 13  1  0  0  0  0
 12 35  1  0  0  0  0
 12 36  1  0  0  0  0
 13 14  1  0  0  0  0
 13 37  1  0  0  0  0
 13 38  1  0  0  0  0
 14 15  1  0  0  0  0
 15 16  1  0  0  0  0
 15 39  1  0  0  0  0
 15 40  1  0  0  0  0
 16 41  1  0  0  0  0
 16 42  1  0  0  0  0
 17 18  1  0  0  0  0
 17 43  1  0  0  0  0
 18 23  1  0  0  0  0
 18 19  2  0  0  0  0
 19 20  1  0  0  0  0
 19 44  1  0  0  0  0
 20 21  2  0  0  0  0
 20 45  1  0  0  0  0
 21 22  1  0  0  0  0
 21 46  1  0  0  0  0
 22 23  2  0  0  0  0
 22 47  1  0  0  0  0
M  CHG  1  11   1
M  END
> <s_m_source_file>
AV-unprocessed.smi

> <i_m_source_file_index>
1933

> <i_lp_mmshare_version>
43012

> <i_f3d_flags>
0

> <s_epik_input>
bjFbY0hdW2NIXVtjSF1bY0hdYzFbTkhdQyg9TylbTkhdW0NIMl1bQ0BIXShbQ0BASF0yW0NIMl1bQ0gyXU9bQ0gyXTIpTjNbQ0gyXVtDSDJdT1tDSDJdW0NIMl0z

> <s_epik_cmdline>
J2VwaWtfcHl0aG9uJywgJy1waCcsICc3LjAnLCAnLXRuJywgJzgnLCAnLW1hJywgJzIwMCcsICctbWV0YWxfYmluZGluZycsICctaW1hZScsICc8aW5maWxlLm1hZT4nLCAnLW9tYWUnLCAnPG91dGZpbGUubWFlPic=

> <r_epik_Ionization_Penalty>
0.983294

> <r_epik_Ionization_Penalty_Charging>
0.98326

> <r_epik_Ionization_Penalty_Neutral>
3.39688e-05

> <r_epik_State_Penalty>
1.0303

> <r_epik_Charging_Adjusted_Penalty>
2.01356

> <i_epik_Tot_Q>
1

> <i_epik_Tot_abs_Q>
1

> <r_epik_Metal_State_Penalty>
1.0303

> <b_epik_Metal_Only>
0

> <s_lp_Force_Field>
OPLS_2005

> <r_lp_Energy>
40.1163

> <b_lp_Chiralities_Consistent>
1

> <s_lp_Variant>
AV-unprocessed.smi:1933-8

> <Gold.Version>
5.8.1

> <Gold.Id.Protein>
6NUR|6NUR_protein|mol2

> <Gold.PLP.Fitness>
51.7551

> <Gold.PLP.PLP>
-37.3576

> <Gold.PLP.part.hbond>
-3.4360

> <Gold.PLP.part.metal>
0.0000

> <Gold.PLP.part.buried>
-3.3432

> <Gold.PLP.part.nonpolar>
-32.2627

> <Gold.PLP.part.repulsive>
1.2986

> <Gold.PLP.ligand.clash>
0.0000

> <Gold.PLP.ligand.torsion>
0.4916

> <Gold.PLP.Chemscore.Hbond>
3.9600

> <Gold.PLP.Chemscore.CHOScore>
1.0000

> <Gold.PLP.Chemscore.Metal>
0.0000

> <Gold.Chemscore.Hbonds>
donor molecule, donor type, donor heavy atom, donor atom, acceptor molecule, acceptor atom, score
      L1  H     3    24       P1  7948  1.00
      L1  H    11    48       P1  7948  2.00
      L1  H    17    43       P1  7948  0.96
      L1  C    22    47       P1 10186  1.00

> <Gold.PLP.Chemscore.Internal.Correction>
0.5008

> <Gold.Rescore>
     Score         DG    S(hbond)    S(metal)    S(lipo)     H(rot)  DE(clash)    DE(int)     intcor
     18.68     -21.20       2.84        0.00      92.09       1.77       0.55       1.97       ----

> <Gold.Chemscore.Fitness>
18.6771

> <Gold.Chemscore.DG>
-21.2018

> <Gold.Chemscore.ZeroCoef>
-5.4800

> <Gold.Chemscore.Hbond>
2.8358

> <Gold.Chemscore.Metal>
0.0000

> <Gold.Chemscore.Lipo>
92.0858

> <Gold.Chemscore.Internal_Hbond>
0.0000

> <Gold.Chemscore.DEClash>
0.5512

> <Gold.Chemscore.DEInternal>
1.9735

> <Gold.Chemscore.Rot>
1.7671

> <Gold.Chemscore.Internal.Correction>
   9.000000E+99

> <Gold.Chemscore.Hbonds>
donor molecule, donor type, donor heavy atom, donor atom, acceptor molecule, acceptor atom, score
      L1  H     3    24       P1  7948  0.98
      L1  H    11    48       P1  7948  0.97
      L1  H    17    43       P1  7948  0.84

> <Gold.Chemscore.Hbond.Weighted>
-9.4716

> <Gold.Chemscore.Metal.Weighted>
-0.0000

> <Gold.Chemscore.Lipo.Weighted>
-10.7740

> <Gold.Chemscore.Internal_Hbond.Weighted>
0.0000

> <Gold.Chemscore.DEClash.Weighted>
0.5512

> <Gold.Chemscore.DEInternal.Weighted>
1.9735

> <Gold.Chemscore.Rot.Weighted>
4.5238

> <Gold.Chemscore.Internal.Correction.Weighted>
   9.000000E+99

> <Gold.Protein.RotatedTorsions>
[ 6907 6896 6895 6894 ] final  122.70 input  -60.11 | X-H torsion
[ 7974 7965 7964 7962 ] final  133.09 input  175.53 | X-H torsion
[ 8008 7997 7996 7995 ] final  112.60 input   59.86 | X-H torsion
[ 10167 10162 10161 10158 ] final -173.63 input  -65.29 | X-H torsion
[ 10718 10713 10712 10709 ] final  -74.76 input   66.30 | X-H torsion
[ 10763 10752 10751 10750 ] final   65.55 input  -60.55 | X-H torsion
[ 11005 11000 10999 10996 ] final -119.72 input  -57.11 | X-H torsion

> <Gold.Protein.ActiveResidues>
 VAL166  LYS551  ARG553  GLY616  TRP617  ASP618  TYR619  PRO620  LYS621  CYS622 
 ASP623  PHE694  ASN695  SER759  ASP760  ASP761  ALA762  ILE779  LEU786  VAL792 
 PHE793  MET794  SER795  GLU796  ALA797  LYS798  CYS799  TRP800  GLU811  SER814 

> <Gold.Protein.RotatedAtoms>
  152.4222  133.7135  159.6492 H   0  0  0  0  0  0  0  0  0  0  0  0  # atno 6907 bound_to 6896
  150.8098  133.8432  159.3194 H   0  0  0  0  0  0  0  0  0  0  0  0  # atno 6908 bound_to 6896
  151.6145  135.1039  160.0140 H   0  0  0  0  0  0  0  0  0  0  0  0  # atno 6909 bound_to 6896
  144.9901  139.4415  143.5343 H   0  0  0  0  0  0  0  0  0  0  0  0  # atno 7974 bound_to 7965
  156.2203  140.2996  155.9936 H   0  0  0  0  0  0  0  0  0  0  0  0  # atno 8008 bound_to 7997
  155.2500  140.0425  157.3002 H   0  0  0  0  0  0  0  0  0  0  0  0  # atno 8009 bound_to 7997
  154.5830  140.2380  155.8035 H   0  0  0  0  0  0  0  0  0  0  0  0  # atno 8010 bound_to 7997
  139.5678  144.1714  152.1338 H   0  0  0  0  0  0  0  0  0  0  0  0  # atno 10167 bound_to 10162
  156.0231  130.4424  150.2940 H   0  0  0  0  0  0  0  0  0  0  0  0  # atno 10718 bound_to 10713
  153.0101  135.5352  154.6685 H   0  0  0  0  0  0  0  0  0  0  0  0  # atno 10763 bound_to 10752
  154.5876  135.2856  155.0671 H   0  0  0  0  0  0  0  0  0  0  0  0  # atno 10764 bound_to 10752
  154.1776  135.6521  153.5078 H   0  0  0  0  0  0  0  0  0  0  0  0  # atno 10765 bound_to 10752
  141.0195  134.0145  157.3302 H   0  0  0  0  0  0  0  0  0  0  0  0  # atno 11005 bound_to 11000
  146.3429  139.9227  142.8764 LP  0  0  0  0  0  0  0  0  0  0  0  0  # atno 17320 bound_to 7965
  145.2298  140.9968  143.3997 LP  0  0  0  0  0  0  0  0  0  0  0  0  # atno 17321 bound_to 7965
  140.1241  144.5347  150.6844 LP  0  0  0  0  0  0  0  0  0  0  0  0  # atno 17342 bound_to 10162
  140.6962  143.2405  151.4995 LP  0  0  0  0  0  0  0  0  0  0  0  0  # atno 17343 bound_to 10162
  157.1043  131.0204  151.3073 LP  0  0  0  0  0  0  0  0  0  0  0  0  # atno 17370 bound_to 10713
  157.4755  130.7734  149.7363 LP  0  0  0  0  0  0  0  0  0  0  0  0  # atno 17371 bound_to 10713
  139.9137  135.0194  156.7797 LP  0  0  0  0  0  0  0  0  0  0  0  0  # atno 17394 bound_to 11000
  140.6597  133.9656  155.7798 LP  0  0  0  0  0  0  0  0  0  0  0  0  # atno 17395 bound_to 11000

$$$$
