AV-unprocessed.smi:1830|AV-procd|sdf|7438|dock7
  -GOLD-   22720 9123D 1   1.00000     0.00000
 Structure written by MMmdl.
 53 56  0  0  0  0  0  0  0  0  2 V2000
  150.1875  134.0035  155.7892 O   0  0  0  0  0  0  0  0  0  0  0  0
  149.7414  134.5971  154.8085 C   0  0  0  0  0  0  0  0  0  0  0  0
  149.8705  135.9183  154.6219 N   0  0  0  0  0  0  0  0  0  0  0  0
  150.5662  136.8405  155.5145 C   0  0  0  0  0  0  0  0  0  0  0  0
  151.3451  137.8989  154.7070 C   0  0  2  0  0  0  0  0  0  0  0  0
  152.2270  138.8118  155.5947 C   0  0  0  0  0  0  0  0  0  0  0  0
  151.3667  139.7842  156.2947 N   0  3  1  0  0  0  0  0  0  0  0  0
  152.0068  140.7544  157.2006 C   0  0  0  0  0  0  0  0  0  0  0  0
  151.0259  141.9420  157.2672 C   0  0  0  0  0  0  0  0  0  0  0  0
  149.9279  141.6350  156.2331 C   0  0  0  0  0  0  0  0  0  0  0  0
  150.5725  140.5715  155.3496 C   0  0  2  0  0  0  0  0  0  0  0  0
  149.6492  139.6317  154.5661 C   0  0  0  0  0  0  0  0  0  0  0  0
  150.4689  138.6813  153.8793 O   0  0  0  0  0  0  0  0  0  0  0  0
  149.0594  134.0333  153.7966 N   0  0  0  0  0  0  0  0  0  0  0  0
  148.6528  132.6770  153.6250 C   0  0  0  0  0  0  0  0  0  0  0  0
  149.4296  131.5686  154.0452 C   0  0  0  0  0  0  0  0  0  0  0  0
  148.9456  130.2664  153.8235 C   0  0  0  0  0  0  0  0  0  0  0  0
  147.7038  130.1140  153.1825 C   0  0  0  0  0  0  0  0  0  0  0  0
  146.9588  131.1559  152.7620 N   0  0  0  0  0  0  0  0  0  0  0  0
  147.4208  132.4130  152.9711 C   0  0  0  0  0  0  0  0  0  0  0  0
  146.6295  133.4811  152.5107 N   0  0  0  0  0  0  0  0  0  0  0  0
  145.2971  133.5679  153.0838 C   0  0  0  0  0  0  0  0  0  0  0  0
  144.5414  134.5534  152.1907 C   0  0  0  0  0  0  0  0  0  0  0  0
  145.2644  134.4890  150.8398 C   0  0  0  0  0  0  0  0  0  0  0  0
  146.4525  133.5489  151.0689 C   0  0  0  0  0  0  0  0  0  0  0  0
  149.4670  136.3166  153.7863 H   0  0  0  0  0  0  0  0  0  0  0  0
  149.8321  137.3040  156.1726 H   0  0  0  0  0  0  0  0  0  0  0  0
  151.2580  136.3085  156.1694 H   0  0  0  0  0  0  0  0  0  0  0  0
  152.0102  137.3609  154.0302 H   0  0  0  0  0  0  0  0  0  0  0  0
  152.7963  138.2250  156.3165 H   0  0  0  0  0  0  0  0  0  0  0  0
  152.9497  139.3473  154.9770 H   0  0  0  0  0  0  0  0  0  0  0  0
  152.1951  140.3114  158.1791 H   0  0  0  0  0  0  0  0  0  0  0  0
  152.9618  141.0805  156.7855 H   0  0  0  0  0  0  0  0  0  0  0  0
  150.6004  142.0596  158.2644 H   0  0  0  0  0  0  0  0  0  0  0  0
  151.5430  142.8700  157.0200 H   0  0  0  0  0  0  0  0  0  0  0  0
  149.0499  141.2263  156.7357 H   0  0  0  0  0  0  0  0  0  0  0  0
  149.6150  142.5162  155.6721 H   0  0  0  0  0  0  0  0  0  0  0  0
  151.2508  141.0686  154.6522 H   0  0  0  0  0  0  0  0  0  0  0  0
  148.9363  139.1313  155.2220 H   0  0  0  0  0  0  0  0  0  0  0  0
  149.0677  140.1927  153.8345 H   0  0  0  0  0  0  0  0  0  0  0  0
  148.7162  134.6687  153.0910 H   0  0  0  0  0  0  0  0  0  0  0  0
  150.3905  131.6834  154.5206 H   0  0  0  0  0  0  0  0  0  0  0  0
  149.5160  129.4042  154.1354 H   0  0  0  0  0  0  0  0  0  0  0  0
  147.3006  129.1296  152.9963 H   0  0  0  0  0  0  0  0  0  0  0  0
  144.8066  132.5936  153.0657 H   0  0  0  0  0  0  0  0  0  0  0  0
  145.3336  133.9090  154.1189 H   0  0  0  0  0  0  0  0  0  0  0  0
  143.4830  134.3028  152.1123 H   0  0  0  0  0  0  0  0  0  0  0  0
  144.6153  135.5617  152.5996 H   0  0  0  0  0  0  0  0  0  0  0  0
  144.6162  134.1187  150.0448 H   0  0  0  0  0  0  0  0  0  0  0  0
  145.6095  135.4826  150.5510 H   0  0  0  0  0  0  0  0  0  0  0  0
  147.3554  133.9187  150.5820 H   0  0  0  0  0  0  0  0  0  0  0  0
  146.2316  132.5617  150.6606 H   0  0  0  0  0  0  0  0  0  0  0  0
  150.7100  139.2599  156.8550 H   0  0  0  0  0  0  0  0  0  0  0  0
  1  2  2  0  0  0  0
  2  3  1  0  0  0  0
  2 14  1  0  0  0  0
  3  4  1  0  0  0  0
  3 26  1  0  0  0  0
  4  5  1  0  0  0  0
  4 27  1  0  0  0  0
  4 28  1  0  0  0  0
  5 13  1  0  0  0  0
  5  6  1  0  0  0  0
  5 29  1  0  0  0  0
  6  7  1  0  0  0  0
  6 30  1  0  0  0  0
  6 31  1  0  0  0  0
  7 11  1  0  0  0  0
  7  8  1  0  0  0  0
  7 53  1  0  0  0  0
  8  9  1  0  0  0  0
  8 32  1  0  0  0  0
  8 33  1  0  0  0  0
  9 10  1  0  0  0  0
  9 34  1  0  0  0  0
  9 35  1  0  0  0  0
 10 11  1  0  0  0  0
 10 36  1  0  0  0  0
 10 37  1  0  0  0  0
 11 12  1  0  0  0  0
 11 38  1  0  0  0  0
 12 13  1  0  0  0  0
 12 39  1  0  0  0  0
 12 40  1  0  0  0  0
 14 15  1  0  0  0  0
 14 41  1  0  0  0  0
 15 20  1  0  0  0  0
 15 16  2  0  0  0  0
 16 17  1  0  0  0  0
 16 42  1  0  0  0  0
 17 18  2  0  0  0  0
 17 43  1  0  0  0  0
 18 19  1  0  0  0  0
 18 44  1  0  0  0  0
 19 20  2  0  0  0  0
 20 21  1  0  0  0  0
 21 25  1  0  0  0  0
 21 22  1  0  0  0  0
 22 23  1  0  0  0  0
 22 45  1  0  0  0  0
 22 46  1  0  0  0  0
 23 24  1  0  0  0  0
 23 47  1  0  0  0  0
 23 48  1  0  0  0  0
 24 25  1  0  0  0  0
 24 49  1  0  0  0  0
 24 50  1  0  0  0  0
 25 51  1  0  0  0  0
 25 52  1  0  0  0  0
M  CHG  1   7   1
M  END
> <s_m_source_file>
AV-unprocessed.smi

> <i_m_source_file_index>
1830

> <i_lp_mmshare_version>
43012

> <i_f3d_flags>
0

> <s_epik_input>
W0NIMl0xW0NIMl1bQ0gyXVtDQEhdKE4xMilbQ0gyXU9bQ0BASF0oW0NIMl0yKVtDSDJdW05IXUMoPU8pW05IXWMzW2NIXVtjSF1bY0hdbmMzTjRbQ0gyXVtDSDJdW0NIMl1bQ0gyXTQ=

> <s_epik_cmdline>
J2VwaWtfcHl0aG9uJywgJy1waCcsICc3LjAnLCAnLXRuJywgJzgnLCAnLW1hJywgJzIwMCcsICctbWV0YWxfYmluZGluZycsICctaW1hZScsICc8aW5maWxlLm1hZT4nLCAnLW9tYWUnLCAnPG91dGZpbGUubWFlPic=

> <r_lp_tautomer_probability>
1

> <r_epik_Ionization_Penalty>
0.193547

> <r_epik_Ionization_Penalty_Charging>
0.10673

> <r_epik_Ionization_Penalty_Neutral>
0.0868166

> <r_epik_State_Penalty>
0.173595

> <r_epik_Charging_Adjusted_Penalty>
0.280326

> <i_epik_Tot_Q>
1

> <i_epik_Tot_abs_Q>
1

> <r_epik_Metal_State_Penalty>
0.164683

> <b_epik_Metal_Only>
0

> <s_lp_Force_Field>
OPLS_2005

> <r_lp_Energy>
70.9361

> <b_lp_Chiralities_Consistent>
1

> <s_lp_Variant>
AV-unprocessed.smi:1830-7

> <Gold.Version>
5.8.1

> <Gold.Id.Protein>
6NUR|6NUR_protein|mol2

> <Gold.PLP.Fitness>
46.9299

> <Gold.PLP.PLP>
-41.7378

> <Gold.PLP.part.hbond>
-2.0000

> <Gold.PLP.part.metal>
0.0000

> <Gold.PLP.part.buried>
-4.4175

> <Gold.PLP.part.nonpolar>
-34.9177

> <Gold.PLP.part.repulsive>
0.8729

> <Gold.PLP.ligand.clash>
0.0000

> <Gold.PLP.ligand.torsion>
0.4251

> <Gold.PLP.Chemscore.Hbond>
2.0000

> <Gold.PLP.Chemscore.CHOScore>
0.0000

> <Gold.PLP.Chemscore.Metal>
0.0000

> <Gold.Chemscore.Hbonds>
donor molecule, donor type, donor heavy atom, donor atom, acceptor molecule, acceptor atom, score
      L1  H     3    26       P1  7948  1.00
      L1  H    14    41       P1  7948  0.95

> <Gold.PLP.Chemscore.Internal.Correction>
0.0423

> <Gold.Rescore>
     Score         DG    S(hbond)    S(metal)    S(lipo)     H(rot)  DE(clash)    DE(int)     intcor
     16.76     -17.35       1.39        0.00      92.49       1.41       0.06       0.53       ----

> <Gold.Chemscore.Fitness>
16.7620

> <Gold.Chemscore.DG>
-17.3480

> <Gold.Chemscore.ZeroCoef>
-5.4800

> <Gold.Chemscore.Hbond>
1.3917

> <Gold.Chemscore.Metal>
0.0000

> <Gold.Chemscore.Lipo>
92.4856

> <Gold.Chemscore.Internal_Hbond>
0.0000

> <Gold.Chemscore.DEClash>
0.0563

> <Gold.Chemscore.DEInternal>
0.5296

> <Gold.Chemscore.Rot>
1.4067

> <Gold.Chemscore.Internal.Correction>
   9.000000E+99

> <Gold.Chemscore.Hbonds>
donor molecule, donor type, donor heavy atom, donor atom, acceptor molecule, acceptor atom, score
      L1  H     3    26       P1  7948  0.70
      L1  H    14    41       P1  7948  0.20

> <Gold.Chemscore.Hbond.Weighted>
-4.6483

> <Gold.Chemscore.Metal.Weighted>
-0.0000

> <Gold.Chemscore.Lipo.Weighted>
-10.8208

> <Gold.Chemscore.Internal_Hbond.Weighted>
0.0000

> <Gold.Chemscore.DEClash.Weighted>
0.0563

> <Gold.Chemscore.DEInternal.Weighted>
0.5296

> <Gold.Chemscore.Rot.Weighted>
3.6011

> <Gold.Chemscore.Internal.Correction.Weighted>
   9.000000E+99

> <Gold.Protein.RotatedTorsions>
[ 6907 6896 6895 6894 ] final  160.04 input  -60.11 | X-H torsion
[ 7974 7965 7964 7962 ] final  164.62 input  175.53 | X-H torsion
[ 8008 7997 7996 7995 ] final -155.48 input   59.86 | X-H torsion
[ 10167 10162 10161 10158 ] final  153.20 input  -65.29 | X-H torsion
[ 10718 10713 10712 10709 ] final   16.26 input   66.30 | X-H torsion
[ 10763 10752 10751 10750 ] final  -30.90 input  -60.55 | X-H torsion
[ 11005 11000 10999 10996 ] final  -53.60 input  -57.11 | X-H torsion

> <Gold.Protein.ActiveResidues>
 VAL166  LYS551  ARG553  GLY616  TRP617  ASP618  TYR619  PRO620  LYS621  CYS622 
 ASP623  PHE694  ASN695  SER759  ASP760  ASP761  ALA762  ILE779  LEU786  VAL792 
 PHE793  MET794  SER795  GLU796  ALA797  LYS798  CYS799  TRP800  GLU811  SER814 

> <Gold.Protein.RotatedAtoms>
  151.9765  133.3743  159.4090 H   0  0  0  0  0  0  0  0  0  0  0  0  # atno 6907 bound_to 6896
  150.6941  134.4084  159.5160 H   0  0  0  0  0  0  0  0  0  0  0  0  # atno 6908 bound_to 6896
  152.1796  134.8765  160.0578 H   0  0  0  0  0  0  0  0  0  0  0  0  # atno 6909 bound_to 6896
  144.7537  139.8352  143.6357 H   0  0  0  0  0  0  0  0  0  0  0  0  # atno 7974 bound_to 7965
  155.7025  140.0768  157.2404 H   0  0  0  0  0  0  0  0  0  0  0  0  # atno 8008 bound_to 7997
  154.4071  140.1644  156.2260 H   0  0  0  0  0  0  0  0  0  0  0  0  # atno 8009 bound_to 7997
  155.9355  140.3388  155.6287 H   0  0  0  0  0  0  0  0  0  0  0  0  # atno 8010 bound_to 7997
  139.4828  144.5293  151.7749 H   0  0  0  0  0  0  0  0  0  0  0  0  # atno 10167 bound_to 10162
  157.0653  130.6326  149.5794 H   0  0  0  0  0  0  0  0  0  0  0  0  # atno 10718 bound_to 10713
  153.7886  135.6899  153.4875 H   0  0  0  0  0  0  0  0  0  0  0  0  # atno 10763 bound_to 10752
  153.1764  135.4523  154.9969 H   0  0  0  0  0  0  0  0  0  0  0  0  # atno 10764 bound_to 10752
  154.8053  135.3354  154.7384 H   0  0  0  0  0  0  0  0  0  0  0  0  # atno 10765 bound_to 10752
  141.0984  133.6621  156.4196 H   0  0  0  0  0  0  0  0  0  0  0  0  # atno 11005 bound_to 11000
  146.1521  139.4608  143.0042 LP  0  0  0  0  0  0  0  0  0  0  0  0  # atno 17320 bound_to 7965
  145.6852  141.0180  143.1585 LP  0  0  0  0  0  0  0  0  0  0  0  0  # atno 17321 bound_to 7965
  140.4817  144.1439  150.5934 LP  0  0  0  0  0  0  0  0  0  0  0  0  # atno 17342 bound_to 10162
  140.4270  143.2585  151.9644 LP  0  0  0  0  0  0  0  0  0  0  0  0  # atno 17343 bound_to 10162
  155.9966  130.5036  150.7503 LP  0  0  0  0  0  0  0  0  0  0  0  0  # atno 17370 bound_to 10713
  157.4922  131.0912  151.0414 LP  0  0  0  0  0  0  0  0  0  0  0  0  # atno 17371 bound_to 10713
  140.5083  134.6419  157.5275 LP  0  0  0  0  0  0  0  0  0  0  0  0  # atno 17394 bound_to 11000
  139.9828  134.7110  155.9829 LP  0  0  0  0  0  0  0  0  0  0  0  0  # atno 17395 bound_to 11000

$$$$
