AV-unprocessed.smi:1044|AV-procd|sdf|4542|dock5
  -GOLD-   22720 2563D 1   1.00000     0.00000
 Structure written by MMmdl.
 45 46  0  0  0  0  0  0  0  0  1 V2000
  145.3293  132.1713  149.4036 C   0  0  0  0  0  0  0  0  0  0  0  0
  144.9298  133.0032  150.6244 C   0  0  0  0  0  0  0  0  0  0  0  0
  146.0229  133.0243  151.5376 O   0  0  0  0  0  0  0  0  0  0  0  0
  146.4144  131.8402  152.1329 C   0  0  0  0  0  0  0  0  0  0  0  0
  145.7262  130.7094  151.8358 N   0  0  0  0  0  0  0  0  0  0  0  0
  146.1053  129.5538  152.4192 C   0  0  0  0  0  0  0  0  0  0  0  0
  147.1762  129.4643  153.3273 C   0  0  0  0  0  0  0  0  0  0  0  0
  147.8918  130.6356  153.6369 C   0  0  0  0  0  0  0  0  0  0  0  0
  147.5157  131.8533  153.0202 C   0  0  0  0  0  0  0  0  0  0  0  0
  148.1581  133.0943  153.2820 N   0  0  0  0  0  0  0  0  0  0  0  0
  149.1808  133.3407  154.1177 C   0  0  0  0  0  0  0  0  0  0  0  0
  149.7606  132.4932  154.7965 O   0  0  0  0  0  0  0  0  0  0  0  0
  149.5133  134.6395  154.1028 N   0  0  0  0  0  0  0  0  0  0  0  0
  150.6013  135.2529  154.8596 C   0  0  2  0  0  0  0  0  0  0  0  0
  150.5534  134.7898  156.3209 C   0  0  0  0  0  0  0  0  0  0  0  0
  151.6722  135.4812  157.1049 C   0  0  0  0  0  0  0  0  0  0  0  0
  151.5756  137.0118  156.9907 C   0  0  0  0  0  0  0  0  0  0  0  0
  151.5353  137.4494  155.5801 N   0  0  0  0  0  0  0  0  0  0  0  0
  151.8623  139.1189  155.2434 S   0  0  0  0  0  0  0  0  0  0  0  0
  151.8443  139.8943  156.9125 C   0  0  0  0  0  0  0  0  0  0  0  0
  153.2201  139.2065  154.6847 O   0  0  0  0  0  0  0  0  0  0  0  0
  150.7214  139.6604  154.4891 O   0  0  0  0  0  0  0  0  0  0  0  0
  150.4957  136.7857  154.7693 C   0  0  0  0  0  0  0  0  0  0  0  0
  144.5188  132.1355  148.6754 H   0  0  0  0  0  0  0  0  0  0  0  0
  145.5678  131.1465  149.6897 H   0  0  0  0  0  0  0  0  0  0  0  0
  146.2045  132.5949  148.9105 H   0  0  0  0  0  0  0  0  0  0  0  0
  144.6758  134.0169  150.3102 H   0  0  0  0  0  0  0  0  0  0  0  0
  144.0481  132.5632  151.0929 H   0  0  0  0  0  0  0  0  0  0  0  0
  145.5331  128.6756  152.1598 H   0  0  0  0  0  0  0  0  0  0  0  0
  147.4393  128.5201  153.7806 H   0  0  0  0  0  0  0  0  0  0  0  0
  148.7008  130.5815  154.3489 H   0  0  0  0  0  0  0  0  0  0  0  0
  147.8488  133.8690  152.7132 H   0  0  0  0  0  0  0  0  0  0  0  0
  148.9767  135.2550  153.5091 H   0  0  0  0  0  0  0  0  0  0  0  0
  151.5657  134.9576  154.4417 H   0  0  0  0  0  0  0  0  0  0  0  0
  149.5862  135.0302  156.7650 H   0  0  0  0  0  0  0  0  0  0  0  0
  150.6695  133.7071  156.3808 H   0  0  0  0  0  0  0  0  0  0  0  0
  151.6313  135.1841  158.1530 H   0  0  0  0  0  0  0  0  0  0  0  0
  152.6410  135.1492  156.7288 H   0  0  0  0  0  0  0  0  0  0  0  0
  150.6823  137.3765  157.4991 H   0  0  0  0  0  0  0  0  0  0  0  0
  152.4322  137.4593  157.4943 H   0  0  0  0  0  0  0  0  0  0  0  0
  151.9641  140.9723  156.8081 H   0  0  0  0  0  0  0  0  0  0  0  0
  152.6610  139.5043  157.5179 H   0  0  0  0  0  0  0  0  0  0  0  0
  150.8937  139.6832  157.4019 H   0  0  0  0  0  0  0  0  0  0  0  0
  150.5885  137.0948  153.7290 H   0  0  0  0  0  0  0  0  0  0  0  0
  149.5163  137.1242  155.1102 H   0  0  0  0  0  0  0  0  0  0  0  0
  1  2  1  0  0  0  0
  1 24  1  0  0  0  0
  1 25  1  0  0  0  0
  1 26  1  0  0  0  0
  2  3  1  0  0  0  0
  2 27  1  0  0  0  0
  2 28  1  0  0  0  0
  3  4  1  0  0  0  0
  4  9  1  0  0  0  0
  4  5  2  0  0  0  0
  5  6  1  0  0  0  0
  6  7  2  0  0  0  0
  6 29  1  0  0  0  0
  7  8  1  0  0  0  0
  7 30  1  0  0  0  0
  8  9  2  0  0  0  0
  8 31  1  0  0  0  0
  9 10  1  0  0  0  0
 10 11  1  0  0  0  0
 10 32  1  0  0  0  0
 11 12  2  0  0  0  0
 11 13  1  0  0  0  0
 13 14  1  0  0  0  0
 13 33  1  0  0  0  0
 14 23  1  0  0  0  0
 14 15  1  0  0  0  0
 14 34  1  0  0  0  0
 15 16  1  0  0  0  0
 15 35  1  0  0  0  0
 15 36  1  0  0  0  0
 16 17  1  0  0  0  0
 16 37  1  0  0  0  0
 16 38  1  0  0  0  0
 17 18  1  0  0  0  0
 17 39  1  0  0  0  0
 17 40  1  0  0  0  0
 18 19  1  0  0  0  0
 18 23  1  0  0  0  0
 19 20  1  0  0  0  0
 19 21  2  0  0  0  0
 19 22  2  0  0  0  0
 20 41  1  0  0  0  0
 20 42  1  0  0  0  0
 20 43  1  0  0  0  0
 23 44  1  0  0  0  0
 23 45  1  0  0  0  0
M  END
> <s_m_source_file>
AV-unprocessed.smi

> <i_m_source_file_index>
1044

> <i_lp_mmshare_version>
43012

> <i_f3d_flags>
0

> <s_epik_input>
W0NIM11bQ0gyXU9jMW5bY0hdW2NIXVtjSF1jMVtOSF1DKD1PKVtOSF1bQ0BASF0yW0NIMl1bQ0gyXVtDSDJdTihbQ0gyXTIpUyg9TykoPU8pW0NIM10=

> <s_epik_cmdline>
J2VwaWtfcHl0aG9uJywgJy1waCcsICc3LjAnLCAnLXRuJywgJzgnLCAnLW1hJywgJzIwMCcsICctbWV0YWxfYmluZGluZycsICctaW1hZScsICc8aW5maWxlLm1hZT4nLCAnLW9tYWUnLCAnPG91dGZpbGUubWFlPic=

> <r_lp_tautomer_probability>
1

> <r_epik_Ionization_Penalty>
0.000106941

> <r_epik_Ionization_Penalty_Charging>
0

> <r_epik_Ionization_Penalty_Neutral>
0.000106941

> <r_epik_State_Penalty>
-0

> <r_epik_Charging_Adjusted_Penalty>
0

> <i_epik_Tot_Q>
0

> <i_epik_Tot_abs_Q>
0

> <r_epik_Metal_State_Penalty>
-0

> <b_epik_Metal_Only>
0

> <s_lp_Force_Field>
OPLS_2005

> <r_lp_Energy>
2.99573

> <b_lp_Chiralities_Consistent>
1

> <s_lp_Variant>
AV-unprocessed.smi:1044-1

> <Gold.Version>
5.8.1

> <Gold.Id.Protein>
6NUR|6NUR_protein|mol2

> <Gold.PLP.Fitness>
42.4420

> <Gold.PLP.PLP>
-33.7868

> <Gold.PLP.part.hbond>
-3.3862

> <Gold.PLP.part.metal>
0.0000

> <Gold.PLP.part.buried>
-3.7744

> <Gold.PLP.part.nonpolar>
-27.3964

> <Gold.PLP.part.repulsive>
0.5321

> <Gold.PLP.ligand.clash>
0.0000

> <Gold.PLP.ligand.torsion>
0.4944

> <Gold.PLP.Chemscore.Hbond>
2.9600

> <Gold.PLP.Chemscore.CHOScore>
0.0000

> <Gold.PLP.Chemscore.Metal>
0.0000

> <Gold.Chemscore.Hbonds>
donor molecule, donor type, donor heavy atom, donor atom, acceptor molecule, acceptor atom, score
      L1  H    13    33       P1  7948  0.88
      P1  H  7989  7998       L1    22  0.90
      P1  H  7997  8009       L1    21  1.00

> <Gold.PLP.Chemscore.Internal.Correction>
0.7640

> <Gold.Rescore>
     Score         DG    S(hbond)    S(metal)    S(lipo)     H(rot)  DE(clash)    DE(int)     intcor
     12.16     -16.70       2.18        0.00      72.40       1.77       0.33       4.20       ----

> <Gold.Chemscore.Fitness>
12.1635

> <Gold.Chemscore.DG>
-16.7021

> <Gold.Chemscore.ZeroCoef>
-5.4800

> <Gold.Chemscore.Hbond>
2.1812

> <Gold.Chemscore.Metal>
0.0000

> <Gold.Chemscore.Lipo>
72.4025

> <Gold.Chemscore.Internal_Hbond>
0.0000

> <Gold.Chemscore.DEClash>
0.3345

> <Gold.Chemscore.DEInternal>
4.2042

> <Gold.Chemscore.Rot>
1.7711

> <Gold.Chemscore.Internal.Correction>
   9.000000E+99

> <Gold.Chemscore.Hbonds>
donor molecule, donor type, donor heavy atom, donor atom, acceptor molecule, acceptor atom, score
      L1  H    13    33       P1  7948  0.48
      P1  H  7989  7998       L1    22  0.18
      P1  H  7997  8009       L1    21  0.91

> <Gold.Chemscore.Hbond.Weighted>
-7.2851

> <Gold.Chemscore.Metal.Weighted>
-0.0000

> <Gold.Chemscore.Lipo.Weighted>
-8.4711

> <Gold.Chemscore.Internal_Hbond.Weighted>
0.0000

> <Gold.Chemscore.DEClash.Weighted>
0.3345

> <Gold.Chemscore.DEInternal.Weighted>
4.2042

> <Gold.Chemscore.Rot.Weighted>
4.5340

> <Gold.Chemscore.Internal.Correction.Weighted>
   9.000000E+99

> <Gold.Protein.RotatedTorsions>
[ 6907 6896 6895 6894 ] final   58.28 input  -60.11 | X-H torsion
[ 7974 7965 7964 7962 ] final  111.90 input  175.53 | X-H torsion
[ 8008 7997 7996 7995 ] final -128.05 input   59.86 | X-H torsion
[ 10167 10162 10161 10158 ] final  -33.86 input  -65.29 | X-H torsion
[ 10718 10713 10712 10709 ] final -169.89 input   66.30 | X-H torsion
[ 10763 10752 10751 10750 ] final   72.45 input  -60.55 | X-H torsion
[ 11005 11000 10999 10996 ] final  -64.89 input  -57.11 | X-H torsion

> <Gold.Protein.ActiveResidues>
 VAL166  LYS551  ARG553  GLY616  TRP617  ASP618  TYR619  PRO620  LYS621  CYS622 
 ASP623  PHE694  ASN695  SER759  ASP760  ASP761  ALA762  ILE779  LEU786  VAL792 
 PHE793  MET794  SER795  GLU796  ALA797  LYS798  CYS799  TRP800  GLU811  SER814 

> <Gold.Protein.RotatedAtoms>
  152.3810  134.6591  160.0142 H   0  0  0  0  0  0  0  0  0  0  0  0  # atno 6907 bound_to 6896
  151.6854  133.3306  159.3237 H   0  0  0  0  0  0  0  0  0  0  0  0  # atno 6908 bound_to 6896
  150.7747  134.6681  159.6421 H   0  0  0  0  0  0  0  0  0  0  0  0  # atno 6909 bound_to 6896
  145.2363  139.2797  143.4141 H   0  0  0  0  0  0  0  0  0  0  0  0  # atno 7974 bound_to 7965
  155.2562  140.0434  157.2992 H   0  0  0  0  0  0  0  0  0  0  0  0  # atno 8008 bound_to 7997
  154.5738  140.2381  155.8121 H   0  0  0  0  0  0  0  0  0  0  0  0  # atno 8009 bound_to 7997
  156.2143  140.2989  155.9811 H   0  0  0  0  0  0  0  0  0  0  0  0  # atno 8010 bound_to 7997
  140.7196  143.3589  151.2002 H   0  0  0  0  0  0  0  0  0  0  0  0  # atno 10167 bound_to 10162
  156.7181  130.9259  151.3095 H   0  0  0  0  0  0  0  0  0  0  0  0  # atno 10718 bound_to 10713
  153.0460  135.5099  154.7746 H   0  0  0  0  0  0  0  0  0  0  0  0  # atno 10763 bound_to 10752
  154.6645  135.2943  154.9825 H   0  0  0  0  0  0  0  0  0  0  0  0  # atno 10764 bound_to 10752
  154.0664  135.6683  153.4871 H   0  0  0  0  0  0  0  0  0  0  0  0  # atno 10765 bound_to 10752
  141.1438  133.6673  156.5902 H   0  0  0  0  0  0  0  0  0  0  0  0  # atno 11005 bound_to 11000
  146.3340  140.2714  142.8606 LP  0  0  0  0  0  0  0  0  0  0  0  0  # atno 17320 bound_to 7965
  144.9630  140.8293  143.5502 LP  0  0  0  0  0  0  0  0  0  0  0  0  # atno 17321 bound_to 7965
  139.7137  143.9335  152.2958 LP  0  0  0  0  0  0  0  0  0  0  0  0  # atno 17342 bound_to 10162
  139.9069  144.6879  150.8605 LP  0  0  0  0  0  0  0  0  0  0  0  0  # atno 17343 bound_to 10162
  157.6909  130.9232  150.0511 LP  0  0  0  0  0  0  0  0  0  0  0  0  # atno 17370 bound_to 10713
  156.1614  130.3644  149.9294 LP  0  0  0  0  0  0  0  0  0  0  0  0  # atno 17371 bound_to 10713
  140.3769  134.7557  157.4635 LP  0  0  0  0  0  0  0  0  0  0  0  0  # atno 17394 bound_to 11000
  140.0668  134.5919  155.8687 LP  0  0  0  0  0  0  0  0  0  0  0  0  # atno 17395 bound_to 11000

$$$$
