AV-unprocessed.smi:2822|AV-procd|sdf|10871|dock6
  -GOLD-   2272015313D 1   1.00000     0.00000
 Structure written by MMmdl.
 40 42  0  0  0  0  0  0  0  0  2 V2000
  145.6189  142.7380  153.9202 Cl  0  0  0  0  0  0  0  0  0  0  0  0
  147.0389  141.7510  153.9435 C   0  0  0  0  0  0  0  0  0  0  0  0
  148.3093  142.3481  153.8105 C   0  0  0  0  0  0  0  0  0  0  0  0
  149.4638  141.6493  153.8198 N   0  0  0  0  0  0  0  0  0  0  0  0
  149.3869  140.3100  153.9648 C   0  0  0  0  0  0  0  0  0  0  0  0
  148.1700  139.6134  154.1064 C   0  0  0  0  0  0  0  0  0  0  0  0
  146.9610  140.3476  154.0958 C   0  0  0  0  0  0  0  0  0  0  0  0
  145.7048  139.7380  154.2298 N   0  0  0  0  0  0  0  0  0  0  0  0
  145.5658  138.2939  154.3536 C   0  0  0  0  0  0  0  0  0  0  0  0
  146.0466  137.5544  153.0938 C   0  0  1  0  0  0  0  0  0  0  0  0
  146.0674  136.0201  153.2519 C   0  0  0  0  0  0  0  0  0  0  0  0
  146.4811  135.3706  151.9836 N   0  3  1  0  0  0  0  0  0  0  0  0
  146.5590  133.8886  152.0659 C   0  0  0  0  0  0  0  0  0  0  0  0
  145.1655  133.2301  152.0652 C   0  0  0  0  0  0  0  0  0  0  0  0
  144.3358  133.6910  150.8588 C   0  0  0  0  0  0  0  0  0  0  0  0
  144.2687  135.2241  150.8072 C   0  0  0  0  0  0  0  0  0  0  0  0
  145.6848  135.8402  150.8161 C   0  0  1  0  0  0  0  0  0  0  0  0
  145.6654  137.3806  150.7669 C   0  0  0  0  0  0  0  0  0  0  0  0
  145.2059  137.9140  152.0026 O   0  0  0  0  0  0  0  0  0  0  0  0
  148.4016  143.4179  153.6938 H   0  0  0  0  0  0  0  0  0  0  0  0
  150.3249  139.7750  153.9679 H   0  0  0  0  0  0  0  0  0  0  0  0
  148.1862  138.5396  154.2165 H   0  0  0  0  0  0  0  0  0  0  0  0
  144.8729  140.3111  154.2334 H   0  0  0  0  0  0  0  0  0  0  0  0
  146.1359  137.9535  155.2187 H   0  0  0  0  0  0  0  0  0  0  0  0
  144.5196  138.0498  154.5409 H   0  0  0  0  0  0  0  0  0  0  0  0
  147.0591  137.9002  152.8775 H   0  0  0  0  0  0  0  0  0  0  0  0
  146.7603  135.7397  154.0462 H   0  0  0  0  0  0  0  0  0  0  0  0
  145.0841  135.6575  153.5506 H   0  0  0  0  0  0  0  0  0  0  0  0
  147.1286  133.5289  151.2079 H   0  0  0  0  0  0  0  0  0  0  0  0
  147.1213  133.5935  152.9526 H   0  0  0  0  0  0  0  0  0  0  0  0
  145.2704  132.1449  152.0482 H   0  0  0  0  0  0  0  0  0  0  0  0
  144.6357  133.4670  152.9881 H   0  0  0  0  0  0  0  0  0  0  0  0
  144.7847  133.3122  149.9396 H   0  0  0  0  0  0  0  0  0  0  0  0
  143.3306  133.2719  150.9107 H   0  0  0  0  0  0  0  0  0  0  0  0
  143.7342  135.5347  149.9087 H   0  0  0  0  0  0  0  0  0  0  0  0
  143.6852  135.5958  151.6503 H   0  0  0  0  0  0  0  0  0  0  0  0
  146.1977  135.4923  149.9180 H   0  0  0  0  0  0  0  0  0  0  0  0
  146.6609  137.7695  150.5470 H   0  0  0  0  0  0  0  0  0  0  0  0
  145.0128  137.7274  149.9653 H   0  0  0  0  0  0  0  0  0  0  0  0
  147.4258  135.6887  151.8199 H   0  0  0  0  0  0  0  0  0  0  0  0
  1  2  1  0  0  0  0
  2  7  1  0  0  0  0
  2  3  2  0  0  0  0
  3  4  1  0  0  0  0
  3 20  1  0  0  0  0
  4  5  2  0  0  0  0
  5  6  1  0  0  0  0
  5 21  1  0  0  0  0
  6  7  2  0  0  0  0
  6 22  1  0  0  0  0
  7  8  1  0  0  0  0
  8  9  1  0  0  0  0
  8 23  1  0  0  0  0
  9 10  1  0  0  0  0
  9 24  1  0  0  0  0
  9 25  1  0  0  0  0
 10 19  1  0  0  0  0
 10 11  1  0  0  0  0
 10 26  1  0  0  0  0
 11 12  1  0  0  0  0
 11 27  1  0  0  0  0
 11 28  1  0  0  0  0
 12 17  1  0  0  0  0
 12 13  1  0  0  0  0
 12 40  1  0  0  0  0
 13 14  1  0  0  0  0
 13 29  1  0  0  0  0
 13 30  1  0  0  0  0
 14 15  1  0  0  0  0
 14 31  1  0  0  0  0
 14 32  1  0  0  0  0
 15 16  1  0  0  0  0
 15 33  1  0  0  0  0
 15 34  1  0  0  0  0
 16 17  1  0  0  0  0
 16 35  1  0  0  0  0
 16 36  1  0  0  0  0
 17 18  1  0  0  0  0
 17 37  1  0  0  0  0
 18 19  1  0  0  0  0
 18 38  1  0  0  0  0
 18 39  1  0  0  0  0
M  CHG  1  12   1
M  END
> <s_m_source_file>
AV-unprocessed.smi

> <i_m_source_file_index>
2822

> <i_lp_mmshare_version>
43012

> <i_f3d_flags>
0

> <s_epik_input>
Q2xjMVtjSF1uW2NIXVtjSF1jMVtOSF1bQ0gyXVtDQEhdKFtDSDJdMilPW0NIMl1bQ0BASF0oTjIzKVtDSDJdW0NIMl1bQ0gyXVtDSDJdMw==

> <s_epik_cmdline>
J2VwaWtfcHl0aG9uJywgJy1waCcsICc3LjAnLCAnLXRuJywgJzgnLCAnLW1hJywgJzIwMCcsICctbWV0YWxfYmluZGluZycsICctaW1hZScsICc8aW5maWxlLm1hZT4nLCAnLW9tYWUnLCAnPG91dGZpbGUubWFlPic=

> <r_lp_tautomer_probability>
0.999999

> <r_epik_Ionization_Penalty>
0.88937

> <r_epik_Ionization_Penalty_Charging>
0.0803403

> <r_epik_Ionization_Penalty_Neutral>
0.80903

> <r_epik_State_Penalty>
0.931884

> <r_epik_Charging_Adjusted_Penalty>
1.01222

> <i_epik_Tot_Q>
1

> <i_epik_Tot_abs_Q>
1

> <r_epik_Metal_State_Penalty>
0.0782275

> <b_epik_Metal_Only>
0

> <s_lp_Force_Field>
OPLS_2005

> <r_lp_Energy>
33.0779

> <b_lp_Chiralities_Consistent>
1

> <s_lp_Variant>
AV-unprocessed.smi:2822-12

> <Gold.Version>
5.8.1

> <Gold.Id.Protein>
6NUR|6NUR_protein|mol2

> <Gold.PLP.Fitness>
40.3294

> <Gold.PLP.PLP>
-28.8193

> <Gold.PLP.part.hbond>
-2.0000

> <Gold.PLP.part.metal>
0.0000

> <Gold.PLP.part.buried>
-0.1188

> <Gold.PLP.part.nonpolar>
-26.9196

> <Gold.PLP.part.repulsive>
0.4522

> <Gold.PLP.ligand.clash>
0.0000

> <Gold.PLP.ligand.torsion>
0.0239

> <Gold.PLP.Chemscore.Hbond>
2.8640

> <Gold.PLP.Chemscore.CHOScore>
0.9880

> <Gold.PLP.Chemscore.Metal>
0.0000

> <Gold.Chemscore.Hbonds>
donor molecule, donor type, donor heavy atom, donor atom, acceptor molecule, acceptor atom, score
      L1  H     8    23       P1 10175  0.32
      L1  H    12    40       P1  7948  2.00
      P1  H  8011  8017       L1     4  0.20
      L1  C     3    20       P1  8028  0.78

> <Gold.PLP.Chemscore.Internal.Correction>
0.0018

> <Gold.Rescore>
     Score         DG    S(hbond)    S(metal)    S(lipo)     H(rot)  DE(clash)    DE(int)     intcor
     16.14     -17.77       1.71        0.00      81.71       1.17       1.60       0.03       ----

> <Gold.Chemscore.Fitness>
16.1414

> <Gold.Chemscore.DG>
-17.7726

> <Gold.Chemscore.ZeroCoef>
-5.4800

> <Gold.Chemscore.Hbond>
1.7144

> <Gold.Chemscore.Metal>
0.0000

> <Gold.Chemscore.Lipo>
81.7098

> <Gold.Chemscore.Internal_Hbond>
0.0000

> <Gold.Chemscore.DEClash>
1.5965

> <Gold.Chemscore.DEInternal>
0.0347

> <Gold.Chemscore.Rot>
1.1693

> <Gold.Chemscore.Internal.Correction>
   9.000000E+99

> <Gold.Chemscore.Hbonds>
donor molecule, donor type, donor heavy atom, donor atom, acceptor molecule, acceptor atom, score
      L1  H     8    23       P1 10175  0.32
      L1  H    12    40       P1  7948  0.98

> <Gold.Chemscore.Hbond.Weighted>
-5.7259

> <Gold.Chemscore.Metal.Weighted>
-0.0000

> <Gold.Chemscore.Lipo.Weighted>
-9.5600

> <Gold.Chemscore.Internal_Hbond.Weighted>
0.0000

> <Gold.Chemscore.DEClash.Weighted>
1.5965

> <Gold.Chemscore.DEInternal.Weighted>
0.0347

> <Gold.Chemscore.Rot.Weighted>
2.9934

> <Gold.Chemscore.Internal.Correction.Weighted>
   9.000000E+99

> <Gold.Protein.RotatedTorsions>
[ 6907 6896 6895 6894 ] final   62.19 input  -60.11 | X-H torsion
[ 7974 7965 7964 7962 ] final  -16.06 input  175.53 | X-H torsion
[ 8008 7997 7996 7995 ] final   21.18 input   59.86 | X-H torsion
[ 10167 10162 10161 10158 ] final -114.33 input  -65.29 | X-H torsion
[ 10718 10713 10712 10709 ] final  150.41 input   66.30 | X-H torsion
[ 10763 10752 10751 10750 ] final   82.39 input  -60.55 | X-H torsion
[ 11005 11000 10999 10996 ] final  112.87 input  -57.11 | X-H torsion

> <Gold.Protein.ActiveResidues>
 VAL166  LYS551  ARG553  GLY616  TRP617  ASP618  TYR619  PRO620  LYS621  CYS622 
 ASP623  PHE694  ASN695  SER759  ASP760  ASP761  ALA762  ILE779  LEU786  VAL792 
 PHE793  MET794  SER795  GLU796  ALA797  LYS798  CYS799  TRP800  GLU811  SER814 

> <Gold.Protein.RotatedAtoms>
  152.4152  134.6054  160.0011 H   0  0  0  0  0  0  0  0  0  0  0  0  # atno 6907 bound_to 6896
  151.6220  133.3333  159.3098 H   0  0  0  0  0  0  0  0  0  0  0  0  # atno 6908 bound_to 6896
  150.8041  134.7193  159.6694 H   0  0  0  0  0  0  0  0  0  0  0  0  # atno 6909 bound_to 6896
  146.2004  140.3583  142.8425 H   0  0  0  0  0  0  0  0  0  0  0  0  # atno 7974 bound_to 7965
  154.9467  140.3060  155.5094 H   0  0  0  0  0  0  0  0  0  0  0  0  # atno 8008 bound_to 7997
  156.2991  140.2326  156.4479 H   0  0  0  0  0  0  0  0  0  0  0  0  # atno 8009 bound_to 7997
  154.8094  140.0429  157.1320 H   0  0  0  0  0  0  0  0  0  0  0  0  # atno 8010 bound_to 7997
  140.1021  143.4603  152.1805 H   0  0  0  0  0  0  0  0  0  0  0  0  # atno 10167 bound_to 10162
  157.2838  131.0840  151.1512 H   0  0  0  0  0  0  0  0  0  0  0  0  # atno 10718 bound_to 10713
  153.1199  135.4730  154.9177 H   0  0  0  0  0  0  0  0  0  0  0  0  # atno 10763 bound_to 10752
  154.7565  135.3120  154.8463 H   0  0  0  0  0  0  0  0  0  0  0  0  # atno 10764 bound_to 10752
  153.9030  135.6873  153.4808 H   0  0  0  0  0  0  0  0  0  0  0  0  # atno 10765 bound_to 10752
  139.8938  134.9538  156.6652 H   0  0  0  0  0  0  0  0  0  0  0  0  # atno 11005 bound_to 11000
  144.8671  140.7221  143.6070 LP  0  0  0  0  0  0  0  0  0  0  0  0  # atno 17320 bound_to 7965
  145.3502  139.1708  143.4438 LP  0  0  0  0  0  0  0  0  0  0  0  0  # atno 17321 bound_to 7965
  139.5665  144.7438  151.4007 LP  0  0  0  0  0  0  0  0  0  0  0  0  # atno 17342 bound_to 10162
  140.6972  143.7720  150.7345 LP  0  0  0  0  0  0  0  0  0  0  0  0  # atno 17343 bound_to 10162
  157.2936  130.6808  149.6127 LP  0  0  0  0  0  0  0  0  0  0  0  0  # atno 17370 bound_to 10713
  155.9665  130.4413  150.5336 LP  0  0  0  0  0  0  0  0  0  0  0  0  # atno 17371 bound_to 10713
  140.7416  133.8973  155.8282 LP  0  0  0  0  0  0  0  0  0  0  0  0  # atno 17394 bound_to 11000
  141.0073  134.1069  157.4257 LP  0  0  0  0  0  0  0  0  0  0  0  0  # atno 17395 bound_to 11000

$$$$
