AV-unprocessed.smi:1235|AV-procd|sdf|5175|dock2
  -GOLD-   22720 4253D 1   1.00000     0.00000
 Structure written by MMmdl.
 50 51  0  0  0  0  0  0  0  0  2 V2000
  152.3813  142.2847  159.4766 C   0  0  0  0  0  0  0  0  0  0  0  0
  152.1079  141.0559  158.8261 O   0  0  0  0  0  0  0  0  0  0  0  0
  150.8572  141.0616  158.1590 C   0  0  0  0  0  0  0  0  0  0  0  0
  151.0769  141.4673  156.6939 C   0  0  0  0  0  0  0  0  0  0  0  0
  150.7700  140.3644  155.7776 N   0  0  0  0  0  0  0  0  0  0  0  0
  149.5819  140.5215  155.0836 N   0  0  0  0  0  0  0  0  0  0  0  0
  149.1950  139.6167  154.2434 C   0  0  0  0  0  0  0  0  0  0  0  0
  147.9258  139.7507  153.4753 C   0  0  0  0  0  0  0  0  0  0  0  0
  147.0614  140.5734  153.7824 O   0  0  0  0  0  0  0  0  0  0  0  0
  147.7918  138.9130  152.4310 N   0  0  0  0  0  0  0  0  0  0  0  0
  146.6414  138.8669  151.5363 C   0  0  0  0  0  0  0  0  0  0  0  0
  145.6015  137.8301  152.0094 C   0  0  0  0  0  0  0  0  0  0  0  0
  146.0448  136.4235  151.7892 N   0  3  2  0  0  0  0  0  0  0  0  0
  145.4646  135.8656  150.5323 C   0  0  0  0  0  0  0  0  0  0  0  0
  146.0103  134.4674  150.2135 C   0  0  0  0  0  0  0  0  0  0  0  0
  145.7318  133.5108  151.3718 C   0  0  0  0  0  0  0  0  0  0  0  0
  146.3305  134.0874  152.6567 C   0  0  0  0  0  0  0  0  0  0  0  0
  145.8103  135.5114  152.9580 C   0  0  1  0  0  0  0  0  0  0  0  0
  146.4763  136.0039  154.2608 C   0  0  0  0  0  0  0  0  0  0  0  0
  149.9929  138.4241  154.0141 C   0  0  0  0  0  0  0  0  0  0  0  0
  151.1465  138.2820  154.7031 C   0  0  0  0  0  0  0  0  0  0  0  0
  151.6060  139.2889  155.6611 C   0  0  0  0  0  0  0  0  0  0  0  0
  152.6480  139.1782  156.3063 O   0  0  0  0  0  0  0  0  0  0  0  0
  153.3553  142.2325  159.9634 H   0  0  0  0  0  0  0  0  0  0  0  0
  151.6339  142.5009  160.2415 H   0  0  0  0  0  0  0  0  0  0  0  0
  152.4045  143.1118  158.7655 H   0  0  0  0  0  0  0  0  0  0  0  0
  150.4011  140.0717  158.2153 H   0  0  0  0  0  0  0  0  0  0  0  0
  150.1800  141.7652  158.6462 H   0  0  0  0  0  0  0  0  0  0  0  0
  150.4495  142.3292  156.4594 H   0  0  0  0  0  0  0  0  0  0  0  0
  152.1034  141.8092  156.5501 H   0  0  0  0  0  0  0  0  0  0  0  0
  148.5474  138.2695  152.2420 H   0  0  0  0  0  0  0  0  0  0  0  0
  146.2201  139.8689  151.4606 H   0  0  0  0  0  0  0  0  0  0  0  0
  146.9988  138.6047  150.5402 H   0  0  0  0  0  0  0  0  0  0  0  0
  145.4366  138.0305  153.0647 H   0  0  0  0  0  0  0  0  0  0  0  0
  144.6391  137.9866  151.5200 H   0  0  0  0  0  0  0  0  0  0  0  0
  144.3775  135.8274  150.6202 H   0  0  0  0  0  0  0  0  0  0  0  0
  145.6837  136.5109  149.6839 H   0  0  0  0  0  0  0  0  0  0  0  0
  145.5523  134.0875  149.2997 H   0  0  0  0  0  0  0  0  0  0  0  0
  147.0833  134.5221  150.0245 H   0  0  0  0  0  0  0  0  0  0  0  0
  144.6567  133.3694  151.4907 H   0  0  0  0  0  0  0  0  0  0  0  0
  146.1578  132.5289  151.1627 H   0  0  0  0  0  0  0  0  0  0  0  0
  146.0984  133.4204  153.4879 H   0  0  0  0  0  0  0  0  0  0  0  0
  147.4184  134.1028  152.5719 H   0  0  0  0  0  0  0  0  0  0  0  0
  144.7338  135.4532  153.1276 H   0  0  0  0  0  0  0  0  0  0  0  0
  146.4445  135.2309  155.0296 H   0  0  0  0  0  0  0  0  0  0  0  0
  145.9716  136.8683  154.6904 H   0  0  0  0  0  0  0  0  0  0  0  0
  147.5237  136.2614  154.1007 H   0  0  0  0  0  0  0  0  0  0  0  0
  149.6781  137.6643  153.3134 H   0  0  0  0  0  0  0  0  0  0  0  0
  151.7490  137.3998  154.5438 H   0  0  0  0  0  0  0  0  0  0  0  0
  147.0459  136.4562  151.6603 H   0  0  0  0  0  0  0  0  0  0  0  0
  1  2  1  0  0  0  0
  1 24  1  0  0  0  0
  1 25  1  0  0  0  0
  1 26  1  0  0  0  0
  2  3  1  0  0  0  0
  3  4  1  0  0  0  0
  3 27  1  0  0  0  0
  3 28  1  0  0  0  0
  4  5  1  0  0  0  0
  4 29  1  0  0  0  0
  4 30  1  0  0  0  0
  5 22  1  0  0  0  0
  5  6  1  0  0  0  0
  6  7  2  0  0  0  0
  7  8  1  0  0  0  0
  7 20  1  0  0  0  0
  8  9  2  0  0  0  0
  8 10  1  0  0  0  0
 10 11  1  0  0  0  0
 10 31  1  0  0  0  0
 11 12  1  0  0  0  0
 11 32  1  0  0  0  0
 11 33  1  0  0  0  0
 12 13  1  0  0  0  0
 12 34  1  0  0  0  0
 12 35  1  0  0  0  0
 13 18  1  0  0  0  0
 13 14  1  0  0  0  0
 13 50  1  0  0  0  0
 14 15  1  0  0  0  0
 14 36  1  0  0  0  0
 14 37  1  0  0  0  0
 15 16  1  0  0  0  0
 15 38  1  0  0  0  0
 15 39  1  0  0  0  0
 16 17  1  0  0  0  0
 16 40  1  0  0  0  0
 16 41  1  0  0  0  0
 17 18  1  0  0  0  0
 17 42  1  0  0  0  0
 17 43  1  0  0  0  0
 18 19  1  0  0  0  0
 18 44  1  0  0  0  0
 19 45  1  0  0  0  0
 19 46  1  0  0  0  0
 19 47  1  0  0  0  0
 20 21  2  0  0  0  0
 20 48  1  0  0  0  0
 21 22  1  0  0  0  0
 21 49  1  0  0  0  0
 22 23  2  0  0  0  0
M  CHG  1  13   1
M  END
> <s_m_source_file>
AV-unprocessed.smi

> <i_m_source_file_index>
1235

> <i_lp_mmshare_version>
43012

> <i_f3d_flags>
0

> <s_epik_input>
W0NIM11PW0NIMl1bQ0gyXW4xbmMoW2NIXVtjSF1jMT1PKUMoPU8pW05IXVtDSDJdW0NIMl1OMltDSDJdW0NIMl1bQ0gyXVtDSDJdW0NASF0yW0NIM10=

> <s_epik_cmdline>
J2VwaWtfcHl0aG9uJywgJy1waCcsICc3LjAnLCAnLXRuJywgJzgnLCAnLW1hJywgJzIwMCcsICctbWV0YWxfYmluZGluZycsICctaW1hZScsICc8aW5maWxlLm1hZT4nLCAnLW9tYWUnLCAnPG91dGZpbGUubWFlPic=

> <r_lp_tautomer_probability>
1

> <r_epik_Ionization_Penalty>
0.00271975

> <r_epik_Ionization_Penalty_Charging>
0.00271407

> <r_epik_Ionization_Penalty_Neutral>
5.6803e-06

> <r_epik_State_Penalty>
0.00189271

> <r_epik_Charging_Adjusted_Penalty>
0.00460678

> <i_epik_Tot_Q>
1

> <i_epik_Tot_abs_Q>
1

> <r_epik_Metal_State_Penalty>
-0

> <b_epik_Metal_Only>
0

> <s_lp_Force_Field>
OPLS_2005

> <r_lp_Energy>
40.0899

> <b_lp_Chiralities_Consistent>
1

> <s_lp_Variant>
AV-unprocessed.smi:1235-1

> <Gold.Version>
5.8.1

> <Gold.Id.Protein>
6NUR|6NUR_protein|mol2

> <Gold.PLP.Fitness>
52.3016

> <Gold.PLP.PLP>
-43.9584

> <Gold.PLP.part.hbond>
-3.9575

> <Gold.PLP.part.metal>
0.0000

> <Gold.PLP.part.buried>
-5.8504

> <Gold.PLP.part.nonpolar>
-35.0845

> <Gold.PLP.part.repulsive>
0.2820

> <Gold.PLP.ligand.clash>
0.0000

> <Gold.PLP.ligand.torsion>
1.6479

> <Gold.PLP.Chemscore.Hbond>
3.8160

> <Gold.PLP.Chemscore.CHOScore>
0.0000

> <Gold.PLP.Chemscore.Metal>
0.0000

> <Gold.Chemscore.Hbonds>
donor molecule, donor type, donor heavy atom, donor atom, acceptor molecule, acceptor atom, score
      L1  H    10    31       P1  7948  0.76
      L1  H    13    50       P1  7948  2.00
      P1  H  7997  8009       L1    23  1.00

> <Gold.PLP.Chemscore.Internal.Correction>
0.1909

> <Gold.Rescore>
     Score         DG    S(hbond)    S(metal)    S(lipo)     H(rot)  DE(clash)    DE(int)     intcor
     17.11     -19.14       2.68        0.00      84.03       2.00       0.31       1.72       ----

> <Gold.Chemscore.Fitness>
17.1083

> <Gold.Chemscore.DG>
-19.1424

> <Gold.Chemscore.ZeroCoef>
-5.4800

> <Gold.Chemscore.Hbond>
2.6816

> <Gold.Chemscore.Metal>
0.0000

> <Gold.Chemscore.Lipo>
84.0260

> <Gold.Chemscore.Internal_Hbond>
0.0000

> <Gold.Chemscore.DEClash>
0.3096

> <Gold.Chemscore.DEInternal>
1.7244

> <Gold.Chemscore.Rot>
2.0020

> <Gold.Chemscore.Internal.Correction>
   9.000000E+99

> <Gold.Chemscore.Hbonds>
donor molecule, donor type, donor heavy atom, donor atom, acceptor molecule, acceptor atom, score
      L1  H    10    31       P1  7948  0.73
      L1  H    13    50       P1  7948  1.00
      P1  H  7997  8009       L1    23  0.92

> <Gold.Chemscore.Hbond.Weighted>
-8.9565

> <Gold.Chemscore.Metal.Weighted>
-0.0000

> <Gold.Chemscore.Lipo.Weighted>
-9.8310

> <Gold.Chemscore.Internal_Hbond.Weighted>
0.0000

> <Gold.Chemscore.DEClash.Weighted>
0.3096

> <Gold.Chemscore.DEInternal.Weighted>
1.7244

> <Gold.Chemscore.Rot.Weighted>
5.1252

> <Gold.Chemscore.Internal.Correction.Weighted>
   9.000000E+99

> <Gold.Protein.RotatedTorsions>
[ 6907 6896 6895 6894 ] final  -42.64 input  -60.11 | X-H torsion
[ 7974 7965 7964 7962 ] final  133.50 input  175.53 | X-H torsion
[ 8008 7997 7996 7995 ] final -145.30 input   59.86 | X-H torsion
[ 10167 10162 10161 10158 ] final  -88.22 input  -65.29 | X-H torsion
[ 10718 10713 10712 10709 ] final -140.12 input   66.30 | X-H torsion
[ 10763 10752 10751 10750 ] final  115.81 input  -60.55 | X-H torsion
[ 11005 11000 10999 10996 ] final   99.09 input  -57.11 | X-H torsion

> <Gold.Protein.ActiveResidues>
 VAL166  LYS551  ARG553  GLY616  TRP617  ASP618  TYR619  PRO620  LYS621  CYS622 
 ASP623  PHE694  ASN695  SER759  ASP760  ASP761  ALA762  ILE779  LEU786  VAL792 
 PHE793  MET794  SER795  GLU796  ALA797  LYS798  CYS799  TRP800  GLU811  SER814 

> <Gold.Protein.RotatedAtoms>
  150.9529  134.8927  159.7682 H   0  0  0  0  0  0  0  0  0  0  0  0  # atno 6907 bound_to 6896
  152.5127  134.3781  159.9351 H   0  0  0  0  0  0  0  0  0  0  0  0  # atno 6908 bound_to 6896
  151.3796  133.3785  159.2743 H   0  0  0  0  0  0  0  0  0  0  0  0  # atno 6909 bound_to 6896
  144.9858  139.4457  143.5363 H   0  0  0  0  0  0  0  0  0  0  0  0  # atno 7974 bound_to 7965
  155.5410  140.0608  157.2870 H   0  0  0  0  0  0  0  0  0  0  0  0  # atno 8008 bound_to 7997
  154.4452  140.1919  156.0635 H   0  0  0  0  0  0  0  0  0  0  0  0  # atno 8009 bound_to 7997
  156.0584  140.3275  155.7437 H   0  0  0  0  0  0  0  0  0  0  0  0  # atno 8010 bound_to 7997
  140.3768  143.2768  151.9433 H   0  0  0  0  0  0  0  0  0  0  0  0  # atno 10167 bound_to 10162
  156.3187  130.7522  151.1615 H   0  0  0  0  0  0  0  0  0  0  0  0  # atno 10718 bound_to 10713
  153.5278  135.3584  155.2662 H   0  0  0  0  0  0  0  0  0  0  0  0  # atno 10763 bound_to 10752
  154.8729  135.4061  154.3185 H   0  0  0  0  0  0  0  0  0  0  0  0  # atno 10764 bound_to 10752
  153.3868  135.7070  153.6591 H   0  0  0  0  0  0  0  0  0  0  0  0  # atno 10765 bound_to 10752
  139.8771  134.9080  156.4554 H   0  0  0  0  0  0  0  0  0  0  0  0  # atno 11005 bound_to 11000
  146.3419  139.9160  142.8773 LP  0  0  0  0  0  0  0  0  0  0  0  0  # atno 17320 bound_to 7965
  145.2355  140.9989  143.3966 LP  0  0  0  0  0  0  0  0  0  0  0  0  # atno 17321 bound_to 7965
  139.4799  144.5856  151.7859 LP  0  0  0  0  0  0  0  0  0  0  0  0  # atno 17342 bound_to 10162
  140.4978  144.1214  150.5964 LP  0  0  0  0  0  0  0  0  0  0  0  0  # atno 17343 bound_to 10162
  157.7407  131.0513  150.5148 LP  0  0  0  0  0  0  0  0  0  0  0  0  # atno 17370 bound_to 10713
  156.5297  130.4182  149.6208 LP  0  0  0  0  0  0  0  0  0  0  0  0  # atno 17371 bound_to 10713
  140.8902  133.7854  155.9563 LP  0  0  0  0  0  0  0  0  0  0  0  0  # atno 17394 bound_to 11000
  140.8762  134.2667  157.5167 LP  0  0  0  0  0  0  0  0  0  0  0  0  # atno 17395 bound_to 11000

$$$$
