AV-unprocessed.smi:532|AV-procd|sdf|2849|dock6
  -GOLD-   2262023343D 1   1.00000     0.00000
 Structure written by MMmdl.
 49 51  0  0  0  0  0  0  0  0  1 V2000
  154.0576  137.3007  157.2698 C   0  0  0  0  0  0  0  0  0  0  0  0
  153.1838  137.4247  156.1618 O   0  0  0  0  0  0  0  0  0  0  0  0
  151.9762  138.0865  156.4959 C   0  0  0  0  0  0  0  0  0  0  0  0
  152.1782  139.5964  156.3269 C   0  0  0  0  0  0  0  0  0  0  0  0
  150.9151  140.2768  156.0691 N   0  0  0  0  0  0  0  0  0  0  0  0
  150.3463  141.3127  156.7464 C   0  0  0  0  0  0  0  0  0  0  0  0
  150.9575  141.9321  157.8412 N   0  0  0  0  0  0  0  0  0  0  0  0
  151.6916  141.1612  158.8456 C   0  0  0  0  0  0  0  0  0  0  0  0
  152.9493  141.8906  159.3514 C   0  0  2  0  0  0  0  0  0  0  0  0
  153.7229  141.0339  160.3626 C   0  0  0  0  0  0  0  0  0  0  0  0
  152.5527  143.2475  159.9534 C   0  0  0  0  0  0  0  0  0  0  0  0
  151.7109  144.0662  158.9612 C   0  0  1  0  0  0  0  0  0  0  0  0
  152.5675  144.7082  157.8574 C   0  0  0  0  0  0  0  0  0  0  0  0
  150.5391  143.2142  158.4190 C   0  0  0  0  0  0  0  0  0  0  0  0
  149.1373  141.6657  156.2977 N   0  0  0  0  0  0  0  0  0  0  0  0
  148.9235  140.7984  155.2387 C   0  0  0  0  0  0  0  0  0  0  0  0
  149.9725  139.9507  155.0919 C   0  0  0  0  0  0  0  0  0  0  0  0
  149.9929  138.8945  154.0701 C   0  0  0  0  0  0  0  0  0  0  0  0
  150.9218  138.1023  153.9300 O   0  0  0  0  0  0  0  0  0  0  0  0
  148.8764  138.8758  153.3022 N   0  0  0  0  0  0  0  0  0  0  0  0
  147.7903  139.7025  153.3933 C   0  0  0  0  0  0  0  0  0  0  0  0
  146.8410  139.5582  152.6231 O   0  0  0  0  0  0  0  0  0  0  0  0
  147.8085  140.6735  154.3617 N   0  0  0  0  0  0  0  0  0  0  0  0
  146.6720  141.5851  154.5069 C   0  0  0  0  0  0  0  0  0  0  0  0
  148.8394  138.1675  152.5839 H   0  0  0  0  0  0  0  0  0  0  0  0
  154.9658  136.7820  156.9636 H   0  0  0  0  0  0  0  0  0  0  0  0
  153.5962  136.7262  158.0742 H   0  0  0  0  0  0  0  0  0  0  0  0
  154.3437  138.2795  157.6571 H   0  0  0  0  0  0  0  0  0  0  0  0
  151.1664  137.7386  155.8527 H   0  0  0  0  0  0  0  0  0  0  0  0
  151.6982  137.8591  157.5265 H   0  0  0  0  0  0  0  0  0  0  0  0
  152.6468  140.0108  157.2116 H   0  0  0  0  0  0  0  0  0  0  0  0
  152.8766  139.8040  155.5178 H   0  0  0  0  0  0  0  0  0  0  0  0
  151.0238  140.9330  159.6777 H   0  0  0  0  0  0  0  0  0  0  0  0
  151.9845  140.2030  158.4143 H   0  0  0  0  0  0  0  0  0  0  0  0
  153.6085  142.0634  158.4999 H   0  0  0  0  0  0  0  0  0  0  0  0
  153.1167  140.8136  161.2418 H   0  0  0  0  0  0  0  0  0  0  0  0
  154.6258  141.5438  160.6991 H   0  0  0  0  0  0  0  0  0  0  0  0
  154.0262  140.0842  159.9210 H   0  0  0  0  0  0  0  0  0  0  0  0
  151.9693  143.0805  160.8602 H   0  0  0  0  0  0  0  0  0  0  0  0
  153.4374  143.8075  160.2585 H   0  0  0  0  0  0  0  0  0  0  0  0
  151.2730  144.8943  159.5196 H   0  0  0  0  0  0  0  0  0  0  0  0
  153.0343  143.9602  157.2185 H   0  0  0  0  0  0  0  0  0  0  0  0
  153.3642  145.3166  158.2858 H   0  0  0  0  0  0  0  0  0  0  0  0
  151.9677  145.3625  157.2251 H   0  0  0  0  0  0  0  0  0  0  0  0
  149.9456  143.7856  157.7069 H   0  0  0  0  0  0  0  0  0  0  0  0
  149.8563  142.9937  159.2407 H   0  0  0  0  0  0  0  0  0  0  0  0
  146.4401  142.0699  153.5577 H   0  0  0  0  0  0  0  0  0  0  0  0
  146.8600  142.3754  155.2334 H   0  0  0  0  0  0  0  0  0  0  0  0
  145.7875  141.0386  154.8362 H   0  0  0  0  0  0  0  0  0  0  0  0
  1  2  1  0  0  0  0
  1 26  1  0  0  0  0
  1 27  1  0  0  0  0
  1 28  1  0  0  0  0
  2  3  1  0  0  0  0
  3  4  1  0  0  0  0
  3 29  1  0  0  0  0
  3 30  1  0  0  0  0
  4  5  1  0  0  0  0
  4 31  1  0  0  0  0
  4 32  1  0  0  0  0
  5 17  1  0  0  0  0
  5  6  1  0  0  0  0
  6  7  1  0  0  0  0
  6 15  2  0  0  0  0
  7 14  1  0  0  0  0
  7  8  1  0  0  0  0
  8  9  1  0  0  0  0
  8 33  1  0  0  0  0
  8 34  1  0  0  0  0
  9 10  1  0  0  0  0
  9 11  1  0  0  0  0
  9 35  1  0  0  0  0
 10 36  1  0  0  0  0
 10 37  1  0  0  0  0
 10 38  1  0  0  0  0
 11 12  1  0  0  0  0
 11 39  1  0  0  0  0
 11 40  1  0  0  0  0
 12 13  1  0  0  0  0
 12 14  1  0  0  0  0
 12 41  1  0  0  0  0
 13 42  1  0  0  0  0
 13 43  1  0  0  0  0
 13 44  1  0  0  0  0
 14 45  1  0  0  0  0
 14 46  1  0  0  0  0
 15 16  1  0  0  0  0
 16 23  1  0  0  0  0
 16 17  2  0  0  0  0
 17 18  1  0  0  0  0
 18 19  2  0  0  0  0
 18 20  1  0  0  0  0
 20 25  1  0  0  0  0
 20 21  1  0  0  0  0
 21 22  2  0  0  0  0
 21 23  1  0  0  0  0
 23 24  1  0  0  0  0
 24 47  1  0  0  0  0
 24 48  1  0  0  0  0
 24 49  1  0  0  0  0
M  END
> <s_m_source_file>
AV-unprocessed.smi

> <i_m_source_file_index>
532

> <i_lp_mmshare_version>
43012

> <i_f3d_flags>
0

> <s_epik_input>
W0NIM11uMWMoPU8pW25IXWMoPU8pYyhjMTIpbihbQ0gyXVtDSDJdT1tDSDNdKWMobjIpTjNbQ0gyXVtDQEBIXShbQ0gzXSlbQ0gyXVtDQEBIXShbQ0gzXSlbQ0gyXTM=

> <s_epik_cmdline>
J2VwaWtfcHl0aG9uJywgJy1waCcsICc3LjAnLCAnLXRuJywgJzgnLCAnLW1hJywgJzIwMCcsICctbWV0YWxfYmluZGluZycsICctaW1hZScsICc8aW5maWxlLm1hZT4nLCAnLW9tYWUnLCAnPG91dGZpbGUubWFlPic=

> <r_lp_tautomer_probability>
1

> <r_epik_Ionization_Penalty>
0.000642525

> <r_epik_Ionization_Penalty_Charging>
0.000121571

> <r_epik_Ionization_Penalty_Neutral>
0.000520954

> <r_epik_State_Penalty>
-0

> <r_epik_Charging_Adjusted_Penalty>
0.000121571

> <i_epik_Tot_Q>
0

> <i_epik_Tot_abs_Q>
0

> <r_epik_Metal_State_Penalty>
0.0931709

> <b_epik_Metal_Only>
0

> <s_lp_Force_Field>
OPLS_2005

> <r_lp_Energy>
41.4845

> <b_lp_Chiralities_Consistent>
1

> <s_lp_Variant>
AV-unprocessed.smi:532-2

> <Gold.Version>
5.8.1

> <Gold.Id.Protein>
6NUR|6NUR_protein|mol2

> <Gold.PLP.Fitness>
50.1629

> <Gold.PLP.PLP>
-47.5213

> <Gold.PLP.part.hbond>
-2.9012

> <Gold.PLP.part.metal>
0.0000

> <Gold.PLP.part.buried>
-3.7731

> <Gold.PLP.part.nonpolar>
-42.1725

> <Gold.PLP.part.repulsive>
0.8087

> <Gold.PLP.ligand.clash>
0.0000

> <Gold.PLP.ligand.torsion>
0.7139

> <Gold.PLP.Chemscore.Hbond>
1.2246

> <Gold.PLP.Chemscore.CHOScore>
0.0000

> <Gold.PLP.Chemscore.Metal>
0.0000

> <Gold.Chemscore.Hbonds>
donor molecule, donor type, donor heavy atom, donor atom, acceptor molecule, acceptor atom, score
      L1  H    20    25       P1  7948  0.99
      P1  H 10752 10765       L1     2  0.20

> <Gold.PLP.Chemscore.Internal.Correction>
0.3956

> <Gold.Rescore>
     Score         DG    S(hbond)    S(metal)    S(lipo)     H(rot)  DE(clash)    DE(int)     intcor
     15.42     -18.14       1.42        0.00      99.01       1.43       0.27       2.45       ----

> <Gold.Chemscore.Fitness>
15.4150

> <Gold.Chemscore.DG>
-18.1359

> <Gold.Chemscore.ZeroCoef>
-5.4800

> <Gold.Chemscore.Hbond>
1.4188

> <Gold.Chemscore.Metal>
0.0000

> <Gold.Chemscore.Lipo>
99.0076

> <Gold.Chemscore.Internal_Hbond>
0.0000

> <Gold.Chemscore.DEClash>
0.2720

> <Gold.Chemscore.DEInternal>
2.4488

> <Gold.Chemscore.Rot>
1.4324

> <Gold.Chemscore.Internal.Correction>
   9.000000E+99

> <Gold.Chemscore.Hbonds>
donor molecule, donor type, donor heavy atom, donor atom, acceptor molecule, acceptor atom, score
      L1  H    20    25       P1  7948  0.90
      P1  H 10752 10765       L1     2  0.16

> <Gold.Chemscore.Hbond.Weighted>
-4.7389

> <Gold.Chemscore.Metal.Weighted>
-0.0000

> <Gold.Chemscore.Lipo.Weighted>
-11.5839

> <Gold.Chemscore.Internal_Hbond.Weighted>
0.0000

> <Gold.Chemscore.DEClash.Weighted>
0.2720

> <Gold.Chemscore.DEInternal.Weighted>
2.4488

> <Gold.Chemscore.Rot.Weighted>
3.6669

> <Gold.Chemscore.Internal.Correction.Weighted>
   9.000000E+99

> <Gold.Protein.RotatedTorsions>
[ 6907 6896 6895 6894 ] final -169.54 input  -60.11 | X-H torsion
[ 7974 7965 7964 7962 ] final   14.92 input  175.53 | X-H torsion
[ 8008 7997 7996 7995 ] final -159.23 input   59.86 | X-H torsion
[ 10167 10162 10161 10158 ] final  135.57 input  -65.29 | X-H torsion
[ 10718 10713 10712 10709 ] final  -38.55 input   66.30 | X-H torsion
[ 10763 10752 10751 10750 ] final -160.16 input  -60.55 | X-H torsion
[ 11005 11000 10999 10996 ] final -147.40 input  -57.11 | X-H torsion

> <Gold.Protein.ActiveResidues>
 VAL166  LYS551  ARG553  GLY616  TRP617  ASP618  TYR619  PRO620  LYS621  CYS622 
 ASP623  PHE694  ASN695  SER759  ASP760  ASP761  ALA762  ILE779  LEU786  VAL792 
 PHE793  MET794  SER795  GLU796  ALA797  LYS798  CYS799  TRP800  GLU811  SER814 

> <Gold.Protein.RotatedAtoms>
  151.4933  133.3520  159.2856 H   0  0  0  0  0  0  0  0  0  0  0  0  # atno 6907 bound_to 6896
  150.8820  134.8215  159.7243 H   0  0  0  0  0  0  0  0  0  0  0  0  # atno 6908 bound_to 6896
  152.4769  134.4832  159.9724 H   0  0  0  0  0  0  0  0  0  0  0  0  # atno 6909 bound_to 6896
  146.2292  139.8970  142.8545 H   0  0  0  0  0  0  0  0  0  0  0  0  # atno 7974 bound_to 7965
  155.7595  140.0837  157.2162 H   0  0  0  0  0  0  0  0  0  0  0  0  # atno 8008 bound_to 7997
  154.4005  140.1545  156.2872 H   0  0  0  0  0  0  0  0  0  0  0  0  # atno 8009 bound_to 7997
  155.8853  140.3418  155.5920 H   0  0  0  0  0  0  0  0  0  0  0  0  # atno 8010 bound_to 7997
  139.5212  144.6510  151.5302 H   0  0  0  0  0  0  0  0  0  0  0  0  # atno 10167 bound_to 10162
  156.3025  130.4242  149.8129 H   0  0  0  0  0  0  0  0  0  0  0  0  # atno 10718 bound_to 10713
  154.7413  135.3069  154.8722 H   0  0  0  0  0  0  0  0  0  0  0  0  # atno 10763 bound_to 10752
  153.9536  135.6761  153.4748 H   0  0  0  0  0  0  0  0  0  0  0  0  # atno 10764 bound_to 10752
  153.1012  135.4911  154.8795 H   0  0  0  0  0  0  0  0  0  0  0  0  # atno 10765 bound_to 10752
  140.7720  134.3178  157.5072 H   0  0  0  0  0  0  0  0  0  0  0  0  # atno 11005 bound_to 11000
  145.2361  140.9991  143.3963 LP  0  0  0  0  0  0  0  0  0  0  0  0  # atno 17320 bound_to 7965
  144.9490  139.4103  143.6411 LP  0  0  0  0  0  0  0  0  0  0  0  0  # atno 17321 bound_to 7965
  140.6315  143.9067  150.6609 LP  0  0  0  0  0  0  0  0  0  0  0  0  # atno 17342 bound_to 10162
  140.2373  143.3690  152.1516 LP  0  0  0  0  0  0  0  0  0  0  0  0  # atno 17343 bound_to 10162
  156.5503  130.8339  151.3297 LP  0  0  0  0  0  0  0  0  0  0  0  0  # atno 17370 bound_to 10713
  157.7371  130.9790  150.2175 LP  0  0  0  0  0  0  0  0  0  0  0  0  # atno 17371 bound_to 10713
  139.8754  134.9266  156.3405 LP  0  0  0  0  0  0  0  0  0  0  0  0  # atno 17394 bound_to 11000
  140.9564  133.7417  156.0342 LP  0  0  0  0  0  0  0  0  0  0  0  0  # atno 17395 bound_to 11000

$$$$
