AV-unprocessed.smi:1732|AV-procd|sdf|6977|dock7
  -GOLD-   22720 8193D 1   1.00000     0.00000
 Structure written by MMmdl.
 35 36  0  0  0  0  0  0  0  0  2 V2000
  150.6469  138.9275  157.4112 O   0  0  0  0  0  0  0  0  0  0  0  0
  151.1735  139.6312  156.5500 C   0  0  0  0  0  0  0  0  0  0  0  0
  151.0451  139.2347  155.0818 C   0  0  0  0  0  0  0  0  0  0  0  0
  150.3940  140.2877  154.3875 O   0  0  0  0  0  0  0  0  0  0  0  0
  149.0029  140.3755  154.6584 C   0  0  0  0  0  0  0  0  0  0  0  0
  148.2373  139.3154  153.8681 C   0  0  0  0  0  0  0  0  0  0  0  0
  146.8026  139.8476  153.7820 C   0  0  0  0  0  0  0  0  0  0  0  0
  146.8963  141.3703  153.9693 C   0  0  0  0  0  0  0  0  0  0  0  0
  148.3814  141.6891  154.1759 C   0  0  0  0  0  0  0  0  0  0  0  0
  151.8574  140.7691  156.7802 N   0  0  0  0  0  0  0  0  0  0  0  0
  152.1714  141.3877  158.0021 C   0  0  0  0  0  0  0  0  0  0  0  0
  151.6720  142.5857  158.4145 C   0  0  0  0  0  0  0  0  0  0  0  0
  152.0191  143.1739  159.7022 C   0  0  0  0  0  0  0  0  0  0  0  0
  151.5561  144.5464  160.1576 C   0  0  0  0  0  0  0  0  0  0  0  0
  152.0090  144.8209  161.3811 F   0  0  0  0  0  0  0  0  0  0  0  0
  151.9838  145.4976  159.3272 F   0  0  0  0  0  0  0  0  0  0  0  0
  150.2248  144.5888  160.1893 F   0  0  0  0  0  0  0  0  0  0  0  0
  152.8987  142.3858  160.4186 C   0  0  0  0  0  0  0  0  0  0  0  0
  153.4174  141.1805  160.0962 N   0  5  0  0  0  0  0  0  0  0  0  0
  153.0826  140.6377  158.8914 C   0  0  0  0  0  0  0  0  0  0  0  0
  153.5212  139.5441  158.5332 O   0  0  0  0  0  0  0  0  0  0  0  0
  152.0353  139.0561  154.6594 H   0  0  0  0  0  0  0  0  0  0  0  0
  150.4804  138.3044  155.0065 H   0  0  0  0  0  0  0  0  0  0  0  0
  148.8045  140.2332  155.7226 H   0  0  0  0  0  0  0  0  0  0  0  0
  148.6533  139.2350  152.8626 H   0  0  0  0  0  0  0  0  0  0  0  0
  148.2929  138.3283  154.3280 H   0  0  0  0  0  0  0  0  0  0  0  0
  146.3356  139.5803  152.8334 H   0  0  0  0  0  0  0  0  0  0  0  0
  146.1943  139.4156  154.5777 H   0  0  0  0  0  0  0  0  0  0  0  0
  146.4904  141.9118  153.1143 H   0  0  0  0  0  0  0  0  0  0  0  0
  146.3217  141.6695  154.8466 H   0  0  0  0  0  0  0  0  0  0  0  0
  148.5379  142.5124  154.8733 H   0  0  0  0  0  0  0  0  0  0  0  0
  148.8264  141.9750  153.2216 H   0  0  0  0  0  0  0  0  0  0  0  0
  152.1617  141.2805  155.9643 H   0  0  0  0  0  0  0  0  0  0  0  0
  150.9757  143.1331  157.8006 H   0  0  0  0  0  0  0  0  0  0  0  0
  153.2379  142.7859  161.3980 H   0  0  0  0  0  0  0  0  0  0  0  0
  1  2  2  0  0  0  0
  2  3  1  0  0  0  0
  2 10  1  0  0  0  0
  3  4  1  0  0  0  0
  3 22  1  0  0  0  0
  3 23  1  0  0  0  0
  4  5  1  0  0  0  0
  5  9  1  0  0  0  0
  5  6  1  0  0  0  0
  5 24  1  0  0  0  0
  6  7  1  0  0  0  0
  6 25  1  0  0  0  0
  6 26  1  0  0  0  0
  7  8  1  0  0  0  0
  7 27  1  0  0  0  0
  7 28  1  0  0  0  0
  8  9  1  0  0  0  0
  8 29  1  0  0  0  0
  8 30  1  0  0  0  0
  9 31  1  0  0  0  0
  9 32  1  0  0  0  0
 10 11  1  0  0  0  0
 10 33  1  0  0  0  0
 11 20  1  0  0  0  0
 11 12  2  0  0  0  0
 12 13  1  0  0  0  0
 12 34  1  0  0  0  0
 13 14  1  0  0  0  0
 13 18  2  0  0  0  0
 14 15  1  0  0  0  0
 14 16  1  0  0  0  0
 14 17  1  0  0  0  0
 18 19  1  0  0  0  0
 18 35  1  0  0  0  0
 19 20  1  0  0  0  0
 20 21  2  0  0  0  0
M  CHG  1  19  -1
M  END
> <s_m_source_file>
AV-unprocessed.smi

> <i_m_source_file_index>
1732

> <i_lp_mmshare_version>
43012

> <i_f3d_flags>
0

> <s_epik_input>
W0NIMl0xW0NIMl1bQ0gyXVtDSDJdW0NIXTFPW0NIMl1DKD1PKVtOSF1jMltjSF1jKEMoRikoRilGKVtjSF1bbkhdYzI9Tw==

> <s_epik_cmdline>
J2VwaWtfcHl0aG9uJywgJy1waCcsICc3LjAnLCAnLXRuJywgJzgnLCAnLW1hJywgJzIwMCcsICctbWV0YWxfYmluZGluZycsICctaW1hZScsICc8aW5maWxlLm1hZT4nLCAnLW9tYWUnLCAnPG91dGZpbGUubWFlPic=

> <r_epik_Ionization_Penalty>
2.40879

> <r_epik_Ionization_Penalty_Charging>
0.039975

> <r_epik_Ionization_Penalty_Neutral>
2.36882

> <r_epik_State_Penalty>
2.52443

> <r_epik_Charging_Adjusted_Penalty>
2.5644

> <i_epik_Tot_Q>
-1

> <i_epik_Tot_abs_Q>
1

> <r_epik_Metal_State_Penalty>
0.506326

> <b_epik_Metal_Only>
0

> <s_lp_Force_Field>
OPLS_2005

> <r_lp_Energy>
39.1091

> <b_lp_Chiralities_Consistent>
1

> <s_lp_Variant>
AV-unprocessed.smi:1732-2

> <Gold.Version>
5.8.1

> <Gold.Id.Protein>
6NUR|6NUR_protein|mol2

> <Gold.PLP.Fitness>
46.8148

> <Gold.PLP.PLP>
-42.4383

> <Gold.PLP.part.hbond>
-2.0000

> <Gold.PLP.part.metal>
0.0000

> <Gold.PLP.part.buried>
-1.9252

> <Gold.PLP.part.nonpolar>
-38.1919

> <Gold.PLP.part.repulsive>
0.2455

> <Gold.PLP.ligand.clash>
0.0000

> <Gold.PLP.ligand.torsion>
0.8464

> <Gold.PLP.Chemscore.Hbond>
2.0000

> <Gold.PLP.Chemscore.CHOScore>
0.0000

> <Gold.PLP.Chemscore.Metal>
0.0000

> <Gold.Chemscore.Hbonds>
donor molecule, donor type, donor heavy atom, donor atom, acceptor molecule, acceptor atom, score
      P1  H  7989  7998       L1     4  1.00
      P1  H  7997  8010       L1    21  1.00

> <Gold.PLP.Chemscore.Internal.Correction>
0.0693

> <Gold.Rescore>
     Score         DG    S(hbond)    S(metal)    S(lipo)     H(rot)  DE(clash)    DE(int)     intcor
     15.93     -17.82       1.76        0.00      89.58       1.58       0.99       0.90       ----

> <Gold.Chemscore.Fitness>
15.9279

> <Gold.Chemscore.DG>
-17.8161

> <Gold.Chemscore.ZeroCoef>
-5.4800

> <Gold.Chemscore.Hbond>
1.7649

> <Gold.Chemscore.Metal>
0.0000

> <Gold.Chemscore.Lipo>
89.5826

> <Gold.Chemscore.Internal_Hbond>
0.0000

> <Gold.Chemscore.DEClash>
0.9890

> <Gold.Chemscore.DEInternal>
0.8991

> <Gold.Chemscore.Rot>
1.5781

> <Gold.Chemscore.Internal.Correction>
   9.000000E+99

> <Gold.Chemscore.Hbonds>
donor molecule, donor type, donor heavy atom, donor atom, acceptor molecule, acceptor atom, score
      P1  H  7989  7998       L1     4  0.29
      P1  H  7997  8010       L1    21  0.35

> <Gold.Chemscore.Hbond.Weighted>
-5.8948

> <Gold.Chemscore.Metal.Weighted>
-0.0000

> <Gold.Chemscore.Lipo.Weighted>
-10.4812

> <Gold.Chemscore.Internal_Hbond.Weighted>
0.0000

> <Gold.Chemscore.DEClash.Weighted>
0.9890

> <Gold.Chemscore.DEInternal.Weighted>
0.8991

> <Gold.Chemscore.Rot.Weighted>
4.0399

> <Gold.Chemscore.Internal.Correction.Weighted>
   9.000000E+99

> <Gold.Protein.RotatedTorsions>
[ 6907 6896 6895 6894 ] final   77.69 input  -60.11 | X-H torsion
[ 7974 7965 7964 7962 ] final  107.38 input  175.53 | X-H torsion
[ 8008 7997 7996 7995 ] final   27.00 input   59.86 | X-H torsion
[ 10167 10162 10161 10158 ] final   63.76 input  -65.29 | X-H torsion
[ 10718 10713 10712 10709 ] final  156.80 input   66.30 | X-H torsion
[ 10763 10752 10751 10750 ] final    8.81 input  -60.55 | X-H torsion
[ 11005 11000 10999 10996 ] final  -50.47 input  -57.11 | X-H torsion

> <Gold.Protein.ActiveResidues>
 VAL166  LYS551  ARG553  GLY616  TRP617  ASP618  TYR619  PRO620  LYS621  CYS622 
 ASP623  PHE694  ASN695  SER759  ASP760  ASP761  ALA762  ILE779  LEU786  VAL792 
 PHE793  MET794  SER795  GLU796  ALA797  LYS798  CYS799  TRP800  GLU811  SER814 

> <Gold.Protein.RotatedAtoms>
  152.5128  134.3778  159.9340 H   0  0  0  0  0  0  0  0  0  0  0  0  # atno 6907 bound_to 6896
  151.3735  133.3840  159.2710 H   0  0  0  0  0  0  0  0  0  0  0  0  # atno 6908 bound_to 6896
  150.9560  134.8974  159.7759 H   0  0  0  0  0  0  0  0  0  0  0  0  # atno 6909 bound_to 6896
  145.2943  139.2590  143.3848 H   0  0  0  0  0  0  0  0  0  0  0  0  # atno 7974 bound_to 7965
  155.0360  140.3164  155.4741 H   0  0  0  0  0  0  0  0  0  0  0  0  # atno 8008 bound_to 7997
  156.2864  140.2171  156.5426 H   0  0  0  0  0  0  0  0  0  0  0  0  # atno 8009 bound_to 7997
  154.7330  140.0480  157.0731 H   0  0  0  0  0  0  0  0  0  0  0  0  # atno 8010 bound_to 7997
  140.1295  144.4656  150.6873 H   0  0  0  0  0  0  0  0  0  0  0  0  # atno 10167 bound_to 10162
  157.2001  131.0674  151.2030 H   0  0  0  0  0  0  0  0  0  0  0  0  # atno 10718 bound_to 10713
  153.2209  135.6881  153.8001 H   0  0  0  0  0  0  0  0  0  0  0  0  # atno 10763 bound_to 10752
  153.7200  135.3269  155.3265 H   0  0  0  0  0  0  0  0  0  0  0  0  # atno 10764 bound_to 10752
  154.8269  135.4611  154.1056 H   0  0  0  0  0  0  0  0  0  0  0  0  # atno 10765 bound_to 10752
  141.0818  133.6651  156.3736 H   0  0  0  0  0  0  0  0  0  0  0  0  # atno 11005 bound_to 11000
  146.3174  140.3442  142.8650 LP  0  0  0  0  0  0  0  0  0  0  0  0  # atno 17320 bound_to 7965
  144.9146  140.7797  143.5786 LP  0  0  0  0  0  0  0  0  0  0  0  0  # atno 17321 bound_to 7965
  140.6825  143.2333  151.5347 LP  0  0  0  0  0  0  0  0  0  0  0  0  # atno 17342 bound_to 10162
  139.5527  144.2355  152.1558 LP  0  0  0  0  0  0  0  0  0  0  0  0  # atno 17343 bound_to 10162
  157.3775  130.7214  149.6607 LP  0  0  0  0  0  0  0  0  0  0  0  0  # atno 17370 bound_to 10713
  155.9701  130.4181  150.4313 LP  0  0  0  0  0  0  0  0  0  0  0  0  # atno 17371 bound_to 10713
  140.5452  134.6081  157.5391 LP  0  0  0  0  0  0  0  0  0  0  0  0  # atno 17394 bound_to 11000
  139.9632  134.7417  156.0193 LP  0  0  0  0  0  0  0  0  0  0  0  0  # atno 17395 bound_to 11000

$$$$
