AV-unprocessed.smi:193|AV-procd|sdf|1503|dock6
  -GOLD-   2262019333D 1   1.00000     0.00000
 Structure written by MMmdl.
 62 66  0  0  0  0  0  0  0  0  2 V2000
  147.4489  135.9173  159.0224 C   0  0  0  0  0  0  0  0  0  0  0  0
  148.1009  136.1146  157.6466 C   0  0  1  0  0  0  0  0  0  0  0  0
  149.5887  135.7023  157.7059 C   0  0  0  0  0  0  0  0  0  0  0  0
  150.2825  135.8344  156.4245 N   0  0  0  0  0  0  0  0  0  0  0  0
  150.7293  137.0459  155.9703 C   0  0  0  0  0  0  0  0  0  0  0  0
  151.6118  137.0464  154.9341 N   0  0  0  0  0  0  0  0  0  0  0  0
  152.0789  138.1863  154.4213 C   0  0  0  0  0  0  0  0  0  0  0  0
  151.7997  139.4358  154.7858 N   0  0  0  0  0  0  0  0  0  0  0  0
  150.9229  139.4594  155.8280 C   0  0  0  0  0  0  0  0  0  0  0  0
  150.3434  138.3282  156.4776 C   0  0  0  0  0  0  0  0  0  0  0  0
  149.4965  138.7736  157.4887 N   0  0  0  0  0  0  0  0  0  0  0  0
  149.5729  140.0741  157.4411 C   0  0  0  0  0  0  0  0  0  0  0  0
  150.4134  140.5715  156.4746 N   0  0  0  0  0  0  0  0  0  0  0  0
  150.6914  141.9732  156.1992 C   0  0  0  0  0  0  0  0  0  0  0  0
  151.0430  142.8015  157.4600 C   0  0  0  0  0  0  0  0  0  0  0  0
  149.8246  143.2171  158.0534 O   0  0  0  0  0  0  0  0  0  0  0  0
  151.8424  141.9892  158.5030 C   0  0  0  0  0  0  0  0  0  0  0  0
  152.3618  142.8725  159.6513 C   0  0  0  0  0  0  0  0  0  0  0  0
  153.1276  143.9525  159.1313 O   0  0  0  0  0  0  0  0  0  0  0  0
  152.3631  144.8216  158.3045 C   0  0  0  0  0  0  0  0  0  0  0  0
  151.8480  144.0579  157.0717 C   0  0  0  0  0  0  0  0  0  0  0  0
  150.0329  134.7559  155.4616 C   0  0  0  0  0  0  0  0  0  0  0  0
  148.7811  134.9726  154.5812 C   0  0  0  0  0  0  0  0  0  0  0  0
  147.7342  135.8232  155.2041 N   0  3  1  0  0  0  0  0  0  0  0  0
  146.6013  136.0680  154.2829 C   0  0  1  0  0  0  0  0  0  0  0  0
  145.5062  136.9309  154.8700 C   0  0  0  0  0  0  0  0  0  0  0  0
  146.4479  137.5127  153.8392 C   0  0  1  0  0  0  0  0  0  0  0  0
  147.4106  138.6189  154.2344 C   0  0  0  0  0  0  0  0  0  0  0  0
  147.3121  135.3655  156.5521 C   0  0  0  0  0  0  0  0  0  0  0  0
  147.4503  134.8668  159.3156 H   0  0  0  0  0  0  0  0  0  0  0  0
  146.4145  136.2618  159.0227 H   0  0  0  0  0  0  0  0  0  0  0  0
  147.9802  136.4788  159.7917 H   0  0  0  0  0  0  0  0  0  0  0  0
  148.0427  137.1802  157.4221 H   0  0  0  0  0  0  0  0  0  0  0  0
  150.1202  136.2449  158.4857 H   0  0  0  0  0  0  0  0  0  0  0  0
  149.6507  134.6592  158.0183 H   0  0  0  0  0  0  0  0  0  0  0  0
  152.7719  138.0821  153.5995 H   0  0  0  0  0  0  0  0  0  0  0  0
  149.0194  140.7107  158.1165 H   0  0  0  0  0  0  0  0  0  0  0  0
  151.5112  142.0206  155.4811 H   0  0  0  0  0  0  0  0  0  0  0  0
  149.8236  142.4000  155.6937 H   0  0  0  0  0  0  0  0  0  0  0  0
  149.4226  143.8627  157.4923 H   0  0  0  0  0  0  0  0  0  0  0  0
  151.2388  141.1776  158.9111 H   0  0  0  0  0  0  0  0  0  0  0  0
  152.6972  141.5195  158.0149 H   0  0  0  0  0  0  0  0  0  0  0  0
  151.5388  143.2544  160.2571 H   0  0  0  0  0  0  0  0  0  0  0  0
  152.9940  142.2836  160.3161 H   0  0  0  0  0  0  0  0  0  0  0  0
  151.5387  145.2537  158.8740 H   0  0  0  0  0  0  0  0  0  0  0  0
  152.9962  145.6515  157.9899 H   0  0  0  0  0  0  0  0  0  0  0  0
  152.7067  143.7630  156.4669 H   0  0  0  0  0  0  0  0  0  0  0  0
  151.2479  144.7197  156.4457 H   0  0  0  0  0  0  0  0  0  0  0  0
  150.9110  134.5731  154.8411 H   0  0  0  0  0  0  0  0  0  0  0  0
  149.8977  133.8314  156.0241 H   0  0  0  0  0  0  0  0  0  0  0  0
  149.0908  135.4550  153.6540 H   0  0  0  0  0  0  0  0  0  0  0  0
  148.3604  134.0081  154.2938 H   0  0  0  0  0  0  0  0  0  0  0  0
  146.3420  135.2474  153.6163 H   0  0  0  0  0  0  0  0  0  0  0  0
  144.4848  136.7318  154.5523 H   0  0  0  0  0  0  0  0  0  0  0  0
  145.6124  137.2672  155.9000 H   0  0  0  0  0  0  0  0  0  0  0  0
  146.0350  137.6457  152.8411 H   0  0  0  0  0  0  0  0  0  0  0  0
  147.7171  138.5278  155.2767 H   0  0  0  0  0  0  0  0  0  0  0  0
  146.9320  139.5897  154.1067 H   0  0  0  0  0  0  0  0  0  0  0  0
  148.2994  138.5887  153.6042 H   0  0  0  0  0  0  0  0  0  0  0  0
  147.4135  134.2836  156.6514 H   0  0  0  0  0  0  0  0  0  0  0  0
  146.2506  135.5775  156.6880 H   0  0  0  0  0  0  0  0  0  0  0  0
  148.1571  136.7288  155.3489 H   0  0  0  0  0  0  0  0  0  0  0  0
  1  2  1  0  0  0  0
  1 30  1  0  0  0  0
  1 31  1  0  0  0  0
  1 32  1  0  0  0  0
  2 29  1  0  0  0  0
  2  3  1  0  0  0  0
  2 33  1  0  0  0  0
  3  4  1  0  0  0  0
  3 34  1  0  0  0  0
  3 35  1  0  0  0  0
  4  5  1  0  0  0  0
  4 22  1  0  0  0  0
  5 10  1  0  0  0  0
  5  6  2  0  0  0  0
  6  7  1  0  0  0  0
  7  8  2  0  0  0  0
  7 36  1  0  0  0  0
  8  9  1  0  0  0  0
  9 13  1  0  0  0  0
  9 10  2  0  0  0  0
 10 11  1  0  0  0  0
 11 12  2  0  0  0  0
 12 13  1  0  0  0  0
 12 37  1  0  0  0  0
 13 14  1  0  0  0  0
 14 15  1  0  0  0  0
 14 38  1  0  0  0  0
 14 39  1  0  0  0  0
 15 21  1  0  0  0  0
 15 16  1  0  0  0  0
 15 17  1  0  0  0  0
 16 40  1  0  0  0  0
 17 18  1  0  0  0  0
 17 41  1  0  0  0  0
 17 42  1  0  0  0  0
 18 19  1  0  0  0  0
 18 43  1  0  0  0  0
 18 44  1  0  0  0  0
 19 20  1  0  0  0  0
 20 21  1  0  0  0  0
 20 45  1  0  0  0  0
 20 46  1  0  0  0  0
 21 47  1  0  0  0  0
 21 48  1  0  0  0  0
 22 23  1  0  0  0  0
 22 49  1  0  0  0  0
 22 50  1  0  0  0  0
 23 24  1  0  0  0  0
 23 51  1  0  0  0  0
 23 52  1  0  0  0  0
 24 25  1  0  0  0  0
 24 29  1  0  0  0  0
 24 62  1  0  0  0  0
 25 27  1  0  0  0  0
 25 26  1  0  0  0  0
 25 53  1  0  0  0  0
 26 27  1  0  0  0  0
 26 54  1  0  0  0  0
 26 55  1  0  0  0  0
 27 28  1  0  0  0  0
 27 56  1  0  0  0  0
 28 57  1  0  0  0  0
 28 58  1  0  0  0  0
 28 59  1  0  0  0  0
 29 60  1  0  0  0  0
 29 61  1  0  0  0  0
M  CHG  1  24   1
M  END
> <s_m_source_file>
AV-unprocessed.smi

> <i_m_source_file_index>
193

> <i_lp_mmshare_version>
43012

> <i_f3d_flags>
0

> <s_epik_input>
W0NIM11bQ0BASF0xW0NIMl1bQ0BIXTFOKFtDSDJdMilbQ0gyXVtDSDJdTihbQ0gyXVtDQEhdMltDSDNdKWMobltjSF1uMyljKGMzNCluW2NIXW40W0NIMl1DNShbT0hdKVtDSDJdW0NIMl1PW0NIMl1bQ0gyXTU=

> <s_epik_cmdline>
J2VwaWtfcHl0aG9uJywgJy1waCcsICc3LjAnLCAnLXRuJywgJzgnLCAnLW1hJywgJzIwMCcsICctbWV0YWxfYmluZGluZycsICctaW1hZScsICc8aW5maWxlLm1hZT4nLCAnLW9tYWUnLCAnPG91dGZpbGUubWFlPic=

> <r_lp_tautomer_probability>
1

> <r_epik_Ionization_Penalty>
0.0540825

> <r_epik_Ionization_Penalty_Charging>
0.0538476

> <r_epik_Ionization_Penalty_Neutral>
0.000234891

> <r_epik_State_Penalty>
0.0200719

> <r_epik_Charging_Adjusted_Penalty>
0.0739194

> <i_epik_Tot_Q>
1

> <i_epik_Tot_abs_Q>
1

> <r_epik_Metal_State_Penalty>
0.0199414

> <b_epik_Metal_Only>
0

> <s_lp_Force_Field>
OPLS_2005

> <r_lp_Energy>
52.5482

> <b_lp_Chiralities_Consistent>
1

> <s_lp_Variant>
AV-unprocessed.smi:193-8

> <Gold.Version>
5.8.1

> <Gold.Id.Protein>
6NUR|6NUR_protein|mol2

> <Gold.PLP.Fitness>
45.0152

> <Gold.PLP.PLP>
-37.8124

> <Gold.PLP.part.hbond>
-3.0000

> <Gold.PLP.part.metal>
0.0000

> <Gold.PLP.part.buried>
-5.1868

> <Gold.PLP.part.nonpolar>
-30.0710

> <Gold.PLP.part.repulsive>
0.1704

> <Gold.PLP.ligand.clash>
0.0000

> <Gold.PLP.ligand.torsion>
1.5964

> <Gold.PLP.Chemscore.Hbond>
3.0000

> <Gold.PLP.Chemscore.CHOScore>
0.0000

> <Gold.PLP.Chemscore.Metal>
0.0000

> <Gold.Chemscore.Hbonds>
donor molecule, donor type, donor heavy atom, donor atom, acceptor molecule, acceptor atom, score
      L1  H    16    40       P1  8028  0.89
      P1  H  7989  7998       L1     8  1.00
      P1  H 10752 10765       L1     6  1.00

> <Gold.PLP.Chemscore.Internal.Correction>
1.3958

> <Gold.Rescore>
     Score         DG    S(hbond)    S(metal)    S(lipo)     H(rot)  DE(clash)    DE(int)     intcor
     14.15     -17.66       1.91        0.00      91.89       1.93       0.33       3.18       ----

> <Gold.Chemscore.Fitness>
14.1505

> <Gold.Chemscore.DG>
-17.6624

> <Gold.Chemscore.ZeroCoef>
-5.4800

> <Gold.Chemscore.Hbond>
1.9070

> <Gold.Chemscore.Metal>
0.0000

> <Gold.Chemscore.Lipo>
91.8912

> <Gold.Chemscore.Internal_Hbond>
0.0000

> <Gold.Chemscore.DEClash>
0.3318

> <Gold.Chemscore.DEInternal>
3.1801

> <Gold.Chemscore.Rot>
1.9290

> <Gold.Chemscore.Internal.Correction>
   9.000000E+99

> <Gold.Chemscore.Hbonds>
donor molecule, donor type, donor heavy atom, donor atom, acceptor molecule, acceptor atom, score
      L1  H    16    40       P1  8028  0.30
      P1  H  7989  7998       L1     8  0.89
      P1  H 10752 10765       L1     6  0.47

> <Gold.Chemscore.Hbond.Weighted>
-6.3694

> <Gold.Chemscore.Metal.Weighted>
-0.0000

> <Gold.Chemscore.Lipo.Weighted>
-10.7513

> <Gold.Chemscore.Internal_Hbond.Weighted>
0.0000

> <Gold.Chemscore.DEClash.Weighted>
0.3318

> <Gold.Chemscore.DEInternal.Weighted>
3.1801

> <Gold.Chemscore.Rot.Weighted>
4.9383

> <Gold.Chemscore.Internal.Correction.Weighted>
   9.000000E+99

> <Gold.Protein.RotatedTorsions>
[ 6907 6896 6895 6894 ] final -141.77 input  -60.11 | X-H torsion
[ 7974 7965 7964 7962 ] final  -64.12 input  175.53 | X-H torsion
[ 8008 7997 7996 7995 ] final   87.49 input   59.86 | X-H torsion
[ 10167 10162 10161 10158 ] final   -6.41 input  -65.29 | X-H torsion
[ 10718 10713 10712 10709 ] final -159.28 input   66.30 | X-H torsion
[ 10763 10752 10751 10750 ] final  167.13 input  -60.55 | X-H torsion
[ 11005 11000 10999 10996 ] final -134.89 input  -57.11 | X-H torsion

> <Gold.Protein.ActiveResidues>
 VAL166  LYS551  ARG553  GLY616  TRP617  ASP618  TYR619  PRO620  LYS621  CYS622 
 ASP623  PHE694  ASN695  SER759  ASP760  ASP761  ALA762  ILE779  LEU786  VAL792 
 PHE793  MET794  SER795  GLU796  ALA797  LYS798  CYS799  TRP800  GLU811  SER814 

> <Gold.Protein.RotatedAtoms>
  151.0782  133.5411  159.2622 H   0  0  0  0  0  0  0  0  0  0  0  0  # atno 6907 bound_to 6896
  151.2325  135.0559  159.9003 H   0  0  0  0  0  0  0  0  0  0  0  0  # atno 6908 bound_to 6896
  152.5420  134.0568  159.8188 H   0  0  0  0  0  0  0  0  0  0  0  0  # atno 6909 bound_to 6896
  145.7707  140.8814  143.0382 H   0  0  0  0  0  0  0  0  0  0  0  0  # atno 7974 bound_to 7965
  155.9760  140.3381  155.6619 H   0  0  0  0  0  0  0  0  0  0  0  0  # atno 8008 bound_to 7997
  155.6612  140.0716  157.2571 H   0  0  0  0  0  0  0  0  0  0  0  0  # atno 8009 bound_to 7997
  154.4179  140.1708  156.1766 H   0  0  0  0  0  0  0  0  0  0  0  0  # atno 8010 bound_to 7997
  140.6996  143.6197  150.8624 H   0  0  0  0  0  0  0  0  0  0  0  0  # atno 10167 bound_to 10162
  156.5659  130.8667  151.2823 H   0  0  0  0  0  0  0  0  0  0  0  0  # atno 10718 bound_to 10713
  154.3493  135.2753  155.2381 H   0  0  0  0  0  0  0  0  0  0  0  0  # atno 10763 bound_to 10752
  154.4617  135.5905  153.6264 H   0  0  0  0  0  0  0  0  0  0  0  0  # atno 10764 bound_to 10752
  152.9851  135.6066  154.3702 H   0  0  0  0  0  0  0  0  0  0  0  0  # atno 10765 bound_to 10752
  140.8948  134.1765  157.4502 H   0  0  0  0  0  0  0  0  0  0  0  0  # atno 11005 bound_to 11000
  144.6813  139.9851  143.7484 LP  0  0  0  0  0  0  0  0  0  0  0  0  # atno 17320 bound_to 7965
  146.0173  139.3220  143.0834 LP  0  0  0  0  0  0  0  0  0  0  0  0  # atno 17321 bound_to 7965
  139.9918  143.5839  152.2907 LP  0  0  0  0  0  0  0  0  0  0  0  0  # atno 17342 bound_to 10162
  139.6496  144.7660  151.2173 LP  0  0  0  0  0  0  0  0  0  0  0  0  # atno 17343 bound_to 10162
  157.7359  130.9769  150.2105 LP  0  0  0  0  0  0  0  0  0  0  0  0  # atno 17370 bound_to 10713
  156.2758  130.3727  149.7985 LP  0  0  0  0  0  0  0  0  0  0  0  0  # atno 17371 bound_to 10713
  139.8734  134.9874  156.5365 LP  0  0  0  0  0  0  0  0  0  0  0  0  # atno 17394 bound_to 11000
  140.8302  133.8285  155.8977 LP  0  0  0  0  0  0  0  0  0  0  0  0  # atno 17395 bound_to 11000

$$$$
