AV-unprocessed.smi:2402|AV-procd|sdf|9505|dock9
  -GOLD-   2272013133D 1   1.00000     0.00000
 Structure written by MMmdl.
 38 39  0  0  0  0  0  0  0  0  1 V2000
  151.9697  145.9002  160.3444 C   0  0  0  0  0  0  0  0  0  0  0  0
  151.9747  144.5222  159.7165 C   0  0  0  0  0  0  0  0  0  0  0  0
  152.8068  143.5028  160.2175 C   0  0  0  0  0  0  0  0  0  0  0  0
  152.7650  142.2422  159.5900 C   0  0  0  0  0  0  0  0  0  0  0  0
  153.6375  141.1028  160.0733 C   0  0  0  0  0  0  0  0  0  0  0  0
  151.9673  141.9705  158.5350 N   0  0  0  0  0  0  0  0  0  0  0  0
  151.1611  142.9444  158.0441 C   0  0  0  0  0  0  0  0  0  0  0  0
  150.2913  142.7631  156.9357 N   0  0  0  0  0  0  0  0  0  0  0  0
  150.1985  141.7003  156.1169 C   0  0  0  0  0  0  0  0  0  0  0  0
  150.8448  140.6576  156.2251 O   0  0  0  0  0  0  0  0  0  0  0  0
  149.2967  141.9118  155.1475 N   0  0  0  0  0  0  0  0  0  0  0  0
  148.9624  140.9544  154.0988 C   0  0  2  0  0  0  0  0  0  0  0  0
  147.7550  141.4131  153.3282 C   0  0  0  0  0  0  0  0  0  0  0  0
  146.7914  140.4955  153.2892 C   0  0  0  0  0  0  0  0  0  0  0  0
  147.1520  139.2363  154.0326 C   0  0  2  0  0  0  0  0  0  0  0  0
  146.0756  138.8405  155.0569 C   0  0  0  0  0  0  0  0  0  0  0  0
  144.8274  138.6814  154.4167 O   0  0  0  0  0  0  0  0  0  0  0  0
  148.5294  139.5752  154.6616 C   0  0  0  0  0  0  0  0  0  0  0  0
  151.1421  144.2366  158.6157 C   0  0  0  0  0  0  0  0  0  0  0  0
  149.7929  140.8474  153.3986 H   0  0  0  0  0  0  0  0  0  0  0  0
  147.2653  138.4441  153.2912 H   0  0  0  0  0  0  0  0  0  0  0  0
  152.7678  146.0034  161.0801 H   0  0  0  0  0  0  0  0  0  0  0  0
  151.0181  146.0832  160.8439 H   0  0  0  0  0  0  0  0  0  0  0  0
  152.1107  146.6654  159.5807 H   0  0  0  0  0  0  0  0  0  0  0  0
  153.4604  143.6821  161.0587 H   0  0  0  0  0  0  0  0  0  0  0  0
  154.0885  141.3330  161.0389 H   0  0  0  0  0  0  0  0  0  0  0  0
  154.4386  140.9131  159.3584 H   0  0  0  0  0  0  0  0  0  0  0  0
  153.0501  140.1906  160.1823 H   0  0  0  0  0  0  0  0  0  0  0  0
  149.6799  143.5398  156.7332 H   0  0  0  0  0  0  0  0  0  0  0  0
  148.8072  142.7944  155.1326 H   0  0  0  0  0  0  0  0  0  0  0  0
  147.7096  142.3813  152.8516 H   0  0  0  0  0  0  0  0  0  0  0  0
  145.8472  140.6099  152.7774 H   0  0  0  0  0  0  0  0  0  0  0  0
  146.3423  137.9140  155.5670 H   0  0  0  0  0  0  0  0  0  0  0  0
  145.9750  139.6123  155.8204 H   0  0  0  0  0  0  0  0  0  0  0  0
  144.7323  139.3621  153.7683 H   0  0  0  0  0  0  0  0  0  0  0  0
  149.2675  138.8073  154.4276 H   0  0  0  0  0  0  0  0  0  0  0  0
  148.4522  139.6105  155.7497 H   0  0  0  0  0  0  0  0  0  0  0  0
  150.4958  145.0045  158.2149 H   0  0  0  0  0  0  0  0  0  0  0  0
  1  2  1  0  0  0  0
  1 22  1  0  0  0  0
  1 23  1  0  0  0  0
  1 24  1  0  0  0  0
  2 19  1  0  0  0  0
  2  3  2  0  0  0  0
  3  4  1  0  0  0  0
  3 25  1  0  0  0  0
  4  5  1  0  0  0  0
  4  6  2  0  0  0  0
  5 26  1  0  0  0  0
  5 27  1  0  0  0  0
  5 28  1  0  0  0  0
  6  7  1  0  0  0  0
  7  8  1  0  0  0  0
  7 19  2  0  0  0  0
  8  9  1  0  0  0  0
  8 29  1  0  0  0  0
  9 10  2  0  0  0  0
  9 11  1  0  0  0  0
 11 12  1  0  0  0  0
 11 30  1  0  0  0  0
 12 20  1  0  0  0  0
 12 18  1  0  0  0  0
 12 13  1  0  0  0  0
 13 14  2  0  0  0  0
 13 31  1  0  0  0  0
 14 15  1  0  0  0  0
 14 32  1  0  0  0  0
 15 21  1  0  0  0  0
 15 16  1  0  0  0  0
 15 18  1  0  0  0  0
 16 17  1  0  0  0  0
 16 33  1  0  0  0  0
 16 34  1  0  0  0  0
 17 35  1  0  0  0  0
 18 36  1  0  0  0  0
 18 37  1  0  0  0  0
 19 38  1  0  0  0  0
M  END
> <s_m_source_file>
AV-unprocessed.smi

> <i_m_source_file_index>
2402

> <i_lp_mmshare_version>
43012

> <i_f3d_flags>
0

> <s_epik_input>
W0NIM11jMVtjSF1jKFtDSDNdKW5jKFtjSF0xKVtOSF1DKD1PKVtOSF1bQ0BASF0yW0NIXT1bQ0hdW0NAQEhdKFtDSDJdMilbQ0gyXVtPSF0=

> <s_epik_cmdline>
J2VwaWtfcHl0aG9uJywgJy1waCcsICc3LjAnLCAnLXRuJywgJzgnLCAnLW1hJywgJzIwMCcsICctbWV0YWxfYmluZGluZycsICctaW1hZScsICc8aW5maWxlLm1hZT4nLCAnLW9tYWUnLCAnPG91dGZpbGUubWFlPic=

> <r_lp_tautomer_probability>
1

> <r_epik_Ionization_Penalty>
0.000257495

> <r_epik_Ionization_Penalty_Charging>
0

> <r_epik_Ionization_Penalty_Neutral>
0.000257495

> <r_epik_State_Penalty>
-0

> <r_epik_Charging_Adjusted_Penalty>
0

> <i_epik_Tot_Q>
0

> <i_epik_Tot_abs_Q>
0

> <r_epik_Metal_State_Penalty>
-0

> <b_epik_Metal_Only>
0

> <s_lp_Force_Field>
OPLS_2005

> <r_lp_Energy>
18.4158

> <b_lp_Chiralities_Consistent>
1

> <s_lp_Variant>
AV-unprocessed.smi:2402-1

> <Gold.Version>
5.8.1

> <Gold.Id.Protein>
6NUR|6NUR_protein|mol2

> <Gold.PLP.Fitness>
47.2806

> <Gold.PLP.PLP>
-38.6466

> <Gold.PLP.part.hbond>
-3.0000

> <Gold.PLP.part.metal>
0.0000

> <Gold.PLP.part.buried>
-3.6896

> <Gold.PLP.part.nonpolar>
-33.1998

> <Gold.PLP.part.repulsive>
0.2356

> <Gold.PLP.ligand.clash>
0.0000

> <Gold.PLP.ligand.torsion>
0.0819

> <Gold.PLP.Chemscore.Hbond>
2.9280

> <Gold.PLP.Chemscore.CHOScore>
0.0000

> <Gold.PLP.Chemscore.Metal>
0.0000

> <Gold.Chemscore.Hbonds>
donor molecule, donor type, donor heavy atom, donor atom, acceptor molecule, acceptor atom, score
      L1  H     8    29       P1  8028  1.00
      L1  H    11    30       P1  8028  0.93
      L1  H    17    35       P1 10175  1.00

> <Gold.PLP.Chemscore.Internal.Correction>
0.0137

> <Gold.Rescore>
     Score         DG    S(hbond)    S(metal)    S(lipo)     H(rot)  DE(clash)    DE(int)     intcor
     19.30     -22.46       2.85        0.00     102.70       1.78       0.86       2.30       ----

> <Gold.Chemscore.Fitness>
19.3030

> <Gold.Chemscore.DG>
-22.4608

> <Gold.Chemscore.ZeroCoef>
-5.4800

> <Gold.Chemscore.Hbond>
2.8541

> <Gold.Chemscore.Metal>
0.0000

> <Gold.Chemscore.Lipo>
102.7023

> <Gold.Chemscore.Internal_Hbond>
0.0000

> <Gold.Chemscore.DEClash>
0.8559

> <Gold.Chemscore.DEInternal>
2.3019

> <Gold.Chemscore.Rot>
1.7844

> <Gold.Chemscore.Internal.Correction>
   9.000000E+99

> <Gold.Chemscore.Hbonds>
donor molecule, donor type, donor heavy atom, donor atom, acceptor molecule, acceptor atom, score
      L1  H     8    29       P1  8028  0.98
      L1  H    11    30       P1  8028  0.87
      L1  H    17    35       P1 10175  0.93

> <Gold.Chemscore.Hbond.Weighted>
-9.5328

> <Gold.Chemscore.Metal.Weighted>
-0.0000

> <Gold.Chemscore.Lipo.Weighted>
-12.0162

> <Gold.Chemscore.Internal_Hbond.Weighted>
0.0000

> <Gold.Chemscore.DEClash.Weighted>
0.8559

> <Gold.Chemscore.DEInternal.Weighted>
2.3019

> <Gold.Chemscore.Rot.Weighted>
4.5681

> <Gold.Chemscore.Internal.Correction.Weighted>
   9.000000E+99

> <Gold.Protein.RotatedTorsions>
[ 6907 6896 6895 6894 ] final -154.05 input  -60.11 | X-H torsion
[ 7974 7965 7964 7962 ] final -120.84 input  175.53 | X-H torsion
[ 8008 7997 7996 7995 ] final  -90.58 input   59.86 | X-H torsion
[ 10167 10162 10161 10158 ] final  -70.06 input  -65.29 | X-H torsion
[ 10718 10713 10712 10709 ] final   69.75 input   66.30 | X-H torsion
[ 10763 10752 10751 10750 ] final -177.88 input  -60.55 | X-H torsion
[ 11005 11000 10999 10996 ] final    0.05 input  -57.11 | X-H torsion

> <Gold.Protein.ActiveResidues>
 VAL166  LYS551  ARG553  GLY616  TRP617  ASP618  TYR619  PRO620  LYS621  CYS622 
 ASP623  PHE694  ASN695  SER759  ASP760  ASP761  ALA762  ILE779  LEU786  VAL792 
 PHE793  MET794  SER795  GLU796  ALA797  LYS798  CYS799  TRP800  GLU811  SER814 

> <Gold.Protein.RotatedAtoms>
  151.2517  133.4346  159.2611 H   0  0  0  0  0  0  0  0  0  0  0  0  # atno 6907 bound_to 6896
  151.0611  134.9737  159.8271 H   0  0  0  0  0  0  0  0  0  0  0  0  # atno 6908 bound_to 6896
  152.5398  134.2467  159.8936 H   0  0  0  0  0  0  0  0  0  0  0  0  # atno 6909 bound_to 6896
  145.0469  140.8188  143.4233 H   0  0  0  0  0  0  0  0  0  0  0  0  # atno 7974 bound_to 7965
  154.7002  140.0529  157.0451 H   0  0  0  0  0  0  0  0  0  0  0  0  # atno 8008 bound_to 7997
  155.0695  140.3198  155.4616 H   0  0  0  0  0  0  0  0  0  0  0  0  # atno 8009 bound_to 7997
  156.2757  140.2084  156.5822 H   0  0  0  0  0  0  0  0  0  0  0  0  # atno 8010 bound_to 7997
  140.5382  143.2316  151.7138 H   0  0  0  0  0  0  0  0  0  0  0  0  # atno 10167 bound_to 10162
  157.6363  130.9442  150.0556 H   0  0  0  0  0  0  0  0  0  0  0  0  # atno 10718 bound_to 10713
  154.5547  135.2815  155.0976 H   0  0  0  0  0  0  0  0  0  0  0  0  # atno 10763 bound_to 10752
  154.2408  135.6357  153.5210 H   0  0  0  0  0  0  0  0  0  0  0  0  # atno 10764 bound_to 10752
  153.0012  135.5559  154.6123 H   0  0  0  0  0  0  0  0  0  0  0  0  # atno 10765 bound_to 10752
  140.6309  133.9576  155.8274 H   0  0  0  0  0  0  0  0  0  0  0  0  # atno 11005 bound_to 11000
  145.1576  139.2477  143.5408 LP  0  0  0  0  0  0  0  0  0  0  0  0  # atno 17320 bound_to 7965
  146.3514  140.1295  142.8597 LP  0  0  0  0  0  0  0  0  0  0  0  0  # atno 17321 bound_to 7965
  139.4979  144.4010  152.0181 LP  0  0  0  0  0  0  0  0  0  0  0  0  # atno 17342 bound_to 10162
  140.3117  144.3530  150.6032 LP  0  0  0  0  0  0  0  0  0  0  0  0  # atno 17343 bound_to 10162
  156.1604  130.3644  149.9307 LP  0  0  0  0  0  0  0  0  0  0  0  0  # atno 17370 bound_to 10713
  156.7306  130.9042  151.3625 LP  0  0  0  0  0  0  0  0  0  0  0  0  # atno 17371 bound_to 10713
  141.0676  134.0253  157.3572 LP  0  0  0  0  0  0  0  0  0  0  0  0  # atno 17394 bound_to 11000
  139.9116  135.0191  156.7716 LP  0  0  0  0  0  0  0  0  0  0  0  0  # atno 17395 bound_to 11000

$$$$
