AV-unprocessed.smi:3292|AV-procd|sdf|12626|dock7
  -GOLD-   2272018563D 1   1.00000     0.00000
 Structure written by MMmdl.
 38 39  0  0  0  0  0  0  0  0  1 V2000
  144.5485  135.6813  150.5945 C   0  0  0  0  0  0  0  0  0  0  0  0
  144.8979  135.2659  152.0333 C   0  0  1  0  0  0  0  0  0  0  0  0
  145.0425  133.7378  152.2062 C   0  0  0  0  0  0  0  0  0  0  0  0
  145.0459  133.0285  150.9408 N   0  0  0  0  0  0  0  0  0  0  0  0
  146.1469  132.4908  150.2876 C   0  0  0  0  0  0  0  0  0  0  0  0
  145.6752  131.9189  149.1278 C   0  0  0  0  0  0  0  0  0  0  0  0
  144.2962  132.0965  149.0445 N   0  0  0  0  0  0  0  0  0  0  0  0
  143.9958  132.7644  150.1510 C   0  0  0  0  0  0  0  0  0  0  0  0
  146.1281  135.9393  152.4400 N   0  0  0  0  0  0  0  0  0  0  0  0
  146.2064  136.9296  153.3401 C   0  0  0  0  0  0  0  0  0  0  0  0
  145.2387  137.3863  153.9490 O   0  0  0  0  0  0  0  0  0  0  0  0
  147.4654  137.3638  153.4932 N   0  0  0  0  0  0  0  0  0  0  0  0
  147.8861  138.4367  154.3890 C   0  0  0  0  0  0  0  0  0  0  0  0
  149.3394  138.8714  154.1211 C   0  0  2  0  0  0  0  0  0  0  0  0
  150.3761  137.9315  154.7017 C   0  0  0  0  0  0  0  0  0  0  0  0
  151.6303  138.8015  154.7077 C   0  0  0  0  0  0  0  0  0  0  0  0
  151.1769  140.1441  154.8591 O   0  0  0  0  0  0  0  0  0  0  0  0
  149.7566  140.1918  154.7710 C   0  0  0  0  0  0  0  0  0  0  0  0
  143.5861  135.2750  150.2830 H   0  0  0  0  0  0  0  0  0  0  0  0
  145.3018  135.3327  149.8874 H   0  0  0  0  0  0  0  0  0  0  0  0
  144.4840  136.7662  150.5050 H   0  0  0  0  0  0  0  0  0  0  0  0
  144.0869  135.6131  152.6768 H   0  0  0  0  0  0  0  0  0  0  0  0
  145.9652  133.5027  152.7390 H   0  0  0  0  0  0  0  0  0  0  0  0
  144.2248  133.3414  152.8093 H   0  0  0  0  0  0  0  0  0  0  0  0
  147.1461  132.5567  150.6926 H   0  0  0  0  0  0  0  0  0  0  0  0
  146.2180  131.3991  148.3522 H   0  0  0  0  0  0  0  0  0  0  0  0
  142.9871  133.0645  150.3945 H   0  0  0  0  0  0  0  0  0  0  0  0
  146.9809  135.6347  151.9938 H   0  0  0  0  0  0  0  0  0  0  0  0
  148.1891  136.9221  152.9452 H   0  0  0  0  0  0  0  0  0  0  0  0
  147.2088  139.2898  154.3198 H   0  0  0  0  0  0  0  0  0  0  0  0
  147.8019  138.0647  155.4103 H   0  0  0  0  0  0  0  0  0  0  0  0
  149.5039  138.9430  153.0446 H   0  0  0  0  0  0  0  0  0  0  0  0
  150.1096  137.6554  155.7230 H   0  0  0  0  0  0  0  0  0  0  0  0
  150.4986  137.0165  154.1221 H   0  0  0  0  0  0  0  0  0  0  0  0
  152.3238  138.5230  155.5012 H   0  0  0  0  0  0  0  0  0  0  0  0
  152.1551  138.7199  153.7553 H   0  0  0  0  0  0  0  0  0  0  0  0
  149.4232  141.0623  154.2057 H   0  0  0  0  0  0  0  0  0  0  0  0
  149.3528  140.2694  155.7813 H   0  0  0  0  0  0  0  0  0  0  0  0
  1  2  1  0  0  0  0
  1 19  1  0  0  0  0
  1 20  1  0  0  0  0
  1 21  1  0  0  0  0
  2  3  1  0  0  0  0
  2  9  1  0  0  0  0
  2 22  1  0  0  0  0
  3  4  1  0  0  0  0
  3 23  1  0  0  0  0
  3 24  1  0  0  0  0
  4  8  1  0  0  0  0
  4  5  1  0  0  0  0
  5  6  2  0  0  0  0
  5 25  1  0  0  0  0
  6  7  1  0  0  0  0
  6 26  1  0  0  0  0
  7  8  2  0  0  0  0
  8 27  1  0  0  0  0
  9 10  1  0  0  0  0
  9 28  1  0  0  0  0
 10 11  2  0  0  0  0
 10 12  1  0  0  0  0
 12 13  1  0  0  0  0
 12 29  1  0  0  0  0
 13 14  1  0  0  0  0
 13 30  1  0  0  0  0
 13 31  1  0  0  0  0
 14 18  1  0  0  0  0
 14 15  1  0  0  0  0
 14 32  1  0  0  0  0
 15 16  1  0  0  0  0
 15 33  1  0  0  0  0
 15 34  1  0  0  0  0
 16 17  1  0  0  0  0
 16 35  1  0  0  0  0
 16 36  1  0  0  0  0
 17 18  1  0  0  0  0
 18 37  1  0  0  0  0
 18 38  1  0  0  0  0
M  END
> <s_m_source_file>
AV-unprocessed.smi

> <i_m_source_file_index>
3292

> <i_lp_mmshare_version>
43012

> <i_f3d_flags>
0

> <s_epik_input>
W2NIXTFuW2NIXVtjSF1uMVtDSDJdW0NAQEhdKFtDSDNdKVtOSF1DKD1PKVtOSF1bQ0gyXVtDQEBIXTJbQ0gyXVtDSDJdT1tDSDJdMg==

> <s_epik_cmdline>
J2VwaWtfcHl0aG9uJywgJy1waCcsICc3LjAnLCAnLXRuJywgJzgnLCAnLW1hJywgJzIwMCcsICctbWV0YWxfYmluZGluZycsICctaW1hZScsICc8aW5maWxlLm1hZT4nLCAnLW9tYWUnLCAnPG91dGZpbGUubWFlPic=

> <r_lp_tautomer_probability>
1

> <r_epik_Ionization_Penalty>
0.621291

> <r_epik_Ionization_Penalty_Charging>
0.621234

> <r_epik_Ionization_Penalty_Neutral>
5.72199e-05

> <r_epik_State_Penalty>
0.637278

> <r_epik_Charging_Adjusted_Penalty>
1.25851

> <i_epik_Tot_Q>
0

> <i_epik_Tot_abs_Q>
0

> <r_epik_Metal_State_Penalty>
0.306757

> <b_epik_Metal_Only>
0

> <s_lp_Force_Field>
OPLS_2005

> <r_lp_Energy>
18.3972

> <b_lp_Chiralities_Consistent>
1

> <s_lp_Variant>
AV-unprocessed.smi:3292-6

> <Gold.Version>
5.8.1

> <Gold.Id.Protein>
6NUR|6NUR_protein|mol2

> <Gold.PLP.Fitness>
45.6446

> <Gold.PLP.PLP>
-33.4477

> <Gold.PLP.part.hbond>
-3.8239

> <Gold.PLP.part.metal>
0.0000

> <Gold.PLP.part.buried>
-3.5425

> <Gold.PLP.part.nonpolar>
-26.7475

> <Gold.PLP.part.repulsive>
0.4203

> <Gold.PLP.ligand.clash>
0.0000

> <Gold.PLP.ligand.torsion>
1.1785

> <Gold.PLP.Chemscore.Hbond>
2.9578

> <Gold.PLP.Chemscore.CHOScore>
1.8828

> <Gold.PLP.Chemscore.Metal>
0.0000

> <Gold.Chemscore.Hbonds>
donor molecule, donor type, donor heavy atom, donor atom, acceptor molecule, acceptor atom, score
      L1  H     9    28       P1  7948  0.79
      L1  H    12    29       P1  7948  0.91
      P1  H  7989  7998       L1    17  1.00
      P1  H 10785 10796       L1     7  0.25
      L1  C     5    25       P1 10747  0.89
      L1  C     8    27       P1 10186  0.97

> <Gold.PLP.Chemscore.Internal.Correction>
0.0323

> <Gold.Rescore>
     Score         DG    S(hbond)    S(metal)    S(lipo)     H(rot)  DE(clash)    DE(int)     intcor
     13.30     -15.51       2.26        0.00      68.30       2.16       0.03       2.18       ----

> <Gold.Chemscore.Fitness>
13.3047

> <Gold.Chemscore.DG>
-15.5106

> <Gold.Chemscore.ZeroCoef>
-5.4800

> <Gold.Chemscore.Hbond>
2.2645

> <Gold.Chemscore.Metal>
0.0000

> <Gold.Chemscore.Lipo>
68.2992

> <Gold.Chemscore.Internal_Hbond>
0.0000

> <Gold.Chemscore.DEClash>
0.0277

> <Gold.Chemscore.DEInternal>
2.1782

> <Gold.Chemscore.Rot>
2.1577

> <Gold.Chemscore.Internal.Correction>
   9.000000E+99

> <Gold.Chemscore.Hbonds>
donor molecule, donor type, donor heavy atom, donor atom, acceptor molecule, acceptor atom, score
      L1  H     9    28       P1  7948  0.73
      L1  H    12    29       P1  7948  0.87
      P1  H  7989  7998       L1    17  0.18
      P1  H 10785 10796       L1     7  0.19

> <Gold.Chemscore.Hbond.Weighted>
-7.5633

> <Gold.Chemscore.Metal.Weighted>
-0.0000

> <Gold.Chemscore.Lipo.Weighted>
-7.9910

> <Gold.Chemscore.Internal_Hbond.Weighted>
0.0000

> <Gold.Chemscore.DEClash.Weighted>
0.0277

> <Gold.Chemscore.DEInternal.Weighted>
2.1782

> <Gold.Chemscore.Rot.Weighted>
5.5237

> <Gold.Chemscore.Internal.Correction.Weighted>
   9.000000E+99

> <Gold.Protein.RotatedTorsions>
[ 6907 6896 6895 6894 ] final   29.26 input  -60.11 | X-H torsion
[ 7974 7965 7964 7962 ] final   31.68 input  175.53 | X-H torsion
[ 8008 7997 7996 7995 ] final  140.50 input   59.86 | X-H torsion
[ 10167 10162 10161 10158 ] final  -91.52 input  -65.29 | X-H torsion
[ 10718 10713 10712 10709 ] final -120.70 input   66.30 | X-H torsion
[ 10763 10752 10751 10750 ] final   81.08 input  -60.55 | X-H torsion
[ 11005 11000 10999 10996 ] final -177.52 input  -57.11 | X-H torsion

> <Gold.Protein.ActiveResidues>
 VAL166  LYS551  ARG553  GLY616  TRP617  ASP618  TYR619  PRO620  LYS621  CYS622 
 ASP623  PHE694  ASN695  SER759  ASP760  ASP761  ALA762  ILE779  LEU786  VAL792 
 PHE793  MET794  SER795  GLU796  ALA797  LYS798  CYS799  TRP800  GLU811  SER814 

> <Gold.Protein.RotatedAtoms>
  152.0290  134.9779  160.0571 H   0  0  0  0  0  0  0  0  0  0  0  0  # atno 6907 bound_to 6896
  152.1263  133.4377  159.4708 H   0  0  0  0  0  0  0  0  0  0  0  0  # atno 6908 bound_to 6896
  150.6853  134.2393  159.4509 H   0  0  0  0  0  0  0  0  0  0  0  0  # atno 6909 bound_to 6896
  146.1535  139.6625  142.9083 H   0  0  0  0  0  0  0  0  0  0  0  0  # atno 7974 bound_to 7965
  156.2978  140.2340  156.4411 H   0  0  0  0  0  0  0  0  0  0  0  0  # atno 8008 bound_to 7997
  154.8185  140.0439  157.1414 H   0  0  0  0  0  0  0  0  0  0  0  0  # atno 8009 bound_to 7997
  154.9342  140.3020  155.5156 H   0  0  0  0  0  0  0  0  0  0  0  0  # atno 8010 bound_to 7997
  140.3440  143.2926  151.9802 H   0  0  0  0  0  0  0  0  0  0  0  0  # atno 10167 bound_to 10162
  156.1278  130.6373  150.9572 H   0  0  0  0  0  0  0  0  0  0  0  0  # atno 10718 bound_to 10713
  153.1087  135.4778  154.8997 H   0  0  0  0  0  0  0  0  0  0  0  0  # atno 10763 bound_to 10752
  154.7458  135.3093  154.8650 H   0  0  0  0  0  0  0  0  0  0  0  0  # atno 10764 bound_to 10752
  153.9245  135.6851  153.4800 H   0  0  0  0  0  0  0  0  0  0  0  0  # atno 10765 bound_to 10752
  140.4400  134.6440  157.4753 H   0  0  0  0  0  0  0  0  0  0  0  0  # atno 11005 bound_to 11000
  145.4766  141.0437  143.2669 LP  0  0  0  0  0  0  0  0  0  0  0  0  # atno 17320 bound_to 7965
  144.7933  139.6284  143.7103 LP  0  0  0  0  0  0  0  0  0  0  0  0  # atno 17321 bound_to 7965
  139.4836  144.6132  151.7394 LP  0  0  0  0  0  0  0  0  0  0  0  0  # atno 17342 bound_to 10162
  140.5282  144.0772  150.6044 LP  0  0  0  0  0  0  0  0  0  0  0  0  # atno 17343 bound_to 10162
  157.6459  131.0904  150.8155 LP  0  0  0  0  0  0  0  0  0  0  0  0  # atno 17370 bound_to 10713
  156.8243  130.4994  149.5339 LP  0  0  0  0  0  0  0  0  0  0  0  0  # atno 17371 bound_to 10713
  140.0076  134.6739  155.9430 LP  0  0  0  0  0  0  0  0  0  0  0  0  # atno 17394 bound_to 11000
  141.1709  133.6537  156.4650 LP  0  0  0  0  0  0  0  0  0  0  0  0  # atno 17395 bound_to 11000

$$$$
