AV-unprocessed.smi:287|AV-procd|sdf|2196|dock4
  -GOLD-   2262022 03D 1   1.00000     0.00000
 Structure written by MMmdl.
 55 58  0  0  0  0  0  0  0  0  1 V2000
  147.3683  136.1865  162.3799 C   0  0  0  0  0  0  0  0  0  0  0  0
  146.4983  136.4875  161.2080 C   0  0  0  0  0  0  0  0  0  0  0  0
  145.2117  136.1725  160.8811 C   0  0  0  0  0  0  0  0  0  0  0  0
  144.9403  136.7554  159.6075 C   0  0  0  0  0  0  0  0  0  0  0  0
  143.6211  136.6708  158.8507 C   0  0  2  0  0  0  0  0  0  0  0  0
  142.9930  138.0694  158.7166 C   0  0  0  0  0  0  0  0  0  0  0  0
  142.6474  135.8979  159.5257 O   0  0  0  0  0  0  0  0  0  0  0  0
  143.7941  136.0314  157.4548 C   0  0  0  0  0  0  0  0  0  0  0  0
  142.6867  136.3260  156.5546 N   0  0  0  0  0  0  0  0  0  0  0  0
  142.7056  135.9194  155.2681 C   0  0  0  0  0  0  0  0  0  0  0  0
  141.4950  135.6361  154.7337 N   0  0  0  0  0  0  0  0  0  0  0  0
  141.4026  135.2183  153.4701 C   0  0  0  0  0  0  0  0  0  0  0  0
  142.3804  135.0233  152.5859 N   0  0  0  0  0  0  0  0  0  0  0  0
  143.6097  135.3074  153.1064 C   0  0  0  0  0  0  0  0  0  0  0  0
  143.8553  135.7601  154.4372 C   0  0  0  0  0  0  0  0  0  0  0  0
  145.2207  135.9441  154.6142 N   0  0  0  0  0  0  0  0  0  0  0  0
  145.7431  135.6114  153.4673 C   0  0  0  0  0  0  0  0  0  0  0  0
  144.8506  135.2262  152.4925 N   0  0  0  0  0  0  0  0  0  0  0  0
  145.2151  134.7654  151.1058 C   0  0  1  0  0  0  0  0  0  0  0  0
  145.9690  133.6008  151.2144 O   0  0  0  0  0  0  0  0  0  0  0  0
  145.1221  132.4680  151.0850 C   0  0  2  0  0  0  0  0  0  0  0  0
  145.9481  131.2496  150.6459 C   0  0  0  0  0  0  0  0  0  0  0  0
  146.6746  131.5529  149.4739 O   0  0  0  0  0  0  0  0  0  0  0  0
  144.0989  132.9238  150.0324 C   0  0  1  0  0  0  0  0  0  0  0  0
  142.8471  132.3104  150.2651 O   0  0  0  0  0  0  0  0  0  0  0  0
  144.0040  134.4427  150.2130 C   0  0  2  0  0  0  0  0  0  0  0  0
  144.1088  135.0870  148.9591 O   0  0  0  0  0  0  0  0  0  0  0  0
  146.1057  137.3964  159.2601 C   0  0  0  0  0  0  0  0  0  0  0  0
  146.5314  138.2138  158.0851 C   0  0  0  0  0  0  0  0  0  0  0  0
  147.0555  137.2356  160.2233 O   0  0  0  0  0  0  0  0  0  0  0  0
  145.8319  135.5774  150.7179 H   0  0  0  0  0  0  0  0  0  0  0  0
  144.6326  132.2699  152.0386 H   0  0  0  0  0  0  0  0  0  0  0  0
  144.4531  132.6725  149.0309 H   0  0  0  0  0  0  0  0  0  0  0  0
  143.0774  134.7702  150.6832 H   0  0  0  0  0  0  0  0  0  0  0  0
  146.7987  135.7028  163.1738 H   0  0  0  0  0  0  0  0  0  0  0  0
  147.8020  137.1011  162.7849 H   0  0  0  0  0  0  0  0  0  0  0  0
  148.1835  135.5212  162.0949 H   0  0  0  0  0  0  0  0  0  0  0  0
  144.5367  135.5891  161.4898 H   0  0  0  0  0  0  0  0  0  0  0  0
  143.6412  138.7464  158.1589 H   0  0  0  0  0  0  0  0  0  0  0  0
  142.8133  138.5190  159.6942 H   0  0  0  0  0  0  0  0  0  0  0  0
  142.0381  138.0299  158.1909 H   0  0  0  0  0  0  0  0  0  0  0  0
  141.9147  135.7652  158.9441 H   0  0  0  0  0  0  0  0  0  0  0  0
  144.7422  136.3307  157.0058 H   0  0  0  0  0  0  0  0  0  0  0  0
  143.8264  134.9475  157.5752 H   0  0  0  0  0  0  0  0  0  0  0  0
  141.8919  136.7838  156.9771 H   0  0  0  0  0  0  0  0  0  0  0  0
  140.4039  135.0095  153.1165 H   0  0  0  0  0  0  0  0  0  0  0  0
  146.8101  135.6364  153.3001 H   0  0  0  0  0  0  0  0  0  0  0  0
  146.6713  130.9901  151.4195 H   0  0  0  0  0  0  0  0  0  0  0  0
  145.3153  130.3760  150.4863 H   0  0  0  0  0  0  0  0  0  0  0  0
  147.5352  131.1693  149.5449 H   0  0  0  0  0  0  0  0  0  0  0  0
  142.1809  132.8124  149.8210 H   0  0  0  0  0  0  0  0  0  0  0  0
  144.8471  134.7223  148.4954 H   0  0  0  0  0  0  0  0  0  0  0  0
  146.5041  137.6202  157.1713 H   0  0  0  0  0  0  0  0  0  0  0  0
  147.5475  138.5889  158.2109 H   0  0  0  0  0  0  0  0  0  0  0  0
  145.8721  139.0718  157.9531 H   0  0  0  0  0  0  0  0  0  0  0  0
  1  2  1  0  0  0  0
  1 35  1  0  0  0  0
  1 36  1  0  0  0  0
  1 37  1  0  0  0  0
  2 30  1  0  0  0  0
  2  3  2  0  0  0  0
  3  4  1  0  0  0  0
  3 38  1  0  0  0  0
  4  5  1  0  0  0  0
  4 28  2  0  0  0  0
  5  6  1  0  0  0  0
  5  7  1  0  0  0  0
  5  8  1  0  0  0  0
  6 39  1  0  0  0  0
  6 40  1  0  0  0  0
  6 41  1  0  0  0  0
  7 42  1  0  0  0  0
  8  9  1  0  0  0  0
  8 43  1  0  0  0  0
  8 44  1  0  0  0  0
  9 10  1  0  0  0  0
  9 45  1  0  0  0  0
 10 15  1  0  0  0  0
 10 11  2  0  0  0  0
 11 12  1  0  0  0  0
 12 13  2  0  0  0  0
 12 46  1  0  0  0  0
 13 14  1  0  0  0  0
 14 18  1  0  0  0  0
 14 15  2  0  0  0  0
 15 16  1  0  0  0  0
 16 17  2  0  0  0  0
 17 18  1  0  0  0  0
 17 47  1  0  0  0  0
 18 19  1  0  0  0  0
 19 31  1  0  0  0  0
 19 26  1  0  0  0  0
 19 20  1  0  0  0  0
 20 21  1  0  0  0  0
 21 32  1  0  0  0  0
 21 22  1  0  0  0  0
 21 24  1  0  0  0  0
 22 23  1  0  0  0  0
 22 48  1  0  0  0  0
 22 49  1  0  0  0  0
 23 50  1  0  0  0  0
 24 33  1  0  0  0  0
 24 25  1  0  0  0  0
 24 26  1  0  0  0  0
 25 51  1  0  0  0  0
 26 34  1  0  0  0  0
 26 27  1  0  0  0  0
 27 52  1  0  0  0  0
 28 29  1  0  0  0  0
 28 30  1  0  0  0  0
 29 53  1  0  0  0  0
 29 54  1  0  0  0  0
 29 55  1  0  0  0  0
M  END
> <s_m_source_file>
AV-unprocessed.smi

> <i_m_source_file_index>
287

> <i_lp_mmshare_version>
43012

> <i_f3d_flags>
0

> <s_epik_input>
W0NIM11jMVtjSF1jKGMobzEpW0NIM10pW0NAQF0oW0NIM10pKFtPSF0pW0NIMl1bTkhdYyhuW2NIXW4yKWMoYzIzKW5bY0hdbjNbQ0BASF00T1tDQEhdKFtDSDJdW09IXSlbQ0BASF0oW09IXSlbQ0BIXTRbT0hd

> <s_epik_cmdline>
J2VwaWtfcHl0aG9uJywgJy1waCcsICc3LjAnLCAnLXRuJywgJzgnLCAnLW1hJywgJzIwMCcsICctbWV0YWxfYmluZGluZycsICctaW1hZScsICc8aW5maWxlLm1hZT4nLCAnLW9tYWUnLCAnPG91dGZpbGUubWFlPic=

> <r_lp_tautomer_probability>
1

> <r_epik_Ionization_Penalty>
0.000992612

> <r_epik_Ionization_Penalty_Charging>
0

> <r_epik_Ionization_Penalty_Neutral>
0.000992612

> <r_epik_State_Penalty>
-0

> <r_epik_Charging_Adjusted_Penalty>
0

> <i_epik_Tot_Q>
0

> <i_epik_Tot_abs_Q>
0

> <r_epik_Metal_State_Penalty>
-0

> <b_epik_Metal_Only>
0

> <s_epik_Chemistry_Notes>
This compound contains an acetal/aminal-like group ( X-CH(R)-Y where X, Y are N, S, or O) that may be acid/base labile, releasing an aldehyde.

> <s_lp_Force_Field>
OPLS_2005

> <r_lp_Energy>
37.3025

> <b_lp_Chiralities_Consistent>
1

> <s_lp_Variant>
AV-unprocessed.smi:287-20

> <Gold.Version>
5.8.1

> <Gold.Id.Protein>
6NUR|6NUR_protein|mol2

> <Gold.PLP.Fitness>
50.2750

> <Gold.PLP.PLP>
-33.8190

> <Gold.PLP.part.hbond>
-6.3590

> <Gold.PLP.part.metal>
0.0000

> <Gold.PLP.part.buried>
-6.0889

> <Gold.PLP.part.nonpolar>
-22.6773

> <Gold.PLP.part.repulsive>
0.4765

> <Gold.PLP.ligand.clash>
0.0000

> <Gold.PLP.ligand.torsion>
0.5294

> <Gold.PLP.Chemscore.Hbond>
4.5392

> <Gold.PLP.Chemscore.CHOScore>
1.2682

> <Gold.PLP.Chemscore.Metal>
0.0000

> <Gold.Chemscore.Hbonds>
donor molecule, donor type, donor heavy atom, donor atom, acceptor molecule, acceptor atom, score
      L1  H    23    50       P1 10747  1.00
      L1  H    25    51       P1 10186  1.00
      L1  H    27    52       P1  7921  1.00
      P1  H  6934  6947       L1    30  1.00
      P1  H 11000 11005       L1    11  0.54
      L1  C    12    46       P1 10187  0.48
      L1  C    17    47       P1  7948  0.73

> <Gold.PLP.Chemscore.Internal.Correction>
0.0924

> <Gold.Rescore>
     Score         DG    S(hbond)    S(metal)    S(lipo)     H(rot)  DE(clash)    DE(int)     intcor
     10.99     -13.34       4.28        0.00      60.21       5.27       0.41       1.94       ----

> <Gold.Chemscore.Fitness>
10.9887

> <Gold.Chemscore.DG>
-13.3351

> <Gold.Chemscore.ZeroCoef>
-5.4800

> <Gold.Chemscore.Hbond>
4.2799

> <Gold.Chemscore.Metal>
0.0000

> <Gold.Chemscore.Lipo>
60.2062

> <Gold.Chemscore.Internal_Hbond>
0.0000

> <Gold.Chemscore.DEClash>
0.4086

> <Gold.Chemscore.DEInternal>
1.9378

> <Gold.Chemscore.Rot>
5.2672

> <Gold.Chemscore.Internal.Correction>
   9.000000E+99

> <Gold.Chemscore.Hbonds>
donor molecule, donor type, donor heavy atom, donor atom, acceptor molecule, acceptor atom, score
      L1  H    23    50       P1 10747  0.98
      L1  H    25    51       P1 10186  0.94
      L1  H    27    52       P1  7921  0.92
      P1  H  6934  6947       L1    30  0.16
      P1  H 11000 11005       L1    11  0.19

> <Gold.Chemscore.Hbond.Weighted>
-14.2949

> <Gold.Chemscore.Metal.Weighted>
-0.0000

> <Gold.Chemscore.Lipo.Weighted>
-7.0441

> <Gold.Chemscore.Internal_Hbond.Weighted>
0.0000

> <Gold.Chemscore.DEClash.Weighted>
0.4086

> <Gold.Chemscore.DEInternal.Weighted>
1.9378

> <Gold.Chemscore.Rot.Weighted>
13.4839

> <Gold.Chemscore.Internal.Correction.Weighted>
   9.000000E+99

> <Gold.Protein.RotatedTorsions>
[ 6907 6896 6895 6894 ] final   19.15 input  -60.11 | X-H torsion
[ 7974 7965 7964 7962 ] final   73.65 input  175.53 | X-H torsion
[ 8008 7997 7996 7995 ] final  161.95 input   59.86 | X-H torsion
[ 10167 10162 10161 10158 ] final  118.46 input  -65.29 | X-H torsion
[ 10718 10713 10712 10709 ] final -175.23 input   66.30 | X-H torsion
[ 10763 10752 10751 10750 ] final -118.31 input  -60.55 | X-H torsion
[ 11005 11000 10999 10996 ] final   29.45 input  -57.11 | X-H torsion

> <Gold.Protein.ActiveResidues>
 VAL166  LYS551  ARG553  GLY616  TRP617  ASP618  TYR619  PRO620  LYS621  CYS622 
 ASP623  PHE694  ASN695  SER759  ASP760  ASP761  ALA762  ILE779  LEU786  VAL792 
 PHE793  MET794  SER795  GLU796  ALA797  LYS798  CYS799  TRP800  GLU811  SER814 

> <Gold.Protein.RotatedAtoms>
  151.8765  135.0470  160.0484 H   0  0  0  0  0  0  0  0  0  0  0  0  # atno 6907 bound_to 6896
  152.2547  133.5241  159.5354 H   0  0  0  0  0  0  0  0  0  0  0  0  # atno 6908 bound_to 6896
  150.7095  134.0828  159.3946 H   0  0  0  0  0  0  0  0  0  0  0  0  # atno 6909 bound_to 6896
  145.7382  139.2710  143.1501 H   0  0  0  0  0  0  0  0  0  0  0  0  # atno 7974 bound_to 7965
  156.2067  140.1763  156.7785 H   0  0  0  0  0  0  0  0  0  0  0  0  # atno 8008 bound_to 7997
  154.5664  140.0690  156.8929 H   0  0  0  0  0  0  0  0  0  0  0  0  # atno 8009 bound_to 7997
  155.2752  140.3345  155.4264 H   0  0  0  0  0  0  0  0  0  0  0  0  # atno 8010 bound_to 7997
  139.6110  144.7082  151.2844 H   0  0  0  0  0  0  0  0  0  0  0  0  # atno 10167 bound_to 10162
  156.7968  130.9538  151.3119 H   0  0  0  0  0  0  0  0  0  0  0  0  # atno 10718 bound_to 10713
  154.8583  135.4278  154.2118 H   0  0  0  0  0  0  0  0  0  0  0  0  # atno 10763 bound_to 10752
  153.3142  135.6978  153.7094 H   0  0  0  0  0  0  0  0  0  0  0  0  # atno 10764 bound_to 10752
  153.6175  135.3508  155.2973 H   0  0  0  0  0  0  0  0  0  0  0  0  # atno 10765 bound_to 10752
  140.3048  134.2715  155.7746 H   0  0  0  0  0  0  0  0  0  0  0  0  # atno 11005 bound_to 11000
  146.0473  140.8105  142.9799 LP  0  0  0  0  0  0  0  0  0  0  0  0  # atno 17320 bound_to 7965
  144.6877  140.2999  143.7265 LP  0  0  0  0  0  0  0  0  0  0  0  0  # atno 17321 bound_to 7965
  140.7319  143.6839  150.7978 LP  0  0  0  0  0  0  0  0  0  0  0  0  # atno 17342 bound_to 10162
  140.0433  143.5323  152.2707 LP  0  0  0  0  0  0  0  0  0  0  0  0  # atno 17343 bound_to 10162
  157.6573  130.8936  149.9756 LP  0  0  0  0  0  0  0  0  0  0  0  0  # atno 17370 bound_to 10713
  156.1125  130.3649  150.0024 LP  0  0  0  0  0  0  0  0  0  0  0  0  # atno 17371 bound_to 10713
  141.2120  133.7670  156.9821 LP  0  0  0  0  0  0  0  0  0  0  0  0  # atno 17394 bound_to 11000
  140.1077  134.9496  157.2018 LP  0  0  0  0  0  0  0  0  0  0  0  0  # atno 17395 bound_to 11000

$$$$
