AV-unprocessed.smi:2078|AV-procd|sdf|8466|dock8
  -GOLD-   2272011163D 1   1.00000     0.00000
 Structure written by MMmdl.
 42 43  0  0  0  0  0  0  0  0  2 V2000
  153.7433  137.9163  156.9977 C   0  0  0  0  0  0  0  0  0  0  0  0
  152.6808  138.2948  156.0236 C   0  0  0  0  0  0  0  0  0  0  0  0
  151.6620  137.5951  155.4408 C   0  0  0  0  0  0  0  0  0  0  0  0
  151.0369  138.5678  154.6161 C   0  0  0  0  0  0  0  0  0  0  0  0
  149.9088  138.2342  153.8239 N   0  0  0  0  0  0  0  0  0  0  0  0
  148.7293  138.8761  153.7681 C   0  0  0  0  0  0  0  0  0  0  0  0
  148.4359  139.8825  154.4143 O   0  0  0  0  0  0  0  0  0  0  0  0
  147.8879  138.2805  152.9104 N   0  0  0  0  0  0  0  0  0  0  0  0
  146.5370  138.7422  152.6122 C   0  0  0  0  0  0  0  0  0  0  0  0
  145.8825  137.9014  151.4986 C   0  0  0  0  0  0  0  0  0  0  0  0
  146.0332  136.4421  151.7271 N   0  3  2  0  0  0  0  0  0  0  0  0
  145.1716  135.6409  150.8194 C   0  0  0  0  0  0  0  0  0  0  0  0
  145.4458  134.1367  150.9767 C   0  0  0  0  0  0  0  0  0  0  0  0
  145.2658  133.6935  152.4339 C   0  0  0  0  0  0  0  0  0  0  0  0
  146.1422  134.5495  153.3635 C   0  0  2  0  0  0  0  0  0  0  0  0
  145.9617  134.1453  154.8335 C   0  0  0  0  0  0  0  0  0  0  0  0
  145.8434  136.0470  153.1490 C   0  0  0  0  0  0  0  0  0  0  0  0
  151.6202  139.7542  154.6894 N   0  0  0  0  0  0  0  0  0  0  0  0
  152.6775  139.5851  155.5910 O   0  0  0  0  0  0  0  0  0  0  0  0
  153.4676  137.0126  157.5416 H   0  0  0  0  0  0  0  0  0  0  0  0
  153.9050  138.7118  157.7257 H   0  0  0  0  0  0  0  0  0  0  0  0
  154.6870  137.7287  156.4850 H   0  0  0  0  0  0  0  0  0  0  0  0
  151.4088  136.5550  155.5834 H   0  0  0  0  0  0  0  0  0  0  0  0
  150.0132  137.4210  153.2355 H   0  0  0  0  0  0  0  0  0  0  0  0
  148.2094  137.4584  152.4201 H   0  0  0  0  0  0  0  0  0  0  0  0
  145.9280  138.7185  153.5175 H   0  0  0  0  0  0  0  0  0  0  0  0
  146.6140  139.7879  152.3175 H   0  0  0  0  0  0  0  0  0  0  0  0
  144.8263  138.1529  151.3908 H   0  0  0  0  0  0  0  0  0  0  0  0
  146.3569  138.1599  150.5508 H   0  0  0  0  0  0  0  0  0  0  0  0
  144.1222  135.8575  151.0260 H   0  0  0  0  0  0  0  0  0  0  0  0
  145.3575  135.9287  149.7838 H   0  0  0  0  0  0  0  0  0  0  0  0
  144.7782  133.5667  150.3298 H   0  0  0  0  0  0  0  0  0  0  0  0
  146.4612  133.9123  150.6473 H   0  0  0  0  0  0  0  0  0  0  0  0
  144.2167  133.7876  152.7188 H   0  0  0  0  0  0  0  0  0  0  0  0
  145.5233  132.6385  152.5351 H   0  0  0  0  0  0  0  0  0  0  0  0
  147.1866  134.3736  153.1007 H   0  0  0  0  0  0  0  0  0  0  0  0
  144.9324  134.2927  155.1622 H   0  0  0  0  0  0  0  0  0  0  0  0
  146.6067  134.7346  155.4859 H   0  0  0  0  0  0  0  0  0  0  0  0
  146.2122  133.0949  154.9853 H   0  0  0  0  0  0  0  0  0  0  0  0
  146.5013  136.6317  153.7909 H   0  0  0  0  0  0  0  0  0  0  0  0
  144.8212  136.2756  153.4558 H   0  0  0  0  0  0  0  0  0  0  0  0
  146.9858  136.2132  151.4809 H   0  0  0  0  0  0  0  0  0  0  0  0
  1  2  1  0  0  0  0
  1 20  1  0  0  0  0
  1 21  1  0  0  0  0
  1 22  1  0  0  0  0
  2 19  1  0  0  0  0
  2  3  2  0  0  0  0
  3  4  1  0  0  0  0
  3 23  1  0  0  0  0
  4  5  1  0  0  0  0
  4 18  2  0  0  0  0
  5  6  1  0  0  0  0
  5 24  1  0  0  0  0
  6  7  2  0  0  0  0
  6  8  1  0  0  0  0
  8  9  1  0  0  0  0
  8 25  1  0  0  0  0
  9 10  1  0  0  0  0
  9 26  1  0  0  0  0
  9 27  1  0  0  0  0
 10 11  1  0  0  0  0
 10 28  1  0  0  0  0
 10 29  1  0  0  0  0
 11 17  1  0  0  0  0
 11 12  1  0  0  0  0
 11 42  1  0  0  0  0
 12 13  1  0  0  0  0
 12 30  1  0  0  0  0
 12 31  1  0  0  0  0
 13 14  1  0  0  0  0
 13 32  1  0  0  0  0
 13 33  1  0  0  0  0
 14 15  1  0  0  0  0
 14 34  1  0  0  0  0
 14 35  1  0  0  0  0
 15 16  1  0  0  0  0
 15 17  1  0  0  0  0
 15 36  1  0  0  0  0
 16 37  1  0  0  0  0
 16 38  1  0  0  0  0
 16 39  1  0  0  0  0
 17 40  1  0  0  0  0
 17 41  1  0  0  0  0
 18 19  1  0  0  0  0
M  CHG  1  11   1
M  END
> <s_m_source_file>
AV-unprocessed.smi

> <i_m_source_file_index>
2078

> <i_lp_mmshare_version>
43012

> <i_f3d_flags>
0

> <s_epik_input>
W0NIM11jMVtjSF1jKG5vMSlbTkhdQyg9TylbTkhdW0NIMl1bQ0gyXU4yW0NIMl1bQ0gyXVtDSDJdW0NAQEhdKFtDSDNdKVtDSDJdMg==

> <s_epik_cmdline>
J2VwaWtfcHl0aG9uJywgJy1waCcsICc3LjAnLCAnLXRuJywgJzgnLCAnLW1hJywgJzIwMCcsICctbWV0YWxfYmluZGluZycsICctaW1hZScsICc8aW5maWxlLm1hZT4nLCAnLW9tYWUnLCAnPG91dGZpbGUubWFlPic=

> <r_epik_Ionization_Penalty>
0.00216453

> <r_epik_Ionization_Penalty_Charging>
0.00212879

> <r_epik_Ionization_Penalty_Neutral>
3.57418e-05

> <r_epik_State_Penalty>
0.00146033

> <r_epik_Charging_Adjusted_Penalty>
0.00358912

> <i_epik_Tot_Q>
1

> <i_epik_Tot_abs_Q>
1

> <r_epik_Metal_State_Penalty>
0.0215827

> <b_epik_Metal_Only>
0

> <s_lp_Force_Field>
OPLS_2005

> <r_lp_Energy>
12.7075

> <b_lp_Chiralities_Consistent>
1

> <s_lp_Variant>
AV-unprocessed.smi:2078-4

> <Gold.Version>
5.8.1

> <Gold.Id.Protein>
6NUR|6NUR_protein|mol2

> <Gold.PLP.Fitness>
44.3529

> <Gold.PLP.PLP>
-28.1806

> <Gold.PLP.part.hbond>
-6.2568

> <Gold.PLP.part.metal>
0.0000

> <Gold.PLP.part.buried>
-0.1930

> <Gold.PLP.part.nonpolar>
-23.9471

> <Gold.PLP.part.repulsive>
0.3348

> <Gold.PLP.ligand.clash>
0.0000

> <Gold.PLP.ligand.torsion>
0.6271

> <Gold.PLP.Chemscore.Hbond>
5.8034

> <Gold.PLP.Chemscore.CHOScore>
0.0000

> <Gold.PLP.Chemscore.Metal>
0.0000

> <Gold.Chemscore.Hbonds>
donor molecule, donor type, donor heavy atom, donor atom, acceptor molecule, acceptor atom, score
      L1  H     5    24       P1  7948  0.80
      L1  H     8    25       P1  7948  0.98
      L1  H    11    42       P1  7948  2.00
      P1  H  7989  7998       L1    18  1.00
      P1  H  7997  8009       L1    19  1.00

> <Gold.PLP.Chemscore.Internal.Correction>
0.0164

> <Gold.Rescore>
     Score         DG    S(hbond)    S(metal)    S(lipo)     H(rot)  DE(clash)    DE(int)     intcor
     20.12     -21.98       4.14        0.00      57.15       1.57       1.26       0.59       ----

> <Gold.Chemscore.Fitness>
20.1240

> <Gold.Chemscore.DG>
-21.9764

> <Gold.Chemscore.ZeroCoef>
-5.4800

> <Gold.Chemscore.Hbond>
4.1401

> <Gold.Chemscore.Metal>
0.0000

> <Gold.Chemscore.Lipo>
57.1527

> <Gold.Chemscore.Internal_Hbond>
0.0000

> <Gold.Chemscore.DEClash>
1.2603

> <Gold.Chemscore.DEInternal>
0.5921

> <Gold.Chemscore.Rot>
1.5697

> <Gold.Chemscore.Internal.Correction>
   9.000000E+99

> <Gold.Chemscore.Hbonds>
donor molecule, donor type, donor heavy atom, donor atom, acceptor molecule, acceptor atom, score
      L1  H     5    24       P1  7948  0.23
      L1  H     8    25       P1  7948  0.92
      L1  H    11    42       P1  7948  0.95
      P1  H  7989  7998       L1    18  0.97
      P1  H  7997  8009       L1    19  0.35

> <Gold.Chemscore.Hbond.Weighted>
-13.8280

> <Gold.Chemscore.Metal.Weighted>
-0.0000

> <Gold.Chemscore.Lipo.Weighted>
-6.6869

> <Gold.Chemscore.Internal_Hbond.Weighted>
0.0000

> <Gold.Chemscore.DEClash.Weighted>
1.2603

> <Gold.Chemscore.DEInternal.Weighted>
0.5921

> <Gold.Chemscore.Rot.Weighted>
4.0185

> <Gold.Chemscore.Internal.Correction.Weighted>
   9.000000E+99

> <Gold.Protein.RotatedTorsions>
[ 6907 6896 6895 6894 ] final -159.05 input  -60.11 | X-H torsion
[ 7974 7965 7964 7962 ] final  160.77 input  175.53 | X-H torsion
[ 8008 7997 7996 7995 ] final -148.61 input   59.86 | X-H torsion
[ 10167 10162 10161 10158 ] final  -50.25 input  -65.29 | X-H torsion
[ 10718 10713 10712 10709 ] final  -19.79 input   66.30 | X-H torsion
[ 10763 10752 10751 10750 ] final   24.40 input  -60.55 | X-H torsion
[ 11005 11000 10999 10996 ] final   53.84 input  -57.11 | X-H torsion

> <Gold.Protein.ActiveResidues>
 VAL166  LYS551  ARG553  GLY616  TRP617  ASP618  TYR619  PRO620  LYS621  CYS622 
 ASP623  PHE694  ASN695  SER759  ASP760  ASP761  ALA762  ILE779  LEU786  VAL792 
 PHE793  MET794  SER795  GLU796  ALA797  LYS798  CYS799  TRP800  GLU811  SER814 

> <Gold.Protein.RotatedAtoms>
  151.3276  133.4014  159.2659 H   0  0  0  0  0  0  0  0  0  0  0  0  # atno 6907 bound_to 6896
  150.9982  134.9302  159.7949 H   0  0  0  0  0  0  0  0  0  0  0  0  # atno 6908 bound_to 6896
  152.5267  134.3241  159.9211 H   0  0  0  0  0  0  0  0  0  0  0  0  # atno 6909 bound_to 6896
  144.7720  139.7804  143.6293 H   0  0  0  0  0  0  0  0  0  0  0  0  # atno 7974 bound_to 7965
  155.5944  140.0656  157.2750 H   0  0  0  0  0  0  0  0  0  0  0  0  # atno 8008 bound_to 7997
  154.4296  140.1829  156.1155 H   0  0  0  0  0  0  0  0  0  0  0  0  # atno 8009 bound_to 7997
  156.0208  140.3317  155.7040 H   0  0  0  0  0  0  0  0  0  0  0  0  # atno 8010 bound_to 7997
  140.6646  143.2665  151.4333 H   0  0  0  0  0  0  0  0  0  0  0  0  # atno 10167 bound_to 10162
  156.5407  130.4677  149.6500 H   0  0  0  0  0  0  0  0  0  0  0  0  # atno 10718 bound_to 10713
  153.0766  135.6606  154.0132 H   0  0  0  0  0  0  0  0  0  0  0  0  # atno 10763 bound_to 10752
  153.9764  135.2959  155.3425 H   0  0  0  0  0  0  0  0  0  0  0  0  # atno 10764 bound_to 10752
  154.7156  135.5187  153.8803 H   0  0  0  0  0  0  0  0  0  0  0  0  # atno 10765 bound_to 10752
  140.0734  134.5438  155.9022 H   0  0  0  0  0  0  0  0  0  0  0  0  # atno 11005 bound_to 11000
  146.1873  139.5094  142.9828 LP  0  0  0  0  0  0  0  0  0  0  0  0  # atno 17320 bound_to 7965
  145.6297  141.0306  143.1870 LP  0  0  0  0  0  0  0  0  0  0  0  0  # atno 17321 bound_to 7965
  139.5891  144.1539  152.2066 LP  0  0  0  0  0  0  0  0  0  0  0  0  # atno 17342 bound_to 10162
  140.0888  144.5638  150.7069 LP  0  0  0  0  0  0  0  0  0  0  0  0  # atno 17343 bound_to 10162
  156.2974  130.7158  151.2021 LP  0  0  0  0  0  0  0  0  0  0  0  0  # atno 17370 bound_to 10713
  157.7406  131.0515  150.5157 LP  0  0  0  0  0  0  0  0  0  0  0  0  # atno 17371 bound_to 10713
  141.2020  133.6622  156.5984 LP  0  0  0  0  0  0  0  0  0  0  0  0  # atno 17394 bound_to 11000
  140.3593  134.7701  157.4522 LP  0  0  0  0  0  0  0  0  0  0  0  0  # atno 17395 bound_to 11000

$$$$
