AV-unprocessed.smi:3141|AV-procd|sdf|11969|dock10
  -GOLD-   2272017373D 1   1.00000     0.00000
 Structure written by MMmdl.
 35 37  0  0  0  0  0  0  0  0  1 V2000
  151.3442  141.3885  157.8358 O   0  0  0  0  0  0  0  0  0  0  0  0
  150.8271  142.2707  157.1502 C   0  0  0  0  0  0  0  0  0  0  0  0
  151.2203  143.5511  157.1448 N   0  0  0  0  0  0  0  0  0  0  0  0
  152.2895  144.0915  157.9200 C   0  0  0  0  0  0  0  0  0  0  0  0
  152.2316  143.9024  159.4204 C   0  0  0  0  0  0  0  0  0  0  0  0
  151.9777  145.2611  158.8285 C   0  0  0  0  0  0  0  0  0  0  0  0
  149.8005  142.0665  156.3137 N   0  0  0  0  0  0  0  0  0  0  0  0
  149.1612  140.7767  156.0686 C   0  0  1  0  0  0  0  0  0  0  0  0
  147.6269  140.9110  155.9759 C   0  0  0  0  0  0  0  0  0  0  0  0
  147.2469  140.5577  154.5353 C   0  0  0  0  0  0  0  0  0  0  0  0
  148.3516  139.6147  154.0683 C   0  0  0  0  0  0  0  0  0  0  0  0
  149.6151  140.1956  154.7129 C   0  0  2  0  0  0  0  0  0  0  0  0
  150.7057  139.2406  154.8336 N   0  0  0  0  0  0  0  0  0  0  0  0
  151.9142  139.4420  155.4882 C   0  0  0  0  0  0  0  0  0  0  0  0
  152.6301  138.2727  155.3676 C   0  0  0  0  0  0  0  0  0  0  0  0
  151.8842  137.3386  154.6538 N   0  0  0  0  0  0  0  0  0  0  0  0
  150.7570  137.9804  154.3755 C   0  0  0  0  0  0  0  0  0  0  0  0
  150.7265  144.1951  156.5449 H   0  0  0  0  0  0  0  0  0  0  0  0
  153.2838  144.0836  157.4754 H   0  0  0  0  0  0  0  0  0  0  0  0
  151.3786  143.3684  159.8348 H   0  0  0  0  0  0  0  0  0  0  0  0
  153.1738  143.7500  159.9427 H   0  0  0  0  0  0  0  0  0  0  0  0
  152.7503  146.0165  158.9557 H   0  0  0  0  0  0  0  0  0  0  0  0
  150.9553  145.6340  158.8461 H   0  0  0  0  0  0  0  0  0  0  0  0
  149.4437  142.8564  155.7964 H   0  0  0  0  0  0  0  0  0  0  0  0
  149.4034  140.0849  156.8781 H   0  0  0  0  0  0  0  0  0  0  0  0
  147.1638  140.1970  156.6582 H   0  0  0  0  0  0  0  0  0  0  0  0
  147.2612  141.9000  156.2560 H   0  0  0  0  0  0  0  0  0  0  0  0
  146.2546  140.1121  154.4606 H   0  0  0  0  0  0  0  0  0  0  0  0
  147.2535  141.4602  153.9224 H   0  0  0  0  0  0  0  0  0  0  0  0
  148.1470  138.6100  154.4399 H   0  0  0  0  0  0  0  0  0  0  0  0
  148.4234  139.5596  152.9817 H   0  0  0  0  0  0  0  0  0  0  0  0
  149.9546  141.0100  154.0695 H   0  0  0  0  0  0  0  0  0  0  0  0
  152.1590  140.3751  155.9738 H   0  0  0  0  0  0  0  0  0  0  0  0
  153.6148  138.0325  155.7407 H   0  0  0  0  0  0  0  0  0  0  0  0
  149.9476  137.5201  153.8278 H   0  0  0  0  0  0  0  0  0  0  0  0
  1  2  2  0  0  0  0
  2  3  1  0  0  0  0
  2  7  1  0  0  0  0
  3  4  1  0  0  0  0
  3 18  1  0  0  0  0
  4  6  1  0  0  0  0
  4  5  1  0  0  0  0
  4 19  1  0  0  0  0
  5  6  1  0  0  0  0
  5 20  1  0  0  0  0
  5 21  1  0  0  0  0
  6 22  1  0  0  0  0
  6 23  1  0  0  0  0
  7  8  1  0  0  0  0
  7 24  1  0  0  0  0
  8 12  1  0  0  0  0
  8  9  1  0  0  0  0
  8 25  1  0  0  0  0
  9 10  1  0  0  0  0
  9 26  1  0  0  0  0
  9 27  1  0  0  0  0
 10 11  1  0  0  0  0
 10 28  1  0  0  0  0
 10 29  1  0  0  0  0
 11 12  1  0  0  0  0
 11 30  1  0  0  0  0
 11 31  1  0  0  0  0
 12 13  1  0  0  0  0
 12 32  1  0  0  0  0
 13 17  1  0  0  0  0
 13 14  1  0  0  0  0
 14 15  2  0  0  0  0
 14 33  1  0  0  0  0
 15 16  1  0  0  0  0
 15 34  1  0  0  0  0
 16 17  2  0  0  0  0
 17 35  1  0  0  0  0
M  END
> <s_m_source_file>
AV-unprocessed.smi

> <i_m_source_file_index>
3141

> <i_lp_mmshare_version>
43012

> <i_f3d_flags>
0

> <s_epik_input>
W0NIMl0xW0NIMl1bQ0hdMVtOSF1DKD1PKVtOSF1bQ0BASF0yW0NIMl1bQ0gyXVtDSDJdW0NASF0ybjNbY0hdW2NIXW5bY0hdMw==

> <s_epik_cmdline>
J2VwaWtfcHl0aG9uJywgJy1waCcsICc3LjAnLCAnLXRuJywgJzgnLCAnLW1hJywgJzIwMCcsICctbWV0YWxfYmluZGluZycsICctaW1hZScsICc8aW5maWxlLm1hZT4nLCAnLW9tYWUnLCAnPG91dGZpbGUubWFlPic=

> <r_lp_tautomer_probability>
1

> <r_epik_Ionization_Penalty>
0.728419

> <r_epik_Ionization_Penalty_Charging>
0.728357

> <r_epik_Ionization_Penalty_Neutral>
6.27871e-05

> <r_epik_State_Penalty>
0.753408

> <r_epik_Charging_Adjusted_Penalty>
1.48176

> <i_epik_Tot_Q>
0

> <i_epik_Tot_abs_Q>
0

> <r_epik_Metal_State_Penalty>
0.332413

> <b_epik_Metal_Only>
0

> <s_lp_Force_Field>
OPLS_2005

> <r_lp_Energy>
34.7591

> <b_lp_Chiralities_Consistent>
1

> <s_lp_Variant>
AV-unprocessed.smi:3141-8

> <Gold.Version>
5.8.1

> <Gold.Id.Protein>
6NUR|6NUR_protein|mol2

> <Gold.PLP.Fitness>
50.4183

> <Gold.PLP.PLP>
-39.4478

> <Gold.PLP.part.hbond>
-3.0000

> <Gold.PLP.part.metal>
0.0000

> <Gold.PLP.part.buried>
-2.8752

> <Gold.PLP.part.nonpolar>
-33.7545

> <Gold.PLP.part.repulsive>
0.2401

> <Gold.PLP.ligand.clash>
0.0000

> <Gold.PLP.ligand.torsion>
0.3332

> <Gold.PLP.Chemscore.Hbond>
2.8590

> <Gold.PLP.Chemscore.CHOScore>
1.0060

> <Gold.PLP.Chemscore.Metal>
0.0000

> <Gold.Chemscore.Hbonds>
donor molecule, donor type, donor heavy atom, donor atom, acceptor molecule, acceptor atom, score
      L1  H     3    18       P1  8028  0.83
      L1  H     7    24       P1  8028  1.00
      P1  H 10752 10765       L1    16  0.94
      L1  C    17    35       P1  7948  1.00

> <Gold.PLP.Chemscore.Internal.Correction>
0.0419

> <Gold.Rescore>
     Score         DG    S(hbond)    S(metal)    S(lipo)     H(rot)  DE(clash)    DE(int)     intcor
     19.29     -19.76       2.65        0.00      80.87       1.57       0.16       0.31       ----

> <Gold.Chemscore.Fitness>
19.2906

> <Gold.Chemscore.DG>
-19.7614

> <Gold.Chemscore.ZeroCoef>
-5.4800

> <Gold.Chemscore.Hbond>
2.6467

> <Gold.Chemscore.Metal>
0.0000

> <Gold.Chemscore.Lipo>
80.8720

> <Gold.Chemscore.Internal_Hbond>
0.0000

> <Gold.Chemscore.DEClash>
0.1562

> <Gold.Chemscore.DEInternal>
0.3145

> <Gold.Chemscore.Rot>
1.5705

> <Gold.Chemscore.Internal.Correction>
   9.000000E+99

> <Gold.Chemscore.Hbonds>
donor molecule, donor type, donor heavy atom, donor atom, acceptor molecule, acceptor atom, score
      L1  H     3    18       P1  8028  0.77
      L1  H     7    24       P1  8028  0.96
      P1  H 10752 10765       L1    16  0.68

> <Gold.Chemscore.Hbond.Weighted>
-8.8399

> <Gold.Chemscore.Metal.Weighted>
-0.0000

> <Gold.Chemscore.Lipo.Weighted>
-9.4620

> <Gold.Chemscore.Internal_Hbond.Weighted>
0.0000

> <Gold.Chemscore.DEClash.Weighted>
0.1562

> <Gold.Chemscore.DEInternal.Weighted>
0.3145

> <Gold.Chemscore.Rot.Weighted>
4.0206

> <Gold.Chemscore.Internal.Correction.Weighted>
   9.000000E+99

> <Gold.Protein.RotatedTorsions>
[ 6907 6896 6895 6894 ] final   90.28 input  -60.11 | X-H torsion
[ 7974 7965 7964 7962 ] final   77.68 input  175.53 | X-H torsion
[ 8008 7997 7996 7995 ] final   19.45 input   59.86 | X-H torsion
[ 10167 10162 10161 10158 ] final -168.27 input  -65.29 | X-H torsion
[ 10718 10713 10712 10709 ] final -137.94 input   66.30 | X-H torsion
[ 10763 10752 10751 10750 ] final  161.61 input  -60.55 | X-H torsion
[ 11005 11000 10999 10996 ] final -130.43 input  -57.11 | X-H torsion

> <Gold.Protein.ActiveResidues>
 VAL166  LYS551  ARG553  GLY616  TRP617  ASP618  TYR619  PRO620  LYS621  CYS622 
 ASP623  PHE694  ASN695  SER759  ASP760  ASP761  ALA762  ILE779  LEU786  VAL792 
 PHE793  MET794  SER795  GLU796  ALA797  LYS798  CYS799  TRP800  GLU811  SER814 

> <Gold.Protein.RotatedAtoms>
  152.5443  134.1836  159.8645 H   0  0  0  0  0  0  0  0  0  0  0  0  # atno 6907 bound_to 6896
  151.1836  133.4703  159.2602 H   0  0  0  0  0  0  0  0  0  0  0  0  # atno 6908 bound_to 6896
  151.1153  135.0061  159.8568 H   0  0  0  0  0  0  0  0  0  0  0  0  # atno 6909 bound_to 6896
  145.6869  139.2540  143.1782 H   0  0  0  0  0  0  0  0  0  0  0  0  # atno 7974 bound_to 7965
  154.9209  140.3027  155.5216 H   0  0  0  0  0  0  0  0  0  0  0  0  # atno 8008 bound_to 7997
  156.3010  140.2371  156.4195 H   0  0  0  0  0  0  0  0  0  0  0  0  # atno 8009 bound_to 7997
  154.8331  140.0417  157.1479 H   0  0  0  0  0  0  0  0  0  0  0  0  # atno 8010 bound_to 7997
  139.5996  144.1039  152.1728 H   0  0  0  0  0  0  0  0  0  0  0  0  # atno 10167 bound_to 10162
  156.2938  130.7390  151.1423 H   0  0  0  0  0  0  0  0  0  0  0  0  # atno 10718 bound_to 10713
  154.2656  135.2767  155.2760 H   0  0  0  0  0  0  0  0  0  0  0  0  # atno 10763 bound_to 10752
  154.5346  135.5720  153.6791 H   0  0  0  0  0  0  0  0  0  0  0  0  # atno 10764 bound_to 10752
  152.9954  135.6236  154.2808 H   0  0  0  0  0  0  0  0  0  0  0  0  # atno 10765 bound_to 10752
  140.9347  134.1273  157.4204 H   0  0  0  0  0  0  0  0  0  0  0  0  # atno 11005 bound_to 11000
  146.0915  140.7650  142.9593 LP  0  0  0  0  0  0  0  0  0  0  0  0  # atno 17320 bound_to 7965
  144.7008  140.3645  143.7157 LP  0  0  0  0  0  0  0  0  0  0  0  0  # atno 17321 bound_to 7965
  140.0632  144.5839  150.7247 LP  0  0  0  0  0  0  0  0  0  0  0  0  # atno 17342 bound_to 10162
  140.7239  143.2616  151.4186 LP  0  0  0  0  0  0  0  0  0  0  0  0  # atno 17343 bound_to 10162
  157.7350  131.0577  150.5495 LP  0  0  0  0  0  0  0  0  0  0  0  0  # atno 17370 bound_to 10713
  156.5615  130.4257  149.6061 LP  0  0  0  0  0  0  0  0  0  0  0  0  # atno 17371 bound_to 10713
  139.8805  135.0017  156.6081 LP  0  0  0  0  0  0  0  0  0  0  0  0  # atno 17394 bound_to 11000
  140.7816  133.8655  155.8572 LP  0  0  0  0  0  0  0  0  0  0  0  0  # atno 17395 bound_to 11000

$$$$
