AV-unprocessed.smi:2485|AV-procd|sdf|9788|dock2
  -GOLD-   2272013423D 1   1.00000     0.00000
 Structure written by MMmdl.
 39 40  0  0  0  0  0  0  0  0  1 V2000
  148.9929  141.2085  154.4577 C   0  0  0  0  0  0  0  0  0  0  0  0
  150.1051  140.7866  155.4296 C   0  0  0  0  0  0  0  0  0  0  0  0
  150.9335  142.0023  155.8791 C   0  0  0  0  0  0  0  0  0  0  0  0
  149.5625  139.9874  156.6205 C   0  0  0  0  0  0  0  0  0  0  0  0
  150.6628  138.9807  156.8905 C   0  0  1  0  0  0  0  0  0  0  0  0
  150.1516  137.8009  157.5853 N   0  0  0  0  0  0  0  0  0  0  0  0
  149.3262  137.8233  158.6408 C   0  0  0  0  0  0  0  0  0  0  0  0
  148.8792  138.8592  159.1334 O   0  0  0  0  0  0  0  0  0  0  0  0
  149.0649  136.5793  159.0769 N   0  0  0  0  0  0  0  0  0  0  0  0
  148.2611  136.1895  160.1799 C   0  0  0  0  0  0  0  0  0  0  0  0
  148.0117  134.8048  160.2852 C   0  0  0  0  0  0  0  0  0  0  0  0
  147.2238  134.3487  161.3557 C   0  0  0  0  0  0  0  0  0  0  0  0
  146.7374  135.3142  162.2536 C   0  0  0  0  0  0  0  0  0  0  0  0
  147.0020  136.6313  162.1147 N   0  0  0  0  0  0  0  0  0  0  0  0
  147.7520  137.0581  161.0925 N   0  0  0  0  0  0  0  0  0  0  0  0
  151.2012  138.6879  155.4726 C   0  0  0  0  0  0  0  0  0  0  0  0
  152.7098  138.3946  155.4701 C   0  0  0  0  0  0  0  0  0  0  0  0
  150.4305  137.5865  154.7144 C   0  0  0  0  0  0  0  0  0  0  0  0
  150.9902  139.8990  154.7480 O   0  0  0  0  0  0  0  0  0  0  0  0
  148.2800  141.8771  154.9411 H   0  0  0  0  0  0  0  0  0  0  0  0
  148.4411  140.3436  154.0880 H   0  0  0  0  0  0  0  0  0  0  0  0
  149.4035  141.7286  153.5917 H   0  0  0  0  0  0  0  0  0  0  0  0
  150.3196  142.7181  156.4262 H   0  0  0  0  0  0  0  0  0  0  0  0
  151.3634  142.5222  155.0224 H   0  0  0  0  0  0  0  0  0  0  0  0
  151.7579  141.7078  156.5288 H   0  0  0  0  0  0  0  0  0  0  0  0
  149.3340  140.6089  157.4872 H   0  0  0  0  0  0  0  0  0  0  0  0
  148.6440  139.4686  156.3408 H   0  0  0  0  0  0  0  0  0  0  0  0
  151.4305  139.4726  157.4908 H   0  0  0  0  0  0  0  0  0  0  0  0
  150.4682  136.9040  157.2474 H   0  0  0  0  0  0  0  0  0  0  0  0
  149.4985  135.8244  158.5665 H   0  0  0  0  0  0  0  0  0  0  0  0
  148.4122  134.1070  159.5644 H   0  0  0  0  0  0  0  0  0  0  0  0
  147.0008  133.2998  161.4833 H   0  0  0  0  0  0  0  0  0  0  0  0
  146.1267  135.0270  163.0965 H   0  0  0  0  0  0  0  0  0  0  0  0
  152.9361  137.4752  156.0101 H   0  0  0  0  0  0  0  0  0  0  0  0
  153.2708  139.2031  155.9397 H   0  0  0  0  0  0  0  0  0  0  0  0
  153.0871  138.2817  154.4535 H   0  0  0  0  0  0  0  0  0  0  0  0
  150.5731  136.6074  155.1726 H   0  0  0  0  0  0  0  0  0  0  0  0
  150.7729  137.5133  153.6818 H   0  0  0  0  0  0  0  0  0  0  0  0
  149.3599  137.7900  154.6880 H   0  0  0  0  0  0  0  0  0  0  0  0
  1  2  1  0  0  0  0
  1 20  1  0  0  0  0
  1 21  1  0  0  0  0
  1 22  1  0  0  0  0
  2 19  1  0  0  0  0
  2  3  1  0  0  0  0
  2  4  1  0  0  0  0
  3 23  1  0  0  0  0
  3 24  1  0  0  0  0
  3 25  1  0  0  0  0
  4  5  1  0  0  0  0
  4 26  1  0  0  0  0
  4 27  1  0  0  0  0
  5  6  1  0  0  0  0
  5 16  1  0  0  0  0
  5 28  1  0  0  0  0
  6  7  1  0  0  0  0
  6 29  1  0  0  0  0
  7  8  2  0  0  0  0
  7  9  1  0  0  0  0
  9 10  1  0  0  0  0
  9 30  1  0  0  0  0
 10 15  1  0  0  0  0
 10 11  2  0  0  0  0
 11 12  1  0  0  0  0
 11 31  1  0  0  0  0
 12 13  2  0  0  0  0
 12 32  1  0  0  0  0
 13 14  1  0  0  0  0
 13 33  1  0  0  0  0
 14 15  2  0  0  0  0
 16 17  1  0  0  0  0
 16 18  1  0  0  0  0
 16 19  1  0  0  0  0
 17 34  1  0  0  0  0
 17 35  1  0  0  0  0
 17 36  1  0  0  0  0
 18 37  1  0  0  0  0
 18 38  1  0  0  0  0
 18 39  1  0  0  0  0
M  END
> <s_m_source_file>
AV-unprocessed.smi

> <i_m_source_file_index>
2485

> <i_lp_mmshare_version>
43012

> <i_f3d_flags>
0

> <s_epik_input>
W0NIM11DMShbQ0gzXSlbQ0gyXVtDQEhdKEMoTzEpKFtDSDNdKVtDSDNdKVtOSF1DKD1PKVtOSF1jMltjSF1bY0hdW2NIXW5uMg==

> <s_epik_cmdline>
J2VwaWtfcHl0aG9uJywgJy1waCcsICc3LjAnLCAnLXRuJywgJzgnLCAnLW1hJywgJzIwMCcsICctbWV0YWxfYmluZGluZycsICctaW1hZScsICc8aW5maWxlLm1hZT4nLCAnLW9tYWUnLCAnPG91dGZpbGUubWFlPic=

> <r_lp_tautomer_probability>
1

> <r_epik_Ionization_Penalty>
0.00480341

> <r_epik_Ionization_Penalty_Charging>
0

> <r_epik_Ionization_Penalty_Neutral>
0.00480341

> <r_epik_State_Penalty>
-0

> <r_epik_Charging_Adjusted_Penalty>
0

> <i_epik_Tot_Q>
0

> <i_epik_Tot_abs_Q>
0

> <r_epik_Metal_State_Penalty>
-0

> <b_epik_Metal_Only>
0

> <s_lp_Force_Field>
OPLS_2005

> <r_lp_Energy>
24.1228

> <b_lp_Chiralities_Consistent>
1

> <s_lp_Variant>
AV-unprocessed.smi:2485-1

> <Gold.Version>
5.8.1

> <Gold.Id.Protein>
6NUR|6NUR_protein|mol2

> <Gold.PLP.Fitness>
36.7679

> <Gold.PLP.PLP>
-28.6704

> <Gold.PLP.part.hbond>
-5.0000

> <Gold.PLP.part.metal>
0.0000

> <Gold.PLP.part.buried>
-2.8599

> <Gold.PLP.part.nonpolar>
-21.4501

> <Gold.PLP.part.repulsive>
0.2832

> <Gold.PLP.ligand.clash>
0.0000

> <Gold.PLP.ligand.torsion>
0.2318

> <Gold.PLP.Chemscore.Hbond>
2.8500

> <Gold.PLP.Chemscore.CHOScore>
0.0000

> <Gold.PLP.Chemscore.Metal>
0.0000

> <Gold.Chemscore.Hbonds>
donor molecule, donor type, donor heavy atom, donor atom, acceptor molecule, acceptor atom, score
      P1  H  6931  6943       L1    15  0.99
      P1  H  6934  6947       L1    15  0.83
      P1  H  7989  7998       L1    19  1.00

> <Gold.PLP.Chemscore.Internal.Correction>
0.0111

> <Gold.Rescore>
     Score         DG    S(hbond)    S(metal)    S(lipo)     H(rot)  DE(clash)    DE(int)     intcor
     13.47     -17.84       2.01        0.00      70.08       1.00       1.50       2.87       ----

> <Gold.Chemscore.Fitness>
13.4679

> <Gold.Chemscore.DG>
-17.8392

> <Gold.Chemscore.ZeroCoef>
-5.4800

> <Gold.Chemscore.Hbond>
2.0120

> <Gold.Chemscore.Metal>
0.0000

> <Gold.Chemscore.Lipo>
70.0776

> <Gold.Chemscore.Internal_Hbond>
0.0000

> <Gold.Chemscore.DEClash>
1.4994

> <Gold.Chemscore.DEInternal>
2.8720

> <Gold.Chemscore.Rot>
1.0000

> <Gold.Chemscore.Internal.Correction>
   9.000000E+99

> <Gold.Chemscore.Hbonds>
donor molecule, donor type, donor heavy atom, donor atom, acceptor molecule, acceptor atom, score
      P1  H  6931  6943       L1    15  0.38
      P1  H  6934  6947       L1    15  0.27
      P1  H  7989  7998       L1    19  0.40

> <Gold.Chemscore.Hbond.Weighted>
-6.7201

> <Gold.Chemscore.Metal.Weighted>
-0.0000

> <Gold.Chemscore.Lipo.Weighted>
-8.1991

> <Gold.Chemscore.Internal_Hbond.Weighted>
0.0000

> <Gold.Chemscore.DEClash.Weighted>
1.4994

> <Gold.Chemscore.DEInternal.Weighted>
2.8720

> <Gold.Chemscore.Rot.Weighted>
2.5600

> <Gold.Chemscore.Internal.Correction.Weighted>
   9.000000E+99

> <Gold.Protein.RotatedTorsions>
[ 6907 6896 6895 6894 ] final   97.38 input  -60.11 | X-H torsion
[ 7974 7965 7964 7962 ] final   -5.71 input  175.53 | X-H torsion
[ 8008 7997 7996 7995 ] final  -44.91 input   59.86 | X-H torsion
[ 10167 10162 10161 10158 ] final  101.49 input  -65.29 | X-H torsion
[ 10718 10713 10712 10709 ] final   28.77 input   66.30 | X-H torsion
[ 10763 10752 10751 10750 ] final  -25.57 input  -60.55 | X-H torsion
[ 11005 11000 10999 10996 ] final   91.90 input  -57.11 | X-H torsion

> <Gold.Protein.ActiveResidues>
 VAL166  LYS551  ARG553  GLY616  TRP617  ASP618  TYR619  PRO620  LYS621  CYS622 
 ASP623  PHE694  ASN695  SER759  ASP760  ASP761  ALA762  ILE779  LEU786  VAL792 
 PHE793  MET794  SER795  GLU796  ALA797  LYS798  CYS799  TRP800  GLU811  SER814 

> <Gold.Protein.RotatedAtoms>
  152.5424  134.0742  159.8206 H   0  0  0  0  0  0  0  0  0  0  0  0  # atno 6907 bound_to 6896
  151.0852  133.5351  159.2625 H   0  0  0  0  0  0  0  0  0  0  0  0  # atno 6908 bound_to 6896
  151.2163  135.0510  159.8986 H   0  0  0  0  0  0  0  0  0  0  0  0  # atno 6909 bound_to 6896
  146.2347  140.2061  142.8334 H   0  0  0  0  0  0  0  0  0  0  0  0  # atno 7974 bound_to 7965
  154.3999  140.1410  156.3761 H   0  0  0  0  0  0  0  0  0  0  0  0  # atno 8008 bound_to 7997
  155.8047  140.3475  155.5402 H   0  0  0  0  0  0  0  0  0  0  0  0  # atno 8009 bound_to 7997
  155.8448  140.0932  157.1702 H   0  0  0  0  0  0  0  0  0  0  0  0  # atno 8010 bound_to 7997
  139.7433  144.7005  151.0542 H   0  0  0  0  0  0  0  0  0  0  0  0  # atno 10167 bound_to 10162
  157.2378  130.7054  149.6344 H   0  0  0  0  0  0  0  0  0  0  0  0  # atno 10718 bound_to 10713
  153.7020  135.6956  153.5060 H   0  0  0  0  0  0  0  0  0  0  0  0  # atno 10763 bound_to 10752
  153.2335  135.4329  155.0620 H   0  0  0  0  0  0  0  0  0  0  0  0  # atno 10764 bound_to 10752
  154.8341  135.3490  154.6559 H   0  0  0  0  0  0  0  0  0  0  0  0  # atno 10765 bound_to 10752
  139.8831  134.8702  156.3495 H   0  0  0  0  0  0  0  0  0  0  0  0  # atno 11005 bound_to 11000
  144.9743  140.8399  143.5436 LP  0  0  0  0  0  0  0  0  0  0  0  0  # atno 17320 bound_to 7965
  145.2047  139.2234  143.5174 LP  0  0  0  0  0  0  0  0  0  0  0  0  # atno 17321 bound_to 7965
  140.7789  143.4898  150.9908 LP  0  0  0  0  0  0  0  0  0  0  0  0  # atno 17342 bound_to 10162
  139.8586  143.7344  152.3174 LP  0  0  0  0  0  0  0  0  0  0  0  0  # atno 17343 bound_to 10162
  155.9671  130.4468  150.5554 LP  0  0  0  0  0  0  0  0  0  0  0  0  # atno 17370 bound_to 10713
  157.3410  131.0717  151.1787 LP  0  0  0  0  0  0  0  0  0  0  0  0  # atno 17371 bound_to 10713
  140.9604  133.7392  156.0393 LP  0  0  0  0  0  0  0  0  0  0  0  0  # atno 17394 bound_to 11000
  140.7997  134.3523  157.5443 LP  0  0  0  0  0  0  0  0  0  0  0  0  # atno 17395 bound_to 11000

$$$$
