AV-unprocessed.smi:2969|AV-procd|sdf|11330|dock7
  -GOLD-   2272016243D 1   1.00000     0.00000
 Structure written by MMmdl.
 39 39  0  0  0  0  0  0  0  0  2 V2000
  147.1374  141.0968  154.1457 C   0  0  0  0  0  0  0  0  0  0  0  0
  147.4903  139.7712  154.8332 C   0  0  0  0  0  0  0  0  0  0  0  0
  147.0847  139.6970  156.3208 C   0  0  0  0  0  0  0  0  0  0  0  0
  147.9863  138.8392  157.1238 N   0  0  0  0  0  0  0  0  0  0  0  0
  147.4191  137.8114  157.9251 C   0  0  0  0  0  0  0  0  0  0  0  0
  146.0429  137.6362  157.9223 N   0  0  0  0  0  0  0  0  0  0  0  0
  148.2218  137.0231  158.6882 C   0  0  0  0  0  0  0  0  0  0  0  0
  147.7173  135.9838  159.4904 N   0  0  0  0  0  0  0  0  0  0  0  0
  147.4027  134.7194  158.8055 C   0  0  0  0  0  0  0  0  0  0  0  0
  148.6346  134.0927  158.1206 C   0  0  0  0  0  0  0  0  0  0  0  0
  149.1617  134.9416  157.1108 O   0  0  0  0  0  0  0  0  0  0  0  0
  150.2831  134.4013  156.4289 C   0  0  0  0  0  0  0  0  0  0  0  0
  147.6285  136.0829  160.8447 C   0  0  0  0  0  0  0  0  0  0  0  0
  147.9083  137.1295  161.4339 O   0  0  0  0  0  0  0  0  0  0  0  0
  147.1860  134.8714  161.6934 C   0  0  0  0  0  0  0  0  0  0  0  0
  145.9265  134.5425  161.4095 F   0  0  0  0  0  0  0  0  0  0  0  0
  147.9887  133.8308  161.4716 F   0  0  0  0  0  0  0  0  0  0  0  0
  147.2558  135.1834  162.9888 F   0  0  0  0  0  0  0  0  0  0  0  0
  149.6739  137.2256  158.6352 C   0  0  0  0  0  0  0  0  0  0  0  0
  150.4222  136.5006  159.2912 O   0  0  0  0  0  0  0  0  0  0  0  0
  150.1440  138.2266  157.8459 N   0  5  0  0  0  0  0  0  0  0  0  0
  149.3414  139.0370  157.0983 C   0  0  0  0  0  0  0  0  0  0  0  0
  149.8084  139.9424  156.4062 O   0  0  0  0  0  0  0  0  0  0  0  0
  147.5111  141.1132  153.1220 H   0  0  0  0  0  0  0  0  0  0  0  0
  147.5759  141.9434  154.6745 H   0  0  0  0  0  0  0  0  0  0  0  0
  146.0586  141.2485  154.1027 H   0  0  0  0  0  0  0  0  0  0  0  0
  147.0350  138.9509  154.2784 H   0  0  0  0  0  0  0  0  0  0  0  0
  148.5674  139.6180  154.7600 H   0  0  0  0  0  0  0  0  0  0  0  0
  147.0608  140.7024  156.7419 H   0  0  0  0  0  0  0  0  0  0  0  0
  146.0450  139.3746  156.3894 H   0  0  0  0  0  0  0  0  0  0  0  0
  145.4305  138.2169  157.3680 H   0  0  0  0  0  0  0  0  0  0  0  0
  145.6022  136.9011  158.4565 H   0  0  0  0  0  0  0  0  0  0  0  0
  146.9966  134.0015  159.5204 H   0  0  0  0  0  0  0  0  0  0  0  0
  146.6012  134.8940  158.0869 H   0  0  0  0  0  0  0  0  0  0  0  0
  149.4109  133.8275  158.8397 H   0  0  0  0  0  0  0  0  0  0  0  0
  148.3396  133.1651  157.6317 H   0  0  0  0  0  0  0  0  0  0  0  0
  150.5965  135.0906  155.6451 H   0  0  0  0  0  0  0  0  0  0  0  0
  150.0368  133.4495  155.9566 H   0  0  0  0  0  0  0  0  0  0  0  0
  151.1327  134.2513  157.0946 H   0  0  0  0  0  0  0  0  0  0  0  0
  1  2  1  0  0  0  0
  1 24  1  0  0  0  0
  1 25  1  0  0  0  0
  1 26  1  0  0  0  0
  2  3  1  0  0  0  0
  2 27  1  0  0  0  0
  2 28  1  0  0  0  0
  3  4  1  0  0  0  0
  3 29  1  0  0  0  0
  3 30  1  0  0  0  0
  4 22  1  0  0  0  0
  4  5  1  0  0  0  0
  5  6  1  0  0  0  0
  5  7  2  0  0  0  0
  6 31  1  0  0  0  0
  6 32  1  0  0  0  0
  7  8  1  0  0  0  0
  7 19  1  0  0  0  0
  8  9  1  0  0  0  0
  8 13  1  0  0  0  0
  9 10  1  0  0  0  0
  9 33  1  0  0  0  0
  9 34  1  0  0  0  0
 10 11  1  0  0  0  0
 10 35  1  0  0  0  0
 10 36  1  0  0  0  0
 11 12  1  0  0  0  0
 12 37  1  0  0  0  0
 12 38  1  0  0  0  0
 12 39  1  0  0  0  0
 13 14  2  0  0  0  0
 13 15  1  0  0  0  0
 15 16  1  0  0  0  0
 15 17  1  0  0  0  0
 15 18  1  0  0  0  0
 19 20  2  0  0  0  0
 19 21  1  0  0  0  0
 21 22  1  0  0  0  0
 22 23  2  0  0  0  0
M  CHG  1  21  -1
M  END
> <s_m_source_file>
AV-unprocessed.smi

> <i_m_source_file_index>
2969

> <i_lp_mmshare_version>
43012

> <i_f3d_flags>
0

> <s_epik_input>
W0NIM11bQ0gyXVtDSDJdbjFjKFtOSDJdKWMoYyg9TylbbkhdYzE9TylOKEMoPU8pQyhGKShGKUYpW0NIMl1bQ0gyXU9bQ0gzXQ==

> <s_epik_cmdline>
J2VwaWtfcHl0aG9uJywgJy1waCcsICc3LjAnLCAnLXRuJywgJzgnLCAnLW1hJywgJzIwMCcsICctbWV0YWxfYmluZGluZycsICctaW1hZScsICc8aW5maWxlLm1hZT4nLCAnLW9tYWUnLCAnPG91dGZpbGUubWFlPic=

> <r_lp_tautomer_probability>
1

> <r_epik_Ionization_Penalty>
4.29138

> <r_epik_Ionization_Penalty_Charging>
0.0262752

> <r_epik_Ionization_Penalty_Neutral>
4.26511

> <r_epik_State_Penalty>
4.26466

> <r_epik_Charging_Adjusted_Penalty>
4.29094

> <i_epik_Tot_Q>
-1

> <i_epik_Tot_abs_Q>
1

> <r_epik_Metal_State_Penalty>
0.502851

> <b_epik_Metal_Only>
1

> <s_epik_Chemistry_Notes>
This compound has an imine and may undergo hydrolysis.

> <s_lp_Force_Field>
OPLS_2005

> <r_lp_Energy>
42.256

> <b_lp_Chiralities_Consistent>
1

> <s_lp_Variant>
AV-unprocessed.smi:2969-2

> <Gold.Version>
5.8.1

> <Gold.Id.Protein>
6NUR|6NUR_protein|mol2

> <Gold.PLP.Fitness>
32.7327

> <Gold.PLP.PLP>
-26.7876

> <Gold.PLP.part.hbond>
-3.0000

> <Gold.PLP.part.metal>
0.0000

> <Gold.PLP.part.buried>
-4.2362

> <Gold.PLP.part.nonpolar>
-19.6306

> <Gold.PLP.part.repulsive>
0.0554

> <Gold.PLP.ligand.clash>
4.2675

> <Gold.PLP.ligand.torsion>
1.7505

> <Gold.PLP.Chemscore.Hbond>
2.6880

> <Gold.PLP.Chemscore.CHOScore>
0.0000

> <Gold.PLP.Chemscore.Metal>
0.0000

> <Gold.Chemscore.Hbonds>
donor molecule, donor type, donor heavy atom, donor atom, acceptor molecule, acceptor atom, score
      P1  H  6896  6908       L1    20  1.00
      P1  H  6931  6943       L1    14  1.00
      P1  H  6934  6947       L1    14  0.62

> <Gold.PLP.Chemscore.Internal.Correction>
5.6496

> <Gold.Rescore>
     Score         DG    S(hbond)    S(metal)    S(lipo)     H(rot)  DE(clash)    DE(int)     intcor
      8.26     -12.57       2.79        0.00      29.82       2.24       0.00       4.31       ----

> <Gold.Chemscore.Fitness>
8.2572

> <Gold.Chemscore.DG>
-12.5726

> <Gold.Chemscore.ZeroCoef>
-5.4800

> <Gold.Chemscore.Hbond>
2.7934

> <Gold.Chemscore.Metal>
0.0000

> <Gold.Chemscore.Lipo>
29.8158

> <Gold.Chemscore.Internal_Hbond>
0.0000

> <Gold.Chemscore.DEClash>
0.0009

> <Gold.Chemscore.DEInternal>
4.3145

> <Gold.Chemscore.Rot>
2.2366

> <Gold.Chemscore.Internal.Correction>
   9.000000E+99

> <Gold.Chemscore.Hbonds>
donor molecule, donor type, donor heavy atom, donor atom, acceptor molecule, acceptor atom, score
      P1  H  6896  6908       L1    20  1.00
      P1  H  6931  6943       L1    14  0.98
      P1  H  6934  6947       L1    14  0.61

> <Gold.Chemscore.Hbond.Weighted>
-9.3299

> <Gold.Chemscore.Metal.Weighted>
-0.0000

> <Gold.Chemscore.Lipo.Weighted>
-3.4885

> <Gold.Chemscore.Internal_Hbond.Weighted>
0.0000

> <Gold.Chemscore.DEClash.Weighted>
0.0009

> <Gold.Chemscore.DEInternal.Weighted>
4.3145

> <Gold.Chemscore.Rot.Weighted>
5.7257

> <Gold.Chemscore.Internal.Correction.Weighted>
   9.000000E+99

> <Gold.Protein.RotatedTorsions>
[ 6907 6896 6895 6894 ] final -158.36 input  -60.11 | X-H torsion
[ 7974 7965 7964 7962 ] final -135.28 input  175.53 | X-H torsion
[ 8008 7997 7996 7995 ] final -125.35 input   59.86 | X-H torsion
[ 10167 10162 10161 10158 ] final   66.47 input  -65.29 | X-H torsion
[ 10718 10713 10712 10709 ] final   51.27 input   66.30 | X-H torsion
[ 10763 10752 10751 10750 ] final   66.30 input  -60.55 | X-H torsion
[ 11005 11000 10999 10996 ] final  114.20 input  -57.11 | X-H torsion

> <Gold.Protein.ActiveResidues>
 VAL166  LYS551  ARG553  GLY616  TRP617  ASP618  TYR619  PRO620  LYS621  CYS622 
 ASP623  PHE694  ASN695  SER759  ASP760  ASP761  ALA762  ILE779  LEU786  VAL792 
 PHE793  MET794  SER795  GLU796  ALA797  LYS798  CYS799  TRP800  GLU811  SER814 

> <Gold.Protein.RotatedAtoms>
  151.3169  133.4056  159.2651 H   0  0  0  0  0  0  0  0  0  0  0  0  # atno 6907 bound_to 6896
  151.0067  134.9365  159.7994 H   0  0  0  0  0  0  0  0  0  0  0  0  # atno 6908 bound_to 6896
  152.5290  134.3134  159.9174 H   0  0  0  0  0  0  0  0  0  0  0  0  # atno 6909 bound_to 6896
  144.9027  140.6793  143.5074 H   0  0  0  0  0  0  0  0  0  0  0  0  # atno 7974 bound_to 7965
  155.2118  140.0419  157.2934 H   0  0  0  0  0  0  0  0  0  0  0  0  # atno 8008 bound_to 7997
  154.6007  140.2451  155.7768 H   0  0  0  0  0  0  0  0  0  0  0  0  # atno 8009 bound_to 7997
  156.2319  140.2935  156.0219 H   0  0  0  0  0  0  0  0  0  0  0  0  # atno 8010 bound_to 7997
  140.1001  144.4912  150.7043 H   0  0  0  0  0  0  0  0  0  0  0  0  # atno 10167 bound_to 10162
  157.4965  130.8410  149.8264 H   0  0  0  0  0  0  0  0  0  0  0  0  # atno 10718 bound_to 10713
  153.0134  135.5325  154.6802 H   0  0  0  0  0  0  0  0  0  0  0  0  # atno 10763 bound_to 10752
  154.5964  135.2864  155.0584 H   0  0  0  0  0  0  0  0  0  0  0  0  # atno 10764 bound_to 10752
  154.1658  135.6540  153.5049 H   0  0  0  0  0  0  0  0  0  0  0  0  # atno 10765 bound_to 10752
  139.8974  134.9563  156.6855 H   0  0  0  0  0  0  0  0  0  0  0  0  # atno 11005 bound_to 11000
  145.3588  139.1687  143.4395 LP  0  0  0  0  0  0  0  0  0  0  0  0  # atno 17320 bound_to 7965
  146.3117  140.3648  142.8668 LP  0  0  0  0  0  0  0  0  0  0  0  0  # atno 17321 bound_to 7965
  140.6982  143.2418  151.4939 LP  0  0  0  0  0  0  0  0  0  0  0  0  # atno 17342 bound_to 10162
  139.5676  144.2005  152.1788 LP  0  0  0  0  0  0  0  0  0  0  0  0  # atno 17343 bound_to 10162
  156.0203  130.3798  150.1981 LP  0  0  0  0  0  0  0  0  0  0  0  0  # atno 17370 bound_to 10713
  157.0171  130.9968  151.3350 LP  0  0  0  0  0  0  0  0  0  0  0  0  # atno 17371 bound_to 10713
  140.7266  133.9095  155.8182 LP  0  0  0  0  0  0  0  0  0  0  0  0  # atno 17394 bound_to 11000
  141.0186  134.0920  157.4145 LP  0  0  0  0  0  0  0  0  0  0  0  0  # atno 17395 bound_to 11000

$$$$
