AV-unprocessed.smi:2898|AV-procd|sdf|11142|dock5
  -GOLD-   2272016 23D 1   1.00000     0.00000
 Structure written by MMmdl.
 44 45  0  0  0  0  0  0  0  0  1 V2000
  152.5396  138.8611  158.1002 C   0  0  0  0  0  0  0  0  0  0  0  0
  151.8555  139.3619  156.8601 C   0  0  0  0  0  0  0  0  0  0  0  0
  152.5772  139.6624  155.7944 N   0  0  0  0  0  0  0  0  0  0  0  0
  151.6651  140.0831  154.8233 O   0  0  0  0  0  0  0  0  0  0  0  0
  150.4145  140.0175  155.3468 C   0  0  0  0  0  0  0  0  0  0  0  0
  149.3034  140.4277  154.4389 C   0  0  0  0  0  0  0  0  0  0  0  0
  150.4628  139.5724  156.6425 C   0  0  0  0  0  0  0  0  0  0  0  0
  149.3465  139.3332  157.6333 C   0  0  1  0  0  0  0  0  0  0  0  0
  148.5371  140.6168  157.8933 C   0  0  0  0  0  0  0  0  0  0  0  0
  148.4638  138.1519  157.1764 C   0  0  0  0  0  0  0  0  0  0  0  0
  147.7759  137.5066  158.2894 N   0  0  0  0  0  0  0  0  0  0  0  0
  148.3361  136.6370  159.1476 C   0  0  0  0  0  0  0  0  0  0  0  0
  149.5122  136.2825  159.0499 O   0  0  0  0  0  0  0  0  0  0  0  0
  147.4568  136.0832  160.2918 C   0  0  0  0  0  0  0  0  0  0  0  0
  146.1438  136.7612  160.3377 C   0  0  0  0  0  0  0  0  0  0  0  0
  145.1155  137.2922  160.3739 N   0  0  0  0  0  0  0  0  0  0  0  0
  147.2434  134.5629  160.0799 C   0  0  0  0  0  0  0  0  0  0  0  0
  146.4775  133.9134  161.2464 C   0  0  0  0  0  0  0  0  0  0  0  0
  147.1948  134.1604  162.5820 C   0  0  0  0  0  0  0  0  0  0  0  0
  147.4315  135.6592  162.8212 C   0  0  0  0  0  0  0  0  0  0  0  0
  148.1895  136.2932  161.6413 C   0  0  0  0  0  0  0  0  0  0  0  0
  152.1341  137.8959  158.4043 H   0  0  0  0  0  0  0  0  0  0  0  0
  152.3995  139.5556  158.9286 H   0  0  0  0  0  0  0  0  0  0  0  0
  153.6126  138.7365  157.9505 H   0  0  0  0  0  0  0  0  0  0  0  0
  148.4226  139.8045  154.5890 H   0  0  0  0  0  0  0  0  0  0  0  0
  149.5999  140.3374  153.3937 H   0  0  0  0  0  0  0  0  0  0  0  0
  149.0200  141.4642  154.6205 H   0  0  0  0  0  0  0  0  0  0  0  0
  149.7864  139.0542  158.5913 H   0  0  0  0  0  0  0  0  0  0  0  0
  149.1890  141.4296  158.2146 H   0  0  0  0  0  0  0  0  0  0  0  0
  147.7965  140.4685  158.6793 H   0  0  0  0  0  0  0  0  0  0  0  0
  148.0048  140.9485  157.0025 H   0  0  0  0  0  0  0  0  0  0  0  0
  147.7088  138.4943  156.4691 H   0  0  0  0  0  0  0  0  0  0  0  0
  149.0666  137.4134  156.6447 H   0  0  0  0  0  0  0  0  0  0  0  0
  146.8057  137.7517  158.4270 H   0  0  0  0  0  0  0  0  0  0  0  0
  146.6967  134.3896  159.1517 H   0  0  0  0  0  0  0  0  0  0  0  0
  148.2025  134.0545  159.9665 H   0  0  0  0  0  0  0  0  0  0  0  0
  145.4634  134.3115  161.2951 H   0  0  0  0  0  0  0  0  0  0  0  0
  146.3771  132.8418  161.0727 H   0  0  0  0  0  0  0  0  0  0  0  0
  146.6112  133.7399  163.4015 H   0  0  0  0  0  0  0  0  0  0  0  0
  148.1512  133.6360  162.5829 H   0  0  0  0  0  0  0  0  0  0  0  0
  146.4759  136.1640  162.9665 H   0  0  0  0  0  0  0  0  0  0  0  0
  147.9958  135.8017  163.7431 H   0  0  0  0  0  0  0  0  0  0  0  0
  149.1924  135.8647  161.6020 H   0  0  0  0  0  0  0  0  0  0  0  0
  148.3230  137.3593  161.8308 H   0  0  0  0  0  0  0  0  0  0  0  0
  1  2  1  0  0  0  0
  1 22  1  0  0  0  0
  1 23  1  0  0  0  0
  1 24  1  0  0  0  0
  2  7  1  0  0  0  0
  2  3  2  0  0  0  0
  3  4  1  0  0  0  0
  4  5  1  0  0  0  0
  5  6  1  0  0  0  0
  5  7  2  0  0  0  0
  6 25  1  0  0  0  0
  6 26  1  0  0  0  0
  6 27  1  0  0  0  0
  7  8  1  0  0  0  0
  8  9  1  0  0  0  0
  8 10  1  0  0  0  0
  8 28  1  0  0  0  0
  9 29  1  0  0  0  0
  9 30  1  0  0  0  0
  9 31  1  0  0  0  0
 10 11  1  0  0  0  0
 10 32  1  0  0  0  0
 10 33  1  0  0  0  0
 11 12  1  0  0  0  0
 11 34  1  0  0  0  0
 12 13  2  0  0  0  0
 12 14  1  0  0  0  0
 14 21  1  0  0  0  0
 14 15  1  0  0  0  0
 14 17  1  0  0  0  0
 15 16  3  0  0  0  0
 17 18  1  0  0  0  0
 17 35  1  0  0  0  0
 17 36  1  0  0  0  0
 18 19  1  0  0  0  0
 18 37  1  0  0  0  0
 18 38  1  0  0  0  0
 19 20  1  0  0  0  0
 19 39  1  0  0  0  0
 19 40  1  0  0  0  0
 20 21  1  0  0  0  0
 20 41  1  0  0  0  0
 20 42  1  0  0  0  0
 21 43  1  0  0  0  0
 21 44  1  0  0  0  0
M  END
> <s_m_source_file>
AV-unprocessed.smi

> <i_m_source_file_index>
2898

> <i_lp_mmshare_version>
43012

> <i_f3d_flags>
0

> <s_epik_input>
W0NIM11jMW5vYyhbQ0gzXSljMVtDQEhdKFtDSDNdKVtDSDJdW05IXUMoPU8pQzIoQyNOKVtDSDJdW0NIMl1bQ0gyXVtDSDJdW0NIMl0y

> <s_epik_cmdline>
J2VwaWtfcHl0aG9uJywgJy1waCcsICc3LjAnLCAnLXRuJywgJzgnLCAnLW1hJywgJzIwMCcsICctbWV0YWxfYmluZGluZycsICctaW1hZScsICc8aW5maWxlLm1hZT4nLCAnLW9tYWUnLCAnPG91dGZpbGUubWFlPic=

> <r_lp_tautomer_probability>
1

> <r_epik_Ionization_Penalty>
4.33734e-07

> <r_epik_Ionization_Penalty_Charging>
0

> <r_epik_Ionization_Penalty_Neutral>
4.33734e-07

> <r_epik_State_Penalty>
-0

> <r_epik_Charging_Adjusted_Penalty>
0

> <i_epik_Tot_Q>
0

> <i_epik_Tot_abs_Q>
0

> <r_epik_Metal_State_Penalty>
-0

> <b_epik_Metal_Only>
0

> <s_lp_Force_Field>
OPLS_2005

> <r_lp_Energy>
8.6026

> <b_lp_Chiralities_Consistent>
1

> <s_lp_Variant>
AV-unprocessed.smi:2898-2

> <Gold.Version>
5.8.1

> <Gold.Id.Protein>
6NUR|6NUR_protein|mol2

> <Gold.PLP.Fitness>
38.8729

> <Gold.PLP.PLP>
-32.0440

> <Gold.PLP.part.hbond>
-3.0000

> <Gold.PLP.part.metal>
0.0000

> <Gold.PLP.part.buried>
-3.2059

> <Gold.PLP.part.nonpolar>
-26.0573

> <Gold.PLP.part.repulsive>
0.1371

> <Gold.PLP.ligand.clash>
0.9709

> <Gold.PLP.ligand.torsion>
0.5682

> <Gold.PLP.Chemscore.Hbond>
2.9600

> <Gold.PLP.Chemscore.CHOScore>
0.0000

> <Gold.PLP.Chemscore.Metal>
0.0000

> <Gold.Chemscore.Hbonds>
donor molecule, donor type, donor heavy atom, donor atom, acceptor molecule, acceptor atom, score
      P1  H  6896  6909       L1    13  0.96
      P1  H  7989  7998       L1     4  1.00
      P1  H  7997  8010       L1     3  1.00

> <Gold.PLP.Chemscore.Internal.Correction>
0.0561

> <Gold.Rescore>
     Score         DG    S(hbond)    S(metal)    S(lipo)     H(rot)  DE(clash)    DE(int)     intcor
     19.76     -20.45       2.90        0.00      78.35       1.52       0.09       0.59       ----

> <Gold.Chemscore.Fitness>
19.7612

> <Gold.Chemscore.DG>
-20.4455

> <Gold.Chemscore.ZeroCoef>
-5.4800

> <Gold.Chemscore.Hbond>
2.9044

> <Gold.Chemscore.Metal>
0.0000

> <Gold.Chemscore.Lipo>
78.3515

> <Gold.Chemscore.Internal_Hbond>
0.0000

> <Gold.Chemscore.DEClash>
0.0928

> <Gold.Chemscore.DEInternal>
0.5915

> <Gold.Chemscore.Rot>
1.5243

> <Gold.Chemscore.Internal.Correction>
   9.000000E+99

> <Gold.Chemscore.Hbonds>
donor molecule, donor type, donor heavy atom, donor atom, acceptor molecule, acceptor atom, score
      P1  H  6896  6909       L1    13  0.90
      P1  H  7989  7998       L1     4  0.71
      P1  H  7997  8010       L1     3  0.96

> <Gold.Chemscore.Hbond.Weighted>
-9.7006

> <Gold.Chemscore.Metal.Weighted>
-0.0000

> <Gold.Chemscore.Lipo.Weighted>
-9.1671

> <Gold.Chemscore.Internal_Hbond.Weighted>
0.0000

> <Gold.Chemscore.DEClash.Weighted>
0.0928

> <Gold.Chemscore.DEInternal.Weighted>
0.5915

> <Gold.Chemscore.Rot.Weighted>
3.9022

> <Gold.Chemscore.Internal.Correction.Weighted>
   9.000000E+99

> <Gold.Protein.RotatedTorsions>
[ 6907 6896 6895 6894 ] final   74.31 input  -60.11 | X-H torsion
[ 7974 7965 7964 7962 ] final  -97.77 input  175.53 | X-H torsion
[ 8008 7997 7996 7995 ] final   94.19 input   59.86 | X-H torsion
[ 10167 10162 10161 10158 ] final  168.30 input  -65.29 | X-H torsion
[ 10718 10713 10712 10709 ] final   52.79 input   66.30 | X-H torsion
[ 10763 10752 10751 10750 ] final  151.37 input  -60.55 | X-H torsion
[ 11005 11000 10999 10996 ] final   57.09 input  -57.11 | X-H torsion

> <Gold.Protein.ActiveResidues>
 VAL166  LYS551  ARG553  GLY616  TRP617  ASP618  TYR619  PRO620  LYS621  CYS622 
 ASP623  PHE694  ASN695  SER759  ASP760  ASP761  ALA762  ILE779  LEU786  VAL792 
 PHE793  MET794  SER795  GLU796  ALA797  LYS798  CYS799  TRP800  GLU811  SER814 

> <Gold.Protein.RotatedAtoms>
  152.4969  134.4290  159.9505 H   0  0  0  0  0  0  0  0  0  0  0  0  # atno 6907 bound_to 6896
  151.4267  133.3676  159.2771 H   0  0  0  0  0  0  0  0  0  0  0  0  # atno 6908 bound_to 6896
  150.9183  134.8624  159.7532 H   0  0  0  0  0  0  0  0  0  0  0  0  # atno 6909 bound_to 6896
  145.3294  140.9438  143.2670 H   0  0  0  0  0  0  0  0  0  0  0  0  # atno 7974 bound_to 7965
  156.0552  140.3303  155.7397 H   0  0  0  0  0  0  0  0  0  0  0  0  # atno 8008 bound_to 7997
  155.5540  140.0613  157.2861 H   0  0  0  0  0  0  0  0  0  0  0  0  # atno 8009 bound_to 7997
  154.4454  140.1889  156.0703 H   0  0  0  0  0  0  0  0  0  0  0  0  # atno 8010 bound_to 7997
  139.4965  144.3829  151.9602 H   0  0  0  0  0  0  0  0  0  0  0  0  # atno 10167 bound_to 10162
  157.5107  130.8499  149.8432 H   0  0  0  0  0  0  0  0  0  0  0  0  # atno 10718 bound_to 10713
  154.1026  135.2844  155.3248 H   0  0  0  0  0  0  0  0  0  0  0  0  # atno 10763 bound_to 10752
  154.6545  135.5357  153.7945 H   0  0  0  0  0  0  0  0  0  0  0  0  # atno 10764 bound_to 10752
  153.0373  135.6518  154.1189 H   0  0  0  0  0  0  0  0  0  0  0  0  # atno 10765 bound_to 10752
  140.0479  134.5779  155.9300 H   0  0  0  0  0  0  0  0  0  0  0  0  # atno 11005 bound_to 11000
  144.8876  139.4818  143.6693 LP  0  0  0  0  0  0  0  0  0  0  0  0  # atno 17320 bound_to 7965
  146.3051  139.7555  142.9062 LP  0  0  0  0  0  0  0  0  0  0  0  0  # atno 17321 bound_to 7965
  140.3266  144.3366  150.5997 LP  0  0  0  0  0  0  0  0  0  0  0  0  # atno 17342 bound_to 10162
  140.5679  143.2184  151.7650 LP  0  0  0  0  0  0  0  0  0  0  0  0  # atno 17343 bound_to 10162
  156.0287  130.3771  150.1748 LP  0  0  0  0  0  0  0  0  0  0  0  0  # atno 17370 bound_to 10713
  156.9938  130.9901  151.3408 LP  0  0  0  0  0  0  0  0  0  0  0  0  # atno 17371 bound_to 10713
  141.1916  133.6572  156.5464 LP  0  0  0  0  0  0  0  0  0  0  0  0  # atno 17394 bound_to 11000
  140.3964  134.7395  157.4753 LP  0  0  0  0  0  0  0  0  0  0  0  0  # atno 17395 bound_to 11000

$$$$
