AV-unprocessed.smi:3090|AV-procd|sdf|11776|dock8
  -GOLD-   2272017153D 1   1.00000     0.00000
 Structure written by MMmdl.
 21 21  0  0  0  0  0  0  0  0  1 V2000
  152.8401  138.4263  154.3999 C   0  0  0  0  0  0  0  0  0  0  0  0
  151.4339  138.7641  154.4514 N   0  0  0  0  0  0  0  0  0  0  0  0
  150.3456  137.9594  154.1924 C   0  0  0  0  0  0  0  0  0  0  0  0
  149.2206  138.7155  154.3741 C   0  0  0  0  0  0  0  0  0  0  0  0
  147.7728  138.3207  154.2219 C   0  0  2  0  0  0  0  0  0  0  0  0
  147.6332  136.9356  153.9851 O   0  0  0  0  0  0  0  0  0  0  0  0
  147.0901  139.0635  153.0598 C   0  0  0  0  0  0  0  0  0  0  0  0
  147.5546  138.6186  151.7364 N   0  0  0  0  0  0  0  0  0  0  0  0
  149.7403  139.9895  154.7439 C   0  0  0  0  0  0  0  0  0  0  0  0
  151.0623  140.0150  154.7913 N   0  0  0  0  0  0  0  0  0  0  0  0
  152.9632  137.3711  154.1543 H   0  0  0  0  0  0  0  0  0  0  0  0
  153.3018  138.6204  155.3684 H   0  0  0  0  0  0  0  0  0  0  0  0
  153.3366  139.0281  153.6383 H   0  0  0  0  0  0  0  0  0  0  0  0
  150.4578  136.9246  153.9042 H   0  0  0  0  0  0  0  0  0  0  0  0
  147.2263  138.5358  155.1410 H   0  0  0  0  0  0  0  0  0  0  0  0
  148.2972  136.6695  153.3675 H   0  0  0  0  0  0  0  0  0  0  0  0
  146.0089  138.9386  153.1290 H   0  0  0  0  0  0  0  0  0  0  0  0
  147.2781  140.1331  153.1601 H   0  0  0  0  0  0  0  0  0  0  0  0
  148.4248  139.0880  151.4894 H   0  0  0  0  0  0  0  0  0  0  0  0
  147.7488  137.6184  151.7455 H   0  0  0  0  0  0  0  0  0  0  0  0
  149.1958  140.8923  154.9781 H   0  0  0  0  0  0  0  0  0  0  0  0
  1  2  1  0  0  0  0
  1 11  1  0  0  0  0
  1 12  1  0  0  0  0
  1 13  1  0  0  0  0
  2 10  1  0  0  0  0
  2  3  1  0  0  0  0
  3  4  2  0  0  0  0
  3 14  1  0  0  0  0
  4  5  1  0  0  0  0
  4  9  1  0  0  0  0
  5  6  1  0  0  0  0
  5  7  1  0  0  0  0
  5 15  1  0  0  0  0
  6 16  1  0  0  0  0
  7  8  1  0  0  0  0
  7 17  1  0  0  0  0
  7 18  1  0  0  0  0
  8 19  1  0  0  0  0
  8 20  1  0  0  0  0
  9 10  2  0  0  0  0
  9 21  1  0  0  0  0
M  END
> <s_m_source_file>
AV-unprocessed.smi

> <i_m_source_file_index>
3090

> <i_lp_mmshare_version>
43012

> <i_f3d_flags>
0

> <s_epik_input>
W0NIM11uMVtjSF1jKFtjSF1uMSlbQ0BIXShbT0hdKVtDSDJdW05IMl0=

> <s_epik_cmdline>
J2VwaWtfcHl0aG9uJywgJy1waCcsICc3LjAnLCAnLXRuJywgJzgnLCAnLW1hJywgJzIwMCcsICctbWV0YWxfYmluZGluZycsICctaW1hZScsICc8aW5maWxlLm1hZT4nLCAnLW9tYWUnLCAnPG91dGZpbGUubWFlPic=

> <r_lp_tautomer_probability>
1

> <r_epik_Ionization_Penalty>
2.22426

> <r_epik_Ionization_Penalty_Charging>
0

> <r_epik_Ionization_Penalty_Neutral>
2.22426

> <r_epik_State_Penalty>
2.36938

> <r_epik_Charging_Adjusted_Penalty>
2.36938

> <i_epik_Tot_Q>
0

> <i_epik_Tot_abs_Q>
0

> <r_epik_Metal_State_Penalty>
2.36934

> <b_epik_Metal_Only>
0

> <s_lp_Force_Field>
OPLS_2005

> <r_lp_Energy>
2.27674

> <b_lp_Chiralities_Consistent>
1

> <s_lp_Variant>
AV-unprocessed.smi:3090-3

> <Gold.Version>
5.8.1

> <Gold.Id.Protein>
6NUR|6NUR_protein|mol2

> <Gold.PLP.Fitness>
35.2233

> <Gold.PLP.PLP>
-21.4300

> <Gold.PLP.part.hbond>
-5.0000

> <Gold.PLP.part.metal>
0.0000

> <Gold.PLP.part.buried>
-2.6408

> <Gold.PLP.part.nonpolar>
-13.8403

> <Gold.PLP.part.repulsive>
0.0676

> <Gold.PLP.ligand.clash>
0.0000

> <Gold.PLP.ligand.torsion>
0.1191

> <Gold.PLP.Chemscore.Hbond>
3.9920

> <Gold.PLP.Chemscore.CHOScore>
0.6840

> <Gold.PLP.Chemscore.Metal>
0.0000

> <Gold.Chemscore.Hbonds>
donor molecule, donor type, donor heavy atom, donor atom, acceptor molecule, acceptor atom, score
      L1  H     6    16       P1  7948  1.00
      L1  H     8    19       P1  7957  0.96
      L1  H     8    20       P1  7948  0.99
      P1  H  7989  7998       L1    10  1.00
      L1  C     3    14       P1  7948  0.44
      L1  C     3    14       P1  7949  0.29

> <Gold.PLP.Chemscore.Internal.Correction>
0.0034

> <Gold.Rescore>
     Score         DG    S(hbond)    S(metal)    S(lipo)     H(rot)  DE(clash)    DE(int)     intcor
     17.25     -17.35       3.68        0.00      37.93       1.90       0.02       0.08       ----

> <Gold.Chemscore.Fitness>
17.2506

> <Gold.Chemscore.DG>
-17.3514

> <Gold.Chemscore.ZeroCoef>
-5.4800

> <Gold.Chemscore.Hbond>
3.6847

> <Gold.Chemscore.Metal>
0.0000

> <Gold.Chemscore.Lipo>
37.9344

> <Gold.Chemscore.Internal_Hbond>
0.0000

> <Gold.Chemscore.DEClash>
0.0228

> <Gold.Chemscore.DEInternal>
0.0780

> <Gold.Chemscore.Rot>
1.9039

> <Gold.Chemscore.Internal.Correction>
   9.000000E+99

> <Gold.Chemscore.Hbonds>
donor molecule, donor type, donor heavy atom, donor atom, acceptor molecule, acceptor atom, score
      L1  H     6    16       P1  7948  0.99
      L1  H     8    19       P1  7957  0.67
      L1  H     8    20       P1  7948  0.93
      P1  H  7989  7998       L1    10  0.21

> <Gold.Chemscore.Hbond.Weighted>
-12.3070

> <Gold.Chemscore.Metal.Weighted>
-0.0000

> <Gold.Chemscore.Lipo.Weighted>
-4.4383

> <Gold.Chemscore.Internal_Hbond.Weighted>
0.0000

> <Gold.Chemscore.DEClash.Weighted>
0.0228

> <Gold.Chemscore.DEInternal.Weighted>
0.0780

> <Gold.Chemscore.Rot.Weighted>
4.8739

> <Gold.Chemscore.Internal.Correction.Weighted>
   9.000000E+99

> <Gold.Protein.RotatedTorsions>
[ 6907 6896 6895 6894 ] final  -94.70 input  -60.11 | X-H torsion
[ 7974 7965 7964 7962 ] final   85.45 input  175.53 | X-H torsion
[ 8008 7997 7996 7995 ] final  173.41 input   59.86 | X-H torsion
[ 10167 10162 10161 10158 ] final   -2.73 input  -65.29 | X-H torsion
[ 10718 10713 10712 10709 ] final  -52.99 input   66.30 | X-H torsion
[ 10763 10752 10751 10750 ] final  178.36 input  -60.55 | X-H torsion
[ 11005 11000 10999 10996 ] final  105.03 input  -57.11 | X-H torsion

> <Gold.Protein.ActiveResidues>
 VAL166  LYS551  ARG553  GLY616  TRP617  ASP618  TYR619  PRO620  LYS621  CYS622 
 ASP623  PHE694  ASN695  SER759  ASP760  ASP761  ALA762  ILE779  LEU786  VAL792 
 PHE793  MET794  SER795  GLU796  ALA797  LYS798  CYS799  TRP800  GLU811  SER814 

> <Gold.Protein.RotatedAtoms>
  150.6947  134.1771  159.4234 H   0  0  0  0  0  0  0  0  0  0  0  0  # atno 6907 bound_to 6896
  151.9747  135.0056  160.0564 H   0  0  0  0  0  0  0  0  0  0  0  0  # atno 6908 bound_to 6896
  152.1809  133.4672  159.4994 H   0  0  0  0  0  0  0  0  0  0  0  0  # atno 6909 bound_to 6896
  145.5853  139.2330  143.2329 H   0  0  0  0  0  0  0  0  0  0  0  0  # atno 7974 bound_to 7965
  156.1078  140.1461  156.9380 H   0  0  0  0  0  0  0  0  0  0  0  0  # atno 8008 bound_to 7997
  154.4746  140.0899  156.7273 H   0  0  0  0  0  0  0  0  0  0  0  0  # atno 8009 bound_to 7997
  155.4649  140.3439  155.4320 H   0  0  0  0  0  0  0  0  0  0  0  0  # atno 8010 bound_to 7997
  140.6863  143.6622  150.8256 H   0  0  0  0  0  0  0  0  0  0  0  0  # atno 10167 bound_to 10162
  156.1573  130.4150  149.9848 H   0  0  0  0  0  0  0  0  0  0  0  0  # atno 10718 bound_to 10713
  154.5066  135.2786  155.1377 H   0  0  0  0  0  0  0  0  0  0  0  0  # atno 10763 bound_to 10752
  154.2989  135.6252  153.5420 H   0  0  0  0  0  0  0  0  0  0  0  0  # atno 10764 bound_to 10752
  152.9911  135.5692  154.5522 H   0  0  0  0  0  0  0  0  0  0  0  0  # atno 10765 bound_to 10752
  139.8798  134.9321  156.5451 H   0  0  0  0  0  0  0  0  0  0  0  0  # atno 11005 bound_to 11000
  146.1686  140.6680  142.9244 LP  0  0  0  0  0  0  0  0  0  0  0  0  # atno 17320 bound_to 7965
  144.7375  140.4850  143.6893 LP  0  0  0  0  0  0  0  0  0  0  0  0  # atno 17321 bound_to 7965
  140.0329  143.5424  152.2752 LP  0  0  0  0  0  0  0  0  0  0  0  0  # atno 17342 bound_to 10162
  139.6224  144.7631  151.2712 LP  0  0  0  0  0  0  0  0  0  0  0  0  # atno 17343 bound_to 10162
  156.7688  130.9178  151.3643 LP  0  0  0  0  0  0  0  0  0  0  0  0  # atno 17370 bound_to 10713
  157.6705  130.9047  150.0029 LP  0  0  0  0  0  0  0  0  0  0  0  0  # atno 17371 bound_to 10713
  140.8281  133.8300  155.8958 LP  0  0  0  0  0  0  0  0  0  0  0  0  # atno 17394 bound_to 11000
  140.9354  134.1968  157.4835 LP  0  0  0  0  0  0  0  0  0  0  0  0  # atno 17395 bound_to 11000

$$$$
