AV-unprocessed.smi:224|AV-procd|sdf|1714|dock5
  -GOLD-   2262020183D 1   1.00000     0.00000
 Structure written by MMmdl.
 56 59  0  0  0  0  0  0  0  0  2 V2000
  145.7565  131.9628  149.8261 C   0  0  0  0  0  0  0  0  0  0  0  0
  145.5260  133.1261  150.7991 C   0  0  1  0  0  0  0  0  0  0  0  0
  145.4587  134.3175  150.0410 O   0  0  0  0  0  0  0  0  0  0  0  0
  144.2192  132.9477  151.6002 C   0  0  0  0  0  0  0  0  0  0  0  0
  144.2289  133.6146  152.9316 N   0  3  1  0  0  0  0  0  0  0  0  0
  145.6024  133.7222  153.4928 C   0  0  0  0  0  0  0  0  0  0  0  0
  145.5767  134.2651  154.9329 C   0  0  0  0  0  0  0  0  0  0  0  0
  144.8263  135.5128  155.0036 N   0  0  0  0  0  0  0  0  0  0  0  0
  145.4507  136.7236  154.9761 C   0  0  0  0  0  0  0  0  0  0  0  0
  144.8743  137.7028  154.2304 N   0  0  0  0  0  0  0  0  0  0  0  0
  145.4197  138.9191  154.1563 C   0  0  0  0  0  0  0  0  0  0  0  0
  146.5301  139.3690  154.7390 N   0  0  0  0  0  0  0  0  0  0  0  0
  147.1242  138.3974  155.4876 C   0  0  0  0  0  0  0  0  0  0  0  0
  146.6574  137.0611  155.6650 C   0  0  0  0  0  0  0  0  0  0  0  0
  147.5396  136.3752  156.4939 N   0  0  0  0  0  0  0  0  0  0  0  0
  148.4572  137.2508  156.7966 C   0  0  0  0  0  0  0  0  0  0  0  0
  148.2921  138.4903  156.2247 N   0  0  0  0  0  0  0  0  0  0  0  0
  149.1626  139.6455  156.3874 C   0  0  0  0  0  0  0  0  0  0  0  0
  150.2856  139.7300  155.3268 C   0  0  2  0  0  0  0  0  0  0  0  0
  149.7318  140.1837  154.1032 O   0  0  0  0  0  0  0  0  0  0  0  0
  150.9664  138.3906  155.0763 C   0  0  0  0  0  0  0  0  0  0  0  0
  152.3635  138.8035  154.6330 C   0  0  0  0  0  0  0  0  0  0  0  0
  152.6562  139.8994  155.4835 O   0  0  0  0  0  0  0  0  0  0  0  0
  151.4654  140.6515  155.7003 C   0  0  0  0  0  0  0  0  0  0  0  0
  143.4619  135.4161  154.4855 C   0  0  0  0  0  0  0  0  0  0  0  0
  143.4490  134.8892  153.0337 C   0  0  1  0  0  0  0  0  0  0  0  0
  143.8978  135.9702  152.0273 C   0  0  0  0  0  0  0  0  0  0  0  0
  145.8361  131.0156  150.3607 H   0  0  0  0  0  0  0  0  0  0  0  0
  146.6793  132.0993  149.2611 H   0  0  0  0  0  0  0  0  0  0  0  0
  144.9384  131.8726  149.1104 H   0  0  0  0  0  0  0  0  0  0  0  0
  146.3885  133.1810  151.4622 H   0  0  0  0  0  0  0  0  0  0  0  0
  145.7993  134.1513  149.1757 H   0  0  0  0  0  0  0  0  0  0  0  0
  143.3992  133.3606  151.0105 H   0  0  0  0  0  0  0  0  0  0  0  0
  143.9882  131.8891  151.7198 H   0  0  0  0  0  0  0  0  0  0  0  0
  146.0781  132.7410  153.4930 H   0  0  0  0  0  0  0  0  0  0  0  0
  146.2085  134.3601  152.8498 H   0  0  0  0  0  0  0  0  0  0  0  0
  145.0758  133.5424  155.5779 H   0  0  0  0  0  0  0  0  0  0  0  0
  146.5804  134.3691  155.3426 H   0  0  0  0  0  0  0  0  0  0  0  0
  144.8902  139.6339  153.5437 H   0  0  0  0  0  0  0  0  0  0  0  0
  149.2893  137.0133  157.4437 H   0  0  0  0  0  0  0  0  0  0  0  0
  148.5474  140.5457  156.3544 H   0  0  0  0  0  0  0  0  0  0  0  0
  149.5928  139.6087  157.3892 H   0  0  0  0  0  0  0  0  0  0  0  0
  149.4467  139.4310  153.6077 H   0  0  0  0  0  0  0  0  0  0  0  0
  151.0429  137.8247  156.0059 H   0  0  0  0  0  0  0  0  0  0  0  0
  150.4509  137.7637  154.3475 H   0  0  0  0  0  0  0  0  0  0  0  0
  153.0958  138.0030  154.7403 H   0  0  0  0  0  0  0  0  0  0  0  0
  152.3631  139.1355  153.5936 H   0  0  0  0  0  0  0  0  0  0  0  0
  151.4821  141.5666  155.1064 H   0  0  0  0  0  0  0  0  0  0  0  0
  151.4430  140.9439  156.7493 H   0  0  0  0  0  0  0  0  0  0  0  0
  142.9176  134.7205  155.1255 H   0  0  0  0  0  0  0  0  0  0  0  0
  142.9161  136.3575  154.5467 H   0  0  0  0  0  0  0  0  0  0  0  0
  142.4065  134.6638  152.8140 H   0  0  0  0  0  0  0  0  0  0  0  0
  143.3324  136.8905  152.1752 H   0  0  0  0  0  0  0  0  0  0  0  0
  143.7283  135.6607  150.9963 H   0  0  0  0  0  0  0  0  0  0  0  0
  144.9534  136.2195  152.1331 H   0  0  0  0  0  0  0  0  0  0  0  0
  143.7558  132.9698  153.5481 H   0  0  0  0  0  0  0  0  0  0  0  0
  1  2  1  0  0  0  0
  1 28  1  0  0  0  0
  1 29  1  0  0  0  0
  1 30  1  0  0  0  0
  2  3  1  0  0  0  0
  2  4  1  0  0  0  0
  2 31  1  0  0  0  0
  3 32  1  0  0  0  0
  4  5  1  0  0  0  0
  4 33  1  0  0  0  0
  4 34  1  0  0  0  0
  5 26  1  0  0  0  0
  5  6  1  0  0  0  0
  5 56  1  0  0  0  0
  6  7  1  0  0  0  0
  6 35  1  0  0  0  0
  6 36  1  0  0  0  0
  7  8  1  0  0  0  0
  7 37  1  0  0  0  0
  7 38  1  0  0  0  0
  8  9  1  0  0  0  0
  8 25  1  0  0  0  0
  9 14  1  0  0  0  0
  9 10  2  0  0  0  0
 10 11  1  0  0  0  0
 11 12  2  0  0  0  0
 11 39  1  0  0  0  0
 12 13  1  0  0  0  0
 13 17  1  0  0  0  0
 13 14  2  0  0  0  0
 14 15  1  0  0  0  0
 15 16  2  0  0  0  0
 16 17  1  0  0  0  0
 16 40  1  0  0  0  0
 17 18  1  0  0  0  0
 18 19  1  0  0  0  0
 18 41  1  0  0  0  0
 18 42  1  0  0  0  0
 19 24  1  0  0  0  0
 19 20  1  0  0  0  0
 19 21  1  0  0  0  0
 20 43  1  0  0  0  0
 21 22  1  0  0  0  0
 21 44  1  0  0  0  0
 21 45  1  0  0  0  0
 22 23  1  0  0  0  0
 22 46  1  0  0  0  0
 22 47  1  0  0  0  0
 23 24  1  0  0  0  0
 24 48  1  0  0  0  0
 24 49  1  0  0  0  0
 25 26  1  0  0  0  0
 25 50  1  0  0  0  0
 25 51  1  0  0  0  0
 26 27  1  0  0  0  0
 26 52  1  0  0  0  0
 27 53  1  0  0  0  0
 27 54  1  0  0  0  0
 27 55  1  0  0  0  0
M  CHG  1   5   1
M  END
> <s_m_source_file>
AV-unprocessed.smi

> <i_m_source_file_index>
224

> <i_lp_mmshare_version>
43012

> <i_f3d_flags>
0

> <s_epik_input>
W0NIM11bQ0BIXShbT0hdKVtDSDJdTjFbQ0gyXVtDSDJdTihbQ0gyXVtDQEhdMVtDSDNdKWMobltjSF1uMiljKGMyMyluW2NIXW4zW0NIMl1bQ0BAXTQoW09IXSlbQ0gyXVtDSDJdT1tDSDJdNA==

> <s_epik_cmdline>
J2VwaWtfcHl0aG9uJywgJy1waCcsICc3LjAnLCAnLXRuJywgJzgnLCAnLW1hJywgJzIwMCcsICctbWV0YWxfYmluZGluZycsICctaW1hZScsICc8aW5maWxlLm1hZT4nLCAnLW9tYWUnLCAnPG91dGZpbGUubWFlPic=

> <r_lp_tautomer_probability>
1

> <r_epik_Ionization_Penalty>
0.00516958

> <r_epik_Ionization_Penalty_Charging>
0.00509693

> <r_epik_Ionization_Penalty_Neutral>
7.26542e-05

> <r_epik_State_Penalty>
-0

> <r_epik_Charging_Adjusted_Penalty>
0.00509693

> <i_epik_Tot_Q>
1

> <i_epik_Tot_abs_Q>
1

> <r_epik_Metal_State_Penalty>
-0

> <b_epik_Metal_Only>
0

> <s_lp_Force_Field>
OPLS_2005

> <r_lp_Energy>
50.9618

> <b_lp_Chiralities_Consistent>
1

> <s_lp_Variant>
AV-unprocessed.smi:224-8

> <Gold.Version>
5.8.1

> <Gold.Id.Protein>
6NUR|6NUR_protein|mol2

> <Gold.PLP.Fitness>
46.6035

> <Gold.PLP.PLP>
-32.2382

> <Gold.PLP.part.hbond>
-4.9798

> <Gold.PLP.part.metal>
0.0000

> <Gold.PLP.part.buried>
-6.2863

> <Gold.PLP.part.nonpolar>
-20.7468

> <Gold.PLP.part.repulsive>
0.1484

> <Gold.PLP.ligand.clash>
0.0000

> <Gold.PLP.ligand.torsion>
1.7863

> <Gold.PLP.Chemscore.Hbond>
4.9000

> <Gold.PLP.Chemscore.CHOScore>
1.0000

> <Gold.PLP.Chemscore.Metal>
0.0000

> <Gold.Chemscore.Hbonds>
donor molecule, donor type, donor heavy atom, donor atom, acceptor molecule, acceptor atom, score
      L1  H     3    32       P1  7921  0.93
      L1  H     5    56       P1 10957  1.98
      P1  H  7989  7998       L1    20  0.38
      P1  H  7997  8010       L1    23  1.00
      L1  C    11    39       P1 10175  0.47

> <Gold.PLP.Chemscore.Internal.Correction>
0.2379

> <Gold.Rescore>
     Score         DG    S(hbond)    S(metal)    S(lipo)     H(rot)  DE(clash)    DE(int)     intcor
     12.79     -15.74       3.05        0.00      66.71       3.02       0.00       2.94       ----

> <Gold.Chemscore.Fitness>
12.7912

> <Gold.Chemscore.DG>
-15.7391

> <Gold.Chemscore.ZeroCoef>
-5.4800

> <Gold.Chemscore.Hbond>
3.0519

> <Gold.Chemscore.Metal>
0.0000

> <Gold.Chemscore.Lipo>
66.7078

> <Gold.Chemscore.Internal_Hbond>
0.0000

> <Gold.Chemscore.DEClash>
0.0030

> <Gold.Chemscore.DEInternal>
2.9449

> <Gold.Chemscore.Rot>
3.0231

> <Gold.Chemscore.Internal.Correction>
   9.000000E+99

> <Gold.Chemscore.Hbonds>
donor molecule, donor type, donor heavy atom, donor atom, acceptor molecule, acceptor atom, score
      L1  H     3    32       P1  7921  0.45
      L1  H     5    56       P1 10957  0.79
      P1  H  7989  7998       L1    20  0.02
      P1  H  7997  8010       L1    23  0.88

> <Gold.Chemscore.Hbond.Weighted>
-10.1934

> <Gold.Chemscore.Metal.Weighted>
-0.0000

> <Gold.Chemscore.Lipo.Weighted>
-7.8048

> <Gold.Chemscore.Internal_Hbond.Weighted>
0.0000

> <Gold.Chemscore.DEClash.Weighted>
0.0030

> <Gold.Chemscore.DEInternal.Weighted>
2.9449

> <Gold.Chemscore.Rot.Weighted>
7.7391

> <Gold.Chemscore.Internal.Correction.Weighted>
   9.000000E+99

> <Gold.Protein.RotatedTorsions>
[ 6907 6896 6895 6894 ] final   96.42 input  -60.11 | X-H torsion
[ 7974 7965 7964 7962 ] final  -45.06 input  175.53 | X-H torsion
[ 8008 7997 7996 7995 ] final  112.29 input   59.86 | X-H torsion
[ 10167 10162 10161 10158 ] final  -38.42 input  -65.29 | X-H torsion
[ 10718 10713 10712 10709 ] final -103.85 input   66.30 | X-H torsion
[ 10763 10752 10751 10750 ] final    0.46 input  -60.55 | X-H torsion
[ 11005 11000 10999 10996 ] final   89.82 input  -57.11 | X-H torsion

> <Gold.Protein.ActiveResidues>
 VAL166  LYS551  ARG553  GLY616  TRP617  ASP618  TYR619  PRO620  LYS621  CYS622 
 ASP623  PHE694  ASN695  SER759  ASP760  ASP761  ALA762  ILE779  LEU786  VAL792 
 PHE793  MET794  SER795  GLU796  ALA797  LYS798  CYS799  TRP800  GLU811  SER814 

> <Gold.Protein.RotatedAtoms>
  152.5435  134.0889  159.8268 H   0  0  0  0  0  0  0  0  0  0  0  0  # atno 6907 bound_to 6896
  151.0981  133.5257  159.2618 H   0  0  0  0  0  0  0  0  0  0  0  0  # atno 6908 bound_to 6896
  151.2022  135.0456  159.8931 H   0  0  0  0  0  0  0  0  0  0  0  0  # atno 6909 bound_to 6896
  145.9858  140.7234  142.9341 H   0  0  0  0  0  0  0  0  0  0  0  0  # atno 7974 bound_to 7965
  156.2182  140.3002  155.9890 H   0  0  0  0  0  0  0  0  0  0  0  0  # atno 8008 bound_to 7997
  155.2550  140.0427  157.3008 H   0  0  0  0  0  0  0  0  0  0  0  0  # atno 8009 bound_to 7997
  154.5800  140.2372  155.8075 H   0  0  0  0  0  0  0  0  0  0  0  0  # atno 8010 bound_to 7997
  140.7092  143.3278  151.2639 H   0  0  0  0  0  0  0  0  0  0  0  0  # atno 10167 bound_to 10162
  156.0281  130.5487  150.7313 H   0  0  0  0  0  0  0  0  0  0  0  0  # atno 10718 bound_to 10713
  153.3204  135.6969  153.7035 H   0  0  0  0  0  0  0  0  0  0  0  0  # atno 10763 bound_to 10752
  153.5878  135.3486  155.2900 H   0  0  0  0  0  0  0  0  0  0  0  0  # atno 10764 bound_to 10752
  154.8596  135.4310  154.2367 H   0  0  0  0  0  0  0  0  0  0  0  0  # atno 10765 bound_to 10752
  139.8868  134.8575  156.3196 H   0  0  0  0  0  0  0  0  0  0  0  0  # atno 11005 bound_to 11000
  144.6874  140.2986  143.7267 LP  0  0  0  0  0  0  0  0  0  0  0  0  # atno 17320 bound_to 7965
  145.7703  139.1855  143.2216 LP  0  0  0  0  0  0  0  0  0  0  0  0  # atno 17321 bound_to 7965
  139.6751  143.9951  152.2776 LP  0  0  0  0  0  0  0  0  0  0  0  0  # atno 17342 bound_to 10162
  139.9562  144.6588  150.8123 LP  0  0  0  0  0  0  0  0  0  0  0  0  # atno 17343 bound_to 10162
  157.4904  131.0910  151.0433 LP  0  0  0  0  0  0  0  0  0  0  0  0  # atno 17370 bound_to 10713
  157.0841  130.5915  149.5426 LP  0  0  0  0  0  0  0  0  0  0  0  0  # atno 17371 bound_to 10713
  140.9796  133.7276  156.0652 LP  0  0  0  0  0  0  0  0  0  0  0  0  # atno 17394 bound_to 11000
  140.7767  134.3772  157.5496 LP  0  0  0  0  0  0  0  0  0  0  0  0  # atno 17395 bound_to 11000

$$$$
