AV-unprocessed.smi:546|AV-procd|sdf|2884|dock2
  -GOLD-   2262023373D 1   1.00000     0.00000
 Structure written by MMmdl.
 52 54  0  0  0  0  0  0  0  0  1 V2000
  149.8248  136.8777  158.5669 C   0  0  0  0  0  0  0  0  0  0  0  0
  151.1004  137.5008  159.1377 C   0  0  0  0  0  0  0  0  0  0  0  0
  151.3843  138.6856  158.4161 O   0  0  0  0  0  0  0  0  0  0  0  0
  152.0344  138.4417  157.1805 C   0  0  0  0  0  0  0  0  0  0  0  0
  152.2175  139.7593  156.4127 C   0  0  0  0  0  0  0  0  0  0  0  0
  150.9384  140.3891  156.1071 N   0  0  0  0  0  0  0  0  0  0  0  0
  150.3998  141.4972  156.6761 C   0  0  0  0  0  0  0  0  0  0  0  0
  151.0469  142.1650  157.7115 N   0  0  0  0  0  0  0  0  0  0  0  0
  151.6266  141.4369  158.8377 C   0  0  0  0  0  0  0  0  0  0  0  0
  152.9012  142.1048  159.3827 C   0  0  2  0  0  0  0  0  0  0  0  0
  153.5064  141.2941  160.5367 C   0  0  0  0  0  0  0  0  0  0  0  0
  152.5830  143.5452  159.8140 C   0  0  0  0  0  0  0  0  0  0  0  0
  151.9113  144.3284  158.6734 C   0  0  1  0  0  0  0  0  0  0  0  0
  152.9131  144.7739  157.5958 C   0  0  0  0  0  0  0  0  0  0  0  0
  150.7143  143.5365  158.0991 C   0  0  0  0  0  0  0  0  0  0  0  0
  149.2124  141.8620  156.1857 N   0  0  0  0  0  0  0  0  0  0  0  0
  148.9716  140.8964  155.2193 C   0  0  0  0  0  0  0  0  0  0  0  0
  149.9895  140.0009  155.1604 C   0  0  0  0  0  0  0  0  0  0  0  0
  149.9870  138.8677  154.2259 C   0  0  0  0  0  0  0  0  0  0  0  0
  150.8908  138.0376  154.1609 O   0  0  0  0  0  0  0  0  0  0  0  0
  148.8819  138.8294  153.4423 N   0  0  0  0  0  0  0  0  0  0  0  0
  147.8253  139.6988  153.4484 C   0  0  0  0  0  0  0  0  0  0  0  0
  146.8907  139.5269  152.6668 O   0  0  0  0  0  0  0  0  0  0  0  0
  147.8617  140.7392  154.3440 N   0  0  0  0  0  0  0  0  0  0  0  0
  146.7800  141.7219  154.4347 C   0  0  0  0  0  0  0  0  0  0  0  0
  148.8317  138.0706  152.7784 H   0  0  0  0  0  0  0  0  0  0  0  0
  149.5710  135.9576  159.0935 H   0  0  0  0  0  0  0  0  0  0  0  0
  149.9466  136.6372  157.5103 H   0  0  0  0  0  0  0  0  0  0  0  0
  148.9807  137.5616  158.6592 H   0  0  0  0  0  0  0  0  0  0  0  0
  150.9664  137.7274  160.1963 H   0  0  0  0  0  0  0  0  0  0  0  0
  151.9296  136.7971  159.0507 H   0  0  0  0  0  0  0  0  0  0  0  0
  153.0038  137.9722  157.3528 H   0  0  0  0  0  0  0  0  0  0  0  0
  151.4341  137.7512  156.5888 H   0  0  0  0  0  0  0  0  0  0  0  0
  152.8334  140.4528  156.9834 H   0  0  0  0  0  0  0  0  0  0  0  0
  152.7604  139.5832  155.4843 H   0  0  0  0  0  0  0  0  0  0  0  0
  150.8771  141.3497  159.6254 H   0  0  0  0  0  0  0  0  0  0  0  0
  151.8565  140.4201  158.5168 H   0  0  0  0  0  0  0  0  0  0  0  0
  153.6409  142.1335  158.5817 H   0  0  0  0  0  0  0  0  0  0  0  0
  152.8138  141.2195  161.3756 H   0  0  0  0  0  0  0  0  0  0  0  0
  154.4241  141.7558  160.9017 H   0  0  0  0  0  0  0  0  0  0  0  0
  153.7520  140.2810  160.2169 H   0  0  0  0  0  0  0  0  0  0  0  0
  151.9108  143.5227  160.6731 H   0  0  0  0  0  0  0  0  0  0  0  0
  153.4873  144.0557  160.1471 H   0  0  0  0  0  0  0  0  0  0  0  0
  151.5107  145.2460  159.1058 H   0  0  0  0  0  0  0  0  0  0  0  0
  153.3583  143.9265  157.0764 H   0  0  0  0  0  0  0  0  0  0  0  0
  153.7256  145.3535  158.0344 H   0  0  0  0  0  0  0  0  0  0  0  0
  152.4295  145.4068  156.8518 H   0  0  0  0  0  0  0  0  0  0  0  0
  150.2989  144.0633  157.2392 H   0  0  0  0  0  0  0  0  0  0  0  0
  149.9170  143.4925  158.8422 H   0  0  0  0  0  0  0  0  0  0  0  0
  145.9458  141.5294  153.7595 H   0  0  0  0  0  0  0  0  0  0  0  0
  147.1627  142.7173  154.2072 H   0  0  0  0  0  0  0  0  0  0  0  0
  146.3791  141.7412  155.4486 H   0  0  0  0  0  0  0  0  0  0  0  0
  1  2  1  0  0  0  0
  1 27  1  0  0  0  0
  1 28  1  0  0  0  0
  1 29  1  0  0  0  0
  2  3  1  0  0  0  0
  2 30  1  0  0  0  0
  2 31  1  0  0  0  0
  3  4  1  0  0  0  0
  4  5  1  0  0  0  0
  4 32  1  0  0  0  0
  4 33  1  0  0  0  0
  5  6  1  0  0  0  0
  5 34  1  0  0  0  0
  5 35  1  0  0  0  0
  6 18  1  0  0  0  0
  6  7  1  0  0  0  0
  7  8  1  0  0  0  0
  7 16  2  0  0  0  0
  8 15  1  0  0  0  0
  8  9  1  0  0  0  0
  9 10  1  0  0  0  0
  9 36  1  0  0  0  0
  9 37  1  0  0  0  0
 10 11  1  0  0  0  0
 10 12  1  0  0  0  0
 10 38  1  0  0  0  0
 11 39  1  0  0  0  0
 11 40  1  0  0  0  0
 11 41  1  0  0  0  0
 12 13  1  0  0  0  0
 12 42  1  0  0  0  0
 12 43  1  0  0  0  0
 13 14  1  0  0  0  0
 13 15  1  0  0  0  0
 13 44  1  0  0  0  0
 14 45  1  0  0  0  0
 14 46  1  0  0  0  0
 14 47  1  0  0  0  0
 15 48  1  0  0  0  0
 15 49  1  0  0  0  0
 16 17  1  0  0  0  0
 17 24  1  0  0  0  0
 17 18  2  0  0  0  0
 18 19  1  0  0  0  0
 19 20  2  0  0  0  0
 19 21  1  0  0  0  0
 21 26  1  0  0  0  0
 21 22  1  0  0  0  0
 22 23  2  0  0  0  0
 22 24  1  0  0  0  0
 24 25  1  0  0  0  0
 25 50  1  0  0  0  0
 25 51  1  0  0  0  0
 25 52  1  0  0  0  0
M  END
> <s_m_source_file>
AV-unprocessed.smi

> <i_m_source_file_index>
546

> <i_lp_mmshare_version>
43012

> <i_f3d_flags>
0

> <s_epik_input>
W0NIM11uMWMoPU8pW25IXWMoPU8pYyhjMTIpbihbQ0gyXVtDSDJdT1tDSDJdW0NIM10pYyhuMilOM1tDSDJdW0NAQEhdKFtDSDNdKVtDSDJdW0NAQEhdKFtDSDNdKVtDSDJdMw==

> <s_epik_cmdline>
J2VwaWtfcHl0aG9uJywgJy1waCcsICc3LjAnLCAnLXRuJywgJzgnLCAnLW1hJywgJzIwMCcsICctbWV0YWxfYmluZGluZycsICctaW1hZScsICc8aW5maWxlLm1hZT4nLCAnLW9tYWUnLCAnPG91dGZpbGUubWFlPic=

> <r_lp_tautomer_probability>
1

> <r_epik_Ionization_Penalty>
0.000576472

> <r_epik_Ionization_Penalty_Charging>
0.000118943

> <r_epik_Ionization_Penalty_Neutral>
0.000457529

> <r_epik_State_Penalty>
-0

> <r_epik_Charging_Adjusted_Penalty>
0.000118943

> <i_epik_Tot_Q>
0

> <i_epik_Tot_abs_Q>
0

> <r_epik_Metal_State_Penalty>
0.0916165

> <b_epik_Metal_Only>
0

> <s_lp_Force_Field>
OPLS_2005

> <r_lp_Energy>
41.9283

> <b_lp_Chiralities_Consistent>
1

> <s_lp_Variant>
AV-unprocessed.smi:546-2

> <Gold.Version>
5.8.1

> <Gold.Id.Protein>
6NUR|6NUR_protein|mol2

> <Gold.PLP.Fitness>
51.8211

> <Gold.PLP.PLP>
-49.3849

> <Gold.PLP.part.hbond>
-2.0000

> <Gold.PLP.part.metal>
0.0000

> <Gold.PLP.part.buried>
-5.2044

> <Gold.PLP.part.nonpolar>
-45.9325

> <Gold.PLP.part.repulsive>
2.8541

> <Gold.PLP.ligand.clash>
0.0000

> <Gold.PLP.ligand.torsion>
0.7228

> <Gold.PLP.Chemscore.Hbond>
0.9913

> <Gold.PLP.Chemscore.CHOScore>
0.0000

> <Gold.PLP.Chemscore.Metal>
0.0000

> <Gold.Chemscore.Hbonds>
donor molecule, donor type, donor heavy atom, donor atom, acceptor molecule, acceptor atom, score
      L1  H    21    26       P1  7948  1.00

> <Gold.PLP.Chemscore.Internal.Correction>
0.9080

> <Gold.Rescore>
     Score         DG    S(hbond)    S(metal)    S(lipo)     H(rot)  DE(clash)    DE(int)     intcor
     14.42     -17.00       0.97        0.00     104.67       1.55       0.90       1.68       ----

> <Gold.Chemscore.Fitness>
14.4236

> <Gold.Chemscore.DG>
-16.9988

> <Gold.Chemscore.ZeroCoef>
-5.4800

> <Gold.Chemscore.Hbond>
0.9675

> <Gold.Chemscore.Metal>
0.0000

> <Gold.Chemscore.Lipo>
104.6707

> <Gold.Chemscore.Internal_Hbond>
0.0000

> <Gold.Chemscore.DEClash>
0.8954

> <Gold.Chemscore.DEInternal>
1.6798

> <Gold.Chemscore.Rot>
1.5465

> <Gold.Chemscore.Internal.Correction>
   9.000000E+99

> <Gold.Chemscore.Hbonds>
donor molecule, donor type, donor heavy atom, donor atom, acceptor molecule, acceptor atom, score
      L1  H    21    26       P1  7948  0.93

> <Gold.Chemscore.Hbond.Weighted>
-3.2314

> <Gold.Chemscore.Metal.Weighted>
-0.0000

> <Gold.Chemscore.Lipo.Weighted>
-12.2465

> <Gold.Chemscore.Internal_Hbond.Weighted>
0.0000

> <Gold.Chemscore.DEClash.Weighted>
0.8954

> <Gold.Chemscore.DEInternal.Weighted>
1.6798

> <Gold.Chemscore.Rot.Weighted>
3.9591

> <Gold.Chemscore.Internal.Correction.Weighted>
   9.000000E+99

> <Gold.Protein.RotatedTorsions>
[ 6907 6896 6895 6894 ] final  128.88 input  -60.11 | X-H torsion
[ 7974 7965 7964 7962 ] final  -48.46 input  175.53 | X-H torsion
[ 8008 7997 7996 7995 ] final   14.97 input   59.86 | X-H torsion
[ 10167 10162 10161 10158 ] final  179.02 input  -65.29 | X-H torsion
[ 10718 10713 10712 10709 ] final   64.47 input   66.30 | X-H torsion
[ 10763 10752 10751 10750 ] final   54.44 input  -60.55 | X-H torsion
[ 11005 11000 10999 10996 ] final  128.65 input  -57.11 | X-H torsion

> <Gold.Protein.ActiveResidues>
 VAL166  LYS551  ARG553  GLY616  TRP617  ASP618  TYR619  PRO620  LYS621  CYS622 
 ASP623  PHE694  ASN695  SER759  ASP760  ASP761  ALA762  ILE779  LEU786  VAL792 
 PHE793  MET794  SER795  GLU796  ALA797  LYS798  CYS799  TRP800  GLU811  SER814 

> <Gold.Protein.RotatedAtoms>
  152.3677  133.6378  159.6063 H   0  0  0  0  0  0  0  0  0  0  0  0  # atno 6907 bound_to 6896
  150.7646  133.9321  159.3439 H   0  0  0  0  0  0  0  0  0  0  0  0  # atno 6908 bound_to 6896
  151.7148  135.0907  160.0325 H   0  0  0  0  0  0  0  0  0  0  0  0  # atno 6909 bound_to 6896
  145.9509  140.7573  142.9505 H   0  0  0  0  0  0  0  0  0  0  0  0  # atno 7974 bound_to 7965
  154.8560  140.2937  155.5569 H   0  0  0  0  0  0  0  0  0  0  0  0  # atno 8008 bound_to 7997
  156.3018  140.2487  156.3458 H   0  0  0  0  0  0  0  0  0  0  0  0  # atno 8009 bound_to 7997
  154.8970  140.0392  157.1860 H   0  0  0  0  0  0  0  0  0  0  0  0  # atno 8010 bound_to 7997
  139.5318  144.2610  152.0707 H   0  0  0  0  0  0  0  0  0  0  0  0  # atno 10167 bound_to 10162
  157.6042  130.9162  149.9850 H   0  0  0  0  0  0  0  0  0  0  0  0  # atno 10718 bound_to 10713
  152.9805  135.5745  154.4904 H   0  0  0  0  0  0  0  0  0  0  0  0  # atno 10763 bound_to 10752
  154.4439  135.2776  155.1830 H   0  0  0  0  0  0  0  0  0  0  0  0  # atno 10764 bound_to 10752
  154.3486  135.6214  153.5685 H   0  0  0  0  0  0  0  0  0  0  0  0  # atno 10765 bound_to 10752
  139.9572  134.9610  156.9033 H   0  0  0  0  0  0  0  0  0  0  0  0  # atno 11005 bound_to 11000
  144.6795  140.2433  143.7341 LP  0  0  0  0  0  0  0  0  0  0  0  0  # atno 17320 bound_to 7965
  145.8172  139.2028  143.1958 LP  0  0  0  0  0  0  0  0  0  0  0  0  # atno 17321 bound_to 7965
  140.2075  144.4596  150.6401 LP  0  0  0  0  0  0  0  0  0  0  0  0  # atno 17342 bound_to 10162
  140.6502  143.2223  151.6095 LP  0  0  0  0  0  0  0  0  0  0  0  0  # atno 17343 bound_to 10162
  156.1123  130.3649  150.0028 LP  0  0  0  0  0  0  0  0  0  0  0  0  # atno 17370 bound_to 10713
  156.8124  130.9329  151.3644 LP  0  0  0  0  0  0  0  0  0  0  0  0  # atno 17371 bound_to 10713
  140.5582  134.0561  155.7390 LP  0  0  0  0  0  0  0  0  0  0  0  0  # atno 17394 bound_to 11000
  141.1245  133.9406  157.2663 LP  0  0  0  0  0  0  0  0  0  0  0  0  # atno 17395 bound_to 11000

$$$$
