AV-unprocessed.smi:693|AV-procd|sdf|3375|dock4
  -GOLD-   22720 0353D 1   1.00000     0.00000
 Structure written by MMmdl.
 47 48  0  0  0  0  0  0  0  0  2 V2000
  153.1028  143.1168  163.4855 C   0  0  0  0  0  0  0  0  0  0  0  0
  152.6582  143.2339  162.0428 C   0  0  0  0  0  0  0  0  0  0  0  0
  152.9458  142.2333  161.0904 C   0  0  0  0  0  0  0  0  0  0  0  0
  152.5029  142.3990  159.7613 C   0  0  0  0  0  0  0  0  0  0  0  0
  151.7816  143.5617  159.4122 C   0  0  0  0  0  0  0  0  0  0  0  0
  151.2808  143.7681  157.9963 C   0  0  0  0  0  0  0  0  0  0  0  0
  151.4025  142.4901  157.1505 C   0  0  0  0  0  0  0  0  0  0  0  0
  150.3003  142.3647  156.2039 N   0  0  0  0  0  0  0  0  0  0  0  0
  150.1535  141.3640  155.3186 C   0  0  0  0  0  0  0  0  0  0  0  0
  150.9544  140.4299  155.2531 O   0  0  0  0  0  0  0  0  0  0  0  0
  149.0493  141.4532  154.5342 N   0  0  0  0  0  0  0  0  0  0  0  0
  148.6099  140.4675  153.5336 C   0  0  0  0  0  0  0  0  0  0  0  0
  147.4215  139.6830  154.1136 C   0  0  0  0  0  0  0  0  0  0  0  0
  146.2826  140.6322  154.5331 C   0  0  0  0  0  0  0  0  0  0  0  0
  146.7829  141.7952  155.4274 C   0  0  2  0  0  0  0  0  0  0  0  0
  145.6934  142.8467  155.7391 C   0  0  0  0  0  0  0  0  0  0  0  0
  145.2416  143.6535  154.5171 C   0  0  0  0  0  0  0  0  0  0  0  0
  144.1767  144.4444  154.6711 N   0  0  0  0  0  0  0  0  0  0  0  0
  145.8566  143.5837  153.4553 O   0  0  0  0  0  0  0  0  0  0  0  0
  148.0110  142.4646  154.7700 C   0  0  0  0  0  0  0  0  0  0  0  0
  151.5243  144.5295  160.4066 C   0  0  0  0  0  0  0  0  0  0  0  0
  151.9665  144.3339  161.6680 N   0  3  0  0  0  0  0  0  0  0  0  0
  152.8088  142.1501  163.8952 H   0  0  0  0  0  0  0  0  0  0  0  0
  152.6577  143.8972  164.1039 H   0  0  0  0  0  0  0  0  0  0  0  0
  154.1875  143.2026  163.5536 H   0  0  0  0  0  0  0  0  0  0  0  0
  153.4979  141.3488  161.3739 H   0  0  0  0  0  0  0  0  0  0  0  0
  152.7129  141.6401  159.0217 H   0  0  0  0  0  0  0  0  0  0  0  0
  150.2418  144.0984  158.0384 H   0  0  0  0  0  0  0  0  0  0  0  0
  151.8421  144.5801  157.5318 H   0  0  0  0  0  0  0  0  0  0  0  0
  152.3367  142.5022  156.5880 H   0  0  0  0  0  0  0  0  0  0  0  0
  151.4392  141.6084  157.7928 H   0  0  0  0  0  0  0  0  0  0  0  0
  149.6028  143.0949  156.2116 H   0  0  0  0  0  0  0  0  0  0  0  0
  148.3028  140.9894  152.6260 H   0  0  0  0  0  0  0  0  0  0  0  0
  149.3914  139.7771  153.2172 H   0  0  0  0  0  0  0  0  0  0  0  0
  147.0544  138.9620  153.3826 H   0  0  0  0  0  0  0  0  0  0  0  0
  147.7531  139.1056  154.9778 H   0  0  0  0  0  0  0  0  0  0  0  0
  145.8172  141.0438  153.6366 H   0  0  0  0  0  0  0  0  0  0  0  0
  145.5114  140.0543  155.0420 H   0  0  0  0  0  0  0  0  0  0  0  0
  147.1141  141.3681  156.3759 H   0  0  0  0  0  0  0  0  0  0  0  0
  144.8215  142.3532  156.1714 H   0  0  0  0  0  0  0  0  0  0  0  0
  146.0524  143.5400  156.5008 H   0  0  0  0  0  0  0  0  0  0  0  0
  143.8420  144.9972  153.8953 H   0  0  0  0  0  0  0  0  0  0  0  0
  143.7104  144.4878  155.5657 H   0  0  0  0  0  0  0  0  0  0  0  0
  148.3713  143.2871  155.3899 H   0  0  0  0  0  0  0  0  0  0  0  0
  147.7280  142.9203  153.8198 H   0  0  0  0  0  0  0  0  0  0  0  0
  150.9791  145.4462  160.2336 H   0  0  0  0  0  0  0  0  0  0  0  0
  151.7679  145.0478  162.3693 H   0  0  0  0  0  0  0  0  0  0  0  0
  1  2  1  0  0  0  0
  1 23  1  0  0  0  0
  1 24  1  0  0  0  0
  1 25  1  0  0  0  0
  2 22  1  0  0  0  0
  2  3  2  0  0  0  0
  3  4  1  0  0  0  0
  3 26  1  0  0  0  0
  4  5  2  0  0  0  0
  4 27  1  0  0  0  0
  5  6  1  0  0  0  0
  5 21  1  0  0  0  0
  6  7  1  0  0  0  0
  6 28  1  0  0  0  0
  6 29  1  0  0  0  0
  7  8  1  0  0  0  0
  7 30  1  0  0  0  0
  7 31  1  0  0  0  0
  8  9  1  0  0  0  0
  8 32  1  0  0  0  0
  9 10  2  0  0  0  0
  9 11  1  0  0  0  0
 11 20  1  0  0  0  0
 11 12  1  0  0  0  0
 12 13  1  0  0  0  0
 12 33  1  0  0  0  0
 12 34  1  0  0  0  0
 13 14  1  0  0  0  0
 13 35  1  0  0  0  0
 13 36  1  0  0  0  0
 14 15  1  0  0  0  0
 14 37  1  0  0  0  0
 14 38  1  0  0  0  0
 15 16  1  0  0  0  0
 15 20  1  0  0  0  0
 15 39  1  0  0  0  0
 16 17  1  0  0  0  0
 16 40  1  0  0  0  0
 16 41  1  0  0  0  0
 17 18  1  0  0  0  0
 17 19  2  0  0  0  0
 18 42  1  0  0  0  0
 18 43  1  0  0  0  0
 20 44  1  0  0  0  0
 20 45  1  0  0  0  0
 21 22  2  0  0  0  0
 21 46  1  0  0  0  0
 22 47  1  0  0  0  0
M  CHG  1  22   1
M  END
> <s_m_source_file>
AV-unprocessed.smi

> <i_m_source_file_index>
693

> <i_lp_mmshare_version>
43012

> <i_f3d_flags>
0

> <s_epik_input>
W0NIM11jMVtjSF1bY0hdYyhbY0hdbjEpW0NIMl1bQ0gyXVtOSF1DKD1PKU4yW0NIMl1bQ0gyXVtDSDJdW0NASF0oW0NIMl0yKVtDSDJdQyg9TylbTkgyXQ==

> <s_epik_cmdline>
J2VwaWtfcHl0aG9uJywgJy1waCcsICc3LjAnLCAnLXRuJywgJzgnLCAnLW1hJywgJzIwMCcsICctbWV0YWxfYmluZGluZycsICctaW1hZScsICc8aW5maWxlLm1hZT4nLCAnLW9tYWUnLCAnPG91dGZpbGUubWFlPic=

> <r_epik_Ionization_Penalty>
1.41666

> <r_epik_Ionization_Penalty_Charging>
1.4166

> <r_epik_Ionization_Penalty_Neutral>
5.77403e-05

> <r_epik_State_Penalty>
1.50002

> <r_epik_Charging_Adjusted_Penalty>
2.91662

> <i_epik_Tot_Q>
1

> <i_epik_Tot_abs_Q>
1

> <r_epik_Metal_State_Penalty>
1.55252

> <b_epik_Metal_Only>
0

> <s_lp_Force_Field>
OPLS_2005

> <r_lp_Energy>
32.8

> <b_lp_Chiralities_Consistent>
1

> <s_lp_Variant>
AV-unprocessed.smi:693-4

> <Gold.Version>
5.8.1

> <Gold.Id.Protein>
6NUR|6NUR_protein|mol2

> <Gold.PLP.Fitness>
49.8043

> <Gold.PLP.PLP>
-46.6777

> <Gold.PLP.part.hbond>
-2.8123

> <Gold.PLP.part.metal>
0.0000

> <Gold.PLP.part.buried>
-1.4175

> <Gold.PLP.part.nonpolar>
-41.6897

> <Gold.PLP.part.repulsive>
0.4204

> <Gold.PLP.ligand.clash>
1.6892

> <Gold.PLP.ligand.torsion>
0.4893

> <Gold.PLP.Chemscore.Hbond>
1.8920

> <Gold.PLP.Chemscore.CHOScore>
0.0000

> <Gold.PLP.Chemscore.Metal>
0.0000

> <Gold.Chemscore.Hbonds>
donor molecule, donor type, donor heavy atom, donor atom, acceptor molecule, acceptor atom, score
      L1  H     8    32       P1  8028  1.00
      P1  H  7989  7998       L1    10  0.80

> <Gold.PLP.Chemscore.Internal.Correction>
0.1183

> <Gold.Rescore>
     Score         DG    S(hbond)    S(metal)    S(lipo)     H(rot)  DE(clash)    DE(int)     intcor
     12.77     -17.77       1.33        0.00     118.22       2.34       3.10       1.90       ----

> <Gold.Chemscore.Fitness>
12.7726

> <Gold.Chemscore.DG>
-17.7709

> <Gold.Chemscore.ZeroCoef>
-5.4800

> <Gold.Chemscore.Hbond>
1.3287

> <Gold.Chemscore.Metal>
0.0000

> <Gold.Chemscore.Lipo>
118.2183

> <Gold.Chemscore.Internal_Hbond>
0.0000

> <Gold.Chemscore.DEClash>
3.0974

> <Gold.Chemscore.DEInternal>
1.9009

> <Gold.Chemscore.Rot>
2.3354

> <Gold.Chemscore.Internal.Correction>
   9.000000E+99

> <Gold.Chemscore.Hbonds>
donor molecule, donor type, donor heavy atom, donor atom, acceptor molecule, acceptor atom, score
      L1  H     8    32       P1  8028  0.98
      P1  H  7989  7998       L1    10  0.11

> <Gold.Chemscore.Hbond.Weighted>
-4.4379

> <Gold.Chemscore.Metal.Weighted>
-0.0000

> <Gold.Chemscore.Lipo.Weighted>
-13.8315

> <Gold.Chemscore.Internal_Hbond.Weighted>
0.0000

> <Gold.Chemscore.DEClash.Weighted>
3.0974

> <Gold.Chemscore.DEInternal.Weighted>
1.9009

> <Gold.Chemscore.Rot.Weighted>
5.9785

> <Gold.Chemscore.Internal.Correction.Weighted>
   9.000000E+99

> <Gold.Protein.RotatedTorsions>
[ 6907 6896 6895 6894 ] final  175.54 input  -60.11 | X-H torsion
[ 7974 7965 7964 7962 ] final  168.07 input  175.53 | X-H torsion
[ 8008 7997 7996 7995 ] final   21.11 input   59.86 | X-H torsion
[ 10167 10162 10161 10158 ] final    9.52 input  -65.29 | X-H torsion
[ 10718 10713 10712 10709 ] final  157.41 input   66.30 | X-H torsion
[ 10763 10752 10751 10750 ] final -133.56 input  -60.55 | X-H torsion
[ 11005 11000 10999 10996 ] final  123.87 input  -57.11 | X-H torsion

> <Gold.Protein.ActiveResidues>
 VAL166  LYS551  ARG553  GLY616  TRP617  ASP618  TYR619  PRO620  LYS621  CYS622 
 ASP623  PHE694  ASN695  SER759  ASP760  ASP761  ALA762  ILE779  LEU786  VAL792 
 PHE793  MET794  SER795  GLU796  ALA797  LYS798  CYS799  TRP800  GLU811  SER814 

> <Gold.Protein.RotatedAtoms>
  151.7346  133.3319  159.3349 H   0  0  0  0  0  0  0  0  0  0  0  0  # atno 6907 bound_to 6896
  150.7598  134.6332  159.6207 H   0  0  0  0  0  0  0  0  0  0  0  0  # atno 6908 bound_to 6896
  152.3570  134.6929  160.0271 H   0  0  0  0  0  0  0  0  0  0  0  0  # atno 6909 bound_to 6896
  144.7401  139.8853  143.6399 H   0  0  0  0  0  0  0  0  0  0  0  0  # atno 7974 bound_to 7965
  154.9457  140.3059  155.5099 H   0  0  0  0  0  0  0  0  0  0  0  0  # atno 8008 bound_to 7997
  156.2992  140.2328  156.4468 H   0  0  0  0  0  0  0  0  0  0  0  0  # atno 8009 bound_to 7997
  154.8102  140.0429  157.1326 H   0  0  0  0  0  0  0  0  0  0  0  0  # atno 8010 bound_to 7997
  140.6250  143.8121  150.7222 H   0  0  0  0  0  0  0  0  0  0  0  0  # atno 10167 bound_to 10162
  157.1918  131.0656  151.2075 H   0  0  0  0  0  0  0  0  0  0  0  0  # atno 10718 bound_to 10713
  154.8731  135.3762  154.4592 H   0  0  0  0  0  0  0  0  0  0  0  0  # atno 10763 bound_to 10752
  153.5262  135.7028  153.5711 H   0  0  0  0  0  0  0  0  0  0  0  0  # atno 10764 bound_to 10752
  153.3936  135.3966  155.1905 H   0  0  0  0  0  0  0  0  0  0  0  0  # atno 10765 bound_to 10752
  139.9332  134.9641  156.8324 H   0  0  0  0  0  0  0  0  0  0  0  0  # atno 11005 bound_to 11000
  146.1181  139.4195  143.0245 LP  0  0  0  0  0  0  0  0  0  0  0  0  # atno 17320 bound_to 7965
  145.7345  141.0030  143.1334 LP  0  0  0  0  0  0  0  0  0  0  0  0  # atno 17321 bound_to 7965
  140.1720  143.4187  152.1994 LP  0  0  0  0  0  0  0  0  0  0  0  0  # atno 17342 bound_to 10162
  139.5472  144.7308  151.4547 LP  0  0  0  0  0  0  0  0  0  0  0  0  # atno 17343 bound_to 10162
  157.3853  130.7253  149.6658 LP  0  0  0  0  0  0  0  0  0  0  0  0  # atno 17370 bound_to 10713
  155.9711  130.4161  150.4215 LP  0  0  0  0  0  0  0  0  0  0  0  0  # atno 17371 bound_to 10713
  140.6145  134.0051  155.7591 LP  0  0  0  0  0  0  0  0  0  0  0  0  # atno 17394 bound_to 11000
  141.0932  133.9884  157.3203 LP  0  0  0  0  0  0  0  0  0  0  0  0  # atno 17395 bound_to 11000

$$$$
