AV-unprocessed.smi:2226|AV-procd|sdf|9009|dock5
  -GOLD-   2272012213D 1   1.00000     0.00000
 Structure written by MMmdl.
 40 42  0  0  0  0  0  0  0  0  2 V2000
  145.6628  139.9897  155.5188 C   0  0  0  0  0  0  0  0  0  0  0  0
  145.6071  139.2391  154.2417 N   0  3  2  0  0  0  0  0  0  0  0  0
  144.8755  137.9515  154.3076 C   0  0  2  0  0  0  0  0  0  0  0  0
  145.6591  136.8957  155.1274 C   0  0  0  0  0  0  0  0  0  0  0  0
  147.1244  136.7170  154.6900 C   0  0  0  0  0  0  0  0  0  0  0  0
  147.8113  138.0526  154.3543 C   0  0  0  0  0  0  0  0  0  0  0  0
  146.9162  139.0471  153.5733 C   0  0  1  0  0  0  0  0  0  0  0  0
  146.6768  138.6903  152.0876 C   0  0  0  0  0  0  0  0  0  0  0  0
  145.6208  137.5824  151.8204 C   0  0  1  0  0  0  0  0  0  0  0  0
  146.2171  136.2675  151.5975 N   0  0  0  0  0  0  0  0  0  0  0  0
  145.5651  135.1456  151.2552 C   0  0  0  0  0  0  0  0  0  0  0  0
  144.3409  135.1331  151.0918 O   0  0  0  0  0  0  0  0  0  0  0  0
  146.4658  134.1012  151.1105 N   0  0  0  0  0  0  0  0  0  0  0  0
  146.0388  132.8775  151.1643 C   0  0  0  0  0  0  0  0  0  0  0  0
  146.7852  131.7150  151.0552 N   0  0  0  0  0  0  0  0  0  0  0  0
  145.9330  130.6505  151.1631 C   0  0  0  0  0  0  0  0  0  0  0  0
  144.7009  131.1219  151.3310 C   0  0  0  0  0  0  0  0  0  0  0  0
  144.7315  132.4837  151.3351 O   0  0  0  0  0  0  0  0  0  0  0  0
  144.4858  137.5201  152.8745 C   0  0  0  0  0  0  0  0  0  0  0  0
  146.2248  139.4584  156.2865 H   0  0  0  0  0  0  0  0  0  0  0  0
  144.6566  140.1670  155.8992 H   0  0  0  0  0  0  0  0  0  0  0  0
  146.1330  140.9617  155.3680 H   0  0  0  0  0  0  0  0  0  0  0  0
  143.9375  138.1296  154.8359 H   0  0  0  0  0  0  0  0  0  0  0  0
  145.6500  137.1920  156.1766 H   0  0  0  0  0  0  0  0  0  0  0  0
  145.1438  135.9353  155.0944 H   0  0  0  0  0  0  0  0  0  0  0  0
  147.6796  136.2134  155.4818 H   0  0  0  0  0  0  0  0  0  0  0  0
  147.1877  136.0385  153.8460 H   0  0  0  0  0  0  0  0  0  0  0  0
  148.1234  138.5213  155.2879 H   0  0  0  0  0  0  0  0  0  0  0  0
  148.7335  137.8647  153.8032 H   0  0  0  0  0  0  0  0  0  0  0  0
  147.4336  140.0076  153.5755 H   0  0  0  0  0  0  0  0  0  0  0  0
  146.3161  139.5968  151.5995 H   0  0  0  0  0  0  0  0  0  0  0  0
  147.6231  138.4658  151.5940 H   0  0  0  0  0  0  0  0  0  0  0  0
  145.1335  137.8313  150.8753 H   0  0  0  0  0  0  0  0  0  0  0  0
  147.2185  136.2022  151.7106 H   0  0  0  0  0  0  0  0  0  0  0  0
  147.7811  131.6206  150.9184 H   0  0  0  0  0  0  0  0  0  0  0  0
  146.3102  129.6401  151.1063 H   0  0  0  0  0  0  0  0  0  0  0  0
  143.7416  130.6418  151.4561 H   0  0  0  0  0  0  0  0  0  0  0  0
  144.0160  136.5355  152.8848 H   0  0  0  0  0  0  0  0  0  0  0  0
  143.7019  138.2020  152.5418 H   0  0  0  0  0  0  0  0  0  0  0  0
  145.0685  139.8276  153.6223 H   0  0  0  0  0  0  0  0  0  0  0  0
  1  2  1  0  0  0  0
  1 20  1  0  0  0  0
  1 21  1  0  0  0  0
  1 22  1  0  0  0  0
  2  7  1  0  0  0  0
  2  3  1  0  0  0  0
  2 40  1  0  0  0  0
  3 19  1  0  0  0  0
  3  4  1  0  0  0  0
  3 23  1  0  0  0  0
  4  5  1  0  0  0  0
  4 24  1  0  0  0  0
  4 25  1  0  0  0  0
  5  6  1  0  0  0  0
  5 26  1  0  0  0  0
  5 27  1  0  0  0  0
  6  7  1  0  0  0  0
  6 28  1  0  0  0  0
  6 29  1  0  0  0  0
  7  8  1  0  0  0  0
  7 30  1  0  0  0  0
  8  9  1  0  0  0  0
  8 31  1  0  0  0  0
  8 32  1  0  0  0  0
  9 10  1  0  0  0  0
  9 19  1  0  0  0  0
  9 33  1  0  0  0  0
 10 34  1  0  0  0  0
 10 11  1  0  0  0  0
 11 13  1  0  0  0  0
 11 12  2  0  0  0  0
 13 14  2  0  0  0  0
 14 18  1  0  0  0  0
 14 15  1  0  0  0  0
 15 35  1  0  0  0  0
 15 16  1  0  0  0  0
 16 36  1  0  0  0  0
 16 17  2  0  0  0  0
 17 37  1  0  0  0  0
 17 18  1  0  0  0  0
 19 38  1  0  0  0  0
 19 39  1  0  0  0  0
M  CHG  1   2   1
M  END
> <s_m_source_file>
AV-unprocessed.smi

> <i_m_source_file_index>
2226

> <i_lp_mmshare_version>
43012

> <i_f3d_flags>
0

> <s_epik_input>
W0NIMl0xW0NIMl1bQ0gyXVtDQEhdKE4oW0NIM10pW0NIXTEyKVtDSDJdW0NASF0oW0NIMl0yKVtOSF1DKD1PKVtOSF1jM25bY0hdW2NIXW8z

> <s_epik_cmdline>
J2VwaWtfcHl0aG9uJywgJy1waCcsICc3LjAnLCAnLXRuJywgJzgnLCAnLW1hJywgJzIwMCcsICctbWV0YWxfYmluZGluZycsICctaW1hZScsICc8aW5maWxlLm1hZT4nLCAnLW9tYWUnLCAnPG91dGZpbGUubWFlPic=

> <r_lp_tautomer_probability>
0.107061

> <r_epik_Ionization_Penalty>
1.08307

> <r_epik_Ionization_Penalty_Charging>
1.08272

> <r_epik_Ionization_Penalty_Neutral>
0.000345913

> <r_epik_State_Penalty>
2.5744

> <r_epik_Charging_Adjusted_Penalty>
3.65713

> <i_epik_Tot_Q>
1

> <i_epik_Tot_abs_Q>
1

> <r_epik_Metal_State_Penalty>
3.72133

> <b_epik_Metal_Only>
0

> <s_lp_Force_Field>
OPLS_2005

> <r_lp_Energy>
58.5529

> <b_lp_Chiralities_Consistent>
1

> <s_lp_Variant>
AV-unprocessed.smi:2226-9

> <Gold.Version>
5.8.1

> <Gold.Id.Protein>
6NUR|6NUR_protein|mol2

> <Gold.PLP.Fitness>
34.8968

> <Gold.PLP.PLP>
-23.1015

> <Gold.PLP.part.hbond>
-2.8231

> <Gold.PLP.part.metal>
0.0000

> <Gold.PLP.part.buried>
-0.2132

> <Gold.PLP.part.nonpolar>
-20.8839

> <Gold.PLP.part.repulsive>
0.6588

> <Gold.PLP.ligand.clash>
0.0000

> <Gold.PLP.ligand.torsion>
0.1165

> <Gold.PLP.Chemscore.Hbond>
3.9920

> <Gold.PLP.Chemscore.CHOScore>
0.0000

> <Gold.PLP.Chemscore.Metal>
0.0000

> <Gold.Chemscore.Hbonds>
donor molecule, donor type, donor heavy atom, donor atom, acceptor molecule, acceptor atom, score
      L1  H     2    40       P1 10175  2.00
      L1  H    10    34       P1  7948  1.00
      L1  H    15    35       P1 10747  0.99

> <Gold.PLP.Chemscore.Internal.Correction>
0.0522

> <Gold.Rescore>
     Score         DG    S(hbond)    S(metal)    S(lipo)     H(rot)  DE(clash)    DE(int)     intcor
     16.97     -19.18       2.92        0.00      55.52       1.00       0.51       1.70       ----

> <Gold.Chemscore.Fitness>
16.9714

> <Gold.Chemscore.DG>
-19.1848

> <Gold.Chemscore.ZeroCoef>
-5.4800

> <Gold.Chemscore.Hbond>
2.9248

> <Gold.Chemscore.Metal>
0.0000

> <Gold.Chemscore.Lipo>
55.5209

> <Gold.Chemscore.Internal_Hbond>
0.0000

> <Gold.Chemscore.DEClash>
0.5146

> <Gold.Chemscore.DEInternal>
1.6988

> <Gold.Chemscore.Rot>
1.0000

> <Gold.Chemscore.Internal.Correction>
   9.000000E+99

> <Gold.Chemscore.Hbonds>
donor molecule, donor type, donor heavy atom, donor atom, acceptor molecule, acceptor atom, score
      L1  H     2    40       P1 10175  0.99
      L1  H    10    34       P1  7948  1.00
      L1  H    15    35       P1 10747  0.90

> <Gold.Chemscore.Hbond.Weighted>
-9.7688

> <Gold.Chemscore.Metal.Weighted>
-0.0000

> <Gold.Chemscore.Lipo.Weighted>
-6.4959

> <Gold.Chemscore.Internal_Hbond.Weighted>
0.0000

> <Gold.Chemscore.DEClash.Weighted>
0.5146

> <Gold.Chemscore.DEInternal.Weighted>
1.6988

> <Gold.Chemscore.Rot.Weighted>
2.5600

> <Gold.Chemscore.Internal.Correction.Weighted>
   9.000000E+99

> <Gold.Protein.RotatedTorsions>
[ 6907 6896 6895 6894 ] final   16.48 input  -60.11 | X-H torsion
[ 7974 7965 7964 7962 ] final -128.68 input  175.53 | X-H torsion
[ 8008 7997 7996 7995 ] final -104.45 input   59.86 | X-H torsion
[ 10167 10162 10161 10158 ] final -143.95 input  -65.29 | X-H torsion
[ 10718 10713 10712 10709 ] final  129.06 input   66.30 | X-H torsion
[ 10763 10752 10751 10750 ] final  -69.48 input  -60.55 | X-H torsion
[ 11005 11000 10999 10996 ] final   71.05 input  -57.11 | X-H torsion

> <Gold.Protein.ActiveResidues>
 VAL166  LYS551  ARG553  GLY616  TRP617  ASP618  TYR619  PRO620  LYS621  CYS622 
 ASP623  PHE694  ASN695  SER759  ASP760  ASP761  ALA762  ILE779  LEU786  VAL792 
 PHE793  MET794  SER795  GLU796  ALA797  LYS798  CYS799  TRP800  GLU811  SER814 

> <Gold.Protein.RotatedAtoms>
  151.8345  135.0610  160.0440 H   0  0  0  0  0  0  0  0  0  0  0  0  # atno 6907 bound_to 6896
  152.2855  133.5507  159.5533 H   0  0  0  0  0  0  0  0  0  0  0  0  # atno 6908 bound_to 6896
  150.7207  134.0419  159.3811 H   0  0  0  0  0  0  0  0  0  0  0  0  # atno 6909 bound_to 6896
  144.9647  140.7483  143.4707 H   0  0  0  0  0  0  0  0  0  0  0  0  # atno 7974 bound_to 7965
  154.8855  140.0418  157.1807 H   0  0  0  0  0  0  0  0  0  0  0  0  # atno 8008 bound_to 7997
  154.8595  140.2942  155.5527 H   0  0  0  0  0  0  0  0  0  0  0  0  # atno 8009 bound_to 7997
  156.2998  140.2449  156.3567 H   0  0  0  0  0  0  0  0  0  0  0  0  # atno 8010 bound_to 7997
  139.7945  143.7919  152.2653 H   0  0  0  0  0  0  0  0  0  0  0  0  # atno 10167 bound_to 10162
  157.5188  131.1098  150.9184 H   0  0  0  0  0  0  0  0  0  0  0  0  # atno 10718 bound_to 10713
  154.4040  135.6024  153.5913 H   0  0  0  0  0  0  0  0  0  0  0  0  # atno 10763 bound_to 10752
  152.9788  135.5913  154.4150 H   0  0  0  0  0  0  0  0  0  0  0  0  # atno 10764 bound_to 10752
  154.3953  135.2842  155.2108 H   0  0  0  0  0  0  0  0  0  0  0  0  # atno 10765 bound_to 10752
  139.9564  134.7136  156.0743 H   0  0  0  0  0  0  0  0  0  0  0  0  # atno 11005 bound_to 11000
  145.2647  139.1978  143.4873 LP  0  0  0  0  0  0  0  0  0  0  0  0  # atno 17320 bound_to 7965
  146.3364  140.2584  142.8601 LP  0  0  0  0  0  0  0  0  0  0  0  0  # atno 17321 bound_to 7965
  139.8021  144.7370  150.9811 LP  0  0  0  0  0  0  0  0  0  0  0  0  # atno 17342 bound_to 10162
  140.7820  143.4335  151.0659 LP  0  0  0  0  0  0  0  0  0  0  0  0  # atno 17343 bound_to 10162
  156.9801  130.5524  149.5296 LP  0  0  0  0  0  0  0  0  0  0  0  0  # atno 17370 bound_to 10713
  156.0339  130.5428  150.8604 LP  0  0  0  0  0  0  0  0  0  0  0  0  # atno 17371 bound_to 10713
  141.1236  133.6605  156.3279 LP  0  0  0  0  0  0  0  0  0  0  0  0  # atno 17394 bound_to 11000
  140.5599  134.5945  157.5431 LP  0  0  0  0  0  0  0  0  0  0  0  0  # atno 17395 bound_to 11000

$$$$
