AV-unprocessed.smi:229|AV-procd|sdf|1756|dock2
  -GOLD-   2262020283D 1   1.00000     0.00000
 Structure written by MMmdl.
 58 62  0  0  0  0  0  0  0  0  1 V2000
  147.2395  134.7171  159.5736 C   0  0  0  0  0  0  0  0  0  0  0  0
  147.8998  133.7693  158.5646 C   0  0  0  0  0  0  0  0  0  0  0  0
  148.2327  134.4544  157.2309 C   0  0  1  0  0  0  0  0  0  0  0  0
  149.4495  135.3872  157.3540 C   0  0  0  0  0  0  0  0  0  0  0  0
  149.7913  135.9305  156.0442 N   0  0  0  0  0  0  0  0  0  0  0  0
  150.6186  137.0045  155.9847 C   0  0  0  0  0  0  0  0  0  0  0  0
  151.5305  137.1053  154.9803 N   0  0  0  0  0  0  0  0  0  0  0  0
  152.3515  138.1576  154.9152 C   0  0  0  0  0  0  0  0  0  0  0  0
  152.4344  139.2038  155.7392 N   0  0  0  0  0  0  0  0  0  0  0  0
  151.5267  139.1060  156.7517 C   0  0  0  0  0  0  0  0  0  0  0  0
  150.5889  138.0530  156.9475 C   0  0  0  0  0  0  0  0  0  0  0  0
  149.8402  138.2957  158.0942 N   0  0  0  0  0  0  0  0  0  0  0  0
  150.3026  139.4301  158.5443 C   0  0  0  0  0  0  0  0  0  0  0  0
  151.3227  139.9814  157.8026 N   0  0  0  0  0  0  0  0  0  0  0  0
  152.0342  141.2173  158.0787 C   0  0  0  0  0  0  0  0  0  0  0  0
  151.3229  142.0772  159.1460 C   0  0  2  0  0  0  0  0  0  0  0  0
  150.0412  142.4167  158.6518 O   0  0  0  0  0  0  0  0  0  0  0  0
  152.0680  143.3889  159.4641 C   0  0  2  0  0  0  0  0  0  0  0  0
  151.5179  144.1662  160.6628 C   0  0  0  0  0  0  0  0  0  0  0  0
  151.9183  145.6057  160.3794 C   0  0  0  0  0  0  0  0  0  0  0  0
  152.2824  145.6002  158.8933 C   0  0  0  0  0  0  0  0  0  0  0  0
  151.8636  144.3289  158.4192 O   0  0  0  0  0  0  0  0  0  0  0  0
  150.0359  134.8943  155.0481 C   0  0  0  0  0  0  0  0  0  0  0  0
  148.8307  133.9309  154.9547 C   0  0  2  0  0  0  0  0  0  0  0  0
  149.1578  132.7280  154.0757 C   0  0  0  0  0  0  0  0  0  0  0  0
  148.6070  133.1292  152.7158 C   0  0  0  0  0  0  0  0  0  0  0  0
  147.3918  133.7680  153.0581 O   0  0  0  0  0  0  0  0  0  0  0  0
  147.6145  134.5501  154.2260 C   0  0  0  0  0  0  0  0  0  0  0  0
  148.5105  133.4420  156.2609 O   0  0  0  0  0  0  0  0  0  0  0  0
  147.0245  134.1991  160.5082 H   0  0  0  0  0  0  0  0  0  0  0  0
  146.2989  135.1123  159.1891 H   0  0  0  0  0  0  0  0  0  0  0  0
  147.8889  135.5621  159.8038 H   0  0  0  0  0  0  0  0  0  0  0  0
  148.8152  133.3729  159.0052 H   0  0  0  0  0  0  0  0  0  0  0  0
  147.2488  132.9124  158.3871 H   0  0  0  0  0  0  0  0  0  0  0  0
  147.3687  135.0428  156.9205 H   0  0  0  0  0  0  0  0  0  0  0  0
  149.2215  136.1955  158.0503 H   0  0  0  0  0  0  0  0  0  0  0  0
  150.3057  134.8419  157.7541 H   0  0  0  0  0  0  0  0  0  0  0  0
  153.0418  138.1607  154.0847 H   0  0  0  0  0  0  0  0  0  0  0  0
  149.9181  139.8923  159.4420 H   0  0  0  0  0  0  0  0  0  0  0  0
  153.0419  140.9562  158.4026 H   0  0  0  0  0  0  0  0  0  0  0  0
  152.1412  141.7748  157.1471 H   0  0  0  0  0  0  0  0  0  0  0  0
  151.2031  141.4934  160.0597 H   0  0  0  0  0  0  0  0  0  0  0  0
  149.5662  141.6178  158.4803 H   0  0  0  0  0  0  0  0  0  0  0  0
  153.1373  143.2114  159.5991 H   0  0  0  0  0  0  0  0  0  0  0  0
  150.4298  144.0923  160.6907 H   0  0  0  0  0  0  0  0  0  0  0  0
  151.9042  143.8020  161.6152 H   0  0  0  0  0  0  0  0  0  0  0  0
  151.0955  146.2888  160.5931 H   0  0  0  0  0  0  0  0  0  0  0  0
  152.7744  145.9098  160.9826 H   0  0  0  0  0  0  0  0  0  0  0  0
  151.7986  146.4047  158.3387 H   0  0  0  0  0  0  0  0  0  0  0  0
  153.3611  145.6954  158.7609 H   0  0  0  0  0  0  0  0  0  0  0  0
  150.2531  135.3147  154.0670 H   0  0  0  0  0  0  0  0  0  0  0  0
  150.9274  134.3432  155.3511 H   0  0  0  0  0  0  0  0  0  0  0  0
  150.2190  132.4784  154.0487 H   0  0  0  0  0  0  0  0  0  0  0  0
  148.6206  131.8464  154.4291 H   0  0  0  0  0  0  0  0  0  0  0  0
  149.2697  133.8359  152.2136 H   0  0  0  0  0  0  0  0  0  0  0  0
  148.4424  132.2763  152.0570 H   0  0  0  0  0  0  0  0  0  0  0  0
  146.7066  134.5401  154.8286 H   0  0  0  0  0  0  0  0  0  0  0  0
  147.8073  135.5838  153.9355 H   0  0  0  0  0  0  0  0  0  0  0  0
  1  2  1  0  0  0  0
  1 30  1  0  0  0  0
  1 31  1  0  0  0  0
  1 32  1  0  0  0  0
  2  3  1  0  0  0  0
  2 33  1  0  0  0  0
  2 34  1  0  0  0  0
  3 29  1  0  0  0  0
  3  4  1  0  0  0  0
  3 35  1  0  0  0  0
  4  5  1  0  0  0  0
  4 36  1  0  0  0  0
  4 37  1  0  0  0  0
  5  6  1  0  0  0  0
  5 23  1  0  0  0  0
  6 11  1  0  0  0  0
  6  7  2  0  0  0  0
  7  8  1  0  0  0  0
  8  9  2  0  0  0  0
  8 38  1  0  0  0  0
  9 10  1  0  0  0  0
 10 14  1  0  0  0  0
 10 11  2  0  0  0  0
 11 12  1  0  0  0  0
 12 13  2  0  0  0  0
 13 14  1  0  0  0  0
 13 39  1  0  0  0  0
 14 15  1  0  0  0  0
 15 16  1  0  0  0  0
 15 40  1  0  0  0  0
 15 41  1  0  0  0  0
 16 17  1  0  0  0  0
 16 18  1  0  0  0  0
 16 42  1  0  0  0  0
 17 43  1  0  0  0  0
 18 22  1  0  0  0  0
 18 19  1  0  0  0  0
 18 44  1  0  0  0  0
 19 20  1  0  0  0  0
 19 45  1  0  0  0  0
 19 46  1  0  0  0  0
 20 21  1  0  0  0  0
 20 47  1  0  0  0  0
 20 48  1  0  0  0  0
 21 22  1  0  0  0  0
 21 49  1  0  0  0  0
 21 50  1  0  0  0  0
 23 24  1  0  0  0  0
 23 51  1  0  0  0  0
 23 52  1  0  0  0  0
 24 28  1  0  0  0  0
 24 25  1  0  0  0  0
 24 29  1  0  0  0  0
 25 26  1  0  0  0  0
 25 53  1  0  0  0  0
 25 54  1  0  0  0  0
 26 27  1  0  0  0  0
 26 55  1  0  0  0  0
 26 56  1  0  0  0  0
 27 28  1  0  0  0  0
 28 57  1  0  0  0  0
 28 58  1  0  0  0  0
M  END
> <s_m_source_file>
AV-unprocessed.smi

> <i_m_source_file_index>
229

> <i_lp_mmshare_version>
43012

> <i_f3d_flags>
0

> <s_epik_input>
W0NIMl0xT1tDSDJdW0NIMl1bQ0BdMTJbQ0gyXU4oW0NIMl1bQ0BIXShPMilbQ0gyXVtDSDNdKWMobltjSF1uMyljKGMzNCluW2NIXW40W0NIMl1bQ0BIXShbT0hdKVtDQEBIXTVbQ0gyXVtDSDJdW0NIMl1PNQ==

> <s_epik_cmdline>
J2VwaWtfcHl0aG9uJywgJy1waCcsICc3LjAnLCAnLXRuJywgJzgnLCAnLW1hJywgJzIwMCcsICctbWV0YWxfYmluZGluZycsICctaW1hZScsICc8aW5maWxlLm1hZT4nLCAnLW9tYWUnLCAnPG91dGZpbGUubWFlPic=

> <r_lp_tautomer_probability>
1

> <r_epik_Ionization_Penalty>
0.00318402

> <r_epik_Ionization_Penalty_Charging>
0

> <r_epik_Ionization_Penalty_Neutral>
0.00318402

> <r_epik_State_Penalty>
0.00215642

> <r_epik_Charging_Adjusted_Penalty>
0.00215642

> <i_epik_Tot_Q>
0

> <i_epik_Tot_abs_Q>
0

> <r_epik_Metal_State_Penalty>
-0

> <b_epik_Metal_Only>
0

> <s_lp_Force_Field>
OPLS_2005

> <r_lp_Energy>
55.2871

> <b_lp_Chiralities_Consistent>
1

> <s_lp_Variant>
AV-unprocessed.smi:229-10

> <Gold.Version>
5.8.1

> <Gold.Id.Protein>
6NUR|6NUR_protein|mol2

> <Gold.PLP.Fitness>
46.1004

> <Gold.PLP.PLP>
-41.9479

> <Gold.PLP.part.hbond>
-2.0902

> <Gold.PLP.part.metal>
0.0000

> <Gold.PLP.part.buried>
-5.7886

> <Gold.PLP.part.nonpolar>
-32.9749

> <Gold.PLP.part.repulsive>
0.3960

> <Gold.PLP.ligand.clash>
0.0026

> <Gold.PLP.ligand.torsion>
0.7887

> <Gold.PLP.Chemscore.Hbond>
1.7800

> <Gold.PLP.Chemscore.CHOScore>
0.0000

> <Gold.PLP.Chemscore.Metal>
0.0000

> <Gold.Chemscore.Hbonds>
donor molecule, donor type, donor heavy atom, donor atom, acceptor molecule, acceptor atom, score
      P1  H  7997  8009       L1     9  0.62
      P1  H 10752 10763       L1     7  0.73

> <Gold.PLP.Chemscore.Internal.Correction>
0.3927

> <Gold.Rescore>
     Score         DG    S(hbond)    S(metal)    S(lipo)     H(rot)  DE(clash)    DE(int)     intcor
     15.15     -16.99       1.56        0.00     107.78       2.46       0.60       1.23       ----

> <Gold.Chemscore.Fitness>
15.1547

> <Gold.Chemscore.DG>
-16.9892

> <Gold.Chemscore.ZeroCoef>
-5.4800

> <Gold.Chemscore.Hbond>
1.5553

> <Gold.Chemscore.Metal>
0.0000

> <Gold.Chemscore.Lipo>
107.7763

> <Gold.Chemscore.Internal_Hbond>
0.0000

> <Gold.Chemscore.DEClash>
0.6001

> <Gold.Chemscore.DEInternal>
1.2345

> <Gold.Chemscore.Rot>
2.4591

> <Gold.Chemscore.Internal.Correction>
   9.000000E+99

> <Gold.Chemscore.Hbonds>
donor molecule, donor type, donor heavy atom, donor atom, acceptor molecule, acceptor atom, score
      P1  H  7997  8009       L1     9  0.60
      P1  H 10752 10763       L1     7  0.14

> <Gold.Chemscore.Hbond.Weighted>
-5.1947

> <Gold.Chemscore.Metal.Weighted>
-0.0000

> <Gold.Chemscore.Lipo.Weighted>
-12.6098

> <Gold.Chemscore.Internal_Hbond.Weighted>
0.0000

> <Gold.Chemscore.DEClash.Weighted>
0.6001

> <Gold.Chemscore.DEInternal.Weighted>
1.2345

> <Gold.Chemscore.Rot.Weighted>
6.2953

> <Gold.Chemscore.Internal.Correction.Weighted>
   9.000000E+99

> <Gold.Protein.RotatedTorsions>
[ 6907 6896 6895 6894 ] final   74.26 input  -60.11 | X-H torsion
[ 7974 7965 7964 7962 ] final -133.48 input  175.53 | X-H torsion
[ 8008 7997 7996 7995 ] final -148.82 input   59.86 | X-H torsion
[ 10167 10162 10161 10158 ] final  -83.34 input  -65.29 | X-H torsion
[ 10718 10713 10712 10709 ] final -140.48 input   66.30 | X-H torsion
[ 10763 10752 10751 10750 ] final   63.81 input  -60.55 | X-H torsion
[ 11005 11000 10999 10996 ] final -149.95 input  -57.11 | X-H torsion

> <Gold.Protein.ActiveResidues>
 VAL166  LYS551  ARG553  GLY616  TRP617  ASP618  TYR619  PRO620  LYS621  CYS622 
 ASP623  PHE694  ASN695  SER759  ASP760  ASP761  ALA762  ILE779  LEU786  VAL792 
 PHE793  MET794  SER795  GLU796  ALA797  LYS798  CYS799  TRP800  GLU811  SER814 

> <Gold.Protein.RotatedAtoms>
  152.4966  134.4298  159.9508 H   0  0  0  0  0  0  0  0  0  0  0  0  # atno 6907 bound_to 6896
  151.4276  133.3673  159.2772 H   0  0  0  0  0  0  0  0  0  0  0  0  # atno 6908 bound_to 6896
  150.9178  134.8618  159.7528 H   0  0  0  0  0  0  0  0  0  0  0  0  # atno 6909 bound_to 6896
  144.9189  140.6990  143.4978 H   0  0  0  0  0  0  0  0  0  0  0  0  # atno 7974 bound_to 7965
  155.5977  140.0659  157.2741 H   0  0  0  0  0  0  0  0  0  0  0  0  # atno 8008 bound_to 7997
  154.4287  140.1824  156.1188 H   0  0  0  0  0  0  0  0  0  0  0  0  # atno 8009 bound_to 7997
  156.0183  140.3319  155.7015 H   0  0  0  0  0  0  0  0  0  0  0  0  # atno 8010 bound_to 7997
  140.4236  143.2575  151.8856 H   0  0  0  0  0  0  0  0  0  0  0  0  # atno 10167 bound_to 10162
  156.3228  130.7544  151.1645 H   0  0  0  0  0  0  0  0  0  0  0  0  # atno 10718 bound_to 10713
  153.0032  135.5415  154.6411 H   0  0  0  0  0  0  0  0  0  0  0  0  # atno 10763 bound_to 10752
  154.5666  135.2838  155.0870 H   0  0  0  0  0  0  0  0  0  0  0  0  # atno 10764 bound_to 10752
  154.2052  135.6477  153.5151 H   0  0  0  0  0  0  0  0  0  0  0  0  # atno 10765 bound_to 10752
  140.7453  134.3468  157.5138 H   0  0  0  0  0  0  0  0  0  0  0  0  # atno 11005 bound_to 11000
  145.3329  139.1754  143.4527 LP  0  0  0  0  0  0  0  0  0  0  0  0  # atno 17320 bound_to 7965
  146.3195  140.3360  142.8644 LP  0  0  0  0  0  0  0  0  0  0  0  0  # atno 17321 bound_to 7965
  139.4783  144.5411  151.8527 LP  0  0  0  0  0  0  0  0  0  0  0  0  # atno 17342 bound_to 10162
  140.4506  144.1860  150.5897 LP  0  0  0  0  0  0  0  0  0  0  0  0  # atno 17343 bound_to 10162
  157.7415  131.0503  150.5090 LP  0  0  0  0  0  0  0  0  0  0  0  0  # atno 17370 bound_to 10713
  156.5245  130.4170  149.6233 LP  0  0  0  0  0  0  0  0  0  0  0  0  # atno 17371 bound_to 10713
  139.8798  134.9107  156.3020 LP  0  0  0  0  0  0  0  0  0  0  0  0  # atno 17394 bound_to 11000
  140.9800  133.7273  156.0658 LP  0  0  0  0  0  0  0  0  0  0  0  0  # atno 17395 bound_to 11000

$$$$
