AV-unprocessed.smi:2510|AV-procd|sdf|9871|dock9
  -GOLD-   2272013503D 1   1.00000     0.00000
 Structure written by MMmdl.
 48 49  0  0  0  0  0  0  0  0  1 V2000
  152.2437  145.2245  159.2118 C   0  0  0  0  0  0  0  0  0  0  0  0
  151.8830  144.4150  157.9582 C   0  0  0  0  0  0  0  0  0  0  0  0
  150.9637  143.1954  158.1904 C   0  0  0  0  0  0  0  0  0  0  0  0
  149.5503  143.7256  158.5854 C   0  0  0  0  0  0  0  0  0  0  0  0
  149.4442  144.4359  159.9464 C   0  0  0  0  0  0  0  0  0  0  0  0
  151.0136  142.1489  157.0392 C   0  0  2  0  0  0  0  0  0  0  0  0
  149.9018  142.2060  156.0964 N   0  0  0  0  0  0  0  0  0  0  0  0
  149.7185  141.3401  155.0889 C   0  0  0  0  0  0  0  0  0  0  0  0
  150.4377  140.3595  154.8984 O   0  0  0  0  0  0  0  0  0  0  0  0
  148.5605  141.6381  154.1367 C   0  0  0  0  0  0  0  0  0  0  0  0
  147.6447  140.4454  154.0625 C   0  0  0  0  0  0  0  0  0  0  0  0
  147.3250  139.6515  152.9205 C   0  0  0  0  0  0  0  0  0  0  0  0
  146.4732  138.6965  153.3991 C   0  0  0  0  0  0  0  0  0  0  0  0
  145.7865  137.5588  152.7235 C   0  0  0  0  0  0  0  0  0  0  0  0
  146.3176  138.9586  154.7406 N   0  0  0  0  0  0  0  0  0  0  0  0
  147.0259  140.0243  155.1570 N   0  0  0  0  0  0  0  0  0  0  0  0
  150.8631  141.0405  158.0864 C   0  0  1  0  0  0  0  0  0  0  0  0
  151.4624  139.6651  157.8221 C   0  0  0  0  0  0  0  0  0  0  0  0
  151.5418  142.0325  159.0523 C   0  0  1  0  0  0  0  0  0  0  0  0
  152.9642  141.9790  158.9839 O   0  0  0  0  0  0  0  0  0  0  0  0
  153.5992  142.4134  160.1746 C   0  0  0  0  0  0  0  0  0  0  0  0
  145.7401  138.4255  155.3755 H   0  0  0  0  0  0  0  0  0  0  0  0
  153.0282  145.9465  158.9857 H   0  0  0  0  0  0  0  0  0  0  0  0
  152.6086  144.5827  160.0140 H   0  0  0  0  0  0  0  0  0  0  0  0
  151.3909  145.7913  159.5827 H   0  0  0  0  0  0  0  0  0  0  0  0
  151.4454  145.0844  157.2169 H   0  0  0  0  0  0  0  0  0  0  0  0
  152.8181  144.0840  157.5054 H   0  0  0  0  0  0  0  0  0  0  0  0
  149.1684  144.3963  157.8148 H   0  0  0  0  0  0  0  0  0  0  0  0
  148.8232  142.9158  158.6201 H   0  0  0  0  0  0  0  0  0  0  0  0
  148.4671  144.9080  160.0509 H   0  0  0  0  0  0  0  0  0  0  0  0
  150.1969  145.2097  160.0801 H   0  0  0  0  0  0  0  0  0  0  0  0
  149.5427  143.7303  160.7710 H   0  0  0  0  0  0  0  0  0  0  0  0
  151.9905  142.1008  156.5510 H   0  0  0  0  0  0  0  0  0  0  0  0
  149.2620  142.9820  156.1846 H   0  0  0  0  0  0  0  0  0  0  0  0
  148.0267  142.5227  154.4872 H   0  0  0  0  0  0  0  0  0  0  0  0
  148.9479  141.8822  153.1467 H   0  0  0  0  0  0  0  0  0  0  0  0
  147.6776  139.7624  151.9059 H   0  0  0  0  0  0  0  0  0  0  0  0
  146.2302  137.3607  151.7475 H   0  0  0  0  0  0  0  0  0  0  0  0
  144.7290  137.7783  152.5757 H   0  0  0  0  0  0  0  0  0  0  0  0
  145.8641  136.6482  153.3184 H   0  0  0  0  0  0  0  0  0  0  0  0
  149.8144  140.9378  158.3733 H   0  0  0  0  0  0  0  0  0  0  0  0
  152.5065  139.7338  157.5158 H   0  0  0  0  0  0  0  0  0  0  0  0
  150.9230  139.1498  157.0274 H   0  0  0  0  0  0  0  0  0  0  0  0
  151.4170  139.0366  158.7113 H   0  0  0  0  0  0  0  0  0  0  0  0
  151.1684  141.9932  160.0751 H   0  0  0  0  0  0  0  0  0  0  0  0
  154.6791  142.3087  160.0719 H   0  0  0  0  0  0  0  0  0  0  0  0
  153.2848  141.8258  161.0370 H   0  0  0  0  0  0  0  0  0  0  0  0
  153.3813  143.4638  160.3708 H   0  0  0  0  0  0  0  0  0  0  0  0
  1  2  1  0  0  0  0
  1 23  1  0  0  0  0
  1 24  1  0  0  0  0
  1 25  1  0  0  0  0
  2  3  1  0  0  0  0
  2 26  1  0  0  0  0
  2 27  1  0  0  0  0
  3 19  1  0  0  0  0
  3  4  1  0  0  0  0
  3  6  1  0  0  0  0
  4  5  1  0  0  0  0
  4 28  1  0  0  0  0
  4 29  1  0  0  0  0
  5 30  1  0  0  0  0
  5 31  1  0  0  0  0
  5 32  1  0  0  0  0
  6  7  1  0  0  0  0
  6 17  1  0  0  0  0
  6 33  1  0  0  0  0
  7  8  1  0  0  0  0
  7 34  1  0  0  0  0
  8  9  2  0  0  0  0
  8 10  1  0  0  0  0
 10 11  1  0  0  0  0
 10 35  1  0  0  0  0
 10 36  1  0  0  0  0
 11 16  2  0  0  0  0
 11 12  1  0  0  0  0
 12 13  2  0  0  0  0
 12 37  1  0  0  0  0
 13 14  1  0  0  0  0
 13 15  1  0  0  0  0
 14 38  1  0  0  0  0
 14 39  1  0  0  0  0
 14 40  1  0  0  0  0
 15 22  1  0  0  0  0
 15 16  1  0  0  0  0
 17 18  1  0  0  0  0
 17 19  1  0  0  0  0
 17 41  1  0  0  0  0
 18 42  1  0  0  0  0
 18 43  1  0  0  0  0
 18 44  1  0  0  0  0
 19 20  1  0  0  0  0
 19 45  1  0  0  0  0
 20 21  1  0  0  0  0
 21 46  1  0  0  0  0
 21 47  1  0  0  0  0
 21 48  1  0  0  0  0
M  END
> <s_m_source_file>
AV-unprocessed.smi

> <i_m_source_file_index>
2510

> <i_lp_mmshare_version>
43012

> <i_f3d_flags>
0

> <s_epik_input>
W0NIM11PW0NAQEhdMVtDQEhdKFtDSDNdKVtDQEBIXShDMShbQ0gyXVtDSDNdKVtDSDJdW0NIM10pW05IXUMoPU8pW0NIMl1jMltjSF1jKFtDSDNdKVtuSF1uMg==

> <s_epik_cmdline>
J2VwaWtfcHl0aG9uJywgJy1waCcsICc3LjAnLCAnLXRuJywgJzgnLCAnLW1hJywgJzIwMCcsICctbWV0YWxfYmluZGluZycsICctaW1hZScsICc8aW5maWxlLm1hZT4nLCAnLW9tYWUnLCAnPG91dGZpbGUubWFlPic=

> <r_lp_tautomer_probability>
0.5

> <r_epik_Ionization_Penalty>
9.73156e-05

> <r_epik_Ionization_Penalty_Charging>
0

> <r_epik_Ionization_Penalty_Neutral>
9.73156e-05

> <r_epik_State_Penalty>
0.41068

> <r_epik_Charging_Adjusted_Penalty>
0.41068

> <i_epik_Tot_Q>
0

> <i_epik_Tot_abs_Q>
0

> <r_epik_Metal_State_Penalty>
0.410699

> <b_epik_Metal_Only>
0

> <s_lp_Force_Field>
OPLS_2005

> <r_lp_Energy>
28.8176

> <b_lp_Chiralities_Consistent>
1

> <s_lp_Variant>
AV-unprocessed.smi:2510-2

> <Gold.Version>
5.8.1

> <Gold.Id.Protein>
6NUR|6NUR_protein|mol2

> <Gold.PLP.Fitness>
44.1567

> <Gold.PLP.PLP>
-39.3819

> <Gold.PLP.part.hbond>
-2.0000

> <Gold.PLP.part.metal>
0.0000

> <Gold.PLP.part.buried>
-0.2296

> <Gold.PLP.part.nonpolar>
-36.6586

> <Gold.PLP.part.repulsive>
0.2286

> <Gold.PLP.ligand.clash>
0.0069

> <Gold.PLP.ligand.torsion>
0.8150

> <Gold.PLP.Chemscore.Hbond>
1.9120

> <Gold.PLP.Chemscore.CHOScore>
0.0000

> <Gold.PLP.Chemscore.Metal>
0.0000

> <Gold.Chemscore.Hbonds>
donor molecule, donor type, donor heavy atom, donor atom, acceptor molecule, acceptor atom, score
      L1  H     7    34       P1  8028  0.91
      P1  H  7989  7998       L1     9  1.00

> <Gold.PLP.Chemscore.Internal.Correction>
0.6757

> <Gold.Rescore>
     Score         DG    S(hbond)    S(metal)    S(lipo)     H(rot)  DE(clash)    DE(int)     intcor
     17.59     -19.70       1.58        0.00     116.00       1.81       0.34       1.77       ----

> <Gold.Chemscore.Fitness>
17.5873

> <Gold.Chemscore.DG>
-19.6952

> <Gold.Chemscore.ZeroCoef>
-5.4800

> <Gold.Chemscore.Hbond>
1.5801

> <Gold.Chemscore.Metal>
0.0000

> <Gold.Chemscore.Lipo>
115.9985

> <Gold.Chemscore.Internal_Hbond>
0.0000

> <Gold.Chemscore.DEClash>
0.3355

> <Gold.Chemscore.DEInternal>
1.7724

> <Gold.Chemscore.Rot>
1.8102

> <Gold.Chemscore.Internal.Correction>
   9.000000E+99

> <Gold.Chemscore.Hbonds>
donor molecule, donor type, donor heavy atom, donor atom, acceptor molecule, acceptor atom, score
      L1  H     7    34       P1  8028  0.90
      P1  H  7989  7998       L1     9  0.49

> <Gold.Chemscore.Hbond.Weighted>
-5.2775

> <Gold.Chemscore.Metal.Weighted>
-0.0000

> <Gold.Chemscore.Lipo.Weighted>
-13.5718

> <Gold.Chemscore.Internal_Hbond.Weighted>
0.0000

> <Gold.Chemscore.DEClash.Weighted>
0.3355

> <Gold.Chemscore.DEInternal.Weighted>
1.7724

> <Gold.Chemscore.Rot.Weighted>
4.6341

> <Gold.Chemscore.Internal.Correction.Weighted>
   9.000000E+99

> <Gold.Protein.RotatedTorsions>
[ 6907 6896 6895 6894 ] final -120.91 input  -60.11 | X-H torsion
[ 7974 7965 7964 7962 ] final -146.84 input  175.53 | X-H torsion
[ 8008 7997 7996 7995 ] final -177.28 input   59.86 | X-H torsion
[ 10167 10162 10161 10158 ] final -153.66 input  -65.29 | X-H torsion
[ 10718 10713 10712 10709 ] final -174.86 input   66.30 | X-H torsion
[ 10763 10752 10751 10750 ] final  164.46 input  -60.55 | X-H torsion
[ 11005 11000 10999 10996 ] final  -57.74 input  -57.11 | X-H torsion

> <Gold.Protein.ActiveResidues>
 VAL166  LYS551  ARG553  GLY616  TRP617  ASP618  TYR619  PRO620  LYS621  CYS622 
 ASP623  PHE694  ASN695  SER759  ASP760  ASP761  ALA762  ILE779  LEU786  VAL792 
 PHE793  MET794  SER795  GLU796  ALA797  LYS798  CYS799  TRP800  GLU811  SER814 

> <Gold.Protein.RotatedAtoms>
  150.8436  133.7897  159.3051 H   0  0  0  0  0  0  0  0  0  0  0  0  # atno 6907 bound_to 6896
  151.5591  135.1064  159.9978 H   0  0  0  0  0  0  0  0  0  0  0  0  # atno 6908 bound_to 6896
  152.4494  133.7557  159.6775 H   0  0  0  0  0  0  0  0  0  0  0  0  # atno 6909 bound_to 6896
  144.8132  140.5404  143.5628 H   0  0  0  0  0  0  0  0  0  0  0  0  # atno 7974 bound_to 7965
  156.0051  140.1228  157.0509 H   0  0  0  0  0  0  0  0  0  0  0  0  # atno 8008 bound_to 7997
  154.4256  140.1099  156.5820 H   0  0  0  0  0  0  0  0  0  0  0  0  # atno 8009 bound_to 7997
  155.6158  140.3472  155.4639 H   0  0  0  0  0  0  0  0  0  0  0  0  # atno 8010 bound_to 7997
  139.7078  143.9158  152.2456 H   0  0  0  0  0  0  0  0  0  0  0  0  # atno 10167 bound_to 10162
  156.7914  130.9519  151.3120 H   0  0  0  0  0  0  0  0  0  0  0  0  # atno 10718 bound_to 10713
  154.3093  135.2757  155.2573 H   0  0  0  0  0  0  0  0  0  0  0  0  # atno 10763 bound_to 10752
  154.4976  135.5817  153.6509 H   0  0  0  0  0  0  0  0  0  0  0  0  # atno 10764 bound_to 10752
  152.9890  135.6150  154.3269 H   0  0  0  0  0  0  0  0  0  0  0  0  # atno 10765 bound_to 10752
  141.1178  133.6611  156.4815 H   0  0  0  0  0  0  0  0  0  0  0  0  # atno 11005 bound_to 11000
  145.5274  139.1475  143.3518 LP  0  0  0  0  0  0  0  0  0  0  0  0  # atno 17320 bound_to 7965
  146.2433  140.5415  142.8924 LP  0  0  0  0  0  0  0  0  0  0  0  0  # atno 17321 bound_to 7965
  139.9018  144.6907  150.8657 LP  0  0  0  0  0  0  0  0  0  0  0  0  # atno 17342 bound_to 10162
  140.7726  143.3508  151.2018 LP  0  0  0  0  0  0  0  0  0  0  0  0  # atno 17343 bound_to 10162
  157.6599  130.8957  149.9807 LP  0  0  0  0  0  0  0  0  0  0  0  0  # atno 17370 bound_to 10713
  156.1157  130.3648  149.9973 LP  0  0  0  0  0  0  0  0  0  0  0  0  # atno 17371 bound_to 10713
  140.4597  134.6853  157.5079 LP  0  0  0  0  0  0  0  0  0  0  0  0  # atno 17394 bound_to 11000
  140.0112  134.6688  155.9378 LP  0  0  0  0  0  0  0  0  0  0  0  0  # atno 17395 bound_to 11000

$$$$
