AV-unprocessed.smi:1272|AV-procd|sdf|5335|dock1
  -GOLD-   22720 4463D 1   1.00000     0.00000
 Structure written by MMmdl.
 45 47  0  0  0  0  0  0  0  0  1 V2000
  155.2798  140.3318  160.7134 C   0  0  0  0  0  0  0  0  0  0  0  0
  153.9917  141.0931  161.0501 C   0  0  0  0  0  0  0  0  0  0  0  0
  153.0960  141.1536  159.8976 N   0  0  0  0  0  0  0  0  0  0  0  0
  152.5553  140.1011  159.2393 C   0  0  0  0  0  0  0  0  0  0  0  0
  152.7213  138.9128  159.5148 O   0  0  0  0  0  0  0  0  0  0  0  0
  151.8016  140.5826  158.2227 N   0  0  0  0  0  0  0  0  0  0  0  0
  151.0344  139.7934  157.2597 C   0  0  0  0  0  0  0  0  0  0  0  0
  151.6264  139.8915  155.8383 C   0  0  1  0  0  0  0  0  0  0  0  0
  152.9080  139.2939  155.8745 O   0  0  0  0  0  0  0  0  0  0  0  0
  150.7753  139.1212  154.8046 C   0  0  0  0  0  0  0  0  0  0  0  0
  149.4105  139.6178  154.6234 N   0  0  0  0  0  0  0  0  0  0  0  0
  149.3923  141.0749  154.5415 C   0  0  0  0  0  0  0  0  0  0  0  0
  147.9685  141.6242  154.3475 C   0  0  0  0  0  0  0  0  0  0  0  0
  147.1351  141.1695  155.4085 O   0  0  0  0  0  0  0  0  0  0  0  0
  147.0845  139.7494  155.4948 C   0  0  0  0  0  0  0  0  0  0  0  0
  148.5054  139.1910  155.6883 C   0  0  0  0  0  0  0  0  0  0  0  0
  151.8647  141.9838  158.2284 C   0  0  0  0  0  0  0  0  0  0  0  0
  151.2651  142.9417  157.3921 C   0  0  0  0  0  0  0  0  0  0  0  0
  151.5376  144.3022  157.6675 C   0  0  0  0  0  0  0  0  0  0  0  0
  152.3825  144.6706  158.7465 C   0  0  0  0  0  0  0  0  0  0  0  0
  152.9710  143.6864  159.5745 C   0  0  0  0  0  0  0  0  0  0  0  0
  152.6820  142.3424  159.2801 C   0  0  0  0  0  0  0  0  0  0  0  0
  155.9404  140.2859  161.5795 H   0  0  0  0  0  0  0  0  0  0  0  0
  155.8259  140.8174  159.9042 H   0  0  0  0  0  0  0  0  0  0  0  0
  155.0640  139.3081  160.4060 H   0  0  0  0  0  0  0  0  0  0  0  0
  153.4860  140.6113  161.8883 H   0  0  0  0  0  0  0  0  0  0  0  0
  154.2303  142.1036  161.3827 H   0  0  0  0  0  0  0  0  0  0  0  0
  150.9512  138.7547  157.5818 H   0  0  0  0  0  0  0  0  0  0  0  0
  150.0146  140.1811  157.2622 H   0  0  0  0  0  0  0  0  0  0  0  0
  151.7111  140.9379  155.5412 H   0  0  0  0  0  0  0  0  0  0  0  0
  153.0818  138.9111  155.0281 H   0  0  0  0  0  0  0  0  0  0  0  0
  151.2937  139.0640  153.8458 H   0  0  0  0  0  0  0  0  0  0  0  0
  150.6983  138.0890  155.1482 H   0  0  0  0  0  0  0  0  0  0  0  0
  149.8212  141.5017  155.4498 H   0  0  0  0  0  0  0  0  0  0  0  0
  150.0205  141.4076  153.7143 H   0  0  0  0  0  0  0  0  0  0  0  0
  147.9794  142.7142  154.3436 H   0  0  0  0  0  0  0  0  0  0  0  0
  147.5577  141.3038  153.3886 H   0  0  0  0  0  0  0  0  0  0  0  0
  146.4479  139.4655  156.3330 H   0  0  0  0  0  0  0  0  0  0  0  0
  146.6280  139.3392  154.5926 H   0  0  0  0  0  0  0  0  0  0  0  0
  148.4480  138.1034  155.7209 H   0  0  0  0  0  0  0  0  0  0  0  0
  148.8929  139.5151  156.6553 H   0  0  0  0  0  0  0  0  0  0  0  0
  150.6214  142.6571  156.5731 H   0  0  0  0  0  0  0  0  0  0  0  0
  151.0971  145.0698  157.0486 H   0  0  0  0  0  0  0  0  0  0  0  0
  152.5783  145.7153  158.9385 H   0  0  0  0  0  0  0  0  0  0  0  0
  153.6146  143.9605  160.3971 H   0  0  0  0  0  0  0  0  0  0  0  0
  1  2  1  0  0  0  0
  1 23  1  0  0  0  0
  1 24  1  0  0  0  0
  1 25  1  0  0  0  0
  2  3  1  0  0  0  0
  2 26  1  0  0  0  0
  2 27  1  0  0  0  0
  3 22  1  0  0  0  0
  3  4  1  0  0  0  0
  4  5  2  0  0  0  0
  4  6  1  0  0  0  0
  6  7  1  0  0  0  0
  6 17  1  0  0  0  0
  7  8  1  0  0  0  0
  7 28  1  0  0  0  0
  7 29  1  0  0  0  0
  8  9  1  0  0  0  0
  8 10  1  0  0  0  0
  8 30  1  0  0  0  0
  9 31  1  0  0  0  0
 10 11  1  0  0  0  0
 10 32  1  0  0  0  0
 10 33  1  0  0  0  0
 11 16  1  0  0  0  0
 11 12  1  0  0  0  0
 12 13  1  0  0  0  0
 12 34  1  0  0  0  0
 12 35  1  0  0  0  0
 13 14  1  0  0  0  0
 13 36  1  0  0  0  0
 13 37  1  0  0  0  0
 14 15  1  0  0  0  0
 15 16  1  0  0  0  0
 15 38  1  0  0  0  0
 15 39  1  0  0  0  0
 16 40  1  0  0  0  0
 16 41  1  0  0  0  0
 17 22  2  0  0  0  0
 17 18  1  0  0  0  0
 18 19  2  0  0  0  0
 18 42  1  0  0  0  0
 19 20  1  0  0  0  0
 19 43  1  0  0  0  0
 20 21  2  0  0  0  0
 20 44  1  0  0  0  0
 21 22  1  0  0  0  0
 21 45  1  0  0  0  0
M  END
> <s_m_source_file>
AV-unprocessed.smi

> <i_m_source_file_index>
1272

> <i_lp_mmshare_version>
43012

> <i_f3d_flags>
0

> <s_epik_input>
W2NIXTFbY0hdW2NIXVtjSF1jKGMxMiluKFtDSDJdW0NIM10pYyg9TyluMltDSDJdW0NASF0oW09IXSlbQ0gyXU4zW0NIMl1bQ0gyXU9bQ0gyXVtDSDJdMw==

> <s_epik_cmdline>
J2VwaWtfcHl0aG9uJywgJy1waCcsICc3LjAnLCAnLXRuJywgJzgnLCAnLW1hJywgJzIwMCcsICctbWV0YWxfYmluZGluZycsICctaW1hZScsICc8aW5maWxlLm1hZT4nLCAnLW9tYWUnLCAnPG91dGZpbGUubWFlPic=

> <r_epik_Ionization_Penalty>
0.214359

> <r_epik_Ionization_Penalty_Charging>
2.31431e-09

> <r_epik_Ionization_Penalty_Neutral>
0.214359

> <r_epik_State_Penalty>
0.204533

> <r_epik_Charging_Adjusted_Penalty>
0.204533

> <i_epik_Tot_Q>
0

> <i_epik_Tot_abs_Q>
0

> <r_epik_Metal_State_Penalty>
0.204533

> <b_epik_Metal_Only>
0

> <s_lp_Force_Field>
OPLS_2005

> <r_lp_Energy>
62.2606

> <b_lp_Chiralities_Consistent>
1

> <s_lp_Variant>
AV-unprocessed.smi:1272-2

> <Gold.Version>
5.8.1

> <Gold.Id.Protein>
6NUR|6NUR_protein|mol2

> <Gold.PLP.Fitness>
51.9448

> <Gold.PLP.PLP>
-49.2130

> <Gold.PLP.part.hbond>
-1.0000

> <Gold.PLP.part.metal>
0.0000

> <Gold.PLP.part.buried>
-4.7345

> <Gold.PLP.part.nonpolar>
-43.7996

> <Gold.PLP.part.repulsive>
0.1971

> <Gold.PLP.ligand.clash>
0.0000

> <Gold.PLP.ligand.torsion>
0.2165

> <Gold.PLP.Chemscore.Hbond>
1.0000

> <Gold.PLP.Chemscore.CHOScore>
0.0000

> <Gold.PLP.Chemscore.Metal>
0.0000

> <Gold.Chemscore.Hbonds>
donor molecule, donor type, donor heavy atom, donor atom, acceptor molecule, acceptor atom, score
      P1  H  7997  8008       L1     9  1.00

> <Gold.PLP.Chemscore.Internal.Correction>
0.1648

> <Gold.Rescore>
     Score         DG    S(hbond)    S(metal)    S(lipo)     H(rot)  DE(clash)    DE(int)     intcor
     17.90     -18.35       0.99        0.00     128.56       2.14       0.10       0.35       ----

> <Gold.Chemscore.Fitness>
17.8977

> <Gold.Chemscore.DG>
-18.3525

> <Gold.Chemscore.ZeroCoef>
-5.4800

> <Gold.Chemscore.Hbond>
0.9899

> <Gold.Chemscore.Metal>
0.0000

> <Gold.Chemscore.Lipo>
128.5567

> <Gold.Chemscore.Internal_Hbond>
0.0000

> <Gold.Chemscore.DEClash>
0.1031

> <Gold.Chemscore.DEInternal>
0.3517

> <Gold.Chemscore.Rot>
2.1386

> <Gold.Chemscore.Internal.Correction>
   9.000000E+99

> <Gold.Chemscore.Hbonds>
donor molecule, donor type, donor heavy atom, donor atom, acceptor molecule, acceptor atom, score
      P1  H  7997  8008       L1     9  0.30

> <Gold.Chemscore.Hbond.Weighted>
-3.3062

> <Gold.Chemscore.Metal.Weighted>
-0.0000

> <Gold.Chemscore.Lipo.Weighted>
-15.0411

> <Gold.Chemscore.Internal_Hbond.Weighted>
0.0000

> <Gold.Chemscore.DEClash.Weighted>
0.1031

> <Gold.Chemscore.DEInternal.Weighted>
0.3517

> <Gold.Chemscore.Rot.Weighted>
5.4749

> <Gold.Chemscore.Internal.Correction.Weighted>
   9.000000E+99

> <Gold.Protein.RotatedTorsions>
[ 6907 6896 6895 6894 ] final  104.32 input  -60.11 | X-H torsion
[ 7974 7965 7964 7962 ] final -137.14 input  175.53 | X-H torsion
[ 8008 7997 7996 7995 ] final  -32.00 input   59.86 | X-H torsion
[ 10167 10162 10161 10158 ] final -117.35 input  -65.29 | X-H torsion
[ 10718 10713 10712 10709 ] final  -51.17 input   66.30 | X-H torsion
[ 10763 10752 10751 10750 ] final   20.00 input  -60.55 | X-H torsion
[ 11005 11000 10999 10996 ] final  117.88 input  -57.11 | X-H torsion

> <Gold.Protein.ActiveResidues>
 VAL166  LYS551  ARG553  GLY616  TRP617  ASP618  TYR619  PRO620  LYS621  CYS622 
 ASP623  PHE694  ASN695  SER759  ASP760  ASP761  ALA762  ILE779  LEU786  VAL792 
 PHE793  MET794  SER795  GLU796  ALA797  LYS798  CYS799  TRP800  GLU811  SER814 

> <Gold.Protein.RotatedAtoms>
  152.5268  133.9694  159.7754 H   0  0  0  0  0  0  0  0  0  0  0  0  # atno 6907 bound_to 6896
  150.9969  133.6086  159.2707 H   0  0  0  0  0  0  0  0  0  0  0  0  # atno 6908 bound_to 6896
  151.3210  135.0824  159.9359 H   0  0  0  0  0  0  0  0  0  0  0  0  # atno 6909 bound_to 6896
  144.8867  140.6585  143.5171 H   0  0  0  0  0  0  0  0  0  0  0  0  # atno 7974 bound_to 7965
  154.4194  140.1749  156.1657 H   0  0  0  0  0  0  0  0  0  0  0  0  # atno 8008 bound_to 7997
  155.9802  140.3378  155.6632 H   0  0  0  0  0  0  0  0  0  0  0  0  # atno 8009 bound_to 7997
  155.6510  140.0690  157.2577 H   0  0  0  0  0  0  0  0  0  0  0  0  # atno 8010 bound_to 7997
  140.0693  143.4892  152.1988 H   0  0  0  0  0  0  0  0  0  0  0  0  # atno 10167 bound_to 10162
  156.1734  130.4149  149.9613 H   0  0  0  0  0  0  0  0  0  0  0  0  # atno 10718 bound_to 10713
  153.1114  135.6697  153.9493 H   0  0  0  0  0  0  0  0  0  0  0  0  # atno 10763 bound_to 10752
  153.9036  135.3033  155.3450 H   0  0  0  0  0  0  0  0  0  0  0  0  # atno 10764 bound_to 10752
  154.7533  135.5024  153.9407 H   0  0  0  0  0  0  0  0  0  0  0  0  # atno 10765 bound_to 10752
  139.9090  134.9615  156.7418 H   0  0  0  0  0  0  0  0  0  0  0  0  # atno 11005 bound_to 11000
  145.3856  139.1627  143.4257 LP  0  0  0  0  0  0  0  0  0  0  0  0  # atno 17320 bound_to 7965
  146.3029  140.3940  142.8697 LP  0  0  0  0  0  0  0  0  0  0  0  0  # atno 17321 bound_to 7965
  139.5845  144.7525  151.3554 LP  0  0  0  0  0  0  0  0  0  0  0  0  # atno 17342 bound_to 10162
  140.7133  143.7332  150.7608 LP  0  0  0  0  0  0  0  0  0  0  0  0  # atno 17343 bound_to 10162
  156.7406  130.9078  151.3632 LP  0  0  0  0  0  0  0  0  0  0  0  0  # atno 17370 bound_to 10713
  157.6819  130.9148  150.0288 LP  0  0  0  0  0  0  0  0  0  0  0  0  # atno 17371 bound_to 10713
  140.6843  133.9447  155.7928 LP  0  0  0  0  0  0  0  0  0  0  0  0  # atno 17394 bound_to 11000
  141.0488  134.0515  157.3810 LP  0  0  0  0  0  0  0  0  0  0  0  0  # atno 17395 bound_to 11000

$$$$
