AV-unprocessed.smi:1102|AV-procd|sdf|4770|dock8
  -GOLD-   22720 3313D 1   1.00000     0.00000
 Structure written by MMmdl.
 39 40  0  0  0  0  0  0  0  0  1 V2000
  154.3910  141.0370  161.3888 C   0  0  0  0  0  0  0  0  0  0  0  0
  153.4148  142.1183  161.3354 N   0  0  0  0  0  0  0  0  0  0  0  0
  153.1767  142.9409  162.5170 C   0  0  0  0  0  0  0  0  0  0  0  0
  152.6387  142.3185  160.1708 C   0  0  0  0  0  0  0  0  0  0  0  0
  152.3839  143.6180  159.6662 C   0  0  0  0  0  0  0  0  0  0  0  0
  151.6065  143.7670  158.5016 C   0  0  0  0  0  0  0  0  0  0  0  0
  151.1048  142.6122  157.8588 C   0  0  0  0  0  0  0  0  0  0  0  0
  150.2950  142.6304  156.6912 N   0  0  0  0  0  0  0  0  0  0  0  0
  150.0177  141.6212  155.8480 C   0  0  0  0  0  0  0  0  0  0  0  0
  150.4146  140.4621  155.9676 O   0  0  0  0  0  0  0  0  0  0  0  0
  149.2249  142.0304  154.8479 N   0  0  0  0  0  0  0  0  0  0  0  0
  148.7391  141.1836  153.7644 C   0  0  0  0  0  0  0  0  0  0  0  0
  147.8533  140.0425  154.2914 C   0  0  1  0  0  0  0  0  0  0  0  0
  147.0823  139.3025  153.2000 C   0  0  0  0  0  0  0  0  0  0  0  0
  146.8583  137.9197  153.7938 C   0  0  0  0  0  0  0  0  0  0  0  0
  147.8059  137.8690  154.9959 C   0  0  0  0  0  0  0  0  0  0  0  0
  148.6433  139.0075  154.8551 O   0  0  0  0  0  0  0  0  0  0  0  0
  151.3966  141.3642  158.4421 C   0  0  0  0  0  0  0  0  0  0  0  0
  152.1417  141.2168  159.5570 N   0  0  0  0  0  0  0  0  0  0  0  0
  155.1738  141.1905  160.6456 H   0  0  0  0  0  0  0  0  0  0  0  0
  153.9111  140.0764  161.1992 H   0  0  0  0  0  0  0  0  0  0  0  0
  154.8687  140.9814  162.3672 H   0  0  0  0  0  0  0  0  0  0  0  0
  153.3016  143.9981  162.2808 H   0  0  0  0  0  0  0  0  0  0  0  0
  153.8723  142.6962  163.3195 H   0  0  0  0  0  0  0  0  0  0  0  0
  152.1646  142.7868  162.8923 H   0  0  0  0  0  0  0  0  0  0  0  0
  152.7636  144.5047  160.1507 H   0  0  0  0  0  0  0  0  0  0  0  0
  151.4015  144.7613  158.1375 H   0  0  0  0  0  0  0  0  0  0  0  0
  149.8289  143.5058  156.5026 H   0  0  0  0  0  0  0  0  0  0  0  0
  148.9451  143.0001  154.8265 H   0  0  0  0  0  0  0  0  0  0  0  0
  148.1867  141.7882  153.0432 H   0  0  0  0  0  0  0  0  0  0  0  0
  149.5998  140.7771  153.2329 H   0  0  0  0  0  0  0  0  0  0  0  0
  147.1551  140.4101  155.0461 H   0  0  0  0  0  0  0  0  0  0  0  0
  146.1531  139.8052  152.9303 H   0  0  0  0  0  0  0  0  0  0  0  0
  147.6909  139.2163  152.2988 H   0  0  0  0  0  0  0  0  0  0  0  0
  145.8244  137.7811  154.1117 H   0  0  0  0  0  0  0  0  0  0  0  0
  147.0921  137.1436  153.0645 H   0  0  0  0  0  0  0  0  0  0  0  0
  147.2463  137.9501  155.9289 H   0  0  0  0  0  0  0  0  0  0  0  0
  148.3926  136.9507  155.0299 H   0  0  0  0  0  0  0  0  0  0  0  0
  151.0254  140.4513  157.9994 H   0  0  0  0  0  0  0  0  0  0  0  0
  1  2  1  0  0  0  0
  1 20  1  0  0  0  0
  1 21  1  0  0  0  0
  1 22  1  0  0  0  0
  2  3  1  0  0  0  0
  2  4  1  0  0  0  0
  3 23  1  0  0  0  0
  3 24  1  0  0  0  0
  3 25  1  0  0  0  0
  4 19  1  0  0  0  0
  4  5  2  0  0  0  0
  5  6  1  0  0  0  0
  5 26  1  0  0  0  0
  6  7  2  0  0  0  0
  6 27  1  0  0  0  0
  7  8  1  0  0  0  0
  7 18  1  0  0  0  0
  8  9  1  0  0  0  0
  8 28  1  0  0  0  0
  9 10  2  0  0  0  0
  9 11  1  0  0  0  0
 11 12  1  0  0  0  0
 11 29  1  0  0  0  0
 12 13  1  0  0  0  0
 12 30  1  0  0  0  0
 12 31  1  0  0  0  0
 13 17  1  0  0  0  0
 13 14  1  0  0  0  0
 13 32  1  0  0  0  0
 14 15  1  0  0  0  0
 14 33  1  0  0  0  0
 14 34  1  0  0  0  0
 15 16  1  0  0  0  0
 15 35  1  0  0  0  0
 15 36  1  0  0  0  0
 16 17  1  0  0  0  0
 16 37  1  0  0  0  0
 16 38  1  0  0  0  0
 18 19  2  0  0  0  0
 18 39  1  0  0  0  0
M  END
> <s_m_source_file>
AV-unprocessed.smi

> <i_m_source_file_index>
1102

> <i_lp_mmshare_version>
43012

> <i_f3d_flags>
0

> <s_epik_input>
W0NIM11OKFtDSDNdKWMxW2NIXVtjSF1jKFtjSF1uMSlbTkhdQyg9TylbTkhdW0NIMl1bQ0BASF0yW0NIMl1bQ0gyXVtDSDJdTzI=

> <s_epik_cmdline>
J2VwaWtfcHl0aG9uJywgJy1waCcsICc3LjAnLCAnLXRuJywgJzgnLCAnLW1hJywgJzIwMCcsICctbWV0YWxfYmluZGluZycsICctaW1hZScsICc8aW5maWxlLm1hZT4nLCAnLW9tYWUnLCAnPG91dGZpbGUubWFlPic=

> <r_lp_tautomer_probability>
1

> <r_epik_Ionization_Penalty>
0.605145

> <r_epik_Ionization_Penalty_Charging>
0

> <r_epik_Ionization_Penalty_Neutral>
0.605145

> <r_epik_State_Penalty>
0.618734

> <r_epik_Charging_Adjusted_Penalty>
0.618734

> <i_epik_Tot_Q>
0

> <i_epik_Tot_abs_Q>
0

> <r_epik_Metal_State_Penalty>
0.302184

> <b_epik_Metal_Only>
0

> <s_lp_Force_Field>
OPLS_2005

> <r_lp_Energy>
20.895

> <b_lp_Chiralities_Consistent>
1

> <s_lp_Variant>
AV-unprocessed.smi:1102-4

> <Gold.Version>
5.8.1

> <Gold.Id.Protein>
6NUR|6NUR_protein|mol2

> <Gold.PLP.Fitness>
43.0782

> <Gold.PLP.PLP>
-38.8595

> <Gold.PLP.part.hbond>
-2.0000

> <Gold.PLP.part.metal>
0.0000

> <Gold.PLP.part.buried>
-3.2263

> <Gold.PLP.part.nonpolar>
-34.1871

> <Gold.PLP.part.repulsive>
0.3969

> <Gold.PLP.ligand.clash>
0.0000

> <Gold.PLP.ligand.torsion>
0.8970

> <Gold.PLP.Chemscore.Hbond>
2.0000

> <Gold.PLP.Chemscore.CHOScore>
0.0000

> <Gold.PLP.Chemscore.Metal>
0.0000

> <Gold.Chemscore.Hbonds>
donor molecule, donor type, donor heavy atom, donor atom, acceptor molecule, acceptor atom, score
      L1  H     8    28       P1  8028  1.00
      L1  H    11    29       P1  8028  1.00

> <Gold.PLP.Chemscore.Internal.Correction>
0.0126

> <Gold.Rescore>
     Score         DG    S(hbond)    S(metal)    S(lipo)     H(rot)  DE(clash)    DE(int)     intcor
     14.73     -18.70       1.96        0.00      83.59       1.21       0.16       3.81       ----

> <Gold.Chemscore.Fitness>
14.7298

> <Gold.Chemscore.DG>
-18.7008

> <Gold.Chemscore.ZeroCoef>
-5.4800

> <Gold.Chemscore.Hbond>
1.9613

> <Gold.Chemscore.Metal>
0.0000

> <Gold.Chemscore.Lipo>
83.5851

> <Gold.Chemscore.Internal_Hbond>
0.0000

> <Gold.Chemscore.DEClash>
0.1626

> <Gold.Chemscore.DEInternal>
3.8084

> <Gold.Chemscore.Rot>
1.2146

> <Gold.Chemscore.Internal.Correction>
   9.000000E+99

> <Gold.Chemscore.Hbonds>
donor molecule, donor type, donor heavy atom, donor atom, acceptor molecule, acceptor atom, score
      L1  H     8    28       P1  8028  1.00
      L1  H    11    29       P1  8028  0.95

> <Gold.Chemscore.Hbond.Weighted>
-6.5507

> <Gold.Chemscore.Metal.Weighted>
-0.0000

> <Gold.Chemscore.Lipo.Weighted>
-9.7795

> <Gold.Chemscore.Internal_Hbond.Weighted>
0.0000

> <Gold.Chemscore.DEClash.Weighted>
0.1626

> <Gold.Chemscore.DEInternal.Weighted>
3.8084

> <Gold.Chemscore.Rot.Weighted>
3.1093

> <Gold.Chemscore.Internal.Correction.Weighted>
   9.000000E+99

> <Gold.Protein.RotatedTorsions>
[ 6907 6896 6895 6894 ] final -116.05 input  -60.11 | X-H torsion
[ 7974 7965 7964 7962 ] final -133.27 input  175.53 | X-H torsion
[ 8008 7997 7996 7995 ] final -116.01 input   59.86 | X-H torsion
[ 10167 10162 10161 10158 ] final  114.45 input  -65.29 | X-H torsion
[ 10718 10713 10712 10709 ] final  -91.46 input   66.30 | X-H torsion
[ 10763 10752 10751 10750 ] final  175.85 input  -60.55 | X-H torsion
[ 11005 11000 10999 10996 ] final   70.80 input  -57.11 | X-H torsion

> <Gold.Protein.ActiveResidues>
 VAL166  LYS551  ARG553  GLY616  TRP617  ASP618  TYR619  PRO620  LYS621  CYS622 
 ASP623  PHE694  ASN695  SER759  ASP760  ASP761  ALA762  ILE779  LEU786  VAL792 
 PHE793  MET794  SER795  GLU796  ALA797  LYS798  CYS799  TRP800  GLU811  SER814 

> <Gold.Protein.RotatedAtoms>
  150.8025  133.8571  159.3221 H   0  0  0  0  0  0  0  0  0  0  0  0  # atno 6907 bound_to 6896
  151.6379  135.1014  160.0145 H   0  0  0  0  0  0  0  0  0  0  0  0  # atno 6908 bound_to 6896
  152.4114  133.6929  159.6436 H   0  0  0  0  0  0  0  0  0  0  0  0  # atno 6909 bound_to 6896
  144.9209  140.7012  143.4966 H   0  0  0  0  0  0  0  0  0  0  0  0  # atno 7974 bound_to 7965
  155.0610  140.0393  157.2576 H   0  0  0  0  0  0  0  0  0  0  0  0  # atno 8008 bound_to 7997
  154.7060  140.2683  155.6650 H   0  0  0  0  0  0  0  0  0  0  0  0  # atno 8009 bound_to 7997
  156.2775  140.2731  156.1686 H   0  0  0  0  0  0  0  0  0  0  0  0  # atno 8010 bound_to 7997
  139.6388  144.7122  151.2280 H   0  0  0  0  0  0  0  0  0  0  0  0  # atno 10167 bound_to 10162
  155.9994  130.4949  150.5478 H   0  0  0  0  0  0  0  0  0  0  0  0  # atno 10718 bound_to 10713
  154.4732  135.2772  155.1627 H   0  0  0  0  0  0  0  0  0  0  0  0  # atno 10763 bound_to 10752
  154.3367  135.6178  153.5580 H   0  0  0  0  0  0  0  0  0  0  0  0  # atno 10764 bound_to 10752
  152.9866  135.5778  154.5117 H   0  0  0  0  0  0  0  0  0  0  0  0  # atno 10765 bound_to 10752
  139.9578  134.7114  156.0714 H   0  0  0  0  0  0  0  0  0  0  0  0  # atno 11005 bound_to 11000
  145.3298  139.1763  143.4543 LP  0  0  0  0  0  0  0  0  0  0  0  0  # atno 17320 bound_to 7965
  146.3204  140.3326  142.8641 LP  0  0  0  0  0  0  0  0  0  0  0  0  # atno 17321 bound_to 7965
  140.7480  143.6349  150.8389 LP  0  0  0  0  0  0  0  0  0  0  0  0  # atno 17342 bound_to 10162
  139.9983  143.5772  152.2885 LP  0  0  0  0  0  0  0  0  0  0  0  0  # atno 17343 bound_to 10162
  157.3405  131.0716  151.1791 LP  0  0  0  0  0  0  0  0  0  0  0  0  # atno 17370 bound_to 10713
  157.2641  130.6673  149.5988 LP  0  0  0  0  0  0  0  0  0  0  0  0  # atno 17371 bound_to 10713
  141.1252  133.6601  156.3317 LP  0  0  0  0  0  0  0  0  0  0  0  0  # atno 17394 bound_to 11000
  140.5569  134.5972  157.5423 LP  0  0  0  0  0  0  0  0  0  0  0  0  # atno 17395 bound_to 11000

$$$$
