AV-unprocessed.smi:399|AV-procd|sdf|2491|dock3
  -GOLD-   2262022433D 1   1.00000     0.00000
 Structure written by MMmdl.
 47 48  0  0  0  0  0  0  0  0  4 V2000
  148.7634  133.3167  156.0180 C   0  0  0  0  0  0  0  0  0  0  0  0
  148.8932  134.5448  155.0819 C   0  0  0  0  0  0  0  0  0  0  0  0
  148.3201  135.7500  155.8684 C   0  0  0  0  0  0  0  0  0  0  0  0
  150.3912  134.8001  154.7489 C   0  0  0  0  0  0  0  0  0  0  0  0
  150.6454  136.1680  154.3071 N   0  0  0  0  0  0  0  0  0  0  0  0
  151.5551  136.9851  154.8561 C   0  0  0  0  0  0  0  0  0  0  0  0
  152.2858  136.6457  155.7879 O   0  0  0  0  0  0  0  0  0  0  0  0
  151.6536  138.3899  154.2435 C   0  0  0  0  0  0  0  0  0  0  0  0
  151.4799  139.4723  155.2274 N   0  0  0  0  0  0  0  0  0  0  0  0
  152.3208  139.4512  156.3579 C   0  0  0  0  0  0  0  0  0  0  0  0
  152.2443  140.3869  157.3245 C   0  0  0  0  0  0  0  0  0  0  0  0
  153.1148  140.3494  158.4791 N   0  3  0  0  0  0  0  0  0  0  0  0
  152.8726  141.0946  159.4229 O   0  0  0  0  0  0  0  0  0  0  0  0
  154.0687  139.5770  158.4811 O   0  5  0  0  0  0  0  0  0  0  0  0
  151.2562  141.4368  157.1699 C   0  0  0  0  0  0  0  0  0  0  0  0
  150.4483  141.4620  156.0918 C   0  0  0  0  0  0  0  0  0  0  0  0
  150.5326  140.4421  155.0415 C   0  0  0  0  0  0  0  0  0  0  0  0
  149.7959  140.4576  154.0553 O   0  0  0  0  0  0  0  0  0  0  0  0
  148.0810  134.3243  153.8305 N   0  3  0  0  0  0  0  0  0  0  0  0
  148.3744  133.0703  153.0794 C   0  0  0  0  0  0  0  0  0  0  0  0
  147.6205  133.0508  151.7394 C   0  0  0  0  0  0  0  0  0  0  0  0
  146.2258  133.1790  151.9746 O   0  0  0  0  0  0  0  0  0  0  0  0
  145.9129  134.4117  152.6067 C   0  0  0  0  0  0  0  0  0  0  0  0
  146.6059  134.4831  153.9778 C   0  0  0  0  0  0  0  0  0  0  0  0
  149.1634  133.5205  157.0120 H   0  0  0  0  0  0  0  0  0  0  0  0
  149.3119  132.4518  155.6448 H   0  0  0  0  0  0  0  0  0  0  0  0
  147.7206  133.0246  156.1486 H   0  0  0  0  0  0  0  0  0  0  0  0
  148.7511  135.8234  156.8676 H   0  0  0  0  0  0  0  0  0  0  0  0
  147.2397  135.6660  155.9923 H   0  0  0  0  0  0  0  0  0  0  0  0
  148.5299  136.7016  155.3806 H   0  0  0  0  0  0  0  0  0  0  0  0
  151.0205  134.6134  155.6192 H   0  0  0  0  0  0  0  0  0  0  0  0
  150.7279  134.1210  153.9649 H   0  0  0  0  0  0  0  0  0  0  0  0
  150.0860  136.5185  153.5428 H   0  0  0  0  0  0  0  0  0  0  0  0
  152.6205  138.4767  153.7458 H   0  0  0  0  0  0  0  0  0  0  0  0
  150.9137  138.4859  153.4465 H   0  0  0  0  0  0  0  0  0  0  0  0
  153.0182  138.6262  156.3833 H   0  0  0  0  0  0  0  0  0  0  0  0
  151.1568  142.2104  157.9170 H   0  0  0  0  0  0  0  0  0  0  0  0
  149.7188  142.2530  155.9975 H   0  0  0  0  0  0  0  0  0  0  0  0
  149.4364  132.9707  152.8646 H   0  0  0  0  0  0  0  0  0  0  0  0
  148.0804  132.1997  153.6657 H   0  0  0  0  0  0  0  0  0  0  0  0
  147.9688  133.8495  151.0825 H   0  0  0  0  0  0  0  0  0  0  0  0
  147.8040  132.1100  151.2203 H   0  0  0  0  0  0  0  0  0  0  0  0
  146.2137  135.2479  151.9733 H   0  0  0  0  0  0  0  0  0  0  0  0
  144.8319  134.4796  152.7296 H   0  0  0  0  0  0  0  0  0  0  0  0
  146.2042  133.7035  154.6253 H   0  0  0  0  0  0  0  0  0  0  0  0
  146.3483  135.4401  154.4271 H   0  0  0  0  0  0  0  0  0  0  0  0
  148.3625  135.0717  153.2121 H   0  0  0  0  0  0  0  0  0  0  0  0
  1  2  1  0  0  0  0
  1 25  1  0  0  0  0
  1 26  1  0  0  0  0
  1 27  1  0  0  0  0
  2  3  1  0  0  0  0
  2  4  1  0  0  0  0
  2 19  1  0  0  0  0
  3 28  1  0  0  0  0
  3 29  1  0  0  0  0
  3 30  1  0  0  0  0
  4  5  1  0  0  0  0
  4 31  1  0  0  0  0
  4 32  1  0  0  0  0
  5  6  1  0  0  0  0
  5 33  1  0  0  0  0
  6  7  2  0  0  0  0
  6  8  1  0  0  0  0
  8  9  1  0  0  0  0
  8 34  1  0  0  0  0
  8 35  1  0  0  0  0
  9 17  1  0  0  0  0
  9 10  1  0  0  0  0
 10 11  2  0  0  0  0
 10 36  1  0  0  0  0
 11 12  1  0  0  0  0
 11 15  1  0  0  0  0
 12 13  2  0  0  0  0
 12 14  1  0  0  0  0
 15 16  2  0  0  0  0
 15 37  1  0  0  0  0
 16 17  1  0  0  0  0
 16 38  1  0  0  0  0
 17 18  2  0  0  0  0
 19 24  1  0  0  0  0
 19 20  1  0  0  0  0
 19 47  1  0  0  0  0
 20 21  1  0  0  0  0
 20 39  1  0  0  0  0
 20 40  1  0  0  0  0
 21 22  1  0  0  0  0
 21 41  1  0  0  0  0
 21 42  1  0  0  0  0
 22 23  1  0  0  0  0
 23 24  1  0  0  0  0
 23 43  1  0  0  0  0
 23 44  1  0  0  0  0
 24 45  1  0  0  0  0
 24 46  1  0  0  0  0
M  CHG  1  12   1
M  CHG  1  14  -1
M  CHG  1  19   1
M  END
> <s_m_source_file>
AV-unprocessed.smi

> <i_m_source_file_index>
399

> <i_lp_mmshare_version>
43012

> <i_f3d_flags>
0

> <s_epik_input>
W0NIMl0xW0NIMl1PW0NIMl1bQ0gyXU4xQyhbQ0gzXSkoW0NIM10pW0NIMl1bTkhdQyg9TylbQ0gyXW4yW2NIXWMoW04rXSg9TylbTy1dKVtjSF1bY0hdYzI9Tw==

> <s_epik_cmdline>
J2VwaWtfcHl0aG9uJywgJy1waCcsICc3LjAnLCAnLXRuJywgJzgnLCAnLW1hJywgJzIwMCcsICctbWV0YWxfYmluZGluZycsICctaW1hZScsICc8aW5maWxlLm1hZT4nLCAnLW9tYWUnLCAnPG91dGZpbGUubWFlPic=

> <r_lp_tautomer_probability>
1

> <r_epik_Ionization_Penalty>
0.656654

> <r_epik_Ionization_Penalty_Charging>
0.656653

> <r_epik_Ionization_Penalty_Neutral>
9.12373e-08

> <r_epik_State_Penalty>
0.675641

> <r_epik_Charging_Adjusted_Penalty>
1.33229

> <i_epik_Tot_Q>
1

> <i_epik_Tot_abs_Q>
3

> <r_epik_Metal_State_Penalty>
0.675694

> <b_epik_Metal_Only>
0

> <s_lp_Force_Field>
OPLS_2005

> <r_lp_Energy>
37.786

> <b_lp_Chiralities_Consistent>
1

> <s_lp_Variant>
AV-unprocessed.smi:399-2

> <Gold.Version>
5.8.1

> <Gold.Id.Protein>
6NUR|6NUR_protein|mol2

> <Gold.PLP.Fitness>
50.5660

> <Gold.PLP.PLP>
-37.0689

> <Gold.PLP.part.hbond>
-6.0000

> <Gold.PLP.part.metal>
0.0000

> <Gold.PLP.part.buried>
-1.9912

> <Gold.PLP.part.nonpolar>
-28.2491

> <Gold.PLP.part.repulsive>
1.0029

> <Gold.PLP.ligand.clash>
0.0000

> <Gold.PLP.ligand.torsion>
0.6580

> <Gold.PLP.Chemscore.Hbond>
4.8800

> <Gold.PLP.Chemscore.CHOScore>
0.0000

> <Gold.PLP.Chemscore.Metal>
0.0000

> <Gold.Chemscore.Hbonds>
donor molecule, donor type, donor heavy atom, donor atom, acceptor molecule, acceptor atom, score
      L1  H     5    33       P1  7948  0.75
      L1  H    19    47       P1  7948  2.00
      P1  H  7997  8009       L1    14  0.85
      P1  H 10752 10764       L1     7  0.96

> <Gold.PLP.Chemscore.Internal.Correction>
0.1730

> <Gold.Rescore>
     Score         DG    S(hbond)    S(metal)    S(lipo)     H(rot)  DE(clash)    DE(int)     intcor
     15.98     -18.08       3.24        0.00      62.89       2.18       0.19       1.91       ----

> <Gold.Chemscore.Fitness>
15.9757

> <Gold.Chemscore.DG>
-18.0787

> <Gold.Chemscore.ZeroCoef>
-5.4800

> <Gold.Chemscore.Hbond>
3.2404

> <Gold.Chemscore.Metal>
0.0000

> <Gold.Chemscore.Lipo>
62.8921

> <Gold.Chemscore.Internal_Hbond>
0.0000

> <Gold.Chemscore.DEClash>
0.1909

> <Gold.Chemscore.DEInternal>
1.9122

> <Gold.Chemscore.Rot>
2.1806

> <Gold.Chemscore.Internal.Correction>
   9.000000E+99

> <Gold.Chemscore.Hbonds>
donor molecule, donor type, donor heavy atom, donor atom, acceptor molecule, acceptor atom, score
      L1  H     5    33       P1  7948  0.09
      L1  H    19    47       P1  7948  0.91
      P1  H  7997  8009       L1    14  0.14
      P1  H 10752 10764       L1     7  0.32

> <Gold.Chemscore.Hbond.Weighted>
-10.8228

> <Gold.Chemscore.Metal.Weighted>
-0.0000

> <Gold.Chemscore.Lipo.Weighted>
-7.3584

> <Gold.Chemscore.Internal_Hbond.Weighted>
0.0000

> <Gold.Chemscore.DEClash.Weighted>
0.1909

> <Gold.Chemscore.DEInternal.Weighted>
1.9122

> <Gold.Chemscore.Rot.Weighted>
5.5825

> <Gold.Chemscore.Internal.Correction.Weighted>
   9.000000E+99

> <Gold.Protein.RotatedTorsions>
[ 6907 6896 6895 6894 ] final -169.19 input  -60.11 | X-H torsion
[ 7974 7965 7964 7962 ] final    5.04 input  175.53 | X-H torsion
[ 8008 7997 7996 7995 ] final  149.21 input   59.86 | X-H torsion
[ 10167 10162 10161 10158 ] final -163.53 input  -65.29 | X-H torsion
[ 10718 10713 10712 10709 ] final   41.76 input   66.30 | X-H torsion
[ 10763 10752 10751 10750 ] final  -24.55 input  -60.55 | X-H torsion
[ 11005 11000 10999 10996 ] final -163.20 input  -57.11 | X-H torsion

> <Gold.Protein.ActiveResidues>
 VAL166  LYS551  ARG553  GLY616  TRP617  ASP618  TYR619  PRO620  LYS621  CYS622 
 ASP623  PHE694  ASN695  SER759  ASP760  ASP761  ALA762  ILE779  LEU786  VAL792 
 PHE793  MET794  SER795  GLU796  ALA797  LYS798  CYS799  TRP800  GLU811  SER814 

> <Gold.Protein.RotatedAtoms>
  151.4877  133.3532  159.2848 H   0  0  0  0  0  0  0  0  0  0  0  0  # atno 6907 bound_to 6896
  150.8855  134.8255  159.7267 H   0  0  0  0  0  0  0  0  0  0  0  0  # atno 6908 bound_to 6896
  152.4790  134.4780  159.9708 H   0  0  0  0  0  0  0  0  0  0  0  0  # atno 6909 bound_to 6896
  146.2442  140.0444  142.8379 H   0  0  0  0  0  0  0  0  0  0  0  0  # atno 7974 bound_to 7965
  156.2763  140.2108  156.5822 H   0  0  0  0  0  0  0  0  0  0  0  0  # atno 8008 bound_to 7997
  154.7049  140.0517  157.0518 H   0  0  0  0  0  0  0  0  0  0  0  0  # atno 8009 bound_to 7997
  155.0684  140.3174  155.4641 H   0  0  0  0  0  0  0  0  0  0  0  0  # atno 8010 bound_to 7997
  139.6314  144.0433  152.2018 H   0  0  0  0  0  0  0  0  0  0  0  0  # atno 10167 bound_to 10162
  157.3972  130.7839  149.7318 H   0  0  0  0  0  0  0  0  0  0  0  0  # atno 10718 bound_to 10713
  153.6856  135.6964  153.5105 H   0  0  0  0  0  0  0  0  0  0  0  0  # atno 10763 bound_to 10752
  153.2452  135.4293  155.0739 H   0  0  0  0  0  0  0  0  0  0  0  0  # atno 10764 bound_to 10752
  154.8387  135.3517  154.6398 H   0  0  0  0  0  0  0  0  0  0  0  0  # atno 10765 bound_to 10752
  140.6008  134.4949  157.5205 H   0  0  0  0  0  0  0  0  0  0  0  0  # atno 11005 bound_to 11000
  145.1040  140.9364  143.4696 LP  0  0  0  0  0  0  0  0  0  0  0  0  # atno 17320 bound_to 7965
  145.0643  139.3081  143.5864 LP  0  0  0  0  0  0  0  0  0  0  0  0  # atno 17321 bound_to 7965
  140.0099  144.6231  150.7656 LP  0  0  0  0  0  0  0  0  0  0  0  0  # atno 17342 bound_to 10162
  140.7441  143.2856  151.3474 LP  0  0  0  0  0  0  0  0  0  0  0  0  # atno 17343 bound_to 10162
  155.9813  130.4020  150.3477 LP  0  0  0  0  0  0  0  0  0  0  0  0  # atno 17370 bound_to 10713
  157.1600  131.0342  151.2845 LP  0  0  0  0  0  0  0  0  0  0  0  0  # atno 17371 bound_to 10713
  139.9233  134.8105  156.1144 LP  0  0  0  0  0  0  0  0  0  0  0  0  # atno 17394 bound_to 11000
  141.0873  133.6729  156.2465 LP  0  0  0  0  0  0  0  0  0  0  0  0  # atno 17395 bound_to 11000

$$$$
