AV-unprocessed.smi:2844|AV-procd|sdf|10941|dock1
  -GOLD-   2272015393D 1   1.00000     0.00000
 Structure written by MMmdl.
 39 41  0  0  0  0  0  0  0  0  2 V2000
  145.8934  129.8243  151.7423 C   0  0  0  0  0  0  0  0  0  0  0  0
  145.7539  131.3352  151.6678 C   0  0  0  0  0  0  0  0  0  0  0  0
  144.7136  131.8780  150.8798 C   0  0  0  0  0  0  0  0  0  0  0  0
  144.6128  133.2632  150.8294 C   0  0  0  0  0  0  0  0  0  0  0  0
  143.7131  134.0923  150.1553 N   0  3  0  0  0  0  0  0  0  0  0  0
  144.0161  135.3951  150.4120 C   0  0  0  0  0  0  0  0  0  0  0  0
  145.0957  135.4090  151.2400 N   0  0  0  0  0  0  0  0  0  0  0  0
  145.8202  136.5439  151.8265 C   0  0  0  0  0  0  0  0  0  0  0  0
  144.9134  137.4527  152.6780 C   0  0  2  0  0  0  0  0  0  0  0  0
  145.6786  138.5223  153.2022 O   0  0  0  0  0  0  0  0  0  0  0  0
  144.2370  136.6780  153.8248 C   0  0  0  0  0  0  0  0  0  0  0  0
  142.7969  136.8653  153.8466 N   0  0  0  0  0  0  0  0  0  0  0  0
  142.0424  137.7510  153.1018 C   0  0  0  0  0  0  0  0  0  0  0  0
  140.7536  137.5430  153.4874 C   0  0  0  0  0  0  0  0  0  0  0  0
  139.3549  138.3624  152.8986 Cl  0  0  0  0  0  0  0  0  0  0  0  0
  140.7888  136.5195  154.4683 C   0  0  0  0  0  0  0  0  0  0  0  0
  142.0326  136.1151  154.6814 N   0  0  0  0  0  0  0  0  0  0  0  0
  145.5017  134.1023  151.5287 C   0  0  0  0  0  0  0  0  0  0  0  0
  146.5303  133.5848  152.3120 C   0  0  0  0  0  0  0  0  0  0  0  0
  146.6501  132.1779  152.3755 C   0  0  0  0  0  0  0  0  0  0  0  0
  147.7647  131.5835  153.2199 C   0  0  0  0  0  0  0  0  0  0  0  0
  145.1477  129.3240  151.1239 H   0  0  0  0  0  0  0  0  0  0  0  0
  145.7626  129.4782  152.7679 H   0  0  0  0  0  0  0  0  0  0  0  0
  146.8779  129.5119  151.3934 H   0  0  0  0  0  0  0  0  0  0  0  0
  144.0269  131.2426  150.3397 H   0  0  0  0  0  0  0  0  0  0  0  0
  143.4922  136.2606  150.0326 H   0  0  0  0  0  0  0  0  0  0  0  0
  146.6534  136.1573  152.4148 H   0  0  0  0  0  0  0  0  0  0  0  0
  146.2598  137.1108  151.0047 H   0  0  0  0  0  0  0  0  0  0  0  0
  144.1395  137.8821  152.0406 H   0  0  0  0  0  0  0  0  0  0  0  0
  145.1318  139.2929  153.2386 H   0  0  0  0  0  0  0  0  0  0  0  0
  144.4348  135.6104  153.7216 H   0  0  0  0  0  0  0  0  0  0  0  0
  144.6507  136.9789  154.7888 H   0  0  0  0  0  0  0  0  0  0  0  0
  142.4774  138.4319  152.3851 H   0  0  0  0  0  0  0  0  0  0  0  0
  139.9765  136.0679  155.0185 H   0  0  0  0  0  0  0  0  0  0  0  0
  147.2115  134.2273  152.8501 H   0  0  0  0  0  0  0  0  0  0  0  0
  148.3402  132.3598  153.7252 H   0  0  0  0  0  0  0  0  0  0  0  0
  148.4523  131.0110  152.5968 H   0  0  0  0  0  0  0  0  0  0  0  0
  147.3571  130.9222  153.9846 H   0  0  0  0  0  0  0  0  0  0  0  0
  142.9470  133.7948  149.5648 H   0  0  0  0  0  0  0  0  0  0  0  0
  1  2  1  0  0  0  0
  1 22  1  0  0  0  0
  1 23  1  0  0  0  0
  1 24  1  0  0  0  0
  2 20  1  0  0  0  0
  2  3  2  0  0  0  0
  3  4  1  0  0  0  0
  3 25  1  0  0  0  0
  4 18  2  0  0  0  0
  4  5  1  0  0  0  0
  5  6  2  0  0  0  0
  5 39  1  0  0  0  0
  6  7  1  0  0  0  0
  6 26  1  0  0  0  0
  7  8  1  0  0  0  0
  7 18  1  0  0  0  0
  8  9  1  0  0  0  0
  8 27  1  0  0  0  0
  8 28  1  0  0  0  0
  9 10  1  0  0  0  0
  9 11  1  0  0  0  0
  9 29  1  0  0  0  0
 10 30  1  0  0  0  0
 11 12  1  0  0  0  0
 11 31  1  0  0  0  0
 11 32  1  0  0  0  0
 12 17  1  0  0  0  0
 12 13  1  0  0  0  0
 13 14  2  0  0  0  0
 13 33  1  0  0  0  0
 14 15  1  0  0  0  0
 14 16  1  0  0  0  0
 16 17  2  0  0  0  0
 16 34  1  0  0  0  0
 18 19  1  0  0  0  0
 19 20  2  0  0  0  0
 19 35  1  0  0  0  0
 20 21  1  0  0  0  0
 21 36  1  0  0  0  0
 21 37  1  0  0  0  0
 21 38  1  0  0  0  0
M  CHG  1   5   1
M  END
> <s_m_source_file>
AV-unprocessed.smi

> <i_m_source_file_index>
2844

> <i_lp_mmshare_version>
43012

> <i_f3d_flags>
0

> <s_epik_input>
W0NIM11jKFtjSF0xKWMoW0NIM10pW2NIXWMoYzEyKW4oW2NIXW4yKVtDSDJdW0NASF0oW09IXSlbQ0gyXW4zW2NIXWMoQ2wpW2NIXW4z

> <s_epik_cmdline>
J2VwaWtfcHl0aG9uJywgJy1waCcsICc3LjAnLCAnLXRuJywgJzgnLCAnLW1hJywgJzIwMCcsICctbWV0YWxfYmluZGluZycsICctaW1hZScsICc8aW5maWxlLm1hZT4nLCAnLW9tYWUnLCAnPG91dGZpbGUubWFlPic=

> <r_lp_tautomer_probability>
1

> <r_epik_Ionization_Penalty>
1.09214

> <r_epik_Ionization_Penalty_Charging>
1.09214

> <r_epik_Ionization_Penalty_Neutral>
2.93683e-06

> <r_epik_State_Penalty>
1.14852

> <r_epik_Charging_Adjusted_Penalty>
2.24066

> <i_epik_Tot_Q>
1

> <i_epik_Tot_abs_Q>
1

> <r_epik_Metal_State_Penalty>
1.23687

> <b_epik_Metal_Only>
0

> <s_lp_Force_Field>
OPLS_2005

> <r_lp_Energy>
16.171

> <b_lp_Chiralities_Consistent>
1

> <s_lp_Variant>
AV-unprocessed.smi:2844-3

> <Gold.Version>
5.8.1

> <Gold.Id.Protein>
6NUR|6NUR_protein|mol2

> <Gold.PLP.Fitness>
52.1742

> <Gold.PLP.PLP>
-38.5184

> <Gold.PLP.part.hbond>
-2.2258

> <Gold.PLP.part.metal>
0.0000

> <Gold.PLP.part.buried>
-2.1505

> <Gold.PLP.part.nonpolar>
-33.9548

> <Gold.PLP.part.repulsive>
0.0559

> <Gold.PLP.ligand.clash>
0.0000

> <Gold.PLP.ligand.torsion>
0.7889

> <Gold.PLP.Chemscore.Hbond>
2.1736

> <Gold.PLP.Chemscore.CHOScore>
2.8999

> <Gold.PLP.Chemscore.Metal>
0.0000

> <Gold.Chemscore.Hbonds>
donor molecule, donor type, donor heavy atom, donor atom, acceptor molecule, acceptor atom, score
      L1  H     5    39       P1 10186  1.17
      L1  H    10    30       P1 10175  1.00
      L1  C     6    26       P1 10171  1.00
      L1  C    13    33       P1 10171  0.06
      L1  C    13    33       P1 10175  1.00
      L1  C    16    34       P1 11000  0.84

> <Gold.PLP.Chemscore.Internal.Correction>
0.0129

> <Gold.Rescore>
     Score         DG    S(hbond)    S(metal)    S(lipo)     H(rot)  DE(clash)    DE(int)     intcor
     15.10     -15.85       1.57        0.00      92.33       2.21       0.04       0.71       ----

> <Gold.Chemscore.Fitness>
15.1006

> <Gold.Chemscore.DG>
-15.8466

> <Gold.Chemscore.ZeroCoef>
-5.4800

> <Gold.Chemscore.Hbond>
1.5655

> <Gold.Chemscore.Metal>
0.0000

> <Gold.Chemscore.Lipo>
92.3303

> <Gold.Chemscore.Internal_Hbond>
0.0000

> <Gold.Chemscore.DEClash>
0.0382

> <Gold.Chemscore.DEInternal>
0.7079

> <Gold.Chemscore.Rot>
2.2129

> <Gold.Chemscore.Internal.Correction>
   9.000000E+99

> <Gold.Chemscore.Hbonds>
donor molecule, donor type, donor heavy atom, donor atom, acceptor molecule, acceptor atom, score
      L1  H     5    39       P1 10186  0.54
      L1  H    10    30       P1 10175  0.90

> <Gold.Chemscore.Hbond.Weighted>
-5.2289

> <Gold.Chemscore.Metal.Weighted>
-0.0000

> <Gold.Chemscore.Lipo.Weighted>
-10.8026

> <Gold.Chemscore.Internal_Hbond.Weighted>
0.0000

> <Gold.Chemscore.DEClash.Weighted>
0.0382

> <Gold.Chemscore.DEInternal.Weighted>
0.7079

> <Gold.Chemscore.Rot.Weighted>
5.6649

> <Gold.Chemscore.Internal.Correction.Weighted>
   9.000000E+99

> <Gold.Protein.RotatedTorsions>
[ 6907 6896 6895 6894 ] final  -21.19 input  -60.11 | X-H torsion
[ 7974 7965 7964 7962 ] final   58.46 input  175.53 | X-H torsion
[ 8008 7997 7996 7995 ] final   -3.30 input   59.86 | X-H torsion
[ 10167 10162 10161 10158 ] final -109.91 input  -65.29 | X-H torsion
[ 10718 10713 10712 10709 ] final    6.86 input   66.30 | X-H torsion
[ 10763 10752 10751 10750 ] final    4.46 input  -60.55 | X-H torsion
[ 11005 11000 10999 10996 ] final -129.27 input  -57.11 | X-H torsion

> <Gold.Protein.ActiveResidues>
 VAL166  LYS551  ARG553  GLY616  TRP617  ASP618  TYR619  PRO620  LYS621  CYS622 
 ASP623  PHE694  ASN695  SER759  ASP760  ASP761  ALA762  ILE779  LEU786  VAL792 
 PHE793  MET794  SER795  GLU796  ALA797  LYS798  CYS799  TRP800  GLU811  SER814 

> <Gold.Protein.RotatedAtoms>
  151.2369  135.0575  159.9009 H   0  0  0  0  0  0  0  0  0  0  0  0  # atno 6907 bound_to 6896
  152.5398  134.0476  159.8105 H   0  0  0  0  0  0  0  0  0  0  0  0  # atno 6908 bound_to 6896
  151.0664  133.5453  159.2662 H   0  0  0  0  0  0  0  0  0  0  0  0  # atno 6909 bound_to 6896
  145.9180  139.3706  143.0496 H   0  0  0  0  0  0  0  0  0  0  0  0  # atno 7974 bound_to 7965
  154.6264  140.2513  155.7486 H   0  0  0  0  0  0  0  0  0  0  0  0  # atno 8008 bound_to 7997
  156.2456  140.2916  156.0516 H   0  0  0  0  0  0  0  0  0  0  0  0  # atno 8009 bound_to 7997
  155.1814  140.0389  157.2873 H   0  0  0  0  0  0  0  0  0  0  0  0  # atno 8010 bound_to 7997
  140.1502  143.4205  152.1500 H   0  0  0  0  0  0  0  0  0  0  0  0  # atno 10167 bound_to 10162
  156.9284  130.5817  149.5649 H   0  0  0  0  0  0  0  0  0  0  0  0  # atno 10718 bound_to 10713
  153.2710  135.6932  153.7481 H   0  0  0  0  0  0  0  0  0  0  0  0  # atno 10763 bound_to 10752
  153.6504  135.3378  155.3099 H   0  0  0  0  0  0  0  0  0  0  0  0  # atno 10764 bound_to 10752
  154.8464  135.4453  154.1732 H   0  0  0  0  0  0  0  0  0  0  0  0  # atno 10765 bound_to 10752
  140.9446  134.1148  157.4119 H   0  0  0  0  0  0  0  0  0  0  0  0  # atno 11005 bound_to 11000
  145.8587  140.9488  143.0711 LP  0  0  0  0  0  0  0  0  0  0  0  0  # atno 17320 bound_to 7965
  144.6750  140.0502  143.7479 LP  0  0  0  0  0  0  0  0  0  0  0  0  # atno 17321 bound_to 7965
  139.5429  144.7273  151.4674 LP  0  0  0  0  0  0  0  0  0  0  0  0  # atno 17342 bound_to 10162
  140.6707  143.8300  150.6996 LP  0  0  0  0  0  0  0  0  0  0  0  0  # atno 17343 bound_to 10162
  156.0458  130.5535  150.8878 LP  0  0  0  0  0  0  0  0  0  0  0  0  # atno 17370 bound_to 10713
  157.5863  131.0945  150.9191 LP  0  0  0  0  0  0  0  0  0  0  0  0  # atno 17371 bound_to 10713
  139.8830  135.0047  156.6267 LP  0  0  0  0  0  0  0  0  0  0  0  0  # atno 17394 bound_to 11000
  140.7687  133.8756  155.8475 LP  0  0  0  0  0  0  0  0  0  0  0  0  # atno 17395 bound_to 11000

$$$$
