AV-unprocessed.smi:2707|AV-procd|sdf|10456|dock1
  -GOLD-   2272014493D 1   1.00000     0.00000
 Structure written by MMmdl.
 44 45  0  0  0  0  0  0  0  0  1 V2000
  139.0960  139.1461  153.6593 C   0  0  0  0  0  0  0  0  0  0  0  0
  140.3944  139.6187  154.3467 C   0  0  1  0  0  0  0  0  0  0  0  0
  141.5684  139.0174  153.6986 N   0  0  0  0  0  0  0  0  0  0  0  0
  141.8450  137.7153  153.5173 C   0  0  0  0  0  0  0  0  0  0  0  0
  141.1245  136.7978  153.9097 O   0  0  0  0  0  0  0  0  0  0  0  0
  143.0014  137.5597  152.8500 N   0  0  0  0  0  0  0  0  0  0  0  0
  143.6270  136.3486  152.4543 C   0  0  0  0  0  0  0  0  0  0  0  0
  144.8024  136.4969  151.6911 C   0  0  0  0  0  0  0  0  0  0  0  0
  145.4744  135.3396  151.2637 C   0  0  0  0  0  0  0  0  0  0  0  0
  144.9276  134.0886  151.6284 C   0  0  0  0  0  0  0  0  0  0  0  0
  145.5610  132.7433  151.2298 C   0  0  0  0  0  0  0  0  0  0  0  0
  144.7780  131.5335  151.7886 C   0  0  0  0  0  0  0  0  0  0  0  0
  146.9993  132.6604  151.7822 C   0  0  0  0  0  0  0  0  0  0  0  0
  145.5818  132.6126  149.6926 C   0  0  0  0  0  0  0  0  0  0  0  0
  143.7925  134.0104  152.3654 N   0  0  0  0  0  0  0  0  0  0  0  0
  143.1579  135.1150  152.7682 N   0  0  0  0  0  0  0  0  0  0  0  0
  140.5020  141.1669  154.3668 C   0  0  0  0  0  0  0  0  0  0  0  0
  141.5720  141.5932  155.3793 C   0  0  0  0  0  0  0  0  0  0  0  0
  141.5142  140.3406  156.7120 S   0  0  0  0  0  0  0  0  0  0  0  0
  142.8475  139.7358  156.8553 O   0  0  0  0  0  0  0  0  0  0  0  0
  140.8007  140.8870  157.8761 O   0  0  0  0  0  0  0  0  0  0  0  0
  140.4093  139.1756  155.8240 C   0  0  0  0  0  0  0  0  0  0  0  0
  138.2142  139.5185  154.1814 H   0  0  0  0  0  0  0  0  0  0  0  0
  139.0314  138.0575  153.6436 H   0  0  0  0  0  0  0  0  0  0  0  0
  139.0266  139.4969  152.6297 H   0  0  0  0  0  0  0  0  0  0  0  0
  142.2401  139.6748  153.3299 H   0  0  0  0  0  0  0  0  0  0  0  0
  143.4858  138.4048  152.5867 H   0  0  0  0  0  0  0  0  0  0  0  0
  145.1838  137.4749  151.4355 H   0  0  0  0  0  0  0  0  0  0  0  0
  146.3755  135.4362  150.6784 H   0  0  0  0  0  0  0  0  0  0  0  0
  145.2432  130.5920  151.4939 H   0  0  0  0  0  0  0  0  0  0  0  0
  143.7522  131.5111  151.4186 H   0  0  0  0  0  0  0  0  0  0  0  0
  144.7439  131.5438  152.8789 H   0  0  0  0  0  0  0  0  0  0  0  0
  147.0124  132.7554  152.8686 H   0  0  0  0  0  0  0  0  0  0  0  0
  147.6355  133.4477  151.3761 H   0  0  0  0  0  0  0  0  0  0  0  0
  147.4676  131.7084  151.5298 H   0  0  0  0  0  0  0  0  0  0  0  0
  146.0086  131.6590  149.3804 H   0  0  0  0  0  0  0  0  0  0  0  0
  146.1779  133.3982  149.2269 H   0  0  0  0  0  0  0  0  0  0  0  0
  144.5753  132.6743  149.2769 H   0  0  0  0  0  0  0  0  0  0  0  0
  140.6906  141.5992  153.3845 H   0  0  0  0  0  0  0  0  0  0  0  0
  139.5462  141.5775  154.6953 H   0  0  0  0  0  0  0  0  0  0  0  0
  142.5647  141.5653  154.9294 H   0  0  0  0  0  0  0  0  0  0  0  0
  141.4004  142.5893  155.7873 H   0  0  0  0  0  0  0  0  0  0  0  0
  139.4184  139.2725  156.2689 H   0  0  0  0  0  0  0  0  0  0  0  0
  140.7439  138.1485  155.9743 H   0  0  0  0  0  0  0  0  0  0  0  0
  1  2  1  0  0  0  0
  1 23  1  0  0  0  0
  1 24  1  0  0  0  0
  1 25  1  0  0  0  0
  2 22  1  0  0  0  0
  2  3  1  0  0  0  0
  2 17  1  0  0  0  0
  3  4  1  0  0  0  0
  3 26  1  0  0  0  0
  4  5  2  0  0  0  0
  4  6  1  0  0  0  0
  6  7  1  0  0  0  0
  6 27  1  0  0  0  0
  7 16  1  0  0  0  0
  7  8  2  0  0  0  0
  8  9  1  0  0  0  0
  8 28  1  0  0  0  0
  9 10  2  0  0  0  0
  9 29  1  0  0  0  0
 10 11  1  0  0  0  0
 10 15  1  0  0  0  0
 11 12  1  0  0  0  0
 11 13  1  0  0  0  0
 11 14  1  0  0  0  0
 12 30  1  0  0  0  0
 12 31  1  0  0  0  0
 12 32  1  0  0  0  0
 13 33  1  0  0  0  0
 13 34  1  0  0  0  0
 13 35  1  0  0  0  0
 14 36  1  0  0  0  0
 14 37  1  0  0  0  0
 14 38  1  0  0  0  0
 15 16  2  0  0  0  0
 17 18  1  0  0  0  0
 17 39  1  0  0  0  0
 17 40  1  0  0  0  0
 18 19  1  0  0  0  0
 18 41  1  0  0  0  0
 18 42  1  0  0  0  0
 19 20  2  0  0  0  0
 19 21  2  0  0  0  0
 19 22  1  0  0  0  0
 22 43  1  0  0  0  0
 22 44  1  0  0  0  0
M  END
> <s_m_source_file>
AV-unprocessed.smi

> <i_m_source_file_index>
2707

> <i_lp_mmshare_version>
43012

> <i_f3d_flags>
0

> <s_epik_input>
Tz1TKD1PKShbQ0gyXTEpW0NIMl1bQ0gyXVtDQEBdMShbQ0gzXSlbTkhdQyg9TylbTkhdYzJbY0hdW2NIXWMobm4yKUMoW0NIM10pKFtDSDNdKVtDSDNd

> <s_epik_cmdline>
J2VwaWtfcHl0aG9uJywgJy1waCcsICc3LjAnLCAnLXRuJywgJzgnLCAnLW1hJywgJzIwMCcsICctbWV0YWxfYmluZGluZycsICctaW1hZScsICc8aW5maWxlLm1hZT4nLCAnLW9tYWUnLCAnPG91dGZpbGUubWFlPic=

> <r_lp_tautomer_probability>
1

> <r_epik_Ionization_Penalty>
0.00910408

> <r_epik_Ionization_Penalty_Charging>
0

> <r_epik_Ionization_Penalty_Neutral>
0.00910408

> <r_epik_State_Penalty>
-0

> <r_epik_Charging_Adjusted_Penalty>
0

> <i_epik_Tot_Q>
0

> <i_epik_Tot_abs_Q>
0

> <r_epik_Metal_State_Penalty>
-0

> <b_epik_Metal_Only>
0

> <s_lp_Force_Field>
OPLS_2005

> <r_lp_Energy>
10.5571

> <b_lp_Chiralities_Consistent>
1

> <s_lp_Variant>
AV-unprocessed.smi:2707-1

> <Gold.Version>
5.8.1

> <Gold.Id.Protein>
6NUR|6NUR_protein|mol2

> <Gold.PLP.Fitness>
34.4187

> <Gold.PLP.PLP>
-28.4412

> <Gold.PLP.part.hbond>
-3.0148

> <Gold.PLP.part.metal>
0.0000

> <Gold.PLP.part.buried>
-0.4620

> <Gold.PLP.part.nonpolar>
-24.5402

> <Gold.PLP.part.repulsive>
0.5239

> <Gold.PLP.ligand.clash>
0.0000

> <Gold.PLP.ligand.torsion>
0.0217

> <Gold.PLP.Chemscore.Hbond>
2.0000

> <Gold.PLP.Chemscore.CHOScore>
0.0000

> <Gold.PLP.Chemscore.Metal>
0.0000

> <Gold.Chemscore.Hbonds>
donor molecule, donor type, donor heavy atom, donor atom, acceptor molecule, acceptor atom, score
      L1  H     3    26       P1 10175  1.00
      L1  H     6    27       P1 10175  0.99

> <Gold.PLP.Chemscore.Internal.Correction>
0.0209

> <Gold.Rescore>
     Score         DG    S(hbond)    S(metal)    S(lipo)     H(rot)  DE(clash)    DE(int)     intcor
     14.59     -16.14       1.80        0.00      66.41       1.22       0.20       1.36       ----

> <Gold.Chemscore.Fitness>
14.5864

> <Gold.Chemscore.DG>
-16.1441

> <Gold.Chemscore.ZeroCoef>
-5.4800

> <Gold.Chemscore.Hbond>
1.8049

> <Gold.Chemscore.Metal>
0.0000

> <Gold.Chemscore.Lipo>
66.4078

> <Gold.Chemscore.Internal_Hbond>
0.0000

> <Gold.Chemscore.DEClash>
0.1995

> <Gold.Chemscore.DEInternal>
1.3582

> <Gold.Chemscore.Rot>
1.2242

> <Gold.Chemscore.Internal.Correction>
   9.000000E+99

> <Gold.Chemscore.Hbonds>
donor molecule, donor type, donor heavy atom, donor atom, acceptor molecule, acceptor atom, score
      L1  H     3    26       P1 10175  0.94
      L1  H     6    27       P1 10175  0.89

> <Gold.Chemscore.Hbond.Weighted>
-6.0284

> <Gold.Chemscore.Metal.Weighted>
-0.0000

> <Gold.Chemscore.Lipo.Weighted>
-7.7697

> <Gold.Chemscore.Internal_Hbond.Weighted>
0.0000

> <Gold.Chemscore.DEClash.Weighted>
0.1995

> <Gold.Chemscore.DEInternal.Weighted>
1.3582

> <Gold.Chemscore.Rot.Weighted>
3.1340

> <Gold.Chemscore.Internal.Correction.Weighted>
   9.000000E+99

> <Gold.Protein.RotatedTorsions>
[ 6907 6896 6895 6894 ] final    4.65 input  -60.11 | X-H torsion
[ 7974 7965 7964 7962 ] final   91.48 input  175.53 | X-H torsion
[ 8008 7997 7996 7995 ] final  -67.90 input   59.86 | X-H torsion
[ 10167 10162 10161 10158 ] final  -51.33 input  -65.29 | X-H torsion
[ 10718 10713 10712 10709 ] final  -82.94 input   66.30 | X-H torsion
[ 10763 10752 10751 10750 ] final   12.10 input  -60.55 | X-H torsion
[ 11005 11000 10999 10996 ] final  148.61 input  -57.11 | X-H torsion

> <Gold.Protein.ActiveResidues>
 VAL166  LYS551  ARG553  GLY616  TRP617  ASP618  TYR619  PRO620  LYS621  CYS622 
 ASP623  PHE694  ASN695  SER759  ASP760  ASP761  ALA762  ILE779  LEU786  VAL792 
 PHE793  MET794  SER795  GLU796  ALA797  LYS798  CYS799  TRP800  GLU811  SER814 

> <Gold.Protein.RotatedAtoms>
  151.6447  135.1009  160.0148 H   0  0  0  0  0  0  0  0  0  0  0  0  # atno 6907 bound_to 6896
  152.4034  133.6849  159.6344 H   0  0  0  0  0  0  0  0  0  0  0  0  # atno 6908 bound_to 6896
  150.7932  133.8667  159.3288 H   0  0  0  0  0  0  0  0  0  0  0  0  # atno 6909 bound_to 6896
  145.5051  139.2276  143.2756 H   0  0  0  0  0  0  0  0  0  0  0  0  # atno 7974 bound_to 7965
  154.4831  140.0883  156.7424 H   0  0  0  0  0  0  0  0  0  0  0  0  # atno 8008 bound_to 7997
  155.4419  140.3454  155.4272 H   0  0  0  0  0  0  0  0  0  0  0  0  # atno 8009 bound_to 7997
  156.1221  140.1477  156.9177 H   0  0  0  0  0  0  0  0  0  0  0  0  # atno 8010 bound_to 7997
  140.6593  143.2623  151.4488 H   0  0  0  0  0  0  0  0  0  0  0  0  # atno 10167 bound_to 10162
  156.0025  130.4650  150.4181 H   0  0  0  0  0  0  0  0  0  0  0  0  # atno 10718 bound_to 10713
  153.1857  135.6835  153.8418 H   0  0  0  0  0  0  0  0  0  0  0  0  # atno 10763 bound_to 10752
  153.7734  135.3192  155.3356 H   0  0  0  0  0  0  0  0  0  0  0  0  # atno 10764 bound_to 10752
  154.8087  135.4731  154.0556 H   0  0  0  0  0  0  0  0  0  0  0  0  # atno 10765 bound_to 10752
  140.0974  134.9004  157.1744 H   0  0  0  0  0  0  0  0  0  0  0  0  # atno 11005 bound_to 11000
  146.2202  140.5854  142.9021 LP  0  0  0  0  0  0  0  0  0  0  0  0  # atno 17320 bound_to 7965
  144.7758  140.5737  143.6639 LP  0  0  0  0  0  0  0  0  0  0  0  0  # atno 17321 bound_to 7965
  139.5823  144.1681  152.1984 LP  0  0  0  0  0  0  0  0  0  0  0  0  # atno 17342 bound_to 10162
  140.1010  144.5539  150.6989 LP  0  0  0  0  0  0  0  0  0  0  0  0  # atno 17343 bound_to 10162
  157.2239  131.0489  151.2531 LP  0  0  0  0  0  0  0  0  0  0  0  0  # atno 17370 bound_to 10713
  157.3774  130.7213  149.6606 LP  0  0  0  0  0  0  0  0  0  0  0  0  # atno 17371 bound_to 10713
  140.3267  134.2856  155.7235 LP  0  0  0  0  0  0  0  0  0  0  0  0  # atno 17394 bound_to 11000
  141.2096  133.7744  156.9986 LP  0  0  0  0  0  0  0  0  0  0  0  0  # atno 17395 bound_to 11000

$$$$
