AV-unprocessed.smi:2119|AV-procd|sdf|8631|dock2
  -GOLD-   2272011373D 1   1.00000     0.00000
 Structure written by MMmdl.
 47 49  0  0  0  0  0  0  0  0  1 V2000
  145.0075  135.9558  153.7658 O   0  0  0  0  0  0  0  0  0  0  0  0
  146.1271  135.8003  153.2794 C   0  0  0  0  0  0  0  0  0  0  0  0
  147.1778  136.5693  153.5919 N   0  0  0  0  0  0  0  0  0  0  0  0
  147.1402  137.6717  154.5457 C   0  0  0  0  0  0  0  0  0  0  0  0
  148.1949  137.4938  155.6700 C   0  0  1  0  0  0  0  0  0  0  0  0
  149.2751  138.6210  155.6520 C   0  0  2  0  0  0  0  0  0  0  0  0
  148.7846  140.0578  155.8573 C   0  0  0  0  0  0  0  0  0  0  0  0
  149.4476  140.8386  154.7229 C   0  0  0  0  0  0  0  0  0  0  0  0
  150.5913  140.0679  154.3922 O   0  0  0  0  0  0  0  0  0  0  0  0
  150.1936  138.7068  154.4220 C   0  0  0  0  0  0  0  0  0  0  0  0
  147.6365  137.1762  157.0001 N   0  0  0  0  0  0  0  0  0  0  0  0
  146.7392  138.2091  157.5143 C   0  0  0  0  0  0  0  0  0  0  0  0
  146.0652  137.7771  158.8264 C   0  0  0  0  0  0  0  0  0  0  0  0
  147.0664  137.4586  159.7864 O   0  0  0  0  0  0  0  0  0  0  0  0
  147.9310  136.4156  159.3492 C   0  0  0  0  0  0  0  0  0  0  0  0
  148.6114  136.8121  158.0266 C   0  0  0  0  0  0  0  0  0  0  0  0
  146.4629  134.8693  152.3698 N   0  0  0  0  0  0  0  0  0  0  0  0
  145.6571  133.8492  151.7937 C   0  0  0  0  0  0  0  0  0  0  0  0
  144.2407  133.8345  151.8148 C   0  0  0  0  0  0  0  0  0  0  0  0
  143.5632  132.7527  151.2199 C   0  0  0  0  0  0  0  0  0  0  0  0
  144.3232  131.7227  150.6332 C   0  0  0  0  0  0  0  0  0  0  0  0
  145.6725  131.7175  150.6152 N   0  0  0  0  0  0  0  0  0  0  0  0
  146.3152  132.7582  151.1868 C   0  0  0  0  0  0  0  0  0  0  0  0
  148.0623  136.3807  153.1433 H   0  0  0  0  0  0  0  0  0  0  0  0
  147.2992  138.6133  154.0184 H   0  0  0  0  0  0  0  0  0  0  0  0
  146.1313  137.7090  154.9550 H   0  0  0  0  0  0  0  0  0  0  0  0
  148.7595  136.6041  155.3864 H   0  0  0  0  0  0  0  0  0  0  0  0
  149.9424  138.4214  156.4920 H   0  0  0  0  0  0  0  0  0  0  0  0
  147.7020  140.1798  155.8379 H   0  0  0  0  0  0  0  0  0  0  0  0
  149.1308  140.4297  156.8225 H   0  0  0  0  0  0  0  0  0  0  0  0
  148.7878  140.8945  153.8558 H   0  0  0  0  0  0  0  0  0  0  0  0
  149.7166  141.8547  155.0122 H   0  0  0  0  0  0  0  0  0  0  0  0
  151.0608  138.0514  154.5058 H   0  0  0  0  0  0  0  0  0  0  0  0
  149.6870  138.4580  153.4918 H   0  0  0  0  0  0  0  0  0  0  0  0
  147.2882  139.1322  157.6986 H   0  0  0  0  0  0  0  0  0  0  0  0
  145.9721  138.4392  156.7742 H   0  0  0  0  0  0  0  0  0  0  0  0
  145.4410  138.5817  159.2150 H   0  0  0  0  0  0  0  0  0  0  0  0
  145.4160  136.9155  158.6635 H   0  0  0  0  0  0  0  0  0  0  0  0
  148.6802  136.2272  160.1183 H   0  0  0  0  0  0  0  0  0  0  0  0
  147.3616  135.4930  159.2260 H   0  0  0  0  0  0  0  0  0  0  0  0
  149.2078  135.9646  157.6994 H   0  0  0  0  0  0  0  0  0  0  0  0
  149.2958  137.6417  158.2071 H   0  0  0  0  0  0  0  0  0  0  0  0
  147.4082  134.9178  152.0184 H   0  0  0  0  0  0  0  0  0  0  0  0
  143.6603  134.6144  152.2813 H   0  0  0  0  0  0  0  0  0  0  0  0
  142.4841  132.7110  151.2181 H   0  0  0  0  0  0  0  0  0  0  0  0
  143.8341  130.8783  150.1702 H   0  0  0  0  0  0  0  0  0  0  0  0
  147.3944  132.7183  151.1561 H   0  0  0  0  0  0  0  0  0  0  0  0
  1  2  2  0  0  0  0
  2  3  1  0  0  0  0
  2 17  1  0  0  0  0
  3  4  1  0  0  0  0
  3 24  1  0  0  0  0
  4  5  1  0  0  0  0
  4 25  1  0  0  0  0
  4 26  1  0  0  0  0
  5  6  1  0  0  0  0
  5 11  1  0  0  0  0
  5 27  1  0  0  0  0
  6 10  1  0  0  0  0
  6  7  1  0  0  0  0
  6 28  1  0  0  0  0
  7  8  1  0  0  0  0
  7 29  1  0  0  0  0
  7 30  1  0  0  0  0
  8  9  1  0  0  0  0
  8 31  1  0  0  0  0
  8 32  1  0  0  0  0
  9 10  1  0  0  0  0
 10 33  1  0  0  0  0
 10 34  1  0  0  0  0
 11 16  1  0  0  0  0
 11 12  1  0  0  0  0
 12 13  1  0  0  0  0
 12 35  1  0  0  0  0
 12 36  1  0  0  0  0
 13 14  1  0  0  0  0
 13 37  1  0  0  0  0
 13 38  1  0  0  0  0
 14 15  1  0  0  0  0
 15 16  1  0  0  0  0
 15 39  1  0  0  0  0
 15 40  1  0  0  0  0
 16 41  1  0  0  0  0
 16 42  1  0  0  0  0
 17 18  1  0  0  0  0
 17 43  1  0  0  0  0
 18 23  1  0  0  0  0
 18 19  2  0  0  0  0
 19 20  1  0  0  0  0
 19 44  1  0  0  0  0
 20 21  2  0  0  0  0
 20 45  1  0  0  0  0
 21 22  1  0  0  0  0
 21 46  1  0  0  0  0
 22 23  2  0  0  0  0
 23 47  1  0  0  0  0
M  END
> <s_m_source_file>
AV-unprocessed.smi

> <i_m_source_file_index>
2119

> <i_lp_mmshare_version>
43012

> <i_f3d_flags>
0

> <s_epik_input>
W2NIXTFuW2NIXVtjSF1bY0hdYzFbTkhdQyg9TylbTkhdW0NIMl1bQ0BIXShbQ0BASF0yW0NIMl1bQ0gyXU9bQ0gyXTIpTjNbQ0gyXVtDSDJdT1tDSDJdW0NIMl0z

> <s_epik_cmdline>
J2VwaWtfcHl0aG9uJywgJy1waCcsICc3LjAnLCAnLXRuJywgJzgnLCAnLW1hJywgJzIwMCcsICctbWV0YWxfYmluZGluZycsICctaW1hZScsICc8aW5maWxlLm1hZT4nLCAnLW9tYWUnLCAnPG91dGZpbGUubWFlPic=

> <r_epik_Ionization_Penalty>
0.129787

> <r_epik_Ionization_Penalty_Charging>
0

> <r_epik_Ionization_Penalty_Neutral>
0.129787

> <r_epik_State_Penalty>
0.121311

> <r_epik_Charging_Adjusted_Penalty>
0.121311

> <i_epik_Tot_Q>
0

> <i_epik_Tot_abs_Q>
0

> <r_epik_Metal_State_Penalty>
0.117931

> <b_epik_Metal_Only>
0

> <s_lp_Force_Field>
OPLS_2005

> <r_lp_Energy>
56.2921

> <b_lp_Chiralities_Consistent>
1

> <s_lp_Variant>
AV-unprocessed.smi:2119-2

> <Gold.Version>
5.8.1

> <Gold.Id.Protein>
6NUR|6NUR_protein|mol2

> <Gold.PLP.Fitness>
41.2063

> <Gold.PLP.PLP>
-28.6819

> <Gold.PLP.part.hbond>
-3.7466

> <Gold.PLP.part.metal>
0.0000

> <Gold.PLP.part.buried>
-5.3517

> <Gold.PLP.part.nonpolar>
-19.8994

> <Gold.PLP.part.repulsive>
0.2897

> <Gold.PLP.ligand.clash>
0.0000

> <Gold.PLP.ligand.torsion>
0.9897

> <Gold.PLP.Chemscore.Hbond>
3.8153

> <Gold.PLP.Chemscore.CHOScore>
0.8960

> <Gold.PLP.Chemscore.Metal>
0.0000

> <Gold.Chemscore.Hbonds>
donor molecule, donor type, donor heavy atom, donor atom, acceptor molecule, acceptor atom, score
      L1  H     3    24       P1  7948  1.00
      L1  H    17    43       P1  7948  0.83
      P1  H  6934  6947       L1    14  0.99
      P1  H  7989  7998       L1     9  1.00
      L1  C    23    47       P1 10747  0.85

> <Gold.PLP.Chemscore.Internal.Correction>
0.3700

> <Gold.Rescore>
     Score         DG    S(hbond)    S(metal)    S(lipo)     H(rot)  DE(clash)    DE(int)     intcor
     18.62     -20.50       3.61        0.00      61.53       1.65       0.04       1.83       ----

> <Gold.Chemscore.Fitness>
18.6250

> <Gold.Chemscore.DG>
-20.5015

> <Gold.Chemscore.ZeroCoef>
-5.4800

> <Gold.Chemscore.Hbond>
3.6074

> <Gold.Chemscore.Metal>
0.0000

> <Gold.Chemscore.Lipo>
61.5301

> <Gold.Chemscore.Internal_Hbond>
0.0000

> <Gold.Chemscore.DEClash>
0.0444

> <Gold.Chemscore.DEInternal>
1.8321

> <Gold.Chemscore.Rot>
1.6508

> <Gold.Chemscore.Internal.Correction>
   9.000000E+99

> <Gold.Chemscore.Hbonds>
donor molecule, donor type, donor heavy atom, donor atom, acceptor molecule, acceptor atom, score
      L1  H     3    24       P1  7948  0.93
      L1  H    17    43       P1  7948  0.73
      P1  H  6934  6947       L1    14  0.42
      P1  H  7989  7998       L1     9  0.80

> <Gold.Chemscore.Hbond.Weighted>
-12.0486

> <Gold.Chemscore.Metal.Weighted>
-0.0000

> <Gold.Chemscore.Lipo.Weighted>
-7.1990

> <Gold.Chemscore.Internal_Hbond.Weighted>
0.0000

> <Gold.Chemscore.DEClash.Weighted>
0.0444

> <Gold.Chemscore.DEInternal.Weighted>
1.8321

> <Gold.Chemscore.Rot.Weighted>
4.2262

> <Gold.Chemscore.Internal.Correction.Weighted>
   9.000000E+99

> <Gold.Protein.RotatedTorsions>
[ 6907 6896 6895 6894 ] final  -24.22 input  -60.11 | X-H torsion
[ 7974 7965 7964 7962 ] final   -7.77 input  175.53 | X-H torsion
[ 8008 7997 7996 7995 ] final  126.94 input   59.86 | X-H torsion
[ 10167 10162 10161 10158 ] final -105.24 input  -65.29 | X-H torsion
[ 10718 10713 10712 10709 ] final   21.30 input   66.30 | X-H torsion
[ 10763 10752 10751 10750 ] final -130.97 input  -60.55 | X-H torsion
[ 11005 11000 10999 10996 ] final   56.34 input  -57.11 | X-H torsion

> <Gold.Protein.ActiveResidues>
 VAL166  LYS551  ARG553  GLY616  TRP617  ASP618  TYR619  PRO620  LYS621  CYS622 
 ASP623  PHE694  ASN695  SER759  ASP760  ASP761  ALA762  ILE779  LEU786  VAL792 
 PHE793  MET794  SER795  GLU796  ALA797  LYS798  CYS799  TRP800  GLU811  SER814 

> <Gold.Protein.RotatedAtoms>
  151.1926  135.0409  159.8838 H   0  0  0  0  0  0  0  0  0  0  0  0  # atno 6907 bound_to 6896
  152.5438  134.0939  159.8299 H   0  0  0  0  0  0  0  0  0  0  0  0  # atno 6908 bound_to 6896
  151.1069  133.5154  159.2639 H   0  0  0  0  0  0  0  0  0  0  0  0  # atno 6909 bound_to 6896
  146.2298  140.2369  142.8342 H   0  0  0  0  0  0  0  0  0  0  0  0  # atno 7974 bound_to 7965
  156.2878  140.2680  156.2193 H   0  0  0  0  0  0  0  0  0  0  0  0  # atno 8008 bound_to 7997
  155.0185  140.0386  157.2446 H   0  0  0  0  0  0  0  0  0  0  0  0  # atno 8009 bound_to 7997
  154.7456  140.2733  155.6341 H   0  0  0  0  0  0  0  0  0  0  0  0  # atno 8010 bound_to 7997
  140.2007  143.3821  152.1132 H   0  0  0  0  0  0  0  0  0  0  0  0  # atno 10167 bound_to 10162
  157.1366  130.6614  149.5968 H   0  0  0  0  0  0  0  0  0  0  0  0  # atno 10718 bound_to 10713
  154.8753  135.3845  154.4170 H   0  0  0  0  0  0  0  0  0  0  0  0  # atno 10763 bound_to 10752
  153.4878  135.7030  153.5906 H   0  0  0  0  0  0  0  0  0  0  0  0  # atno 10764 bound_to 10752
  153.4294  135.3882  155.2128 H   0  0  0  0  0  0  0  0  0  0  0  0  # atno 10765 bound_to 10752
  140.0536  134.5701  155.9234 H   0  0  0  0  0  0  0  0  0  0  0  0  # atno 11005 bound_to 11000
  144.9515  140.8183  143.5569 LP  0  0  0  0  0  0  0  0  0  0  0  0  # atno 17320 bound_to 7965
  145.2330  139.2106  143.5033 LP  0  0  0  0  0  0  0  0  0  0  0  0  # atno 17321 bound_to 7965
  139.5218  144.7051  151.5378 LP  0  0  0  0  0  0  0  0  0  0  0  0  # atno 17342 bound_to 10162
  140.6392  143.8923  150.6676 LP  0  0  0  0  0  0  0  0  0  0  0  0  # atno 17343 bound_to 10162
  155.9797  130.4792  150.6730 LP  0  0  0  0  0  0  0  0  0  0  0  0  # atno 17370 bound_to 10713
  157.4345  131.0853  151.1006 LP  0  0  0  0  0  0  0  0  0  0  0  0  # atno 17371 bound_to 10713
  141.1942  133.6582  156.5583 LP  0  0  0  0  0  0  0  0  0  0  0  0  # atno 17394 bound_to 11000
  140.3878  134.7467  157.4702 LP  0  0  0  0  0  0  0  0  0  0  0  0  # atno 17395 bound_to 11000

$$$$
