AV-unprocessed.smi:1760|AV-procd|sdf|7093|dock6
  -GOLD-   22720 8313D 1   1.00000     0.00000
 Structure written by MMmdl.
 43 45  0  0  0  0  0  0  0  0  3 V2000
  150.1295  137.3976  156.2878 O   0  0  0  0  0  0  0  0  0  0  0  0
  150.3792  137.1383  155.1109 C   0  0  0  0  0  0  0  0  0  0  0  0
  150.6092  135.9142  154.6018 N   0  0  0  0  0  0  0  0  0  0  0  0
  150.6069  134.6625  155.2418 C   0  0  0  0  0  0  0  0  0  0  0  0
  150.0063  133.5398  154.7580 C   0  0  0  0  0  0  0  0  0  0  0  0
  150.0454  132.2678  155.4693 C   0  0  0  0  0  0  0  0  0  0  0  0
  149.3751  130.9949  154.9858 C   0  0  0  0  0  0  0  0  0  0  0  0
  148.6398  131.2445  153.9030 F   0  0  0  0  0  0  0  0  0  0  0  0
  150.2934  130.0861  154.6590 F   0  0  0  0  0  0  0  0  0  0  0  0
  148.5822  130.4742  155.9225 F   0  0  0  0  0  0  0  0  0  0  0  0
  150.7588  132.3461  156.6485 C   0  0  0  0  0  0  0  0  0  0  0  0
  151.3928  133.4089  157.1904 N   0  5  0  0  0  0  0  0  0  0  0  0
  151.3440  134.5955  156.5214 C   0  0  0  0  0  0  0  0  0  0  0  0
  151.8984  135.6047  156.9588 O   0  0  0  0  0  0  0  0  0  0  0  0
  150.4803  138.0747  154.1556 N   0  0  0  0  0  0  0  0  0  0  0  0
  150.3313  139.5148  154.3489 C   0  0  2  0  0  0  0  0  0  0  0  0
  151.1882  139.9808  155.5377 C   0  0  0  0  0  0  0  0  0  0  0  0
  150.9634  141.4763  155.8323 C   0  0  0  0  0  0  0  0  0  0  0  0
  149.5287  141.7946  156.0511 N   0  3  2  0  0  0  0  0  0  0  0  0
  149.0213  141.3436  157.3682 C   0  0  0  0  0  0  0  0  0  0  0  0
  147.8932  142.1930  157.9059 C   0  0  0  0  0  0  0  0  0  0  0  0
  149.2833  142.3249  158.4869 C   0  0  0  0  0  0  0  0  0  0  0  0
  148.6795  141.3583  154.9127 C   0  0  0  0  0  0  0  0  0  0  0  0
  148.8543  139.8601  154.6003 C   0  0  0  0  0  0  0  0  0  0  0  0
  150.8624  135.8748  153.6253 H   0  0  0  0  0  0  0  0  0  0  0  0
  149.4889  133.5536  153.8134 H   0  0  0  0  0  0  0  0  0  0  0  0
  150.8270  131.4122  157.2463 H   0  0  0  0  0  0  0  0  0  0  0  0
  150.6914  137.7632  153.2187 H   0  0  0  0  0  0  0  0  0  0  0  0
  150.6586  140.0562  153.4594 H   0  0  0  0  0  0  0  0  0  0  0  0
  150.9520  139.3898  156.4236 H   0  0  0  0  0  0  0  0  0  0  0  0
  152.2435  139.8038  155.3263 H   0  0  0  0  0  0  0  0  0  0  0  0
  151.5506  141.7867  156.6972 H   0  0  0  0  0  0  0  0  0  0  0  0
  151.3214  142.0696  154.9897 H   0  0  0  0  0  0  0  0  0  0  0  0
  149.0411  140.2732  157.5632 H   0  0  0  0  0  0  0  0  0  0  0  0
  147.5262  143.0135  157.2918 H   0  0  0  0  0  0  0  0  0  0  0  0
  147.1418  141.6993  158.5189 H   0  0  0  0  0  0  0  0  0  0  0  0
  149.4471  141.9185  159.4829 H   0  0  0  0  0  0  0  0  0  0  0  0
  149.8386  143.2329  158.2583 H   0  0  0  0  0  0  0  0  0  0  0  0
  147.6330  141.5851  155.1190 H   0  0  0  0  0  0  0  0  0  0  0  0
  148.9534  141.9459  154.0354 H   0  0  0  0  0  0  0  0  0  0  0  0
  148.2572  139.5964  153.7264 H   0  0  0  0  0  0  0  0  0  0  0  0
  148.4654  139.2625  155.4260 H   0  0  0  0  0  0  0  0  0  0  0  0
  149.4667  142.8026  156.0753 H   0  0  0  0  0  0  0  0  0  0  0  0
  1  2  2  0  0  0  0
  2  3  1  0  0  0  0
  2 15  1  0  0  0  0
  3  4  1  0  0  0  0
  3 25  1  0  0  0  0
  4 13  1  0  0  0  0
  4  5  2  0  0  0  0
  5  6  1  0  0  0  0
  5 26  1  0  0  0  0
  6  7  1  0  0  0  0
  6 11  2  0  0  0  0
  7  8  1  0  0  0  0
  7  9  1  0  0  0  0
  7 10  1  0  0  0  0
 11 12  1  0  0  0  0
 11 27  1  0  0  0  0
 12 13  1  0  0  0  0
 13 14  2  0  0  0  0
 15 16  1  0  0  0  0
 15 28  1  0  0  0  0
 16 24  1  0  0  0  0
 16 17  1  0  0  0  0
 16 29  1  0  0  0  0
 17 18  1  0  0  0  0
 17 30  1  0  0  0  0
 17 31  1  0  0  0  0
 18 19  1  0  0  0  0
 18 32  1  0  0  0  0
 18 33  1  0  0  0  0
 19 20  1  0  0  0  0
 19 23  1  0  0  0  0
 19 43  1  0  0  0  0
 20 22  1  0  0  0  0
 20 21  1  0  0  0  0
 20 34  1  0  0  0  0
 21 22  1  0  0  0  0
 21 35  1  0  0  0  0
 21 36  1  0  0  0  0
 22 37  1  0  0  0  0
 22 38  1  0  0  0  0
 23 24  1  0  0  0  0
 23 39  1  0  0  0  0
 23 40  1  0  0  0  0
 24 41  1  0  0  0  0
 24 42  1  0  0  0  0
M  CHG  1  12  -1
M  CHG  1  19   1
M  END
> <s_m_source_file>
AV-unprocessed.smi

> <i_m_source_file_index>
1760

> <i_lp_mmshare_version>
43012

> <i_f3d_flags>
0

> <s_epik_input>
W0NIMl0xW0NIMl1bQ0hdMU4oW0NIMl1bQ0gyXTIpW0NIMl1bQ0gyXVtDSF0yW05IXUMoPU8pW05IXWMzW2NIXWMoQyhGKShGKUYpW2NIXVtuSF1jMz1P

> <s_epik_cmdline>
J2VwaWtfcHl0aG9uJywgJy1waCcsICc3LjAnLCAnLXRuJywgJzgnLCAnLW1hJywgJzIwMCcsICctbWV0YWxfYmluZGluZycsICctaW1hZScsICc8aW5maWxlLm1hZT4nLCAnLW9tYWUnLCAnPG91dGZpbGUubWFlPic=

> <r_lp_tautomer_probability>
0.999

> <r_epik_Ionization_Penalty>
3.16043

> <r_epik_Ionization_Penalty_Charging>
0.268029

> <r_epik_Ionization_Penalty_Neutral>
2.8924

> <r_epik_State_Penalty>
3.0039

> <r_epik_Charging_Adjusted_Penalty>
3.27193

> <i_epik_Tot_Q>
0

> <i_epik_Tot_abs_Q>
2

> <r_epik_Metal_State_Penalty>
0.560618

> <b_epik_Metal_Only>
1

> <s_lp_Force_Field>
OPLS_2005

> <r_lp_Energy>
41.7611

> <b_lp_Chiralities_Consistent>
1

> <s_lp_Variant>
AV-unprocessed.smi:1760-5

> <Gold.Version>
5.8.1

> <Gold.Id.Protein>
6NUR|6NUR_protein|mol2

> <Gold.PLP.Fitness>
50.1385

> <Gold.PLP.PLP>
-38.7001

> <Gold.PLP.part.hbond>
-4.3256

> <Gold.PLP.part.metal>
0.0000

> <Gold.PLP.part.buried>
-3.8896

> <Gold.PLP.part.nonpolar>
-31.2715

> <Gold.PLP.part.repulsive>
0.2846

> <Gold.PLP.ligand.clash>
0.0000

> <Gold.PLP.ligand.torsion>
1.2940

> <Gold.PLP.Chemscore.Hbond>
4.2474

> <Gold.PLP.Chemscore.CHOScore>
0.0000

> <Gold.PLP.Chemscore.Metal>
0.0000

> <Gold.Chemscore.Hbonds>
donor molecule, donor type, donor heavy atom, donor atom, acceptor molecule, acceptor atom, score
      L1  H     3    25       P1  7949  0.49
      L1  H    19    43       P1  8028  1.92
      P1  H  6896  6909       L1    12  1.21
      P1  H 10752 10764       L1    14  0.02

> <Gold.PLP.Chemscore.Internal.Correction>
1.2841

> <Gold.Rescore>
     Score         DG    S(hbond)    S(metal)    S(lipo)     H(rot)  DE(clash)    DE(int)     intcor
     11.30     -16.07       1.80        0.00      67.11       1.28       0.03       4.74       ----

> <Gold.Chemscore.Fitness>
11.3034

> <Gold.Chemscore.DG>
-16.0671

> <Gold.Chemscore.ZeroCoef>
-5.4800

> <Gold.Chemscore.Hbond>
1.7992

> <Gold.Chemscore.Metal>
0.0000

> <Gold.Chemscore.Lipo>
67.1058

> <Gold.Chemscore.Internal_Hbond>
0.0000

> <Gold.Chemscore.DEClash>
0.0261

> <Gold.Chemscore.DEInternal>
4.7376

> <Gold.Chemscore.Rot>
1.2787

> <Gold.Chemscore.Internal.Correction>
   9.000000E+99

> <Gold.Chemscore.Hbonds>
donor molecule, donor type, donor heavy atom, donor atom, acceptor molecule, acceptor atom, score
      L1  H     3    25       P1  7949  0.05
      L1  H    19    43       P1  8028  0.91
      P1  H  6896  6909       L1    12  0.41

> <Gold.Chemscore.Hbond.Weighted>
-6.0093

> <Gold.Chemscore.Metal.Weighted>
-0.0000

> <Gold.Chemscore.Lipo.Weighted>
-7.8514

> <Gold.Chemscore.Internal_Hbond.Weighted>
0.0000

> <Gold.Chemscore.DEClash.Weighted>
0.0261

> <Gold.Chemscore.DEInternal.Weighted>
4.7376

> <Gold.Chemscore.Rot.Weighted>
3.2735

> <Gold.Chemscore.Internal.Correction.Weighted>
   9.000000E+99

> <Gold.Protein.RotatedTorsions>
[ 6907 6896 6895 6894 ] final  -21.80 input  -60.11 | X-H torsion
[ 7974 7965 7964 7962 ] final  178.59 input  175.53 | X-H torsion
[ 8008 7997 7996 7995 ] final  -22.47 input   59.86 | X-H torsion
[ 10167 10162 10161 10158 ] final  -48.04 input  -65.29 | X-H torsion
[ 10718 10713 10712 10709 ] final  -67.64 input   66.30 | X-H torsion
[ 10763 10752 10751 10750 ] final   10.59 input  -60.55 | X-H torsion
[ 11005 11000 10999 10996 ] final    1.25 input  -57.11 | X-H torsion

> <Gold.Protein.ActiveResidues>
 VAL166  LYS551  ARG553  GLY616  TRP617  ASP618  TYR619  PRO620  LYS621  CYS622 
 ASP623  PHE694  ASN695  SER759  ASP760  ASP761  ALA762  ILE779  LEU786  VAL792 
 PHE793  MET794  SER795  GLU796  ALA797  LYS798  CYS799  TRP800  GLU811  SER814 

> <Gold.Protein.RotatedAtoms>
  151.2280  135.0543  159.8975 H   0  0  0  0  0  0  0  0  0  0  0  0  # atno 6907 bound_to 6896
  152.5408  134.0568  159.8145 H   0  0  0  0  0  0  0  0  0  0  0  0  # atno 6908 bound_to 6896
  151.0744  133.5392  159.2656 H   0  0  0  0  0  0  0  0  0  0  0  0  # atno 6909 bound_to 6896
  144.7154  140.0420  143.6437 H   0  0  0  0  0  0  0  0  0  0  0  0  # atno 7974 bound_to 7965
  154.4642  140.2007  156.0163 H   0  0  0  0  0  0  0  0  0  0  0  0  # atno 8008 bound_to 7997
  156.0896  140.3260  155.7770 H   0  0  0  0  0  0  0  0  0  0  0  0  # atno 8009 bound_to 7997
  155.4978  140.0551  157.2934 H   0  0  0  0  0  0  0  0  0  0  0  0  # atno 8010 bound_to 7997
  140.6748  143.2757  151.4014 H   0  0  0  0  0  0  0  0  0  0  0  0  # atno 10167 bound_to 10162
  156.0547  130.4281  150.1884 H   0  0  0  0  0  0  0  0  0  0  0  0  # atno 10718 bound_to 10713
  153.2016  135.6857  153.8224 H   0  0  0  0  0  0  0  0  0  0  0  0  # atno 10763 bound_to 10752
  153.7488  135.3227  155.3318 H   0  0  0  0  0  0  0  0  0  0  0  0  # atno 10764 bound_to 10752
  154.8174  135.4676  154.0785 H   0  0  0  0  0  0  0  0  0  0  0  0  # atno 10765 bound_to 10752
  140.6175  133.9692  155.8208 H   0  0  0  0  0  0  0  0  0  0  0  0  # atno 11005 bound_to 11000
  146.0016  139.3095  143.0924 LP  0  0  0  0  0  0  0  0  0  0  0  0  # atno 17320 bound_to 7965
  145.8787  140.9376  143.0612 LP  0  0  0  0  0  0  0  0  0  0  0  0  # atno 17321 bound_to 7965
  139.6035  144.1246  152.2224 LP  0  0  0  0  0  0  0  0  0  0  0  0  # atno 17342 bound_to 10162
  140.0637  144.5835  150.7243 LP  0  0  0  0  0  0  0  0  0  0  0  0  # atno 17343 bound_to 10162
  156.9962  130.9908  151.3402 LP  0  0  0  0  0  0  0  0  0  0  0  0  # atno 17370 bound_to 10713
  157.5506  130.8180  149.8140 LP  0  0  0  0  0  0  0  0  0  0  0  0  # atno 17371 bound_to 10713
  141.0765  134.0126  157.3449 LP  0  0  0  0  0  0  0  0  0  0  0  0  # atno 17394 bound_to 11000
  139.9167  135.0197  156.7908 LP  0  0  0  0  0  0  0  0  0  0  0  0  # atno 17395 bound_to 11000

$$$$
