AV-unprocessed.smi:72|AV-procd|sdf|694|dock8
  -GOLD-   2262017 13D 1   1.00000     0.00000
 Structure written by MMmdl.
 29 30  0  0  0  0  0  0  0  0  1 V2000
  147.2583  142.6402  154.1642 N   0  0  0  0  0  0  0  0  0  0  0  0
  148.0901  141.6775  154.3423 C   0  0  0  0  0  0  0  0  0  0  0  0
  147.9423  140.3739  153.8448 N   0  0  0  0  0  0  0  0  0  0  0  0
  148.8609  139.4982  154.1154 C   0  0  0  0  0  0  0  0  0  0  0  0
  150.0270  139.8223  154.9226 N   0  0  0  0  0  0  0  0  0  0  0  0
  151.0902  138.7889  155.2157 C   0  0  1  0  0  0  0  0  0  0  0  0
  151.3548  138.7825  156.5883 O   0  0  0  0  0  0  0  0  0  0  0  0
  151.4107  137.4415  157.0641 C   0  0  1  0  0  0  0  0  0  0  0  0
  151.0632  137.4055  158.5602 C   0  0  0  0  0  0  0  0  0  0  0  0
  150.4381  136.1821  158.8839 O   0  0  0  0  0  0  0  0  0  0  0  0
  150.3808  136.7381  156.1790 C   0  0  2  0  0  0  0  0  0  0  0  0
  150.5279  135.3307  156.1627 O   0  0  0  0  0  0  0  0  0  0  0  0
  150.6054  137.3861  154.8164 C   0  0  2  0  0  0  0  0  0  0  0  0
  151.5860  136.7148  154.0468 O   0  0  0  0  0  0  0  0  0  0  0  0
  150.2080  141.1417  155.4033 C   0  0  0  0  0  0  0  0  0  0  0  0
  151.1994  141.4808  156.0490 O   0  0  0  0  0  0  0  0  0  0  0  0
  149.2208  142.0119  155.0988 N   0  0  0  0  0  0  0  0  0  0  0  0
  151.9909  139.1112  154.6902 H   0  0  0  0  0  0  0  0  0  0  0  0
  152.4040  137.0294  156.8742 H   0  0  0  0  0  0  0  0  0  0  0  0
  149.3756  136.9824  156.5259 H   0  0  0  0  0  0  0  0  0  0  0  0
  149.6832  137.4350  154.2354 H   0  0  0  0  0  0  0  0  0  0  0  0
  147.5941  143.4768  154.6197 H   0  0  0  0  0  0  0  0  0  0  0  0
  148.8192  138.4703  153.7531 H   0  0  0  0  0  0  0  0  0  0  0  0
  151.9496  137.5552  159.1774 H   0  0  0  0  0  0  0  0  0  0  0  0
  150.3616  138.2042  158.8019 H   0  0  0  0  0  0  0  0  0  0  0  0
  149.7380  136.3541  159.4948 H   0  0  0  0  0  0  0  0  0  0  0  0
  149.9013  134.9707  155.5539 H   0  0  0  0  0  0  0  0  0  0  0  0
  151.2978  136.6922  153.1469 H   0  0  0  0  0  0  0  0  0  0  0  0
  149.3125  142.9602  155.4324 H   0  0  0  0  0  0  0  0  0  0  0  0
  1  2  2  0  0  0  0
  1 22  1  0  0  0  0
  2 17  1  0  0  0  0
  2  3  1  0  0  0  0
  3  4  2  0  0  0  0
  4  5  1  0  0  0  0
  4 23  1  0  0  0  0
  5  6  1  0  0  0  0
  5 15  1  0  0  0  0
  6 18  1  0  0  0  0
  6 13  1  0  0  0  0
  6  7  1  0  0  0  0
  7  8  1  0  0  0  0
  8 19  1  0  0  0  0
  8  9  1  0  0  0  0
  8 11  1  0  0  0  0
  9 10  1  0  0  0  0
  9 24  1  0  0  0  0
  9 25  1  0  0  0  0
 10 26  1  0  0  0  0
 11 20  1  0  0  0  0
 11 12  1  0  0  0  0
 11 13  1  0  0  0  0
 12 27  1  0  0  0  0
 13 21  1  0  0  0  0
 13 14  1  0  0  0  0
 14 28  1  0  0  0  0
 15 16  2  0  0  0  0
 15 17  1  0  0  0  0
 17 29  1  0  0  0  0
M  END
> <s_m_source_file>
AV-unprocessed.smi

> <i_m_source_file_index>
72

> <i_lp_mmshare_version>
43012

> <i_f3d_flags>
0

> <s_epik_input>
W05IMl1jMW5bY0hdbihjKD1PKW4xKVtDQEBIXTJPW0NASF0oW0NIMl1bT0hdKVtDQEBIXShbT0hdKVtDQEhdMltPSF0=

> <s_epik_cmdline>
J2VwaWtfcHl0aG9uJywgJy1waCcsICc3LjAnLCAnLXRuJywgJzgnLCAnLW1hJywgJzIwMCcsICctbWV0YWxfYmluZGluZycsICctaW1hZScsICc8aW5maWxlLm1hZT4nLCAnLW9tYWUnLCAnPG91dGZpbGUubWFlPic=

> <r_lp_tautomer_probability>
7.17554e-07

> <r_epik_Ionization_Penalty>
0.0066451

> <r_epik_Ionization_Penalty_Charging>
0.00663793

> <r_epik_Ionization_Penalty_Neutral>
7.17052e-06

> <r_epik_State_Penalty>
0.419231

> <r_epik_Charging_Adjusted_Penalty>
0.425868

> <i_epik_Tot_Q>
0

> <i_epik_Tot_abs_Q>
0

> <r_epik_Metal_State_Penalty>
1.44144

> <b_epik_Metal_Only>
0

> <s_epik_Chemistry_Notes>
This compound contains an acetal/aminal-like group ( X-CH(R)-Y where X, Y are N, S, or O) that may be acid/base labile, releasing an aldehyde.

> <s_lp_Force_Field>
OPLS_2005

> <r_lp_Energy>
41.633

> <b_lp_Chiralities_Consistent>
1

> <s_lp_Variant>
AV-unprocessed.smi:72-32

> <Gold.Version>
5.8.1

> <Gold.Id.Protein>
6NUR|6NUR_protein|mol2

> <Gold.PLP.Fitness>
38.5390

> <Gold.PLP.PLP>
-24.1048

> <Gold.PLP.part.hbond>
-5.1914

> <Gold.PLP.part.metal>
0.0000

> <Gold.PLP.part.buried>
-4.6653

> <Gold.PLP.part.nonpolar>
-15.9358

> <Gold.PLP.part.repulsive>
0.7775

> <Gold.PLP.ligand.clash>
0.0000

> <Gold.PLP.ligand.torsion>
0.5175

> <Gold.PLP.Chemscore.Hbond>
5.0000

> <Gold.PLP.Chemscore.CHOScore>
0.1504

> <Gold.PLP.Chemscore.Metal>
0.0000

> <Gold.Chemscore.Hbonds>
donor molecule, donor type, donor heavy atom, donor atom, acceptor molecule, acceptor atom, score
      L1  H     1    22       P1  8028  1.00
      L1  H    14    28       P1  7949  1.00
      L1  H    17    29       P1  8028  1.00
      P1  H  6896  6909       L1    10  0.50
      P1  H 10752 10764       L1    14  1.00
      L1  C     4    23       P1  7948  0.04

> <Gold.PLP.Chemscore.Internal.Correction>
0.0180

> <Gold.Rescore>
     Score         DG    S(hbond)    S(metal)    S(lipo)     H(rot)  DE(clash)    DE(int)     intcor
      7.08      -9.08       3.62        0.00      16.34       4.06       0.34       1.66       ----

> <Gold.Chemscore.Fitness>
7.0806

> <Gold.Chemscore.DG>
-9.0755

> <Gold.Chemscore.ZeroCoef>
-5.4800

> <Gold.Chemscore.Hbond>
3.6159

> <Gold.Chemscore.Metal>
0.0000

> <Gold.Chemscore.Lipo>
16.3415

> <Gold.Chemscore.Internal_Hbond>
0.0000

> <Gold.Chemscore.DEClash>
0.3397

> <Gold.Chemscore.DEInternal>
1.6553

> <Gold.Chemscore.Rot>
4.0600

> <Gold.Chemscore.Internal.Correction>
   9.000000E+99

> <Gold.Chemscore.Hbonds>
donor molecule, donor type, donor heavy atom, donor atom, acceptor molecule, acceptor atom, score
      L1  H     1    22       P1  8028  0.33
      L1  H    14    28       P1  7949  0.69
      L1  H    17    29       P1  8028  0.99
      P1  H  6896  6909       L1    10  0.03
      P1  H 10752 10764       L1    14  0.70

> <Gold.Chemscore.Hbond.Weighted>
-12.0772

> <Gold.Chemscore.Metal.Weighted>
-0.0000

> <Gold.Chemscore.Lipo.Weighted>
-1.9120

> <Gold.Chemscore.Internal_Hbond.Weighted>
0.0000

> <Gold.Chemscore.DEClash.Weighted>
0.3397

> <Gold.Chemscore.DEInternal.Weighted>
1.6553

> <Gold.Chemscore.Rot.Weighted>
10.3936

> <Gold.Chemscore.Internal.Correction.Weighted>
   9.000000E+99

> <Gold.Protein.RotatedTorsions>
[ 6907 6896 6895 6894 ] final   62.63 input  -60.11 | X-H torsion
[ 7974 7965 7964 7962 ] final -152.26 input  175.53 | X-H torsion
[ 8008 7997 7996 7995 ] final  -45.15 input   59.86 | X-H torsion
[ 10167 10162 10161 10158 ] final  -60.40 input  -65.29 | X-H torsion
[ 10718 10713 10712 10709 ] final  -34.33 input   66.30 | X-H torsion
[ 10763 10752 10751 10750 ] final  -79.54 input  -60.55 | X-H torsion
[ 11005 11000 10999 10996 ] final -126.68 input  -57.11 | X-H torsion

> <Gold.Protein.ActiveResidues>
 VAL166  LYS551  ARG553  GLY616  TRP617  ASP618  TYR619  PRO620  LYS621  CYS622 
 ASP623  PHE694  ASN695  SER759  ASP760  ASP761  ALA762  ILE779  LEU786  VAL792 
 PHE793  MET794  SER795  GLU796  ALA797  LYS798  CYS799  TRP800  GLU811  SER814 

> <Gold.Protein.RotatedAtoms>
  152.4188  134.5993  159.9995 H   0  0  0  0  0  0  0  0  0  0  0  0  # atno 6907 bound_to 6896
  151.6149  133.3338  159.3083 H   0  0  0  0  0  0  0  0  0  0  0  0  # atno 6908 bound_to 6896
  150.8076  134.7250  159.6724 H   0  0  0  0  0  0  0  0  0  0  0  0  # atno 6909 bound_to 6896
  144.7804  140.4686  143.5843 H   0  0  0  0  0  0  0  0  0  0  0  0  # atno 7974 bound_to 7965
  154.4000  140.1404  156.3800 H   0  0  0  0  0  0  0  0  0  0  0  0  # atno 8008 bound_to 7997
  155.8012  140.3476  155.5383 H   0  0  0  0  0  0  0  0  0  0  0  0  # atno 8009 bound_to 7997
  155.8481  140.0937  157.1682 H   0  0  0  0  0  0  0  0  0  0  0  0  # atno 8010 bound_to 7997
  140.6073  143.2377  151.5790 H   0  0  0  0  0  0  0  0  0  0  0  0  # atno 10167 bound_to 10162
  156.3518  130.4309  149.7698 H   0  0  0  0  0  0  0  0  0  0  0  0  # atno 10718 bound_to 10713
  154.5399  135.5692  153.6830 H   0  0  0  0  0  0  0  0  0  0  0  0  # atno 10763 bound_to 10752
  152.9961  135.6225  154.2516 H   0  0  0  0  0  0  0  0  0  0  0  0  # atno 10764 bound_to 10752
  154.2446  135.2861  155.2820 H   0  0  0  0  0  0  0  0  0  0  0  0  # atno 10765 bound_to 10752
  140.9662  134.0869  157.3918 H   0  0  0  0  0  0  0  0  0  0  0  0  # atno 11005 bound_to 11000
  145.6067  139.1509  143.3099 LP  0  0  0  0  0  0  0  0  0  0  0  0  # atno 17320 bound_to 7965
  146.2009  140.6185  142.9103 LP  0  0  0  0  0  0  0  0  0  0  0  0  # atno 17321 bound_to 7965
  139.5335  144.2848  152.1200 LP  0  0  0  0  0  0  0  0  0  0  0  0  # atno 17342 bound_to 10162
  140.2040  144.4629  150.6417 LP  0  0  0  0  0  0  0  0  0  0  0  0  # atno 17343 bound_to 10162
  156.4895  130.8078  151.3089 LP  0  0  0  0  0  0  0  0  0  0  0  0  # atno 17370 bound_to 10713
  157.7462  130.9980  150.2836 LP  0  0  0  0  0  0  0  0  0  0  0  0  # atno 17371 bound_to 10713
  139.8895  135.0105  156.6684 LP  0  0  0  0  0  0  0  0  0  0  0  0  # atno 17394 bound_to 11000
  140.7396  133.8989  155.8268 LP  0  0  0  0  0  0  0  0  0  0  0  0  # atno 17395 bound_to 11000

$$$$
