AV-unprocessed.smi:1740|AV-procd|sdf|7015|dock6
  -GOLD-   22720 8233D 1   1.00000     0.00000
 Structure written by MMmdl.
 52 54  0  0  0  0  0  0  0  0  4 V2000
  142.0226  140.8815  154.7522 N   0  5  0  0  0  0  0  0  0  0  0  0
  142.9043  141.5107  155.5548 C   0  0  0  0  0  0  0  0  0  0  0  0
  142.8361  142.6521  156.0043 O   0  0  0  0  0  0  0  0  0  0  0  0
  144.1077  140.6286  155.9040 C   0  0  0  0  0  0  0  0  0  0  0  0
  145.2603  140.9311  155.0171 N   0  3  2  0  0  0  0  0  0  0  0  0
  146.3967  139.9865  155.1884 C   0  0  0  0  0  0  0  0  0  0  0  0
  147.5122  140.2603  154.1628 C   0  0  0  0  0  0  0  0  0  0  0  0
  147.9994  141.7188  154.2136 C   0  0  2  0  0  0  0  0  0  0  0  0
  148.7600  141.9624  155.4391 N   0  0  0  0  0  0  0  0  0  0  0  0
  149.6306  141.1068  155.9932 C   0  0  0  0  0  0  0  0  0  0  0  0
  149.8823  139.9937  155.5323 O   0  0  0  0  0  0  0  0  0  0  0  0
  150.2026  141.6318  157.0891 N   0  0  0  0  0  0  0  0  0  0  0  0
  151.2423  141.0577  157.8714 C   0  0  0  0  0  0  0  0  0  0  0  0
  151.6152  139.7014  157.6912 C   0  0  0  0  0  0  0  0  0  0  0  0
  152.5958  139.1261  158.5206 C   0  0  0  0  0  0  0  0  0  0  0  0
  153.1777  139.9119  159.5299 C   0  0  0  0  0  0  0  0  0  0  0  0
  152.7929  141.1957  159.6839 N   0  3  0  0  0  0  0  0  0  0  0  0
  151.8658  141.8119  158.9081 C   0  0  0  0  0  0  0  0  0  0  0  0
  151.5764  143.1691  159.1810 N   0  0  0  0  0  0  0  0  0  0  0  0
  151.8812  143.7397  160.4879 C   0  0  0  0  0  0  0  0  0  0  0  0
  151.7574  145.2491  160.3006 C   0  0  0  0  0  0  0  0  0  0  0  0
  152.2599  145.4451  158.8733 C   0  0  0  0  0  0  0  0  0  0  0  0
  151.8031  144.1753  158.1479 C   0  0  0  0  0  0  0  0  0  0  0  0
  146.7920  142.6696  154.0913 C   0  0  0  0  0  0  0  0  0  0  0  0
  145.6974  142.3459  155.1234 C   0  0  0  0  0  0  0  0  0  0  0  0
  142.2707  140.7379  153.7658 H   0  0  0  0  0  0  0  0  0  0  0  0
  144.3694  140.8183  156.9465 H   0  0  0  0  0  0  0  0  0  0  0  0
  143.8431  139.5720  155.8378 H   0  0  0  0  0  0  0  0  0  0  0  0
  146.7879  140.0681  156.2037 H   0  0  0  0  0  0  0  0  0  0  0  0
  146.0522  138.9588  155.0690 H   0  0  0  0  0  0  0  0  0  0  0  0
  148.3462  139.5761  154.3238 H   0  0  0  0  0  0  0  0  0  0  0  0
  147.1335  140.0447  153.1628 H   0  0  0  0  0  0  0  0  0  0  0  0
  148.6659  141.8830  153.3647 H   0  0  0  0  0  0  0  0  0  0  0  0
  148.6128  142.8513  155.8944 H   0  0  0  0  0  0  0  0  0  0  0  0
  149.9707  142.5911  157.3014 H   0  0  0  0  0  0  0  0  0  0  0  0
  151.1446  139.0870  156.9380 H   0  0  0  0  0  0  0  0  0  0  0  0
  152.8865  138.0937  158.3917 H   0  0  0  0  0  0  0  0  0  0  0  0
  153.9308  139.5550  160.2172 H   0  0  0  0  0  0  0  0  0  0  0  0
  151.2005  143.3693  161.2549 H   0  0  0  0  0  0  0  0  0  0  0  0
  152.9014  143.4899  160.7821 H   0  0  0  0  0  0  0  0  0  0  0  0
  150.7116  145.5510  160.3722 H   0  0  0  0  0  0  0  0  0  0  0  0
  152.3261  145.8170  161.0370 H   0  0  0  0  0  0  0  0  0  0  0  0
  151.8820  146.3567  158.4099 H   0  0  0  0  0  0  0  0  0  0  0  0
  153.3495  145.4958  158.8736 H   0  0  0  0  0  0  0  0  0  0  0  0
  152.5415  143.8527  157.4128 H   0  0  0  0  0  0  0  0  0  0  0  0
  150.8631  144.3618  157.6281 H   0  0  0  0  0  0  0  0  0  0  0  0
  147.1065  143.7088  154.1929 H   0  0  0  0  0  0  0  0  0  0  0  0
  146.3701  142.5818  153.0891 H   0  0  0  0  0  0  0  0  0  0  0  0
  144.8453  143.0057  154.9553 H   0  0  0  0  0  0  0  0  0  0  0  0
  146.0556  142.5434  156.1350 H   0  0  0  0  0  0  0  0  0  0  0  0
  144.9105  140.8085  154.0765 H   0  0  0  0  0  0  0  0  0  0  0  0
  153.2338  141.7391  160.4261 H   0  0  0  0  0  0  0  0  0  0  0  0
  1  2  1  0  0  0  0
  1 26  1  0  0  0  0
  2  3  2  0  0  0  0
  2  4  1  0  0  0  0
  4  5  1  0  0  0  0
  4 27  1  0  0  0  0
  4 28  1  0  0  0  0
  5 25  1  0  0  0  0
  5  6  1  0  0  0  0
  5 51  1  0  0  0  0
  6  7  1  0  0  0  0
  6 29  1  0  0  0  0
  6 30  1  0  0  0  0
  7  8  1  0  0  0  0
  7 31  1  0  0  0  0
  7 32  1  0  0  0  0
  8  9  1  0  0  0  0
  8 24  1  0  0  0  0
  8 33  1  0  0  0  0
  9 10  1  0  0  0  0
  9 34  1  0  0  0  0
 10 11  2  0  0  0  0
 10 12  1  0  0  0  0
 12 13  1  0  0  0  0
 12 35  1  0  0  0  0
 13 18  1  0  0  0  0
 13 14  2  0  0  0  0
 14 15  1  0  0  0  0
 14 36  1  0  0  0  0
 15 16  2  0  0  0  0
 15 37  1  0  0  0  0
 16 17  1  0  0  0  0
 16 38  1  0  0  0  0
 17 18  2  0  0  0  0
 17 52  1  0  0  0  0
 18 19  1  0  0  0  0
 19 23  1  0  0  0  0
 19 20  1  0  0  0  0
 20 21  1  0  0  0  0
 20 39  1  0  0  0  0
 20 40  1  0  0  0  0
 21 22  1  0  0  0  0
 21 41  1  0  0  0  0
 21 42  1  0  0  0  0
 22 23  1  0  0  0  0
 22 43  1  0  0  0  0
 22 44  1  0  0  0  0
 23 45  1  0  0  0  0
 23 46  1  0  0  0  0
 24 25  1  0  0  0  0
 24 47  1  0  0  0  0
 24 48  1  0  0  0  0
 25 49  1  0  0  0  0
 25 50  1  0  0  0  0
M  CHG  1   1  -1
M  CHG  1   5   1
M  CHG  1  17   1
M  END
> <s_m_source_file>
AV-unprocessed.smi

> <i_m_source_file_index>
1740

> <i_lp_mmshare_version>
43012

> <i_f3d_flags>
0

> <s_epik_input>
W05IMl1DKD1PKVtDSDJdTjFbQ0gyXVtDSDJdW0NIXShbQ0gyXVtDSDJdMSlbTkhdQyg9TylbTkhdYzJbY0hdW2NIXVtjSF1uYzJOM1tDSDJdW0NIMl1bQ0gyXVtDSDJdMw==

> <s_epik_cmdline>
J2VwaWtfcHl0aG9uJywgJy1waCcsICc3LjAnLCAnLXRuJywgJzgnLCAnLW1hJywgJzIwMCcsICctbWV0YWxfYmluZGluZycsICctaW1hZScsICc8aW5maWxlLm1hZT4nLCAnLW9tYWUnLCAnPG91dGZpbGUubWFlPic=

> <r_lp_tautomer_probability>
0.999994

> <r_epik_Ionization_Penalty>
6.97817

> <r_epik_Ionization_Penalty_Charging>
6.97815

> <r_epik_Ionization_Penalty_Neutral>
1.88285e-05

> <r_epik_State_Penalty>
7.80985

> <r_epik_Charging_Adjusted_Penalty>
14.788

> <i_epik_Tot_Q>
1

> <i_epik_Tot_abs_Q>
3

> <r_epik_Metal_State_Penalty>
3.85728

> <b_epik_Metal_Only>
1

> <s_lp_Force_Field>
OPLS_2005

> <r_lp_Energy>
44.1168

> <b_lp_Chiralities_Consistent>
1

> <s_lp_Variant>
AV-unprocessed.smi:1740-10

> <Gold.Version>
5.8.1

> <Gold.Id.Protein>
6NUR|6NUR_protein|mol2

> <Gold.PLP.Fitness>
53.0864

> <Gold.PLP.PLP>
-43.0891

> <Gold.PLP.part.hbond>
-3.5564

> <Gold.PLP.part.metal>
0.0000

> <Gold.PLP.part.buried>
-7.8396

> <Gold.PLP.part.nonpolar>
-33.2408

> <Gold.PLP.part.repulsive>
0.4262

> <Gold.PLP.ligand.clash>
0.0000

> <Gold.PLP.ligand.torsion>
0.9259

> <Gold.PLP.Chemscore.Hbond>
3.7920

> <Gold.PLP.Chemscore.CHOScore>
0.0000

> <Gold.PLP.Chemscore.Metal>
0.0000

> <Gold.Chemscore.Hbonds>
donor molecule, donor type, donor heavy atom, donor atom, acceptor molecule, acceptor atom, score
      L1  H     1    26       P1 10175  0.88
      L1  H     5    51       P1 10175  1.98
      L1  H     9    34       P1  8028  0.85

> <Gold.PLP.Chemscore.Internal.Correction>
0.4730

> <Gold.Rescore>
     Score         DG    S(hbond)    S(metal)    S(lipo)     H(rot)  DE(clash)    DE(int)     intcor
     16.24     -20.29       2.62        0.00      99.56       2.18       0.03       4.02       ----

> <Gold.Chemscore.Fitness>
16.2385

> <Gold.Chemscore.DG>
-20.2938

> <Gold.Chemscore.ZeroCoef>
-5.4800

> <Gold.Chemscore.Hbond>
2.6212

> <Gold.Chemscore.Metal>
0.0000

> <Gold.Chemscore.Lipo>
99.5559

> <Gold.Chemscore.Internal_Hbond>
0.0000

> <Gold.Chemscore.DEClash>
0.0343

> <Gold.Chemscore.DEInternal>
4.0210

> <Gold.Chemscore.Rot>
2.1832

> <Gold.Chemscore.Internal.Correction>
   9.000000E+99

> <Gold.Chemscore.Hbonds>
donor molecule, donor type, donor heavy atom, donor atom, acceptor molecule, acceptor atom, score
      L1  H     1    26       P1 10175  0.17
      L1  H     5    51       P1 10175  0.89
      L1  H     9    34       P1  8028  0.83

> <Gold.Chemscore.Hbond.Weighted>
-8.7549

> <Gold.Chemscore.Metal.Weighted>
-0.0000

> <Gold.Chemscore.Lipo.Weighted>
-11.6480

> <Gold.Chemscore.Internal_Hbond.Weighted>
0.0000

> <Gold.Chemscore.DEClash.Weighted>
0.0343

> <Gold.Chemscore.DEInternal.Weighted>
4.0210

> <Gold.Chemscore.Rot.Weighted>
5.5891

> <Gold.Chemscore.Internal.Correction.Weighted>
   9.000000E+99

> <Gold.Protein.RotatedTorsions>
[ 6907 6896 6895 6894 ] final  143.82 input  -60.11 | X-H torsion
[ 7974 7965 7964 7962 ] final  -12.21 input  175.53 | X-H torsion
[ 8008 7997 7996 7995 ] final -157.87 input   59.86 | X-H torsion
[ 10167 10162 10161 10158 ] final  131.93 input  -65.29 | X-H torsion
[ 10718 10713 10712 10709 ] final  161.42 input   66.30 | X-H torsion
[ 10763 10752 10751 10750 ] final  172.68 input  -60.55 | X-H torsion
[ 11005 11000 10999 10996 ] final   26.44 input  -57.11 | X-H torsion

> <Gold.Protein.ActiveResidues>
 VAL166  LYS551  ARG553  GLY616  TRP617  ASP618  TYR619  PRO620  LYS621  CYS622 
 ASP623  PHE694  ASN695  SER759  ASP760  ASP761  ALA762  ILE779  LEU786  VAL792 
 PHE793  MET794  SER795  GLU796  ALA797  LYS798  CYS799  TRP800  GLU811  SER814 

> <Gold.Protein.RotatedAtoms>
  152.2014  133.4844  159.5060 H   0  0  0  0  0  0  0  0  0  0  0  0  # atno 6907 bound_to 6896
  150.6970  134.1585  159.4176 H   0  0  0  0  0  0  0  0  0  0  0  0  # atno 6908 bound_to 6896
  151.9503  135.0172  160.0592 H   0  0  0  0  0  0  0  0  0  0  0  0  # atno 6909 bound_to 6896
  146.2160  140.3024  142.8376 H   0  0  0  0  0  0  0  0  0  0  0  0  # atno 7974 bound_to 7965
  155.7389  140.0811  157.2255 H   0  0  0  0  0  0  0  0  0  0  0  0  # atno 8008 bound_to 7997
  154.4024  140.1581  156.2649 H   0  0  0  0  0  0  0  0  0  0  0  0  # atno 8009 bound_to 7997
  155.9039  140.3408  155.6050 H   0  0  0  0  0  0  0  0  0  0  0  0  # atno 8010 bound_to 7997
  139.5362  144.6684  151.4779 H   0  0  0  0  0  0  0  0  0  0  0  0  # atno 10167 bound_to 10162
  157.1368  131.0530  151.2345 H   0  0  0  0  0  0  0  0  0  0  0  0  # atno 10718 bound_to 10713
  154.4295  135.2759  155.1922 H   0  0  0  0  0  0  0  0  0  0  0  0  # atno 10763 bound_to 10752
  154.3834  135.6082  153.5806 H   0  0  0  0  0  0  0  0  0  0  0  0  # atno 10764 bound_to 10752
  152.9835  135.5886  154.4604 H   0  0  0  0  0  0  0  0  0  0  0  0  # atno 10765 bound_to 10752
  140.3370  134.2374  155.7694 H   0  0  0  0  0  0  0  0  0  0  0  0  # atno 11005 bound_to 11000
  144.9048  140.7686  143.5844 LP  0  0  0  0  0  0  0  0  0  0  0  0  # atno 17320 bound_to 7965
  145.2951  139.1870  143.4719 LP  0  0  0  0  0  0  0  0  0  0  0  0  # atno 17321 bound_to 7965
  140.6569  143.8580  150.6845 LP  0  0  0  0  0  0  0  0  0  0  0  0  # atno 17342 bound_to 10162
  140.1963  143.3996  152.1826 LP  0  0  0  0  0  0  0  0  0  0  0  0  # atno 17343 bound_to 10162
  157.4343  130.7508  149.7016 LP  0  0  0  0  0  0  0  0  0  0  0  0  # atno 17370 bound_to 10713
  155.9796  130.4038  150.3575 LP  0  0  0  0  0  0  0  0  0  0  0  0  # atno 17371 bound_to 10713
  141.2048  133.7876  157.0265 LP  0  0  0  0  0  0  0  0  0  0  0  0  # atno 17394 bound_to 11000
  140.0812  134.9647  157.1628 LP  0  0  0  0  0  0  0  0  0  0  0  0  # atno 17395 bound_to 11000

$$$$
