AV-unprocessed.smi:2473|AV-procd|sdf|9746|dock3
  -GOLD-   2272013383D 1   1.00000     0.00000
 Structure written by MMmdl.
 48 49  0  0  0  0  0  0  0  0  2 V2000
  153.1747  137.2013  158.3779 C   0  0  0  0  0  0  0  0  0  0  0  0
  152.1678  137.4684  157.2498 C   0  0  1  0  0  0  0  0  0  0  0  0
  152.8291  138.2323  156.0850 C   0  0  0  0  0  0  0  0  0  0  0  0
  151.8722  138.4985  154.9001 C   0  0  2  0  0  0  0  0  0  0  0  0
  150.9226  139.6929  155.1116 C   0  0  0  0  0  0  0  0  0  0  0  0
  150.3703  140.2477  154.1612 O   0  0  0  0  0  0  0  0  0  0  0  0
  150.7105  140.0593  156.3843 N   0  0  0  0  0  0  0  0  0  0  0  0
  149.8429  141.1558  156.7898 C   0  0  0  0  0  0  0  0  0  0  0  0
  150.1342  141.5674  158.2383 C   0  0  0  0  0  0  0  0  0  0  0  0
  151.1132  142.6960  158.3317 C   0  0  0  0  0  0  0  0  0  0  0  0
  151.0042  143.8719  157.7022 N   0  3  0  0  0  0  0  0  0  0  0  0
  152.0616  144.6816  158.0170 C   0  0  0  0  0  0  0  0  0  0  0  0
  152.8489  143.9702  158.8842 C   0  0  0  0  0  0  0  0  0  0  0  0
  152.2393  142.7546  159.0622 N   0  0  0  0  0  0  0  0  0  0  0  0
  152.7123  141.6572  159.9088 C   0  0  0  0  0  0  0  0  0  0  0  0
  151.1471  137.1991  154.4655 C   0  0  0  0  0  0  0  0  0  0  0  0
  150.5105  136.3541  155.6031 C   0  0  0  0  0  0  0  0  0  0  0  0
  149.2050  136.9836  156.1375 C   0  0  0  0  0  0  0  0  0  0  0  0
  150.1428  134.9706  155.0291 C   0  0  0  0  0  0  0  0  0  0  0  0
  151.5393  136.1553  156.7427 C   0  0  0  0  0  0  0  0  0  0  0  0
  154.0067  136.5871  158.0319 H   0  0  0  0  0  0  0  0  0  0  0  0
  152.7014  136.6814  159.2114 H   0  0  0  0  0  0  0  0  0  0  0  0
  153.5867  138.1339  158.7640 H   0  0  0  0  0  0  0  0  0  0  0  0
  151.3805  138.0874  157.6772 H   0  0  0  0  0  0  0  0  0  0  0  0
  153.2481  139.1719  156.4486 H   0  0  0  0  0  0  0  0  0  0  0  0
  153.6800  137.6548  155.7207 H   0  0  0  0  0  0  0  0  0  0  0  0
  152.5036  138.8008  154.0630 H   0  0  0  0  0  0  0  0  0  0  0  0
  151.1872  139.5494  157.1142 H   0  0  0  0  0  0  0  0  0  0  0  0
  149.9984  142.0024  156.1190 H   0  0  0  0  0  0  0  0  0  0  0  0
  148.8002  140.8517  156.6888 H   0  0  0  0  0  0  0  0  0  0  0  0
  149.2235  141.8770  158.7521 H   0  0  0  0  0  0  0  0  0  0  0  0
  150.5556  140.7336  158.8016 H   0  0  0  0  0  0  0  0  0  0  0  0
  152.1705  145.6776  157.6126 H   0  0  0  0  0  0  0  0  0  0  0  0
  153.7740  144.2337  159.3764 H   0  0  0  0  0  0  0  0  0  0  0  0
  153.5967  141.9764  160.4611 H   0  0  0  0  0  0  0  0  0  0  0  0
  152.9683  140.8031  159.2819 H   0  0  0  0  0  0  0  0  0  0  0  0
  151.9302  141.3774  160.6151 H   0  0  0  0  0  0  0  0  0  0  0  0
  150.3950  137.4197  153.7066 H   0  0  0  0  0  0  0  0  0  0  0  0
  151.8871  136.5823  153.9533 H   0  0  0  0  0  0  0  0  0  0  0  0
  148.7218  136.3278  156.8625 H   0  0  0  0  0  0  0  0  0  0  0  0
  148.4916  137.1585  155.3316 H   0  0  0  0  0  0  0  0  0  0  0  0
  149.3648  137.9341  156.6402 H   0  0  0  0  0  0  0  0  0  0  0  0
  149.7022  134.3272  155.7916 H   0  0  0  0  0  0  0  0  0  0  0  0
  151.0177  134.4526  154.6351 H   0  0  0  0  0  0  0  0  0  0  0  0
  149.4213  135.0564  154.2157 H   0  0  0  0  0  0  0  0  0  0  0  0
  152.3415  135.5036  156.3922 H   0  0  0  0  0  0  0  0  0  0  0  0
  151.0698  135.6272  157.5738 H   0  0  0  0  0  0  0  0  0  0  0  0
  150.2453  144.1240  157.0816 H   0  0  0  0  0  0  0  0  0  0  0  0
  1  2  1  0  0  0  0
  1 21  1  0  0  0  0
  1 22  1  0  0  0  0
  1 23  1  0  0  0  0
  2 20  1  0  0  0  0
  2  3  1  0  0  0  0
  2 24  1  0  0  0  0
  3  4  1  0  0  0  0
  3 25  1  0  0  0  0
  3 26  1  0  0  0  0
  4  5  1  0  0  0  0
  4 16  1  0  0  0  0
  4 27  1  0  0  0  0
  5  6  2  0  0  0  0
  5  7  1  0  0  0  0
  7  8  1  0  0  0  0
  7 28  1  0  0  0  0
  8  9  1  0  0  0  0
  8 29  1  0  0  0  0
  8 30  1  0  0  0  0
  9 10  1  0  0  0  0
  9 31  1  0  0  0  0
  9 32  1  0  0  0  0
 10 14  1  0  0  0  0
 10 11  2  0  0  0  0
 11 12  1  0  0  0  0
 11 48  1  0  0  0  0
 12 13  2  0  0  0  0
 12 33  1  0  0  0  0
 13 14  1  0  0  0  0
 13 34  1  0  0  0  0
 14 15  1  0  0  0  0
 15 35  1  0  0  0  0
 15 36  1  0  0  0  0
 15 37  1  0  0  0  0
 16 17  1  0  0  0  0
 16 38  1  0  0  0  0
 16 39  1  0  0  0  0
 17 18  1  0  0  0  0
 17 19  1  0  0  0  0
 17 20  1  0  0  0  0
 18 40  1  0  0  0  0
 18 41  1  0  0  0  0
 18 42  1  0  0  0  0
 19 43  1  0  0  0  0
 19 44  1  0  0  0  0
 19 45  1  0  0  0  0
 20 46  1  0  0  0  0
 20 47  1  0  0  0  0
M  CHG  1  11   1
M  END
> <s_m_source_file>
AV-unprocessed.smi

> <i_m_source_file_index>
2473

> <i_lp_mmshare_version>
43012

> <i_f3d_flags>
0

> <s_epik_input>
W0NIM11bQ0BASF0oW0NIMl0xKVtDSDJdW0NASF0oW0NIMl1DMShbQ0gzXSlbQ0gzXSlDKD1PKVtOSF1bQ0gyXVtDSDJdYzJuW2NIXVtjSF1uMltDSDNd

> <s_epik_cmdline>
J2VwaWtfcHl0aG9uJywgJy1waCcsICc3LjAnLCAnLXRuJywgJzgnLCAnLW1hJywgJzIwMCcsICctbWV0YWxfYmluZGluZycsICctaW1hZScsICc8aW5maWxlLm1hZT4nLCAnLW9tYWUnLCAnPG91dGZpbGUubWFlPic=

> <r_lp_tautomer_probability>
1

> <r_epik_Ionization_Penalty>
0.0796112

> <r_epik_Ionization_Penalty_Charging>
0

> <r_epik_Ionization_Penalty_Neutral>
0.0796112

> <r_epik_State_Penalty>
0.0704541

> <r_epik_Charging_Adjusted_Penalty>
0.0704541

> <i_epik_Tot_Q>
1

> <i_epik_Tot_abs_Q>
1

> <r_epik_Metal_State_Penalty>
0.409899

> <b_epik_Metal_Only>
0

> <s_lp_Force_Field>
OPLS_2005

> <r_lp_Energy>
17.0115

> <b_lp_Chiralities_Consistent>
1

> <s_lp_Variant>
AV-unprocessed.smi:2473-4

> <Gold.Version>
5.8.1

> <Gold.Id.Protein>
6NUR|6NUR_protein|mol2

> <Gold.PLP.Fitness>
46.2167

> <Gold.PLP.PLP>
-38.7280

> <Gold.PLP.part.hbond>
-1.8258

> <Gold.PLP.part.metal>
0.0000

> <Gold.PLP.part.buried>
-5.0120

> <Gold.PLP.part.nonpolar>
-33.0202

> <Gold.PLP.part.repulsive>
0.4267

> <Gold.PLP.ligand.clash>
0.0000

> <Gold.PLP.ligand.torsion>
0.8049

> <Gold.PLP.Chemscore.Hbond>
3.0000

> <Gold.PLP.Chemscore.CHOScore>
0.0000

> <Gold.PLP.Chemscore.Metal>
0.0000

> <Gold.Chemscore.Hbonds>
donor molecule, donor type, donor heavy atom, donor atom, acceptor molecule, acceptor atom, score
      L1  H    11    48       P1  8028  1.98
      P1  H  7989  7998       L1     6  0.95

> <Gold.PLP.Chemscore.Internal.Correction>
0.0986

> <Gold.Rescore>
     Score         DG    S(hbond)    S(metal)    S(lipo)     H(rot)  DE(clash)    DE(int)     intcor
     17.02     -18.03       1.77        0.00      91.30       1.58       0.36       0.66       ----

> <Gold.Chemscore.Fitness>
17.0167

> <Gold.Chemscore.DG>
-18.0275

> <Gold.Chemscore.ZeroCoef>
-5.4800

> <Gold.Chemscore.Hbond>
1.7707

> <Gold.Chemscore.Metal>
0.0000

> <Gold.Chemscore.Lipo>
91.3049

> <Gold.Chemscore.Internal_Hbond>
0.0000

> <Gold.Chemscore.DEClash>
0.3558

> <Gold.Chemscore.DEInternal>
0.6550

> <Gold.Chemscore.Rot>
1.5818

> <Gold.Chemscore.Internal.Correction>
   9.000000E+99

> <Gold.Chemscore.Hbonds>
donor molecule, donor type, donor heavy atom, donor atom, acceptor molecule, acceptor atom, score
      L1  H    11    48       P1  8028  0.84
      P1  H  7989  7998       L1     6  0.20

> <Gold.Chemscore.Hbond.Weighted>
-5.9143

> <Gold.Chemscore.Metal.Weighted>
-0.0000

> <Gold.Chemscore.Lipo.Weighted>
-10.6827

> <Gold.Chemscore.Internal_Hbond.Weighted>
0.0000

> <Gold.Chemscore.DEClash.Weighted>
0.3558

> <Gold.Chemscore.DEInternal.Weighted>
0.6550

> <Gold.Chemscore.Rot.Weighted>
4.0495

> <Gold.Chemscore.Internal.Correction.Weighted>
   9.000000E+99

> <Gold.Protein.RotatedTorsions>
[ 6907 6896 6895 6894 ] final -107.05 input  -60.11 | X-H torsion
[ 7974 7965 7964 7962 ] final  121.01 input  175.53 | X-H torsion
[ 8008 7997 7996 7995 ] final  -10.91 input   59.86 | X-H torsion
[ 10167 10162 10161 10158 ] final -175.44 input  -65.29 | X-H torsion
[ 10718 10713 10712 10709 ] final  -22.76 input   66.30 | X-H torsion
[ 10763 10752 10751 10750 ] final   97.80 input  -60.55 | X-H torsion
[ 11005 11000 10999 10996 ] final   84.09 input  -57.11 | X-H torsion

> <Gold.Protein.ActiveResidues>
 VAL166  LYS551  ARG553  GLY616  TRP617  ASP618  TYR619  PRO620  LYS621  CYS622 
 ASP623  PHE694  ASN695  SER759  ASP760  ASP761  ALA762  ILE779  LEU786  VAL792 
 PHE793  MET794  SER795  GLU796  ALA797  LYS798  CYS799  TRP800  GLU811  SER814 

> <Gold.Protein.RotatedAtoms>
  150.7422  133.9885  159.3599 H   0  0  0  0  0  0  0  0  0  0  0  0  # atno 6907 bound_to 6896
  151.7831  135.0754  160.0386 H   0  0  0  0  0  0  0  0  0  0  0  0  # atno 6908 bound_to 6896
  152.3260  133.5869  159.5813 H   0  0  0  0  0  0  0  0  0  0  0  0  # atno 6909 bound_to 6896
  145.1243  139.3368  143.4698 H   0  0  0  0  0  0  0  0  0  0  0  0  # atno 7974 bound_to 7965
  154.5512  140.2316  155.8482 H   0  0  0  0  0  0  0  0  0  0  0  0  # atno 8008 bound_to 7997
  156.1948  140.3068  155.9366 H   0  0  0  0  0  0  0  0  0  0  0  0  # atno 8009 bound_to 7997
  155.3067  140.0433  157.3023 H   0  0  0  0  0  0  0  0  0  0  0  0  # atno 8010 bound_to 7997
  139.5581  144.1939  152.1193 H   0  0  0  0  0  0  0  0  0  0  0  0  # atno 10167 bound_to 10162
  156.5002  130.4586  149.6705 H   0  0  0  0  0  0  0  0  0  0  0  0  # atno 10718 bound_to 10713
  153.2813  135.4170  155.1081 H   0  0  0  0  0  0  0  0  0  0  0  0  # atno 10763 bound_to 10752
  154.8490  135.3496  154.6108 H   0  0  0  0  0  0  0  0  0  0  0  0  # atno 10764 bound_to 10752
  153.6529  135.7052  153.5260 H   0  0  0  0  0  0  0  0  0  0  0  0  # atno 10765 bound_to 10752
  139.9011  134.8192  156.2398 H   0  0  0  0  0  0  0  0  0  0  0  0  # atno 11005 bound_to 11000
  146.3519  140.1216  142.8600 LP  0  0  0  0  0  0  0  0  0  0  0  0  # atno 17320 bound_to 7965
  145.0705  140.9152  143.4884 LP  0  0  0  0  0  0  0  0  0  0  0  0  # atno 17321 bound_to 7965
  140.1447  144.5170  150.6723 LP  0  0  0  0  0  0  0  0  0  0  0  0  # atno 17342 bound_to 10162
  140.6857  143.2349  151.5267 LP  0  0  0  0  0  0  0  0  0  0  0  0  # atno 17343 bound_to 10162
  156.3340  130.7346  151.2281 LP  0  0  0  0  0  0  0  0  0  0  0  0  # atno 17370 bound_to 10713
  157.7463  131.0422  150.4683 LP  0  0  0  0  0  0  0  0  0  0  0  0  # atno 17371 bound_to 10713
  141.0292  133.6998  156.1401 LP  0  0  0  0  0  0  0  0  0  0  0  0  # atno 17394 bound_to 11000
  140.7121  134.4450  157.5581 LP  0  0  0  0  0  0  0  0  0  0  0  0  # atno 17395 bound_to 11000

$$$$
