AV-unprocessed.smi:33|AV-procd|sdf|206|dock5
  -GOLD-   2262015493D 1   1.00000     0.00000
 Structure written by MMmdl.
 67 72  0  0  0  0  0  0  0  0  1 V2000
  146.9683  129.5458  158.2624 O   0  0  0  0  0  0  0  0  0  0  0  0
  146.1435  130.4423  158.4518 C   0  0  0  0  0  0  0  0  0  0  0  0
  146.4755  131.7367  158.6258 O   0  0  0  0  0  0  0  0  0  0  0  0
  147.8369  132.1345  158.5893 C   0  0  0  0  0  0  0  0  0  0  0  0
  147.9768  133.4000  157.7357 C   0  0  1  0  0  0  0  0  0  0  0  0
  149.2985  133.9247  157.8495 O   0  0  0  0  0  0  0  0  0  0  0  0
  149.6743  134.5519  156.6559 C   0  0  2  0  0  0  0  0  0  0  0  0
  150.0078  135.9886  156.9262 N   0  0  0  0  0  0  0  0  0  0  0  0
  149.9989  136.6263  158.1473 C   0  0  0  0  0  0  0  0  0  0  0  0
  150.3381  137.8866  158.1259 N   0  0  0  0  0  0  0  0  0  0  0  0
  150.6008  138.1389  156.7863 C   0  0  0  0  0  0  0  0  0  0  0  0
  151.0186  139.2880  156.0626 C   0  0  0  0  0  0  0  0  0  0  0  0
  151.2671  140.4791  156.6554 N   0  0  0  0  0  0  0  0  0  0  0  0
  150.5095  141.6396  156.1644 C   0  0  0  0  0  0  0  0  0  0  0  0
  150.9741  142.7728  156.3032 O   0  0  0  0  0  0  0  0  0  0  0  0
  149.1974  141.4494  155.4582 C   0  0  0  0  0  0  0  0  0  0  0  0
  147.9856  141.7047  156.1367 C   0  0  0  0  0  0  0  0  0  0  0  0
  146.7525  141.5146  155.4833 C   0  0  0  0  0  0  0  0  0  0  0  0
  146.7229  141.0494  154.1547 C   0  0  0  0  0  0  0  0  0  0  0  0
  147.9267  140.7652  153.4821 C   0  0  0  0  0  0  0  0  0  0  0  0
  149.1601  140.9565  154.1341 C   0  0  0  0  0  0  0  0  0  0  0  0
  152.2663  140.5009  157.7337 C   0  0  0  0  0  0  0  0  0  0  0  0
  153.1424  139.6345  157.7672 O   0  0  0  0  0  0  0  0  0  0  0  0
  152.2619  141.6011  158.7573 C   0  0  0  0  0  0  0  0  0  0  0  0
  153.4297  141.8778  159.5015 C   0  0  0  0  0  0  0  0  0  0  0  0
  153.4290  142.8995  160.4707 C   0  0  0  0  0  0  0  0  0  0  0  0
  152.2556  143.6377  160.7161 C   0  0  0  0  0  0  0  0  0  0  0  0
  151.0799  143.3482  159.9979 C   0  0  0  0  0  0  0  0  0  0  0  0
  151.0800  142.3275  159.0274 C   0  0  0  0  0  0  0  0  0  0  0  0
  151.1770  139.1738  154.7188 N   0  0  0  0  0  0  0  0  0  0  0  0
  150.9431  138.0019  154.1216 C   0  0  0  0  0  0  0  0  0  0  0  0
  150.5537  136.8488  154.6698 N   0  0  0  0  0  0  0  0  0  0  0  0
  150.3902  136.9594  156.0203 C   0  0  0  0  0  0  0  0  0  0  0  0
  148.5235  134.3746  155.6447 C   0  0  2  0  0  0  0  0  0  0  0  0
  147.6626  135.4982  155.5574 O   0  0  0  0  0  0  0  0  0  0  0  0
  147.8183  133.1683  156.2349 C   0  0  2  0  0  0  0  0  0  0  0  0
  146.5526  133.0488  155.8301 F   0  0  0  0  0  0  0  0  0  0  0  0
  144.6715  130.2077  158.5089 C   0  0  0  0  0  0  0  0  0  0  0  0
  143.8009  131.3075  158.6918 C   0  0  0  0  0  0  0  0  0  0  0  0
  142.4064  131.1173  158.7495 C   0  0  0  0  0  0  0  0  0  0  0  0
  141.8653  129.8246  158.6245 C   0  0  0  0  0  0  0  0  0  0  0  0
  142.7204  128.7220  158.4424 C   0  0  0  0  0  0  0  0  0  0  0  0
  144.1154  128.9104  158.3843 C   0  0  0  0  0  0  0  0  0  0  0  0
  148.1754  132.3316  159.6070 H   0  0  0  0  0  0  0  0  0  0  0  0
  148.4618  131.3370  158.1844 H   0  0  0  0  0  0  0  0  0  0  0  0
  147.2729  134.1620  158.0730 H   0  0  0  0  0  0  0  0  0  0  0  0
  150.6105  134.1119  156.3098 H   0  0  0  0  0  0  0  0  0  0  0  0
  149.7347  136.1211  159.0649 H   0  0  0  0  0  0  0  0  0  0  0  0
  147.9969  142.0622  157.1564 H   0  0  0  0  0  0  0  0  0  0  0  0
  145.8290  141.7249  156.0022 H   0  0  0  0  0  0  0  0  0  0  0  0
  145.7771  140.9039  153.6542 H   0  0  0  0  0  0  0  0  0  0  0  0
  147.9047  140.3992  152.4662 H   0  0  0  0  0  0  0  0  0  0  0  0
  150.0777  140.7305  153.6099 H   0  0  0  0  0  0  0  0  0  0  0  0
  154.3360  141.3176  159.3215 H   0  0  0  0  0  0  0  0  0  0  0  0
  154.3290  143.1160  161.0269 H   0  0  0  0  0  0  0  0  0  0  0  0
  152.2556  144.4209  161.4598 H   0  0  0  0  0  0  0  0  0  0  0  0
  150.1771  143.9080  160.1915 H   0  0  0  0  0  0  0  0  0  0  0  0
  150.1704  142.1114  158.4858 H   0  0  0  0  0  0  0  0  0  0  0  0
  151.0905  137.9846  153.0519 H   0  0  0  0  0  0  0  0  0  0  0  0
  148.9298  134.1687  154.6540 H   0  0  0  0  0  0  0  0  0  0  0  0
  146.9575  135.2908  154.9631 H   0  0  0  0  0  0  0  0  0  0  0  0
  148.3378  132.2556  155.9392 H   0  0  0  0  0  0  0  0  0  0  0  0
  144.1930  132.3096  158.7911 H   0  0  0  0  0  0  0  0  0  0  0  0
  141.7516  131.9649  158.8891 H   0  0  0  0  0  0  0  0  0  0  0  0
  140.7960  129.6787  158.6682 H   0  0  0  0  0  0  0  0  0  0  0  0
  142.3063  127.7292  158.3456 H   0  0  0  0  0  0  0  0  0  0  0  0
  144.7427  128.0425  158.2422 H   0  0  0  0  0  0  0  0  0  0  0  0
  1  2  2  0  0  0  0
  2  3  1  0  0  0  0
  2 38  1  0  0  0  0
  3  4  1  0  0  0  0
  4  5  1  0  0  0  0
  4 44  1  0  0  0  0
  4 45  1  0  0  0  0
  5 36  1  0  0  0  0
  5  6  1  0  0  0  0
  5 46  1  0  0  0  0
  6  7  1  0  0  0  0
  7  8  1  0  0  0  0
  7 34  1  0  0  0  0
  7 47  1  0  0  0  0
  8 33  1  0  0  0  0
  8  9  1  0  0  0  0
  9 10  2  0  0  0  0
  9 48  1  0  0  0  0
 10 11  1  0  0  0  0
 11 33  2  0  0  0  0
 11 12  1  0  0  0  0
 12 13  1  0  0  0  0
 12 30  2  0  0  0  0
 13 14  1  0  0  0  0
 13 22  1  0  0  0  0
 14 15  2  0  0  0  0
 14 16  1  0  0  0  0
 16 21  1  0  0  0  0
 16 17  2  0  0  0  0
 17 18  1  0  0  0  0
 17 49  1  0  0  0  0
 18 19  2  0  0  0  0
 18 50  1  0  0  0  0
 19 20  1  0  0  0  0
 19 51  1  0  0  0  0
 20 21  2  0  0  0  0
 20 52  1  0  0  0  0
 21 53  1  0  0  0  0
 22 23  2  0  0  0  0
 22 24  1  0  0  0  0
 24 29  1  0  0  0  0
 24 25  2  0  0  0  0
 25 26  1  0  0  0  0
 25 54  1  0  0  0  0
 26 27  2  0  0  0  0
 26 55  1  0  0  0  0
 27 28  1  0  0  0  0
 27 56  1  0  0  0  0
 28 29  2  0  0  0  0
 28 57  1  0  0  0  0
 29 58  1  0  0  0  0
 30 31  1  0  0  0  0
 31 32  2  0  0  0  0
 31 59  1  0  0  0  0
 32 33  1  0  0  0  0
 34 35  1  0  0  0  0
 34 36  1  0  0  0  0
 34 60  1  0  0  0  0
 35 61  1  0  0  0  0
 36 37  1  0  0  0  0
 36 62  1  0  0  0  0
 38 43  1  0  0  0  0
 38 39  2  0  0  0  0
 39 40  1  0  0  0  0
 39 63  1  0  0  0  0
 40 41  2  0  0  0  0
 40 64  1  0  0  0  0
 41 42  1  0  0  0  0
 41 65  1  0  0  0  0
 42 43  2  0  0  0  0
 42 66  1  0  0  0  0
 43 67  1  0  0  0  0
M  END
> <s_m_source_file>
AV-unprocessed.smi

> <i_m_source_file_index>
33

> <i_lp_mmshare_version>
43012

> <i_f3d_flags>
0

> <s_epik_input>
W2NIXTFbY0hdW2NIXVtjSF1bY0hdYzFDKD1PKU9bQ0gyXVtDQEBIXTJPW0NASF0oW0NAQEhdKFtPSF0pW0NAQEhdMkYpbihbY0hdbjMpYyhjMzQpbltjSF1uYzROKEMoPU8pYzVbY0hdW2NIXVtjSF1bY0hdW2NIXTUpQyg9TyljNltjSF1bY0hdW2NIXVtjSF1bY0hdNg==

> <s_epik_cmdline>
J2VwaWtfcHl0aG9uJywgJy1waCcsICc3LjAnLCAnLXRuJywgJzgnLCAnLW1hJywgJzIwMCcsICctbWV0YWxfYmluZGluZycsICctaW1hZScsICc8aW5maWxlLm1hZT4nLCAnLW9tYWUnLCAnPG91dGZpbGUubWFlPic=

> <r_lp_tautomer_probability>
1

> <r_epik_Ionization_Penalty>
0.00067664

> <r_epik_Ionization_Penalty_Charging>
0

> <r_epik_Ionization_Penalty_Neutral>
0.00067664

> <r_epik_State_Penalty>
0.000428095

> <r_epik_Charging_Adjusted_Penalty>
0.000428095

> <i_epik_Tot_Q>
0

> <i_epik_Tot_abs_Q>
0

> <r_epik_Metal_State_Penalty>
-0

> <b_epik_Metal_Only>
0

> <s_epik_Chemistry_Notes>
This compound has an ester and may undergo hydrolysis at high or low pH. This compound contains an acetal/aminal-like group ( X-CH(R)-Y where X, Y are N, S, or O) that may be acid/base labile, releasing an aldehyde.

> <s_lp_Force_Field>
OPLS_2005

> <r_lp_Energy>
78.7548

> <b_lp_Chiralities_Consistent>
1

> <s_lp_Variant>
AV-unprocessed.smi:33-8

> <Gold.Version>
5.8.1

> <Gold.Id.Protein>
6NUR|6NUR_protein|mol2

> <Gold.PLP.Fitness>
58.3544

> <Gold.PLP.PLP>
-49.7305

> <Gold.PLP.part.hbond>
-2.6082

> <Gold.PLP.part.metal>
0.0000

> <Gold.PLP.part.buried>
-2.1957

> <Gold.PLP.part.nonpolar>
-45.3584

> <Gold.PLP.part.repulsive>
1.5937

> <Gold.PLP.ligand.clash>
0.0245

> <Gold.PLP.ligand.torsion>
3.5265

> <Gold.PLP.Chemscore.Hbond>
2.6900

> <Gold.PLP.Chemscore.CHOScore>
1.0000

> <Gold.PLP.Chemscore.Metal>
0.0000

> <Gold.Chemscore.Hbonds>
donor molecule, donor type, donor heavy atom, donor atom, acceptor molecule, acceptor atom, score
      P1  H  6896  6907       L1     6  1.00
      P1  H  7989  7998       L1    30  0.75
      P1  H  7997  8008       L1    23  1.00
      L1  C    31    59       P1  7949  0.99

> <Gold.PLP.Chemscore.Internal.Correction>
4.6314

> <Gold.Rescore>
     Score         DG    S(hbond)    S(metal)    S(lipo)     H(rot)  DE(clash)    DE(int)     intcor
     13.12     -22.70       2.75        0.00     123.92       2.52       1.37       8.20       ----

> <Gold.Chemscore.Fitness>
13.1241

> <Gold.Chemscore.DG>
-22.6958

> <Gold.Chemscore.ZeroCoef>
-5.4800

> <Gold.Chemscore.Hbond>
2.7486

> <Gold.Chemscore.Metal>
0.0000

> <Gold.Chemscore.Lipo>
123.9221

> <Gold.Chemscore.Internal_Hbond>
0.0000

> <Gold.Chemscore.DEClash>
1.3727

> <Gold.Chemscore.DEInternal>
8.1990

> <Gold.Chemscore.Rot>
2.5247

> <Gold.Chemscore.Internal.Correction>
   9.000000E+99

> <Gold.Chemscore.Hbonds>
donor molecule, donor type, donor heavy atom, donor atom, acceptor molecule, acceptor atom, score
      P1  H  6896  6907       L1     6  0.86
      P1  H  7989  7998       L1    30  0.71
      P1  H  7997  8008       L1    23  0.93

> <Gold.Chemscore.Hbond.Weighted>
-9.1802

> <Gold.Chemscore.Metal.Weighted>
-0.0000

> <Gold.Chemscore.Lipo.Weighted>
-14.4989

> <Gold.Chemscore.Internal_Hbond.Weighted>
0.0000

> <Gold.Chemscore.DEClash.Weighted>
1.3727

> <Gold.Chemscore.DEInternal.Weighted>
8.1990

> <Gold.Chemscore.Rot.Weighted>
6.4633

> <Gold.Chemscore.Internal.Correction.Weighted>
   9.000000E+99

> <Gold.Protein.RotatedTorsions>
[ 6907 6896 6895 6894 ] final -106.48 input  -60.11 | X-H torsion
[ 7974 7965 7964 7962 ] final -174.68 input  175.53 | X-H torsion
[ 8008 7997 7996 7995 ] final  -91.75 input   59.86 | X-H torsion
[ 10167 10162 10161 10158 ] final  117.61 input  -65.29 | X-H torsion
[ 10718 10713 10712 10709 ] final  -28.92 input   66.30 | X-H torsion
[ 10763 10752 10751 10750 ] final   50.07 input  -60.55 | X-H torsion
[ 11005 11000 10999 10996 ] final -107.43 input  -57.11 | X-H torsion

> <Gold.Protein.ActiveResidues>
 VAL166  LYS551  ARG553  GLY616  TRP617  ASP618  TYR619  PRO620  LYS621  CYS622 
 ASP623  PHE694  ASN695  SER759  ASP760  ASP761  ALA762  ILE779  LEU786  VAL792 
 PHE793  MET794  SER795  GLU796  ALA797  LYS798  CYS799  TRP800  GLU811  SER814 

> <Gold.Protein.RotatedAtoms>
  150.7391  133.9969  159.3625 H   0  0  0  0  0  0  0  0  0  0  0  0  # atno 6907 bound_to 6896
  151.7921  135.0731  160.0398 H   0  0  0  0  0  0  0  0  0  0  0  0  # atno 6908 bound_to 6896
  152.3200  133.5807  159.5774 H   0  0  0  0  0  0  0  0  0  0  0  0  # atno 6909 bound_to 6896
  144.7131  140.1434  143.6390 H   0  0  0  0  0  0  0  0  0  0  0  0  # atno 7974 bound_to 7965
  154.7146  140.0516  157.0582 H   0  0  0  0  0  0  0  0  0  0  0  0  # atno 8008 bound_to 7997
  155.0509  140.3179  155.4673 H   0  0  0  0  0  0  0  0  0  0  0  0  # atno 8009 bound_to 7997
  156.2799  140.2116  156.5635 H   0  0  0  0  0  0  0  0  0  0  0  0  # atno 8010 bound_to 7997
  139.6167  144.7093  151.2724 H   0  0  0  0  0  0  0  0  0  0  0  0  # atno 10167 bound_to 10162
  156.4190  130.4423  149.7197 H   0  0  0  0  0  0  0  0  0  0  0  0  # atno 10718 bound_to 10713
  152.9785  135.5891  154.4192 H   0  0  0  0  0  0  0  0  0  0  0  0  # atno 10763 bound_to 10752
  154.3819  135.2767  155.2208 H   0  0  0  0  0  0  0  0  0  0  0  0  # atno 10764 bound_to 10752
  154.4118  135.6079  153.6012 H   0  0  0  0  0  0  0  0  0  0  0  0  # atno 10765 bound_to 10752
  141.0954  133.8980  157.1975 H   0  0  0  0  0  0  0  0  0  0  0  0  # atno 11005 bound_to 11000
  145.9181  139.2528  143.1398 LP  0  0  0  0  0  0  0  0  0  0  0  0  # atno 17320 bound_to 7965
  145.9648  140.8807  143.0192 LP  0  0  0  0  0  0  0  0  0  0  0  0  # atno 17321 bound_to 7965
  140.7355  143.6734  150.8062 LP  0  0  0  0  0  0  0  0  0  0  0  0  # atno 17342 bound_to 10162
  140.0338  143.5416  152.2748 LP  0  0  0  0  0  0  0  0  0  0  0  0  # atno 17343 bound_to 10162
  156.4145  130.7738  151.2753 LP  0  0  0  0  0  0  0  0  0  0  0  0  # atno 17370 bound_to 10713
  157.7508  131.0201  150.3696 LP  0  0  0  0  0  0  0  0  0  0  0  0  # atno 17371 bound_to 10713
  139.9790  135.0104  156.9702 LP  0  0  0  0  0  0  0  0  0  0  0  0  # atno 17394 bound_to 11000
  140.5152  134.0962  155.7279 LP  0  0  0  0  0  0  0  0  0  0  0  0  # atno 17395 bound_to 11000

$$$$
