AV-unprocessed.smi:2104|AV-procd|sdf|8586|dock6
  -GOLD-   2272011313D 1   1.00000     0.00000
 Structure written by MMmdl.
 43 44  0  0  0  0  0  0  0  0  1 V2000
  146.2166  134.0394  162.2148 C   0  0  0  0  0  0  0  0  0  0  0  0
  146.8306  135.2003  161.5107 C   0  0  0  0  0  0  0  0  0  0  0  0
  147.6019  135.3055  160.3874 C   0  0  0  0  0  0  0  0  0  0  0  0
  147.8378  136.7030  160.2914 C   0  0  0  0  0  0  0  0  0  0  0  0
  148.6183  137.2384  159.2354 N   0  0  0  0  0  0  0  0  0  0  0  0
  149.9586  137.2932  159.1545 C   0  0  0  0  0  0  0  0  0  0  0  0
  150.7394  136.8737  160.0095 O   0  0  0  0  0  0  0  0  0  0  0  0
  150.3538  137.8744  158.0132 N   0  0  0  0  0  0  0  0  0  0  0  0
  151.7412  138.1210  157.6339 C   0  0  0  0  0  0  0  0  0  0  0  0
  152.4048  139.1544  158.5556 C   0  0  0  0  0  0  0  0  0  0  0  0
  152.4350  140.4071  157.8871 O   0  0  0  0  0  0  0  0  0  0  0  0
  151.8622  141.4832  158.6194 C   0  0  1  0  0  0  0  0  0  0  0  0
  152.8954  142.0374  159.6227 C   0  0  0  0  0  0  0  0  0  0  0  0
  152.3721  143.2924  160.3361 C   0  0  0  0  0  0  0  0  0  0  0  0
  151.9604  144.3698  159.3236 C   0  0  0  0  0  0  0  0  0  0  0  0
  150.9229  143.8250  158.3306 C   0  0  0  0  0  0  0  0  0  0  0  0
  151.4332  142.5651  157.6027 C   0  0  2  0  0  0  0  0  0  0  0  0
  150.3712  142.0352  156.6244 C   0  0  0  0  0  0  0  0  0  0  0  0
  147.2614  137.3886  161.2667 N   0  0  0  0  0  0  0  0  0  0  0  0
  146.6135  136.4290  162.0535 O   0  0  0  0  0  0  0  0  0  0  0  0
  146.3408  133.1234  161.6370 H   0  0  0  0  0  0  0  0  0  0  0  0
  145.1492  134.1997  162.3682 H   0  0  0  0  0  0  0  0  0  0  0  0
  146.6810  133.8900  163.1897 H   0  0  0  0  0  0  0  0  0  0  0  0
  147.9420  134.5093  159.7418 H   0  0  0  0  0  0  0  0  0  0  0  0
  148.1011  137.6228  158.4589 H   0  0  0  0  0  0  0  0  0  0  0  0
  149.6450  138.1924  157.3684 H   0  0  0  0  0  0  0  0  0  0  0  0
  152.3027  137.1855  157.6495 H   0  0  0  0  0  0  0  0  0  0  0  0
  151.7589  138.4769  156.6036 H   0  0  0  0  0  0  0  0  0  0  0  0
  151.8529  139.2324  159.4934 H   0  0  0  0  0  0  0  0  0  0  0  0
  153.4165  138.8311  158.8003 H   0  0  0  0  0  0  0  0  0  0  0  0
  150.9735  141.1461  159.1569 H   0  0  0  0  0  0  0  0  0  0  0  0
  153.1507  141.2829  160.3665 H   0  0  0  0  0  0  0  0  0  0  0  0
  153.8207  142.2782  159.0979 H   0  0  0  0  0  0  0  0  0  0  0  0
  151.5171  143.0290  160.9601 H   0  0  0  0  0  0  0  0  0  0  0  0
  153.1366  143.6852  161.0072 H   0  0  0  0  0  0  0  0  0  0  0  0
  151.5553  145.2365  159.8469 H   0  0  0  0  0  0  0  0  0  0  0  0
  152.8396  144.7186  158.7805 H   0  0  0  0  0  0  0  0  0  0  0  0
  149.9993  143.5936  158.8634 H   0  0  0  0  0  0  0  0  0  0  0  0
  150.6735  144.5997  157.6046 H   0  0  0  0  0  0  0  0  0  0  0  0
  152.3102  142.8489  157.0187 H   0  0  0  0  0  0  0  0  0  0  0  0
  149.4723  141.7140  157.1514 H   0  0  0  0  0  0  0  0  0  0  0  0
  150.7437  141.1830  156.0551 H   0  0  0  0  0  0  0  0  0  0  0  0
  150.0800  142.8034  155.9076 H   0  0  0  0  0  0  0  0  0  0  0  0
  1  2  1  0  0  0  0
  1 21  1  0  0  0  0
  1 22  1  0  0  0  0
  1 23  1  0  0  0  0
  2 20  1  0  0  0  0
  2  3  2  0  0  0  0
  3  4  1  0  0  0  0
  3 24  1  0  0  0  0
  4  5  1  0  0  0  0
  4 19  2  0  0  0  0
  5  6  1  0  0  0  0
  5 25  1  0  0  0  0
  6  7  2  0  0  0  0
  6  8  1  0  0  0  0
  8  9  1  0  0  0  0
  8 26  1  0  0  0  0
  9 10  1  0  0  0  0
  9 27  1  0  0  0  0
  9 28  1  0  0  0  0
 10 11  1  0  0  0  0
 10 29  1  0  0  0  0
 10 30  1  0  0  0  0
 11 12  1  0  0  0  0
 12 17  1  0  0  0  0
 12 13  1  0  0  0  0
 12 31  1  0  0  0  0
 13 14  1  0  0  0  0
 13 32  1  0  0  0  0
 13 33  1  0  0  0  0
 14 15  1  0  0  0  0
 14 34  1  0  0  0  0
 14 35  1  0  0  0  0
 15 16  1  0  0  0  0
 15 36  1  0  0  0  0
 15 37  1  0  0  0  0
 16 17  1  0  0  0  0
 16 38  1  0  0  0  0
 16 39  1  0  0  0  0
 17 18  1  0  0  0  0
 17 40  1  0  0  0  0
 18 41  1  0  0  0  0
 18 42  1  0  0  0  0
 18 43  1  0  0  0  0
 19 20  1  0  0  0  0
M  END
> <s_m_source_file>
AV-unprocessed.smi

> <i_m_source_file_index>
2104

> <i_lp_mmshare_version>
43012

> <i_f3d_flags>
0

> <s_epik_input>
W0NIM11jMVtjSF1jKG5vMSlbTkhdQyg9TylbTkhdW0NIMl1bQ0gyXU9bQ0BASF0yW0NIMl1bQ0gyXVtDSDJdW0NIMl1bQ0BIXTJbQ0gzXQ==

> <s_epik_cmdline>
J2VwaWtfcHl0aG9uJywgJy1waCcsICc3LjAnLCAnLXRuJywgJzgnLCAnLW1hJywgJzIwMCcsICctbWV0YWxfYmluZGluZycsICctaW1hZScsICc8aW5maWxlLm1hZT4nLCAnLW9tYWUnLCAnPG91dGZpbGUubWFlPic=

> <r_lp_tautomer_probability>
1

> <r_epik_Ionization_Penalty>
2.94418e-05

> <r_epik_Ionization_Penalty_Charging>
0

> <r_epik_Ionization_Penalty_Neutral>
2.94418e-05

> <r_epik_State_Penalty>
-0

> <r_epik_Charging_Adjusted_Penalty>
0

> <i_epik_Tot_Q>
0

> <i_epik_Tot_abs_Q>
0

> <r_epik_Metal_State_Penalty>
0.0104148

> <b_epik_Metal_Only>
0

> <s_lp_Force_Field>
OPLS_2005

> <r_lp_Energy>
8.17473

> <b_lp_Chiralities_Consistent>
1

> <s_lp_Variant>
AV-unprocessed.smi:2104-4

> <Gold.Version>
5.8.1

> <Gold.Id.Protein>
6NUR|6NUR_protein|mol2

> <Gold.PLP.Fitness>
44.0840

> <Gold.PLP.PLP>
-37.5765

> <Gold.PLP.part.hbond>
-4.0000

> <Gold.PLP.part.metal>
0.0000

> <Gold.PLP.part.buried>
-2.8884

> <Gold.PLP.part.nonpolar>
-30.9030

> <Gold.PLP.part.repulsive>
0.2863

> <Gold.PLP.ligand.clash>
0.0000

> <Gold.PLP.ligand.torsion>
1.6454

> <Gold.PLP.Chemscore.Hbond>
3.2557

> <Gold.PLP.Chemscore.CHOScore>
0.0000

> <Gold.PLP.Chemscore.Metal>
0.0000

> <Gold.Chemscore.Hbonds>
donor molecule, donor type, donor heavy atom, donor atom, acceptor molecule, acceptor atom, score
      P1  H  6896  6909       L1     7  1.00
      P1  H  6931  6943       L1    19  0.51
      P1  H  6934  6947       L1    19  1.00
      P1  H  7997  8010       L1    11  0.25

> <Gold.PLP.Chemscore.Internal.Correction>
0.0311

> <Gold.Rescore>
     Score         DG    S(hbond)    S(metal)    S(lipo)     H(rot)  DE(clash)    DE(int)     intcor
     20.09     -22.26       2.99        0.00      96.43       1.75       0.40       1.77       ----

> <Gold.Chemscore.Fitness>
20.0855

> <Gold.Chemscore.DG>
-22.2604

> <Gold.Chemscore.ZeroCoef>
-5.4800

> <Gold.Chemscore.Hbond>
2.9892

> <Gold.Chemscore.Metal>
0.0000

> <Gold.Chemscore.Lipo>
96.4318

> <Gold.Chemscore.Internal_Hbond>
0.0000

> <Gold.Chemscore.DEClash>
0.4016

> <Gold.Chemscore.DEInternal>
1.7732

> <Gold.Chemscore.Rot>
1.7524

> <Gold.Chemscore.Internal.Correction>
   9.000000E+99

> <Gold.Chemscore.Hbonds>
donor molecule, donor type, donor heavy atom, donor atom, acceptor molecule, acceptor atom, score
      P1  H  6896  6909       L1     7  0.97
      P1  H  6931  6943       L1    19  0.06
      P1  H  6934  6947       L1    19  0.81
      P1  H  7997  8010       L1    11  0.04

> <Gold.Chemscore.Hbond.Weighted>
-9.9840

> <Gold.Chemscore.Metal.Weighted>
-0.0000

> <Gold.Chemscore.Lipo.Weighted>
-11.2825

> <Gold.Chemscore.Internal_Hbond.Weighted>
0.0000

> <Gold.Chemscore.DEClash.Weighted>
0.4016

> <Gold.Chemscore.DEInternal.Weighted>
1.7732

> <Gold.Chemscore.Rot.Weighted>
4.4861

> <Gold.Chemscore.Internal.Correction.Weighted>
   9.000000E+99

> <Gold.Protein.RotatedTorsions>
[ 6907 6896 6895 6894 ] final  104.23 input  -60.11 | X-H torsion
[ 7974 7965 7964 7962 ] final  -88.50 input  175.53 | X-H torsion
[ 8008 7997 7996 7995 ] final   48.79 input   59.86 | X-H torsion
[ 10167 10162 10161 10158 ] final  -80.37 input  -65.29 | X-H torsion
[ 10718 10713 10712 10709 ] final    9.93 input   66.30 | X-H torsion
[ 10763 10752 10751 10750 ] final -159.36 input  -60.55 | X-H torsion
[ 11005 11000 10999 10996 ] final  -87.63 input  -57.11 | X-H torsion

> <Gold.Protein.ActiveResidues>
 VAL166  LYS551  ARG553  GLY616  TRP617  ASP618  TYR619  PRO620  LYS621  CYS622 
 ASP623  PHE694  ASN695  SER759  ASP760  ASP761  ALA762  ILE779  LEU786  VAL792 
 PHE793  MET794  SER795  GLU796  ALA797  LYS798  CYS799  TRP800  GLU811  SER814 

> <Gold.Protein.RotatedAtoms>
  152.5271  133.9707  159.7760 H   0  0  0  0  0  0  0  0  0  0  0  0  # atno 6907 bound_to 6896
  150.9980  133.6076  159.2706 H   0  0  0  0  0  0  0  0  0  0  0  0  # atno 6908 bound_to 6896
  151.3195  135.0821  159.9354 H   0  0  0  0  0  0  0  0  0  0  0  0  # atno 6909 bound_to 6896
  145.4523  140.9561  143.2015 H   0  0  0  0  0  0  0  0  0  0  0  0  # atno 7974 bound_to 7965
  155.3914  140.3433  155.4251 H   0  0  0  0  0  0  0  0  0  0  0  0  # atno 8008 bound_to 7997
  156.1555  140.1584  156.8732 H   0  0  0  0  0  0  0  0  0  0  0  0  # atno 8009 bound_to 7997
  154.5091  140.0794  156.7935 H   0  0  0  0  0  0  0  0  0  0  0  0  # atno 8010 bound_to 7997
  140.4509  143.2483  151.8490 H   0  0  0  0  0  0  0  0  0  0  0  0  # atno 10167 bound_to 10162
  156.9736  130.5978  149.5671 H   0  0  0  0  0  0  0  0  0  0  0  0  # atno 10718 bound_to 10713
  154.7481  135.3085  154.8608 H   0  0  0  0  0  0  0  0  0  0  0  0  # atno 10763 bound_to 10752
  153.9403  135.6775  153.4748 H   0  0  0  0  0  0  0  0  0  0  0  0  # atno 10764 bound_to 10752
  153.1077  135.4881  154.8908 H   0  0  0  0  0  0  0  0  0  0  0  0  # atno 10765 bound_to 10752
  141.1614  133.7523  156.9335 H   0  0  0  0  0  0  0  0  0  0  0  0  # atno 11005 bound_to 11000
  144.8054  139.6061  143.7053 LP  0  0  0  0  0  0  0  0  0  0  0  0  # atno 17320 bound_to 7965
  146.2497  139.6174  142.9435 LP  0  0  0  0  0  0  0  0  0  0  0  0  # atno 17321 bound_to 7965
  139.4796  144.5121  151.8918 LP  0  0  0  0  0  0  0  0  0  0  0  0  # atno 17342 bound_to 10162
  140.4208  144.2246  150.5887 LP  0  0  0  0  0  0  0  0  0  0  0  0  # atno 17343 bound_to 10162
  156.0273  130.5366  150.8440 LP  0  0  0  0  0  0  0  0  0  0  0  0  # atno 17370 bound_to 10713
  157.5575  131.0945  150.9607 LP  0  0  0  0  0  0  0  0  0  0  0  0  # atno 17371 bound_to 10713
  140.1370  134.9318  157.2415 LP  0  0  0  0  0  0  0  0  0  0  0  0  # atno 17394 bound_to 11000
  140.2883  134.3270  155.7322 LP  0  0  0  0  0  0  0  0  0  0  0  0  # atno 17395 bound_to 11000

$$$$
