AV-unprocessed.smi:1039|AV-procd|sdf|4522|dock5
  -GOLD-   22720 2543D 1   1.00000     0.00000
 Structure written by MMmdl.
 40 41  0  0  0  0  0  0  0  0  1 V2000
  146.8432  139.3926  151.9116 C   0  0  0  0  0  0  0  0  0  0  0  0
  146.8187  139.9358  153.3467 C   0  0  0  0  0  0  0  0  0  0  0  0
  147.4453  141.3443  153.4351 C   0  0  0  0  0  0  0  0  0  0  0  0
  147.5127  141.8347  154.8928 C   0  0  0  0  0  0  0  0  0  0  0  0
  148.2696  140.8531  155.6891 N   0  0  0  0  0  0  0  0  0  0  0  0
  149.5548  140.9858  156.1033 C   0  0  0  0  0  0  0  0  0  0  0  0
  150.2449  140.0401  156.4866 O   0  0  0  0  0  0  0  0  0  0  0  0
  150.0098  142.2480  156.1097 N   0  0  0  0  0  0  0  0  0  0  0  0
  151.3598  142.6537  156.4797 C   0  0  0  0  0  0  0  0  0  0  0  0
  151.7087  142.2264  157.9166 C   0  0  0  0  0  0  0  0  0  0  0  0
  151.8588  143.3770  158.8691 C   0  0  0  0  0  0  0  0  0  0  0  0
  151.6272  144.6410  158.5280 N   0  0  0  0  0  0  0  0  0  0  0  0
  151.8532  145.3707  159.6890 C   0  0  0  0  0  0  0  0  0  0  0  0
  152.2214  144.5159  160.6988 C   0  0  0  0  0  0  0  0  0  0  0  0
  152.2311  143.2348  160.1580 N   0  0  0  0  0  0  0  0  0  0  0  0
  152.5712  142.0070  160.8603 C   0  0  0  0  0  0  0  0  0  0  0  0
  153.5833  141.3836  160.2561 F   0  0  0  0  0  0  0  0  0  0  0  0
  152.9047  142.2760  162.1218 F   0  0  0  0  0  0  0  0  0  0  0  0
  147.5655  139.5666  155.7507 C   0  0  0  0  0  0  0  0  0  0  0  0
  147.4994  138.9646  154.3353 C   0  0  0  0  0  0  0  0  0  0  0  0
  147.8651  139.2801  151.5479 H   0  0  0  0  0  0  0  0  0  0  0  0
  146.3189  140.0623  151.2295 H   0  0  0  0  0  0  0  0  0  0  0  0
  146.3598  138.4171  151.8532 H   0  0  0  0  0  0  0  0  0  0  0  0
  145.7732  140.0252  153.6455 H   0  0  0  0  0  0  0  0  0  0  0  0
  148.4514  141.3302  153.0131 H   0  0  0  0  0  0  0  0  0  0  0  0
  146.8689  142.0486  152.8345 H   0  0  0  0  0  0  0  0  0  0  0  0
  147.9279  142.8420  154.9179 H   0  0  0  0  0  0  0  0  0  0  0  0
  146.5053  141.9278  155.3014 H   0  0  0  0  0  0  0  0  0  0  0  0
  149.3819  142.9772  155.8038 H   0  0  0  0  0  0  0  0  0  0  0  0
  152.0881  142.2402  155.7806 H   0  0  0  0  0  0  0  0  0  0  0  0
  151.4199  143.7399  156.3972 H   0  0  0  0  0  0  0  0  0  0  0  0
  150.9457  141.5411  158.2838 H   0  0  0  0  0  0  0  0  0  0  0  0
  152.6397  141.6587  157.9114 H   0  0  0  0  0  0  0  0  0  0  0  0
  151.7332  146.4437  159.7086 H   0  0  0  0  0  0  0  0  0  0  0  0
  152.4742  144.7121  161.7304 H   0  0  0  0  0  0  0  0  0  0  0  0
  151.7207  141.3252  160.8620 H   0  0  0  0  0  0  0  0  0  0  0  0
  148.0391  138.8624  156.4362 H   0  0  0  0  0  0  0  0  0  0  0  0
  146.5583  139.7235  156.1392 H   0  0  0  0  0  0  0  0  0  0  0  0
  146.9588  138.0179  154.3610 H   0  0  0  0  0  0  0  0  0  0  0  0
  148.5095  138.7347  153.9930 H   0  0  0  0  0  0  0  0  0  0  0  0
  1  2  1  0  0  0  0
  1 21  1  0  0  0  0
  1 22  1  0  0  0  0
  1 23  1  0  0  0  0
  2 20  1  0  0  0  0
  2  3  1  0  0  0  0
  2 24  1  0  0  0  0
  3  4  1  0  0  0  0
  3 25  1  0  0  0  0
  3 26  1  0  0  0  0
  4  5  1  0  0  0  0
  4 27  1  0  0  0  0
  4 28  1  0  0  0  0
  5  6  1  0  0  0  0
  5 19  1  0  0  0  0
  6  7  2  0  0  0  0
  6  8  1  0  0  0  0
  8  9  1  0  0  0  0
  8 29  1  0  0  0  0
  9 10  1  0  0  0  0
  9 30  1  0  0  0  0
  9 31  1  0  0  0  0
 10 11  1  0  0  0  0
 10 32  1  0  0  0  0
 10 33  1  0  0  0  0
 11 15  1  0  0  0  0
 11 12  2  0  0  0  0
 12 13  1  0  0  0  0
 13 14  2  0  0  0  0
 13 34  1  0  0  0  0
 14 15  1  0  0  0  0
 14 35  1  0  0  0  0
 15 16  1  0  0  0  0
 16 17  1  0  0  0  0
 16 18  1  0  0  0  0
 16 36  1  0  0  0  0
 19 20  1  0  0  0  0
 19 37  1  0  0  0  0
 19 38  1  0  0  0  0
 20 39  1  0  0  0  0
 20 40  1  0  0  0  0
M  END
> <s_m_source_file>
AV-unprocessed.smi

> <i_m_source_file_index>
1039

> <i_lp_mmshare_version>
43012

> <i_f3d_flags>
0

> <s_epik_input>
W0NIM11bQ0hdMVtDSDJdW0NIMl1OKFtDSDJdW0NIMl0xKUMoPU8pW05IXVtDSDJdW0NIMl1jMm5bY0hdW2NIXW4yW0NIXShGKUY=

> <s_epik_cmdline>
J2VwaWtfcHl0aG9uJywgJy1waCcsICc3LjAnLCAnLXRuJywgJzgnLCAnLW1hJywgJzIwMCcsICctbWV0YWxfYmluZGluZycsICctaW1hZScsICc8aW5maWxlLm1hZT4nLCAnLW9tYWUnLCAnPG91dGZpbGUubWFlPic=

> <r_lp_tautomer_probability>
1

> <r_epik_Ionization_Penalty>
0.101783

> <r_epik_Ionization_Penalty_Charging>
0.101715

> <r_epik_Ionization_Penalty_Neutral>
6.87123e-05

> <r_epik_State_Penalty>
0.091697

> <r_epik_Charging_Adjusted_Penalty>
0.193412

> <i_epik_Tot_Q>
0

> <i_epik_Tot_abs_Q>
0

> <r_epik_Metal_State_Penalty>
0.0781553

> <b_epik_Metal_Only>
0

> <s_lp_Force_Field>
OPLS_2005

> <r_lp_Energy>
33.8957

> <b_lp_Chiralities_Consistent>
1

> <s_lp_Variant>
AV-unprocessed.smi:1039-1

> <Gold.Version>
5.8.1

> <Gold.Id.Protein>
6NUR|6NUR_protein|mol2

> <Gold.PLP.Fitness>
46.6551

> <Gold.PLP.PLP>
-44.8910

> <Gold.PLP.part.hbond>
-1.0000

> <Gold.PLP.part.metal>
0.0000

> <Gold.PLP.part.buried>
-6.2708

> <Gold.PLP.part.nonpolar>
-37.0574

> <Gold.PLP.part.repulsive>
0.2085

> <Gold.PLP.ligand.clash>
0.3556

> <Gold.PLP.ligand.torsion>
0.4651

> <Gold.PLP.Chemscore.Hbond>
0.9920

> <Gold.PLP.Chemscore.CHOScore>
0.0000

> <Gold.PLP.Chemscore.Metal>
0.0000

> <Gold.Chemscore.Hbonds>
donor molecule, donor type, donor heavy atom, donor atom, acceptor molecule, acceptor atom, score
      L1  H     8    29       P1  8028  1.00

> <Gold.PLP.Chemscore.Internal.Correction>
0.0738

> <Gold.Rescore>
     Score         DG    S(hbond)    S(metal)    S(lipo)     H(rot)  DE(clash)    DE(int)     intcor
     12.07     -14.32       0.89        0.00      84.31       1.56       0.69       1.56       ----

> <Gold.Chemscore.Fitness>
12.0714

> <Gold.Chemscore.DG>
-14.3212

> <Gold.Chemscore.ZeroCoef>
-5.4800

> <Gold.Chemscore.Hbond>
0.8913

> <Gold.Chemscore.Metal>
0.0000

> <Gold.Chemscore.Lipo>
84.3135

> <Gold.Chemscore.Internal_Hbond>
0.0000

> <Gold.Chemscore.DEClash>
0.6905

> <Gold.Chemscore.DEInternal>
1.5593

> <Gold.Chemscore.Rot>
1.5626

> <Gold.Chemscore.Internal.Correction>
   9.000000E+99

> <Gold.Chemscore.Hbonds>
donor molecule, donor type, donor heavy atom, donor atom, acceptor molecule, acceptor atom, score
      L1  H     8    29       P1  8028  0.97

> <Gold.Chemscore.Hbond.Weighted>
-2.9769

> <Gold.Chemscore.Metal.Weighted>
-0.0000

> <Gold.Chemscore.Lipo.Weighted>
-9.8647

> <Gold.Chemscore.Internal_Hbond.Weighted>
0.0000

> <Gold.Chemscore.DEClash.Weighted>
0.6905

> <Gold.Chemscore.DEInternal.Weighted>
1.5593

> <Gold.Chemscore.Rot.Weighted>
4.0004

> <Gold.Chemscore.Internal.Correction.Weighted>
   9.000000E+99

> <Gold.Protein.RotatedTorsions>
[ 6907 6896 6895 6894 ] final  -40.10 input  -60.11 | X-H torsion
[ 7974 7965 7964 7962 ] final  -76.66 input  175.53 | X-H torsion
[ 8008 7997 7996 7995 ] final   47.73 input   59.86 | X-H torsion
[ 10167 10162 10161 10158 ] final  -88.13 input  -65.29 | X-H torsion
[ 10718 10713 10712 10709 ] final  112.13 input   66.30 | X-H torsion
[ 10763 10752 10751 10750 ] final  -46.16 input  -60.55 | X-H torsion
[ 11005 11000 10999 10996 ] final   14.29 input  -57.11 | X-H torsion

> <Gold.Protein.ActiveResidues>
 VAL166  LYS551  ARG553  GLY616  TRP617  ASP618  TYR619  PRO620  LYS621  CYS622 
 ASP623  PHE694  ASN695  SER759  ASP760  ASP761  ALA762  ILE779  LEU786  VAL792 
 PHE793  MET794  SER795  GLU796  ALA797  LYS798  CYS799  TRP800  GLU811  SER814 

> <Gold.Protein.RotatedAtoms>
  150.9825  134.9177  159.7851 H   0  0  0  0  0  0  0  0  0  0  0  0  # atno 6907 bound_to 6896
  152.5226  134.3392  159.9221 H   0  0  0  0  0  0  0  0  0  0  0  0  # atno 6908 bound_to 6896
  151.3399  133.3926  159.2704 H   0  0  0  0  0  0  0  0  0  0  0  0  # atno 6909 bound_to 6896
  145.6099  140.9389  143.1195 H   0  0  0  0  0  0  0  0  0  0  0  0  # atno 7974 bound_to 7965
  155.3738  140.3425  155.4244 H   0  0  0  0  0  0  0  0  0  0  0  0  # atno 8008 bound_to 7997
  156.1648  140.1612  156.8584 H   0  0  0  0  0  0  0  0  0  0  0  0  # atno 8009 bound_to 7997
  154.5174  140.0775  156.8089 H   0  0  0  0  0  0  0  0  0  0  0  0  # atno 8010 bound_to 7997
  140.3777  143.2763  151.9422 H   0  0  0  0  0  0  0  0  0  0  0  0  # atno 10167 bound_to 10162
  157.6409  131.0962  150.6850 H   0  0  0  0  0  0  0  0  0  0  0  0  # atno 10718 bound_to 10713
  154.0405  135.6644  153.4789 H   0  0  0  0  0  0  0  0  0  0  0  0  # atno 10763 bound_to 10752
  153.0503  135.5088  154.7847 H   0  0  0  0  0  0  0  0  0  0  0  0  # atno 10764 bound_to 10752
  154.6821  135.3047  154.9564 H   0  0  0  0  0  0  0  0  0  0  0  0  # atno 10765 bound_to 10752
  140.4712  134.1029  155.7733 H   0  0  0  0  0  0  0  0  0  0  0  0  # atno 11005 bound_to 11000
  144.7274  139.7832  143.7360 LP  0  0  0  0  0  0  0  0  0  0  0  0  # atno 17320 bound_to 7965
  146.1512  139.4596  143.0047 LP  0  0  0  0  0  0  0  0  0  0  0  0  # atno 17321 bound_to 7965
  139.4798  144.5848  151.7872 LP  0  0  0  0  0  0  0  0  0  0  0  0  # atno 17342 bound_to 10162
  140.4969  144.1227  150.5962 LP  0  0  0  0  0  0  0  0  0  0  0  0  # atno 17343 bound_to 10162
  156.7174  130.4670  149.5531 LP  0  0  0  0  0  0  0  0  0  0  0  0  # atno 17370 bound_to 10713
  156.1689  130.6423  151.0812 LP  0  0  0  0  0  0  0  0  0  0  0  0  # atno 17371 bound_to 10713
  141.1576  133.8854  157.1936 LP  0  0  0  0  0  0  0  0  0  0  0  0  # atno 17394 bound_to 11000
  139.9884  135.0073  156.9917 LP  0  0  0  0  0  0  0  0  0  0  0  0  # atno 17395 bound_to 11000

$$$$
