AV-unprocessed.smi:1389|AV-procd|sdf|5648|dock3
  -GOLD-   22720 5263D 1   1.00000     0.00000
 Structure written by MMmdl.
 52 54  0  0  0  0  0  0  0  0  2 V2000
  146.1013  135.4519  153.6169 C   0  0  0  0  0  0  0  0  0  0  0  0
  145.3954  134.2601  154.3085 C   0  0  2  0  0  0  0  0  0  0  0  0
  146.3643  133.5727  155.3059 C   0  0  0  0  0  0  0  0  0  0  0  0
  146.8494  134.4770  156.3439 N   0  0  0  0  0  0  0  0  0  0  0  0
  146.7351  134.2611  157.6615 C   0  0  0  0  0  0  0  0  0  0  0  0
  146.2047  133.2586  158.1397 O   0  0  0  0  0  0  0  0  0  0  0  0
  147.2797  135.2673  158.3653 N   0  0  0  0  0  0  0  0  0  0  0  0
  147.4467  135.3742  159.7754 C   0  0  0  0  0  0  0  0  0  0  0  0
  146.8403  134.4601  160.6719 C   0  0  0  0  0  0  0  0  0  0  0  0
  146.9856  134.6521  162.0566 C   0  0  0  0  0  0  0  0  0  0  0  0
  147.7207  135.7636  162.5002 C   0  0  0  0  0  0  0  0  0  0  0  0
  148.2914  136.6508  161.6614 N   0  0  0  0  0  0  0  0  0  0  0  0
  148.1724  136.4715  160.3228 C   0  0  0  0  0  0  0  0  0  0  0  0
  148.8038  137.4256  159.4920 N   0  0  0  0  0  0  0  0  0  0  0  0
  150.0749  137.1182  158.8455 C   0  0  0  0  0  0  0  0  0  0  0  0
  150.2382  138.1887  157.7708 C   0  0  0  0  0  0  0  0  0  0  0  0
  148.8021  138.3995  157.3005 C   0  0  0  0  0  0  0  0  0  0  0  0
  147.9687  138.1896  158.5695 C   0  0  0  0  0  0  0  0  0  0  0  0
  144.8437  133.2496  153.3474 N   0  3  0  0  0  0  0  0  0  0  0  0
  144.1139  133.8812  152.2144 C   0  0  0  0  0  0  0  0  0  0  0  0
  143.4750  132.8177  151.3069 C   0  0  0  0  0  0  0  0  0  0  0  0
  144.4840  131.9464  150.8178 O   0  0  0  0  0  0  0  0  0  0  0  0
  145.1321  131.2545  151.8749 C   0  0  0  0  0  0  0  0  0  0  0  0
  145.8202  132.2587  152.8163 C   0  0  0  0  0  0  0  0  0  0  0  0
  146.5093  136.1557  154.3422 H   0  0  0  0  0  0  0  0  0  0  0  0
  145.4153  136.0326  153.0001 H   0  0  0  0  0  0  0  0  0  0  0  0
  146.9274  135.1165  152.9887 H   0  0  0  0  0  0  0  0  0  0  0  0
  144.5536  134.6765  154.8647 H   0  0  0  0  0  0  0  0  0  0  0  0
  145.9081  132.7112  155.7922 H   0  0  0  0  0  0  0  0  0  0  0  0
  147.2316  133.1874  154.7684 H   0  0  0  0  0  0  0  0  0  0  0  0
  147.3033  135.3253  156.0372 H   0  0  0  0  0  0  0  0  0  0  0  0
  147.7383  135.9871  157.8258 H   0  0  0  0  0  0  0  0  0  0  0  0
  146.2467  133.6289  160.3243 H   0  0  0  0  0  0  0  0  0  0  0  0
  146.5332  133.9702  162.7613 H   0  0  0  0  0  0  0  0  0  0  0  0
  147.8495  135.9496  163.5562 H   0  0  0  0  0  0  0  0  0  0  0  0
  150.8983  137.1312  159.5602 H   0  0  0  0  0  0  0  0  0  0  0  0
  150.0431  136.1346  158.3752 H   0  0  0  0  0  0  0  0  0  0  0  0
  150.6244  139.1080  158.2137 H   0  0  0  0  0  0  0  0  0  0  0  0
  150.9126  137.8866  156.9690 H   0  0  0  0  0  0  0  0  0  0  0  0
  148.6419  139.3773  156.8457 H   0  0  0  0  0  0  0  0  0  0  0  0
  148.5444  137.6391  156.5619 H   0  0  0  0  0  0  0  0  0  0  0  0
  147.0284  137.6819  158.3490 H   0  0  0  0  0  0  0  0  0  0  0  0
  147.7354  139.1535  159.0224 H   0  0  0  0  0  0  0  0  0  0  0  0
  143.3313  134.5482  152.5710 H   0  0  0  0  0  0  0  0  0  0  0  0
  144.8053  134.4928  151.6321 H   0  0  0  0  0  0  0  0  0  0  0  0
  142.7109  132.2522  151.8433 H   0  0  0  0  0  0  0  0  0  0  0  0
  142.9814  133.2945  150.4599 H   0  0  0  0  0  0  0  0  0  0  0  0
  144.4117  130.6413  152.4190 H   0  0  0  0  0  0  0  0  0  0  0  0
  145.8698  130.5736  151.4497 H   0  0  0  0  0  0  0  0  0  0  0  0
  146.6219  132.7786  152.2893 H   0  0  0  0  0  0  0  0  0  0  0  0
  146.2742  131.6876  153.6255 H   0  0  0  0  0  0  0  0  0  0  0  0
  144.1666  132.7099  153.8673 H   0  0  0  0  0  0  0  0  0  0  0  0
  1  2  1  0  0  0  0
  1 25  1  0  0  0  0
  1 26  1  0  0  0  0
  1 27  1  0  0  0  0
  2  3  1  0  0  0  0
  2 19  1  0  0  0  0
  2 28  1  0  0  0  0
  3  4  1  0  0  0  0
  3 29  1  0  0  0  0
  3 30  1  0  0  0  0
  4  5  1  0  0  0  0
  4 31  1  0  0  0  0
  5  6  2  0  0  0  0
  5  7  1  0  0  0  0
  7  8  1  0  0  0  0
  7 32  1  0  0  0  0
  8 13  1  0  0  0  0
  8  9  2  0  0  0  0
  9 10  1  0  0  0  0
  9 33  1  0  0  0  0
 10 11  2  0  0  0  0
 10 34  1  0  0  0  0
 11 12  1  0  0  0  0
 11 35  1  0  0  0  0
 12 13  2  0  0  0  0
 13 14  1  0  0  0  0
 14 18  1  0  0  0  0
 14 15  1  0  0  0  0
 15 16  1  0  0  0  0
 15 36  1  0  0  0  0
 15 37  1  0  0  0  0
 16 17  1  0  0  0  0
 16 38  1  0  0  0  0
 16 39  1  0  0  0  0
 17 18  1  0  0  0  0
 17 40  1  0  0  0  0
 17 41  1  0  0  0  0
 18 42  1  0  0  0  0
 18 43  1  0  0  0  0
 19 24  1  0  0  0  0
 19 20  1  0  0  0  0
 19 52  1  0  0  0  0
 20 21  1  0  0  0  0
 20 44  1  0  0  0  0
 20 45  1  0  0  0  0
 21 22  1  0  0  0  0
 21 46  1  0  0  0  0
 21 47  1  0  0  0  0
 22 23  1  0  0  0  0
 23 24  1  0  0  0  0
 23 48  1  0  0  0  0
 23 49  1  0  0  0  0
 24 50  1  0  0  0  0
 24 51  1  0  0  0  0
M  CHG  1  19   1
M  END
> <s_m_source_file>
AV-unprocessed.smi

> <i_m_source_file_index>
1389

> <i_lp_mmshare_version>
43012

> <i_f3d_flags>
0

> <s_epik_input>
W0NIMl0xW0NIMl1PW0NIMl1bQ0gyXU4xW0NASF0oW0NIM10pW0NIMl1bTkhdQyg9TylbTkhdYzJbY0hdW2NIXVtjSF1uYzJOM1tDSDJdW0NIMl1bQ0gyXVtDSDJdMw==

> <s_epik_cmdline>
J2VwaWtfcHl0aG9uJywgJy1waCcsICc3LjAnLCAnLXRuJywgJzgnLCAnLW1hJywgJzIwMCcsICctbWV0YWxfYmluZGluZycsICctaW1hZScsICc8aW5maWxlLm1hZT4nLCAnLW9tYWUnLCAnPG91dGZpbGUubWFlPic=

> <r_lp_tautomer_probability>
1

> <r_epik_Ionization_Penalty>
0.686

> <r_epik_Ionization_Penalty_Charging>
0.602531

> <r_epik_Ionization_Penalty_Neutral>
0.08347

> <r_epik_State_Penalty>
0.679975

> <r_epik_Charging_Adjusted_Penalty>
1.28251

> <i_epik_Tot_Q>
1

> <i_epik_Tot_abs_Q>
1

> <r_epik_Metal_State_Penalty>
0.679055

> <b_epik_Metal_Only>
0

> <s_lp_Force_Field>
OPLS_2005

> <r_lp_Energy>
48.7477

> <b_lp_Chiralities_Consistent>
1

> <s_lp_Variant>
AV-unprocessed.smi:1389-3

> <Gold.Version>
5.8.1

> <Gold.Id.Protein>
6NUR|6NUR_protein|mol2

> <Gold.PLP.Fitness>
38.2412

> <Gold.PLP.PLP>
-29.9545

> <Gold.PLP.part.hbond>
-3.3344

> <Gold.PLP.part.metal>
0.0000

> <Gold.PLP.part.buried>
-4.5232

> <Gold.PLP.part.nonpolar>
-22.3076

> <Gold.PLP.part.repulsive>
0.1582

> <Gold.PLP.ligand.clash>
0.0000

> <Gold.PLP.ligand.torsion>
0.5431

> <Gold.PLP.Chemscore.Hbond>
3.0000

> <Gold.PLP.Chemscore.CHOScore>
0.0000

> <Gold.PLP.Chemscore.Metal>
0.0000

> <Gold.Chemscore.Hbonds>
donor molecule, donor type, donor heavy atom, donor atom, acceptor molecule, acceptor atom, score
      L1  H    19    52       P1 10957  2.00
      P1  H  6931  6943       L1    12  1.00

> <Gold.PLP.Chemscore.Internal.Correction>
0.3730

> <Gold.Rescore>
     Score         DG    S(hbond)    S(metal)    S(lipo)     H(rot)  DE(clash)    DE(int)     intcor
     12.95     -15.00       1.90        0.00      62.75       1.63       0.19       1.86       ----

> <Gold.Chemscore.Fitness>
12.9463

> <Gold.Chemscore.DG>
-14.9984

> <Gold.Chemscore.ZeroCoef>
-5.4800

> <Gold.Chemscore.Hbond>
1.9016

> <Gold.Chemscore.Metal>
0.0000

> <Gold.Chemscore.Lipo>
62.7486

> <Gold.Chemscore.Internal_Hbond>
0.0000

> <Gold.Chemscore.DEClash>
0.1906

> <Gold.Chemscore.DEInternal>
1.8615

> <Gold.Chemscore.Rot>
1.6307

> <Gold.Chemscore.Internal.Correction>
   9.000000E+99

> <Gold.Chemscore.Hbonds>
donor molecule, donor type, donor heavy atom, donor atom, acceptor molecule, acceptor atom, score
      L1  H    19    52       P1 10957  0.72
      P1  H  6931  6943       L1    12  0.60

> <Gold.Chemscore.Hbond.Weighted>
-6.3513

> <Gold.Chemscore.Metal.Weighted>
-0.0000

> <Gold.Chemscore.Lipo.Weighted>
-7.3416

> <Gold.Chemscore.Internal_Hbond.Weighted>
0.0000

> <Gold.Chemscore.DEClash.Weighted>
0.1906

> <Gold.Chemscore.DEInternal.Weighted>
1.8615

> <Gold.Chemscore.Rot.Weighted>
4.1746

> <Gold.Chemscore.Internal.Correction.Weighted>
   9.000000E+99

> <Gold.Protein.RotatedTorsions>
[ 6907 6896 6895 6894 ] final -121.38 input  -60.11 | X-H torsion
[ 7974 7965 7964 7962 ] final  149.29 input  175.53 | X-H torsion
[ 8008 7997 7996 7995 ] final -124.49 input   59.86 | X-H torsion
[ 10167 10162 10161 10158 ] final -103.52 input  -65.29 | X-H torsion
[ 10718 10713 10712 10709 ] final  -81.41 input   66.30 | X-H torsion
[ 10763 10752 10751 10750 ] final  158.24 input  -60.55 | X-H torsion
[ 11005 11000 10999 10996 ] final -162.46 input  -57.11 | X-H torsion

> <Gold.Protein.ActiveResidues>
 VAL166  LYS551  ARG553  GLY616  TRP617  ASP618  TYR619  PRO620  LYS621  CYS622 
 ASP623  PHE694  ASN695  SER759  ASP760  ASP761  ALA762  ILE779  LEU786  VAL792 
 PHE793  MET794  SER795  GLU796  ALA797  LYS798  CYS799  TRP800  GLU811  SER814 

> <Gold.Protein.RotatedAtoms>
  150.8478  133.7834  159.3036 H   0  0  0  0  0  0  0  0  0  0  0  0  # atno 6907 bound_to 6896
  151.5516  135.1066  159.9960 H   0  0  0  0  0  0  0  0  0  0  0  0  # atno 6908 bound_to 6896
  152.4528  133.7619  159.6807 H   0  0  0  0  0  0  0  0  0  0  0  0  # atno 6909 bound_to 6896
  144.8449  139.6262  143.6000 H   0  0  0  0  0  0  0  0  0  0  0  0  # atno 7974 bound_to 7965
  155.1977  140.0415  157.2912 H   0  0  0  0  0  0  0  0  0  0  0  0  # atno 8008 bound_to 7997
  154.6095  140.2473  155.7658 H   0  0  0  0  0  0  0  0  0  0  0  0  # atno 8009 bound_to 7997
  156.2371  140.2917  156.0351 H   0  0  0  0  0  0  0  0  0  0  0  0  # atno 8010 bound_to 7997
  140.2191  143.3689  152.0985 H   0  0  0  0  0  0  0  0  0  0  0  0  # atno 10167 bound_to 10162
  156.0051  130.4603  150.3949 H   0  0  0  0  0  0  0  0  0  0  0  0  # atno 10718 bound_to 10713
  154.2129  135.2785  155.2952 H   0  0  0  0  0  0  0  0  0  0  0  0  # atno 10763 bound_to 10752
  154.5764  135.5603  153.7147 H   0  0  0  0  0  0  0  0  0  0  0  0  # atno 10764 bound_to 10752
  153.0060  135.6334  154.2268 H   0  0  0  0  0  0  0  0  0  0  0  0  # atno 10765 bound_to 10752
  140.6090  134.4868  157.5213 H   0  0  0  0  0  0  0  0  0  0  0  0  # atno 11005 bound_to 11000
  146.2735  139.6695  142.9279 LP  0  0  0  0  0  0  0  0  0  0  0  0  # atno 17320 bound_to 7965
  145.4618  141.0433  143.2747 LP  0  0  0  0  0  0  0  0  0  0  0  0  # atno 17321 bound_to 7965
  139.5151  144.6957  151.5636 LP  0  0  0  0  0  0  0  0  0  0  0  0  # atno 17342 bound_to 10162
  140.6268  143.9153  150.6571 LP  0  0  0  0  0  0  0  0  0  0  0  0  # atno 17343 bound_to 10162
  157.2021  131.0440  151.2644 LP  0  0  0  0  0  0  0  0  0  0  0  0  # atno 17370 bound_to 10713
  157.3966  130.7310  149.6736 LP  0  0  0  0  0  0  0  0  0  0  0  0  # atno 17371 bound_to 10713
  139.9200  134.8168  156.1242 LP  0  0  0  0  0  0  0  0  0  0  0  0  # atno 17394 bound_to 11000
  141.0821  133.6750  156.2357 LP  0  0  0  0  0  0  0  0  0  0  0  0  # atno 17395 bound_to 11000

$$$$
