AV-unprocessed.smi:67|AV-procd|sdf|637|dock9
  -GOLD-   2262016533D 1   1.00000     0.00000
 Structure written by MMmdl.
 48 50  0  0  0  0  0  0  0  0  2 V2000
  148.5938  138.6810  152.9591 O   0  0  0  0  0  0  0  0  0  0  0  0
  148.8669  138.9120  154.3297 C   0  0  1  0  0  0  0  0  0  0  0  0
  150.4062  138.9088  154.5360 C   0  0  0  0  0  0  0  0  0  0  0  0
  150.8640  138.4873  155.8915 N   0  3  2  0  0  0  0  0  0  0  0  0
  150.4685  139.4790  156.9272 C   0  0  0  0  0  0  0  0  0  0  0  0
  150.8202  138.9978  158.3442 C   0  0  0  0  0  0  0  0  0  0  0  0
  152.3214  138.6796  158.4718 C   0  0  2  0  0  0  0  0  0  0  0  0
  153.1191  139.8461  158.2796 O   0  0  0  0  0  0  0  0  0  0  0  0
  153.1422  140.8352  159.2412 C   0  0  0  0  0  0  0  0  0  0  0  0
  153.7595  140.7136  160.5114 C   0  0  0  0  0  0  0  0  0  0  0  0
  153.7322  141.7877  161.4211 C   0  0  0  0  0  0  0  0  0  0  0  0
  153.0906  142.9916  161.0773 C   0  0  0  0  0  0  0  0  0  0  0  0
  152.4683  143.1284  159.8192 C   0  0  0  0  0  0  0  0  0  0  0  0
  151.7826  144.4320  159.4382 C   0  0  0  0  0  0  0  0  0  0  0  0
  151.8745  145.3254  160.4241 F   0  0  0  0  0  0  0  0  0  0  0  0
  152.3380  144.9585  158.3461 F   0  0  0  0  0  0  0  0  0  0  0  0
  150.4949  144.1939  159.1933 F   0  0  0  0  0  0  0  0  0  0  0  0
  152.5061  142.0493  158.9098 C   0  0  0  0  0  0  0  0  0  0  0  0
  152.7070  137.6703  157.3819 C   0  0  0  0  0  0  0  0  0  0  0  0
  152.3127  138.1583  155.9763 C   0  0  0  0  0  0  0  0  0  0  0  0
  148.1548  140.1833  154.8454 C   0  0  0  0  0  0  0  0  0  0  0  0
  147.0819  139.6862  155.8131 C   0  0  0  0  0  0  0  0  0  0  0  0
  147.5785  138.4080  156.2851 N   0  0  0  0  0  0  0  0  0  0  0  0
  148.1924  137.7765  155.1301 C   0  0  0  0  0  0  0  0  0  0  0  0
  149.2369  139.1403  152.4407 H   0  0  0  0  0  0  0  0  0  0  0  0
  150.9025  138.3130  153.7683 H   0  0  0  0  0  0  0  0  0  0  0  0
  150.7539  139.9316  154.3833 H   0  0  0  0  0  0  0  0  0  0  0  0
  150.9571  140.4331  156.7226 H   0  0  0  0  0  0  0  0  0  0  0  0
  149.3940  139.6588  156.8760 H   0  0  0  0  0  0  0  0  0  0  0  0
  150.5154  139.7492  159.0720 H   0  0  0  0  0  0  0  0  0  0  0  0
  150.2405  138.1031  158.5748 H   0  0  0  0  0  0  0  0  0  0  0  0
  152.5415  138.2209  159.4360 H   0  0  0  0  0  0  0  0  0  0  0  0
  154.2626  139.8093  160.8155 H   0  0  0  0  0  0  0  0  0  0  0  0
  154.2069  141.6883  162.3863 H   0  0  0  0  0  0  0  0  0  0  0  0
  153.0808  143.8098  161.7824 H   0  0  0  0  0  0  0  0  0  0  0  0
  152.0410  142.1493  157.9401 H   0  0  0  0  0  0  0  0  0  0  0  0
  153.7789  137.4735  157.4197 H   0  0  0  0  0  0  0  0  0  0  0  0
  152.2148  136.7176  157.5819 H   0  0  0  0  0  0  0  0  0  0  0  0
  152.5597  137.3630  155.2775 H   0  0  0  0  0  0  0  0  0  0  0  0
  152.9051  139.0305  155.6956 H   0  0  0  0  0  0  0  0  0  0  0  0
  148.8475  140.8127  155.4047 H   0  0  0  0  0  0  0  0  0  0  0  0
  147.7288  140.7932  154.0475 H   0  0  0  0  0  0  0  0  0  0  0  0
  146.8990  140.3819  156.6325 H   0  0  0  0  0  0  0  0  0  0  0  0
  146.1419  139.5430  155.2786 H   0  0  0  0  0  0  0  0  0  0  0  0
  146.8196  137.8383  156.6468 H   0  0  0  0  0  0  0  0  0  0  0  0
  147.4105  137.3055  154.5315 H   0  0  0  0  0  0  0  0  0  0  0  0
  148.8822  136.9858  155.4266 H   0  0  0  0  0  0  0  0  0  0  0  0
  150.3612  137.6377  156.1060 H   0  0  0  0  0  0  0  0  0  0  0  0
  1  2  1  0  0  0  0
  1 25  1  0  0  0  0
  2 24  1  0  0  0  0
  2  3  1  0  0  0  0
  2 21  1  0  0  0  0
  3  4  1  0  0  0  0
  3 26  1  0  0  0  0
  3 27  1  0  0  0  0
  4 20  1  0  0  0  0
  4  5  1  0  0  0  0
  4 48  1  0  0  0  0
  5  6  1  0  0  0  0
  5 28  1  0  0  0  0
  5 29  1  0  0  0  0
  6  7  1  0  0  0  0
  6 30  1  0  0  0  0
  6 31  1  0  0  0  0
  7  8  1  0  0  0  0
  7 19  1  0  0  0  0
  7 32  1  0  0  0  0
  8  9  1  0  0  0  0
  9 18  1  0  0  0  0
  9 10  2  0  0  0  0
 10 11  1  0  0  0  0
 10 33  1  0  0  0  0
 11 12  2  0  0  0  0
 11 34  1  0  0  0  0
 12 13  1  0  0  0  0
 12 35  1  0  0  0  0
 13 14  1  0  0  0  0
 13 18  2  0  0  0  0
 14 15  1  0  0  0  0
 14 16  1  0  0  0  0
 14 17  1  0  0  0  0
 18 36  1  0  0  0  0
 19 20  1  0  0  0  0
 19 37  1  0  0  0  0
 19 38  1  0  0  0  0
 20 39  1  0  0  0  0
 20 40  1  0  0  0  0
 21 22  1  0  0  0  0
 21 41  1  0  0  0  0
 21 42  1  0  0  0  0
 22 23  1  0  0  0  0
 22 43  1  0  0  0  0
 22 44  1  0  0  0  0
 23 24  1  0  0  0  0
 23 45  1  0  0  0  0
 24 46  1  0  0  0  0
 24 47  1  0  0  0  0
M  CHG  1   4   1
M  END
> <s_m_source_file>
AV-unprocessed.smi

> <i_m_source_file_index>
67

> <i_lp_mmshare_version>
43012

> <i_f3d_flags>
0

> <s_epik_input>
W0NIMl0xW05IXVtDSDJdW0NIMl1bQ0BAXTEoW09IXSlbQ0gyXU4yW0NIMl1bQ0gyXVtDSF0oW0NIMl1bQ0gyXTIpT2MzW2NIXVtjSF1bY0hdYyhDKEYpKEYpRilbY0hdMw==

> <s_epik_cmdline>
J2VwaWtfcHl0aG9uJywgJy1waCcsICc3LjAnLCAnLXRuJywgJzgnLCAnLW1hJywgJzIwMCcsICctbWV0YWxfYmluZGluZycsICctaW1hZScsICc8aW5maWxlLm1hZT4nLCAnLW9tYWUnLCAnPG91dGZpbGUubWFlPic=

> <r_epik_Ionization_Penalty>
2.37709

> <r_epik_Ionization_Penalty_Charging>
0.0305656

> <r_epik_Ionization_Penalty_Neutral>
2.34653

> <r_epik_State_Penalty>
2.56959

> <r_epik_Charging_Adjusted_Penalty>
2.60016

> <i_epik_Tot_Q>
1

> <i_epik_Tot_abs_Q>
1

> <r_epik_Metal_State_Penalty>
2.56925

> <b_epik_Metal_Only>
0

> <s_lp_Force_Field>
OPLS_2005

> <r_lp_Energy>
51.6978

> <b_lp_Chiralities_Consistent>
1

> <s_lp_Variant>
AV-unprocessed.smi:67-9

> <Gold.Version>
5.8.1

> <Gold.Id.Protein>
6NUR|6NUR_protein|mol2

> <Gold.PLP.Fitness>
54.0847

> <Gold.PLP.PLP>
-49.2389

> <Gold.PLP.part.hbond>
-2.5111

> <Gold.PLP.part.metal>
0.0000

> <Gold.PLP.part.buried>
-7.4780

> <Gold.PLP.part.nonpolar>
-39.1299

> <Gold.PLP.part.repulsive>
0.0455

> <Gold.PLP.ligand.clash>
1.3892

> <Gold.PLP.ligand.torsion>
0.6656

> <Gold.PLP.Chemscore.Hbond>
1.9440

> <Gold.PLP.Chemscore.CHOScore>
0.0000

> <Gold.PLP.Chemscore.Metal>
0.0000

> <Gold.Chemscore.Hbonds>
donor molecule, donor type, donor heavy atom, donor atom, acceptor molecule, acceptor atom, score
      L1  H     1    25       P1  7957  0.99
      P1  H  7997  8010       L1     8  1.00

> <Gold.PLP.Chemscore.Internal.Correction>
1.7342

> <Gold.Rescore>
     Score         DG    S(hbond)    S(metal)    S(lipo)     H(rot)  DE(clash)    DE(int)     intcor
     18.45     -19.97       1.81        0.00     119.71       2.17       0.71       0.80       ----

> <Gold.Chemscore.Fitness>
18.4510

> <Gold.Chemscore.DG>
-19.9651

> <Gold.Chemscore.ZeroCoef>
-5.4800

> <Gold.Chemscore.Hbond>
1.8094

> <Gold.Chemscore.Metal>
0.0000

> <Gold.Chemscore.Lipo>
119.7073

> <Gold.Chemscore.Internal_Hbond>
0.0000

> <Gold.Chemscore.DEClash>
0.7125

> <Gold.Chemscore.DEInternal>
0.8016

> <Gold.Chemscore.Rot>
2.1734

> <Gold.Chemscore.Internal.Correction>
   9.000000E+99

> <Gold.Chemscore.Hbonds>
donor molecule, donor type, donor heavy atom, donor atom, acceptor molecule, acceptor atom, score
      L1  H     1    25       P1  7957  0.92
      P1  H  7997  8010       L1     8  0.73

> <Gold.Chemscore.Hbond.Weighted>
-6.0433

> <Gold.Chemscore.Metal.Weighted>
-0.0000

> <Gold.Chemscore.Lipo.Weighted>
-14.0058

> <Gold.Chemscore.Internal_Hbond.Weighted>
0.0000

> <Gold.Chemscore.DEClash.Weighted>
0.7125

> <Gold.Chemscore.DEInternal.Weighted>
0.8016

> <Gold.Chemscore.Rot.Weighted>
5.5640

> <Gold.Chemscore.Internal.Correction.Weighted>
   9.000000E+99

> <Gold.Protein.RotatedTorsions>
[ 6907 6896 6895 6894 ] final  105.20 input  -60.11 | X-H torsion
[ 7974 7965 7964 7962 ] final  125.48 input  175.53 | X-H torsion
[ 8008 7997 7996 7995 ] final   29.16 input   59.86 | X-H torsion
[ 10167 10162 10161 10158 ] final -129.69 input  -65.29 | X-H torsion
[ 10718 10713 10712 10709 ] final   37.81 input   66.30 | X-H torsion
[ 10763 10752 10751 10750 ] final   54.33 input  -60.55 | X-H torsion
[ 11005 11000 10999 10996 ] final   88.59 input  -57.11 | X-H torsion

> <Gold.Protein.ActiveResidues>
 VAL166  LYS551  ARG553  GLY616  TRP617  ASP618  TYR619  PRO620  LYS621  CYS622 
 ASP623  PHE694  ASN695  SER759  ASP760  ASP761  ALA762  ILE779  LEU786  VAL792 
 PHE793  MET794  SER795  GLU796  ALA797  LYS798  CYS799  TRP800  GLU811  SER814 

> <Gold.Protein.RotatedAtoms>
  152.5239  133.9564  159.7696 H   0  0  0  0  0  0  0  0  0  0  0  0  # atno 6907 bound_to 6896
  150.9864  133.6185  159.2722 H   0  0  0  0  0  0  0  0  0  0  0  0  # atno 6908 bound_to 6896
  151.3345  135.0855  159.9403 H   0  0  0  0  0  0  0  0  0  0  0  0  # atno 6909 bound_to 6896
  145.0725  139.3719  143.4950 H   0  0  0  0  0  0  0  0  0  0  0  0  # atno 7974 bound_to 7965
  155.0701  140.3199  155.4633 H   0  0  0  0  0  0  0  0  0  0  0  0  # atno 8008 bound_to 7997
  156.2792  140.2113  156.5774 H   0  0  0  0  0  0  0  0  0  0  0  0  # atno 8009 bound_to 7997
  154.7061  140.0502  157.0493 H   0  0  0  0  0  0  0  0  0  0  0  0  # atno 8010 bound_to 7997
  139.9371  143.6205  152.2514 H   0  0  0  0  0  0  0  0  0  0  0  0  # atno 10167 bound_to 10162
  157.3513  130.7600  149.6981 H   0  0  0  0  0  0  0  0  0  0  0  0  # atno 10718 bound_to 10713
  152.9803  135.5748  154.4887 H   0  0  0  0  0  0  0  0  0  0  0  0  # atno 10763 bound_to 10752
  154.4424  135.2776  155.1840 H   0  0  0  0  0  0  0  0  0  0  0  0  # atno 10764 bound_to 10752
  154.3502  135.6211  153.5692 H   0  0  0  0  0  0  0  0  0  0  0  0  # atno 10765 bound_to 10752
  139.8893  134.8497  156.3022 H   0  0  0  0  0  0  0  0  0  0  0  0  # atno 11005 bound_to 11000
  146.3529  140.0477  142.8638 LP  0  0  0  0  0  0  0  0  0  0  0  0  # atno 17320 bound_to 7965
  145.1275  140.9499  143.4564 LP  0  0  0  0  0  0  0  0  0  0  0  0  # atno 17321 bound_to 7965
  139.6734  144.7660  151.1740 LP  0  0  0  0  0  0  0  0  0  0  0  0  # atno 17342 bound_to 10162
  140.7621  143.5831  150.8874 LP  0  0  0  0  0  0  0  0  0  0  0  0  # atno 17343 bound_to 10162
  155.9722  130.4139  150.4108 LP  0  0  0  0  0  0  0  0  0  0  0  0  # atno 17370 bound_to 10713
  157.2171  131.0474  151.2567 LP  0  0  0  0  0  0  0  0  0  0  0  0  # atno 17371 bound_to 10713
  140.9906  133.7211  156.0808 LP  0  0  0  0  0  0  0  0  0  0  0  0  # atno 17394 bound_to 11000
  140.7630  134.3918  157.5522 LP  0  0  0  0  0  0  0  0  0  0  0  0  # atno 17395 bound_to 11000

$$$$
