AV-unprocessed.smi:197|AV-procd|sdf|1544|dock5
  -GOLD-   2262019403D 1   1.00000     0.00000
 Structure written by MMmdl.
 54 57  0  0  0  0  0  0  0  0  1 V2000
  152.7809  143.2488  160.0777 C   0  0  0  0  0  0  0  0  0  0  0  0
  152.8460  142.1307  159.2110 O   0  0  0  0  0  0  0  0  0  0  0  0
  151.8481  141.1633  159.4928 C   0  0  0  0  0  0  0  0  0  0  0  0
  151.9106  140.0521  158.4343 C   0  0  0  0  0  0  0  0  0  0  0  0
  150.8648  140.1947  157.2966 C   0  0  2  0  0  0  0  0  0  0  0  0
  150.6932  141.6739  156.8761 C   0  0  0  0  0  0  0  0  0  0  0  0
  149.7123  141.7915  155.8519 O   0  0  0  0  0  0  0  0  0  0  0  0
  148.4346  141.3484  156.2881 C   0  0  0  0  0  0  0  0  0  0  0  0
  148.5217  139.8625  156.6601 C   0  0  0  0  0  0  0  0  0  0  0  0
  149.5516  139.6529  157.6712 N   0  0  0  0  0  0  0  0  0  0  0  0
  149.5117  138.3802  158.1292 C   0  0  0  0  0  0  0  0  0  0  0  0
  150.6456  137.6481  158.0017 N   0  0  0  0  0  0  0  0  0  0  0  0
  150.6748  136.3811  158.4254 C   0  0  0  0  0  0  0  0  0  0  0  0
  149.7018  135.6694  158.9984 N   0  0  0  0  0  0  0  0  0  0  0  0
  148.5646  136.4084  159.1436 C   0  0  0  0  0  0  0  0  0  0  0  0
  148.3829  137.7616  158.7404 C   0  0  0  0  0  0  0  0  0  0  0  0
  147.0932  138.1770  159.0503 N   0  0  0  0  0  0  0  0  0  0  0  0
  146.5404  137.1264  159.5911 C   0  0  0  0  0  0  0  0  0  0  0  0
  147.3561  136.0229  159.6978 N   0  0  0  0  0  0  0  0  0  0  0  0
  146.9980  134.7276  160.2547 C   0  0  0  0  0  0  0  0  0  0  0  0
  146.6750  134.7540  161.7745 C   0  0  1  0  0  0  0  0  0  0  0  0
  146.4745  133.4342  162.2436 O   0  0  0  0  0  0  0  0  0  0  0  0
  147.7484  135.4240  162.6243 C   0  0  0  0  0  0  0  0  0  0  0  0
  147.4028  136.9044  162.4923 C   0  0  0  0  0  0  0  0  0  0  0  0
  145.9943  136.9563  162.2810 O   0  0  0  0  0  0  0  0  0  0  0  0
  145.4688  135.6388  162.1416 C   0  0  1  0  0  0  0  0  0  0  0  0
  144.2787  135.6243  161.1706 C   0  0  0  0  0  0  0  0  0  0  0  0
  153.5769  143.9506  159.8289 H   0  0  0  0  0  0  0  0  0  0  0  0
  152.9080  142.9502  161.1190 H   0  0  0  0  0  0  0  0  0  0  0  0
  151.8283  143.7701  159.9760 H   0  0  0  0  0  0  0  0  0  0  0  0
  152.0285  140.7333  160.4790 H   0  0  0  0  0  0  0  0  0  0  0  0
  150.8607  141.6238  159.5248 H   0  0  0  0  0  0  0  0  0  0  0  0
  152.9235  140.0561  158.0324 H   0  0  0  0  0  0  0  0  0  0  0  0
  151.7887  139.0828  158.9188 H   0  0  0  0  0  0  0  0  0  0  0  0
  151.2180  139.6473  156.4232 H   0  0  0  0  0  0  0  0  0  0  0  0
  150.4142  142.2941  157.7297 H   0  0  0  0  0  0  0  0  0  0  0  0
  151.6258  142.0761  156.4829 H   0  0  0  0  0  0  0  0  0  0  0  0
  148.0961  141.9454  157.1365 H   0  0  0  0  0  0  0  0  0  0  0  0
  147.7127  141.4943  155.4847 H   0  0  0  0  0  0  0  0  0  0  0  0
  147.5545  139.5194  157.0306 H   0  0  0  0  0  0  0  0  0  0  0  0
  148.7557  139.2706  155.7738 H   0  0  0  0  0  0  0  0  0  0  0  0
  151.6119  135.8627  158.2852 H   0  0  0  0  0  0  0  0  0  0  0  0
  145.5169  137.1299  159.9372 H   0  0  0  0  0  0  0  0  0  0  0  0
  146.1434  134.3481  159.6932 H   0  0  0  0  0  0  0  0  0  0  0  0
  147.8203  134.0399  160.0537 H   0  0  0  0  0  0  0  0  0  0  0  0
  146.3081  132.8730  161.5018 H   0  0  0  0  0  0  0  0  0  0  0  0
  147.6386  135.1308  163.6699 H   0  0  0  0  0  0  0  0  0  0  0  0
  148.7729  135.1946  162.3347 H   0  0  0  0  0  0  0  0  0  0  0  0
  147.6937  137.4765  163.3737 H   0  0  0  0  0  0  0  0  0  0  0  0
  147.9025  137.3401  161.6265 H   0  0  0  0  0  0  0  0  0  0  0  0
  145.1096  135.3501  163.1315 H   0  0  0  0  0  0  0  0  0  0  0  0
  143.8972  134.6121  161.0345 H   0  0  0  0  0  0  0  0  0  0  0  0
  144.5492  136.0187  160.1912 H   0  0  0  0  0  0  0  0  0  0  0  0
  143.4625  136.2367  161.5539 H   0  0  0  0  0  0  0  0  0  0  0  0
  1  2  1  0  0  0  0
  1 28  1  0  0  0  0
  1 29  1  0  0  0  0
  1 30  1  0  0  0  0
  2  3  1  0  0  0  0
  3  4  1  0  0  0  0
  3 31  1  0  0  0  0
  3 32  1  0  0  0  0
  4  5  1  0  0  0  0
  4 33  1  0  0  0  0
  4 34  1  0  0  0  0
  5 10  1  0  0  0  0
  5  6  1  0  0  0  0
  5 35  1  0  0  0  0
  6  7  1  0  0  0  0
  6 36  1  0  0  0  0
  6 37  1  0  0  0  0
  7  8  1  0  0  0  0
  8  9  1  0  0  0  0
  8 38  1  0  0  0  0
  8 39  1  0  0  0  0
  9 10  1  0  0  0  0
  9 40  1  0  0  0  0
  9 41  1  0  0  0  0
 10 11  1  0  0  0  0
 11 16  1  0  0  0  0
 11 12  2  0  0  0  0
 12 13  1  0  0  0  0
 13 14  2  0  0  0  0
 13 42  1  0  0  0  0
 14 15  1  0  0  0  0
 15 19  1  0  0  0  0
 15 16  2  0  0  0  0
 16 17  1  0  0  0  0
 17 18  2  0  0  0  0
 18 19  1  0  0  0  0
 18 43  1  0  0  0  0
 19 20  1  0  0  0  0
 20 21  1  0  0  0  0
 20 44  1  0  0  0  0
 20 45  1  0  0  0  0
 21 26  1  0  0  0  0
 21 22  1  0  0  0  0
 21 23  1  0  0  0  0
 22 46  1  0  0  0  0
 23 24  1  0  0  0  0
 23 47  1  0  0  0  0
 23 48  1  0  0  0  0
 24 25  1  0  0  0  0
 24 49  1  0  0  0  0
 24 50  1  0  0  0  0
 25 26  1  0  0  0  0
 26 27  1  0  0  0  0
 26 51  1  0  0  0  0
 27 52  1  0  0  0  0
 27 53  1  0  0  0  0
 27 54  1  0  0  0  0
M  END
> <s_m_source_file>
AV-unprocessed.smi

> <i_m_source_file_index>
197

> <i_lp_mmshare_version>
43012

> <i_f3d_flags>
0

> <s_epik_input>
W0NIM11PW0NIMl1bQ0gyXVtDQEBIXTFbQ0gyXU9bQ0gyXVtDSDJdTjFjKG5bY0hdbjIpYyhjMjMpbltjSF1uM1tDSDJdW0NAQF00KFtPSF0pW0NIMl1bQ0gyXU9bQ0BIXTRbQ0gzXQ==

> <s_epik_cmdline>
J2VwaWtfcHl0aG9uJywgJy1waCcsICc3LjAnLCAnLXRuJywgJzgnLCAnLW1hJywgJzIwMCcsICctbWV0YWxfYmluZGluZycsICctaW1hZScsICc8aW5maWxlLm1hZT4nLCAnLW9tYWUnLCAnPG91dGZpbGUubWFlPic=

> <r_lp_tautomer_probability>
1

> <r_epik_Ionization_Penalty>
0.000106218

> <r_epik_Ionization_Penalty_Charging>
0

> <r_epik_Ionization_Penalty_Neutral>
0.000106218

> <r_epik_State_Penalty>
-0

> <r_epik_Charging_Adjusted_Penalty>
0

> <i_epik_Tot_Q>
0

> <i_epik_Tot_abs_Q>
0

> <r_epik_Metal_State_Penalty>
-0

> <b_epik_Metal_Only>
0

> <s_lp_Force_Field>
OPLS_2005

> <r_lp_Energy>
43.403

> <b_lp_Chiralities_Consistent>
1

> <s_lp_Variant>
AV-unprocessed.smi:197-1

> <Gold.Version>
5.8.1

> <Gold.Id.Protein>
6NUR|6NUR_protein|mol2

> <Gold.PLP.Fitness>
34.4357

> <Gold.PLP.PLP>
-32.5002

> <Gold.PLP.part.hbond>
-2.0000

> <Gold.PLP.part.metal>
0.0000

> <Gold.PLP.part.buried>
-3.6571

> <Gold.PLP.part.nonpolar>
-27.5086

> <Gold.PLP.part.repulsive>
0.8206

> <Gold.PLP.ligand.clash>
0.0000

> <Gold.PLP.ligand.torsion>
0.6511

> <Gold.PLP.Chemscore.Hbond>
0.9769

> <Gold.PLP.Chemscore.CHOScore>
0.0000

> <Gold.PLP.Chemscore.Metal>
0.0000

> <Gold.Chemscore.Hbonds>
donor molecule, donor type, donor heavy atom, donor atom, acceptor molecule, acceptor atom, score
      P1  H  6896  6908       L1    14  0.79
      P1  H  6934  6947       L1    17  0.23

> <Gold.PLP.Chemscore.Internal.Correction>
0.3069

> <Gold.Rescore>
     Score         DG    S(hbond)    S(metal)    S(lipo)     H(rot)  DE(clash)    DE(int)     intcor
      3.88      -9.65       0.62        0.00      80.06       2.84       0.10       5.67       ----

> <Gold.Chemscore.Fitness>
3.8786

> <Gold.Chemscore.DG>
-9.6478

> <Gold.Chemscore.ZeroCoef>
-5.4800

> <Gold.Chemscore.Hbond>
0.6167

> <Gold.Chemscore.Metal>
0.0000

> <Gold.Chemscore.Lipo>
80.0642

> <Gold.Chemscore.Internal_Hbond>
0.0000

> <Gold.Chemscore.DEClash>
0.0999

> <Gold.Chemscore.DEInternal>
5.6693

> <Gold.Chemscore.Rot>
2.8358

> <Gold.Chemscore.Internal.Correction>
   9.000000E+99

> <Gold.Chemscore.Hbonds>
donor molecule, donor type, donor heavy atom, donor atom, acceptor molecule, acceptor atom, score
      P1  H  6896  6908       L1    14  0.11
      P1  H  6934  6947       L1    17  0.01

> <Gold.Chemscore.Hbond.Weighted>
-2.0598

> <Gold.Chemscore.Metal.Weighted>
-0.0000

> <Gold.Chemscore.Lipo.Weighted>
-9.3675

> <Gold.Chemscore.Internal_Hbond.Weighted>
0.0000

> <Gold.Chemscore.DEClash.Weighted>
0.0999

> <Gold.Chemscore.DEInternal.Weighted>
5.6693

> <Gold.Chemscore.Rot.Weighted>
7.2596

> <Gold.Chemscore.Internal.Correction.Weighted>
   9.000000E+99

> <Gold.Protein.RotatedTorsions>
[ 6907 6896 6895 6894 ] final  159.85 input  -60.11 | X-H torsion
[ 7974 7965 7964 7962 ] final  -97.76 input  175.53 | X-H torsion
[ 8008 7997 7996 7995 ] final  -96.23 input   59.86 | X-H torsion
[ 10167 10162 10161 10158 ] final  -12.10 input  -65.29 | X-H torsion
[ 10718 10713 10712 10709 ] final  -97.85 input   66.30 | X-H torsion
[ 10763 10752 10751 10750 ] final  178.63 input  -60.55 | X-H torsion
[ 11005 11000 10999 10996 ] final  146.17 input  -57.11 | X-H torsion

> <Gold.Protein.ActiveResidues>
 VAL166  LYS551  ARG553  GLY616  TRP617  ASP618  TYR619  PRO620  LYS621  CYS622 
 ASP623  PHE694  ASN695  SER759  ASP760  ASP761  ALA762  ILE779  LEU786  VAL792 
 PHE793  MET794  SER795  GLU796  ALA797  LYS798  CYS799  TRP800  GLU811  SER814 

> <Gold.Protein.RotatedAtoms>
  151.9794  133.3752  159.4101 H   0  0  0  0  0  0  0  0  0  0  0  0  # atno 6907 bound_to 6896
  150.6937  134.4055  159.5147 H   0  0  0  0  0  0  0  0  0  0  0  0  # atno 6908 bound_to 6896
  152.1772  134.8785  160.0580 H   0  0  0  0  0  0  0  0  0  0  0  0  # atno 6909 bound_to 6896
  145.3295  140.9438  143.2670 H   0  0  0  0  0  0  0  0  0  0  0  0  # atno 7974 bound_to 7965
  154.7718  140.0473  157.1057 H   0  0  0  0  0  0  0  0  0  0  0  0  # atno 8008 bound_to 7997
  154.9811  140.3101  155.4926 H   0  0  0  0  0  0  0  0  0  0  0  0  # atno 8009 bound_to 7997
  156.2922  140.2235  156.4910 H   0  0  0  0  0  0  0  0  0  0  0  0  # atno 8010 bound_to 7997
  140.7154  143.5568  150.9239 H   0  0  0  0  0  0  0  0  0  0  0  0  # atno 10167 bound_to 10162
  156.0093  130.5212  150.6436 H   0  0  0  0  0  0  0  0  0  0  0  0  # atno 10718 bound_to 10713
  154.5102  135.2788  155.1349 H   0  0  0  0  0  0  0  0  0  0  0  0  # atno 10763 bound_to 10752
  154.2947  135.6260  153.5403 H   0  0  0  0  0  0  0  0  0  0  0  0  # atno 10764 bound_to 10752
  152.9917  135.5682  154.5566 H   0  0  0  0  0  0  0  0  0  0  0  0  # atno 10765 bound_to 10752
  140.0772  134.9118  157.1442 H   0  0  0  0  0  0  0  0  0  0  0  0  # atno 11005 bound_to 11000
  144.8875  139.4819  143.6693 LP  0  0  0  0  0  0  0  0  0  0  0  0  # atno 17320 bound_to 7965
  146.3051  139.7554  142.9062 LP  0  0  0  0  0  0  0  0  0  0  0  0  # atno 17321 bound_to 7965
  139.9293  143.6512  152.3080 LP  0  0  0  0  0  0  0  0  0  0  0  0  # atno 17342 bound_to 10162
  139.6957  144.7641  151.1361 LP  0  0  0  0  0  0  0  0  0  0  0  0  # atno 17343 bound_to 10162
  157.4211  131.0837  151.1130 LP  0  0  0  0  0  0  0  0  0  0  0  0  # atno 17370 bound_to 10713
  157.1732  130.6276  149.5647 LP  0  0  0  0  0  0  0  0  0  0  0  0  # atno 17371 bound_to 10713
  140.3541  134.2566  155.7195 LP  0  0  0  0  0  0  0  0  0  0  0  0  # atno 17394 bound_to 11000
  141.2034  133.7914  157.0343 LP  0  0  0  0  0  0  0  0  0  0  0  0  # atno 17395 bound_to 11000

$$$$
