AV-unprocessed.smi:1498|AV-procd|sdf|6060|dock2
  -GOLD-   22720 6173D 1   1.00000     0.00000
 Structure written by MMmdl.
 37 38  0  0  0  0  0  0  0  0  1 V2000
  153.0523  142.8001  162.8652 C   0  0  0  0  0  0  0  0  0  0  0  0
  153.0389  143.3026  161.4991 N   0  0  0  0  0  0  0  0  0  0  0  0
  151.7848  144.0165  161.2481 C   0  0  0  0  0  0  0  0  0  0  0  0
  151.7563  144.5386  159.7977 C   0  0  0  0  0  0  0  0  0  0  0  0
  151.8886  143.3945  158.8818 N   0  0  0  0  0  0  0  0  0  0  0  0
  150.9055  142.8568  158.1173 C   0  0  0  0  0  0  0  0  0  0  0  0
  149.7102  143.0725  158.3227 O   0  0  0  0  0  0  0  0  0  0  0  0
  151.3480  142.0121  157.1663 N   0  0  0  0  0  0  0  0  0  0  0  0
  150.5832  141.3280  156.1878 C   0  0  0  0  0  0  0  0  0  0  0  0
  150.9546  140.0974  155.5868 C   0  0  0  0  0  0  0  0  0  0  0  0
  150.0490  139.7019  154.7052 N   0  0  0  0  0  0  0  0  0  0  0  0
  149.0956  140.6669  154.7214 N   0  0  0  0  0  0  0  0  0  0  0  0
  147.9350  140.5480  153.8553 C   0  0  0  0  0  0  0  0  0  0  0  0
  147.6242  139.0837  153.5330 C   0  0  0  0  0  0  0  0  0  0  0  0
  147.9008  138.6604  152.2969 N   0  0  0  0  0  0  0  0  0  0  0  0
  147.1420  138.3421  154.3870 O   0  0  0  0  0  0  0  0  0  0  0  0
  149.3894  141.6738  155.6209 C   0  0  0  0  0  0  0  0  0  0  0  0
  153.1665  142.7129  159.1138 C   0  0  0  0  0  0  0  0  0  0  0  0
  153.1961  142.1873  160.5624 C   0  0  0  0  0  0  0  0  0  0  0  0
  152.9600  143.6223  163.5756 H   0  0  0  0  0  0  0  0  0  0  0  0
  153.9904  142.2846  163.0736 H   0  0  0  0  0  0  0  0  0  0  0  0
  152.2322  142.1021  163.0405 H   0  0  0  0  0  0  0  0  0  0  0  0
  150.9335  143.3576  161.4269 H   0  0  0  0  0  0  0  0  0  0  0  0
  151.6972  144.8524  161.9430 H   0  0  0  0  0  0  0  0  0  0  0  0
  150.8505  145.1247  159.6450 H   0  0  0  0  0  0  0  0  0  0  0  0
  152.5831  145.2308  159.6304 H   0  0  0  0  0  0  0  0  0  0  0  0
  152.3462  141.8670  157.1240 H   0  0  0  0  0  0  0  0  0  0  0  0
  151.8313  139.4900  155.7568 H   0  0  0  0  0  0  0  0  0  0  0  0
  147.0685  141.0024  154.3382 H   0  0  0  0  0  0  0  0  0  0  0  0
  148.1268  141.1136  152.9422 H   0  0  0  0  0  0  0  0  0  0  0  0
  147.7139  137.7031  152.0360 H   0  0  0  0  0  0  0  0  0  0  0  0
  148.2975  139.3024  151.6260 H   0  0  0  0  0  0  0  0  0  0  0  0
  148.7363  142.5220  155.7632 H   0  0  0  0  0  0  0  0  0  0  0  0
  153.3357  141.8905  158.4176 H   0  0  0  0  0  0  0  0  0  0  0  0
  153.9870  143.4129  158.9479 H   0  0  0  0  0  0  0  0  0  0  0  0
  154.1443  141.6833  160.7527 H   0  0  0  0  0  0  0  0  0  0  0  0
  152.4036  141.4520  160.7122 H   0  0  0  0  0  0  0  0  0  0  0  0
  1  2  1  0  0  0  0
  1 20  1  0  0  0  0
  1 21  1  0  0  0  0
  1 22  1  0  0  0  0
  2 19  1  0  0  0  0
  2  3  1  0  0  0  0
  3  4  1  0  0  0  0
  3 23  1  0  0  0  0
  3 24  1  0  0  0  0
  4  5  1  0  0  0  0
  4 25  1  0  0  0  0
  4 26  1  0  0  0  0
  5  6  1  0  0  0  0
  5 18  1  0  0  0  0
  6  7  2  0  0  0  0
  6  8  1  0  0  0  0
  8  9  1  0  0  0  0
  8 27  1  0  0  0  0
  9 17  2  0  0  0  0
  9 10  1  0  0  0  0
 10 11  2  0  0  0  0
 10 28  1  0  0  0  0
 11 12  1  0  0  0  0
 12 13  1  0  0  0  0
 12 17  1  0  0  0  0
 13 14  1  0  0  0  0
 13 29  1  0  0  0  0
 13 30  1  0  0  0  0
 14 15  1  0  0  0  0
 14 16  2  0  0  0  0
 15 31  1  0  0  0  0
 15 32  1  0  0  0  0
 17 33  1  0  0  0  0
 18 19  1  0  0  0  0
 18 34  1  0  0  0  0
 18 35  1  0  0  0  0
 19 36  1  0  0  0  0
 19 37  1  0  0  0  0
M  END
> <s_m_source_file>
AV-unprocessed.smi

> <i_m_source_file_index>
1498

> <i_lp_mmshare_version>
43012

> <i_f3d_flags>
0

> <s_epik_input>
W0NIM11OMVtDSDJdW0NIMl1OKFtDSDJdW0NIMl0xKUMoPU8pW05IXWMyW2NIXW5uKFtjSF0yKVtDSDJdQyg9TylbTkgyXQ==

> <s_epik_cmdline>
J2VwaWtfcHl0aG9uJywgJy1waCcsICc3LjAnLCAnLXRuJywgJzgnLCAnLW1hJywgJzIwMCcsICctbWV0YWxfYmluZGluZycsICctaW1hZScsICc8aW5maWxlLm1hZT4nLCAnLW9tYWUnLCAnPG91dGZpbGUubWFlPic=

> <r_lp_tautomer_probability>
1

> <r_epik_Ionization_Penalty>
0.623411

> <r_epik_Ionization_Penalty_Charging>
0

> <r_epik_Ionization_Penalty_Neutral>
0.623411

> <r_epik_State_Penalty>
0.639577

> <r_epik_Charging_Adjusted_Penalty>
0.639577

> <i_epik_Tot_Q>
0

> <i_epik_Tot_abs_Q>
0

> <r_epik_Metal_State_Penalty>
0.639574

> <b_epik_Metal_Only>
0

> <s_lp_Force_Field>
OPLS_2005

> <r_lp_Energy>
44.4241

> <b_lp_Chiralities_Consistent>
1

> <s_lp_Variant>
AV-unprocessed.smi:1498-2

> <Gold.Version>
5.8.1

> <Gold.Id.Protein>
6NUR|6NUR_protein|mol2

> <Gold.PLP.Fitness>
46.1348

> <Gold.PLP.PLP>
-40.3968

> <Gold.PLP.part.hbond>
-1.8182

> <Gold.PLP.part.metal>
0.0000

> <Gold.PLP.part.buried>
-0.2583

> <Gold.PLP.part.nonpolar>
-37.8222

> <Gold.PLP.part.repulsive>
0.6738

> <Gold.PLP.ligand.clash>
0.0000

> <Gold.PLP.ligand.torsion>
0.8883

> <Gold.PLP.Chemscore.Hbond>
1.4880

> <Gold.PLP.Chemscore.CHOScore>
1.0000

> <Gold.PLP.Chemscore.Metal>
0.0000

> <Gold.Chemscore.Hbonds>
donor molecule, donor type, donor heavy atom, donor atom, acceptor molecule, acceptor atom, score
      L1  H    15    31       P1  7948  0.58
      L1  H    15    32       P1  7957  0.93
      L1  C    17    33       P1  8028  1.00

> <Gold.PLP.Chemscore.Internal.Correction>
0.0505

> <Gold.Rescore>
     Score         DG    S(hbond)    S(metal)    S(lipo)     H(rot)  DE(clash)    DE(int)     intcor
     15.05     -17.30       1.81        0.00      82.90       1.54       0.50       1.74       ----

> <Gold.Chemscore.Fitness>
15.0547

> <Gold.Chemscore.DG>
-17.2976

> <Gold.Chemscore.ZeroCoef>
-5.4800

> <Gold.Chemscore.Hbond>
1.8128

> <Gold.Chemscore.Metal>
0.0000

> <Gold.Chemscore.Lipo>
82.9022

> <Gold.Chemscore.Internal_Hbond>
0.0000

> <Gold.Chemscore.DEClash>
0.4993

> <Gold.Chemscore.DEInternal>
1.7436

> <Gold.Chemscore.Rot>
1.5377

> <Gold.Chemscore.Internal.Correction>
   9.000000E+99

> <Gold.Chemscore.Hbonds>
donor molecule, donor type, donor heavy atom, donor atom, acceptor molecule, acceptor atom, score
      L1  H    15    31       P1  7948  0.58
      L1  H    15    32       P1  7957  0.83

> <Gold.Chemscore.Hbond.Weighted>
-6.0546

> <Gold.Chemscore.Metal.Weighted>
-0.0000

> <Gold.Chemscore.Lipo.Weighted>
-9.6996

> <Gold.Chemscore.Internal_Hbond.Weighted>
0.0000

> <Gold.Chemscore.DEClash.Weighted>
0.4993

> <Gold.Chemscore.DEInternal.Weighted>
1.7436

> <Gold.Chemscore.Rot.Weighted>
3.9366

> <Gold.Chemscore.Internal.Correction.Weighted>
   9.000000E+99

> <Gold.Protein.RotatedTorsions>
[ 6907 6896 6895 6894 ] final  149.98 input  -60.11 | X-H torsion
[ 7974 7965 7964 7962 ] final   55.94 input  175.53 | X-H torsion
[ 8008 7997 7996 7995 ] final   89.73 input   59.86 | X-H torsion
[ 10167 10162 10161 10158 ] final  -13.46 input  -65.29 | X-H torsion
[ 10718 10713 10712 10709 ] final -172.64 input   66.30 | X-H torsion
[ 10763 10752 10751 10750 ] final   73.23 input  -60.55 | X-H torsion
[ 11005 11000 10999 10996 ] final  -99.20 input  -57.11 | X-H torsion

> <Gold.Protein.ActiveResidues>
 VAL166  LYS551  ARG553  GLY616  TRP617  ASP618  TYR619  PRO620  LYS621  CYS622 
 ASP623  PHE694  ASN695  SER759  ASP760  ASP761  ALA762  ILE779  LEU786  VAL792 
 PHE793  MET794  SER795  GLU796  ALA797  LYS798  CYS799  TRP800  GLU811  SER814 

> <Gold.Protein.RotatedAtoms>
  152.1207  133.4352  159.4673 H   0  0  0  0  0  0  0  0  0  0  0  0  # atno 6907 bound_to 6896
  150.6872  134.2538  159.4531 H   0  0  0  0  0  0  0  0  0  0  0  0  # atno 6908 bound_to 6896
  152.0414  134.9708  160.0624 H   0  0  0  0  0  0  0  0  0  0  0  0  # atno 6909 bound_to 6896
  145.9451  139.3922  143.0340 H   0  0  0  0  0  0  0  0  0  0  0  0  # atno 7974 bound_to 7965
  156.0035  140.3357  155.6869 H   0  0  0  0  0  0  0  0  0  0  0  0  # atno 8008 bound_to 7997
  155.6257  140.0680  157.2682 H   0  0  0  0  0  0  0  0  0  0  0  0  # atno 8009 bound_to 7997
  154.4257  140.1768  156.1406 H   0  0  0  0  0  0  0  0  0  0  0  0  # atno 8010 bound_to 7997
  140.7182  143.5424  150.9394 H   0  0  0  0  0  0  0  0  0  0  0  0  # atno 10167 bound_to 10162
  156.7585  130.9405  151.3117 H   0  0  0  0  0  0  0  0  0  0  0  0  # atno 10718 bound_to 10713
  153.0508  135.5070  154.7862 H   0  0  0  0  0  0  0  0  0  0  0  0  # atno 10763 bound_to 10752
  154.6726  135.2955  154.9724 H   0  0  0  0  0  0  0  0  0  0  0  0  # atno 10764 bound_to 10752
  154.0537  135.6700  153.4856 H   0  0  0  0  0  0  0  0  0  0  0  0  # atno 10765 bound_to 10752
  141.1317  133.8303  157.0941 H   0  0  0  0  0  0  0  0  0  0  0  0  # atno 11005 bound_to 11000
  145.8247  140.9661  143.0880 LP  0  0  0  0  0  0  0  0  0  0  0  0  # atno 17320 bound_to 7965
  144.6786  140.0086  143.7484 LP  0  0  0  0  0  0  0  0  0  0  0  0  # atno 17321 bound_to 7965
  139.9147  143.6678  152.3108 LP  0  0  0  0  0  0  0  0  0  0  0  0  # atno 17342 bound_to 10162
  139.7074  144.7626  151.1170 LP  0  0  0  0  0  0  0  0  0  0  0  0  # atno 17343 bound_to 10162
  157.6745  130.9082  150.0118 LP  0  0  0  0  0  0  0  0  0  0  0  0  # atno 17370 bound_to 10713
  156.1354  130.3643  149.9665 LP  0  0  0  0  0  0  0  0  0  0  0  0  # atno 17371 bound_to 10713
  140.0374  134.9871  157.0897 LP  0  0  0  0  0  0  0  0  0  0  0  0  # atno 17394 bound_to 11000
  140.4189  134.1902  155.7164 LP  0  0  0  0  0  0  0  0  0  0  0  0  # atno 17395 bound_to 11000

$$$$
