AV-unprocessed.smi:1819|AV-procd|sdf|7383|dock1
  -GOLD-   22720 9 53D 1   1.00000     0.00000
 Structure written by MMmdl.
 28 28  0  0  0  0  0  0  0  0  2 V2000
  149.4884  141.2157  154.0058 O   0  0  0  0  0  0  0  0  0  0  0  0
  149.8743  140.3128  154.7493 C   0  0  0  0  0  0  0  0  0  0  0  0
  150.2575  138.9453  154.1715 C   0  0  0  0  0  0  0  0  0  0  0  0
  150.1155  137.8665  155.1621 N   0  0  0  0  0  0  0  0  0  0  0  0
  148.8446  137.6543  155.7248 C   0  0  0  0  0  0  0  0  0  0  0  0
  148.6259  136.6943  156.6435 C   0  0  0  0  0  0  0  0  0  0  0  0
  149.7503  135.8620  157.0535 C   0  0  0  0  0  0  0  0  0  0  0  0
  149.5681  134.9775  157.8878 O   0  0  0  0  0  0  0  0  0  0  0  0
  150.9651  136.1099  156.4820 N   0  5  0  0  0  0  0  0  0  0  0  0
  151.1734  137.0914  155.5504 C   0  0  0  0  0  0  0  0  0  0  0  0
  152.2792  137.3001  155.0489 O   0  0  0  0  0  0  0  0  0  0  0  0
  149.9976  140.4501  156.0782 N   0  0  0  0  0  0  0  0  0  0  0  0
  149.6238  141.6324  156.8474 C   0  0  0  0  0  0  0  0  0  0  0  0
  150.8625  142.4085  157.3240 C   0  0  0  0  0  0  0  0  0  0  0  0
  150.4620  143.6751  158.5644 S   0  0  0  0  0  0  0  0  0  0  0  0
  152.1272  144.2506  158.9912 C   0  0  0  0  0  0  0  0  0  0  0  0
  152.0508  145.2106  159.9110 F   0  0  0  0  0  0  0  0  0  0  0  0
  152.8519  143.2457  159.4813 F   0  0  0  0  0  0  0  0  0  0  0  0
  152.7359  144.7416  157.9122 F   0  0  0  0  0  0  0  0  0  0  0  0
  149.6282  138.7556  153.3011 H   0  0  0  0  0  0  0  0  0  0  0  0
  151.2798  138.9677  153.7888 H   0  0  0  0  0  0  0  0  0  0  0  0
  148.0683  138.3175  155.3726 H   0  0  0  0  0  0  0  0  0  0  0  0
  147.6443  136.5461  157.0687 H   0  0  0  0  0  0  0  0  0  0  0  0
  150.3271  139.6526  156.6024 H   0  0  0  0  0  0  0  0  0  0  0  0
  149.0298  142.2714  156.1938 H   0  0  0  0  0  0  0  0  0  0  0  0
  148.9805  141.3797  157.6918 H   0  0  0  0  0  0  0  0  0  0  0  0
  151.6021  141.7216  157.7369 H   0  0  0  0  0  0  0  0  0  0  0  0
  151.3316  142.9036  156.4738 H   0  0  0  0  0  0  0  0  0  0  0  0
  1  2  2  0  0  0  0
  2  3  1  0  0  0  0
  2 12  1  0  0  0  0
  3  4  1  0  0  0  0
  3 20  1  0  0  0  0
  3 21  1  0  0  0  0
  4 10  1  0  0  0  0
  4  5  1  0  0  0  0
  5  6  2  0  0  0  0
  5 22  1  0  0  0  0
  6  7  1  0  0  0  0
  6 23  1  0  0  0  0
  7  8  2  0  0  0  0
  7  9  1  0  0  0  0
  9 10  1  0  0  0  0
 10 11  2  0  0  0  0
 12 13  1  0  0  0  0
 12 24  1  0  0  0  0
 13 14  1  0  0  0  0
 13 25  1  0  0  0  0
 13 26  1  0  0  0  0
 14 15  1  0  0  0  0
 14 27  1  0  0  0  0
 14 28  1  0  0  0  0
 15 16  1  0  0  0  0
 16 17  1  0  0  0  0
 16 18  1  0  0  0  0
 16 19  1  0  0  0  0
M  CHG  1   9  -1
M  END
> <s_m_source_file>
AV-unprocessed.smi

> <i_m_source_file_index>
1819

> <i_lp_mmshare_version>
43012

> <i_f3d_flags>
0

> <s_epik_input>
RkMoRikoRilTW0NIMl1bQ0gyXVtOSF1DKD1PKVtDSDJdbjFbY0hdW2NIXWMoPU8pW25IXWMxPU8=

> <s_epik_cmdline>
J2VwaWtfcHl0aG9uJywgJy1waCcsICc3LjAnLCAnLXRuJywgJzgnLCAnLW1hJywgJzIwMCcsICctbWV0YWxfYmluZGluZycsICctaW1hZScsICc8aW5maWxlLm1hZT4nLCAnLW9tYWUnLCAnPG91dGZpbGUubWFlPic=

> <r_lp_tautomer_probability>
0.999537

> <r_epik_Ionization_Penalty>
3.04617

> <r_epik_Ionization_Penalty_Charging>
2.49125e-08

> <r_epik_Ionization_Penalty_Neutral>
3.04617

> <r_epik_State_Penalty>
3.04516

> <r_epik_Charging_Adjusted_Penalty>
3.04516

> <i_epik_Tot_Q>
-1

> <i_epik_Tot_abs_Q>
1

> <r_epik_Metal_State_Penalty>
0.457105

> <b_epik_Metal_Only>
1

> <s_lp_Force_Field>
OPLS_2005

> <r_lp_Energy>
9.91428

> <b_lp_Chiralities_Consistent>
1

> <s_lp_Variant>
AV-unprocessed.smi:1819-2

> <Gold.Version>
5.8.1

> <Gold.Id.Protein>
6NUR|6NUR_protein|mol2

> <Gold.PLP.Fitness>
43.7164

> <Gold.PLP.PLP>
-37.3931

> <Gold.PLP.part.hbond>
-4.0000

> <Gold.PLP.part.metal>
0.0000

> <Gold.PLP.part.buried>
-4.1309

> <Gold.PLP.part.nonpolar>
-29.9794

> <Gold.PLP.part.repulsive>
0.5848

> <Gold.PLP.ligand.clash>
0.0000

> <Gold.PLP.ligand.torsion>
0.4722

> <Gold.PLP.Chemscore.Hbond>
2.3960

> <Gold.PLP.Chemscore.CHOScore>
0.0000

> <Gold.PLP.Chemscore.Metal>
0.0000

> <Gold.Chemscore.Hbonds>
donor molecule, donor type, donor heavy atom, donor atom, acceptor molecule, acceptor atom, score
      P1  H  6896  6908       L1     8  1.00
      P1  H  8011  8017       L1     1  0.70
      P1  H 10752 10765       L1    11  0.74

> <Gold.PLP.Chemscore.Internal.Correction>
0.0798

> <Gold.Rescore>
     Score         DG    S(hbond)    S(metal)    S(lipo)     H(rot)  DE(clash)    DE(int)     intcor
     10.03     -11.42       2.34        0.00      46.96       2.88       0.89       0.49       ----

> <Gold.Chemscore.Fitness>
10.0345

> <Gold.Chemscore.DG>
-11.4206

> <Gold.Chemscore.ZeroCoef>
-5.4800

> <Gold.Chemscore.Hbond>
2.3373

> <Gold.Chemscore.Metal>
0.0000

> <Gold.Chemscore.Lipo>
46.9609

> <Gold.Chemscore.Internal_Hbond>
0.0000

> <Gold.Chemscore.DEClash>
0.8935

> <Gold.Chemscore.DEInternal>
0.4927

> <Gold.Chemscore.Rot>
2.8751

> <Gold.Chemscore.Internal.Correction>
   9.000000E+99

> <Gold.Chemscore.Hbonds>
donor molecule, donor type, donor heavy atom, donor atom, acceptor molecule, acceptor atom, score
      P1  H  6896  6908       L1     8  0.92
      P1  H  8011  8017       L1     1  0.68
      P1  H 10752 10765       L1    11  0.37

> <Gold.Chemscore.Hbond.Weighted>
-7.8066

> <Gold.Chemscore.Metal.Weighted>
-0.0000

> <Gold.Chemscore.Lipo.Weighted>
-5.4944

> <Gold.Chemscore.Internal_Hbond.Weighted>
0.0000

> <Gold.Chemscore.DEClash.Weighted>
0.8935

> <Gold.Chemscore.DEInternal.Weighted>
0.4927

> <Gold.Chemscore.Rot.Weighted>
7.3603

> <Gold.Chemscore.Internal.Correction.Weighted>
   9.000000E+99

> <Gold.Protein.RotatedTorsions>
[ 6907 6896 6895 6894 ] final  142.74 input  -60.11 | X-H torsion
[ 7974 7965 7964 7962 ] final  -84.64 input  175.53 | X-H torsion
[ 8008 7997 7996 7995 ] final   98.14 input   59.86 | X-H torsion
[ 10167 10162 10161 10158 ] final -178.33 input  -65.29 | X-H torsion
[ 10718 10713 10712 10709 ] final  -90.69 input   66.30 | X-H torsion
[ 10763 10752 10751 10750 ] final -174.16 input  -60.55 | X-H torsion
[ 11005 11000 10999 10996 ] final   50.15 input  -57.11 | X-H torsion

> <Gold.Protein.ActiveResidues>
 VAL166  LYS551  ARG553  GLY616  TRP617  ASP618  TYR619  PRO620  LYS621  CYS622 
 ASP623  PHE694  ASN695  SER759  ASP760  ASP761  ALA762  ILE779  LEU786  VAL792 
 PHE793  MET794  SER795  GLU796  ALA797  LYS798  CYS799  TRP800  GLU811  SER814 

> <Gold.Protein.RotatedAtoms>
  152.2150  133.4939  159.5130 H   0  0  0  0  0  0  0  0  0  0  0  0  # atno 6907 bound_to 6896
  150.6999  134.1418  159.4116 H   0  0  0  0  0  0  0  0  0  0  0  0  # atno 6908 bound_to 6896
  151.9338  135.0244  160.0582 H   0  0  0  0  0  0  0  0  0  0  0  0  # atno 6909 bound_to 6896
  145.5040  140.9545  143.1744 H   0  0  0  0  0  0  0  0  0  0  0  0  # atno 7974 bound_to 7965
  156.0974  140.3248  155.7896 H   0  0  0  0  0  0  0  0  0  0  0  0  # atno 8008 bound_to 7997
  155.4895  140.0560  157.2973 H   0  0  0  0  0  0  0  0  0  0  0  0  # atno 8009 bound_to 7997
  154.4675  140.1996  156.0095 H   0  0  0  0  0  0  0  0  0  0  0  0  # atno 8010 bound_to 7997
  139.5437  144.2293  152.0946 H   0  0  0  0  0  0  0  0  0  0  0  0  # atno 10167 bound_to 10162
  155.9989  130.4919  150.5360 H   0  0  0  0  0  0  0  0  0  0  0  0  # atno 10718 bound_to 10713
  154.5995  135.2853  155.0550 H   0  0  0  0  0  0  0  0  0  0  0  0  # atno 10763 bound_to 10752
  154.1821  135.6455  153.5041 H   0  0  0  0  0  0  0  0  0  0  0  0  # atno 10764 bound_to 10752
  153.0151  135.5426  154.6709 H   0  0  0  0  0  0  0  0  0  0  0  0  # atno 10765 bound_to 10752
  140.1042  134.5041  155.8735 H   0  0  0  0  0  0  0  0  0  0  0  0  # atno 11005 bound_to 11000
  144.7764  139.6620  143.7173 LP  0  0  0  0  0  0  0  0  0  0  0  0  # atno 17320 bound_to 7965
  146.2208  139.5633  142.9619 LP  0  0  0  0  0  0  0  0  0  0  0  0  # atno 17321 bound_to 7965
  140.1776  144.4876  150.6546 LP  0  0  0  0  0  0  0  0  0  0  0  0  # atno 17342 bound_to 10162
  140.6677  143.2274  151.5701 LP  0  0  0  0  0  0  0  0  0  0  0  0  # atno 17343 bound_to 10162
  157.3303  131.0698  151.1866 LP  0  0  0  0  0  0  0  0  0  0  0  0  # atno 17370 bound_to 10713
  157.2749  130.6722  149.6037 LP  0  0  0  0  0  0  0  0  0  0  0  0  # atno 17371 bound_to 10713
  141.2114  133.6706  156.6578 LP  0  0  0  0  0  0  0  0  0  0  0  0  # atno 17394 bound_to 11000
  140.3178  134.8032  157.4228 LP  0  0  0  0  0  0  0  0  0  0  0  0  # atno 17395 bound_to 11000

$$$$
