AV-unprocessed.smi:3117|AV-procd|sdf|11884|dock5
  -GOLD-   2272017273D 1   1.00000     0.00000
 Structure written by MMmdl.
 36 36  0  0  0  0  0  0  0  0  1 V2000
  150.5956  140.7574  158.1345 C   0  0  0  0  0  0  0  0  0  0  0  0
  150.5804  142.2078  157.6162 C   0  0  2  0  0  0  0  0  0  0  0  0
  150.3340  142.1725  156.1718 N   0  0  0  0  0  0  0  0  0  0  0  0
  149.1178  141.4627  155.7688 C   0  0  0  0  0  0  0  0  0  0  0  0
  149.4206  140.2921  154.8105 C   0  0  0  0  0  0  0  0  0  0  0  0
  150.7377  139.5790  155.1646 C   0  0  0  0  0  0  0  0  0  0  0  0
  148.2456  139.3041  154.7015 C   0  0  0  0  0  0  0  0  0  0  0  0
  149.5955  140.8595  153.5282 O   0  0  0  0  0  0  0  0  0  0  0  0
  151.8948  142.9724  157.9558 C   0  0  1  0  0  0  0  0  0  0  0  0
  151.9850  144.3848  157.3486 C   0  0  0  0  0  0  0  0  0  0  0  0
  152.1258  143.0464  159.3936 N   0  0  0  0  0  0  0  0  0  0  0  0
  152.2363  144.1730  160.1826 C   0  0  0  0  0  0  0  0  0  0  0  0
  152.4423  143.7552  161.4660 C   0  0  0  0  0  0  0  0  0  0  0  0
  152.4415  142.3364  161.3638 C   0  0  0  0  0  0  0  0  0  0  0  0
  152.2519  141.9146  160.1242 N   0  0  0  0  0  0  0  0  0  0  0  0
  150.6487  140.7135  159.2223 H   0  0  0  0  0  0  0  0  0  0  0  0
  151.4450  140.2019  157.7359 H   0  0  0  0  0  0  0  0  0  0  0  0
  149.6873  140.2289  157.8426 H   0  0  0  0  0  0  0  0  0  0  0  0
  149.7472  142.7074  158.1131 H   0  0  0  0  0  0  0  0  0  0  0  0
  151.1293  141.7482  155.7052 H   0  0  0  0  0  0  0  0  0  0  0  0
  148.6140  141.0789  156.6573 H   0  0  0  0  0  0  0  0  0  0  0  0
  148.4110  142.1421  155.2962 H   0  0  0  0  0  0  0  0  0  0  0  0
  150.6722  139.0804  156.1323 H   0  0  0  0  0  0  0  0  0  0  0  0
  151.5701  140.2821  155.2133 H   0  0  0  0  0  0  0  0  0  0  0  0
  150.9898  138.8191  154.4241 H   0  0  0  0  0  0  0  0  0  0  0  0
  148.0641  138.7949  155.6485 H   0  0  0  0  0  0  0  0  0  0  0  0
  148.4419  138.5360  153.9524 H   0  0  0  0  0  0  0  0  0  0  0  0
  147.3233  139.8129  154.4186 H   0  0  0  0  0  0  0  0  0  0  0  0
  149.3973  140.2014  152.8796 H   0  0  0  0  0  0  0  0  0  0  0  0
  152.7246  142.3958  157.5435 H   0  0  0  0  0  0  0  0  0  0  0  0
  152.0701  144.3465  156.2634 H   0  0  0  0  0  0  0  0  0  0  0  0
  152.8687  144.9105  157.7124 H   0  0  0  0  0  0  0  0  0  0  0  0
  151.1127  144.9877  157.6028 H   0  0  0  0  0  0  0  0  0  0  0  0
  152.1601  145.1679  159.7694 H   0  0  0  0  0  0  0  0  0  0  0  0
  152.5724  144.3696  162.3444 H   0  0  0  0  0  0  0  0  0  0  0  0
  152.5714  141.6057  162.1483 H   0  0  0  0  0  0  0  0  0  0  0  0
  1  2  1  0  0  0  0
  1 16  1  0  0  0  0
  1 17  1  0  0  0  0
  1 18  1  0  0  0  0
  2  3  1  0  0  0  0
  2  9  1  0  0  0  0
  2 19  1  0  0  0  0
  3  4  1  0  0  0  0
  3 20  1  0  0  0  0
  4  5  1  0  0  0  0
  4 21  1  0  0  0  0
  4 22  1  0  0  0  0
  5  6  1  0  0  0  0
  5  7  1  0  0  0  0
  5  8  1  0  0  0  0
  6 23  1  0  0  0  0
  6 24  1  0  0  0  0
  6 25  1  0  0  0  0
  7 26  1  0  0  0  0
  7 27  1  0  0  0  0
  7 28  1  0  0  0  0
  8 29  1  0  0  0  0
  9 10  1  0  0  0  0
  9 11  1  0  0  0  0
  9 30  1  0  0  0  0
 10 31  1  0  0  0  0
 10 32  1  0  0  0  0
 10 33  1  0  0  0  0
 11 15  1  0  0  0  0
 11 12  1  0  0  0  0
 12 13  2  0  0  0  0
 12 34  1  0  0  0  0
 13 14  1  0  0  0  0
 13 35  1  0  0  0  0
 14 15  2  0  0  0  0
 14 36  1  0  0  0  0
M  END
> <s_m_source_file>
AV-unprocessed.smi

> <i_m_source_file_index>
3117

> <i_lp_mmshare_version>
43012

> <i_f3d_flags>
0

> <s_epik_input>
W0NIM11DKFtDSDNdKShbT0hdKVtDSDJdW05IXVtDQEBIXShbQ0gzXSlbQ0BIXShbQ0gzXSluMVtjSF1bY0hdW2NIXW4x

> <s_epik_cmdline>
J2VwaWtfcHl0aG9uJywgJy1waCcsICc3LjAnLCAnLXRuJywgJzgnLCAnLW1hJywgJzIwMCcsICctbWV0YWxfYmluZGluZycsICctaW1hZScsICc8aW5maWxlLm1hZT4nLCAnLW9tYWUnLCAnPG91dGZpbGUubWFlPic=

> <r_lp_tautomer_probability>
1

> <r_epik_Ionization_Penalty>
2.13419

> <r_epik_Ionization_Penalty_Charging>
0

> <r_epik_Ionization_Penalty_Neutral>
2.13419

> <r_epik_State_Penalty>
2.27148

> <r_epik_Charging_Adjusted_Penalty>
2.27148

> <i_epik_Tot_Q>
0

> <i_epik_Tot_abs_Q>
0

> <r_epik_Metal_State_Penalty>
2.27029

> <b_epik_Metal_Only>
0

> <s_lp_Force_Field>
OPLS_2005

> <r_lp_Energy>
15.8141

> <b_lp_Chiralities_Consistent>
1

> <s_lp_Variant>
AV-unprocessed.smi:3117-7

> <Gold.Version>
5.8.1

> <Gold.Id.Protein>
6NUR|6NUR_protein|mol2

> <Gold.PLP.Fitness>
42.4917

> <Gold.PLP.PLP>
-37.7220

> <Gold.PLP.part.hbond>
-3.4142

> <Gold.PLP.part.metal>
0.0000

> <Gold.PLP.part.buried>
-4.1516

> <Gold.PLP.part.nonpolar>
-29.0574

> <Gold.PLP.part.repulsive>
0.0000

> <Gold.PLP.ligand.clash>
0.0000

> <Gold.PLP.ligand.torsion>
0.7468

> <Gold.PLP.Chemscore.Hbond>
2.0516

> <Gold.PLP.Chemscore.CHOScore>
0.0000

> <Gold.PLP.Chemscore.Metal>
0.0000

> <Gold.Chemscore.Hbonds>
donor molecule, donor type, donor heavy atom, donor atom, acceptor molecule, acceptor atom, score
      L1  H     8    29       P1  7957  0.70
      P1  H  7989  7998       L1     8  0.34
      P1  H  8011  8017       L1     8  0.95

> <Gold.PLP.Chemscore.Internal.Correction>
0.1086

> <Gold.Rescore>
     Score         DG    S(hbond)    S(metal)    S(lipo)     H(rot)  DE(clash)    DE(int)     intcor
     12.55     -14.53       1.00        0.00      96.57       2.19       0.06       1.92       ----

> <Gold.Chemscore.Fitness>
12.5495

> <Gold.Chemscore.DG>
-14.5331

> <Gold.Chemscore.ZeroCoef>
-5.4800

> <Gold.Chemscore.Hbond>
1.0047

> <Gold.Chemscore.Metal>
0.0000

> <Gold.Chemscore.Lipo>
96.5741

> <Gold.Chemscore.Internal_Hbond>
0.0000

> <Gold.Chemscore.DEClash>
0.0609

> <Gold.Chemscore.DEInternal>
1.9227

> <Gold.Chemscore.Rot>
2.1882

> <Gold.Chemscore.Internal.Correction>
   9.000000E+99

> <Gold.Chemscore.Hbonds>
donor molecule, donor type, donor heavy atom, donor atom, acceptor molecule, acceptor atom, score
      L1  H     8    29       P1  7957  0.72
      P1  H  7989  7998       L1     8  0.03
      P1  H  8011  8017       L1     8  0.21

> <Gold.Chemscore.Hbond.Weighted>
-3.3557

> <Gold.Chemscore.Metal.Weighted>
-0.0000

> <Gold.Chemscore.Lipo.Weighted>
-11.2992

> <Gold.Chemscore.Internal_Hbond.Weighted>
0.0000

> <Gold.Chemscore.DEClash.Weighted>
0.0609

> <Gold.Chemscore.DEInternal.Weighted>
1.9227

> <Gold.Chemscore.Rot.Weighted>
5.6018

> <Gold.Chemscore.Internal.Correction.Weighted>
   9.000000E+99

> <Gold.Protein.RotatedTorsions>
[ 6907 6896 6895 6894 ] final  -48.75 input  -60.11 | X-H torsion
[ 7974 7965 7964 7962 ] final  -48.91 input  175.53 | X-H torsion
[ 8008 7997 7996 7995 ] final  157.70 input   59.86 | X-H torsion
[ 10167 10162 10161 10158 ] final -108.92 input  -65.29 | X-H torsion
[ 10718 10713 10712 10709 ] final  -36.70 input   66.30 | X-H torsion
[ 10763 10752 10751 10750 ] final -167.47 input  -60.55 | X-H torsion
[ 11005 11000 10999 10996 ] final -156.64 input  -57.11 | X-H torsion

> <Gold.Protein.ActiveResidues>
 VAL166  LYS551  ARG553  GLY616  TRP617  ASP618  TYR619  PRO620  LYS621  CYS622 
 ASP623  PHE694  ASN695  SER759  ASP760  ASP761  ALA762  ILE779  LEU786  VAL792 
 PHE793  MET794  SER795  GLU796  ALA797  LYS798  CYS799  TRP800  GLU811  SER814 

> <Gold.Protein.RotatedAtoms>
  150.8874  134.8273  159.7268 H   0  0  0  0  0  0  0  0  0  0  0  0  # atno 6907 bound_to 6896
  152.4816  134.4701  159.9643 H   0  0  0  0  0  0  0  0  0  0  0  0  # atno 6908 bound_to 6896
  151.4768  133.3517  159.2867 H   0  0  0  0  0  0  0  0  0  0  0  0  # atno 6909 bound_to 6896
  145.9461  140.7616  142.9528 H   0  0  0  0  0  0  0  0  0  0  0  0  # atno 7974 bound_to 7965
  156.2348  140.1878  156.7148 H   0  0  0  0  0  0  0  0  0  0  0  0  # atno 8008 bound_to 7997
  154.6087  140.0625  156.9492 H   0  0  0  0  0  0  0  0  0  0  0  0  # atno 8009 bound_to 7997
  155.2052  140.3295  155.4339 H   0  0  0  0  0  0  0  0  0  0  0  0  # atno 8010 bound_to 7997
  140.1609  143.4121  152.1426 H   0  0  0  0  0  0  0  0  0  0  0  0  # atno 10167 bound_to 10162
  156.3238  130.4269  149.7935 H   0  0  0  0  0  0  0  0  0  0  0  0  # atno 10718 bound_to 10713
  154.6728  135.2942  154.9719 H   0  0  0  0  0  0  0  0  0  0  0  0  # atno 10763 bound_to 10752
  154.0740  135.6614  153.4832 H   0  0  0  0  0  0  0  0  0  0  0  0  # atno 10764 bound_to 10752
  153.0497  135.5181  154.7732 H   0  0  0  0  0  0  0  0  0  0  0  0  # atno 10765 bound_to 10752
  140.6733  134.4223  157.5230 H   0  0  0  0  0  0  0  0  0  0  0  0  # atno 11005 bound_to 11000
  144.6787  140.2359  143.7349 LP  0  0  0  0  0  0  0  0  0  0  0  0  # atno 17320 bound_to 7965
  145.8234  139.2053  143.1925 LP  0  0  0  0  0  0  0  0  0  0  0  0  # atno 17321 bound_to 7965
  139.5381  144.7230  151.4824 LP  0  0  0  0  0  0  0  0  0  0  0  0  # atno 17342 bound_to 10162
  140.6643  143.8431  150.6924 LP  0  0  0  0  0  0  0  0  0  0  0  0  # atno 17343 bound_to 10162
  156.5233  130.8225  151.3211 LP  0  0  0  0  0  0  0  0  0  0  0  0  # atno 17370 bound_to 10713
  157.7417  130.9875  150.2465 LP  0  0  0  0  0  0  0  0  0  0  0  0  # atno 17371 bound_to 10713
  139.8974  134.8636  156.2043 LP  0  0  0  0  0  0  0  0  0  0  0  0  # atno 17394 bound_to 11000
  141.0375  133.6955  156.1538 LP  0  0  0  0  0  0  0  0  0  0  0  0  # atno 17395 bound_to 11000

$$$$
