AV-unprocessed.smi:399|AV-procd|sdf|2490|dock4
  -GOLD-   2262022433D 1   1.00000     0.00000
 Structure written by MMmdl.
 46 47  0  0  0  0  0  0  0  0  3 V2000
  147.6224  137.7085  158.1873 C   0  0  0  0  0  0  0  0  0  0  0  0
  148.2124  136.4028  158.7799 C   0  0  0  0  0  0  0  0  0  0  0  0
  148.4975  135.4907  157.5585 C   0  0  0  0  0  0  0  0  0  0  0  0
  149.5606  136.7326  159.4888 C   0  0  0  0  0  0  0  0  0  0  0  0
  150.4048  137.6389  158.7160 N   0  0  0  0  0  0  0  0  0  0  0  0
  151.7387  137.7114  158.8221 C   0  0  0  0  0  0  0  0  0  0  0  0
  152.3911  137.0046  159.5919 O   0  0  0  0  0  0  0  0  0  0  0  0
  152.4306  138.7281  157.9028 C   0  0  0  0  0  0  0  0  0  0  0  0
  152.2438  140.1252  158.3304 N   0  0  0  0  0  0  0  0  0  0  0  0
  152.7049  140.4672  159.6169 C   0  0  0  0  0  0  0  0  0  0  0  0
  152.5793  141.7130  160.1149 C   0  0  0  0  0  0  0  0  0  0  0  0
  153.0522  142.0448  161.4410 N   0  3  0  0  0  0  0  0  0  0  0  0
  152.4919  142.9456  162.0572 O   0  0  0  0  0  0  0  0  0  0  0  0
  153.9979  141.4183  161.9101 O   0  5  0  0  0  0  0  0  0  0  0  0
  151.9474  142.7133  159.2767 C   0  0  0  0  0  0  0  0  0  0  0  0
  151.4998  142.3915  158.0470 C   0  0  0  0  0  0  0  0  0  0  0  0
  151.6325  141.0334  157.5096 C   0  0  0  0  0  0  0  0  0  0  0  0
  151.2190  140.7310  156.3900 O   0  0  0  0  0  0  0  0  0  0  0  0
  147.2262  135.7564  159.6892 N   0  0  0  0  0  0  0  0  0  0  0  0
  147.5120  134.3546  160.0195 C   0  0  0  0  0  0  0  0  0  0  0  0
  146.3888  133.7156  160.8542 C   0  0  0  0  0  0  0  0  0  0  0  0
  146.1816  134.4747  162.0391 O   0  0  0  0  0  0  0  0  0  0  0  0
  145.8418  135.8281  161.7634 C   0  0  0  0  0  0  0  0  0  0  0  0
  146.9598  136.4852  160.9357 C   0  0  0  0  0  0  0  0  0  0  0  0
  148.2279  138.1002  157.3694 H   0  0  0  0  0  0  0  0  0  0  0  0
  147.5605  138.5059  158.9277 H   0  0  0  0  0  0  0  0  0  0  0  0
  146.6200  137.5444  157.7894 H   0  0  0  0  0  0  0  0  0  0  0  0
  149.0548  136.0099  156.7781 H   0  0  0  0  0  0  0  0  0  0  0  0
  147.5709  135.1367  157.1048 H   0  0  0  0  0  0  0  0  0  0  0  0
  149.0927  134.6175  157.8252 H   0  0  0  0  0  0  0  0  0  0  0  0
  149.3855  137.1972  160.4594 H   0  0  0  0  0  0  0  0  0  0  0  0
  150.1261  135.8192  159.6755 H   0  0  0  0  0  0  0  0  0  0  0  0
  149.9409  138.2512  158.0607 H   0  0  0  0  0  0  0  0  0  0  0  0
  153.4927  138.4819  157.8618 H   0  0  0  0  0  0  0  0  0  0  0  0
  152.0682  138.5927  156.8819 H   0  0  0  0  0  0  0  0  0  0  0  0
  153.1529  139.6500  160.1638 H   0  0  0  0  0  0  0  0  0  0  0  0
  151.8278  143.7275  159.6283 H   0  0  0  0  0  0  0  0  0  0  0  0
  151.0316  143.1524  157.4399 H   0  0  0  0  0  0  0  0  0  0  0  0
  147.6343  133.7583  159.1172 H   0  0  0  0  0  0  0  0  0  0  0  0
  148.4449  134.2801  160.5783 H   0  0  0  0  0  0  0  0  0  0  0  0
  145.4626  133.6625  160.2798 H   0  0  0  0  0  0  0  0  0  0  0  0
  146.6549  132.6946  161.1281 H   0  0  0  0  0  0  0  0  0  0  0  0
  144.8902  135.8715  161.2313 H   0  0  0  0  0  0  0  0  0  0  0  0
  145.7065  136.3594  162.7054 H   0  0  0  0  0  0  0  0  0  0  0  0
  147.8616  136.5336  161.5459 H   0  0  0  0  0  0  0  0  0  0  0  0
  146.6603  137.5114  160.7313 H   0  0  0  0  0  0  0  0  0  0  0  0
  1  2  1  0  0  0  0
  1 25  1  0  0  0  0
  1 26  1  0  0  0  0
  1 27  1  0  0  0  0
  2  3  1  0  0  0  0
  2  4  1  0  0  0  0
  2 19  1  0  0  0  0
  3 28  1  0  0  0  0
  3 29  1  0  0  0  0
  3 30  1  0  0  0  0
  4  5  1  0  0  0  0
  4 31  1  0  0  0  0
  4 32  1  0  0  0  0
  5  6  1  0  0  0  0
  5 33  1  0  0  0  0
  6  7  2  0  0  0  0
  6  8  1  0  0  0  0
  8  9  1  0  0  0  0
  8 34  1  0  0  0  0
  8 35  1  0  0  0  0
  9 17  1  0  0  0  0
  9 10  1  0  0  0  0
 10 11  2  0  0  0  0
 10 36  1  0  0  0  0
 11 12  1  0  0  0  0
 11 15  1  0  0  0  0
 12 13  2  0  0  0  0
 12 14  1  0  0  0  0
 15 16  2  0  0  0  0
 15 37  1  0  0  0  0
 16 17  1  0  0  0  0
 16 38  1  0  0  0  0
 17 18  2  0  0  0  0
 19 24  1  0  0  0  0
 19 20  1  0  0  0  0
 20 21  1  0  0  0  0
 20 39  1  0  0  0  0
 20 40  1  0  0  0  0
 21 22  1  0  0  0  0
 21 41  1  0  0  0  0
 21 42  1  0  0  0  0
 22 23  1  0  0  0  0
 23 24  1  0  0  0  0
 23 43  1  0  0  0  0
 23 44  1  0  0  0  0
 24 45  1  0  0  0  0
 24 46  1  0  0  0  0
M  CHG  1  12   1
M  CHG  1  14  -1
M  END
> <s_m_source_file>
AV-unprocessed.smi

> <i_m_source_file_index>
399

> <i_lp_mmshare_version>
43012

> <i_f3d_flags>
0

> <s_epik_input>
W0NIMl0xW0NIMl1PW0NIMl1bQ0gyXU4xQyhbQ0gzXSkoW0NIM10pW0NIMl1bTkhdQyg9TylbQ0gyXW4yW2NIXWMoW04rXSg9TylbTy1dKVtjSF1bY0hdYzI9Tw==

> <s_epik_cmdline>
J2VwaWtfcHl0aG9uJywgJy1waCcsICc3LjAnLCAnLXRuJywgJzgnLCAnLW1hJywgJzIwMCcsICctbWV0YWxfYmluZGluZycsICctaW1hZScsICc8aW5maWxlLm1hZT4nLCAnLW9tYWUnLCAnPG91dGZpbGUubWFlPic=

> <r_lp_tautomer_probability>
1

> <r_epik_Ionization_Penalty>
0.237382

> <r_epik_Ionization_Penalty_Charging>
7.45368e-11

> <r_epik_Ionization_Penalty_Neutral>
0.237382

> <r_epik_State_Penalty>
0.228245

> <r_epik_Charging_Adjusted_Penalty>
0.228245

> <i_epik_Tot_Q>
0

> <i_epik_Tot_abs_Q>
2

> <r_epik_Metal_State_Penalty>
0.22822

> <b_epik_Metal_Only>
0

> <s_lp_Force_Field>
OPLS_2005

> <r_lp_Energy>
50.757

> <b_lp_Chiralities_Consistent>
1

> <s_lp_Variant>
AV-unprocessed.smi:399-1

> <Gold.Version>
5.8.1

> <Gold.Id.Protein>
6NUR|6NUR_protein|mol2

> <Gold.PLP.Fitness>
39.4417

> <Gold.PLP.PLP>
-38.3577

> <Gold.PLP.part.hbond>
-2.1314

> <Gold.PLP.part.metal>
0.0000

> <Gold.PLP.part.buried>
-4.9812

> <Gold.PLP.part.nonpolar>
-31.7448

> <Gold.PLP.part.repulsive>
0.2671

> <Gold.PLP.ligand.clash>
0.0000

> <Gold.PLP.ligand.torsion>
1.0026

> <Gold.PLP.Chemscore.Hbond>
1.0000

> <Gold.PLP.Chemscore.CHOScore>
0.0000

> <Gold.PLP.Chemscore.Metal>
0.0000

> <Gold.Chemscore.Hbonds>
donor molecule, donor type, donor heavy atom, donor atom, acceptor molecule, acceptor atom, score
      P1  H  6896  6909       L1     7  1.00

> <Gold.PLP.Chemscore.Internal.Correction>
0.0892

> <Gold.Rescore>
     Score         DG    S(hbond)    S(metal)    S(lipo)     H(rot)  DE(clash)    DE(int)     intcor
     11.75     -13.22       0.96        0.00      85.05       2.11       0.78       0.69       ----

> <Gold.Chemscore.Fitness>
11.7495

> <Gold.Chemscore.DG>
-13.2227

> <Gold.Chemscore.ZeroCoef>
-5.4800

> <Gold.Chemscore.Hbond>
0.9555

> <Gold.Chemscore.Metal>
0.0000

> <Gold.Chemscore.Lipo>
85.0460

> <Gold.Chemscore.Internal_Hbond>
0.0000

> <Gold.Chemscore.DEClash>
0.7833

> <Gold.Chemscore.DEInternal>
0.6899

> <Gold.Chemscore.Rot>
2.1090

> <Gold.Chemscore.Internal.Correction>
   9.000000E+99

> <Gold.Chemscore.Hbonds>
donor molecule, donor type, donor heavy atom, donor atom, acceptor molecule, acceptor atom, score
      P1  H  6896  6909       L1     7  0.95

> <Gold.Chemscore.Hbond.Weighted>
-3.1912

> <Gold.Chemscore.Metal.Weighted>
-0.0000

> <Gold.Chemscore.Lipo.Weighted>
-9.9504

> <Gold.Chemscore.Internal_Hbond.Weighted>
0.0000

> <Gold.Chemscore.DEClash.Weighted>
0.7833

> <Gold.Chemscore.DEInternal.Weighted>
0.6899

> <Gold.Chemscore.Rot.Weighted>
5.3989

> <Gold.Chemscore.Internal.Correction.Weighted>
   9.000000E+99

> <Gold.Protein.RotatedTorsions>
[ 6907 6896 6895 6894 ] final  140.85 input  -60.11 | X-H torsion
[ 7974 7965 7964 7962 ] final -177.41 input  175.53 | X-H torsion
[ 8008 7997 7996 7995 ] final -134.23 input   59.86 | X-H torsion
[ 10167 10162 10161 10158 ] final   83.61 input  -65.29 | X-H torsion
[ 10718 10713 10712 10709 ] final   10.04 input   66.30 | X-H torsion
[ 10763 10752 10751 10750 ] final   41.73 input  -60.55 | X-H torsion
[ 11005 11000 10999 10996 ] final   25.54 input  -57.11 | X-H torsion

> <Gold.Protein.ActiveResidues>
 VAL166  LYS551  ARG553  GLY616  TRP617  ASP618  TYR619  PRO620  LYS621  CYS622 
 ASP623  PHE694  ASN695  SER759  ASP760  ASP761  ALA762  ILE779  LEU786  VAL792 
 PHE793  MET794  SER795  GLU796  ALA797  LYS798  CYS799  TRP800  GLU811  SER814 

> <Gold.Protein.RotatedAtoms>
  152.2381  133.5113  159.5253 H   0  0  0  0  0  0  0  0  0  0  0  0  # atno 6907 bound_to 6896
  150.7056  134.1126  159.4014 H   0  0  0  0  0  0  0  0  0  0  0  0  # atno 6908 bound_to 6896
  151.9047  135.0364  160.0560 H   0  0  0  0  0  0  0  0  0  0  0  0  # atno 6909 bound_to 6896
  144.7128  140.1023  143.6416 H   0  0  0  0  0  0  0  0  0  0  0  0  # atno 7974 bound_to 7965
  155.3586  140.0481  157.3046 H   0  0  0  0  0  0  0  0  0  0  0  0  # atno 8008 bound_to 7997
  154.5190  140.2218  155.8976 H   0  0  0  0  0  0  0  0  0  0  0  0  # atno 8009 bound_to 7997
  156.1668  140.3104  155.8909 H   0  0  0  0  0  0  0  0  0  0  0  0  # atno 8010 bound_to 7997
  139.9166  144.6239  150.8482 H   0  0  0  0  0  0  0  0  0  0  0  0  # atno 10167 bound_to 10162
  156.9751  130.5984  149.5672 H   0  0  0  0  0  0  0  0  0  0  0  0  # atno 10718 bound_to 10713
  152.9901  135.6153  154.2834 H   0  0  0  0  0  0  0  0  0  0  0  0  # atno 10763 bound_to 10752
  154.2563  135.2783  155.2798 H   0  0  0  0  0  0  0  0  0  0  0  0  # atno 10764 bound_to 10752
  154.5245  135.5805  153.6765 H   0  0  0  0  0  0  0  0  0  0  0  0  # atno 10765 bound_to 10752
  140.3468  134.2273  155.7684 H   0  0  0  0  0  0  0  0  0  0  0  0  # atno 11005 bound_to 11000
  145.9527  139.2745  143.1203 LP  0  0  0  0  0  0  0  0  0  0  0  0  # atno 17320 bound_to 7965
  145.9306  140.9051  143.0358 LP  0  0  0  0  0  0  0  0  0  0  0  0  # atno 17321 bound_to 7965
  140.7672  143.3327  151.2376 LP  0  0  0  0  0  0  0  0  0  0  0  0  # atno 17342 bound_to 10162
  139.6897  143.9713  152.2853 LP  0  0  0  0  0  0  0  0  0  0  0  0  # atno 17343 bound_to 10162
  156.0267  130.5360  150.8425 LP  0  0  0  0  0  0  0  0  0  0  0  0  # atno 17370 bound_to 10713
  157.5565  131.0945  150.9620 LP  0  0  0  0  0  0  0  0  0  0  0  0  # atno 17371 bound_to 10713
  141.2023  133.7940  157.0396 LP  0  0  0  0  0  0  0  0  0  0  0  0  # atno 17394 bound_to 11000
  140.0736  134.9688  157.1508 LP  0  0  0  0  0  0  0  0  0  0  0  0  # atno 17395 bound_to 11000

$$$$
