AV-unprocessed.smi:199|AV-procd|sdf|1569|dock7
  -GOLD-   2262019443D 1   1.00000     0.00000
 Structure written by MMmdl.
 51 55  0  0  0  0  0  0  0  0  1 V2000
  153.2696  139.2300  159.4703 C   0  0  0  0  0  0  0  0  0  0  0  0
  152.3256  138.8994  158.3029 C   0  0  1  0  0  0  0  0  0  0  0  0
  153.0677  138.5664  157.1387 O   0  0  0  0  0  0  0  0  0  0  0  0
  152.1773  137.9124  156.2530 C   0  0  0  0  0  0  0  0  0  0  0  0
  151.4237  136.9604  157.1742 C   0  0  0  0  0  0  0  0  0  0  0  0
  151.3391  137.7182  158.5031 C   0  0  1  0  0  0  0  0  0  0  0  0
  151.7677  136.8449  159.5352 O   0  0  0  0  0  0  0  0  0  0  0  0
  149.8942  138.1747  158.8240 C   0  0  0  0  0  0  0  0  0  0  0  0
  148.9407  137.0773  158.8897 N   0  0  0  0  0  0  0  0  0  0  0  0
  148.6018  136.2171  157.8706 C   0  0  0  0  0  0  0  0  0  0  0  0
  147.7278  135.3012  158.1844 N   0  0  0  0  0  0  0  0  0  0  0  0
  147.4239  135.5554  159.5170 C   0  0  0  0  0  0  0  0  0  0  0  0
  146.5615  134.9504  160.4773 C   0  0  0  0  0  0  0  0  0  0  0  0
  145.7763  133.8696  160.2152 N   0  0  0  0  0  0  0  0  0  0  0  0
  145.0039  133.2288  161.2721 C   0  0  1  0  0  0  0  0  0  0  0  0
  143.8333  134.2016  161.5265 C   0  0  0  0  0  0  0  0  0  0  0  0
  143.6038  134.7664  160.1169 C   0  0  0  0  0  0  0  0  0  0  0  0
  144.6509  133.9792  159.2987 C   0  0  2  0  0  0  0  0  0  0  0  0
  144.2536  132.4935  159.1340 C   0  0  2  0  0  0  0  0  0  0  0  0
  142.8700  132.1925  158.5278 C   0  0  0  0  0  0  0  0  0  0  0  0
  142.6618  132.9735  157.3704 O   0  0  0  0  0  0  0  0  0  0  0  0
  144.4560  131.9741  160.5692 C   0  0  0  0  0  0  0  0  0  0  0  0
  146.5597  135.4788  161.7303 N   0  0  0  0  0  0  0  0  0  0  0  0
  147.3193  136.5378  162.0217 C   0  0  0  0  0  0  0  0  0  0  0  0
  148.1536  137.2089  161.2273 N   0  0  0  0  0  0  0  0  0  0  0  0
  148.1807  136.6728  159.9739 C   0  0  0  0  0  0  0  0  0  0  0  0
  152.7096  139.4722  160.3738 H   0  0  0  0  0  0  0  0  0  0  0  0
  153.8934  140.0904  159.2291 H   0  0  0  0  0  0  0  0  0  0  0  0
  153.9346  138.3965  159.6972 H   0  0  0  0  0  0  0  0  0  0  0  0
  151.7636  139.7988  158.0494 H   0  0  0  0  0  0  0  0  0  0  0  0
  151.5016  138.6417  155.8031 H   0  0  0  0  0  0  0  0  0  0  0  0
  152.7090  137.3944  155.4548 H   0  0  0  0  0  0  0  0  0  0  0  0
  150.4506  136.6796  156.7696 H   0  0  0  0  0  0  0  0  0  0  0  0
  152.0063  136.0438  157.2817 H   0  0  0  0  0  0  0  0  0  0  0  0
  152.7114  136.8682  159.5754 H   0  0  0  0  0  0  0  0  0  0  0  0
  149.8741  138.7027  159.7784 H   0  0  0  0  0  0  0  0  0  0  0  0
  149.5438  138.8876  158.0763 H   0  0  0  0  0  0  0  0  0  0  0  0
  149.0342  136.2830  156.8830 H   0  0  0  0  0  0  0  0  0  0  0  0
  145.5695  132.9869  162.1728 H   0  0  0  0  0  0  0  0  0  0  0  0
  142.9520  133.7033  161.9317 H   0  0  0  0  0  0  0  0  0  0  0  0
  144.1180  134.9960  162.2173 H   0  0  0  0  0  0  0  0  0  0  0  0
  142.5813  134.6449  159.7630 H   0  0  0  0  0  0  0  0  0  0  0  0
  143.8283  135.8338  160.0967 H   0  0  0  0  0  0  0  0  0  0  0  0
  144.8750  134.4432  158.3401 H   0  0  0  0  0  0  0  0  0  0  0  0
  145.0039  132.0198  158.4977 H   0  0  0  0  0  0  0  0  0  0  0  0
  142.8121  131.1408  158.2464 H   0  0  0  0  0  0  0  0  0  0  0  0
  142.0633  132.3671  159.2388 H   0  0  0  0  0  0  0  0  0  0  0  0
  142.7359  132.4137  156.6127 H   0  0  0  0  0  0  0  0  0  0  0  0
  145.1883  131.1658  160.5822 H   0  0  0  0  0  0  0  0  0  0  0  0
  143.5398  131.6046  161.0317 H   0  0  0  0  0  0  0  0  0  0  0  0
  147.2495  136.8973  163.0376 H   0  0  0  0  0  0  0  0  0  0  0  0
  1  2  1  0  0  0  0
  1 27  1  0  0  0  0
  1 28  1  0  0  0  0
  1 29  1  0  0  0  0
  2  6  1  0  0  0  0
  2  3  1  0  0  0  0
  2 30  1  0  0  0  0
  3  4  1  0  0  0  0
  4  5  1  0  0  0  0
  4 31  1  0  0  0  0
  4 32  1  0  0  0  0
  5  6  1  0  0  0  0
  5 33  1  0  0  0  0
  5 34  1  0  0  0  0
  6  7  1  0  0  0  0
  6  8  1  0  0  0  0
  7 35  1  0  0  0  0
  8  9  1  0  0  0  0
  8 36  1  0  0  0  0
  8 37  1  0  0  0  0
  9 26  1  0  0  0  0
  9 10  1  0  0  0  0
 10 11  2  0  0  0  0
 10 38  1  0  0  0  0
 11 12  1  0  0  0  0
 12 26  2  0  0  0  0
 12 13  1  0  0  0  0
 13 14  1  0  0  0  0
 13 23  2  0  0  0  0
 14 18  1  0  0  0  0
 14 15  1  0  0  0  0
 15 22  1  0  0  0  0
 15 16  1  0  0  0  0
 15 39  1  0  0  0  0
 16 17  1  0  0  0  0
 16 40  1  0  0  0  0
 16 41  1  0  0  0  0
 17 18  1  0  0  0  0
 17 42  1  0  0  0  0
 17 43  1  0  0  0  0
 18 19  1  0  0  0  0
 18 44  1  0  0  0  0
 19 20  1  0  0  0  0
 19 22  1  0  0  0  0
 19 45  1  0  0  0  0
 20 21  1  0  0  0  0
 20 46  1  0  0  0  0
 20 47  1  0  0  0  0
 21 48  1  0  0  0  0
 22 49  1  0  0  0  0
 22 50  1  0  0  0  0
 23 24  1  0  0  0  0
 24 25  2  0  0  0  0
 24 51  1  0  0  0  0
 25 26  1  0  0  0  0
M  END
> <s_m_source_file>
AV-unprocessed.smi

> <i_m_source_file_index>
199

> <i_lp_mmshare_version>
43012

> <i_f3d_flags>
0

> <s_epik_input>
W0NIMl0xW0NIMl1PW0NAQEhdKFtDSDNdKVtDQEBdMShbT0hdKVtDSDJdbihbY0hdbjIpYyhjMjMpbltjSF1uYzNOKFtDQEBIXTQ1KVtDQEhdKFtDSDJdW0NIMl00KVtDQEhdKFtDSDJdNSlbQ0gyXVtPSF0=

> <s_epik_cmdline>
J2VwaWtfcHl0aG9uJywgJy1waCcsICc3LjAnLCAnLXRuJywgJzgnLCAnLW1hJywgJzIwMCcsICctbWV0YWxfYmluZGluZycsICctaW1hZScsICc8aW5maWxlLm1hZT4nLCAnLW9tYWUnLCAnPG91dGZpbGUubWFlPic=

> <r_lp_tautomer_probability>
1

> <r_epik_Ionization_Penalty>
0.00583903

> <r_epik_Ionization_Penalty_Charging>
0

> <r_epik_Ionization_Penalty_Neutral>
0.00583903

> <r_epik_State_Penalty>
-0

> <r_epik_Charging_Adjusted_Penalty>
0

> <i_epik_Tot_Q>
0

> <i_epik_Tot_abs_Q>
0

> <r_epik_Metal_State_Penalty>
-0

> <b_epik_Metal_Only>
0

> <s_lp_Force_Field>
OPLS_2005

> <r_lp_Energy>
83.7467

> <b_lp_Chiralities_Consistent>
1

> <s_lp_Variant>
AV-unprocessed.smi:199-10

> <Gold.Version>
5.8.1

> <Gold.Id.Protein>
6NUR|6NUR_protein|mol2

> <Gold.PLP.Fitness>
43.3886

> <Gold.PLP.PLP>
-29.4769

> <Gold.PLP.part.hbond>
-5.3332

> <Gold.PLP.part.metal>
0.0000

> <Gold.PLP.part.buried>
-5.8579

> <Gold.PLP.part.nonpolar>
-18.6947

> <Gold.PLP.part.repulsive>
0.0000

> <Gold.PLP.ligand.clash>
0.0000

> <Gold.PLP.ligand.torsion>
0.1755

> <Gold.PLP.Chemscore.Hbond>
4.7429

> <Gold.PLP.Chemscore.CHOScore>
0.0000

> <Gold.PLP.Chemscore.Metal>
0.0000

> <Gold.Chemscore.Hbonds>
donor molecule, donor type, donor heavy atom, donor atom, acceptor molecule, acceptor atom, score
      L1  H    21    48       P1 10957  1.00
      P1  H  6896  6907       L1     7  0.75
      P1  H  6931  6943       L1    25  0.98
      P1  H  6934  6947       L1    25  0.57
      P1  H  7997  8009       L1     3  0.84
      P1  H 11000 11005       L1    21  1.00

> <Gold.PLP.Chemscore.Internal.Correction>
0.0340

> <Gold.Rescore>
     Score         DG    S(hbond)    S(metal)    S(lipo)     H(rot)  DE(clash)    DE(int)     intcor
     15.20     -15.58       3.48        0.00      54.33       3.07       0.16       0.23       ----

> <Gold.Chemscore.Fitness>
15.1952

> <Gold.Chemscore.DG>
-15.5821

> <Gold.Chemscore.ZeroCoef>
-5.4800

> <Gold.Chemscore.Hbond>
3.4766

> <Gold.Chemscore.Metal>
0.0000

> <Gold.Chemscore.Lipo>
54.3328

> <Gold.Chemscore.Internal_Hbond>
0.0000

> <Gold.Chemscore.DEClash>
0.1596

> <Gold.Chemscore.DEInternal>
0.2273

> <Gold.Chemscore.Rot>
3.0729

> <Gold.Chemscore.Internal.Correction>
   9.000000E+99

> <Gold.Chemscore.Hbonds>
donor molecule, donor type, donor heavy atom, donor atom, acceptor molecule, acceptor atom, score
      L1  H    21    48       P1 10957  1.00
      P1  H  6896  6907       L1     7  0.09
      P1  H  6931  6943       L1    25  0.82
      P1  H  6934  6947       L1    25  0.10
      P1  H  7997  8009       L1     3  0.43
      P1  H 11000 11005       L1    21  0.44

> <Gold.Chemscore.Hbond.Weighted>
-11.6119

> <Gold.Chemscore.Metal.Weighted>
-0.0000

> <Gold.Chemscore.Lipo.Weighted>
-6.3569

> <Gold.Chemscore.Internal_Hbond.Weighted>
0.0000

> <Gold.Chemscore.DEClash.Weighted>
0.1596

> <Gold.Chemscore.DEInternal.Weighted>
0.2273

> <Gold.Chemscore.Rot.Weighted>
7.8667

> <Gold.Chemscore.Internal.Correction.Weighted>
   9.000000E+99

> <Gold.Protein.RotatedTorsions>
[ 6907 6896 6895 6894 ] final    3.69 input  -60.11 | X-H torsion
[ 7974 7965 7964 7962 ] final  -97.73 input  175.53 | X-H torsion
[ 8008 7997 7996 7995 ] final  156.37 input   59.86 | X-H torsion
[ 10167 10162 10161 10158 ] final  134.64 input  -65.29 | X-H torsion
[ 10718 10713 10712 10709 ] final  -50.70 input   66.30 | X-H torsion
[ 10763 10752 10751 10750 ] final    4.97 input  -60.55 | X-H torsion
[ 11005 11000 10999 10996 ] final  -99.91 input  -57.11 | X-H torsion

> <Gold.Protein.ActiveResidues>
 VAL166  LYS551  ARG553  GLY616  TRP617  ASP618  TYR619  PRO620  LYS621  CYS622 
 ASP623  PHE694  ASN695  SER759  ASP760  ASP761  ALA762  ILE779  LEU786  VAL792 
 PHE793  MET794  SER795  GLU796  ALA797  LYS798  CYS799  TRP800  GLU811  SER814 

> <Gold.Protein.RotatedAtoms>
  151.6292  135.1024  160.0117 H   0  0  0  0  0  0  0  0  0  0  0  0  # atno 6907 bound_to 6896
  152.4116  133.6968  159.6411 H   0  0  0  0  0  0  0  0  0  0  0  0  # atno 6908 bound_to 6896
  150.8006  133.8531  159.3252 H   0  0  0  0  0  0  0  0  0  0  0  0  # atno 6909 bound_to 6896
  145.3299  140.9439  143.2668 H   0  0  0  0  0  0  0  0  0  0  0  0  # atno 7974 bound_to 7965
  156.2426  140.1914  156.6944 H   0  0  0  0  0  0  0  0  0  0  0  0  # atno 8008 bound_to 7997
  154.6228  140.0606  156.9662 H   0  0  0  0  0  0  0  0  0  0  0  0  # atno 8009 bound_to 7997
  155.1835  140.3278  155.4373 H   0  0  0  0  0  0  0  0  0  0  0  0  # atno 8010 bound_to 7997
  139.5248  144.6557  151.5169 H   0  0  0  0  0  0  0  0  0  0  0  0  # atno 10167 bound_to 10162
  156.1777  130.4150  149.9553 H   0  0  0  0  0  0  0  0  0  0  0  0  # atno 10718 bound_to 10713
  153.2649  135.6927  153.7540 H   0  0  0  0  0  0  0  0  0  0  0  0  # atno 10763 bound_to 10752
  153.6585  135.3364  155.3121 H   0  0  0  0  0  0  0  0  0  0  0  0  # atno 10764 bound_to 10752
  154.8443  135.4471  154.1652 H   0  0  0  0  0  0  0  0  0  0  0  0  # atno 10765 bound_to 10752
  141.1291  133.8358  157.1034 H   0  0  0  0  0  0  0  0  0  0  0  0  # atno 11005 bound_to 11000
  144.8873  139.4822  143.6695 LP  0  0  0  0  0  0  0  0  0  0  0  0  # atno 17320 bound_to 7965
  146.3050  139.7549  142.9063 LP  0  0  0  0  0  0  0  0  0  0  0  0  # atno 17321 bound_to 7965
  140.6382  143.8943  150.6666 LP  0  0  0  0  0  0  0  0  0  0  0  0  # atno 17342 bound_to 10162
  140.2268  143.3766  152.1598 LP  0  0  0  0  0  0  0  0  0  0  0  0  # atno 17343 bound_to 10162
  156.7333  130.9052  151.3627 LP  0  0  0  0  0  0  0  0  0  0  0  0  # atno 17370 bound_to 10713
  157.6847  130.9174  150.0355 LP  0  0  0  0  0  0  0  0  0  0  0  0  # atno 17371 bound_to 10713
  140.0319  134.9897  157.0797 LP  0  0  0  0  0  0  0  0  0  0  0  0  # atno 17394 bound_to 11000
  140.4271  134.1819  155.7166 LP  0  0  0  0  0  0  0  0  0  0  0  0  # atno 17395 bound_to 11000

$$$$
