AV-unprocessed.smi:1168|AV-procd|sdf|4939|dock9
  -GOLD-   22720 3523D 1   1.00000     0.00000
 Structure written by MMmdl.
 32 33  0  0  0  0  0  0  0  0  1 V2000
  150.7557  140.8885  157.5002 O   0  0  0  0  0  0  0  0  0  0  0  0
  150.5287  142.0345  157.1124 C   0  0  0  0  0  0  0  0  0  0  0  0
  151.3991  143.1954  157.5978 C   0  0  0  0  0  0  0  0  0  0  0  0
  152.0505  142.8739  158.8555 N   0  0  0  0  0  0  0  0  0  0  0  0
  151.9744  143.5442  160.0582 C   0  0  0  0  0  0  0  0  0  0  0  0
  152.7536  142.8663  160.9509 C   0  0  0  0  0  0  0  0  0  0  0  0
  153.2736  141.7738  160.1977 C   0  0  0  0  0  0  0  0  0  0  0  0
  154.1994  140.6784  160.6570 C   0  0  0  0  0  0  0  0  0  0  0  0
  155.3634  140.7563  160.0120 F   0  0  0  0  0  0  0  0  0  0  0  0
  154.4258  140.7942  161.9655 F   0  0  0  0  0  0  0  0  0  0  0  0
  153.6533  139.4870  160.4136 F   0  0  0  0  0  0  0  0  0  0  0  0
  152.8430  141.7844  158.9432 N   0  0  0  0  0  0  0  0  0  0  0  0
  149.5379  142.3442  156.2617 N   0  0  0  0  0  0  0  0  0  0  0  0
  148.6074  141.3868  155.6698 C   0  0  0  0  0  0  0  0  0  0  0  0
  148.8349  141.2724  154.1497 C   0  0  0  0  0  0  0  0  0  0  0  0
  147.4576  141.4214  153.4998 C   0  0  0  0  0  0  0  0  0  0  0  0
  146.6721  142.2955  154.4719 C   0  0  0  0  0  0  0  0  0  0  0  0
  147.1426  141.8333  155.8508 C   0  0  0  0  0  0  0  0  0  0  0  0
  152.1665  143.4395  156.8617 H   0  0  0  0  0  0  0  0  0  0  0  0
  150.7793  144.0850  157.7213 H   0  0  0  0  0  0  0  0  0  0  0  0
  151.3814  144.4390  160.1757 H   0  0  0  0  0  0  0  0  0  0  0  0
  152.9264  143.1129  161.9879 H   0  0  0  0  0  0  0  0  0  0  0  0
  149.4223  143.3126  156.0000 H   0  0  0  0  0  0  0  0  0  0  0  0
  148.7498  140.4085  156.1331 H   0  0  0  0  0  0  0  0  0  0  0  0
  149.4834  142.0752  153.7949 H   0  0  0  0  0  0  0  0  0  0  0  0
  149.3120  140.3311  153.8757 H   0  0  0  0  0  0  0  0  0  0  0  0
  147.5100  141.8487  152.4981 H   0  0  0  0  0  0  0  0  0  0  0  0
  146.9808  140.4435  153.4207 H   0  0  0  0  0  0  0  0  0  0  0  0
  146.9402  143.3423  154.3237 H   0  0  0  0  0  0  0  0  0  0  0  0
  145.5932  142.2047  154.3435 H   0  0  0  0  0  0  0  0  0  0  0  0
  146.5447  140.9767  156.1646 H   0  0  0  0  0  0  0  0  0  0  0  0
  147.0111  142.6072  156.6082 H   0  0  0  0  0  0  0  0  0  0  0  0
  1  2  2  0  0  0  0
  2  3  1  0  0  0  0
  2 13  1  0  0  0  0
  3  4  1  0  0  0  0
  3 19  1  0  0  0  0
  3 20  1  0  0  0  0
  4 12  1  0  0  0  0
  4  5  1  0  0  0  0
  5  6  2  0  0  0  0
  5 21  1  0  0  0  0
  6  7  1  0  0  0  0
  6 22  1  0  0  0  0
  7  8  1  0  0  0  0
  7 12  2  0  0  0  0
  8  9  1  0  0  0  0
  8 10  1  0  0  0  0
  8 11  1  0  0  0  0
 13 14  1  0  0  0  0
 13 23  1  0  0  0  0
 14 18  1  0  0  0  0
 14 15  1  0  0  0  0
 14 24  1  0  0  0  0
 15 16  1  0  0  0  0
 15 25  1  0  0  0  0
 15 26  1  0  0  0  0
 16 17  1  0  0  0  0
 16 27  1  0  0  0  0
 16 28  1  0  0  0  0
 17 18  1  0  0  0  0
 17 29  1  0  0  0  0
 17 30  1  0  0  0  0
 18 31  1  0  0  0  0
 18 32  1  0  0  0  0
M  END
> <s_m_source_file>
AV-unprocessed.smi

> <i_m_source_file_index>
1168

> <i_lp_mmshare_version>
43012

> <i_f3d_flags>
0

> <s_epik_input>
W0NIMl0xW0NIMl1bQ0gyXVtDSDJdW0NIXTFbTkhdQyg9TylbQ0gyXW4yW2NIXVtjSF1jKG4yKUMoRikoRilG

> <s_epik_cmdline>
J2VwaWtfcHl0aG9uJywgJy1waCcsICc3LjAnLCAnLXRuJywgJzgnLCAnLW1hJywgJzIwMCcsICctbWV0YWxfYmluZGluZycsICctaW1hZScsICc8aW5maWxlLm1hZT4nLCAnLW9tYWUnLCAnPG91dGZpbGUubWFlPic=

> <r_lp_tautomer_probability>
1

> <r_epik_Ionization_Penalty>
8.05939e-08

> <r_epik_Ionization_Penalty_Charging>
0

> <r_epik_Ionization_Penalty_Neutral>
8.05939e-08

> <r_epik_State_Penalty>
-0

> <r_epik_Charging_Adjusted_Penalty>
0

> <i_epik_Tot_Q>
0

> <i_epik_Tot_abs_Q>
0

> <r_epik_Metal_State_Penalty>
-0

> <b_epik_Metal_Only>
0

> <s_lp_Force_Field>
OPLS_2005

> <r_lp_Energy>
20.3297

> <b_lp_Chiralities_Consistent>
1

> <s_lp_Variant>
AV-unprocessed.smi:1168-1

> <Gold.Version>
5.8.1

> <Gold.Id.Protein>
6NUR|6NUR_protein|mol2

> <Gold.PLP.Fitness>
43.9727

> <Gold.PLP.PLP>
-41.8922

> <Gold.PLP.part.hbond>
-1.0000

> <Gold.PLP.part.metal>
0.0000

> <Gold.PLP.part.buried>
-3.6307

> <Gold.PLP.part.nonpolar>
-37.3878

> <Gold.PLP.part.repulsive>
0.1017

> <Gold.PLP.ligand.clash>
0.0000

> <Gold.PLP.ligand.torsion>
0.4647

> <Gold.PLP.Chemscore.Hbond>
1.0000

> <Gold.PLP.Chemscore.CHOScore>
0.0000

> <Gold.PLP.Chemscore.Metal>
0.0000

> <Gold.Chemscore.Hbonds>
donor molecule, donor type, donor heavy atom, donor atom, acceptor molecule, acceptor atom, score
      L1  H    13    23       P1  8028  1.00

> <Gold.PLP.Chemscore.Internal.Correction>
0.0100

> <Gold.Rescore>
     Score         DG    S(hbond)    S(metal)    S(lipo)     H(rot)  DE(clash)    DE(int)     intcor
     12.70     -14.58       1.00        0.00      83.76       1.57       0.07       1.81       ----

> <Gold.Chemscore.Fitness>
12.6989

> <Gold.Chemscore.DG>
-14.5823

> <Gold.Chemscore.ZeroCoef>
-5.4800

> <Gold.Chemscore.Hbond>
0.9983

> <Gold.Chemscore.Metal>
0.0000

> <Gold.Chemscore.Lipo>
83.7551

> <Gold.Chemscore.Internal_Hbond>
0.0000

> <Gold.Chemscore.DEClash>
0.0717

> <Gold.Chemscore.DEInternal>
1.8117

> <Gold.Chemscore.Rot>
1.5748

> <Gold.Chemscore.Internal.Correction>
   9.000000E+99

> <Gold.Chemscore.Hbonds>
donor molecule, donor type, donor heavy atom, donor atom, acceptor molecule, acceptor atom, score
      L1  H    13    23       P1  8028  0.94

> <Gold.Chemscore.Hbond.Weighted>
-3.3344

> <Gold.Chemscore.Metal.Weighted>
-0.0000

> <Gold.Chemscore.Lipo.Weighted>
-9.7993

> <Gold.Chemscore.Internal_Hbond.Weighted>
0.0000

> <Gold.Chemscore.DEClash.Weighted>
0.0717

> <Gold.Chemscore.DEInternal.Weighted>
1.8117

> <Gold.Chemscore.Rot.Weighted>
4.0315

> <Gold.Chemscore.Internal.Correction.Weighted>
   9.000000E+99

> <Gold.Protein.RotatedTorsions>
[ 6907 6896 6895 6894 ] final  -53.20 input  -60.11 | X-H torsion
[ 7974 7965 7964 7962 ] final  -50.33 input  175.53 | X-H torsion
[ 8008 7997 7996 7995 ] final  -59.58 input   59.86 | X-H torsion
[ 10167 10162 10161 10158 ] final   85.51 input  -65.29 | X-H torsion
[ 10718 10713 10712 10709 ] final -129.96 input   66.30 | X-H torsion
[ 10763 10752 10751 10750 ] final  151.12 input  -60.55 | X-H torsion
[ 11005 11000 10999 10996 ] final   -0.74 input  -57.11 | X-H torsion

> <Gold.Protein.ActiveResidues>
 VAL166  LYS551  ARG553  GLY616  TRP617  ASP618  TYR619  PRO620  LYS621  CYS622 
 ASP623  PHE694  ASN695  SER759  ASP760  ASP761  ALA762  ILE779  LEU786  VAL792 
 PHE793  MET794  SER795  GLU796  ALA797  LYS798  CYS799  TRP800  GLU811  SER814 

> <Gold.Protein.RotatedAtoms>
  150.8448  134.7753  159.6961 H   0  0  0  0  0  0  0  0  0  0  0  0  # atno 6907 bound_to 6896
  152.4527  134.5354  159.9833 H   0  0  0  0  0  0  0  0  0  0  0  0  # atno 6908 bound_to 6896
  151.5487  133.3383  159.2984 H   0  0  0  0  0  0  0  0  0  0  0  0  # atno 6909 bound_to 6896
  145.9310  140.7749  142.9600 H   0  0  0  0  0  0  0  0  0  0  0  0  # atno 7974 bound_to 7965
  154.4359  140.1058  156.6139 H   0  0  0  0  0  0  0  0  0  0  0  0  # atno 8008 bound_to 7997
  155.5780  140.3490  155.4514 H   0  0  0  0  0  0  0  0  0  0  0  0  # atno 8009 bound_to 7997
  156.0340  140.1267  157.0217 H   0  0  0  0  0  0  0  0  0  0  0  0  # atno 8010 bound_to 7997
  139.8970  144.6352  150.8677 H   0  0  0  0  0  0  0  0  0  0  0  0  # atno 10167 bound_to 10162
  156.2097  130.6911  151.0636 H   0  0  0  0  0  0  0  0  0  0  0  0  # atno 10718 bound_to 10713
  154.0985  135.2847  155.3256 H   0  0  0  0  0  0  0  0  0  0  0  0  # atno 10763 bound_to 10752
  154.6571  135.5348  153.7976 H   0  0  0  0  0  0  0  0  0  0  0  0  # atno 10764 bound_to 10752
  153.0387  135.6524  154.1150 H   0  0  0  0  0  0  0  0  0  0  0  0  # atno 10765 bound_to 10752
  140.6396  133.9501  155.8319 H   0  0  0  0  0  0  0  0  0  0  0  0  # atno 11005 bound_to 11000
  144.6765  140.2126  143.7375 LP  0  0  0  0  0  0  0  0  0  0  0  0  # atno 17320 bound_to 7965
  145.8426  139.2137  143.1818 LP  0  0  0  0  0  0  0  0  0  0  0  0  # atno 17321 bound_to 7965
  140.7715  143.3466  151.2099 LP  0  0  0  0  0  0  0  0  0  0  0  0  # atno 17342 bound_to 10162
  139.7059  143.9456  152.2926 LP  0  0  0  0  0  0  0  0  0  0  0  0  # atno 17343 bound_to 10162
  157.7032  131.0767  150.6753 LP  0  0  0  0  0  0  0  0  0  0  0  0  # atno 17370 bound_to 10713
  156.6813  130.4568  149.5627 LP  0  0  0  0  0  0  0  0  0  0  0  0  # atno 17371 bound_to 10713
  141.0616  134.0338  157.3650 LP  0  0  0  0  0  0  0  0  0  0  0  0  # atno 17394 bound_to 11000
  139.9085  135.0185  156.7590 LP  0  0  0  0  0  0  0  0  0  0  0  0  # atno 17395 bound_to 11000

$$$$
