AV-unprocessed.smi:2031|AV-procd|sdf|8230|dock7
  -GOLD-   2272010503D 1   1.00000     0.00000
 Structure written by MMmdl.
 41 42  0  0  0  0  0  0  0  0  3 V2000
  149.0645  141.0323  154.9827 C   0  0  0  0  0  0  0  0  0  0  0  0
  149.6864  139.7002  154.7401 C   0  0  0  0  0  0  0  0  0  0  0  0
  149.1775  138.4340  154.6709 C   0  0  0  0  0  0  0  0  0  0  0  0
  150.3260  137.6395  154.4110 C   0  0  0  0  0  0  0  0  0  0  0  0
  150.2142  136.2310  154.2688 N   0  0  0  0  0  0  0  0  0  0  0  0
  150.9966  135.2664  154.7870 C   0  0  0  0  0  0  0  0  0  0  0  0
  151.9674  135.5626  155.4937 O   0  0  0  0  0  0  0  0  0  0  0  0
  150.5780  134.0197  154.4339 N   0  5  0  0  0  0  0  0  0  0  0  0
  149.2271  133.6838  153.9869 C   0  0  0  0  0  0  0  0  0  0  0  0
  149.2817  132.4834  153.0229 C   0  0  0  0  0  0  0  0  0  0  0  0
  147.9220  132.1119  152.5367 N   0  3  0  0  0  0  0  0  0  0  0  0
  146.9921  133.2623  152.3750 C   0  0  0  0  0  0  0  0  0  0  0  0
  146.2427  133.1592  151.0355 C   0  0  0  0  0  0  0  0  0  0  0  0
  145.1110  132.1207  151.0095 C   0  0  0  0  0  0  0  0  0  0  0  0
  145.5415  130.6991  151.4069 C   0  0  0  0  0  0  0  0  0  0  0  0
  145.8872  130.5924  152.9009 C   0  0  0  0  0  0  0  0  0  0  0  0
  147.3427  130.9458  153.2669 C   0  0  0  0  0  0  0  0  0  0  0  0
  151.4363  138.3580  154.3306 N   0  0  0  0  0  0  0  0  0  0  0  0
  151.0320  139.6816  154.5408 O   0  0  0  0  0  0  0  0  0  0  0  0
  147.9928  140.9367  155.1582 H   0  0  0  0  0  0  0  0  0  0  0  0
  149.2099  141.6880  154.1241 H   0  0  0  0  0  0  0  0  0  0  0  0
  149.5083  141.5123  155.8550 H   0  0  0  0  0  0  0  0  0  0  0  0
  148.1488  138.1268  154.7866 H   0  0  0  0  0  0  0  0  0  0  0  0
  149.4475  135.9113  153.6958 H   0  0  0  0  0  0  0  0  0  0  0  0
  148.5854  133.4278  154.8304 H   0  0  0  0  0  0  0  0  0  0  0  0
  148.7289  134.5129  153.4826 H   0  0  0  0  0  0  0  0  0  0  0  0
  149.9397  132.6978  152.1790 H   0  0  0  0  0  0  0  0  0  0  0  0
  149.7524  131.6558  153.5541 H   0  0  0  0  0  0  0  0  0  0  0  0
  146.3105  133.3493  153.2221 H   0  0  0  0  0  0  0  0  0  0  0  0
  147.5428  134.2022  152.3454 H   0  0  0  0  0  0  0  0  0  0  0  0
  145.8115  134.1330  150.8007 H   0  0  0  0  0  0  0  0  0  0  0  0
  146.9539  132.9508  150.2346 H   0  0  0  0  0  0  0  0  0  0  0  0
  144.2986  132.4505  151.6583 H   0  0  0  0  0  0  0  0  0  0  0  0
  144.6914  132.0934  150.0031 H   0  0  0  0  0  0  0  0  0  0  0  0
  144.7067  130.0281  151.2007 H   0  0  0  0  0  0  0  0  0  0  0  0
  146.3682  130.3492  150.7870 H   0  0  0  0  0  0  0  0  0  0  0  0
  145.1977  131.2072  153.4805 H   0  0  0  0  0  0  0  0  0  0  0  0
  145.7010  129.5706  153.2333 H   0  0  0  0  0  0  0  0  0  0  0  0
  147.9710  130.0758  153.0735 H   0  0  0  0  0  0  0  0  0  0  0  0
  147.3929  131.1250  154.3418 H   0  0  0  0  0  0  0  0  0  0  0  0
  148.0797  131.7938  151.5911 H   0  0  0  0  0  0  0  0  0  0  0  0
  1  2  1  0  0  0  0
  1 20  1  0  0  0  0
  1 21  1  0  0  0  0
  1 22  1  0  0  0  0
  2 19  1  0  0  0  0
  2  3  2  0  0  0  0
  3  4  1  0  0  0  0
  3 23  1  0  0  0  0
  4  5  1  0  0  0  0
  4 18  2  0  0  0  0
  5  6  1  0  0  0  0
  5 24  1  0  0  0  0
  6  7  2  0  0  0  0
  6  8  1  0  0  0  0
  8  9  1  0  0  0  0
  9 10  1  0  0  0  0
  9 25  1  0  0  0  0
  9 26  1  0  0  0  0
 10 11  1  0  0  0  0
 10 27  1  0  0  0  0
 10 28  1  0  0  0  0
 11 17  1  0  0  0  0
 11 12  1  0  0  0  0
 11 41  1  0  0  0  0
 12 13  1  0  0  0  0
 12 29  1  0  0  0  0
 12 30  1  0  0  0  0
 13 14  1  0  0  0  0
 13 31  1  0  0  0  0
 13 32  1  0  0  0  0
 14 15  1  0  0  0  0
 14 33  1  0  0  0  0
 14 34  1  0  0  0  0
 15 16  1  0  0  0  0
 15 35  1  0  0  0  0
 15 36  1  0  0  0  0
 16 17  1  0  0  0  0
 16 37  1  0  0  0  0
 16 38  1  0  0  0  0
 17 39  1  0  0  0  0
 17 40  1  0  0  0  0
 18 19  1  0  0  0  0
M  CHG  1   8  -1
M  CHG  1  11   1
M  END
> <s_m_source_file>
AV-unprocessed.smi

> <i_m_source_file_index>
2031

> <i_lp_mmshare_version>
43012

> <i_f3d_flags>
0

> <s_epik_input>
W0NIM11jMVtjSF1jKG5vMSlbTkhdQyg9TylbTkhdW0NIMl1bQ0gyXU4yW0NIMl1bQ0gyXVtDSDJdW0NIMl1bQ0gyXVtDSDJdMg==

> <s_epik_cmdline>
J2VwaWtfcHl0aG9uJywgJy1waCcsICc3LjAnLCAnLXRuJywgJzgnLCAnLW1hJywgJzIwMCcsICctbWV0YWxfYmluZGluZycsICctaW1hZScsICc8aW5maWxlLm1hZT4nLCAnLW9tYWUnLCAnPG91dGZpbGUubWFlPic=

> <r_epik_Ionization_Penalty>
6.7666

> <r_epik_Ionization_Penalty_Charging>
6.7666

> <r_epik_Ionization_Penalty_Neutral>
5.77131e-06

> <r_epik_State_Penalty>
6.79217

> <r_epik_Charging_Adjusted_Penalty>
13.5588

> <i_epik_Tot_Q>
0

> <i_epik_Tot_abs_Q>
2

> <r_epik_Metal_State_Penalty>
2.72569

> <b_epik_Metal_Only>
1

> <s_lp_Force_Field>
OPLS_2005

> <r_lp_Energy>
19.0994

> <b_lp_Chiralities_Consistent>
1

> <s_lp_Variant>
AV-unprocessed.smi:2031-3

> <Gold.Version>
5.8.1

> <Gold.Id.Protein>
6NUR|6NUR_protein|mol2

> <Gold.PLP.Fitness>
45.0883

> <Gold.PLP.PLP>
-35.7877

> <Gold.PLP.part.hbond>
-4.6679

> <Gold.PLP.part.metal>
0.0000

> <Gold.PLP.part.buried>
-2.9219

> <Gold.PLP.part.nonpolar>
-27.4646

> <Gold.PLP.part.repulsive>
0.4326

> <Gold.PLP.ligand.clash>
0.1366

> <Gold.PLP.ligand.torsion>
1.0840

> <Gold.PLP.Chemscore.Hbond>
3.8480

> <Gold.PLP.Chemscore.CHOScore>
0.0000

> <Gold.PLP.Chemscore.Metal>
0.0000

> <Gold.Chemscore.Hbonds>
donor molecule, donor type, donor heavy atom, donor atom, acceptor molecule, acceptor atom, score
      L1  H     5    24       P1  7948  0.64
      L1  H    11    41       P1 10747  1.00
      P1  H  7989  7998       L1    19  1.00
      P1  H 10752 10765       L1     7  0.29

> <Gold.PLP.Chemscore.Internal.Correction>
0.0611

> <Gold.Rescore>
     Score         DG    S(hbond)    S(metal)    S(lipo)     H(rot)  DE(clash)    DE(int)     intcor
     20.70     -21.90       3.34        0.00      78.82       1.54       0.11       1.10       ----

> <Gold.Chemscore.Fitness>
20.6957

> <Gold.Chemscore.DG>
-21.9025

> <Gold.Chemscore.ZeroCoef>
-5.4800

> <Gold.Chemscore.Hbond>
3.3367

> <Gold.Chemscore.Metal>
0.0000

> <Gold.Chemscore.Lipo>
78.8248

> <Gold.Chemscore.Internal_Hbond>
0.0000

> <Gold.Chemscore.DEClash>
0.1115

> <Gold.Chemscore.DEInternal>
1.0952

> <Gold.Chemscore.Rot>
1.5409

> <Gold.Chemscore.Internal.Correction>
   9.000000E+99

> <Gold.Chemscore.Hbonds>
donor molecule, donor type, donor heavy atom, donor atom, acceptor molecule, acceptor atom, score
      L1  H     5    24       P1  7948  0.32
      L1  H    11    41       P1 10747  0.98
      P1  H  7989  7998       L1    19  0.87
      P1  H 10752 10765       L1     7  0.28

> <Gold.Chemscore.Hbond.Weighted>
-11.1446

> <Gold.Chemscore.Metal.Weighted>
-0.0000

> <Gold.Chemscore.Lipo.Weighted>
-9.2225

> <Gold.Chemscore.Internal_Hbond.Weighted>
0.0000

> <Gold.Chemscore.DEClash.Weighted>
0.1115

> <Gold.Chemscore.DEInternal.Weighted>
1.0952

> <Gold.Chemscore.Rot.Weighted>
3.9446

> <Gold.Chemscore.Internal.Correction.Weighted>
   9.000000E+99

> <Gold.Protein.RotatedTorsions>
[ 6907 6896 6895 6894 ] final  105.39 input  -60.11 | X-H torsion
[ 7974 7965 7964 7962 ] final -153.37 input  175.53 | X-H torsion
[ 8008 7997 7996 7995 ] final -113.37 input   59.86 | X-H torsion
[ 10167 10162 10161 10158 ] final  -61.42 input  -65.29 | X-H torsion
[ 10718 10713 10712 10709 ] final -133.57 input   66.30 | X-H torsion
[ 10763 10752 10751 10750 ] final -151.61 input  -60.55 | X-H torsion
[ 11005 11000 10999 10996 ] final  -72.34 input  -57.11 | X-H torsion

> <Gold.Protein.ActiveResidues>
 VAL166  LYS551  ARG553  GLY616  TRP617  ASP618  TYR619  PRO620  LYS621  CYS622 
 ASP623  PHE694  ASN695  SER759  ASP760  ASP761  ALA762  ILE779  LEU786  VAL792 
 PHE793  MET794  SER795  GLU796  ALA797  LYS798  CYS799  TRP800  GLU811  SER814 

> <Gold.Protein.RotatedAtoms>
  152.5232  133.9536  159.7683 H   0  0  0  0  0  0  0  0  0  0  0  0  # atno 6907 bound_to 6896
  150.9841  133.6207  159.2725 H   0  0  0  0  0  0  0  0  0  0  0  0  # atno 6908 bound_to 6896
  151.3374  135.0862  159.9412 H   0  0  0  0  0  0  0  0  0  0  0  0  # atno 6909 bound_to 6896
  144.7744  140.4534  143.5884 H   0  0  0  0  0  0  0  0  0  0  0  0  # atno 7974 bound_to 7965
  155.0196  140.0393  157.2432 H   0  0  0  0  0  0  0  0  0  0  0  0  # atno 8008 bound_to 7997
  154.7389  140.2745  155.6367 H   0  0  0  0  0  0  0  0  0  0  0  0  # atno 8009 bound_to 7997
  156.2859  140.2669  156.2111 H   0  0  0  0  0  0  0  0  0  0  0  0  # atno 8010 bound_to 7997
  140.6007  143.2361  151.5935 H   0  0  0  0  0  0  0  0  0  0  0  0  # atno 10167 bound_to 10162
  156.2463  130.7126  151.1008 H   0  0  0  0  0  0  0  0  0  0  0  0  # atno 10718 bound_to 10713
  154.8047  135.3256  154.7461 H   0  0  0  0  0  0  0  0  0  0  0  0  # atno 10763 bound_to 10752
  153.8122  135.6894  153.4843 H   0  0  0  0  0  0  0  0  0  0  0  0  # atno 10764 bound_to 10752
  153.1785  135.4596  154.9941 H   0  0  0  0  0  0  0  0  0  0  0  0  # atno 10765 bound_to 10752
  141.1607  133.6844  156.7043 H   0  0  0  0  0  0  0  0  0  0  0  0  # atno 11005 bound_to 11000
  145.6229  139.1526  143.3012 LP  0  0  0  0  0  0  0  0  0  0  0  0  # atno 17320 bound_to 7965
  146.1913  140.6338  142.9144 LP  0  0  0  0  0  0  0  0  0  0  0  0  # atno 17321 bound_to 7965
  139.5289  144.2975  152.1101 LP  0  0  0  0  0  0  0  0  0  0  0  0  # atno 17342 bound_to 10162
  140.2155  144.4519  150.6366 LP  0  0  0  0  0  0  0  0  0  0  0  0  # atno 17343 bound_to 10162
  157.7196  131.0689  150.6188 LP  0  0  0  0  0  0  0  0  0  0  0  0  # atno 17370 bound_to 10713
  156.6265  130.4420  149.5802 LP  0  0  0  0  0  0  0  0  0  0  0  0  # atno 17371 bound_to 10713
  140.2935  134.8221  157.4037 LP  0  0  0  0  0  0  0  0  0  0  0  0  # atno 17394 bound_to 11000
  140.1326  134.5076  155.8094 LP  0  0  0  0  0  0  0  0  0  0  0  0  # atno 17395 bound_to 11000

$$$$
