AV-unprocessed.smi:511|AV-procd|sdf|2764|dock4
  -GOLD-   2262023233D 1   1.00000     0.00000
 Structure written by MMmdl.
 46 48  0  0  0  0  0  0  0  0  2 V2000
  148.2896  141.6049  157.1049 C   0  0  0  0  0  0  0  0  0  0  0  0
  149.5852  141.1036  156.8272 O   0  0  0  0  0  0  0  0  0  0  0  0
  150.1594  141.6939  155.6741 C   0  0  0  0  0  0  0  0  0  0  0  0
  149.7515  140.8738  154.4444 C   0  0  0  0  0  0  0  0  0  0  0  0
  149.6258  139.4550  154.7666 N   0  0  0  0  0  0  0  0  0  0  0  0
  148.5207  138.6626  154.7174 C   0  0  0  0  0  0  0  0  0  0  0  0
  147.2894  139.1370  154.2658 N   0  0  0  0  0  0  0  0  0  0  0  0
  146.0625  139.1692  155.0598 C   0  0  0  0  0  0  0  0  0  0  0  0
  145.7598  140.5906  155.5703 C   0  0  0  0  0  0  0  0  0  0  0  0
  145.6868  141.5569  154.4485 N   0  3  0  0  0  0  0  0  0  0  0  0
  145.3908  142.9332  154.8995 C   0  0  0  0  0  0  0  0  0  0  0  0
  146.8870  141.4860  153.5817 C   0  0  0  0  0  0  0  0  0  0  0  0
  147.1412  140.0384  153.1271 C   0  0  0  0  0  0  0  0  0  0  0  0
  148.7075  137.4147  155.1567 N   0  0  0  0  0  0  0  0  0  0  0  0
  150.0535  137.4013  155.4885 C   0  0  0  0  0  0  0  0  0  0  0  0
  150.6206  138.6130  155.2645 C   0  0  0  0  0  0  0  0  0  0  0  0
  152.0337  138.8858  155.5551 C   0  0  0  0  0  0  0  0  0  0  0  0
  152.5632  139.9800  155.3749 O   0  0  0  0  0  0  0  0  0  0  0  0
  152.6921  137.8068  156.0445 N   0  0  0  0  0  0  0  0  0  0  0  0
  152.1839  136.5593  156.2858 C   0  0  0  0  0  0  0  0  0  0  0  0
  152.9183  135.6775  156.7298 O   0  0  0  0  0  0  0  0  0  0  0  0
  150.8540  136.3502  156.0147 N   0  0  0  0  0  0  0  0  0  0  0  0
  150.2121  135.0538  156.2408 C   0  0  0  0  0  0  0  0  0  0  0  0
  153.6704  137.9386  156.2569 H   0  0  0  0  0  0  0  0  0  0  0  0
  147.8942  141.1233  157.9993 H   0  0  0  0  0  0  0  0  0  0  0  0
  147.6030  141.4020  156.2821 H   0  0  0  0  0  0  0  0  0  0  0  0
  148.3132  142.6805  157.2848 H   0  0  0  0  0  0  0  0  0  0  0  0
  149.8187  142.7255  155.5725 H   0  0  0  0  0  0  0  0  0  0  0  0
  151.2465  141.7130  155.7670 H   0  0  0  0  0  0  0  0  0  0  0  0
  148.8139  141.2588  154.0525 H   0  0  0  0  0  0  0  0  0  0  0  0
  150.4772  140.9953  153.6407 H   0  0  0  0  0  0  0  0  0  0  0  0
  145.2333  138.7917  154.4603 H   0  0  0  0  0  0  0  0  0  0  0  0
  146.1575  138.5073  155.9203 H   0  0  0  0  0  0  0  0  0  0  0  0
  144.8175  140.5938  156.1192 H   0  0  0  0  0  0  0  0  0  0  0  0
  146.5376  140.9042  156.2689 H   0  0  0  0  0  0  0  0  0  0  0  0
  146.1924  143.3208  155.5296 H   0  0  0  0  0  0  0  0  0  0  0  0
  144.4626  142.9595  155.4714 H   0  0  0  0  0  0  0  0  0  0  0  0
  145.2742  143.6005  154.0449 H   0  0  0  0  0  0  0  0  0  0  0  0
  146.7501  142.1287  152.7114 H   0  0  0  0  0  0  0  0  0  0  0  0
  147.7550  141.8637  154.1251 H   0  0  0  0  0  0  0  0  0  0  0  0
  148.0395  139.9953  152.5098 H   0  0  0  0  0  0  0  0  0  0  0  0
  146.3202  139.6889  152.4995 H   0  0  0  0  0  0  0  0  0  0  0  0
  150.8513  134.3224  156.7363 H   0  0  0  0  0  0  0  0  0  0  0  0
  149.8972  134.6253  155.2891 H   0  0  0  0  0  0  0  0  0  0  0  0
  149.3248  135.1789  156.8626 H   0  0  0  0  0  0  0  0  0  0  0  0
  144.9072  141.2664  153.8756 H   0  0  0  0  0  0  0  0  0  0  0  0
  1  2  1  0  0  0  0
  1 25  1  0  0  0  0
  1 26  1  0  0  0  0
  1 27  1  0  0  0  0
  2  3  1  0  0  0  0
  3  4  1  0  0  0  0
  3 28  1  0  0  0  0
  3 29  1  0  0  0  0
  4  5  1  0  0  0  0
  4 30  1  0  0  0  0
  4 31  1  0  0  0  0
  5 16  1  0  0  0  0
  5  6  1  0  0  0  0
  6  7  1  0  0  0  0
  6 14  2  0  0  0  0
  7 13  1  0  0  0  0
  7  8  1  0  0  0  0
  8  9  1  0  0  0  0
  8 32  1  0  0  0  0
  8 33  1  0  0  0  0
  9 10  1  0  0  0  0
  9 34  1  0  0  0  0
  9 35  1  0  0  0  0
 10 11  1  0  0  0  0
 10 12  1  0  0  0  0
 10 46  1  0  0  0  0
 11 36  1  0  0  0  0
 11 37  1  0  0  0  0
 11 38  1  0  0  0  0
 12 13  1  0  0  0  0
 12 39  1  0  0  0  0
 12 40  1  0  0  0  0
 13 41  1  0  0  0  0
 13 42  1  0  0  0  0
 14 15  1  0  0  0  0
 15 22  1  0  0  0  0
 15 16  2  0  0  0  0
 16 17  1  0  0  0  0
 17 18  2  0  0  0  0
 17 19  1  0  0  0  0
 19 24  1  0  0  0  0
 19 20  1  0  0  0  0
 20 21  2  0  0  0  0
 20 22  1  0  0  0  0
 22 23  1  0  0  0  0
 23 43  1  0  0  0  0
 23 44  1  0  0  0  0
 23 45  1  0  0  0  0
M  CHG  1  10   1
M  END
> <s_m_source_file>
AV-unprocessed.smi

> <i_m_source_file_index>
511

> <i_lp_mmshare_version>
43012

> <i_f3d_flags>
0

> <s_epik_input>
W0NIM11uMWMoPU8pW25IXWMoPU8pYyhjMTIpbihbQ0gyXVtDSDJdT1tDSDNdKWMobjIpTjNbQ0gyXVtDSDJdTihbQ0gzXSlbQ0gyXVtDSDJdMw==

> <s_epik_cmdline>
J2VwaWtfcHl0aG9uJywgJy1waCcsICc3LjAnLCAnLXRuJywgJzgnLCAnLW1hJywgJzIwMCcsICctbWV0YWxfYmluZGluZycsICctaW1hZScsICc8aW5maWxlLm1hZT4nLCAnLW9tYWUnLCAnPG91dGZpbGUubWFlPic=

> <r_epik_Ionization_Penalty>
0.064781

> <r_epik_Ionization_Penalty_Charging>
0.0647789

> <r_epik_Ionization_Penalty_Neutral>
2.1607e-06

> <r_epik_State_Penalty>
0.0564218

> <r_epik_Charging_Adjusted_Penalty>
0.121201

> <i_epik_Tot_Q>
1

> <i_epik_Tot_abs_Q>
1

> <r_epik_Metal_State_Penalty>
0.0833038

> <b_epik_Metal_Only>
0

> <s_lp_Force_Field>
OPLS_2005

> <r_lp_Energy>
49.4722

> <b_lp_Chiralities_Consistent>
1

> <s_lp_Variant>
AV-unprocessed.smi:511-1

> <Gold.Version>
5.8.1

> <Gold.Id.Protein>
6NUR|6NUR_protein|mol2

> <Gold.PLP.Fitness>
39.2361

> <Gold.PLP.PLP>
-27.9874

> <Gold.PLP.part.hbond>
-4.0000

> <Gold.PLP.part.metal>
0.0000

> <Gold.PLP.part.buried>
0.0049

> <Gold.PLP.part.nonpolar>
-23.7559

> <Gold.PLP.part.repulsive>
0.3147

> <Gold.PLP.ligand.clash>
0.0000

> <Gold.PLP.ligand.torsion>
1.1914

> <Gold.PLP.Chemscore.Hbond>
4.3576

> <Gold.PLP.Chemscore.CHOScore>
0.0000

> <Gold.PLP.Chemscore.Metal>
0.0000

> <Gold.Chemscore.Hbonds>
donor molecule, donor type, donor heavy atom, donor atom, acceptor molecule, acceptor atom, score
      L1  H    10    46       P1 10175  2.00
      P1  H  7989  7998       L1    18  0.26
      P1  H  7997  8008       L1    18  1.00
      P1  H 10752 10764       L1    21  1.00

> <Gold.PLP.Chemscore.Internal.Correction>
0.5589

> <Gold.Rescore>
     Score         DG    S(hbond)    S(metal)    S(lipo)     H(rot)  DE(clash)    DE(int)     intcor
     10.81     -14.66       2.19        0.00      48.91       1.51       0.68       3.17       ----

> <Gold.Chemscore.Fitness>
10.8075

> <Gold.Chemscore.DG>
-14.6650

> <Gold.Chemscore.ZeroCoef>
-5.4800

> <Gold.Chemscore.Hbond>
2.1928

> <Gold.Chemscore.Metal>
0.0000

> <Gold.Chemscore.Lipo>
48.9134

> <Gold.Chemscore.Internal_Hbond>
0.0000

> <Gold.Chemscore.DEClash>
0.6840

> <Gold.Chemscore.DEInternal>
3.1734

> <Gold.Chemscore.Rot>
1.5086

> <Gold.Chemscore.Internal.Correction>
   9.000000E+99

> <Gold.Chemscore.Hbonds>
donor molecule, donor type, donor heavy atom, donor atom, acceptor molecule, acceptor atom, score
      L1  H    10    46       P1 10175  0.48
      P1  H  7989  7998       L1    18  0.17
      P1  H  7997  8008       L1    18  0.93
      P1  H 10752 10764       L1    21  0.24

> <Gold.Chemscore.Hbond.Weighted>
-7.3241

> <Gold.Chemscore.Metal.Weighted>
-0.0000

> <Gold.Chemscore.Lipo.Weighted>
-5.7229

> <Gold.Chemscore.Internal_Hbond.Weighted>
0.0000

> <Gold.Chemscore.DEClash.Weighted>
0.6840

> <Gold.Chemscore.DEInternal.Weighted>
3.1734

> <Gold.Chemscore.Rot.Weighted>
3.8620

> <Gold.Chemscore.Internal.Correction.Weighted>
   9.000000E+99

> <Gold.Protein.RotatedTorsions>
[ 6907 6896 6895 6894 ] final  -40.06 input  -60.11 | X-H torsion
[ 7974 7965 7964 7962 ] final  -71.21 input  175.53 | X-H torsion
[ 8008 7997 7996 7995 ] final  -25.51 input   59.86 | X-H torsion
[ 10167 10162 10161 10158 ] final -109.44 input  -65.29 | X-H torsion
[ 10718 10713 10712 10709 ] final  121.86 input   66.30 | X-H torsion
[ 10763 10752 10751 10750 ] final   15.26 input  -60.55 | X-H torsion
[ 11005 11000 10999 10996 ] final  -76.39 input  -57.11 | X-H torsion

> <Gold.Protein.ActiveResidues>
 VAL166  LYS551  ARG553  GLY616  TRP617  ASP618  TYR619  PRO620  LYS621  CYS622 
 ASP623  PHE694  ASN695  SER759  ASP760  ASP761  ALA762  ILE779  LEU786  VAL792 
 PHE793  MET794  SER795  GLU796  ALA797  LYS798  CYS799  TRP800  GLU811  SER814 

> <Gold.Protein.RotatedAtoms>
  150.9829  134.9180  159.7854 H   0  0  0  0  0  0  0  0  0  0  0  0  # atno 6907 bound_to 6896
  152.5227  134.3386  159.9219 H   0  0  0  0  0  0  0  0  0  0  0  0  # atno 6908 bound_to 6896
  151.3393  133.3928  159.2704 H   0  0  0  0  0  0  0  0  0  0  0  0  # atno 6909 bound_to 6896
  145.6810  140.9188  143.0832 H   0  0  0  0  0  0  0  0  0  0  0  0  # atno 7974 bound_to 7965
  154.4472  140.1924  156.0631 H   0  0  0  0  0  0  0  0  0  0  0  0  # atno 8008 bound_to 7997
  156.0568  140.3302  155.7387 H   0  0  0  0  0  0  0  0  0  0  0  0  # atno 8009 bound_to 7997
  155.5474  140.0592  157.2848 H   0  0  0  0  0  0  0  0  0  0  0  0  # atno 8010 bound_to 7997
  140.1553  143.4165  152.1465 H   0  0  0  0  0  0  0  0  0  0  0  0  # atno 10167 bound_to 10162
  157.5786  131.1077  150.8232 H   0  0  0  0  0  0  0  0  0  0  0  0  # atno 10718 bound_to 10713
  153.1542  135.6784  153.8836 H   0  0  0  0  0  0  0  0  0  0  0  0  # atno 10763 bound_to 10752
  153.8253  135.3125  155.3415 H   0  0  0  0  0  0  0  0  0  0  0  0  # atno 10764 bound_to 10752
  154.7885  135.4848  154.0087 H   0  0  0  0  0  0  0  0  0  0  0  0  # atno 10765 bound_to 10752
  141.1653  133.6982  156.7662 H   0  0  0  0  0  0  0  0  0  0  0  0  # atno 11005 bound_to 11000
  144.7026  139.8696  143.7439 LP  0  0  0  0  0  0  0  0  0  0  0  0  # atno 17320 bound_to 7965
  146.0964  139.3957  143.0374 LP  0  0  0  0  0  0  0  0  0  0  0  0  # atno 17321 bound_to 7965
  139.5406  144.7253  151.4745 LP  0  0  0  0  0  0  0  0  0  0  0  0  # atno 17342 bound_to 10162
  140.6677  143.8362  150.6961 LP  0  0  0  0  0  0  0  0  0  0  0  0  # atno 17343 bound_to 10162
  156.8684  130.5137  149.5298 LP  0  0  0  0  0  0  0  0  0  0  0  0  # atno 17370 bound_to 10713
  156.0831  130.5836  150.9599 LP  0  0  0  0  0  0  0  0  0  0  0  0  # atno 17371 bound_to 10713
  140.2497  134.8550  157.3655 LP  0  0  0  0  0  0  0  0  0  0  0  0  # atno 17394 bound_to 11000
  140.1714  134.4603  155.7829 LP  0  0  0  0  0  0  0  0  0  0  0  0  # atno 17395 bound_to 11000

$$$$
