AV-unprocessed.smi:2232|AV-procd|sdf|9039|dock1
  -GOLD-   2272012243D 1   1.00000     0.00000
 Structure written by MMmdl.
 43 44  0  0  0  0  0  0  0  0  2 V2000
  151.6375  145.3213  159.6310 C   0  0  0  0  0  0  0  0  0  0  0  0
  152.0088  143.8895  159.3068 C   0  0  0  0  0  0  0  0  0  0  0  0
  153.0191  143.2247  160.0277 C   0  0  0  0  0  0  0  0  0  0  0  0
  153.3203  141.8941  159.6769 C   0  0  0  0  0  0  0  0  0  0  0  0
  154.3929  141.1178  160.4114 C   0  0  0  0  0  0  0  0  0  0  0  0
  152.6878  141.2328  158.6842 N   0  0  0  0  0  0  0  0  0  0  0  0
  151.7142  141.8637  157.9820 C   0  0  0  0  0  0  0  0  0  0  0  0
  150.9942  141.2588  156.9177 N   0  0  0  0  0  0  0  0  0  0  0  0
  151.3993  140.2736  156.0972 C   0  0  0  0  0  0  0  0  0  0  0  0
  152.4872  139.6989  156.1538 O   0  0  0  0  0  0  0  0  0  0  0  0
  150.4622  139.9813  155.1834 N   0  0  0  0  0  0  0  0  0  0  0  0
  150.6022  138.9622  154.1495 C   0  0  0  0  0  0  0  0  0  0  0  0
  151.1346  137.6375  154.7302 C   0  0  0  0  0  0  0  0  0  0  0  0
  150.1562  136.5288  154.6062 N   0  3  0  0  0  0  0  0  0  0  0  0
  150.7458  135.2158  154.9622 C   0  0  0  0  0  0  0  0  0  0  0  0
  149.7129  134.0914  154.7775 C   0  0  0  0  0  0  0  0  0  0  0  0
  148.5622  134.3673  155.5659 O   0  0  0  0  0  0  0  0  0  0  0  0
  147.9315  135.5812  155.1782 C   0  0  0  0  0  0  0  0  0  0  0  0
  148.9046  136.7566  155.3715 C   0  0  0  0  0  0  0  0  0  0  0  0
  151.3493  143.1978  158.2707 C   0  0  0  0  0  0  0  0  0  0  0  0
  152.0463  145.6265  160.5947 H   0  0  0  0  0  0  0  0  0  0  0  0
  150.5537  145.4343  159.6711 H   0  0  0  0  0  0  0  0  0  0  0  0
  152.0260  145.9932  158.8653 H   0  0  0  0  0  0  0  0  0  0  0  0
  153.5491  143.7211  160.8276 H   0  0  0  0  0  0  0  0  0  0  0  0
  154.8767  141.7326  161.1709 H   0  0  0  0  0  0  0  0  0  0  0  0
  155.1575  140.7739  159.7144 H   0  0  0  0  0  0  0  0  0  0  0  0
  153.9592  140.2468  160.9036 H   0  0  0  0  0  0  0  0  0  0  0  0
  150.0696  141.6293  156.7554 H   0  0  0  0  0  0  0  0  0  0  0  0
  149.5937  140.4961  155.2068 H   0  0  0  0  0  0  0  0  0  0  0  0
  149.6404  138.8253  153.6547 H   0  0  0  0  0  0  0  0  0  0  0  0
  151.2900  139.3390  153.3920 H   0  0  0  0  0  0  0  0  0  0  0  0
  152.0442  137.3732  154.1886 H   0  0  0  0  0  0  0  0  0  0  0  0
  151.4228  137.7513  155.7764 H   0  0  0  0  0  0  0  0  0  0  0  0
  151.6171  135.0177  154.3368 H   0  0  0  0  0  0  0  0  0  0  0  0
  151.0915  135.2382  155.9970 H   0  0  0  0  0  0  0  0  0  0  0  0
  149.4342  133.9857  153.7279 H   0  0  0  0  0  0  0  0  0  0  0  0
  150.1361  133.1374  155.0923 H   0  0  0  0  0  0  0  0  0  0  0  0
  147.5979  135.5174  154.1413 H   0  0  0  0  0  0  0  0  0  0  0  0
  147.0411  135.7269  155.7903 H   0  0  0  0  0  0  0  0  0  0  0  0
  149.1390  136.8728  156.4309 H   0  0  0  0  0  0  0  0  0  0  0  0
  148.4205  137.6777  155.0499 H   0  0  0  0  0  0  0  0  0  0  0  0
  150.5722  143.6896  157.7035 H   0  0  0  0  0  0  0  0  0  0  0  0
  149.9029  136.4711  153.6302 H   0  0  0  0  0  0  0  0  0  0  0  0
  1  2  1  0  0  0  0
  1 21  1  0  0  0  0
  1 22  1  0  0  0  0
  1 23  1  0  0  0  0
  2 20  1  0  0  0  0
  2  3  2  0  0  0  0
  3  4  1  0  0  0  0
  3 24  1  0  0  0  0
  4  5  1  0  0  0  0
  4  6  2  0  0  0  0
  5 25  1  0  0  0  0
  5 26  1  0  0  0  0
  5 27  1  0  0  0  0
  6  7  1  0  0  0  0
  7  8  1  0  0  0  0
  7 20  2  0  0  0  0
  8  9  1  0  0  0  0
  8 28  1  0  0  0  0
  9 10  2  0  0  0  0
  9 11  1  0  0  0  0
 11 12  1  0  0  0  0
 11 29  1  0  0  0  0
 12 13  1  0  0  0  0
 12 30  1  0  0  0  0
 12 31  1  0  0  0  0
 13 14  1  0  0  0  0
 13 32  1  0  0  0  0
 13 33  1  0  0  0  0
 14 19  1  0  0  0  0
 14 15  1  0  0  0  0
 14 43  1  0  0  0  0
 15 16  1  0  0  0  0
 15 34  1  0  0  0  0
 15 35  1  0  0  0  0
 16 17  1  0  0  0  0
 16 36  1  0  0  0  0
 16 37  1  0  0  0  0
 17 18  1  0  0  0  0
 18 19  1  0  0  0  0
 18 38  1  0  0  0  0
 18 39  1  0  0  0  0
 19 40  1  0  0  0  0
 19 41  1  0  0  0  0
 20 42  1  0  0  0  0
M  CHG  1  14   1
M  END
> <s_m_source_file>
AV-unprocessed.smi

> <i_m_source_file_index>
2232

> <i_lp_mmshare_version>
43012

> <i_f3d_flags>
0

> <s_epik_input>
W0NIM11jMVtjSF1jKFtDSDNdKW5jKFtjSF0xKVtOSF1DKD1PKVtOSF1bQ0gyXVtDSDJdTjJbQ0gyXVtDSDJdT1tDSDJdW0NIMl0y

> <s_epik_cmdline>
J2VwaWtfcHl0aG9uJywgJy1waCcsICc3LjAnLCAnLXRuJywgJzgnLCAnLW1hJywgJzIwMCcsICctbWV0YWxfYmluZGluZycsICctaW1hZScsICc8aW5maWxlLm1hZT4nLCAnLW9tYWUnLCAnPG91dGZpbGUubWFlPic=

> <r_epik_Ionization_Penalty>
0.602717

> <r_epik_Ionization_Penalty_Charging>
0.602531

> <r_epik_Ionization_Penalty_Neutral>
0.000186219

> <r_epik_State_Penalty>
0.617039

> <r_epik_Charging_Adjusted_Penalty>
1.21957

> <i_epik_Tot_Q>
1

> <i_epik_Tot_abs_Q>
1

> <r_epik_Metal_State_Penalty>
0.617067

> <b_epik_Metal_Only>
0

> <s_lp_Force_Field>
OPLS_2005

> <r_lp_Energy>
15.6528

> <b_lp_Chiralities_Consistent>
1

> <s_lp_Variant>
AV-unprocessed.smi:2232-2

> <Gold.Version>
5.8.1

> <Gold.Id.Protein>
6NUR|6NUR_protein|mol2

> <Gold.PLP.Fitness>
48.6548

> <Gold.PLP.PLP>
-40.8628

> <Gold.PLP.part.hbond>
-2.0135

> <Gold.PLP.part.metal>
0.0000

> <Gold.PLP.part.buried>
-5.3015

> <Gold.PLP.part.nonpolar>
-33.5311

> <Gold.PLP.part.repulsive>
0.3644

> <Gold.PLP.ligand.clash>
0.0000

> <Gold.PLP.ligand.torsion>
0.6248

> <Gold.PLP.Chemscore.Hbond>
3.0000

> <Gold.PLP.Chemscore.CHOScore>
0.0000

> <Gold.PLP.Chemscore.Metal>
0.0000

> <Gold.Chemscore.Hbonds>
donor molecule, donor type, donor heavy atom, donor atom, acceptor molecule, acceptor atom, score
      L1  H    14    43       P1  7948  1.90
      P1  H  7997  8010       L1    10  1.00

> <Gold.PLP.Chemscore.Internal.Correction>
0.0416

> <Gold.Rescore>
     Score         DG    S(hbond)    S(metal)    S(lipo)     H(rot)  DE(clash)    DE(int)     intcor
     16.63     -19.41       1.96        0.00      95.79       1.49       0.03       2.75       ----

> <Gold.Chemscore.Fitness>
16.6282

> <Gold.Chemscore.DG>
-19.4096

> <Gold.Chemscore.ZeroCoef>
-5.4800

> <Gold.Chemscore.Hbond>
1.9595

> <Gold.Chemscore.Metal>
0.0000

> <Gold.Chemscore.Lipo>
95.7851

> <Gold.Chemscore.Internal_Hbond>
0.0000

> <Gold.Chemscore.DEClash>
0.0270

> <Gold.Chemscore.DEInternal>
2.7544

> <Gold.Chemscore.Rot>
1.4930

> <Gold.Chemscore.Internal.Correction>
   9.000000E+99

> <Gold.Chemscore.Hbonds>
donor molecule, donor type, donor heavy atom, donor atom, acceptor molecule, acceptor atom, score
      L1  H    14    43       P1  7948  0.21
      P1  H  7997  8010       L1    10  0.96

> <Gold.Chemscore.Hbond.Weighted>
-6.5447

> <Gold.Chemscore.Metal.Weighted>
-0.0000

> <Gold.Chemscore.Lipo.Weighted>
-11.2069

> <Gold.Chemscore.Internal_Hbond.Weighted>
0.0000

> <Gold.Chemscore.DEClash.Weighted>
0.0270

> <Gold.Chemscore.DEInternal.Weighted>
2.7544

> <Gold.Chemscore.Rot.Weighted>
3.8220

> <Gold.Chemscore.Internal.Correction.Weighted>
   9.000000E+99

> <Gold.Protein.RotatedTorsions>
[ 6907 6896 6895 6894 ] final   74.31 input  -60.11 | X-H torsion
[ 7974 7965 7964 7962 ] final   76.18 input  175.53 | X-H torsion
[ 8008 7997 7996 7995 ] final   96.42 input   59.86 | X-H torsion
[ 10167 10162 10161 10158 ] final  -72.42 input  -65.29 | X-H torsion
[ 10718 10713 10712 10709 ] final  173.71 input   66.30 | X-H torsion
[ 10763 10752 10751 10750 ] final  177.13 input  -60.55 | X-H torsion
[ 11005 11000 10999 10996 ] final   79.89 input  -57.11 | X-H torsion

> <Gold.Protein.ActiveResidues>
 VAL166  LYS551  ARG553  GLY616  TRP617  ASP618  TYR619  PRO620  LYS621  CYS622 
 ASP623  PHE694  ASN695  SER759  ASP760  ASP761  ALA762  ILE779  LEU786  VAL792 
 PHE793  MET794  SER795  GLU796  ALA797  LYS798  CYS799  TRP800  GLU811  SER814 

> <Gold.Protein.RotatedAtoms>
  152.4969  134.4290  159.9505 H   0  0  0  0  0  0  0  0  0  0  0  0  # atno 6907 bound_to 6896
  151.4267  133.3676  159.2771 H   0  0  0  0  0  0  0  0  0  0  0  0  # atno 6908 bound_to 6896
  150.9183  134.8624  159.7532 H   0  0  0  0  0  0  0  0  0  0  0  0  # atno 6909 bound_to 6896
  145.7061  139.2599  143.1677 H   0  0  0  0  0  0  0  0  0  0  0  0  # atno 7974 bound_to 7965
  156.0794  140.3273  155.7675 H   0  0  0  0  0  0  0  0  0  0  0  0  # atno 8008 bound_to 7997
  155.5177  140.0582  157.2930 H   0  0  0  0  0  0  0  0  0  0  0  0  # atno 8009 bound_to 7997
  154.4574  140.1949  156.0358 H   0  0  0  0  0  0  0  0  0  0  0  0  # atno 8010 bound_to 7997
  140.5194  143.2333  151.7456 H   0  0  0  0  0  0  0  0  0  0  0  0  # atno 10167 bound_to 10162
  156.9603  131.0059  151.2929 H   0  0  0  0  0  0  0  0  0  0  0  0  # atno 10718 bound_to 10713
  154.4904  135.2779  155.1501 H   0  0  0  0  0  0  0  0  0  0  0  0  # atno 10763 bound_to 10752
  154.3175  135.6216  153.5496 H   0  0  0  0  0  0  0  0  0  0  0  0  # atno 10764 bound_to 10752
  152.9887  135.5734  154.5324 H   0  0  0  0  0  0  0  0  0  0  0  0  # atno 10765 bound_to 10752
  139.9155  134.7877  156.1837 H   0  0  0  0  0  0  0  0  0  0  0  0  # atno 11005 bound_to 11000
  146.0754  140.7823  142.9667 LP  0  0  0  0  0  0  0  0  0  0  0  0  # atno 17320 bound_to 7965
  144.6955  140.3406  143.7200 LP  0  0  0  0  0  0  0  0  0  0  0  0  # atno 17321 bound_to 7965
  139.4919  144.4277  151.9907 LP  0  0  0  0  0  0  0  0  0  0  0  0  # atno 17342 bound_to 10162
  140.3373  144.3246  150.5974 LP  0  0  0  0  0  0  0  0  0  0  0  0  # atno 17343 bound_to 10162
  157.5662  130.8279  149.8330 LP  0  0  0  0  0  0  0  0  0  0  0  0  # atno 17370 bound_to 10713
  156.0325  130.3760  150.1649 LP  0  0  0  0  0  0  0  0  0  0  0  0  # atno 17371 bound_to 10713
  141.0626  133.6834  156.1983 LP  0  0  0  0  0  0  0  0  0  0  0  0  # atno 17394 bound_to 11000
  140.6636  134.4942  157.5584 LP  0  0  0  0  0  0  0  0  0  0  0  0  # atno 17395 bound_to 11000

$$$$
