AV-unprocessed.smi:33|AV-procd|sdf|199|dock10
  -GOLD-   2262015473D 1   1.00000     0.00000
 Structure written by MMmdl.
 67 72  0  0  0  0  0  0  0  0  1 V2000
  152.0945  140.2786  159.1728 O   0  0  0  0  0  0  0  0  0  0  0  0
  151.8194  141.3007  158.5410 C   0  0  0  0  0  0  0  0  0  0  0  0
  151.4818  141.3032  157.2382 O   0  0  0  0  0  0  0  0  0  0  0  0
  151.4168  140.0852  156.5153 C   0  0  0  0  0  0  0  0  0  0  0  0
  150.2876  139.2337  157.1035 C   0  0  2  0  0  0  0  0  0  0  0  0
  149.7335  138.3705  156.1197 O   0  0  0  0  0  0  0  0  0  0  0  0
  148.4934  137.9123  156.5680 C   0  0  1  0  0  0  0  0  0  0  0  0
  148.6797  136.5462  157.1597 N   0  0  0  0  0  0  0  0  0  0  0  0
  149.8398  135.9054  157.5456 C   0  0  0  0  0  0  0  0  0  0  0  0
  149.6795  134.7021  158.0270 N   0  0  0  0  0  0  0  0  0  0  0  0
  148.3085  134.4930  157.9578 C   0  0  0  0  0  0  0  0  0  0  0  0
  147.4519  133.4154  158.3083 C   0  0  0  0  0  0  0  0  0  0  0  0
  147.9078  132.2626  158.8516 N   0  0  0  0  0  0  0  0  0  0  0  0
  147.9765  132.1980  160.3187 C   0  0  0  0  0  0  0  0  0  0  0  0
  148.7786  131.4325  160.8571 O   0  0  0  0  0  0  0  0  0  0  0  0
  147.1095  133.0894  161.1617 C   0  0  0  0  0  0  0  0  0  0  0  0
  147.6753  134.1911  161.8399 C   0  0  0  0  0  0  0  0  0  0  0  0
  146.8690  135.0204  162.6435 C   0  0  0  0  0  0  0  0  0  0  0  0
  145.4964  134.7428  162.7884 C   0  0  0  0  0  0  0  0  0  0  0  0
  144.9320  133.6290  162.1383 C   0  0  0  0  0  0  0  0  0  0  0  0
  145.7373  132.7992  161.3346 C   0  0  0  0  0  0  0  0  0  0  0  0
  148.2935  131.1858  157.9277 C   0  0  0  0  0  0  0  0  0  0  0  0
  148.2765  130.0164  158.3166 O   0  0  0  0  0  0  0  0  0  0  0  0
  148.6524  131.4965  156.5023 C   0  0  0  0  0  0  0  0  0  0  0  0
  147.9930  130.8294  155.4466 C   0  0  0  0  0  0  0  0  0  0  0  0
  148.3332  131.1077  154.1087 C   0  0  0  0  0  0  0  0  0  0  0  0
  149.3477  132.0395  153.8185 C   0  0  0  0  0  0  0  0  0  0  0  0
  150.0287  132.6869  154.8669 C   0  0  0  0  0  0  0  0  0  0  0  0
  149.6879  132.4109  156.2050 C   0  0  0  0  0  0  0  0  0  0  0  0
  146.1197  133.5616  158.0852 N   0  0  0  0  0  0  0  0  0  0  0  0
  145.6559  134.6968  157.5532 C   0  0  0  0  0  0  0  0  0  0  0  0
  146.3357  135.7852  157.1828 N   0  0  0  0  0  0  0  0  0  0  0  0
  147.6739  135.6375  157.4050 C   0  0  0  0  0  0  0  0  0  0  0  0
  147.9790  138.9468  157.6023 C   0  0  1  0  0  0  0  0  0  0  0  0
  147.8356  138.4506  158.9222 O   0  0  0  0  0  0  0  0  0  0  0  0
  149.0611  140.0175  157.5649 C   0  0  2  0  0  0  0  0  0  0  0  0
  148.7353  140.9488  156.6659 F   0  0  0  0  0  0  0  0  0  0  0  0
  151.8248  142.6668  159.1397 C   0  0  0  0  0  0  0  0  0  0  0  0
  151.4932  143.7792  158.3316 C   0  0  0  0  0  0  0  0  0  0  0  0
  151.4904  145.0809  158.8693 C   0  0  0  0  0  0  0  0  0  0  0  0
  151.8195  145.2864  160.2218 C   0  0  0  0  0  0  0  0  0  0  0  0
  152.1520  144.1882  161.0360 C   0  0  0  0  0  0  0  0  0  0  0  0
  152.1549  142.8854  160.5004 C   0  0  0  0  0  0  0  0  0  0  0  0
  151.2113  140.3038  155.4666 H   0  0  0  0  0  0  0  0  0  0  0  0
  152.3684  139.5541  156.5656 H   0  0  0  0  0  0  0  0  0  0  0  0
  150.6649  138.6453  157.9415 H   0  0  0  0  0  0  0  0  0  0  0  0
  147.8176  137.7554  155.7265 H   0  0  0  0  0  0  0  0  0  0  0  0
  150.8191  136.3532  157.4606 H   0  0  0  0  0  0  0  0  0  0  0  0
  148.7276  134.4133  161.7363 H   0  0  0  0  0  0  0  0  0  0  0  0
  147.3042  135.8693  163.1500 H   0  0  0  0  0  0  0  0  0  0  0  0
  144.8782  135.3795  163.4039 H   0  0  0  0  0  0  0  0  0  0  0  0
  143.8813  133.4091  162.2575 H   0  0  0  0  0  0  0  0  0  0  0  0
  145.2947  131.9432  160.8453 H   0  0  0  0  0  0  0  0  0  0  0  0
  147.2121  130.1129  155.6578 H   0  0  0  0  0  0  0  0  0  0  0  0
  147.8151  130.6055  153.3050 H   0  0  0  0  0  0  0  0  0  0  0  0
  149.6079  132.2530  152.7921 H   0  0  0  0  0  0  0  0  0  0  0  0
  150.8137  133.3948  154.6457 H   0  0  0  0  0  0  0  0  0  0  0  0
  150.2202  132.9107  157.0016 H   0  0  0  0  0  0  0  0  0  0  0  0
  144.5871  134.7399  157.4046 H   0  0  0  0  0  0  0  0  0  0  0  0
  147.0162  139.3402  157.2741 H   0  0  0  0  0  0  0  0  0  0  0  0
  147.5268  137.5585  158.8731 H   0  0  0  0  0  0  0  0  0  0  0  0
  149.2098  140.5286  158.5171 H   0  0  0  0  0  0  0  0  0  0  0  0
  151.2377  143.6463  157.2901 H   0  0  0  0  0  0  0  0  0  0  0  0
  151.2354  145.9225  158.2423 H   0  0  0  0  0  0  0  0  0  0  0  0
  151.8174  146.2847  160.6339 H   0  0  0  0  0  0  0  0  0  0  0  0
  152.4055  144.3445  162.0741 H   0  0  0  0  0  0  0  0  0  0  0  0
  152.4151  142.0652  161.1534 H   0  0  0  0  0  0  0  0  0  0  0  0
  1  2  2  0  0  0  0
  2  3  1  0  0  0  0
  2 38  1  0  0  0  0
  3  4  1  0  0  0  0
  4  5  1  0  0  0  0
  4 44  1  0  0  0  0
  4 45  1  0  0  0  0
  5 36  1  0  0  0  0
  5  6  1  0  0  0  0
  5 46  1  0  0  0  0
  6  7  1  0  0  0  0
  7  8  1  0  0  0  0
  7 34  1  0  0  0  0
  7 47  1  0  0  0  0
  8 33  1  0  0  0  0
  8  9  1  0  0  0  0
  9 10  2  0  0  0  0
  9 48  1  0  0  0  0
 10 11  1  0  0  0  0
 11 33  2  0  0  0  0
 11 12  1  0  0  0  0
 12 13  1  0  0  0  0
 12 30  2  0  0  0  0
 13 14  1  0  0  0  0
 13 22  1  0  0  0  0
 14 15  2  0  0  0  0
 14 16  1  0  0  0  0
 16 21  1  0  0  0  0
 16 17  2  0  0  0  0
 17 18  1  0  0  0  0
 17 49  1  0  0  0  0
 18 19  2  0  0  0  0
 18 50  1  0  0  0  0
 19 20  1  0  0  0  0
 19 51  1  0  0  0  0
 20 21  2  0  0  0  0
 20 52  1  0  0  0  0
 21 53  1  0  0  0  0
 22 23  2  0  0  0  0
 22 24  1  0  0  0  0
 24 29  1  0  0  0  0
 24 25  2  0  0  0  0
 25 26  1  0  0  0  0
 25 54  1  0  0  0  0
 26 27  2  0  0  0  0
 26 55  1  0  0  0  0
 27 28  1  0  0  0  0
 27 56  1  0  0  0  0
 28 29  2  0  0  0  0
 28 57  1  0  0  0  0
 29 58  1  0  0  0  0
 30 31  1  0  0  0  0
 31 32  2  0  0  0  0
 31 59  1  0  0  0  0
 32 33  1  0  0  0  0
 34 35  1  0  0  0  0
 34 36  1  0  0  0  0
 34 60  1  0  0  0  0
 35 61  1  0  0  0  0
 36 37  1  0  0  0  0
 36 62  1  0  0  0  0
 38 43  1  0  0  0  0
 38 39  2  0  0  0  0
 39 40  1  0  0  0  0
 39 63  1  0  0  0  0
 40 41  2  0  0  0  0
 40 64  1  0  0  0  0
 41 42  1  0  0  0  0
 41 65  1  0  0  0  0
 42 43  2  0  0  0  0
 42 66  1  0  0  0  0
 43 67  1  0  0  0  0
M  END
> <s_m_source_file>
AV-unprocessed.smi

> <i_m_source_file_index>
33

> <i_lp_mmshare_version>
43012

> <i_f3d_flags>
0

> <s_epik_input>
W2NIXTFbY0hdW2NIXVtjSF1bY0hdYzFDKD1PKU9bQ0gyXVtDQEBIXTJPW0NASF0oW0NAQEhdKFtPSF0pW0NAQEhdMkYpbihbY0hdbjMpYyhjMzQpbltjSF1uYzROKEMoPU8pYzVbY0hdW2NIXVtjSF1bY0hdW2NIXTUpQyg9TyljNltjSF1bY0hdW2NIXVtjSF1bY0hdNg==

> <s_epik_cmdline>
J2VwaWtfcHl0aG9uJywgJy1waCcsICc3LjAnLCAnLXRuJywgJzgnLCAnLW1hJywgJzIwMCcsICctbWV0YWxfYmluZGluZycsICctaW1hZScsICc8aW5maWxlLm1hZT4nLCAnLW9tYWUnLCAnPG91dGZpbGUubWFlPic=

> <r_lp_tautomer_probability>
1

> <r_epik_Ionization_Penalty>
0.00067664

> <r_epik_Ionization_Penalty_Charging>
0

> <r_epik_Ionization_Penalty_Neutral>
0.00067664

> <r_epik_State_Penalty>
0.000428095

> <r_epik_Charging_Adjusted_Penalty>
0.000428095

> <i_epik_Tot_Q>
0

> <i_epik_Tot_abs_Q>
0

> <r_epik_Metal_State_Penalty>
-0

> <b_epik_Metal_Only>
0

> <s_epik_Chemistry_Notes>
This compound has an ester and may undergo hydrolysis at high or low pH. This compound contains an acetal/aminal-like group ( X-CH(R)-Y where X, Y are N, S, or O) that may be acid/base labile, releasing an aldehyde.

> <s_lp_Force_Field>
OPLS_2005

> <r_lp_Energy>
71.8737

> <b_lp_Chiralities_Consistent>
1

> <s_lp_Variant>
AV-unprocessed.smi:33-1

> <Gold.Version>
5.8.1

> <Gold.Id.Protein>
6NUR|6NUR_protein|mol2

> <Gold.PLP.Fitness>
55.8617

> <Gold.PLP.PLP>
-58.5433

> <Gold.PLP.part.hbond>
-2.0000

> <Gold.PLP.part.metal>
0.0000

> <Gold.PLP.part.buried>
-7.9851

> <Gold.PLP.part.nonpolar>
-49.0813

> <Gold.PLP.part.repulsive>
0.0275

> <Gold.PLP.ligand.clash>
0.0000

> <Gold.PLP.ligand.torsion>
5.1172

> <Gold.PLP.Chemscore.Hbond>
1.0981

> <Gold.PLP.Chemscore.CHOScore>
0.0000

> <Gold.PLP.Chemscore.Metal>
0.0000

> <Gold.Chemscore.Hbonds>
donor molecule, donor type, donor heavy atom, donor atom, acceptor molecule, acceptor atom, score
      P1  H  6896  6908       L1    10  1.00
      P1  H  6934  6947       L1    35  0.11

> <Gold.PLP.Chemscore.Internal.Correction>
4.2585

> <Gold.Rescore>
     Score         DG    S(hbond)    S(metal)    S(lipo)     H(rot)  DE(clash)    DE(int)     intcor
     11.24     -20.22       0.97        0.00     153.54       2.52       0.05       8.93       ----

> <Gold.Chemscore.Fitness>
11.2435

> <Gold.Chemscore.DG>
-20.2187

> <Gold.Chemscore.ZeroCoef>
-5.4800

> <Gold.Chemscore.Hbond>
0.9694

> <Gold.Chemscore.Metal>
0.0000

> <Gold.Chemscore.Lipo>
153.5384

> <Gold.Chemscore.Internal_Hbond>
0.0000

> <Gold.Chemscore.DEClash>
0.0469

> <Gold.Chemscore.DEInternal>
8.9283

> <Gold.Chemscore.Rot>
2.5247

> <Gold.Chemscore.Internal.Correction>
   9.000000E+99

> <Gold.Chemscore.Hbonds>
donor molecule, donor type, donor heavy atom, donor atom, acceptor molecule, acceptor atom, score
      P1  H  6896  6908       L1    10  0.93
      P1  H  6934  6947       L1    35  0.04

> <Gold.Chemscore.Hbond.Weighted>
-3.2379

> <Gold.Chemscore.Metal.Weighted>
-0.0000

> <Gold.Chemscore.Lipo.Weighted>
-17.9640

> <Gold.Chemscore.Internal_Hbond.Weighted>
0.0000

> <Gold.Chemscore.DEClash.Weighted>
0.0469

> <Gold.Chemscore.DEInternal.Weighted>
8.9283

> <Gold.Chemscore.Rot.Weighted>
6.4633

> <Gold.Chemscore.Internal.Correction.Weighted>
   9.000000E+99

> <Gold.Protein.RotatedTorsions>
[ 6907 6896 6895 6894 ] final  135.23 input  -60.11 | X-H torsion
[ 7974 7965 7964 7962 ] final   57.08 input  175.53 | X-H torsion
[ 8008 7997 7996 7995 ] final -171.46 input   59.86 | X-H torsion
[ 10167 10162 10161 10158 ] final  170.03 input  -65.29 | X-H torsion
[ 10718 10713 10712 10709 ] final  115.72 input   66.30 | X-H torsion
[ 10763 10752 10751 10750 ] final  153.56 input  -60.55 | X-H torsion
[ 11005 11000 10999 10996 ] final -100.18 input  -57.11 | X-H torsion

> <Gold.Protein.ActiveResidues>
 VAL166  LYS551  ARG553  GLY616  TRP617  ASP618  TYR619  PRO620  LYS621  CYS622 
 ASP623  PHE694  ASN695  SER759  ASP760  ASP761  ALA762  ILE779  LEU786  VAL792 
 PHE793  MET794  SER795  GLU796  ALA797  LYS798  CYS799  TRP800  GLU811  SER814 

> <Gold.Protein.RotatedAtoms>
  152.3027  133.5671  159.5628 H   0  0  0  0  0  0  0  0  0  0  0  0  # atno 6907 bound_to 6896
  150.7285  134.0268  159.3729 H   0  0  0  0  0  0  0  0  0  0  0  0  # atno 6908 bound_to 6896
  151.8167  135.0664  160.0471 H   0  0  0  0  0  0  0  0  0  0  0  0  # atno 6909 bound_to 6896
  145.9329  139.3822  143.0410 H   0  0  0  0  0  0  0  0  0  0  0  0  # atno 7974 bound_to 7965
  155.9318  140.1092  157.1126 H   0  0  0  0  0  0  0  0  0  0  0  0  # atno 8008 bound_to 7997
  154.4072  140.1236  156.4878 H   0  0  0  0  0  0  0  0  0  0  0  0  # atno 8009 bound_to 7997
  155.7070  140.3471  155.4959 H   0  0  0  0  0  0  0  0  0  0  0  0  # atno 8010 bound_to 7997
  139.5008  144.3641  151.9794 H   0  0  0  0  0  0  0  0  0  0  0  0  # atno 10167 bound_to 10162
  157.6205  131.1016  150.7369 H   0  0  0  0  0  0  0  0  0  0  0  0  # atno 10718 bound_to 10713
  154.1382  135.2822  155.3167 H   0  0  0  0  0  0  0  0  0  0  0  0  # atno 10763 bound_to 10752
  154.6306  135.5436  153.7679 H   0  0  0  0  0  0  0  0  0  0  0  0  # atno 10764 bound_to 10752
  153.0259  135.6461  154.1530 H   0  0  0  0  0  0  0  0  0  0  0  0  # atno 10765 bound_to 10752
  141.1281  133.8378  157.1068 H   0  0  0  0  0  0  0  0  0  0  0  0  # atno 11005 bound_to 11000
  145.8402  140.9584  143.0803 LP  0  0  0  0  0  0  0  0  0  0  0  0  # atno 17320 bound_to 7965
  144.6767  140.0275  143.7483 LP  0  0  0  0  0  0  0  0  0  0  0  0  # atno 17321 bound_to 7965
  140.3077  144.3574  150.6042 LP  0  0  0  0  0  0  0  0  0  0  0  0  # atno 17342 bound_to 10162
  140.5824  143.2172  151.7405 LP  0  0  0  0  0  0  0  0  0  0  0  0  # atno 17343 bound_to 10162
  156.7728  130.4834  149.5415 LP  0  0  0  0  0  0  0  0  0  0  0  0  # atno 17370 bound_to 10713
  156.1348  130.6203  151.0384 LP  0  0  0  0  0  0  0  0  0  0  0  0  # atno 17371 bound_to 10713
  140.0299  134.9906  157.0760 LP  0  0  0  0  0  0  0  0  0  0  0  0  # atno 17394 bound_to 11000
  140.4302  134.1789  155.7168 LP  0  0  0  0  0  0  0  0  0  0  0  0  # atno 17395 bound_to 11000

$$$$
