AV-unprocessed.smi:243|AV-procd|sdf|1852|dock6
  -GOLD-   2262020473D 1   1.00000     0.00000
 Structure written by MMmdl.
 58 61  0  0  0  0  0  0  0  0  2 V2000
  152.0576  145.1922  159.0738 C   0  0  0  0  0  0  0  0  0  0  0  0
  152.6890  143.7896  159.0303 C   0  0  0  0  0  0  0  0  0  0  0  0
  151.8024  142.7359  158.4728 N   0  3  2  0  0  0  0  0  0  0  0  0
  150.3704  142.8973  158.8283 C   0  0  0  0  0  0  0  0  0  0  0  0
  149.5018  141.9473  157.9917 C   0  0  0  0  0  0  0  0  0  0  0  0
  149.9687  140.4834  158.1720 C   0  0  1  0  0  0  0  0  0  0  0  0
  149.1081  139.4633  157.5509 N   0  0  0  0  0  0  0  0  0  0  0  0
  147.9308  139.8819  156.7984 C   0  0  0  0  0  0  0  0  0  0  0  0
  149.2171  138.1301  157.7927 C   0  0  0  0  0  0  0  0  0  0  0  0
  149.0353  137.6535  159.0510 N   0  0  0  0  0  0  0  0  0  0  0  0
  149.1261  136.3446  159.3019 C   0  0  0  0  0  0  0  0  0  0  0  0
  149.3871  135.3499  158.4531 N   0  0  0  0  0  0  0  0  0  0  0  0
  149.5711  135.8179  157.1858 C   0  0  0  0  0  0  0  0  0  0  0  0
  149.4974  137.1781  156.7706 C   0  0  0  0  0  0  0  0  0  0  0  0
  149.7427  137.2663  155.4051 N   0  0  0  0  0  0  0  0  0  0  0  0
  149.9453  136.0317  155.0350 C   0  0  0  0  0  0  0  0  0  0  0  0
  149.8728  135.0977  156.0433 N   0  0  0  0  0  0  0  0  0  0  0  0
  150.0704  133.6619  155.9181 C   0  0  0  0  0  0  0  0  0  0  0  0
  149.1867  133.0142  154.8260 C   0  0  2  0  0  0  0  0  0  0  0  0
  149.0911  131.6222  155.0728 O   0  0  0  0  0  0  0  0  0  0  0  0
  149.7019  133.2176  153.4032 C   0  0  0  0  0  0  0  0  0  0  0  0
  148.4210  133.2883  152.5839 C   0  0  0  0  0  0  0  0  0  0  0  0
  147.5593  134.0318  153.4279 O   0  0  0  0  0  0  0  0  0  0  0  0
  147.7609  133.5986  154.7691 C   0  0  0  0  0  0  0  0  0  0  0  0
  151.4849  140.3267  157.8698 C   0  0  1  0  0  0  0  0  0  0  0  0
  151.8668  140.4026  156.3805 C   0  0  0  0  0  0  0  0  0  0  0  0
  152.2872  141.3501  158.7022 C   0  0  0  0  0  0  0  0  0  0  0  0
  152.7629  145.9113  159.4907 H   0  0  0  0  0  0  0  0  0  0  0  0
  151.1654  145.2179  159.6991 H   0  0  0  0  0  0  0  0  0  0  0  0
  151.7868  145.5480  158.0800 H   0  0  0  0  0  0  0  0  0  0  0  0
  153.6053  143.8223  158.4398 H   0  0  0  0  0  0  0  0  0  0  0  0
  152.9909  143.4960  160.0362 H   0  0  0  0  0  0  0  0  0  0  0  0
  150.2214  142.6978  159.8900 H   0  0  0  0  0  0  0  0  0  0  0  0
  150.0596  143.9273  158.6491 H   0  0  0  0  0  0  0  0  0  0  0  0
  148.4576  142.0477  158.2904 H   0  0  0  0  0  0  0  0  0  0  0  0
  149.5603  142.2643  156.9519 H   0  0  0  0  0  0  0  0  0  0  0  0
  149.8608  140.2847  159.2396 H   0  0  0  0  0  0  0  0  0  0  0  0
  147.0502  139.3162  157.1051 H   0  0  0  0  0  0  0  0  0  0  0  0
  148.0844  139.7297  155.7304 H   0  0  0  0  0  0  0  0  0  0  0  0
  147.7167  140.9395  156.9488 H   0  0  0  0  0  0  0  0  0  0  0  0
  148.9675  136.0522  160.3293 H   0  0  0  0  0  0  0  0  0  0  0  0
  150.1640  135.7685  154.0103 H   0  0  0  0  0  0  0  0  0  0  0  0
  151.1253  133.4735  155.7137 H   0  0  0  0  0  0  0  0  0  0  0  0
  149.8616  133.2069  156.8873 H   0  0  0  0  0  0  0  0  0  0  0  0
  148.3899  131.4736  155.6884 H   0  0  0  0  0  0  0  0  0  0  0  0
  150.2190  134.1744  153.3221 H   0  0  0  0  0  0  0  0  0  0  0  0
  150.3880  132.4396  153.0654 H   0  0  0  0  0  0  0  0  0  0  0  0
  148.5616  133.7764  151.6194 H   0  0  0  0  0  0  0  0  0  0  0  0
  148.0059  132.2936  152.4138 H   0  0  0  0  0  0  0  0  0  0  0  0
  147.0024  132.8580  155.0291 H   0  0  0  0  0  0  0  0  0  0  0  0
  147.6310  134.4466  155.4421 H   0  0  0  0  0  0  0  0  0  0  0  0
  151.7971  139.3400  158.2120 H   0  0  0  0  0  0  0  0  0  0  0  0
  151.5521  141.3415  155.9253 H   0  0  0  0  0  0  0  0  0  0  0  0
  151.4181  139.5846  155.8175 H   0  0  0  0  0  0  0  0  0  0  0  0
  152.9459  140.3198  156.2492 H   0  0  0  0  0  0  0  0  0  0  0  0
  153.3476  141.2817  158.4552 H   0  0  0  0  0  0  0  0  0  0  0  0
  152.1980  141.1050  159.7612 H   0  0  0  0  0  0  0  0  0  0  0  0
  151.8433  142.8679  157.4721 H   0  0  0  0  0  0  0  0  0  0  0  0
  1  2  1  0  0  0  0
  1 28  1  0  0  0  0
  1 29  1  0  0  0  0
  1 30  1  0  0  0  0
  2  3  1  0  0  0  0
  2 31  1  0  0  0  0
  2 32  1  0  0  0  0
  3 27  1  0  0  0  0
  3  4  1  0  0  0  0
  3 58  1  0  0  0  0
  4  5  1  0  0  0  0
  4 33  1  0  0  0  0
  4 34  1  0  0  0  0
  5  6  1  0  0  0  0
  5 35  1  0  0  0  0
  5 36  1  0  0  0  0
  6  7  1  0  0  0  0
  6 25  1  0  0  0  0
  6 37  1  0  0  0  0
  7  8  1  0  0  0  0
  7  9  1  0  0  0  0
  8 38  1  0  0  0  0
  8 39  1  0  0  0  0
  8 40  1  0  0  0  0
  9 14  1  0  0  0  0
  9 10  2  0  0  0  0
 10 11  1  0  0  0  0
 11 12  2  0  0  0  0
 11 41  1  0  0  0  0
 12 13  1  0  0  0  0
 13 17  1  0  0  0  0
 13 14  2  0  0  0  0
 14 15  1  0  0  0  0
 15 16  2  0  0  0  0
 16 17  1  0  0  0  0
 16 42  1  0  0  0  0
 17 18  1  0  0  0  0
 18 19  1  0  0  0  0
 18 43  1  0  0  0  0
 18 44  1  0  0  0  0
 19 24  1  0  0  0  0
 19 20  1  0  0  0  0
 19 21  1  0  0  0  0
 20 45  1  0  0  0  0
 21 22  1  0  0  0  0
 21 46  1  0  0  0  0
 21 47  1  0  0  0  0
 22 23  1  0  0  0  0
 22 48  1  0  0  0  0
 22 49  1  0  0  0  0
 23 24  1  0  0  0  0
 24 50  1  0  0  0  0
 24 51  1  0  0  0  0
 25 26  1  0  0  0  0
 25 27  1  0  0  0  0
 25 52  1  0  0  0  0
 26 53  1  0  0  0  0
 26 54  1  0  0  0  0
 26 55  1  0  0  0  0
 27 56  1  0  0  0  0
 27 57  1  0  0  0  0
M  CHG  1   3   1
M  END
> <s_m_source_file>
AV-unprocessed.smi

> <i_m_source_file_index>
243

> <i_lp_mmshare_version>
43012

> <i_f3d_flags>
0

> <s_epik_input>
W0NIM11bQ0gyXU4xW0NIMl1bQ0gyXVtDQEhdKFtDQEBIXShbQ0gzXSlbQ0gyXTEpTihbQ0gzXSljKG5bY0hdbjIpYyhjMjMpbltjSF1uM1tDSDJdW0NAQF00KFtPSF0pW0NIMl1bQ0gyXU9bQ0gyXTQ=

> <s_epik_cmdline>
J2VwaWtfcHl0aG9uJywgJy1waCcsICc3LjAnLCAnLXRuJywgJzgnLCAnLW1hJywgJzIwMCcsICctbWV0YWxfYmluZGluZycsICctaW1hZScsICc8aW5maWxlLm1hZT4nLCAnLW9tYWUnLCAnPG91dGZpbGUubWFlPic=

> <r_lp_tautomer_probability>
1

> <r_epik_Ionization_Penalty>
0.00253099

> <r_epik_Ionization_Penalty_Charging>
0.00137877

> <r_epik_Ionization_Penalty_Neutral>
0.00115221

> <r_epik_State_Penalty>
-0

> <r_epik_Charging_Adjusted_Penalty>
0.00137877

> <i_epik_Tot_Q>
1

> <i_epik_Tot_abs_Q>
1

> <r_epik_Metal_State_Penalty>
-0

> <b_epik_Metal_Only>
0

> <s_lp_Force_Field>
OPLS_2005

> <r_lp_Energy>
49.3868

> <b_lp_Chiralities_Consistent>
1

> <s_lp_Variant>
AV-unprocessed.smi:243-5

> <Gold.Version>
5.8.1

> <Gold.Id.Protein>
6NUR|6NUR_protein|mol2

> <Gold.PLP.Fitness>
40.0899

> <Gold.PLP.PLP>
-37.7020

> <Gold.PLP.part.hbond>
-2.1332

> <Gold.PLP.part.metal>
0.0000

> <Gold.PLP.part.buried>
-6.0864

> <Gold.PLP.part.nonpolar>
-29.6790

> <Gold.PLP.part.repulsive>
0.2179

> <Gold.PLP.ligand.clash>
0.0000

> <Gold.PLP.ligand.torsion>
1.8345

> <Gold.PLP.Chemscore.Hbond>
1.0000

> <Gold.PLP.Chemscore.CHOScore>
0.9195

> <Gold.PLP.Chemscore.Metal>
0.0000

> <Gold.Chemscore.Hbonds>
donor molecule, donor type, donor heavy atom, donor atom, acceptor molecule, acceptor atom, score
      P1  H  6896  6909       L1    12  1.00
      L1  C    16    42       P1  7948  0.58
      L1  C    16    42       P1  7949  0.02

> <Gold.PLP.Chemscore.Internal.Correction>
0.2986

> <Gold.Rescore>
     Score         DG    S(hbond)    S(metal)    S(lipo)     H(rot)  DE(clash)    DE(int)     intcor
     11.05     -12.73       0.78        0.00      88.67       2.24       0.02       1.66       ----

> <Gold.Chemscore.Fitness>
11.0483

> <Gold.Chemscore.DG>
-12.7274

> <Gold.Chemscore.ZeroCoef>
-5.4800

> <Gold.Chemscore.Hbond>
0.7790

> <Gold.Chemscore.Metal>
0.0000

> <Gold.Chemscore.Lipo>
88.6733

> <Gold.Chemscore.Internal_Hbond>
0.0000

> <Gold.Chemscore.DEClash>
0.0153

> <Gold.Chemscore.DEInternal>
1.6639

> <Gold.Chemscore.Rot>
2.2379

> <Gold.Chemscore.Internal.Correction>
   9.000000E+99

> <Gold.Chemscore.Hbonds>
donor molecule, donor type, donor heavy atom, donor atom, acceptor molecule, acceptor atom, score
      P1  H  6896  6909       L1    12  0.34

> <Gold.Chemscore.Hbond.Weighted>
-2.6018

> <Gold.Chemscore.Metal.Weighted>
-0.0000

> <Gold.Chemscore.Lipo.Weighted>
-10.3748

> <Gold.Chemscore.Internal_Hbond.Weighted>
0.0000

> <Gold.Chemscore.DEClash.Weighted>
0.0153

> <Gold.Chemscore.DEInternal.Weighted>
1.6639

> <Gold.Chemscore.Rot.Weighted>
5.7291

> <Gold.Chemscore.Internal.Correction.Weighted>
   9.000000E+99

> <Gold.Protein.RotatedTorsions>
[ 6907 6896 6895 6894 ] final   31.39 input  -60.11 | X-H torsion
[ 7974 7965 7964 7962 ] final    2.55 input  175.53 | X-H torsion
[ 8008 7997 7996 7995 ] final  102.06 input   59.86 | X-H torsion
[ 10167 10162 10161 10158 ] final   43.22 input  -65.29 | X-H torsion
[ 10718 10713 10712 10709 ] final  123.66 input   66.30 | X-H torsion
[ 10763 10752 10751 10750 ] final  -12.67 input  -60.55 | X-H torsion
[ 11005 11000 10999 10996 ] final  -28.27 input  -57.11 | X-H torsion

> <Gold.Protein.ActiveResidues>
 VAL166  LYS551  ARG553  GLY616  TRP617  ASP618  TYR619  PRO620  LYS621  CYS622 
 ASP623  PHE694  ASN695  SER759  ASP760  ASP761  ALA762  ILE779  LEU786  VAL792 
 PHE793  MET794  SER795  GLU796  ALA797  LYS798  CYS799  TRP800  GLU811  SER814 

> <Gold.Protein.RotatedAtoms>
  152.0596  134.9602  160.0574 H   0  0  0  0  0  0  0  0  0  0  0  0  # atno 6907 bound_to 6896
  152.0971  133.4225  159.4578 H   0  0  0  0  0  0  0  0  0  0  0  0  # atno 6908 bound_to 6896
  150.6838  134.2723  159.4637 H   0  0  0  0  0  0  0  0  0  0  0  0  # atno 6909 bound_to 6896
  146.2444  140.0820  142.8356 H   0  0  0  0  0  0  0  0  0  0  0  0  # atno 7974 bound_to 7965
  156.1358  140.3187  155.8418 H   0  0  0  0  0  0  0  0  0  0  0  0  # atno 8008 bound_to 7997
  155.4247  140.0514  157.3040 H   0  0  0  0  0  0  0  0  0  0  0  0  # atno 8009 bound_to 7997
  154.4935  140.2102  155.9509 H   0  0  0  0  0  0  0  0  0  0  0  0  # atno 8010 bound_to 7997
  140.3465  144.2404  150.6150 H   0  0  0  0  0  0  0  0  0  0  0  0  # atno 10167 bound_to 10162
  157.5647  131.1087  150.8475 H   0  0  0  0  0  0  0  0  0  0  0  0  # atno 10718 bound_to 10713
  153.5018  135.7017  153.5827 H   0  0  0  0  0  0  0  0  0  0  0  0  # atno 10763 bound_to 10752
  153.3955  135.3885  155.1952 H   0  0  0  0  0  0  0  0  0  0  0  0  # atno 10764 bound_to 10752
  154.8710  135.3869  154.4490 H   0  0  0  0  0  0  0  0  0  0  0  0  # atno 10765 bound_to 10752
  140.9194  133.7409  156.0780 H   0  0  0  0  0  0  0  0  0  0  0  0  # atno 11005 bound_to 11000
  145.0725  140.9165  143.4873 LP  0  0  0  0  0  0  0  0  0  0  0  0  # atno 17320 bound_to 7965
  145.0956  139.2858  143.5712 LP  0  0  0  0  0  0  0  0  0  0  0  0  # atno 17321 bound_to 7965
  140.5259  143.2254  151.8315 LP  0  0  0  0  0  0  0  0  0  0  0  0  # atno 17342 bound_to 10162
  139.4832  144.4780  151.9343 LP  0  0  0  0  0  0  0  0  0  0  0  0  # atno 17343 bound_to 10162
  156.8963  130.5231  149.5284 LP  0  0  0  0  0  0  0  0  0  0  0  0  # atno 17370 bound_to 10713
  156.0696  130.5732  150.9358 LP  0  0  0  0  0  0  0  0  0  0  0  0  # atno 17371 bound_to 10713
  140.8008  134.3511  157.5440 LP  0  0  0  0  0  0  0  0  0  0  0  0  # atno 17394 bound_to 11000
  139.8772  134.9196  156.3231 LP  0  0  0  0  0  0  0  0  0  0  0  0  # atno 17395 bound_to 11000

$$$$
