AV-unprocessed.smi:201|AV-procd|sdf|1580|dock10
  -GOLD-   2262019473D 1   1.00000     0.00000
 Structure written by MMmdl.
 59 61  0  0  0  0  0  0  0  0  1 V2000
  146.7908  127.8105  151.1376 C   0  0  0  0  0  0  0  0  0  0  0  0
  147.7446  128.6854  151.9730 C   0  0  0  0  0  0  0  0  0  0  0  0
  148.8161  127.7746  152.6118 C   0  0  0  0  0  0  0  0  0  0  0  0
  147.0193  129.4875  152.9742 N   0  0  0  0  0  0  0  0  0  0  0  0
  145.8618  130.2942  152.5763 C   0  0  0  0  0  0  0  0  0  0  0  0
  146.0437  131.0076  151.2209 C   0  0  0  0  0  0  0  0  0  0  0  0
  144.8634  131.6980  150.8363 O   0  0  0  0  0  0  0  0  0  0  0  0
  144.5635  132.8332  151.6364 C   0  0  0  0  0  0  0  0  0  0  0  0
  144.2634  134.0227  150.7171 C   0  0  0  0  0  0  0  0  0  0  0  0
  144.0405  133.5705  149.3987 O   0  0  0  0  0  0  0  0  0  0  0  0
  147.7452  130.1065  153.9381 C   0  0  0  0  0  0  0  0  0  0  0  0
  147.9084  129.4432  155.1107 N   0  0  0  0  0  0  0  0  0  0  0  0
  148.6030  130.0006  156.1066 C   0  0  0  0  0  0  0  0  0  0  0  0
  149.1993  131.1938  156.1427 N   0  0  0  0  0  0  0  0  0  0  0  0
  149.0265  131.8702  154.9709 C   0  0  0  0  0  0  0  0  0  0  0  0
  148.3210  131.4055  153.8252 C   0  0  0  0  0  0  0  0  0  0  0  0
  148.3559  132.3725  152.8274 N   0  0  0  0  0  0  0  0  0  0  0  0
  149.0522  133.3452  153.3479 C   0  0  0  0  0  0  0  0  0  0  0  0
  149.4782  133.1364  154.6401 N   0  0  0  0  0  0  0  0  0  0  0  0
  150.2671  134.0458  155.4590 C   0  0  0  0  0  0  0  0  0  0  0  0
  149.4561  134.9624  156.4269 C   0  0  0  0  0  0  0  0  0  0  0  0
  148.3474  135.6607  155.5887 C   0  0  0  0  0  0  0  0  0  0  0  0
  148.8785  136.5268  154.6049 O   0  0  0  0  0  0  0  0  0  0  0  0
  148.8486  134.1476  157.5989 C   0  0  0  0  0  0  0  0  0  0  0  0
  148.2020  135.0439  158.6707 C   0  0  0  0  0  0  0  0  0  0  0  0
  149.1624  135.9647  159.1737 O   0  0  0  0  0  0  0  0  0  0  0  0
  149.6676  136.8439  158.1762 C   0  0  0  0  0  0  0  0  0  0  0  0
  150.3725  136.0372  157.0690 C   0  0  0  0  0  0  0  0  0  0  0  0
  147.3456  127.1843  150.4381 H   0  0  0  0  0  0  0  0  0  0  0  0
  146.1062  128.4116  150.5394 H   0  0  0  0  0  0  0  0  0  0  0  0
  146.1973  127.1514  151.7722 H   0  0  0  0  0  0  0  0  0  0  0  0
  148.2453  129.3658  151.2848 H   0  0  0  0  0  0  0  0  0  0  0  0
  149.3071  127.1604  151.8567 H   0  0  0  0  0  0  0  0  0  0  0  0
  148.3732  127.1011  153.3461 H   0  0  0  0  0  0  0  0  0  0  0  0
  149.6025  128.3393  153.1116 H   0  0  0  0  0  0  0  0  0  0  0  0
  144.9762  129.6609  152.5425 H   0  0  0  0  0  0  0  0  0  0  0  0
  145.6534  131.0260  153.3571 H   0  0  0  0  0  0  0  0  0  0  0  0
  146.8962  131.6880  151.2349 H   0  0  0  0  0  0  0  0  0  0  0  0
  146.2488  130.2706  150.4446 H   0  0  0  0  0  0  0  0  0  0  0  0
  143.7313  132.6516  152.3171 H   0  0  0  0  0  0  0  0  0  0  0  0
  145.4356  133.0687  152.2483 H   0  0  0  0  0  0  0  0  0  0  0  0
  143.3562  134.5276  151.0504 H   0  0  0  0  0  0  0  0  0  0  0  0
  145.0697  134.7564  150.7387 H   0  0  0  0  0  0  0  0  0  0  0  0
  144.8207  133.7359  148.8915 H   0  0  0  0  0  0  0  0  0  0  0  0
  148.6923  129.4060  157.0039 H   0  0  0  0  0  0  0  0  0  0  0  0
  149.2693  134.2521  152.8023 H   0  0  0  0  0  0  0  0  0  0  0  0
  150.9768  133.4442  156.0285 H   0  0  0  0  0  0  0  0  0  0  0  0
  150.8706  134.6516  154.7818 H   0  0  0  0  0  0  0  0  0  0  0  0
  147.7039  134.9463  155.0787 H   0  0  0  0  0  0  0  0  0  0  0  0
  147.6944  136.2450  156.2380 H   0  0  0  0  0  0  0  0  0  0  0  0
  149.1418  136.0089  153.8594 H   0  0  0  0  0  0  0  0  0  0  0  0
  148.1237  133.4208  157.2317 H   0  0  0  0  0  0  0  0  0  0  0  0
  149.6272  133.5691  158.0941 H   0  0  0  0  0  0  0  0  0  0  0  0
  147.3323  135.5750  158.2835 H   0  0  0  0  0  0  0  0  0  0  0  0
  147.8463  134.4301  159.4985 H   0  0  0  0  0  0  0  0  0  0  0  0
  148.8660  137.4668  157.7799 H   0  0  0  0  0  0  0  0  0  0  0  0
  150.3798  137.5234  158.6449 H   0  0  0  0  0  0  0  0  0  0  0  0
  151.2411  135.5673  157.5288 H   0  0  0  0  0  0  0  0  0  0  0  0
  150.7615  136.7111  156.3051 H   0  0  0  0  0  0  0  0  0  0  0  0
  1  2  1  0  0  0  0
  1 29  1  0  0  0  0
  1 30  1  0  0  0  0
  1 31  1  0  0  0  0
  2  3  1  0  0  0  0
  2  4  1  0  0  0  0
  2 32  1  0  0  0  0
  3 33  1  0  0  0  0
  3 34  1  0  0  0  0
  3 35  1  0  0  0  0
  4  5  1  0  0  0  0
  4 11  1  0  0  0  0
  5  6  1  0  0  0  0
  5 36  1  0  0  0  0
  5 37  1  0  0  0  0
  6  7  1  0  0  0  0
  6 38  1  0  0  0  0
  6 39  1  0  0  0  0
  7  8  1  0  0  0  0
  8  9  1  0  0  0  0
  8 40  1  0  0  0  0
  8 41  1  0  0  0  0
  9 10  1  0  0  0  0
  9 42  1  0  0  0  0
  9 43  1  0  0  0  0
 10 44  1  0  0  0  0
 11 16  1  0  0  0  0
 11 12  2  0  0  0  0
 12 13  1  0  0  0  0
 13 14  2  0  0  0  0
 13 45  1  0  0  0  0
 14 15  1  0  0  0  0
 15 19  1  0  0  0  0
 15 16  2  0  0  0  0
 16 17  1  0  0  0  0
 17 18  2  0  0  0  0
 18 19  1  0  0  0  0
 18 46  1  0  0  0  0
 19 20  1  0  0  0  0
 20 21  1  0  0  0  0
 20 47  1  0  0  0  0
 20 48  1  0  0  0  0
 21 28  1  0  0  0  0
 21 22  1  0  0  0  0
 21 24  1  0  0  0  0
 22 23  1  0  0  0  0
 22 49  1  0  0  0  0
 22 50  1  0  0  0  0
 23 51  1  0  0  0  0
 24 25  1  0  0  0  0
 24 52  1  0  0  0  0
 24 53  1  0  0  0  0
 25 26  1  0  0  0  0
 25 54  1  0  0  0  0
 25 55  1  0  0  0  0
 26 27  1  0  0  0  0
 27 28  1  0  0  0  0
 27 56  1  0  0  0  0
 27 57  1  0  0  0  0
 28 58  1  0  0  0  0
 28 59  1  0  0  0  0
M  END
> <s_m_source_file>
AV-unprocessed.smi

> <i_m_source_file_index>
201

> <i_lp_mmshare_version>
43012

> <i_f3d_flags>
0

> <s_epik_input>
W09IXVtDSDJdW0NIMl1PW0NIMl1bQ0gyXU4oW0NIXShbQ0gzXSlbQ0gzXSljKG5bY0hdbjEpYyhjMTIpbltjSF1uMltDSDJdQzMoW0NIMl1bT0hdKVtDSDJdW0NIMl1PW0NIMl1bQ0gyXTM=

> <s_epik_cmdline>
J2VwaWtfcHl0aG9uJywgJy1waCcsICc3LjAnLCAnLXRuJywgJzgnLCAnLW1hJywgJzIwMCcsICctbWV0YWxfYmluZGluZycsICctaW1hZScsICc8aW5maWxlLm1hZT4nLCAnLW9tYWUnLCAnPG91dGZpbGUubWFlPic=

> <r_lp_tautomer_probability>
1

> <r_epik_Ionization_Penalty>
0.00276835

> <r_epik_Ionization_Penalty_Charging>
0

> <r_epik_Ionization_Penalty_Neutral>
0.00276835

> <r_epik_State_Penalty>
0.00179834

> <r_epik_Charging_Adjusted_Penalty>
0.00179834

> <i_epik_Tot_Q>
0

> <i_epik_Tot_abs_Q>
0

> <r_epik_Metal_State_Penalty>
-0

> <b_epik_Metal_Only>
0

> <s_lp_Force_Field>
OPLS_2005

> <r_lp_Energy>
32.5455

> <b_lp_Chiralities_Consistent>
1

> <s_lp_Variant>
AV-unprocessed.smi:201-1

> <Gold.Version>
5.8.1

> <Gold.Id.Protein>
6NUR|6NUR_protein|mol2

> <Gold.PLP.Fitness>
40.6649

> <Gold.PLP.PLP>
-35.6125

> <Gold.PLP.part.hbond>
-3.2822

> <Gold.PLP.part.metal>
0.0000

> <Gold.PLP.part.buried>
-3.7664

> <Gold.PLP.part.nonpolar>
-29.4885

> <Gold.PLP.part.repulsive>
1.1877

> <Gold.PLP.ligand.clash>
0.0000

> <Gold.PLP.ligand.torsion>
2.0352

> <Gold.PLP.Chemscore.Hbond>
2.6503

> <Gold.PLP.Chemscore.CHOScore>
0.0000

> <Gold.PLP.Chemscore.Metal>
0.0000

> <Gold.Chemscore.Hbonds>
donor molecule, donor type, donor heavy atom, donor atom, acceptor molecule, acceptor atom, score
      L1  H    10    44       P1  7921  0.81
      L1  H    23    51       P1  7948  0.70
      P1  H  6896  6908       L1    26  0.78

> <Gold.PLP.Chemscore.Internal.Correction>
1.1721

> <Gold.Rescore>
     Score         DG    S(hbond)    S(metal)    S(lipo)     H(rot)  DE(clash)    DE(int)     intcor
      7.89     -10.06       2.11        0.00      81.29       4.68       0.20       1.97       ----

> <Gold.Chemscore.Fitness>
7.8940

> <Gold.Chemscore.DG>
-10.0607

> <Gold.Chemscore.ZeroCoef>
-5.4800

> <Gold.Chemscore.Hbond>
2.1087

> <Gold.Chemscore.Metal>
0.0000

> <Gold.Chemscore.Lipo>
81.2905

> <Gold.Chemscore.Internal_Hbond>
0.0000

> <Gold.Chemscore.DEClash>
0.1964

> <Gold.Chemscore.DEInternal>
1.9703

> <Gold.Chemscore.Rot>
4.6771

> <Gold.Chemscore.Internal.Correction>
   9.000000E+99

> <Gold.Chemscore.Hbonds>
donor molecule, donor type, donor heavy atom, donor atom, acceptor molecule, acceptor atom, score
      L1  H    10    44       P1  7921  0.77
      L1  H    23    51       P1  7948  0.61
      P1  H  6896  6908       L1    26  0.17

> <Gold.Chemscore.Hbond.Weighted>
-7.0431

> <Gold.Chemscore.Metal.Weighted>
-0.0000

> <Gold.Chemscore.Lipo.Weighted>
-9.5110

> <Gold.Chemscore.Internal_Hbond.Weighted>
0.0000

> <Gold.Chemscore.DEClash.Weighted>
0.1964

> <Gold.Chemscore.DEInternal.Weighted>
1.9703

> <Gold.Chemscore.Rot.Weighted>
11.9733

> <Gold.Chemscore.Internal.Correction.Weighted>
   9.000000E+99

> <Gold.Protein.RotatedTorsions>
[ 6907 6896 6895 6894 ] final -160.57 input  -60.11 | X-H torsion
[ 7974 7965 7964 7962 ] final   24.49 input  175.53 | X-H torsion
[ 8008 7997 7996 7995 ] final -161.85 input   59.86 | X-H torsion
[ 10167 10162 10161 10158 ] final   28.10 input  -65.29 | X-H torsion
[ 10718 10713 10712 10709 ] final -128.74 input   66.30 | X-H torsion
[ 10763 10752 10751 10750 ] final   57.93 input  -60.55 | X-H torsion
[ 11005 11000 10999 10996 ] final  138.54 input  -57.11 | X-H torsion

> <Gold.Protein.ActiveResidues>
 VAL166  LYS551  ARG553  GLY616  TRP617  ASP618  TYR619  PRO620  LYS621  CYS622 
 ASP623  PHE694  ASN695  SER759  ASP760  ASP761  ALA762  ILE779  LEU786  VAL792 
 PHE793  MET794  SER795  GLU796  ALA797  LYS798  CYS799  TRP800  GLU811  SER814 

> <Gold.Protein.RotatedAtoms>
  151.3512  133.3925  159.2680 H   0  0  0  0  0  0  0  0  0  0  0  0  # atno 6907 bound_to 6896
  150.9800  134.9158  159.7849 H   0  0  0  0  0  0  0  0  0  0  0  0  # atno 6908 bound_to 6896
  152.5214  134.3475  159.9291 H   0  0  0  0  0  0  0  0  0  0  0  0  # atno 6909 bound_to 6896
  146.1935  139.7597  142.8815 H   0  0  0  0  0  0  0  0  0  0  0  0  # atno 7974 bound_to 7965
  155.7982  140.0888  157.1971 H   0  0  0  0  0  0  0  0  0  0  0  0  # atno 8008 bound_to 7997
  154.3983  140.1477  156.3302 H   0  0  0  0  0  0  0  0  0  0  0  0  # atno 8009 bound_to 7997
  155.8489  140.3435  155.5683 H   0  0  0  0  0  0  0  0  0  0  0  0  # atno 8010 bound_to 7997
  140.4882  144.0509  150.6288 H   0  0  0  0  0  0  0  0  0  0  0  0  # atno 10167 bound_to 10162
  156.1979  130.6838  151.0504 H   0  0  0  0  0  0  0  0  0  0  0  0  # atno 10718 bound_to 10713
  152.9860  135.5624  154.5471 H   0  0  0  0  0  0  0  0  0  0  0  0  # atno 10763 bound_to 10752
  154.4915  135.2793  155.1495 H   0  0  0  0  0  0  0  0  0  0  0  0  # atno 10764 bound_to 10752
  154.2962  135.6316  153.5459 H   0  0  0  0  0  0  0  0  0  0  0  0  # atno 10765 bound_to 10752
  140.0191  134.9405  157.0437 H   0  0  0  0  0  0  0  0  0  0  0  0  # atno 11005 bound_to 11000
  145.3719  141.0344  143.3226 LP  0  0  0  0  0  0  0  0  0  0  0  0  # atno 17320 bound_to 7965
  144.8533  139.5289  143.6846 LP  0  0  0  0  0  0  0  0  0  0  0  0  # atno 17321 bound_to 7965
  140.3771  143.2823  152.0213 LP  0  0  0  0  0  0  0  0  0  0  0  0  # atno 17342 bound_to 10162
  139.4846  144.6184  151.7301 LP  0  0  0  0  0  0  0  0  0  0  0  0  # atno 17343 bound_to 10162
  157.6968  131.0791  150.6942 LP  0  0  0  0  0  0  0  0  0  0  0  0  # atno 17370 bound_to 10713
  156.7000  130.4620  149.5576 LP  0  0  0  0  0  0  0  0  0  0  0  0  # atno 17371 bound_to 10713
  140.4419  134.1672  155.7174 LP  0  0  0  0  0  0  0  0  0  0  0  0  # atno 17394 bound_to 11000
  141.1762  133.8509  157.1413 LP  0  0  0  0  0  0  0  0  0  0  0  0  # atno 17395 bound_to 11000

$$$$
