AV-unprocessed.smi:322|AV-procd|sdf|2335|dock6
  -GOLD-   2262022243D 1   1.00000     0.00000
 Structure written by MMmdl.
 43 45  0  0  0  0  0  0  0  0  1 V2000
  152.5858  139.3747  156.2725 O   0  0  0  0  0  0  0  0  0  0  0  0
  152.0035  139.4247  157.5594 C   0  0  0  0  0  0  0  0  0  0  0  0
  151.9846  140.7986  158.1681 C   0  0  0  0  0  0  0  0  0  0  0  0
  152.4905  141.0673  159.3741 N   0  0  0  0  0  0  0  0  0  0  0  0
  152.2413  142.4177  159.5178 C   0  0  0  0  0  0  0  0  0  0  0  0
  152.5358  143.2971  160.5839 C   0  0  0  0  0  0  0  0  0  0  0  0
  152.1776  144.6589  160.5055 C   0  0  0  0  0  0  0  0  0  0  0  0
  151.5223  145.1597  159.3620 C   0  0  0  0  0  0  0  0  0  0  0  0
  151.2197  144.3002  158.2884 C   0  0  0  0  0  0  0  0  0  0  0  0
  151.5781  142.9411  158.3721 C   0  0  0  0  0  0  0  0  0  0  0  0
  151.4307  141.8528  157.5171 N   0  0  0  0  0  0  0  0  0  0  0  0
  150.7999  141.8634  156.2034 C   0  0  0  0  0  0  0  0  0  0  0  0
  149.2602  141.9140  156.2779 C   0  0  2  0  0  0  0  0  0  0  0  0
  148.8322  141.2427  157.4467 O   0  0  0  0  0  0  0  0  0  0  0  0
  148.6083  141.2363  155.0624 C   0  0  0  0  0  0  0  0  0  0  0  0
  147.2082  141.4737  155.0965 O   0  0  0  0  0  0  0  0  0  0  0  0
  146.6980  142.0779  153.9160 C   0  0  0  0  0  0  0  0  0  0  0  0
  145.7059  143.1957  154.1905 C   0  0  0  0  0  0  0  0  0  0  0  0
  145.4866  144.2028  153.2268 C   0  0  0  0  0  0  0  0  0  0  0  0
  144.5561  145.2304  153.4754 C   0  0  0  0  0  0  0  0  0  0  0  0
  143.8361  145.2517  154.6859 C   0  0  0  0  0  0  0  0  0  0  0  0
  142.6941  146.5088  154.9897 Cl  0  0  0  0  0  0  0  0  0  0  0  0
  144.0469  144.2437  155.6471 C   0  0  0  0  0  0  0  0  0  0  0  0
  144.9780  143.2163  155.3987 C   0  0  0  0  0  0  0  0  0  0  0  0
  151.9382  139.0592  155.6613 H   0  0  0  0  0  0  0  0  0  0  0  0
  150.9846  139.0458  157.4847 H   0  0  0  0  0  0  0  0  0  0  0  0
  152.5553  138.7534  158.2178 H   0  0  0  0  0  0  0  0  0  0  0  0
  153.0374  142.9227  161.4639 H   0  0  0  0  0  0  0  0  0  0  0  0
  152.4066  145.3225  161.3264 H   0  0  0  0  0  0  0  0  0  0  0  0
  151.2520  146.2042  159.3094 H   0  0  0  0  0  0  0  0  0  0  0  0
  150.7201  144.6819  157.4102 H   0  0  0  0  0  0  0  0  0  0  0  0
  151.1806  142.7166  155.6415 H   0  0  0  0  0  0  0  0  0  0  0  0
  151.1225  140.9774  155.6551 H   0  0  0  0  0  0  0  0  0  0  0  0
  148.9354  142.9533  156.3313 H   0  0  0  0  0  0  0  0  0  0  0  0
  149.0345  141.7842  158.1944 H   0  0  0  0  0  0  0  0  0  0  0  0
  149.0025  141.6738  154.1439 H   0  0  0  0  0  0  0  0  0  0  0  0
  148.8431  140.1708  155.0371 H   0  0  0  0  0  0  0  0  0  0  0  0
  147.5384  142.5064  153.3698 H   0  0  0  0  0  0  0  0  0  0  0  0
  146.2588  141.3214  153.2635 H   0  0  0  0  0  0  0  0  0  0  0  0
  146.0339  144.1902  152.2954 H   0  0  0  0  0  0  0  0  0  0  0  0
  144.3943  146.0006  152.7356 H   0  0  0  0  0  0  0  0  0  0  0  0
  143.4939  144.2560  156.5748 H   0  0  0  0  0  0  0  0  0  0  0  0
  145.1311  142.4454  156.1397 H   0  0  0  0  0  0  0  0  0  0  0  0
  1  2  1  0  0  0  0
  1 25  1  0  0  0  0
  2  3  1  0  0  0  0
  2 26  1  0  0  0  0
  2 27  1  0  0  0  0
  3 11  1  0  0  0  0
  3  4  2  0  0  0  0
  4  5  1  0  0  0  0
  5 10  2  0  0  0  0
  5  6  1  0  0  0  0
  6  7  2  0  0  0  0
  6 28  1  0  0  0  0
  7  8  1  0  0  0  0
  7 29  1  0  0  0  0
  8  9  2  0  0  0  0
  8 30  1  0  0  0  0
  9 10  1  0  0  0  0
  9 31  1  0  0  0  0
 10 11  1  0  0  0  0
 11 12  1  0  0  0  0
 12 13  1  0  0  0  0
 12 32  1  0  0  0  0
 12 33  1  0  0  0  0
 13 14  1  0  0  0  0
 13 15  1  0  0  0  0
 13 34  1  0  0  0  0
 14 35  1  0  0  0  0
 15 16  1  0  0  0  0
 15 36  1  0  0  0  0
 15 37  1  0  0  0  0
 16 17  1  0  0  0  0
 17 18  1  0  0  0  0
 17 38  1  0  0  0  0
 17 39  1  0  0  0  0
 18 24  1  0  0  0  0
 18 19  2  0  0  0  0
 19 20  1  0  0  0  0
 19 40  1  0  0  0  0
 20 21  2  0  0  0  0
 20 41  1  0  0  0  0
 21 22  1  0  0  0  0
 21 23  1  0  0  0  0
 23 24  2  0  0  0  0
 23 42  1  0  0  0  0
 24 43  1  0  0  0  0
M  END
> <s_m_source_file>
AV-unprocessed.smi

> <i_m_source_file_index>
322

> <i_lp_mmshare_version>
43012

> <i_f3d_flags>
0

> <s_epik_input>
W2NIXTFbY0hdW2NIXVtjSF1jKGMxMiluKGMobjIpW0NIMl1bT0hdKVtDSDJdW0NASF0oW09IXSlbQ0gyXU9bQ0gyXWMzW2NIXVtjSF1jKENsKVtjSF1bY0hdMw==

> <s_epik_cmdline>
J2VwaWtfcHl0aG9uJywgJy1waCcsICc3LjAnLCAnLXRuJywgJzgnLCAnLW1hJywgJzIwMCcsICctbWV0YWxfYmluZGluZycsICctaW1hZScsICc8aW5maWxlLm1hZT4nLCAnLW9tYWUnLCAnPG91dGZpbGUubWFlPic=

> <r_epik_Ionization_Penalty>
0.0649918

> <r_epik_Ionization_Penalty_Charging>
0

> <r_epik_Ionization_Penalty_Neutral>
0.0649918

> <r_epik_State_Penalty>
0.0565791

> <r_epik_Charging_Adjusted_Penalty>
0.0565791

> <i_epik_Tot_Q>
0

> <i_epik_Tot_abs_Q>
0

> <r_epik_Metal_State_Penalty>
5.93658e-05

> <b_epik_Metal_Only>
0

> <s_lp_Force_Field>
OPLS_2005

> <r_lp_Energy>
16.0387

> <b_lp_Chiralities_Consistent>
1

> <s_lp_Variant>
AV-unprocessed.smi:322-1

> <Gold.Version>
5.8.1

> <Gold.Id.Protein>
6NUR|6NUR_protein|mol2

> <Gold.PLP.Fitness>
55.6165

> <Gold.PLP.PLP>
-55.7521

> <Gold.PLP.part.hbond>
-1.0000

> <Gold.PLP.part.metal>
0.0000

> <Gold.PLP.part.buried>
-6.5505

> <Gold.PLP.part.nonpolar>
-48.4707

> <Gold.PLP.part.repulsive>
0.1024

> <Gold.PLP.ligand.clash>
0.0000

> <Gold.PLP.ligand.torsion>
1.6432

> <Gold.PLP.Chemscore.Hbond>
1.0000

> <Gold.PLP.Chemscore.CHOScore>
0.0000

> <Gold.PLP.Chemscore.Metal>
0.0000

> <Gold.Chemscore.Hbonds>
donor molecule, donor type, donor heavy atom, donor atom, acceptor molecule, acceptor atom, score
      P1  H  7997  8010       L1     1  1.00

> <Gold.PLP.Chemscore.Internal.Correction>
0.1508

> <Gold.Rescore>
     Score         DG    S(hbond)    S(metal)    S(lipo)     H(rot)  DE(clash)    DE(int)     intcor
     14.73     -17.38       0.99        0.00     141.91       3.13       0.20       2.44       ----

> <Gold.Chemscore.Fitness>
14.7325

> <Gold.Chemscore.DG>
-17.3759

> <Gold.Chemscore.ZeroCoef>
-5.4800

> <Gold.Chemscore.Hbond>
0.9925

> <Gold.Chemscore.Metal>
0.0000

> <Gold.Chemscore.Lipo>
141.9096

> <Gold.Chemscore.Internal_Hbond>
0.0000

> <Gold.Chemscore.DEClash>
0.2037

> <Gold.Chemscore.DEInternal>
2.4398

> <Gold.Chemscore.Rot>
3.1337

> <Gold.Chemscore.Internal.Correction>
   9.000000E+99

> <Gold.Chemscore.Hbonds>
donor molecule, donor type, donor heavy atom, donor atom, acceptor molecule, acceptor atom, score
      P1  H  7997  8010       L1     1  0.39

> <Gold.Chemscore.Hbond.Weighted>
-3.3149

> <Gold.Chemscore.Metal.Weighted>
-0.0000

> <Gold.Chemscore.Lipo.Weighted>
-16.6034

> <Gold.Chemscore.Internal_Hbond.Weighted>
0.0000

> <Gold.Chemscore.DEClash.Weighted>
0.2037

> <Gold.Chemscore.DEInternal.Weighted>
2.4398

> <Gold.Chemscore.Rot.Weighted>
8.0224

> <Gold.Chemscore.Internal.Correction.Weighted>
   9.000000E+99

> <Gold.Protein.RotatedTorsions>
[ 6907 6896 6895 6894 ] final   15.46 input  -60.11 | X-H torsion
[ 7974 7965 7964 7962 ] final   37.13 input  175.53 | X-H torsion
[ 8008 7997 7996 7995 ] final   63.57 input   59.86 | X-H torsion
[ 10167 10162 10161 10158 ] final  145.83 input  -65.29 | X-H torsion
[ 10718 10713 10712 10709 ] final   66.99 input   66.30 | X-H torsion
[ 10763 10752 10751 10750 ] final  155.25 input  -60.55 | X-H torsion
[ 11005 11000 10999 10996 ] final   -2.35 input  -57.11 | X-H torsion

> <Gold.Protein.ActiveResidues>
 VAL166  LYS551  ARG553  GLY616  TRP617  ASP618  TYR619  PRO620  LYS621  CYS622 
 ASP623  PHE694  ASN695  SER759  ASP760  ASP761  ALA762  ILE779  LEU786  VAL792 
 PHE793  MET794  SER795  GLU796  ALA797  LYS798  CYS799  TRP800  GLU811  SER814 

> <Gold.Protein.RotatedAtoms>
  151.8184  135.0659  160.0421 H   0  0  0  0  0  0  0  0  0  0  0  0  # atno 6907 bound_to 6896
  152.2969  133.5612  159.5601 H   0  0  0  0  0  0  0  0  0  0  0  0  # atno 6908 bound_to 6896
  150.7255  134.0264  159.3760 H   0  0  0  0  0  0  0  0  0  0  0  0  # atno 6909 bound_to 6896
  146.1160  139.5932  142.9321 H   0  0  0  0  0  0  0  0  0  0  0  0  # atno 7974 bound_to 7965
  155.6323  140.3496  155.4687 H   0  0  0  0  0  0  0  0  0  0  0  0  # atno 8008 bound_to 7997
  155.9993  140.1210  157.0587 H   0  0  0  0  0  0  0  0  0  0  0  0  # atno 8009 bound_to 7997
  154.4243  140.1104  156.5660 H   0  0  0  0  0  0  0  0  0  0  0  0  # atno 8010 bound_to 7997
  139.4918  144.5873  151.6752 H   0  0  0  0  0  0  0  0  0  0  0  0  # atno 10167 bound_to 10162
  157.6203  130.9297  150.0182 H   0  0  0  0  0  0  0  0  0  0  0  0  # atno 10718 bound_to 10713
  154.1653  135.2807  155.3097 H   0  0  0  0  0  0  0  0  0  0  0  0  # atno 10763 bound_to 10752
  154.6116  135.5497  153.7482 H   0  0  0  0  0  0  0  0  0  0  0  0  # atno 10764 bound_to 10752
  153.0180  135.6417  154.1794 H   0  0  0  0  0  0  0  0  0  0  0  0  # atno 10765 bound_to 10752
  140.6574  133.9350  155.8416 H   0  0  0  0  0  0  0  0  0  0  0  0  # atno 11005 bound_to 11000
  145.5565  141.0408  143.2250 LP  0  0  0  0  0  0  0  0  0  0  0  0  # atno 17320 bound_to 7965
  144.7554  139.7088  143.7256 LP  0  0  0  0  0  0  0  0  0  0  0  0  # atno 17321 bound_to 7965
  140.5492  144.0453  150.6120 LP  0  0  0  0  0  0  0  0  0  0  0  0  # atno 17342 bound_to 10162
  140.3501  143.2968  152.0496 LP  0  0  0  0  0  0  0  0  0  0  0  0  # atno 17343 bound_to 10162
  156.1345  130.3643  149.9679 LP  0  0  0  0  0  0  0  0  0  0  0  0  # atno 17370 bound_to 10713
  156.7733  130.9194  151.3645 LP  0  0  0  0  0  0  0  0  0  0  0  0  # atno 17371 bound_to 10713
  141.0491  134.0511  157.3806 LP  0  0  0  0  0  0  0  0  0  0  0  0  # atno 17394 bound_to 11000
  139.9025  135.0169  156.7333 LP  0  0  0  0  0  0  0  0  0  0  0  0  # atno 17395 bound_to 11000

$$$$
