AV-unprocessed.smi:2046|AV-procd|sdf|8311|dock7
  -GOLD-   2272010573D 1   1.00000     0.00000
 Structure written by MMmdl.
 30 31  0  0  0  0  0  0  0  0  1 V2000
  149.6355  137.4886  156.2966 O   0  0  0  0  0  0  0  0  0  0  0  0
  149.4616  137.0706  155.1513 C   0  0  0  0  0  0  0  0  0  0  0  0
  149.8386  135.8618  154.6986 N   0  0  0  0  0  0  0  0  0  0  0  0
  150.4999  134.8233  155.4062 C   0  0  0  0  0  0  0  0  0  0  0  0
  151.5368  135.0288  156.2339 N   0  0  0  0  0  0  0  0  0  0  0  0
  151.9959  133.8443  156.7956 N   0  0  0  0  0  0  0  0  0  0  0  0
  151.2884  132.7938  156.3704 C   0  0  0  0  0  0  0  0  0  0  0  0
  149.9918  133.1485  155.2419 S   0  0  0  0  0  0  0  0  0  0  0  0
  148.8601  137.7824  154.1870 N   0  0  0  0  0  0  0  0  0  0  0  0
  148.3505  139.1469  154.3243 C   0  0  2  0  0  0  0  0  0  0  0  0
  147.2848  139.4461  153.2385 C   0  0  0  0  0  0  0  0  0  0  0  0
  147.0839  140.9327  152.8768 C   0  0  0  0  0  0  0  0  0  0  0  0
  146.8008  141.8735  154.0656 C   0  0  0  0  0  0  0  0  0  0  0  0
  147.8338  141.8694  155.2182 C   0  0  0  0  0  0  0  0  0  0  0  0
  149.1714  141.4224  154.8306 N   0  0  0  0  0  0  0  0  0  0  0  0
  149.4899  140.1787  154.4321 C   0  0  0  0  0  0  0  0  0  0  0  0
  150.6459  139.8739  154.1407 O   0  0  0  0  0  0  0  0  0  0  0  0
  149.6291  135.6611  153.7318 H   0  0  0  0  0  0  0  0  0  0  0  0
  151.5321  131.8028  156.7238 H   0  0  0  0  0  0  0  0  0  0  0  0
  148.7638  137.3608  153.2745 H   0  0  0  0  0  0  0  0  0  0  0  0
  147.8473  139.1813  155.2915 H   0  0  0  0  0  0  0  0  0  0  0  0
  147.5475  138.9195  152.3199 H   0  0  0  0  0  0  0  0  0  0  0  0
  146.3308  139.0226  153.5555 H   0  0  0  0  0  0  0  0  0  0  0  0
  147.9571  141.2943  152.3321 H   0  0  0  0  0  0  0  0  0  0  0  0
  146.2592  141.0094  152.1677 H   0  0  0  0  0  0  0  0  0  0  0  0
  146.7326  142.8879  153.6710 H   0  0  0  0  0  0  0  0  0  0  0  0
  145.8143  141.6555  154.4759 H   0  0  0  0  0  0  0  0  0  0  0  0
  147.9152  142.8729  155.6366 H   0  0  0  0  0  0  0  0  0  0  0  0
  147.4748  141.2469  156.0386 H   0  0  0  0  0  0  0  0  0  0  0  0
  149.9147  142.1035  154.8878 H   0  0  0  0  0  0  0  0  0  0  0  0
  1  2  2  0  0  0  0
  2  3  1  0  0  0  0
  2  9  1  0  0  0  0
  3  4  1  0  0  0  0
  3 18  1  0  0  0  0
  4  8  1  0  0  0  0
  4  5  2  0  0  0  0
  5  6  1  0  0  0  0
  6  7  2  0  0  0  0
  7  8  1  0  0  0  0
  7 19  1  0  0  0  0
  9 10  1  0  0  0  0
  9 20  1  0  0  0  0
 10 16  1  0  0  0  0
 10 11  1  0  0  0  0
 10 21  1  0  0  0  0
 11 12  1  0  0  0  0
 11 22  1  0  0  0  0
 11 23  1  0  0  0  0
 12 13  1  0  0  0  0
 12 24  1  0  0  0  0
 12 25  1  0  0  0  0
 13 14  1  0  0  0  0
 13 26  1  0  0  0  0
 13 27  1  0  0  0  0
 14 15  1  0  0  0  0
 14 28  1  0  0  0  0
 14 29  1  0  0  0  0
 15 16  1  0  0  0  0
 15 30  1  0  0  0  0
 16 17  2  0  0  0  0
M  END
> <s_m_source_file>
AV-unprocessed.smi

> <i_m_source_file_index>
2046

> <i_lp_mmshare_version>
43012

> <i_f3d_flags>
0

> <s_epik_input>
czFbY0hdbm5jMVtOSF1DKD1PKVtOSF1bQ0BASF0yW0NIMl1bQ0gyXVtDSDJdW0NIMl1bTkhdQzI9Tw==

> <s_epik_cmdline>
J2VwaWtfcHl0aG9uJywgJy1waCcsICc3LjAnLCAnLXRuJywgJzgnLCAnLW1hJywgJzIwMCcsICctbWV0YWxfYmluZGluZycsICctaW1hZScsICc8aW5maWxlLm1hZT4nLCAnLW9tYWUnLCAnPG91dGZpbGUubWFlPic=

> <r_lp_tautomer_probability>
1

> <r_epik_Ionization_Penalty>
0.000691558

> <r_epik_Ionization_Penalty_Charging>
0

> <r_epik_Ionization_Penalty_Neutral>
0.000691558

> <r_epik_State_Penalty>
-0

> <r_epik_Charging_Adjusted_Penalty>
0

> <i_epik_Tot_Q>
0

> <i_epik_Tot_abs_Q>
0

> <r_epik_Metal_State_Penalty>
0.252698

> <b_epik_Metal_Only>
0

> <s_lp_Force_Field>
OPLS_2005

> <r_lp_Energy>
13.4172

> <b_lp_Chiralities_Consistent>
1

> <s_lp_Variant>
AV-unprocessed.smi:2046-1

> <Gold.Version>
5.8.1

> <Gold.Id.Protein>
6NUR|6NUR_protein|mol2

> <Gold.PLP.Fitness>
35.6710

> <Gold.PLP.PLP>
-24.9255

> <Gold.PLP.part.hbond>
-4.6725

> <Gold.PLP.part.metal>
0.0000

> <Gold.PLP.part.buried>
0.2709

> <Gold.PLP.part.nonpolar>
-18.0650

> <Gold.PLP.part.repulsive>
0.4091

> <Gold.PLP.ligand.clash>
0.0000

> <Gold.PLP.ligand.torsion>
0.5653

> <Gold.PLP.Chemscore.Hbond>
3.9413

> <Gold.PLP.Chemscore.CHOScore>
0.0000

> <Gold.PLP.Chemscore.Metal>
0.0000

> <Gold.Chemscore.Hbonds>
donor molecule, donor type, donor heavy atom, donor atom, acceptor molecule, acceptor atom, score
      L1  H     3    18       P1  7948  0.90
      L1  H     9    20       P1  7948  1.00
      P1  H  7989  7998       L1    17  1.00
      P1  H 10752 10765       L1     5  0.99

> <Gold.PLP.Chemscore.Internal.Correction>
0.0524

> <Gold.Rescore>
     Score         DG    S(hbond)    S(metal)    S(lipo)     H(rot)  DE(clash)    DE(int)     intcor
     16.62     -17.31       2.92        0.00      39.72       1.00       0.01       0.68       ----

> <Gold.Chemscore.Fitness>
16.6216

> <Gold.Chemscore.DG>
-17.3122

> <Gold.Chemscore.ZeroCoef>
-5.4800

> <Gold.Chemscore.Hbond>
2.9176

> <Gold.Chemscore.Metal>
0.0000

> <Gold.Chemscore.Lipo>
39.7208

> <Gold.Chemscore.Internal_Hbond>
0.0000

> <Gold.Chemscore.DEClash>
0.0086

> <Gold.Chemscore.DEInternal>
0.6820

> <Gold.Chemscore.Rot>
1.0000

> <Gold.Chemscore.Internal.Correction>
   9.000000E+99

> <Gold.Chemscore.Hbonds>
donor molecule, donor type, donor heavy atom, donor atom, acceptor molecule, acceptor atom, score
      L1  H     3    18       P1  7948  0.16
      L1  H     9    20       P1  7948  1.00
      P1  H  7989  7998       L1    17  0.93
      P1  H 10752 10765       L1     5  0.11

> <Gold.Chemscore.Hbond.Weighted>
-9.7449

> <Gold.Chemscore.Metal.Weighted>
-0.0000

> <Gold.Chemscore.Lipo.Weighted>
-4.6473

> <Gold.Chemscore.Internal_Hbond.Weighted>
0.0000

> <Gold.Chemscore.DEClash.Weighted>
0.0086

> <Gold.Chemscore.DEInternal.Weighted>
0.6820

> <Gold.Chemscore.Rot.Weighted>
2.5600

> <Gold.Chemscore.Internal.Correction.Weighted>
   9.000000E+99

> <Gold.Protein.RotatedTorsions>
[ 6907 6896 6895 6894 ] final  -56.70 input  -60.11 | X-H torsion
[ 7974 7965 7964 7962 ] final  127.65 input  175.53 | X-H torsion
[ 8008 7997 7996 7995 ] final -159.61 input   59.86 | X-H torsion
[ 10167 10162 10161 10158 ] final  -82.25 input  -65.29 | X-H torsion
[ 10718 10713 10712 10709 ] final  -74.36 input   66.30 | X-H torsion
[ 10763 10752 10751 10750 ] final -153.66 input  -60.55 | X-H torsion
[ 11005 11000 10999 10996 ] final  107.01 input  -57.11 | X-H torsion

> <Gold.Protein.ActiveResidues>
 VAL166  LYS551  ARG553  GLY616  TRP617  ASP618  TYR619  PRO620  LYS621  CYS622 
 ASP623  PHE694  ASN695  SER759  ASP760  ASP761  ALA762  ILE779  LEU786  VAL792 
 PHE793  MET794  SER795  GLU796  ALA797  LYS798  CYS799  TRP800  GLU811  SER814 

> <Gold.Protein.RotatedAtoms>
  150.8146  134.7320  159.6717 H   0  0  0  0  0  0  0  0  0  0  0  0  # atno 6907 bound_to 6896
  152.4265  134.5855  159.9969 H   0  0  0  0  0  0  0  0  0  0  0  0  # atno 6908 bound_to 6896
  151.6056  133.3315  159.3092 H   0  0  0  0  0  0  0  0  0  0  0  0  # atno 6909 bound_to 6896
  145.0483  139.3904  143.5067 H   0  0  0  0  0  0  0  0  0  0  0  0  # atno 7974 bound_to 7965
  155.7651  140.0844  157.2136 H   0  0  0  0  0  0  0  0  0  0  0  0  # atno 8008 bound_to 7997
  154.4000  140.1535  156.2934 H   0  0  0  0  0  0  0  0  0  0  0  0  # atno 8009 bound_to 7997
  155.8802  140.3421  155.5885 H   0  0  0  0  0  0  0  0  0  0  0  0  # atno 8010 bound_to 7997
  140.4337  143.2539  151.8723 H   0  0  0  0  0  0  0  0  0  0  0  0  # atno 10167 bound_to 10162
  156.0245  130.4415  150.2881 H   0  0  0  0  0  0  0  0  0  0  0  0  # atno 10718 bound_to 10713
  154.7912  135.3208  154.7772 H   0  0  0  0  0  0  0  0  0  0  0  0  # atno 10763 bound_to 10752
  153.8460  135.6866  153.4802 H   0  0  0  0  0  0  0  0  0  0  0  0  # atno 10764 bound_to 10752
  153.1584  135.4671  154.9677 H   0  0  0  0  0  0  0  0  0  0  0  0  # atno 10765 bound_to 10752
  139.8822  134.9387  156.5754 H   0  0  0  0  0  0  0  0  0  0  0  0  # atno 11005 bound_to 11000
  146.3516  140.0119  142.8666 LP  0  0  0  0  0  0  0  0  0  0  0  0  # atno 17320 bound_to 7965
  145.1560  140.9648  143.4405 LP  0  0  0  0  0  0  0  0  0  0  0  0  # atno 17321 bound_to 7965
  139.4786  144.5306  151.8672 LP  0  0  0  0  0  0  0  0  0  0  0  0  # atno 17342 bound_to 10162
  140.4398  144.2002  150.5891 LP  0  0  0  0  0  0  0  0  0  0  0  0  # atno 17343 bound_to 10162
  157.0984  131.0189  151.3095 LP  0  0  0  0  0  0  0  0  0  0  0  0  # atno 17370 bound_to 10713
  157.4799  130.7759  149.7404 LP  0  0  0  0  0  0  0  0  0  0  0  0  # atno 17371 bound_to 10713
  140.8067  133.8462  155.8774 LP  0  0  0  0  0  0  0  0  0  0  0  0  # atno 17394 bound_to 11000
  140.9543  134.1738  157.4703 LP  0  0  0  0  0  0  0  0  0  0  0  0  # atno 17395 bound_to 11000

$$$$
