AV-unprocessed.smi:275|AV-procd|sdf|2064|dock1
  -GOLD-   2262021313D 1   1.00000     0.00000
 Structure written by MMmdl.
 65 69  0  0  0  0  0  0  0  0  1 V2000
  150.2941  139.5052  154.7293 C   0  0  0  0  0  0  0  0  0  0  0  0
  151.6673  139.7216  155.3874 C   0  0  0  0  0  0  0  0  0  0  0  0
  152.6489  138.6600  154.8636 C   0  0  0  0  0  0  0  0  0  0  0  0
  151.5978  139.7033  156.9256 C   0  0  2  0  0  0  0  0  0  0  0  0
  150.2592  139.4426  157.4513 N   0  0  0  0  0  0  0  0  0  0  0  0
  149.9042  138.1139  157.8209 C   0  0  0  0  0  0  0  0  0  0  0  0
  149.4010  137.8244  159.0513 N   0  0  0  0  0  0  0  0  0  0  0  0
  149.0733  136.5725  159.3836 C   0  0  0  0  0  0  0  0  0  0  0  0
  149.1626  135.4643  158.6473 N   0  0  0  0  0  0  0  0  0  0  0  0
  149.6652  135.7394  157.4108 C   0  0  0  0  0  0  0  0  0  0  0  0
  150.0566  137.0194  156.9260 C   0  0  0  0  0  0  0  0  0  0  0  0
  150.5254  136.9097  155.6229 N   0  0  0  0  0  0  0  0  0  0  0  0
  150.4174  135.6378  155.3517 C   0  0  0  0  0  0  0  0  0  0  0  0
  149.8918  134.8642  156.3625 N   0  0  0  0  0  0  0  0  0  0  0  0
  149.6723  133.4284  156.3330 C   0  0  0  0  0  0  0  0  0  0  0  0
  150.8222  132.6130  155.6849 C   0  0  1  0  0  0  0  0  0  0  0  0
  152.0847  132.7823  156.5656 C   0  0  0  0  0  0  0  0  0  0  0  0
  151.9992  132.0354  157.7616 O   0  0  0  0  0  0  0  0  0  0  0  0
  150.4539  131.1128  155.4682 C   0  0  2  0  0  0  0  0  0  0  0  0
  151.6057  130.2091  155.0565 C   0  0  0  0  0  0  0  0  0  0  0  0
  150.8812  128.9879  154.5103 C   0  0  0  0  0  0  0  0  0  0  0  0
  149.7556  129.5201  153.8296 O   0  0  0  0  0  0  0  0  0  0  0  0
  149.4595  130.8198  154.3324 C   0  0  0  0  0  0  0  0  0  0  0  0
  150.4998  140.2902  158.6050 C   0  0  0  0  0  0  0  0  0  0  0  0
  151.5611  141.0111  157.7581 C   0  0  0  0  0  0  0  0  0  0  0  0
  151.0660  142.3000  157.0628 C   0  0  0  0  0  0  0  0  0  0  0  0
  150.8634  143.4681  158.0434 C   0  0  0  0  0  0  0  0  0  0  0  0
  152.1521  143.7721  158.8180 C   0  0  0  0  0  0  0  0  0  0  0  0
  152.7025  142.5102  159.4945 C   0  0  0  0  0  0  0  0  0  0  0  0
  152.8703  141.3647  158.4822 C   0  0  0  0  0  0  0  0  0  0  0  0
  149.8465  138.5619  155.0439 H   0  0  0  0  0  0  0  0  0  0  0  0
  150.3767  139.4870  153.6424 H   0  0  0  0  0  0  0  0  0  0  0  0
  149.6002  140.3066  154.9823 H   0  0  0  0  0  0  0  0  0  0  0  0
  152.0333  140.6936  155.0553 H   0  0  0  0  0  0  0  0  0  0  0  0
  152.3209  137.6559  155.1343 H   0  0  0  0  0  0  0  0  0  0  0  0
  153.6517  138.7937  155.2651 H   0  0  0  0  0  0  0  0  0  0  0  0
  152.7287  138.7005  153.7771 H   0  0  0  0  0  0  0  0  0  0  0  0
  152.3335  139.0250  157.3614 H   0  0  0  0  0  0  0  0  0  0  0  0
  148.6825  136.4413  160.3818 H   0  0  0  0  0  0  0  0  0  0  0  0
  150.7129  135.2277  154.3970 H   0  0  0  0  0  0  0  0  0  0  0  0
  149.5269  133.1173  157.3681 H   0  0  0  0  0  0  0  0  0  0  0  0
  148.7327  133.2209  155.8198 H   0  0  0  0  0  0  0  0  0  0  0  0
  151.0395  133.0627  154.7148 H   0  0  0  0  0  0  0  0  0  0  0  0
  152.9737  132.4252  156.0450 H   0  0  0  0  0  0  0  0  0  0  0  0
  152.2595  133.8333  156.7981 H   0  0  0  0  0  0  0  0  0  0  0  0
  151.7998  131.1379  157.5423 H   0  0  0  0  0  0  0  0  0  0  0  0
  150.0393  130.7155  156.3963 H   0  0  0  0  0  0  0  0  0  0  0  0
  152.1945  130.6746  154.2647 H   0  0  0  0  0  0  0  0  0  0  0  0
  152.2733  129.9575  155.8811 H   0  0  0  0  0  0  0  0  0  0  0  0
  151.5049  128.3879  153.8475 H   0  0  0  0  0  0  0  0  0  0  0  0
  150.5342  128.3506  155.3246 H   0  0  0  0  0  0  0  0  0  0  0  0
  148.4250  130.8572  154.6717 H   0  0  0  0  0  0  0  0  0  0  0  0
  149.5745  131.5300  153.5133 H   0  0  0  0  0  0  0  0  0  0  0  0
  149.6395  140.8977  158.8866 H   0  0  0  0  0  0  0  0  0  0  0  0
  150.9169  139.7467  159.4554 H   0  0  0  0  0  0  0  0  0  0  0  0
  151.7692  142.6154  156.2936 H   0  0  0  0  0  0  0  0  0  0  0  0
  150.1254  142.1160  156.5423 H   0  0  0  0  0  0  0  0  0  0  0  0
  150.5380  144.3567  157.5017 H   0  0  0  0  0  0  0  0  0  0  0  0
  150.0640  143.2273  158.7447 H   0  0  0  0  0  0  0  0  0  0  0  0
  152.9011  144.1708  158.1328 H   0  0  0  0  0  0  0  0  0  0  0  0
  151.9688  144.5479  159.5618 H   0  0  0  0  0  0  0  0  0  0  0  0
  153.6589  142.7309  159.9692 H   0  0  0  0  0  0  0  0  0  0  0  0
  152.0272  142.1974  160.2917 H   0  0  0  0  0  0  0  0  0  0  0  0
  153.2605  140.4901  159.0039 H   0  0  0  0  0  0  0  0  0  0  0  0
  153.6366  141.6380  157.7559 H   0  0  0  0  0  0  0  0  0  0  0  0
  1  2  1  0  0  0  0
  1 31  1  0  0  0  0
  1 32  1  0  0  0  0
  1 33  1  0  0  0  0
  2  3  1  0  0  0  0
  2  4  1  0  0  0  0
  2 34  1  0  0  0  0
  3 35  1  0  0  0  0
  3 36  1  0  0  0  0
  3 37  1  0  0  0  0
  4 25  1  0  0  0  0
  4  5  1  0  0  0  0
  4 38  1  0  0  0  0
  5  6  1  0  0  0  0
  5 24  1  0  0  0  0
  6 11  1  0  0  0  0
  6  7  2  0  0  0  0
  7  8  1  0  0  0  0
  8  9  2  0  0  0  0
  8 39  1  0  0  0  0
  9 10  1  0  0  0  0
 10 14  1  0  0  0  0
 10 11  2  0  0  0  0
 11 12  1  0  0  0  0
 12 13  2  0  0  0  0
 13 14  1  0  0  0  0
 13 40  1  0  0  0  0
 14 15  1  0  0  0  0
 15 16  1  0  0  0  0
 15 41  1  0  0  0  0
 15 42  1  0  0  0  0
 16 17  1  0  0  0  0
 16 19  1  0  0  0  0
 16 43  1  0  0  0  0
 17 18  1  0  0  0  0
 17 44  1  0  0  0  0
 17 45  1  0  0  0  0
 18 46  1  0  0  0  0
 19 23  1  0  0  0  0
 19 20  1  0  0  0  0
 19 47  1  0  0  0  0
 20 21  1  0  0  0  0
 20 48  1  0  0  0  0
 20 49  1  0  0  0  0
 21 22  1  0  0  0  0
 21 50  1  0  0  0  0
 21 51  1  0  0  0  0
 22 23  1  0  0  0  0
 23 52  1  0  0  0  0
 23 53  1  0  0  0  0
 24 25  1  0  0  0  0
 24 54  1  0  0  0  0
 24 55  1  0  0  0  0
 25 30  1  0  0  0  0
 25 26  1  0  0  0  0
 26 27  1  0  0  0  0
 26 56  1  0  0  0  0
 26 57  1  0  0  0  0
 27 28  1  0  0  0  0
 27 58  1  0  0  0  0
 27 59  1  0  0  0  0
 28 29  1  0  0  0  0
 28 60  1  0  0  0  0
 28 61  1  0  0  0  0
 29 30  1  0  0  0  0
 29 62  1  0  0  0  0
 29 63  1  0  0  0  0
 30 64  1  0  0  0  0
 30 65  1  0  0  0  0
M  END
> <s_m_source_file>
AV-unprocessed.smi

> <i_m_source_file_index>
275

> <i_lp_mmshare_version>
43012

> <i_f3d_flags>
0

> <s_epik_input>
W0NIMl0xW0NIMl1bQ0gyXVtDSDJdW0NIMl1DMTJbQ0BIXShbQ0hdKFtDSDNdKVtDSDNdKU4oW0NIMl0yKWMobltjSF1uMyljKGMzNCluW2NIXW40W0NIMl1bQ0BIXShbQ0gyXVtPSF0pW0NAQEhdNVtDSDJdW0NIMl1PW0NIMl01

> <s_epik_cmdline>
J2VwaWtfcHl0aG9uJywgJy1waCcsICc3LjAnLCAnLXRuJywgJzgnLCAnLW1hJywgJzIwMCcsICctbWV0YWxfYmluZGluZycsICctaW1hZScsICc8aW5maWxlLm1hZT4nLCAnLW9tYWUnLCAnPG91dGZpbGUubWFlPic=

> <r_lp_tautomer_probability>
1

> <r_epik_Ionization_Penalty>
0.00375122

> <r_epik_Ionization_Penalty_Charging>
0

> <r_epik_Ionization_Penalty_Neutral>
0.00375122

> <r_epik_State_Penalty>
0.00260593

> <r_epik_Charging_Adjusted_Penalty>
0.00260593

> <i_epik_Tot_Q>
0

> <i_epik_Tot_abs_Q>
0

> <r_epik_Metal_State_Penalty>
-0

> <b_epik_Metal_Only>
0

> <s_lp_Force_Field>
OPLS_2005

> <r_lp_Energy>
64.5971

> <b_lp_Chiralities_Consistent>
1

> <s_lp_Variant>
AV-unprocessed.smi:275-3

> <Gold.Version>
5.8.1

> <Gold.Id.Protein>
6NUR|6NUR_protein|mol2

> <Gold.PLP.Fitness>
50.4418

> <Gold.PLP.PLP>
-48.1192

> <Gold.PLP.part.hbond>
-2.4704

> <Gold.PLP.part.metal>
0.0000

> <Gold.PLP.part.buried>
-4.6169

> <Gold.PLP.part.nonpolar>
-40.3496

> <Gold.PLP.part.repulsive>
0.1992

> <Gold.PLP.ligand.clash>
0.0000

> <Gold.PLP.ligand.torsion>
2.1577

> <Gold.PLP.Chemscore.Hbond>
2.0000

> <Gold.PLP.Chemscore.CHOScore>
0.0000

> <Gold.PLP.Chemscore.Metal>
0.0000

> <Gold.Chemscore.Hbonds>
donor molecule, donor type, donor heavy atom, donor atom, acceptor molecule, acceptor atom, score
      P1  H  6896  6907       L1    18  1.00
      P1  H  6896  6908       L1     9  1.00

> <Gold.PLP.Chemscore.Internal.Correction>
0.6379

> <Gold.Rescore>
     Score         DG    S(hbond)    S(metal)    S(lipo)     H(rot)  DE(clash)    DE(int)     intcor
     14.31     -17.97       1.28        0.00     125.66       2.54       0.04       3.62       ----

> <Gold.Chemscore.Fitness>
14.3136

> <Gold.Chemscore.DG>
-17.9672

> <Gold.Chemscore.ZeroCoef>
-5.4800

> <Gold.Chemscore.Hbond>
1.2818

> <Gold.Chemscore.Metal>
0.0000

> <Gold.Chemscore.Lipo>
125.6641

> <Gold.Chemscore.Internal_Hbond>
0.0000

> <Gold.Chemscore.DEClash>
0.0378

> <Gold.Chemscore.DEInternal>
3.6158

> <Gold.Chemscore.Rot>
2.5377

> <Gold.Chemscore.Internal.Correction>
   9.000000E+99

> <Gold.Chemscore.Hbonds>
donor molecule, donor type, donor heavy atom, donor atom, acceptor molecule, acceptor atom, score
      P1  H  6896  6907       L1    18  0.67
      P1  H  6896  6908       L1     9  0.10

> <Gold.Chemscore.Hbond.Weighted>
-4.2810

> <Gold.Chemscore.Metal.Weighted>
-0.0000

> <Gold.Chemscore.Lipo.Weighted>
-14.7027

> <Gold.Chemscore.Internal_Hbond.Weighted>
0.0000

> <Gold.Chemscore.DEClash.Weighted>
0.0378

> <Gold.Chemscore.DEInternal.Weighted>
3.6158

> <Gold.Chemscore.Rot.Weighted>
6.4966

> <Gold.Chemscore.Internal.Correction.Weighted>
   9.000000E+99

> <Gold.Protein.RotatedTorsions>
[ 6907 6896 6895 6894 ] final  169.06 input  -60.11 | X-H torsion
[ 7974 7965 7964 7962 ] final -175.72 input  175.53 | X-H torsion
[ 8008 7997 7996 7995 ] final  -93.78 input   59.86 | X-H torsion
[ 10167 10162 10161 10158 ] final   38.68 input  -65.29 | X-H torsion
[ 10718 10713 10712 10709 ] final -157.69 input   66.30 | X-H torsion
[ 10763 10752 10751 10750 ] final  -38.58 input  -60.55 | X-H torsion
[ 11005 11000 10999 10996 ] final  147.78 input  -57.11 | X-H torsion

> <Gold.Protein.ActiveResidues>
 VAL166  LYS551  ARG553  GLY616  TRP617  ASP618  TYR619  PRO620  LYS621  CYS622 
 ASP623  PHE694  ASN695  SER759  ASP760  ASP761  ALA762  ILE779  LEU786  VAL792 
 PHE793  MET794  SER795  GLU796  ALA797  LYS798  CYS799  TRP800  GLU811  SER814 

> <Gold.Protein.RotatedAtoms>
  151.8379  133.3419  159.3633 H   0  0  0  0  0  0  0  0  0  0  0  0  # atno 6907 bound_to 6896
  150.7244  134.5419  159.5761 H   0  0  0  0  0  0  0  0  0  0  0  0  # atno 6908 bound_to 6896
  152.2887  134.7747  160.0433 H   0  0  0  0  0  0  0  0  0  0  0  0  # atno 6909 bound_to 6896
  144.7127  140.1278  143.6401 H   0  0  0  0  0  0  0  0  0  0  0  0  # atno 7974 bound_to 7965
  154.7400  140.0495  157.0802 H   0  0  0  0  0  0  0  0  0  0  0  0  # atno 8008 bound_to 7997
  155.0191  140.3145  155.4781 H   0  0  0  0  0  0  0  0  0  0  0  0  # atno 8009 bound_to 7997
  156.2862  140.2170  156.5308 H   0  0  0  0  0  0  0  0  0  0  0  0  # atno 8010 bound_to 7997
  140.3913  144.1849  150.6131 H   0  0  0  0  0  0  0  0  0  0  0  0  # atno 10167 bound_to 10162
  156.5438  130.8575  151.2757 H   0  0  0  0  0  0  0  0  0  0  0  0  # atno 10718 bound_to 10713
  153.9153  135.6788  153.4749 H   0  0  0  0  0  0  0  0  0  0  0  0  # atno 10763 bound_to 10752
  153.1057  135.4807  154.8944 H   0  0  0  0  0  0  0  0  0  0  0  0  # atno 10764 bound_to 10752
  154.7506  135.3184  154.8520 H   0  0  0  0  0  0  0  0  0  0  0  0  # atno 10765 bound_to 10752
  140.0904  134.9044  157.1642 H   0  0  0  0  0  0  0  0  0  0  0  0  # atno 11005 bound_to 11000
  145.9313  139.2608  143.1323 LP  0  0  0  0  0  0  0  0  0  0  0  0  # atno 17320 bound_to 7965
  145.9519  140.8902  143.0254 LP  0  0  0  0  0  0  0  0  0  0  0  0  # atno 17321 bound_to 7965
  140.4837  143.2370  151.8918 LP  0  0  0  0  0  0  0  0  0  0  0  0  # atno 17342 bound_to 10162
  139.4789  144.5242  151.8759 LP  0  0  0  0  0  0  0  0  0  0  0  0  # atno 17343 bound_to 10162
  157.7400  130.9843  150.2352 LP  0  0  0  0  0  0  0  0  0  0  0  0  # atno 17370 bound_to 10713
  156.2947  130.3750  149.7807 LP  0  0  0  0  0  0  0  0  0  0  0  0  # atno 17371 bound_to 10713
  140.3360  134.2756  155.7220 LP  0  0  0  0  0  0  0  0  0  0  0  0  # atno 17394 bound_to 11000
  141.2076  133.7801  157.0109 LP  0  0  0  0  0  0  0  0  0  0  0  0  # atno 17395 bound_to 11000

$$$$
