AV-unprocessed.smi:680|AV-procd|sdf|3323|dock8
  -GOLD-   22720 0293D 1   1.00000     0.00000
 Structure written by MMmdl.
 32 33  0  0  0  0  0  0  0  0  1 V2000
  150.8355  142.0692  156.4778 C   0  0  0  0  0  0  0  0  0  0  0  0
  150.5214  140.9361  155.5461 C   0  0  0  0  0  0  0  0  0  0  0  0
  149.2489  140.5042  155.0791 C   0  0  0  0  0  0  0  0  0  0  0  0
  149.5663  139.4479  154.2675 C   0  0  0  0  0  0  0  0  0  0  0  0
  148.7310  138.6550  153.5468 N   0  0  0  0  0  0  0  0  0  0  0  0
  147.3919  138.7170  153.4383 C   0  0  0  0  0  0  0  0  0  0  0  0
  146.6675  139.5407  153.9972 O   0  0  0  0  0  0  0  0  0  0  0  0
  146.9292  137.7481  152.6347 N   0  0  0  0  0  0  0  0  0  0  0  0
  145.5245  137.5063  152.3144 C   0  0  0  0  0  0  0  0  0  0  0  0
  145.2273  136.0035  152.1487 C   0  0  2  0  0  0  0  0  0  0  0  0
  145.8854  135.4500  150.8717 C   0  0  0  0  0  0  0  0  0  0  0  0
  145.8743  133.6355  150.8213 S   0  0  0  0  0  0  0  0  0  0  0  0
  144.0862  133.3345  150.8180 C   0  0  0  0  0  0  0  0  0  0  0  0
  143.4128  133.8828  152.0818 C   0  0  0  0  0  0  0  0  0  0  0  0
  143.4322  135.6962  152.1264 S   0  0  0  0  0  0  0  0  0  0  0  0
  150.9054  139.2433  154.2290 O   0  0  0  0  0  0  0  0  0  0  0  0
  151.5075  140.2010  155.0536 N   0  0  0  0  0  0  0  0  0  0  0  0
  149.9262  142.5783  156.7982 H   0  0  0  0  0  0  0  0  0  0  0  0
  151.4760  142.8080  155.9956 H   0  0  0  0  0  0  0  0  0  0  0  0
  151.3489  141.7133  157.3714 H   0  0  0  0  0  0  0  0  0  0  0  0
  148.2785  140.9159  155.3115 H   0  0  0  0  0  0  0  0  0  0  0  0
  149.1828  137.9117  153.0350 H   0  0  0  0  0  0  0  0  0  0  0  0
  147.6002  137.1176  152.2207 H   0  0  0  0  0  0  0  0  0  0  0  0
  144.8567  137.9417  153.0599 H   0  0  0  0  0  0  0  0  0  0  0  0
  145.3153  138.0283  151.3803 H   0  0  0  0  0  0  0  0  0  0  0  0
  145.6442  135.4778  153.0089 H   0  0  0  0  0  0  0  0  0  0  0  0
  145.3930  135.8417  149.9809 H   0  0  0  0  0  0  0  0  0  0  0  0
  146.9274  135.7668  150.8201 H   0  0  0  0  0  0  0  0  0  0  0  0
  143.6454  133.7766  149.9240 H   0  0  0  0  0  0  0  0  0  0  0  0
  143.9252  132.2583  150.7526 H   0  0  0  0  0  0  0  0  0  0  0  0
  142.3732  133.5566  152.1143 H   0  0  0  0  0  0  0  0  0  0  0  0
  143.8959  133.4920  152.9778 H   0  0  0  0  0  0  0  0  0  0  0  0
  1  2  1  0  0  0  0
  1 18  1  0  0  0  0
  1 19  1  0  0  0  0
  1 20  1  0  0  0  0
  2 17  2  0  0  0  0
  2  3  1  0  0  0  0
  3  4  2  0  0  0  0
  3 21  1  0  0  0  0
  4  5  1  0  0  0  0
  4 16  1  0  0  0  0
  5  6  1  0  0  0  0
  5 22  1  0  0  0  0
  6  7  2  0  0  0  0
  6  8  1  0  0  0  0
  8  9  1  0  0  0  0
  8 23  1  0  0  0  0
  9 10  1  0  0  0  0
  9 24  1  0  0  0  0
  9 25  1  0  0  0  0
 10 15  1  0  0  0  0
 10 11  1  0  0  0  0
 10 26  1  0  0  0  0
 11 12  1  0  0  0  0
 11 27  1  0  0  0  0
 11 28  1  0  0  0  0
 12 13  1  0  0  0  0
 13 14  1  0  0  0  0
 13 29  1  0  0  0  0
 13 30  1  0  0  0  0
 14 15  1  0  0  0  0
 14 31  1  0  0  0  0
 14 32  1  0  0  0  0
 16 17  1  0  0  0  0
M  END
> <s_m_source_file>
AV-unprocessed.smi

> <i_m_source_file_index>
680

> <i_lp_mmshare_version>
43012

> <i_f3d_flags>
0

> <s_epik_input>
W0NIM11jMVtjSF1jKG9uMSlbTkhdQyg9TylbTkhdW0NIMl1bQ0BASF0yW0NIMl1TW0NIMl1bQ0gyXVMy

> <s_epik_cmdline>
J2VwaWtfcHl0aG9uJywgJy1waCcsICc3LjAnLCAnLXRuJywgJzgnLCAnLW1hJywgJzIwMCcsICctbWV0YWxfYmluZGluZycsICctaW1hZScsICc8aW5maWxlLm1hZT4nLCAnLW9tYWUnLCAnPG91dGZpbGUubWFlPic=

> <r_epik_Ionization_Penalty>
0.000554698

> <r_epik_Ionization_Penalty_Charging>
0

> <r_epik_Ionization_Penalty_Neutral>
0.000554698

> <r_epik_State_Penalty>
0.000333438

> <r_epik_Charging_Adjusted_Penalty>
0.000333438

> <i_epik_Tot_Q>
0

> <i_epik_Tot_abs_Q>
0

> <r_epik_Metal_State_Penalty>
-0

> <b_epik_Metal_Only>
0

> <s_lp_Force_Field>
OPLS_2005

> <r_lp_Energy>
4.32293

> <b_lp_Chiralities_Consistent>
1

> <s_lp_Variant>
AV-unprocessed.smi:680-1

> <Gold.Version>
5.8.1

> <Gold.Id.Protein>
6NUR|6NUR_protein|mol2

> <Gold.PLP.Fitness>
37.0126

> <Gold.PLP.PLP>
-31.6105

> <Gold.PLP.part.hbond>
-5.0000

> <Gold.PLP.part.metal>
0.0000

> <Gold.PLP.part.buried>
-3.3667

> <Gold.PLP.part.nonpolar>
-23.1689

> <Gold.PLP.part.repulsive>
0.4524

> <Gold.PLP.ligand.clash>
0.0000

> <Gold.PLP.ligand.torsion>
0.2405

> <Gold.PLP.Chemscore.Hbond>
1.9600

> <Gold.PLP.Chemscore.CHOScore>
0.0000

> <Gold.PLP.Chemscore.Metal>
0.0000

> <Gold.Chemscore.Hbonds>
donor molecule, donor type, donor heavy atom, donor atom, acceptor molecule, acceptor atom, score
      L1  H     5    22       P1  7948  0.95
      L1  H     8    23       P1  7948  1.00

> <Gold.PLP.Chemscore.Internal.Correction>
0.0030

> <Gold.Rescore>
     Score         DG    S(hbond)    S(metal)    S(lipo)     H(rot)  DE(clash)    DE(int)     intcor
     14.61     -16.00       1.94        0.00      61.96       1.26       0.01       1.37       ----

> <Gold.Chemscore.Fitness>
14.6118

> <Gold.Chemscore.DG>
-16.0008

> <Gold.Chemscore.ZeroCoef>
-5.4800

> <Gold.Chemscore.Hbond>
1.9444

> <Gold.Chemscore.Metal>
0.0000

> <Gold.Chemscore.Lipo>
61.9633

> <Gold.Chemscore.Internal_Hbond>
0.0000

> <Gold.Chemscore.DEClash>
0.0143

> <Gold.Chemscore.DEInternal>
1.3747

> <Gold.Chemscore.Rot>
1.2590

> <Gold.Chemscore.Internal.Correction>
   9.000000E+99

> <Gold.Chemscore.Hbonds>
donor molecule, donor type, donor heavy atom, donor atom, acceptor molecule, acceptor atom, score
      L1  H     5    22       P1  7948  0.84
      L1  H     8    23       P1  7948  1.00

> <Gold.Chemscore.Hbond.Weighted>
-6.4943

> <Gold.Chemscore.Metal.Weighted>
-0.0000

> <Gold.Chemscore.Lipo.Weighted>
-7.2497

> <Gold.Chemscore.Internal_Hbond.Weighted>
0.0000

> <Gold.Chemscore.DEClash.Weighted>
0.0143

> <Gold.Chemscore.DEInternal.Weighted>
1.3747

> <Gold.Chemscore.Rot.Weighted>
3.2232

> <Gold.Chemscore.Internal.Correction.Weighted>
   9.000000E+99

> <Gold.Protein.RotatedTorsions>
[ 6907 6896 6895 6894 ] final -105.33 input  -60.11 | X-H torsion
[ 7974 7965 7964 7962 ] final   55.18 input  175.53 | X-H torsion
[ 8008 7997 7996 7995 ] final  121.85 input   59.86 | X-H torsion
[ 10167 10162 10161 10158 ] final   62.37 input  -65.29 | X-H torsion
[ 10718 10713 10712 10709 ] final -169.33 input   66.30 | X-H torsion
[ 10763 10752 10751 10750 ] final  -28.65 input  -60.55 | X-H torsion
[ 11005 11000 10999 10996 ] final  -42.07 input  -57.11 | X-H torsion

> <Gold.Protein.ActiveResidues>
 VAL166  LYS551  ARG553  GLY616  TRP617  ASP618  TYR619  PRO620  LYS621  CYS622 
 ASP623  PHE694  ASN695  SER759  ASP760  ASP761  ALA762  ILE779  LEU786  VAL792 
 PHE793  MET794  SER795  GLU796  ALA797  LYS798  CYS799  TRP800  GLU811  SER814 

> <Gold.Protein.RotatedAtoms>
  150.7331  134.0142  159.3679 H   0  0  0  0  0  0  0  0  0  0  0  0  # atno 6907 bound_to 6896
  151.8104  135.0680  160.0421 H   0  0  0  0  0  0  0  0  0  0  0  0  # atno 6908 bound_to 6896
  152.3077  133.5684  159.5696 H   0  0  0  0  0  0  0  0  0  0  0  0  # atno 6909 bound_to 6896
  145.9531  139.3990  143.0294 H   0  0  0  0  0  0  0  0  0  0  0  0  # atno 7974 bound_to 7965
  156.2703  140.2799  156.1373 H   0  0  0  0  0  0  0  0  0  0  0  0  # atno 8008 bound_to 7997
  155.0990  140.0389  157.2709 H   0  0  0  0  0  0  0  0  0  0  0  0  # atno 8009 bound_to 7997
  154.6830  140.2612  155.6895 H   0  0  0  0  0  0  0  0  0  0  0  0  # atno 8010 bound_to 7997
  140.1446  144.4521  150.6792 H   0  0  0  0  0  0  0  0  0  0  0  0  # atno 10167 bound_to 10162
  156.7100  130.9230  151.3088 H   0  0  0  0  0  0  0  0  0  0  0  0  # atno 10718 bound_to 10713
  153.7518  135.6925  153.4944 H   0  0  0  0  0  0  0  0  0  0  0  0  # atno 10763 bound_to 10752
  153.1998  135.4441  155.0251 H   0  0  0  0  0  0  0  0  0  0  0  0  # atno 10764 bound_to 10752
  154.8184  135.3410  154.7038 H   0  0  0  0  0  0  0  0  0  0  0  0  # atno 10765 bound_to 10752
  141.0290  133.6828  156.2543 H   0  0  0  0  0  0  0  0  0  0  0  0  # atno 11005 bound_to 11000
  145.8143  140.9710  143.0932 LP  0  0  0  0  0  0  0  0  0  0  0  0  # atno 17320 bound_to 7965
  144.6800  139.9961  143.7484 LP  0  0  0  0  0  0  0  0  0  0  0  0  # atno 17321 bound_to 7965
  140.6740  143.2297  151.5555 LP  0  0  0  0  0  0  0  0  0  0  0  0  # atno 17342 bound_to 10162
  139.5455  144.2532  152.1434 LP  0  0  0  0  0  0  0  0  0  0  0  0  # atno 17343 bound_to 10162
  157.6940  130.9262  150.0592 LP  0  0  0  0  0  0  0  0  0  0  0  0  # atno 17370 bound_to 10713
  156.1668  130.3645  149.9221 LP  0  0  0  0  0  0  0  0  0  0  0  0  # atno 17371 bound_to 10713
  140.6441  134.5135  157.5572 LP  0  0  0  0  0  0  0  0  0  0  0  0  # atno 17394 bound_to 11000
  139.9195  134.8178  156.1257 LP  0  0  0  0  0  0  0  0  0  0  0  0  # atno 17395 bound_to 11000

$$$$
