AV-unprocessed.smi:3048|AV-procd|sdf|11628|dock2
  -GOLD-   2272017 13D 1   1.00000     0.00000
 Structure written by MMmdl.
 37 38  0  0  0  0  0  0  0  0  1 V2000
  146.9028  140.4456  153.6412 C   0  0  0  0  0  0  0  0  0  0  0  0
  148.2564  140.5859  154.2758 C   0  0  0  0  0  0  0  0  0  0  0  0
  149.3962  139.7510  154.0980 C   0  0  0  0  0  0  0  0  0  0  0  0
  150.4400  140.1467  154.8081 N   0  0  0  0  0  0  0  0  0  0  0  0
  150.0050  141.2440  155.4629 N   0  0  0  0  0  0  0  0  0  0  0  0
  150.9002  141.9530  156.3590 C   0  0  0  0  0  0  0  0  0  0  0  0
  150.2847  142.1691  157.7510 C   0  0  0  0  0  0  0  0  0  0  0  0
  150.1580  143.5893  158.0661 N   0  0  0  0  0  0  0  0  0  0  0  0
  151.4205  144.3163  157.9906 C   0  0  0  0  0  0  0  0  0  0  0  0
  152.3251  143.9809  159.1860 C   0  0  1  0  0  0  0  0  0  0  0  0
  151.5976  144.1937  160.5278 C   0  0  0  0  0  0  0  0  0  0  0  0
  152.4894  143.7665  161.6996 C   0  0  0  0  0  0  0  0  0  0  0  0
  152.9855  142.3339  161.4768 C   0  0  0  0  0  0  0  0  0  0  0  0
  153.6317  142.2035  160.0887 C   0  0  0  0  0  0  0  0  0  0  0  0
  152.7066  142.6099  159.0849 O   0  0  0  0  0  0  0  0  0  0  0  0
  148.6915  141.5329  155.1590 C   0  0  0  0  0  0  0  0  0  0  0  0
  146.9617  139.9619  152.6660 H   0  0  0  0  0  0  0  0  0  0  0  0
  146.4245  141.4136  153.4907 H   0  0  0  0  0  0  0  0  0  0  0  0
  146.2318  139.8469  154.2577 H   0  0  0  0  0  0  0  0  0  0  0  0
  149.4948  138.8725  153.4773 H   0  0  0  0  0  0  0  0  0  0  0  0
  151.8234  141.3784  156.4470 H   0  0  0  0  0  0  0  0  0  0  0  0
  151.1698  142.9083  155.9061 H   0  0  0  0  0  0  0  0  0  0  0  0
  149.3093  141.6834  157.7990 H   0  0  0  0  0  0  0  0  0  0  0  0
  150.9106  141.6819  158.4993 H   0  0  0  0  0  0  0  0  0  0  0  0
  149.7580  143.6980  158.9929 H   0  0  0  0  0  0  0  0  0  0  0  0
  151.9348  144.0411  157.0688 H   0  0  0  0  0  0  0  0  0  0  0  0
  151.2444  145.3916  157.9405 H   0  0  0  0  0  0  0  0  0  0  0  0
  153.2144  144.6138  159.1558 H   0  0  0  0  0  0  0  0  0  0  0  0
  151.3121  145.2400  160.6417 H   0  0  0  0  0  0  0  0  0  0  0  0
  150.6737  143.6138  160.5418 H   0  0  0  0  0  0  0  0  0  0  0  0
  153.3419  144.4424  161.7773 H   0  0  0  0  0  0  0  0  0  0  0  0
  151.9437  143.8389  162.6410 H   0  0  0  0  0  0  0  0  0  0  0  0
  153.6970  142.0546  162.2544 H   0  0  0  0  0  0  0  0  0  0  0  0
  152.1480  141.6394  161.5540 H   0  0  0  0  0  0  0  0  0  0  0  0
  154.5417  142.8022  160.0239 H   0  0  0  0  0  0  0  0  0  0  0  0
  153.9192  141.1683  159.9047 H   0  0  0  0  0  0  0  0  0  0  0  0
  148.1797  142.3778  155.5960 H   0  0  0  0  0  0  0  0  0  0  0  0
  1  2  1  0  0  0  0
  1 17  1  0  0  0  0
  1 18  1  0  0  0  0
  1 19  1  0  0  0  0
  2 16  2  0  0  0  0
  2  3  1  0  0  0  0
  3  4  2  0  0  0  0
  3 20  1  0  0  0  0
  4  5  1  0  0  0  0
  5  6  1  0  0  0  0
  5 16  1  0  0  0  0
  6  7  1  0  0  0  0
  6 21  1  0  0  0  0
  6 22  1  0  0  0  0
  7  8  1  0  0  0  0
  7 23  1  0  0  0  0
  7 24  1  0  0  0  0
  8  9  1  0  0  0  0
  8 25  1  0  0  0  0
  9 10  1  0  0  0  0
  9 26  1  0  0  0  0
  9 27  1  0  0  0  0
 10 15  1  0  0  0  0
 10 11  1  0  0  0  0
 10 28  1  0  0  0  0
 11 12  1  0  0  0  0
 11 29  1  0  0  0  0
 11 30  1  0  0  0  0
 12 13  1  0  0  0  0
 12 31  1  0  0  0  0
 12 32  1  0  0  0  0
 13 14  1  0  0  0  0
 13 33  1  0  0  0  0
 13 34  1  0  0  0  0
 14 15  1  0  0  0  0
 14 35  1  0  0  0  0
 14 36  1  0  0  0  0
 16 37  1  0  0  0  0
M  END
> <s_m_source_file>
AV-unprocessed.smi

> <i_m_source_file_index>
3048

> <i_lp_mmshare_version>
43012

> <i_f3d_flags>
0

> <s_epik_input>
W0NIM11jMVtjSF1ubihbY0hdMSlbQ0gyXVtDSDJdW05IXVtDSDJdW0NAQEhdMltDSDJdW0NIMl1bQ0gyXVtDSDJdTzI=

> <s_epik_cmdline>
J2VwaWtfcHl0aG9uJywgJy1waCcsICc3LjAnLCAnLXRuJywgJzgnLCAnLW1hJywgJzIwMCcsICctbWV0YWxfYmluZGluZycsICctaW1hZScsICc8aW5maWxlLm1hZT4nLCAnLW9tYWUnLCAnPG91dGZpbGUubWFlPic=

> <r_lp_tautomer_probability>
1

> <r_epik_Ionization_Penalty>
2.52229

> <r_epik_Ionization_Penalty_Charging>
0

> <r_epik_Ionization_Penalty_Neutral>
2.52229

> <r_epik_State_Penalty>
2.68614

> <r_epik_Charging_Adjusted_Penalty>
2.68614

> <i_epik_Tot_Q>
0

> <i_epik_Tot_abs_Q>
0

> <r_epik_Metal_State_Penalty>
2.68365

> <b_epik_Metal_Only>
0

> <s_lp_Force_Field>
OPLS_2005

> <r_lp_Energy>
12.9812

> <b_lp_Chiralities_Consistent>
1

> <s_lp_Variant>
AV-unprocessed.smi:3048-4

> <Gold.Version>
5.8.1

> <Gold.Id.Protein>
6NUR|6NUR_protein|mol2

> <Gold.PLP.Fitness>
50.0423

> <Gold.PLP.PLP>
-43.7744

> <Gold.PLP.part.hbond>
-2.0202

> <Gold.PLP.part.metal>
0.0000

> <Gold.PLP.part.buried>
-1.6201

> <Gold.PLP.part.nonpolar>
-38.5865

> <Gold.PLP.part.repulsive>
0.0708

> <Gold.PLP.ligand.clash>
0.0000

> <Gold.PLP.ligand.torsion>
0.5076

> <Gold.PLP.Chemscore.Hbond>
1.0000

> <Gold.PLP.Chemscore.CHOScore>
1.3822

> <Gold.PLP.Chemscore.Metal>
0.0000

> <Gold.Chemscore.Hbonds>
donor molecule, donor type, donor heavy atom, donor atom, acceptor molecule, acceptor atom, score
      P1  H  7989  7998       L1     4  1.00
      L1  C     3    20       P1  7957  0.33
      L1  C    16    37       P1  8028  0.98

> <Gold.PLP.Chemscore.Internal.Correction>
0.1366

> <Gold.Rescore>
     Score         DG    S(hbond)    S(metal)    S(lipo)     H(rot)  DE(clash)    DE(int)     intcor
     14.75     -17.00       0.75        0.00     110.89       1.54       0.19       2.05       ----

> <Gold.Chemscore.Fitness>
14.7537

> <Gold.Chemscore.DG>
-16.9999

> <Gold.Chemscore.ZeroCoef>
-5.4800

> <Gold.Chemscore.Hbond>
0.7457

> <Gold.Chemscore.Metal>
0.0000

> <Gold.Chemscore.Lipo>
110.8927

> <Gold.Chemscore.Internal_Hbond>
0.0000

> <Gold.Chemscore.DEClash>
0.1915

> <Gold.Chemscore.DEInternal>
2.0547

> <Gold.Chemscore.Rot>
1.5411

> <Gold.Chemscore.Internal.Correction>
   9.000000E+99

> <Gold.Chemscore.Hbonds>
donor molecule, donor type, donor heavy atom, donor atom, acceptor molecule, acceptor atom, score
      P1  H  7989  7998       L1     4  0.16

> <Gold.Chemscore.Hbond.Weighted>
-2.4906

> <Gold.Chemscore.Metal.Weighted>
-0.0000

> <Gold.Chemscore.Lipo.Weighted>
-12.9744

> <Gold.Chemscore.Internal_Hbond.Weighted>
0.0000

> <Gold.Chemscore.DEClash.Weighted>
0.1915

> <Gold.Chemscore.DEInternal.Weighted>
2.0547

> <Gold.Chemscore.Rot.Weighted>
3.9452

> <Gold.Chemscore.Internal.Correction.Weighted>
   9.000000E+99

> <Gold.Protein.RotatedTorsions>
[ 6907 6896 6895 6894 ] final   -8.10 input  -60.11 | X-H torsion
[ 7974 7965 7964 7962 ] final   52.17 input  175.53 | X-H torsion
[ 8008 7997 7996 7995 ] final -153.84 input   59.86 | X-H torsion
[ 10167 10162 10161 10158 ] final -164.77 input  -65.29 | X-H torsion
[ 10718 10713 10712 10709 ] final -168.57 input   66.30 | X-H torsion
[ 10763 10752 10751 10750 ] final   -0.07 input  -60.55 | X-H torsion
[ 11005 11000 10999 10996 ] final   42.11 input  -57.11 | X-H torsion

> <Gold.Protein.ActiveResidues>
 VAL166  LYS551  ARG553  GLY616  TRP617  ASP618  TYR619  PRO620  LYS621  CYS622 
 ASP623  PHE694  ASN695  SER759  ASP760  ASP761  ALA762  ILE779  LEU786  VAL792 
 PHE793  MET794  SER795  GLU796  ALA797  LYS798  CYS799  TRP800  GLU811  SER814 

> <Gold.Protein.RotatedAtoms>
  151.4390  135.1018  159.9664 H   0  0  0  0  0  0  0  0  0  0  0  0  # atno 6907 bound_to 6896
  152.4929  133.8546  159.7229 H   0  0  0  0  0  0  0  0  0  0  0  0  # atno 6908 bound_to 6896
  150.9101  133.6949  159.2884 H   0  0  0  0  0  0  0  0  0  0  0  0  # atno 6909 bound_to 6896
  145.9840  139.4271  143.0114 H   0  0  0  0  0  0  0  0  0  0  0  0  # atno 7974 bound_to 7965
  155.6771  140.0740  157.2498 H   0  0  0  0  0  0  0  0  0  0  0  0  # atno 8008 bound_to 7997
  154.4112  140.1688  156.1993 H   0  0  0  0  0  0  0  0  0  0  0  0  # atno 8009 bound_to 7997
  155.9567  140.3373  155.6458 H   0  0  0  0  0  0  0  0  0  0  0  0  # atno 8010 bound_to 7997
  139.6227  144.0592  152.1947 H   0  0  0  0  0  0  0  0  0  0  0  0  # atno 10167 bound_to 10162
  156.6988  130.9188  151.3077 H   0  0  0  0  0  0  0  0  0  0  0  0  # atno 10718 bound_to 10713
  153.3272  135.6973  153.6979 H   0  0  0  0  0  0  0  0  0  0  0  0  # atno 10763 bound_to 10752
  153.5796  135.3500  155.2870 H   0  0  0  0  0  0  0  0  0  0  0  0  # atno 10764 bound_to 10752
  154.8610  135.4292  154.2451 H   0  0  0  0  0  0  0  0  0  0  0  0  # atno 10765 bound_to 10752
  140.1770  134.4151  155.8223 H   0  0  0  0  0  0  0  0  0  0  0  0  # atno 11005 bound_to 11000
  145.7728  140.9889  143.1140 LP  0  0  0  0  0  0  0  0  0  0  0  0  # atno 17320 bound_to 7965
  144.6869  139.9468  143.7477 LP  0  0  0  0  0  0  0  0  0  0  0  0  # atno 17321 bound_to 7965
  140.0238  144.6133  150.7544 LP  0  0  0  0  0  0  0  0  0  0  0  0  # atno 17342 bound_to 10162
  140.7392  143.2788  151.3660 LP  0  0  0  0  0  0  0  0  0  0  0  0  # atno 17343 bound_to 10162
  157.6981  130.9303  150.0703 LP  0  0  0  0  0  0  0  0  0  0  0  0  # atno 17370 bound_to 10713
  156.1744  130.3647  149.9121 LP  0  0  0  0  0  0  0  0  0  0  0  0  # atno 17371 bound_to 10713
  141.2221  133.6982  156.7864 LP  0  0  0  0  0  0  0  0  0  0  0  0  # atno 17394 bound_to 11000
  140.2311  134.8685  157.3478 LP  0  0  0  0  0  0  0  0  0  0  0  0  # atno 17395 bound_to 11000

$$$$
