AV-unprocessed.smi:2891|AV-procd|sdf|11117|dock5
  -GOLD-   2272015583D 1   1.00000     0.00000
 Structure written by MMmdl.
 35 36  0  0  0  0  0  0  0  0  1 V2000
  152.9084  138.8337  158.4361 C   0  0  0  0  0  0  0  0  0  0  0  0
  153.6480  139.9995  158.7551 O   0  0  0  0  0  0  0  0  0  0  0  0
  153.6256  140.2926  160.1417 C   0  0  0  0  0  0  0  0  0  0  0  0
  154.0037  141.7675  160.3451 C   0  0  0  0  0  0  0  0  0  0  0  0
  152.8491  142.6511  160.1354 N   0  0  0  0  0  0  0  0  0  0  0  0
  152.1569  142.5197  158.9165 C   0  0  0  0  0  0  0  0  0  0  0  0
  151.0796  143.2631  158.6055 C   0  0  0  0  0  0  0  0  0  0  0  0
  150.4687  143.0391  157.3634 N   0  0  0  0  0  0  0  0  0  0  0  0
  150.4074  141.9083  156.6358 C   0  0  0  0  0  0  0  0  0  0  0  0
  150.9064  140.8254  156.9399 O   0  0  0  0  0  0  0  0  0  0  0  0
  149.7213  142.1094  155.5025 N   0  0  0  0  0  0  0  0  0  0  0  0
  149.4742  141.1269  154.4966 C   0  0  0  0  0  0  0  0  0  0  0  0
  148.0555  140.9844  153.9886 C   0  0  0  0  0  0  0  0  0  0  0  0
  148.6401  139.9233  154.8792 C   0  0  0  0  0  0  0  0  0  0  0  0
  150.6479  144.2380  159.5967 C   0  0  0  0  0  0  0  0  0  0  0  0
  151.2989  144.3643  160.7697 C   0  0  0  0  0  0  0  0  0  0  0  0
  152.4619  143.5371  161.1000 C   0  0  0  0  0  0  0  0  0  0  0  0
  153.0501  143.6350  162.1772 O   0  0  0  0  0  0  0  0  0  0  0  0
  152.9547  138.6519  157.3626 H   0  0  0  0  0  0  0  0  0  0  0  0
  151.8593  138.9437  158.7138 H   0  0  0  0  0  0  0  0  0  0  0  0
  153.3152  137.9580  158.9437 H   0  0  0  0  0  0  0  0  0  0  0  0
  152.6304  140.1003  160.5462 H   0  0  0  0  0  0  0  0  0  0  0  0
  154.3273  139.6446  160.6695 H   0  0  0  0  0  0  0  0  0  0  0  0
  154.4215  141.9101  161.3434 H   0  0  0  0  0  0  0  0  0  0  0  0
  154.8104  142.0348  159.6609 H   0  0  0  0  0  0  0  0  0  0  0  0
  152.5567  141.7657  158.2529 H   0  0  0  0  0  0  0  0  0  0  0  0
  150.0156  143.8486  156.9655 H   0  0  0  0  0  0  0  0  0  0  0  0
  149.3459  143.0312  155.3343 H   0  0  0  0  0  0  0  0  0  0  0  0
  150.2617  140.9499  153.7652 H   0  0  0  0  0  0  0  0  0  0  0  0
  147.2937  141.6350  154.4147 H   0  0  0  0  0  0  0  0  0  0  0  0
  147.9212  140.7390  152.9370 H   0  0  0  0  0  0  0  0  0  0  0  0
  148.8978  138.9698  154.4222 H   0  0  0  0  0  0  0  0  0  0  0  0
  148.2666  139.8642  155.8999 H   0  0  0  0  0  0  0  0  0  0  0  0
  149.8059  144.8884  159.4262 H   0  0  0  0  0  0  0  0  0  0  0  0
  150.9574  145.0972  161.4858 H   0  0  0  0  0  0  0  0  0  0  0  0
  1  2  1  0  0  0  0
  1 19  1  0  0  0  0
  1 20  1  0  0  0  0
  1 21  1  0  0  0  0
  2  3  1  0  0  0  0
  3  4  1  0  0  0  0
  3 22  1  0  0  0  0
  3 23  1  0  0  0  0
  4  5  1  0  0  0  0
  4 24  1  0  0  0  0
  4 25  1  0  0  0  0
  5 17  1  0  0  0  0
  5  6  1  0  0  0  0
  6  7  2  0  0  0  0
  6 26  1  0  0  0  0
  7  8  1  0  0  0  0
  7 15  1  0  0  0  0
  8  9  1  0  0  0  0
  8 27  1  0  0  0  0
  9 10  2  0  0  0  0
  9 11  1  0  0  0  0
 11 12  1  0  0  0  0
 11 28  1  0  0  0  0
 12 14  1  0  0  0  0
 12 13  1  0  0  0  0
 12 29  1  0  0  0  0
 13 14  1  0  0  0  0
 13 30  1  0  0  0  0
 13 31  1  0  0  0  0
 14 32  1  0  0  0  0
 14 33  1  0  0  0  0
 15 16  2  0  0  0  0
 15 34  1  0  0  0  0
 16 17  1  0  0  0  0
 16 35  1  0  0  0  0
 17 18  2  0  0  0  0
M  END
> <s_m_source_file>
AV-unprocessed.smi

> <i_m_source_file_index>
2891

> <i_lp_mmshare_version>
43012

> <i_f3d_flags>
0

> <s_epik_input>
W0NIM11PW0NIMl1bQ0gyXW4xW2NIXWMoW2NIXVtjSF1jMT1PKVtOSF1DKD1PKVtOSF1bQ0hdMltDSDJdW0NIMl0y

> <s_epik_cmdline>
J2VwaWtfcHl0aG9uJywgJy1waCcsICc3LjAnLCAnLXRuJywgJzgnLCAnLW1hJywgJzIwMCcsICctbWV0YWxfYmluZGluZycsICctaW1hZScsICc8aW5maWxlLm1hZT4nLCAnLW9tYWUnLCAnPG91dGZpbGUubWFlPic=

> <r_lp_tautomer_probability>
1

> <r_epik_Ionization_Penalty>
2.77726e-05

> <r_epik_Ionization_Penalty_Charging>
5.82689e-06

> <r_epik_Ionization_Penalty_Neutral>
2.19457e-05

> <r_epik_State_Penalty>
-0

> <r_epik_Charging_Adjusted_Penalty>
5.82689e-06

> <i_epik_Tot_Q>
0

> <i_epik_Tot_abs_Q>
0

> <r_epik_Metal_State_Penalty>
-0

> <b_epik_Metal_Only>
0

> <s_lp_Force_Field>
OPLS_2005

> <r_lp_Energy>
28.443

> <b_lp_Chiralities_Consistent>
1

> <s_lp_Variant>
AV-unprocessed.smi:2891-1

> <Gold.Version>
5.8.1

> <Gold.Id.Protein>
6NUR|6NUR_protein|mol2

> <Gold.PLP.Fitness>
45.4110

> <Gold.PLP.PLP>
-37.3538

> <Gold.PLP.part.hbond>
-3.0000

> <Gold.PLP.part.metal>
0.0000

> <Gold.PLP.part.buried>
-1.5040

> <Gold.PLP.part.nonpolar>
-32.3232

> <Gold.PLP.part.repulsive>
0.3488

> <Gold.PLP.ligand.clash>
0.0000

> <Gold.PLP.ligand.torsion>
0.4831

> <Gold.PLP.Chemscore.Hbond>
2.9920

> <Gold.PLP.Chemscore.CHOScore>
0.0000

> <Gold.PLP.Chemscore.Metal>
0.0000

> <Gold.Chemscore.Hbonds>
donor molecule, donor type, donor heavy atom, donor atom, acceptor molecule, acceptor atom, score
      L1  H     8    27       P1  8028  1.00
      L1  H    11    28       P1  8028  1.00
      P1  H  7997  8008       L1     2  0.99

> <Gold.PLP.Chemscore.Internal.Correction>
0.0475

> <Gold.Rescore>
     Score         DG    S(hbond)    S(metal)    S(lipo)     H(rot)  DE(clash)    DE(int)     intcor
     17.53     -20.40       2.88        0.00      81.81       1.67       1.07       1.80       ----

> <Gold.Chemscore.Fitness>
17.5280

> <Gold.Chemscore.DG>
-20.4005

> <Gold.Chemscore.ZeroCoef>
-5.4800

> <Gold.Chemscore.Hbond>
2.8835

> <Gold.Chemscore.Metal>
0.0000

> <Gold.Chemscore.Lipo>
81.8149

> <Gold.Chemscore.Internal_Hbond>
0.0000

> <Gold.Chemscore.DEClash>
1.0703

> <Gold.Chemscore.DEInternal>
1.8023

> <Gold.Chemscore.Rot>
1.6730

> <Gold.Chemscore.Internal.Correction>
   9.000000E+99

> <Gold.Chemscore.Hbonds>
donor molecule, donor type, donor heavy atom, donor atom, acceptor molecule, acceptor atom, score
      L1  H     8    27       P1  8028  0.95
      L1  H    11    28       P1  8028  1.00
      P1  H  7997  8008       L1     2  0.24

> <Gold.Chemscore.Hbond.Weighted>
-9.6310

> <Gold.Chemscore.Metal.Weighted>
-0.0000

> <Gold.Chemscore.Lipo.Weighted>
-9.5723

> <Gold.Chemscore.Internal_Hbond.Weighted>
0.0000

> <Gold.Chemscore.DEClash.Weighted>
1.0703

> <Gold.Chemscore.DEInternal.Weighted>
1.8023

> <Gold.Chemscore.Rot.Weighted>
4.2828

> <Gold.Chemscore.Internal.Correction.Weighted>
   9.000000E+99

> <Gold.Protein.RotatedTorsions>
[ 6907 6896 6895 6894 ] final  142.61 input  -60.11 | X-H torsion
[ 7974 7965 7964 7962 ] final  116.41 input  175.53 | X-H torsion
[ 8008 7997 7996 7995 ] final -107.70 input   59.86 | X-H torsion
[ 10167 10162 10161 10158 ] final   83.02 input  -65.29 | X-H torsion
[ 10718 10713 10712 10709 ] final   42.44 input   66.30 | X-H torsion
[ 10763 10752 10751 10750 ] final -178.88 input  -60.55 | X-H torsion
[ 11005 11000 10999 10996 ] final -149.95 input  -57.11 | X-H torsion

> <Gold.Protein.ActiveResidues>
 VAL166  LYS551  ARG553  GLY616  TRP617  ASP618  TYR619  PRO620  LYS621  CYS622 
 ASP623  PHE694  ASN695  SER759  ASP760  ASP761  ALA762  ILE779  LEU786  VAL792 
 PHE793  MET794  SER795  GLU796  ALA797  LYS798  CYS799  TRP800  GLU811  SER814 

> <Gold.Protein.RotatedAtoms>
  152.2166  133.4951  159.5138 H   0  0  0  0  0  0  0  0  0  0  0  0  # atno 6907 bound_to 6896
  150.7002  134.1398  159.4109 H   0  0  0  0  0  0  0  0  0  0  0  0  # atno 6908 bound_to 6896
  151.9318  135.0253  160.0580 H   0  0  0  0  0  0  0  0  0  0  0  0  # atno 6909 bound_to 6896
  145.1800  139.3055  143.4423 H   0  0  0  0  0  0  0  0  0  0  0  0  # atno 7974 bound_to 7965
  154.9332  140.0404  157.2059 H   0  0  0  0  0  0  0  0  0  0  0  0  # atno 8008 bound_to 7997
  154.8140  140.2872  155.5811 H   0  0  0  0  0  0  0  0  0  0  0  0  # atno 8009 bound_to 7997
  156.2974  140.2531  156.3034 H   0  0  0  0  0  0  0  0  0  0  0  0  # atno 8010 bound_to 7997
  139.9228  144.6202  150.8423 H   0  0  0  0  0  0  0  0  0  0  0  0  # atno 10167 bound_to 10162
  157.4049  130.7881  149.7380 H   0  0  0  0  0  0  0  0  0  0  0  0  # atno 10718 bound_to 10713
  154.5421  135.2807  155.1086 H   0  0  0  0  0  0  0  0  0  0  0  0  # atno 10763 bound_to 10752
  154.2565  135.6329  153.5263 H   0  0  0  0  0  0  0  0  0  0  0  0  # atno 10764 bound_to 10752
  152.9981  135.5595  154.5963 H   0  0  0  0  0  0  0  0  0  0  0  0  # atno 10765 bound_to 10752
  140.7453  134.3468  157.5138 H   0  0  0  0  0  0  0  0  0  0  0  0  # atno 11005 bound_to 11000
  146.3455  140.1976  142.8589 LP  0  0  0  0  0  0  0  0  0  0  0  0  # atno 17320 bound_to 7965
  145.0146  140.8743  143.5203 LP  0  0  0  0  0  0  0  0  0  0  0  0  # atno 17321 bound_to 7965
  140.7658  143.3285  151.2462 LP  0  0  0  0  0  0  0  0  0  0  0  0  # atno 17342 bound_to 10162
  139.6848  143.9793  152.2828 LP  0  0  0  0  0  0  0  0  0  0  0  0  # atno 17343 bound_to 10162
  155.9833  130.4001  150.3368 LP  0  0  0  0  0  0  0  0  0  0  0  0  # atno 17370 bound_to 10713
  157.1500  131.0318  151.2889 LP  0  0  0  0  0  0  0  0  0  0  0  0  # atno 17371 bound_to 10713
  139.8798  134.9107  156.3021 LP  0  0  0  0  0  0  0  0  0  0  0  0  # atno 17394 bound_to 11000
  140.9800  133.7273  156.0657 LP  0  0  0  0  0  0  0  0  0  0  0  0  # atno 17395 bound_to 11000

$$$$
