AV-unprocessed.smi:721|AV-procd|sdf|3503|dock1
  -GOLD-   22720 0493D 1   1.00000     0.00000
 Structure written by MMmdl.
 29 30  0  0  0  0  0  0  0  0  1 V2000
  151.7715  145.5399  159.8294 Cl  0  0  0  0  0  0  0  0  0  0  0  0
  151.7519  143.8878  159.3328 C   0  0  0  0  0  0  0  0  0  0  0  0
  152.3489  142.8733  160.1073 C   0  0  0  0  0  0  0  0  0  0  0  0
  152.3313  141.5805  159.7145 N   0  0  0  0  0  0  0  0  0  0  0  0
  151.7219  141.3041  158.5581 C   0  0  0  0  0  0  0  0  0  0  0  0
  151.7238  139.9702  158.1922 N   0  0  0  0  0  0  0  0  0  0  0  0
  151.0912  139.4327  156.9951 C   0  0  0  0  0  0  0  0  0  0  0  0
  151.7215  139.9788  155.7070 C   0  0  0  0  0  0  0  0  0  0  0  0
  150.7120  140.1230  154.7220 O   0  0  0  0  0  0  0  0  0  0  0  0
  149.7146  141.0568  155.0963 C   0  0  0  0  0  0  0  0  0  0  0  0
  148.6614  141.1113  154.0110 C   0  0  0  0  0  0  0  0  0  0  0  0
  147.4800  142.0456  154.1359 C   0  0  0  0  0  0  0  0  0  0  0  0
  147.2766  140.5565  154.2559 C   0  0  0  0  0  0  0  0  0  0  0  0
  151.1268  142.1872  157.7460 N   0  0  0  0  0  0  0  0  0  0  0  0
  151.1385  143.4821  158.1311 C   0  0  0  0  0  0  0  0  0  0  0  0
  152.8414  143.0965  161.0421 H   0  0  0  0  0  0  0  0  0  0  0  0
  152.0978  139.3129  158.8616 H   0  0  0  0  0  0  0  0  0  0  0  0
  151.1603  138.3446  157.0108 H   0  0  0  0  0  0  0  0  0  0  0  0
  150.0281  139.6729  157.0209 H   0  0  0  0  0  0  0  0  0  0  0  0
  152.2250  140.9295  155.8883 H   0  0  0  0  0  0  0  0  0  0  0  0
  152.4753  139.2757  155.3498 H   0  0  0  0  0  0  0  0  0  0  0  0
  149.2434  140.7578  156.0338 H   0  0  0  0  0  0  0  0  0  0  0  0
  150.1509  142.0470  155.2386 H   0  0  0  0  0  0  0  0  0  0  0  0
  149.0583  140.9749  153.0066 H   0  0  0  0  0  0  0  0  0  0  0  0
  147.3989  142.6397  155.0441 H   0  0  0  0  0  0  0  0  0  0  0  0
  147.1277  142.5315  153.2284 H   0  0  0  0  0  0  0  0  0  0  0  0
  146.7864  140.0476  153.4285 H   0  0  0  0  0  0  0  0  0  0  0  0
  147.0552  140.1599  155.2449 H   0  0  0  0  0  0  0  0  0  0  0  0
  150.6571  144.1941  157.4770 H   0  0  0  0  0  0  0  0  0  0  0  0
  1  2  1  0  0  0  0
  2 15  1  0  0  0  0
  2  3  2  0  0  0  0
  3  4  1  0  0  0  0
  3 16  1  0  0  0  0
  4  5  2  0  0  0  0
  5  6  1  0  0  0  0
  5 14  1  0  0  0  0
  6  7  1  0  0  0  0
  6 17  1  0  0  0  0
  7  8  1  0  0  0  0
  7 18  1  0  0  0  0
  7 19  1  0  0  0  0
  8  9  1  0  0  0  0
  8 20  1  0  0  0  0
  8 21  1  0  0  0  0
  9 10  1  0  0  0  0
 10 11  1  0  0  0  0
 10 22  1  0  0  0  0
 10 23  1  0  0  0  0
 11 13  1  0  0  0  0
 11 12  1  0  0  0  0
 11 24  1  0  0  0  0
 12 13  1  0  0  0  0
 12 25  1  0  0  0  0
 12 26  1  0  0  0  0
 13 27  1  0  0  0  0
 13 28  1  0  0  0  0
 14 15  2  0  0  0  0
 15 29  1  0  0  0  0
M  END
> <s_m_source_file>
AV-unprocessed.smi

> <i_m_source_file_index>
721

> <i_lp_mmshare_version>
43012

> <i_f3d_flags>
0

> <s_epik_input>
Q2xjMVtjSF1uYyhuW2NIXTEpW05IXVtDSDJdW0NIMl1PW0NIMl1bQ0hdMltDSDJdW0NIMl0y

> <s_epik_cmdline>
J2VwaWtfcHl0aG9uJywgJy1waCcsICc3LjAnLCAnLXRuJywgJzgnLCAnLW1hJywgJzIwMCcsICctbWV0YWxfYmluZGluZycsICctaW1hZScsICc8aW5maWxlLm1hZT4nLCAnLW9tYWUnLCAnPG91dGZpbGUubWFlPic=

> <r_lp_tautomer_probability>
1

> <r_epik_Ionization_Penalty>
7.18353e-06

> <r_epik_Ionization_Penalty_Charging>
0

> <r_epik_Ionization_Penalty_Neutral>
7.18353e-06

> <r_epik_State_Penalty>
-0

> <r_epik_Charging_Adjusted_Penalty>
0

> <i_epik_Tot_Q>
0

> <i_epik_Tot_abs_Q>
0

> <r_epik_Metal_State_Penalty>
-0

> <b_epik_Metal_Only>
0

> <s_lp_Force_Field>
OPLS_2005

> <r_lp_Energy>
6.1156

> <b_lp_Chiralities_Consistent>
1

> <s_lp_Variant>
AV-unprocessed.smi:721-1

> <Gold.Version>
5.8.1

> <Gold.Id.Protein>
6NUR|6NUR_protein|mol2

> <Gold.PLP.Fitness>
39.7557

> <Gold.PLP.PLP>
-34.6015

> <Gold.PLP.part.hbond>
-1.0000

> <Gold.PLP.part.metal>
0.0000

> <Gold.PLP.part.buried>
-2.8478

> <Gold.PLP.part.nonpolar>
-30.4462

> <Gold.PLP.part.repulsive>
0.2225

> <Gold.PLP.ligand.clash>
0.0000

> <Gold.PLP.ligand.torsion>
0.5940

> <Gold.PLP.Chemscore.Hbond>
0.9000

> <Gold.PLP.Chemscore.CHOScore>
1.0000

> <Gold.PLP.Chemscore.Metal>
0.0000

> <Gold.Chemscore.Hbonds>
donor molecule, donor type, donor heavy atom, donor atom, acceptor molecule, acceptor atom, score
      P1  H  7989  7998       L1     9  0.95
      L1  C    15    29       P1  8028  0.92

> <Gold.PLP.Chemscore.Internal.Correction>
0.6421

> <Gold.Rescore>
     Score         DG    S(hbond)    S(metal)    S(lipo)     H(rot)  DE(clash)    DE(int)     intcor
     10.67     -11.32       0.00        0.00      88.53       1.77       0.04       0.61       ----

> <Gold.Chemscore.Fitness>
10.6713

> <Gold.Chemscore.DG>
-11.3181

> <Gold.Chemscore.ZeroCoef>
-5.4800

> <Gold.Chemscore.Hbond>
0.0050

> <Gold.Chemscore.Metal>
0.0000

> <Gold.Chemscore.Lipo>
88.5314

> <Gold.Chemscore.Internal_Hbond>
0.0000

> <Gold.Chemscore.DEClash>
0.0381

> <Gold.Chemscore.DEInternal>
0.6087

> <Gold.Chemscore.Rot>
1.7722

> <Gold.Chemscore.Internal.Correction>
   9.000000E+99

> <Gold.Chemscore.Hbonds>
donor molecule, donor type, donor heavy atom, donor atom, acceptor molecule, acceptor atom, score
      P1  H  7989  7998       L1     9  0.12

> <Gold.Chemscore.Hbond.Weighted>
-0.0167

> <Gold.Chemscore.Metal.Weighted>
-0.0000

> <Gold.Chemscore.Lipo.Weighted>
-10.3582

> <Gold.Chemscore.Internal_Hbond.Weighted>
0.0000

> <Gold.Chemscore.DEClash.Weighted>
0.0381

> <Gold.Chemscore.DEInternal.Weighted>
0.6087

> <Gold.Chemscore.Rot.Weighted>
4.5367

> <Gold.Chemscore.Internal.Correction.Weighted>
   9.000000E+99

> <Gold.Protein.RotatedTorsions>
[ 6907 6896 6895 6894 ] final -171.50 input  -60.11 | X-H torsion
[ 7974 7965 7964 7962 ] final  118.10 input  175.53 | X-H torsion
[ 8008 7997 7996 7995 ] final  -65.04 input   59.86 | X-H torsion
[ 10167 10162 10161 10158 ] final  169.68 input  -65.29 | X-H torsion
[ 10718 10713 10712 10709 ] final   23.59 input   66.30 | X-H torsion
[ 10763 10752 10751 10750 ] final   -4.27 input  -60.55 | X-H torsion
[ 11005 11000 10999 10996 ] final  -38.69 input  -57.11 | X-H torsion

> <Gold.Protein.ActiveResidues>
 VAL166  LYS551  ARG553  GLY616  TRP617  ASP618  TYR619  PRO620  LYS621  CYS622 
 ASP623  PHE694  ASN695  SER759  ASP760  ASP761  ALA762  ILE779  LEU786  VAL792 
 PHE793  MET794  SER795  GLU796  ALA797  LYS798  CYS799  TRP800  GLU811  SER814 

> <Gold.Protein.RotatedAtoms>
  151.5249  133.3459  159.2907 H   0  0  0  0  0  0  0  0  0  0  0  0  # atno 6907 bound_to 6896
  150.8629  134.7988  159.7108 H   0  0  0  0  0  0  0  0  0  0  0  0  # atno 6908 bound_to 6896
  152.4643  134.5121  159.9808 H   0  0  0  0  0  0  0  0  0  0  0  0  # atno 6909 bound_to 6896
  145.1593  139.3164  143.4525 H   0  0  0  0  0  0  0  0  0  0  0  0  # atno 7974 bound_to 7965
  154.4647  140.0941  156.6989 H   0  0  0  0  0  0  0  0  0  0  0  0  # atno 8008 bound_to 7997
  155.4891  140.3470  155.4333 H   0  0  0  0  0  0  0  0  0  0  0  0  # atno 8009 bound_to 7997
  156.0935  140.1403  156.9549 H   0  0  0  0  0  0  0  0  0  0  0  0  # atno 8010 bound_to 7997
  139.4999  144.3679  151.9756 H   0  0  0  0  0  0  0  0  0  0  0  0  # atno 10167 bound_to 10162
  157.1681  130.6747  149.6068 H   0  0  0  0  0  0  0  0  0  0  0  0  # atno 10718 bound_to 10713
  153.3826  135.6999  153.6554 H   0  0  0  0  0  0  0  0  0  0  0  0  # atno 10763 bound_to 10752
  153.5159  135.3622  155.2609 H   0  0  0  0  0  0  0  0  0  0  0  0  # atno 10764 bound_to 10752
  154.8694  135.4146  154.3126 H   0  0  0  0  0  0  0  0  0  0  0  0  # atno 10765 bound_to 10752
  141.0046  133.6938  156.2087 H   0  0  0  0  0  0  0  0  0  0  0  0  # atno 11005 bound_to 11000
  146.3484  140.1697  142.8590 LP  0  0  0  0  0  0  0  0  0  0  0  0  # atno 17320 bound_to 7965
  145.0348  140.8899  143.5088 LP  0  0  0  0  0  0  0  0  0  0  0  0  # atno 17321 bound_to 7965
  140.3115  144.3532  150.6032 LP  0  0  0  0  0  0  0  0  0  0  0  0  # atno 17342 bound_to 10162
  140.5795  143.2174  151.7454 LP  0  0  0  0  0  0  0  0  0  0  0  0  # atno 17343 bound_to 10162
  155.9742  130.4688  150.6373 LP  0  0  0  0  0  0  0  0  0  0  0  0  # atno 17370 bound_to 10713
  157.4069  131.0818  151.1257 LP  0  0  0  0  0  0  0  0  0  0  0  0  # atno 17371 bound_to 10713
  140.6833  134.4744  157.5589 LP  0  0  0  0  0  0  0  0  0  0  0  0  # atno 17394 bound_to 11000
  139.9057  134.8455  156.1717 LP  0  0  0  0  0  0  0  0  0  0  0  0  # atno 17395 bound_to 11000

$$$$
