AV-unprocessed.smi:978|AV-procd|sdf|4308|dock6
  -GOLD-   22720 2213D 1   1.00000     0.00000
 Structure written by MMmdl.
 39 40  0  0  0  0  0  0  0  0  2 V2000
  150.6123  136.0884  156.2246 C   0  0  0  0  0  0  0  0  0  0  0  0
  150.5572  134.6039  155.9927 C   0  0  0  0  0  0  0  0  0  0  0  0
  151.3118  133.8091  156.7375 N   0  0  0  0  0  0  0  0  0  0  0  0
  151.1143  132.5033  156.2629 O   0  0  0  0  0  0  0  0  0  0  0  0
  150.2325  132.5400  155.2303 C   0  0  0  0  0  0  0  0  0  0  0  0
  149.9031  131.2422  154.5735 C   0  0  0  0  0  0  0  0  0  0  0  0
  149.8315  133.8295  155.0398 C   0  0  0  0  0  0  0  0  0  0  0  0
  148.9323  134.2511  154.0280 N   0  0  0  0  0  0  0  0  0  0  0  0
  147.8608  133.5838  153.5734 C   0  0  0  0  0  0  0  0  0  0  0  0
  147.5028  132.4737  153.9655 O   0  0  0  0  0  0  0  0  0  0  0  0
  147.2281  134.2693  152.6103 N   0  0  0  0  0  0  0  0  0  0  0  0
  146.0419  133.8075  151.8948 C   0  0  2  0  0  0  0  0  0  0  0  0
  146.3782  132.5469  151.0812 C   0  0  0  0  0  0  0  0  0  0  0  0
  145.1690  132.0810  150.2519 C   0  0  0  0  0  0  0  0  0  0  0  0
  144.6795  133.1658  149.3649 N   0  3  1  0  0  0  0  0  0  0  0  0
  143.5918  132.7146  148.4706 C   0  0  0  0  0  0  0  0  0  0  0  0
  144.3137  134.3854  150.1273 C   0  0  0  0  0  0  0  0  0  0  0  0
  145.5046  134.9012  150.9521 C   0  0  0  0  0  0  0  0  0  0  0  0
  150.4936  136.6387  155.2914 H   0  0  0  0  0  0  0  0  0  0  0  0
  151.5664  136.3896  156.6586 H   0  0  0  0  0  0  0  0  0  0  0  0
  149.8250  136.4076  156.9074 H   0  0  0  0  0  0  0  0  0  0  0  0
  149.3327  131.3993  153.6579 H   0  0  0  0  0  0  0  0  0  0  0  0
  149.3097  130.6138  155.2378 H   0  0  0  0  0  0  0  0  0  0  0  0
  150.8118  130.6986  154.3148 H   0  0  0  0  0  0  0  0  0  0  0  0
  149.1851  135.0959  153.5364 H   0  0  0  0  0  0  0  0  0  0  0  0
  147.5980  135.1718  152.3489 H   0  0  0  0  0  0  0  0  0  0  0  0
  145.2676  133.5503  152.6206 H   0  0  0  0  0  0  0  0  0  0  0  0
  147.2180  132.7477  150.4140 H   0  0  0  0  0  0  0  0  0  0  0  0
  146.6977  131.7449  151.7480 H   0  0  0  0  0  0  0  0  0  0  0  0
  145.4534  131.2173  149.6498 H   0  0  0  0  0  0  0  0  0  0  0  0
  144.3632  131.7561  150.9122 H   0  0  0  0  0  0  0  0  0  0  0  0
  142.7084  132.4266  149.0421 H   0  0  0  0  0  0  0  0  0  0  0  0
  143.9107  131.8570  147.8773 H   0  0  0  0  0  0  0  0  0  0  0  0
  143.3080  133.5086  147.7794 H   0  0  0  0  0  0  0  0  0  0  0  0
  143.9857  135.1635  149.4369 H   0  0  0  0  0  0  0  0  0  0  0  0
  143.4696  134.1674  150.7837 H   0  0  0  0  0  0  0  0  0  0  0  0
  145.1989  135.7784  151.5239 H   0  0  0  0  0  0  0  0  0  0  0  0
  146.2965  135.2326  150.2784 H   0  0  0  0  0  0  0  0  0  0  0  0
  145.4530  133.4203  148.7672 H   0  0  0  0  0  0  0  0  0  0  0  0
  1  2  1  0  0  0  0
  1 19  1  0  0  0  0
  1 20  1  0  0  0  0
  1 21  1  0  0  0  0
  2  7  1  0  0  0  0
  2  3  2  0  0  0  0
  3  4  1  0  0  0  0
  4  5  1  0  0  0  0
  5  6  1  0  0  0  0
  5  7  2  0  0  0  0
  6 22  1  0  0  0  0
  6 23  1  0  0  0  0
  6 24  1  0  0  0  0
  7  8  1  0  0  0  0
  8  9  1  0  0  0  0
  8 25  1  0  0  0  0
  9 10  2  0  0  0  0
  9 11  1  0  0  0  0
 11 12  1  0  0  0  0
 11 26  1  0  0  0  0
 12 18  1  0  0  0  0
 12 13  1  0  0  0  0
 12 27  1  0  0  0  0
 13 14  1  0  0  0  0
 13 28  1  0  0  0  0
 13 29  1  0  0  0  0
 14 15  1  0  0  0  0
 14 30  1  0  0  0  0
 14 31  1  0  0  0  0
 15 16  1  0  0  0  0
 15 17  1  0  0  0  0
 15 39  1  0  0  0  0
 16 32  1  0  0  0  0
 16 33  1  0  0  0  0
 16 34  1  0  0  0  0
 17 18  1  0  0  0  0
 17 35  1  0  0  0  0
 17 36  1  0  0  0  0
 18 37  1  0  0  0  0
 18 38  1  0  0  0  0
M  CHG  1  15   1
M  END
> <s_m_source_file>
AV-unprocessed.smi

> <i_m_source_file_index>
978

> <i_lp_mmshare_version>
43012

> <i_f3d_flags>
0

> <s_epik_input>
W0NIM11jMW5vYyhbQ0gzXSljMVtOSF1DKD1PKVtOSF1bQ0hdMltDSDJdW0NIMl1OKFtDSDNdKVtDSDJdW0NIMl0y

> <s_epik_cmdline>
J2VwaWtfcHl0aG9uJywgJy1waCcsICc3LjAnLCAnLXRuJywgJzgnLCAnLW1hJywgJzIwMCcsICctbWV0YWxfYmluZGluZycsICctaW1hZScsICc8aW5maWxlLm1hZT4nLCAnLW9tYWUnLCAnPG91dGZpbGUubWFlPic=

> <r_epik_Ionization_Penalty>
0.00369783

> <r_epik_Ionization_Penalty_Charging>
0.00366825

> <r_epik_Ionization_Penalty_Neutral>
2.95799e-05

> <r_epik_State_Penalty>
0.00261101

> <r_epik_Charging_Adjusted_Penalty>
0.00627926

> <i_epik_Tot_Q>
1

> <i_epik_Tot_abs_Q>
1

> <r_epik_Metal_State_Penalty>
-0

> <b_epik_Metal_Only>
0

> <s_lp_Force_Field>
OPLS_2005

> <r_lp_Energy>
17.6402

> <b_lp_Chiralities_Consistent>
1

> <s_lp_Variant>
AV-unprocessed.smi:978-1

> <Gold.Version>
5.8.1

> <Gold.Id.Protein>
6NUR|6NUR_protein|mol2

> <Gold.PLP.Fitness>
40.8546

> <Gold.PLP.PLP>
-32.6093

> <Gold.PLP.part.hbond>
-3.4949

> <Gold.PLP.part.metal>
0.0000

> <Gold.PLP.part.buried>
-4.3018

> <Gold.PLP.part.nonpolar>
-25.9862

> <Gold.PLP.part.repulsive>
0.2158

> <Gold.PLP.ligand.clash>
0.0000

> <Gold.PLP.ligand.torsion>
0.2648

> <Gold.PLP.Chemscore.Hbond>
2.8400

> <Gold.PLP.Chemscore.CHOScore>
0.0000

> <Gold.PLP.Chemscore.Metal>
0.0000

> <Gold.Chemscore.Hbonds>
donor molecule, donor type, donor heavy atom, donor atom, acceptor molecule, acceptor atom, score
      L1  H     8    25       P1  7948  0.94
      L1  H    11    26       P1  7948  1.00
      L1  H    15    39       P1  7921  0.90

> <Gold.PLP.Chemscore.Internal.Correction>
0.2549

> <Gold.Rescore>
     Score         DG    S(hbond)    S(metal)    S(lipo)     H(rot)  DE(clash)    DE(int)     intcor
     15.85     -18.86       2.14        0.00      75.13       1.00       0.37       2.64       ----

> <Gold.Chemscore.Fitness>
15.8524

> <Gold.Chemscore.DG>
-18.8615

> <Gold.Chemscore.ZeroCoef>
-5.4800

> <Gold.Chemscore.Hbond>
2.1412

> <Gold.Chemscore.Metal>
0.0000

> <Gold.Chemscore.Lipo>
75.1257

> <Gold.Chemscore.Internal_Hbond>
0.0000

> <Gold.Chemscore.DEClash>
0.3723

> <Gold.Chemscore.DEInternal>
2.6367

> <Gold.Chemscore.Rot>
1.0000

> <Gold.Chemscore.Internal.Correction>
   9.000000E+99

> <Gold.Chemscore.Hbonds>
donor molecule, donor type, donor heavy atom, donor atom, acceptor molecule, acceptor atom, score
      L1  H     8    25       P1  7948  0.22
      L1  H    11    26       P1  7948  0.94
      L1  H    15    39       P1  7921  0.22

> <Gold.Chemscore.Hbond.Weighted>
-7.1518

> <Gold.Chemscore.Metal.Weighted>
-0.0000

> <Gold.Chemscore.Lipo.Weighted>
-8.7897

> <Gold.Chemscore.Internal_Hbond.Weighted>
0.0000

> <Gold.Chemscore.DEClash.Weighted>
0.3723

> <Gold.Chemscore.DEInternal.Weighted>
2.6367

> <Gold.Chemscore.Rot.Weighted>
2.5600

> <Gold.Chemscore.Internal.Correction.Weighted>
   9.000000E+99

> <Gold.Protein.RotatedTorsions>
[ 6907 6896 6895 6894 ] final   76.01 input  -60.11 | X-H torsion
[ 7974 7965 7964 7962 ] final   47.13 input  175.53 | X-H torsion
[ 8008 7997 7996 7995 ] final -131.88 input   59.86 | X-H torsion
[ 10167 10162 10161 10158 ] final   -3.96 input  -65.29 | X-H torsion
[ 10718 10713 10712 10709 ] final -170.49 input   66.30 | X-H torsion
[ 10763 10752 10751 10750 ] final  -68.35 input  -60.55 | X-H torsion
[ 11005 11000 10999 10996 ] final    8.12 input  -57.11 | X-H torsion

> <Gold.Protein.ActiveResidues>
 VAL166  LYS551  ARG553  GLY616  TRP617  ASP618  TYR619  PRO620  LYS621  CYS622 
 ASP623  PHE694  ASN695  SER759  ASP760  ASP761  ALA762  ILE779  LEU786  VAL792 
 PHE793  MET794  SER795  GLU796  ALA797  LYS798  CYS799  TRP800  GLU811  SER814 

> <Gold.Protein.RotatedAtoms>
  152.5053  134.4033  159.9423 H   0  0  0  0  0  0  0  0  0  0  0  0  # atno 6907 bound_to 6896
  151.3998  133.3755  159.2738 H   0  0  0  0  0  0  0  0  0  0  0  0  # atno 6908 bound_to 6896
  150.9370  134.8803  159.7647 H   0  0  0  0  0  0  0  0  0  0  0  0  # atno 6909 bound_to 6896
  146.0326  139.4782  142.9828 H   0  0  0  0  0  0  0  0  0  0  0  0  # atno 7974 bound_to 7965
  155.3197  140.0461  157.3038 H   0  0  0  0  0  0  0  0  0  0  0  0  # atno 8008 bound_to 7997
  154.5387  140.2280  155.8644 H   0  0  0  0  0  0  0  0  0  0  0  0  # atno 8009 bound_to 7997
  156.1860  140.3062  155.9245 H   0  0  0  0  0  0  0  0  0  0  0  0  # atno 8010 bound_to 7997
  140.6910  143.6478  150.8377 H   0  0  0  0  0  0  0  0  0  0  0  0  # atno 10167 bound_to 10162
  156.7269  130.9291  151.3101 H   0  0  0  0  0  0  0  0  0  0  0  0  # atno 10718 bound_to 10713
  154.3877  135.6060  153.5826 H   0  0  0  0  0  0  0  0  0  0  0  0  # atno 10763 bound_to 10752
  152.9787  135.5876  154.4335 H   0  0  0  0  0  0  0  0  0  0  0  0  # atno 10764 bound_to 10752
  154.4114  135.2844  155.2012 H   0  0  0  0  0  0  0  0  0  0  0  0  # atno 10765 bound_to 10752
  140.5405  134.0379  155.7902 H   0  0  0  0  0  0  0  0  0  0  0  0  # atno 11005 bound_to 11000
  145.7016  141.0134  143.1501 LP  0  0  0  0  0  0  0  0  0  0  0  0  # atno 17320 bound_to 7965
  144.7037  139.8651  143.7436 LP  0  0  0  0  0  0  0  0  0  0  0  0  # atno 17321 bound_to 7965
  140.0191  143.5561  152.2808 LP  0  0  0  0  0  0  0  0  0  0  0  0  # atno 17342 bound_to 10162
  139.6313  144.7644  151.2531 LP  0  0  0  0  0  0  0  0  0  0  0  0  # atno 17343 bound_to 10162
  157.6875  130.9200  150.0424 LP  0  0  0  0  0  0  0  0  0  0  0  0  # atno 17370 bound_to 10713
  156.1555  130.3643  149.9375 LP  0  0  0  0  0  0  0  0  0  0  0  0  # atno 17371 bound_to 10713
  141.1230  133.9430  157.2692 LP  0  0  0  0  0  0  0  0  0  0  0  0  # atno 17394 bound_to 11000
  139.9506  135.0176  156.8983 LP  0  0  0  0  0  0  0  0  0  0  0  0  # atno 17395 bound_to 11000

$$$$
