AV-unprocessed.smi:2067|AV-procd|sdf|8424|dock1
  -GOLD-   2272011113D 1   1.00000     0.00000
 Structure written by MMmdl.
 47 48  0  0  0  0  0  0  0  0  1 V2000
  151.4394  145.5524  159.8070 C   0  0  0  0  0  0  0  0  0  0  0  0
  152.4025  144.4022  160.1392 C   0  0  1  0  0  0  0  0  0  0  0  0
  152.2112  143.8915  161.5815 C   0  0  0  0  0  0  0  0  0  0  0  0
  153.2053  142.7687  161.9180 C   0  0  0  0  0  0  0  0  0  0  0  0
  153.1037  141.6155  160.9089 C   0  0  0  0  0  0  0  0  0  0  0  0
  153.2949  142.1175  159.4679 C   0  0  0  0  0  0  0  0  0  0  0  0
  152.3014  143.2466  159.1182 C   0  0  1  0  0  0  0  0  0  0  0  0
  150.9693  142.7447  159.1267 O   0  0  0  0  0  0  0  0  0  0  0  0
  150.5425  142.1943  157.8899 C   0  0  0  0  0  0  0  0  0  0  0  0
  151.0310  140.7461  157.8020 C   0  0  0  0  0  0  0  0  0  0  0  0
  150.0446  139.9041  157.1436 N   0  0  0  0  0  0  0  0  0  0  0  0
  150.2272  138.5865  156.7383 C   0  0  0  0  0  0  0  0  0  0  0  0
  151.4184  137.9492  156.9154 C   0  0  0  0  0  0  0  0  0  0  0  0
  152.5662  138.5780  157.4899 C   0  0  0  0  0  0  0  0  0  0  0  0
  153.5025  139.0913  157.9382 N   0  0  0  0  0  0  0  0  0  0  0  0
  151.6301  136.5680  156.4878 C   0  0  0  0  0  0  0  0  0  0  0  0
  152.6962  135.9635  156.6248 O   0  0  0  0  0  0  0  0  0  0  0  0
  150.5112  135.9596  155.8825 N   0  0  0  0  0  0  0  0  0  0  0  0
  150.6767  134.5926  155.4285 C   0  0  0  0  0  0  0  0  0  0  0  0
  149.2772  136.6061  155.6607 C   0  0  0  0  0  0  0  0  0  0  0  0
  148.3420  136.0382  155.0881 O   0  0  0  0  0  0  0  0  0  0  0  0
  149.1537  137.9409  156.1186 N   0  0  0  0  0  0  0  0  0  0  0  0
  147.8524  138.5370  155.8938 C   0  0  0  0  0  0  0  0  0  0  0  0
  150.3984  145.2345  159.8750 H   0  0  0  0  0  0  0  0  0  0  0  0
  151.6079  145.9259  158.7968 H   0  0  0  0  0  0  0  0  0  0  0  0
  151.5756  146.3879  160.4941 H   0  0  0  0  0  0  0  0  0  0  0  0
  153.4129  144.8081  160.0700 H   0  0  0  0  0  0  0  0  0  0  0  0
  152.3381  144.7129  162.2876 H   0  0  0  0  0  0  0  0  0  0  0  0
  151.1915  143.5275  161.7144 H   0  0  0  0  0  0  0  0  0  0  0  0
  154.2207  143.1674  161.9168 H   0  0  0  0  0  0  0  0  0  0  0  0
  153.0199  142.3977  162.9264 H   0  0  0  0  0  0  0  0  0  0  0  0
  153.8486  140.8534  161.1390 H   0  0  0  0  0  0  0  0  0  0  0  0
  152.1301  141.1338  161.0043 H   0  0  0  0  0  0  0  0  0  0  0  0
  154.3134  142.4899  159.3526 H   0  0  0  0  0  0  0  0  0  0  0  0
  153.2002  141.2854  158.7710 H   0  0  0  0  0  0  0  0  0  0  0  0
  152.5386  143.6438  158.1295 H   0  0  0  0  0  0  0  0  0  0  0  0
  149.4529  142.2168  157.8455 H   0  0  0  0  0  0  0  0  0  0  0  0
  150.9149  142.7685  157.0411 H   0  0  0  0  0  0  0  0  0  0  0  0
  151.9786  140.6895  157.2655 H   0  0  0  0  0  0  0  0  0  0  0  0
  151.2091  140.3781  158.8124 H   0  0  0  0  0  0  0  0  0  0  0  0
  149.1032  140.1252  157.4354 H   0  0  0  0  0  0  0  0  0  0  0  0
  149.7107  134.1212  155.2509 H   0  0  0  0  0  0  0  0  0  0  0  0
  151.1897  134.0307  156.2109 H   0  0  0  0  0  0  0  0  0  0  0  0
  151.2672  134.6317  154.5121 H   0  0  0  0  0  0  0  0  0  0  0  0
  147.7006  138.5921  154.8144 H   0  0  0  0  0  0  0  0  0  0  0  0
  147.8057  139.5323  156.3286 H   0  0  0  0  0  0  0  0  0  0  0  0
  147.1085  137.9002  156.3765 H   0  0  0  0  0  0  0  0  0  0  0  0
  1  2  1  0  0  0  0
  1 24  1  0  0  0  0
  1 25  1  0  0  0  0
  1 26  1  0  0  0  0
  2  7  1  0  0  0  0
  2  3  1  0  0  0  0
  2 27  1  0  0  0  0
  3  4  1  0  0  0  0
  3 28  1  0  0  0  0
  3 29  1  0  0  0  0
  4  5  1  0  0  0  0
  4 30  1  0  0  0  0
  4 31  1  0  0  0  0
  5  6  1  0  0  0  0
  5 32  1  0  0  0  0
  5 33  1  0  0  0  0
  6  7  1  0  0  0  0
  6 34  1  0  0  0  0
  6 35  1  0  0  0  0
  7  8  1  0  0  0  0
  7 36  1  0  0  0  0
  8  9  1  0  0  0  0
  9 10  1  0  0  0  0
  9 37  1  0  0  0  0
  9 38  1  0  0  0  0
 10 11  1  0  0  0  0
 10 39  1  0  0  0  0
 10 40  1  0  0  0  0
 11 12  1  0  0  0  0
 11 41  1  0  0  0  0
 12 22  1  0  0  0  0
 12 13  2  0  0  0  0
 13 14  1  0  0  0  0
 13 16  1  0  0  0  0
 14 15  3  0  0  0  0
 16 17  2  0  0  0  0
 16 18  1  0  0  0  0
 18 19  1  0  0  0  0
 18 20  1  0  0  0  0
 19 42  1  0  0  0  0
 19 43  1  0  0  0  0
 19 44  1  0  0  0  0
 20 21  2  0  0  0  0
 20 22  1  0  0  0  0
 22 23  1  0  0  0  0
 23 45  1  0  0  0  0
 23 46  1  0  0  0  0
 23 47  1  0  0  0  0
M  END
> <s_m_source_file>
AV-unprocessed.smi

> <i_m_source_file_index>
2067

> <i_lp_mmshare_version>
43012

> <i_f3d_flags>
0

> <s_epik_input>
W0NIM11bQ0BASF0xW0NIMl1bQ0gyXVtDSDJdW0NIMl1bQ0BIXTFPW0NIMl1bQ0gyXVtOSF1jMmMoQyNOKWMoPU8pbihbQ0gzXSljKD1PKW4yW0NIM10=

> <s_epik_cmdline>
J2VwaWtfcHl0aG9uJywgJy1waCcsICc3LjAnLCAnLXRuJywgJzgnLCAnLW1hJywgJzIwMCcsICctbWV0YWxfYmluZGluZycsICctaW1hZScsICc8aW5maWxlLm1hZT4nLCAnLW9tYWUnLCAnPG91dGZpbGUubWFlPic=

> <r_epik_Ionization_Penalty>
0.00056529

> <r_epik_Ionization_Penalty_Charging>
3.94678e-10

> <r_epik_Ionization_Penalty_Neutral>
0.000565289

> <r_epik_State_Penalty>
0.000354611

> <r_epik_Charging_Adjusted_Penalty>
0.000354611

> <i_epik_Tot_Q>
0

> <i_epik_Tot_abs_Q>
0

> <r_epik_Metal_State_Penalty>
-0

> <b_epik_Metal_Only>
0

> <s_lp_Force_Field>
OPLS_2005

> <r_lp_Energy>
33.1423

> <b_lp_Chiralities_Consistent>
1

> <s_lp_Variant>
AV-unprocessed.smi:2067-2

> <Gold.Version>
5.8.1

> <Gold.Id.Protein>
6NUR|6NUR_protein|mol2

> <Gold.PLP.Fitness>
44.3636

> <Gold.PLP.PLP>
-39.7787

> <Gold.PLP.part.hbond>
-2.0000

> <Gold.PLP.part.metal>
0.0000

> <Gold.PLP.part.buried>
-6.2154

> <Gold.PLP.part.nonpolar>
-30.6287

> <Gold.PLP.part.repulsive>
0.1635

> <Gold.PLP.ligand.clash>
10.2522

> <Gold.PLP.ligand.torsion>
0.7614

> <Gold.PLP.Chemscore.Hbond>
2.0000

> <Gold.PLP.Chemscore.CHOScore>
0.0000

> <Gold.PLP.Chemscore.Metal>
0.0000

> <Gold.Chemscore.Hbonds>
donor molecule, donor type, donor heavy atom, donor atom, acceptor molecule, acceptor atom, score
      P1  H  7997  8010       L1    15  1.00
      P1  H 10752 10763       L1    17  1.00

> <Gold.PLP.Chemscore.Internal.Correction>
10.3599

> <Gold.Rescore>
     Score         DG    S(hbond)    S(metal)    S(lipo)     H(rot)  DE(clash)    DE(int)     intcor
     16.15     -19.64       2.00        0.00     102.55       1.76       0.05       3.45       ----

> <Gold.Chemscore.Fitness>
16.1513

> <Gold.Chemscore.DG>
-19.6442

> <Gold.Chemscore.ZeroCoef>
-5.4800

> <Gold.Chemscore.Hbond>
1.9962

> <Gold.Chemscore.Metal>
0.0000

> <Gold.Chemscore.Lipo>
102.5495

> <Gold.Chemscore.Internal_Hbond>
0.0000

> <Gold.Chemscore.DEClash>
0.0458

> <Gold.Chemscore.DEInternal>
3.4471

> <Gold.Chemscore.Rot>
1.7583

> <Gold.Chemscore.Internal.Correction>
   9.000000E+99

> <Gold.Chemscore.Hbonds>
donor molecule, donor type, donor heavy atom, donor atom, acceptor molecule, acceptor atom, score
      P1  H  7997  8010       L1    15  0.98
      P1  H 10752 10763       L1    17  0.98

> <Gold.Chemscore.Hbond.Weighted>
-6.6672

> <Gold.Chemscore.Metal.Weighted>
-0.0000

> <Gold.Chemscore.Lipo.Weighted>
-11.9983

> <Gold.Chemscore.Internal_Hbond.Weighted>
0.0000

> <Gold.Chemscore.DEClash.Weighted>
0.0458

> <Gold.Chemscore.DEInternal.Weighted>
3.4471

> <Gold.Chemscore.Rot.Weighted>
4.5012

> <Gold.Chemscore.Internal.Correction.Weighted>
   9.000000E+99

> <Gold.Protein.RotatedTorsions>
[ 6907 6896 6895 6894 ] final -147.78 input  -60.11 | X-H torsion
[ 7974 7965 7964 7962 ] final  170.70 input  175.53 | X-H torsion
[ 8008 7997 7996 7995 ] final   39.97 input   59.86 | X-H torsion
[ 10167 10162 10161 10158 ] final  160.81 input  -65.29 | X-H torsion
[ 10718 10713 10712 10709 ] final -109.38 input   66.30 | X-H torsion
[ 10763 10752 10751 10750 ] final  119.14 input  -60.55 | X-H torsion
[ 11005 11000 10999 10996 ] final  -87.95 input  -57.11 | X-H torsion

> <Gold.Protein.ActiveResidues>
 VAL166  LYS551  ARG553  GLY616  TRP617  ASP618  TYR619  PRO620  LYS621  CYS622 
 ASP623  PHE694  ASN695  SER759  ASP760  ASP761  ALA762  ILE779  LEU786  VAL792 
 PHE793  MET794  SER795  GLU796  ALA797  LYS798  CYS799  TRP800  GLU811  SER814 

> <Gold.Protein.RotatedAtoms>
  151.1606  133.4848  159.2594 H   0  0  0  0  0  0  0  0  0  0  0  0  # atno 6907 bound_to 6896
  151.1458  135.0202  159.8656 H   0  0  0  0  0  0  0  0  0  0  0  0  # atno 6908 bound_to 6896
  152.5463  134.1495  159.8565 H   0  0  0  0  0  0  0  0  0  0  0  0  # atno 6909 bound_to 6896
  144.7316  139.9241  143.6421 H   0  0  0  0  0  0  0  0  0  0  0  0  # atno 7974 bound_to 7965
  155.2455  140.3348  155.4287 H   0  0  0  0  0  0  0  0  0  0  0  0  # atno 8008 bound_to 7997
  156.2238  140.1820  156.7458 H   0  0  0  0  0  0  0  0  0  0  0  0  # atno 8009 bound_to 7997
  154.5866  140.0645  156.9165 H   0  0  0  0  0  0  0  0  0  0  0  0  # atno 8010 bound_to 7997
  139.4843  144.4598  151.8720 H   0  0  0  0  0  0  0  0  0  0  0  0  # atno 10167 bound_to 10162
  156.0534  130.5761  150.8091 H   0  0  0  0  0  0  0  0  0  0  0  0  # atno 10718 bound_to 10713
  153.5785  135.3488  155.2865 H   0  0  0  0  0  0  0  0  0  0  0  0  # atno 10763 bound_to 10752
  154.8671  135.4176  154.2647 H   0  0  0  0  0  0  0  0  0  0  0  0  # atno 10764 bound_to 10752
  153.3428  135.7051  153.6923 H   0  0  0  0  0  0  0  0  0  0  0  0  # atno 10765 bound_to 10752
  141.1609  133.7541  156.9381 H   0  0  0  0  0  0  0  0  0  0  0  0  # atno 11005 bound_to 11000
  146.0907  139.3897  143.0407 LP  0  0  0  0  0  0  0  0  0  0  0  0  # atno 17320 bound_to 7965
  145.7715  140.9895  143.1147 LP  0  0  0  0  0  0  0  0  0  0  0  0  # atno 17321 bound_to 7965
  140.4060  144.2432  150.5891 LP  0  0  0  0  0  0  0  0  0  0  0  0  # atno 17342 bound_to 10162
  140.5012  143.2317  151.8675 LP  0  0  0  0  0  0  0  0  0  0  0  0  # atno 17343 bound_to 10162
  157.5481  131.0943  150.9734 LP  0  0  0  0  0  0  0  0  0  0  0  0  # atno 17370 bound_to 10713
  157.0000  130.5596  149.5310 LP  0  0  0  0  0  0  0  0  0  0  0  0  # atno 17371 bound_to 10713
  140.1340  134.9337  157.2376 LP  0  0  0  0  0  0  0  0  0  0  0  0  # atno 17394 bound_to 11000
  140.2918  134.3232  155.7313 LP  0  0  0  0  0  0  0  0  0  0  0  0  # atno 17395 bound_to 11000

$$$$
