AV-unprocessed.smi:703|AV-procd|sdf|3441|dock9
  -GOLD-   22720 0433D 1   1.00000     0.00000
 Structure written by MMmdl.
 37 38  0  0  0  0  0  0  0  0  3 V2000
  146.0142  142.9320  154.4453 C   0  0  0  0  0  0  0  0  0  0  0  0
  147.0788  141.8436  154.2514 C   0  0  0  0  0  0  0  0  0  0  0  0
  148.2288  142.0111  155.1737 N   0  3  2  0  0  0  0  0  0  0  0  0
  149.4981  141.4103  154.6981 C   0  0  0  0  0  0  0  0  0  0  0  0
  150.2154  140.9170  155.9587 C   0  0  2  0  0  0  0  0  0  0  0  0
  151.3548  139.9107  155.6956 C   0  0  0  0  0  0  0  0  0  0  0  0
  149.0582  140.4782  156.8780 C   0  0  2  0  0  0  0  0  0  0  0  0
  148.5596  139.1567  156.5148 N   0  5  0  0  0  0  0  0  0  0  0  0
  147.6342  138.3245  157.5556 S   0  0  0  0  0  0  0  0  0  0  0  0
  146.7687  139.1918  158.3714 O   0  0  0  0  0  0  0  0  0  0  0  0
  147.0053  137.1577  156.9167 O   0  0  0  0  0  0  0  0  0  0  0  0
  148.9200  137.6489  158.6957 C   0  0  0  0  0  0  0  0  0  0  0  0
  148.2939  136.7371  159.7157 C   0  0  0  0  0  0  0  0  0  0  0  0
  147.9404  135.3661  159.5732 C   0  0  0  0  0  0  0  0  0  0  0  0
  147.4238  135.0409  160.7937 C   0  0  0  0  0  0  0  0  0  0  0  0
  147.4418  136.1173  161.6193 O   0  0  0  0  0  0  0  0  0  0  0  0
  147.9945  137.1967  160.9208 N   0  0  0  0  0  0  0  0  0  0  0  0
  147.9778  141.5230  156.5550 C   0  0  0  0  0  0  0  0  0  0  0  0
  145.1580  142.7520  153.7952 H   0  0  0  0  0  0  0  0  0  0  0  0
  146.4019  143.9227  154.2074 H   0  0  0  0  0  0  0  0  0  0  0  0
  145.6516  142.9503  155.4735 H   0  0  0  0  0  0  0  0  0  0  0  0
  146.6203  140.8717  154.4380 H   0  0  0  0  0  0  0  0  0  0  0  0
  147.4298  141.8323  153.2182 H   0  0  0  0  0  0  0  0  0  0  0  0
  149.2981  140.5773  154.0184 H   0  0  0  0  0  0  0  0  0  0  0  0
  150.0924  142.1408  154.1482 H   0  0  0  0  0  0  0  0  0  0  0  0
  150.6710  141.7903  156.4284 H   0  0  0  0  0  0  0  0  0  0  0  0
  151.0084  139.0099  155.1864 H   0  0  0  0  0  0  0  0  0  0  0  0
  151.8454  139.6049  156.6210 H   0  0  0  0  0  0  0  0  0  0  0  0
  152.1196  140.3602  155.0622 H   0  0  0  0  0  0  0  0  0  0  0  0
  149.3452  140.5408  157.9283 H   0  0  0  0  0  0  0  0  0  0  0  0
  149.6493  137.1108  158.0900 H   0  0  0  0  0  0  0  0  0  0  0  0
  149.4392  138.4818  159.1686 H   0  0  0  0  0  0  0  0  0  0  0  0
  148.0594  134.7231  158.7140 H   0  0  0  0  0  0  0  0  0  0  0  0
  147.0197  134.1297  161.2094 H   0  0  0  0  0  0  0  0  0  0  0  0
  148.0862  142.3769  157.2246 H   0  0  0  0  0  0  0  0  0  0  0  0
  146.9647  141.1415  156.6973 H   0  0  0  0  0  0  0  0  0  0  0  0
  148.3914  143.0036  155.2622 H   0  0  0  0  0  0  0  0  0  0  0  0
  1  2  1  0  0  0  0
  1 19  1  0  0  0  0
  1 20  1  0  0  0  0
  1 21  1  0  0  0  0
  2  3  1  0  0  0  0
  2 22  1  0  0  0  0
  2 23  1  0  0  0  0
  3 18  1  0  0  0  0
  3  4  1  0  0  0  0
  3 37  1  0  0  0  0
  4  5  1  0  0  0  0
  4 24  1  0  0  0  0
  4 25  1  0  0  0  0
  5  6  1  0  0  0  0
  5  7  1  0  0  0  0
  5 26  1  0  0  0  0
  6 27  1  0  0  0  0
  6 28  1  0  0  0  0
  6 29  1  0  0  0  0
  7  8  1  0  0  0  0
  7 18  1  0  0  0  0
  7 30  1  0  0  0  0
  8  9  1  0  0  0  0
  9 10  2  0  0  0  0
  9 11  2  0  0  0  0
  9 12  1  0  0  0  0
 12 13  1  0  0  0  0
 12 31  1  0  0  0  0
 12 32  1  0  0  0  0
 13 17  2  0  0  0  0
 13 14  1  0  0  0  0
 14 15  2  0  0  0  0
 14 33  1  0  0  0  0
 15 16  1  0  0  0  0
 15 34  1  0  0  0  0
 16 17  1  0  0  0  0
 18 35  1  0  0  0  0
 18 36  1  0  0  0  0
M  CHG  1   3   1
M  CHG  1   8  -1
M  END
> <s_m_source_file>
AV-unprocessed.smi

> <i_m_source_file_index>
703

> <i_lp_mmshare_version>
43012

> <i_f3d_flags>
0

> <s_epik_input>
W0NIM11bQ0gyXU4xW0NIMl1bQ0BASF0oW0NIM10pW0NASF0oW0NIMl0xKVtOSF1TKD1PKSg9TylbQ0gyXWMyW2NIXVtjSF1vbjI=

> <s_epik_cmdline>
J2VwaWtfcHl0aG9uJywgJy1waCcsICc3LjAnLCAnLXRuJywgJzgnLCAnLW1hJywgJzIwMCcsICctbWV0YWxfYmluZGluZycsICctaW1hZScsICc8aW5maWxlLm1hZT4nLCAnLW9tYWUnLCAnPG91dGZpbGUubWFlPic=

> <r_epik_Ionization_Penalty>
3.62494

> <r_epik_Ionization_Penalty_Charging>
3.62494

> <r_epik_Ionization_Penalty_Neutral>
2.0321e-10

> <r_epik_State_Penalty>
3.62558

> <r_epik_Charging_Adjusted_Penalty>
7.25052

> <i_epik_Tot_Q>
0

> <i_epik_Tot_abs_Q>
2

> <r_epik_Metal_State_Penalty>
0.530836

> <b_epik_Metal_Only>
1

> <s_lp_Force_Field>
OPLS_2005

> <r_lp_Energy>
19.3254

> <b_lp_Chiralities_Consistent>
1

> <s_lp_Variant>
AV-unprocessed.smi:703-16

> <Gold.Version>
5.8.1

> <Gold.Id.Protein>
6NUR|6NUR_protein|mol2

> <Gold.PLP.Fitness>
37.4528

> <Gold.PLP.PLP>
-28.1050

> <Gold.PLP.part.hbond>
-4.0000

> <Gold.PLP.part.metal>
0.0000

> <Gold.PLP.part.buried>
-3.4979

> <Gold.PLP.part.nonpolar>
-20.6584

> <Gold.PLP.part.repulsive>
0.1316

> <Gold.PLP.ligand.clash>
0.0000

> <Gold.PLP.ligand.torsion>
1.3437

> <Gold.PLP.Chemscore.Hbond>
3.6640

> <Gold.PLP.Chemscore.CHOScore>
0.0000

> <Gold.PLP.Chemscore.Metal>
0.0000

> <Gold.Chemscore.Hbonds>
donor molecule, donor type, donor heavy atom, donor atom, acceptor molecule, acceptor atom, score
      L1  H     3    37       P1  8028  2.00
      P1  H  6931  6943       L1    17  0.91
      P1  H  6934  6947       L1    17  0.75

> <Gold.PLP.Chemscore.Internal.Correction>
1.0432

> <Gold.Rescore>
     Score         DG    S(hbond)    S(metal)    S(lipo)     H(rot)  DE(clash)    DE(int)     intcor
     14.67     -15.76       2.54        0.00      51.16       1.63       0.00       1.09       ----

> <Gold.Chemscore.Fitness>
14.6720

> <Gold.Chemscore.DG>
-15.7626

> <Gold.Chemscore.ZeroCoef>
-5.4800

> <Gold.Chemscore.Hbond>
2.5387

> <Gold.Chemscore.Metal>
0.0000

> <Gold.Chemscore.Lipo>
51.1612

> <Gold.Chemscore.Internal_Hbond>
0.0000

> <Gold.Chemscore.DEClash>
0.0000

> <Gold.Chemscore.DEInternal>
1.0905

> <Gold.Chemscore.Rot>
1.6338

> <Gold.Chemscore.Internal.Correction>
   9.000000E+99

> <Gold.Chemscore.Hbonds>
donor molecule, donor type, donor heavy atom, donor atom, acceptor molecule, acceptor atom, score
      L1  H     3    37       P1  8028  1.00
      P1  H  6931  6943       L1    17  0.80
      P1  H  6934  6947       L1    17  0.63

> <Gold.Chemscore.Hbond.Weighted>
-8.4792

> <Gold.Chemscore.Metal.Weighted>
-0.0000

> <Gold.Chemscore.Lipo.Weighted>
-5.9859

> <Gold.Chemscore.Internal_Hbond.Weighted>
0.0000

> <Gold.Chemscore.DEClash.Weighted>
0.0000

> <Gold.Chemscore.DEInternal.Weighted>
1.0905

> <Gold.Chemscore.Rot.Weighted>
4.1825

> <Gold.Chemscore.Internal.Correction.Weighted>
   9.000000E+99

> <Gold.Protein.RotatedTorsions>
[ 6907 6896 6895 6894 ] final -167.12 input  -60.11 | X-H torsion
[ 7974 7965 7964 7962 ] final  -38.93 input  175.53 | X-H torsion
[ 8008 7997 7996 7995 ] final  160.80 input   59.86 | X-H torsion
[ 10167 10162 10161 10158 ] final  173.48 input  -65.29 | X-H torsion
[ 10718 10713 10712 10709 ] final  -39.39 input   66.30 | X-H torsion
[ 10763 10752 10751 10750 ] final  -87.14 input  -60.55 | X-H torsion
[ 11005 11000 10999 10996 ] final  144.61 input  -57.11 | X-H torsion

> <Gold.Protein.ActiveResidues>
 VAL166  LYS551  ARG553  GLY616  TRP617  ASP618  TYR619  PRO620  LYS621  CYS622 
 ASP623  PHE694  ASN695  SER759  ASP760  ASP761  ALA762  ILE779  LEU786  VAL792 
 PHE793  MET794  SER795  GLU796  ALA797  LYS798  CYS799  TRP800  GLU811  SER814 

> <Gold.Protein.RotatedAtoms>
  151.4545  133.3608  159.2799 H   0  0  0  0  0  0  0  0  0  0  0  0  # atno 6907 bound_to 6896
  150.9068  134.8484  159.7408 H   0  0  0  0  0  0  0  0  0  0  0  0  # atno 6908 bound_to 6896
  152.4910  134.4471  159.9614 H   0  0  0  0  0  0  0  0  0  0  0  0  # atno 6909 bound_to 6896
  146.0442  140.6568  142.9072 H   0  0  0  0  0  0  0  0  0  0  0  0  # atno 7974 bound_to 7965
  156.2147  140.1794  156.7616 H   0  0  0  0  0  0  0  0  0  0  0  0  # atno 8008 bound_to 7997
  154.5774  140.0672  156.9083 H   0  0  0  0  0  0  0  0  0  0  0  0  # atno 8009 bound_to 7997
  155.2563  140.3332  155.4280 H   0  0  0  0  0  0  0  0  0  0  0  0  # atno 8010 bound_to 7997
  139.5109  144.3256  152.0161 H   0  0  0  0  0  0  0  0  0  0  0  0  # atno 10167 bound_to 10162
  156.2930  130.4230  149.8219 H   0  0  0  0  0  0  0  0  0  0  0  0  # atno 10718 bound_to 10713
  154.6303  135.5424  153.7673 H   0  0  0  0  0  0  0  0  0  0  0  0  # atno 10763 bound_to 10752
  153.0281  135.6434  154.1310 H   0  0  0  0  0  0  0  0  0  0  0  0  # atno 10764 bound_to 10752
  154.1241  135.2918  155.3181 H   0  0  0  0  0  0  0  0  0  0  0  0  # atno 10765 bound_to 10752
  140.0646  134.9185  157.1243 H   0  0  0  0  0  0  0  0  0  0  0  0  # atno 11005 bound_to 11000
  144.7089  140.3964  143.7096 LP  0  0  0  0  0  0  0  0  0  0  0  0  # atno 17320 bound_to 7965
  145.6833  139.1623  143.2688 LP  0  0  0  0  0  0  0  0  0  0  0  0  # atno 17321 bound_to 7965
  140.2697  144.3978  150.6156 LP  0  0  0  0  0  0  0  0  0  0  0  0  # atno 17342 bound_to 10162
  140.6097  143.2169  151.6910 LP  0  0  0  0  0  0  0  0  0  0  0  0  # atno 17343 bound_to 10162
  156.5626  130.8390  151.3333 LP  0  0  0  0  0  0  0  0  0  0  0  0  # atno 17370 bound_to 10713
  157.7347  130.9751  150.2045 LP  0  0  0  0  0  0  0  0  0  0  0  0  # atno 17371 bound_to 10713
  140.3718  134.2382  155.7177 LP  0  0  0  0  0  0  0  0  0  0  0  0  # atno 17394 bound_to 11000
  141.1987  133.8028  157.0568 LP  0  0  0  0  0  0  0  0  0  0  0  0  # atno 17395 bound_to 11000

$$$$
