AV-unprocessed.smi:696|AV-procd|sdf|3388|dock2
  -GOLD-   22720 0363D 1   1.00000     0.00000
 Structure written by MMmdl.
 37 38  0  0  0  0  0  0  0  0  2 V2000
  149.9472  141.9988  156.8600 O   0  0  0  0  0  0  0  0  0  0  0  0
  151.1098  141.7079  157.1443 C   0  0  0  0  0  0  0  0  0  0  0  0
  151.7799  140.7017  156.5613 N   0  0  0  0  0  0  0  0  0  0  0  0
  151.2453  139.8259  155.5249 C   0  0  0  0  0  0  0  0  0  0  0  0
  152.2313  138.6960  155.1762 C   0  0  0  0  0  0  0  0  0  0  0  0
  152.7824  138.0454  156.4155 C   0  0  0  0  0  0  0  0  0  0  0  0
  153.4148  138.6345  157.3607 N   0  0  0  0  0  0  0  0  0  0  0  0
  153.6911  137.6313  158.2101 N   0  0  0  0  0  0  0  0  0  0  0  0
  153.2240  136.4619  157.7662 C   0  0  0  0  0  0  0  0  0  0  0  0
  153.3577  135.4020  158.3739 O   0  0  0  0  0  0  0  0  0  0  0  0
  152.6212  136.7062  156.5890 N   0  5  0  0  0  0  0  0  0  0  0  0
  151.8659  142.5085  158.2154 C   0  0  0  0  0  0  0  0  0  0  0  0
  152.1590  141.6121  159.4412 C   0  0  0  0  0  0  0  0  0  0  0  0
  153.2623  142.1797  160.3508 C   0  0  0  0  0  0  0  0  0  0  0  0
  152.7868  143.1645  161.4341 C   0  0  0  0  0  0  0  0  0  0  0  0
  151.6668  144.1422  161.0354 C   0  0  0  0  0  0  0  0  0  0  0  0
  151.7546  144.7011  159.6062 C   0  0  0  0  0  0  0  0  0  0  0  0
  151.0805  143.7904  158.5644 C   0  0  0  0  0  0  0  0  0  0  0  0
  154.1976  137.8127  159.0640 H   0  0  0  0  0  0  0  0  0  0  0  0
  152.7312  140.5315  156.8535 H   0  0  0  0  0  0  0  0  0  0  0  0
  150.3095  139.4057  155.8957 H   0  0  0  0  0  0  0  0  0  0  0  0
  150.9930  140.4078  154.6364 H   0  0  0  0  0  0  0  0  0  0  0  0
  151.7333  137.9431  154.5639 H   0  0  0  0  0  0  0  0  0  0  0  0
  153.0475  139.0896  154.5687 H   0  0  0  0  0  0  0  0  0  0  0  0
  152.8203  142.8097  157.7800 H   0  0  0  0  0  0  0  0  0  0  0  0
  151.2511  141.4164  160.0137 H   0  0  0  0  0  0  0  0  0  0  0  0
  152.4993  140.6374  159.0871 H   0  0  0  0  0  0  0  0  0  0  0  0
  153.7667  141.3526  160.8516 H   0  0  0  0  0  0  0  0  0  0  0  0
  154.0319  142.6522  159.7394 H   0  0  0  0  0  0  0  0  0  0  0  0
  152.4479  142.6007  162.3040 H   0  0  0  0  0  0  0  0  0  0  0  0
  153.6521  143.7334  161.7765 H   0  0  0  0  0  0  0  0  0  0  0  0
  150.6969  143.6642  161.1783 H   0  0  0  0  0  0  0  0  0  0  0  0
  151.6814  144.9727  161.7422 H   0  0  0  0  0  0  0  0  0  0  0  0
  151.2337  145.6591  159.5899 H   0  0  0  0  0  0  0  0  0  0  0  0
  152.7871  144.9197  159.3313 H   0  0  0  0  0  0  0  0  0  0  0  0
  150.9439  144.3701  157.6500 H   0  0  0  0  0  0  0  0  0  0  0  0
  150.0741  143.5386  158.9027 H   0  0  0  0  0  0  0  0  0  0  0  0
  1  2  2  0  0  0  0
  2  3  1  0  0  0  0
  2 12  1  0  0  0  0
  3  4  1  0  0  0  0
  3 20  1  0  0  0  0
  4  5  1  0  0  0  0
  4 21  1  0  0  0  0
  4 22  1  0  0  0  0
  5  6  1  0  0  0  0
  5 23  1  0  0  0  0
  5 24  1  0  0  0  0
  6 11  1  0  0  0  0
  6  7  2  0  0  0  0
  7  8  1  0  0  0  0
  8 19  1  0  0  0  0
  8  9  1  0  0  0  0
  9 10  2  0  0  0  0
  9 11  1  0  0  0  0
 12 18  1  0  0  0  0
 12 13  1  0  0  0  0
 12 25  1  0  0  0  0
 13 14  1  0  0  0  0
 13 26  1  0  0  0  0
 13 27  1  0  0  0  0
 14 15  1  0  0  0  0
 14 28  1  0  0  0  0
 14 29  1  0  0  0  0
 15 16  1  0  0  0  0
 15 30  1  0  0  0  0
 15 31  1  0  0  0  0
 16 17  1  0  0  0  0
 16 32  1  0  0  0  0
 16 33  1  0  0  0  0
 17 18  1  0  0  0  0
 17 34  1  0  0  0  0
 17 35  1  0  0  0  0
 18 36  1  0  0  0  0
 18 37  1  0  0  0  0
M  CHG  1  11  -1
M  END
> <s_m_source_file>
AV-unprocessed.smi

> <i_m_source_file_index>
696

> <i_lp_mmshare_version>
43012

> <i_f3d_flags>
0

> <s_epik_input>
W0NIMl0xW0NIMl1bQ0gyXVtDSDJdW0NIMl1bQ0gyXVtDSF0xQyg9TylbTkhdW0NIMl1bQ0gyXWMybltuSF1jKD1PKVtuSF0y

> <s_epik_cmdline>
J2VwaWtfcHl0aG9uJywgJy1waCcsICc3LjAnLCAnLXRuJywgJzgnLCAnLW1hJywgJzIwMCcsICctbWV0YWxfYmluZGluZycsICctaW1hZScsICc8aW5maWxlLm1hZT4nLCAnLW9tYWUnLCAnPG91dGZpbGUubWFlPic=

> <r_lp_tautomer_probability>
1

> <r_epik_Ionization_Penalty>
13.715

> <r_epik_Ionization_Penalty_Charging>
13.715

> <r_epik_Ionization_Penalty_Neutral>
5.16152e-06

> <r_epik_State_Penalty>
4.03036

> <r_epik_Charging_Adjusted_Penalty>
17.7454

> <i_epik_Tot_Q>
-1

> <i_epik_Tot_abs_Q>
1

> <r_epik_Metal_State_Penalty>
0.449398

> <b_epik_Metal_Only>
1

> <s_lp_Force_Field>
OPLS_2005

> <r_lp_Energy>
29.0226

> <b_lp_Chiralities_Consistent>
1

> <s_lp_Variant>
AV-unprocessed.smi:696-3

> <Gold.Version>
5.8.1

> <Gold.Id.Protein>
6NUR|6NUR_protein|mol2

> <Gold.PLP.Fitness>
45.9556

> <Gold.PLP.PLP>
-35.9148

> <Gold.PLP.part.hbond>
-3.0000

> <Gold.PLP.part.metal>
0.0000

> <Gold.PLP.part.buried>
-4.3326

> <Gold.PLP.part.nonpolar>
-29.0774

> <Gold.PLP.part.repulsive>
0.3895

> <Gold.PLP.ligand.clash>
0.0000

> <Gold.PLP.ligand.torsion>
0.2350

> <Gold.PLP.Chemscore.Hbond>
3.4909

> <Gold.PLP.Chemscore.CHOScore>
0.0000

> <Gold.PLP.Chemscore.Metal>
0.0000

> <Gold.Chemscore.Hbonds>
donor molecule, donor type, donor heavy atom, donor atom, acceptor molecule, acceptor atom, score
      P1  H  6896  6908       L1    10  0.50
      P1  H  7997  8009       L1     7  1.00
      P1  H 10752 10763       L1    11  2.00

> <Gold.PLP.Chemscore.Internal.Correction>
0.0382

> <Gold.Rescore>
     Score         DG    S(hbond)    S(metal)    S(lipo)     H(rot)  DE(clash)    DE(int)     intcor
     16.93     -18.72       2.47        0.00      91.81       2.25       0.09       1.71       ----

> <Gold.Chemscore.Fitness>
16.9272

> <Gold.Chemscore.DG>
-18.7209

> <Gold.Chemscore.ZeroCoef>
-5.4800

> <Gold.Chemscore.Hbond>
2.4729

> <Gold.Chemscore.Metal>
0.0000

> <Gold.Chemscore.Lipo>
91.8104

> <Gold.Chemscore.Internal_Hbond>
0.0000

> <Gold.Chemscore.DEClash>
0.0855

> <Gold.Chemscore.DEInternal>
1.7083

> <Gold.Chemscore.Rot>
2.2501

> <Gold.Chemscore.Internal.Correction>
   9.000000E+99

> <Gold.Chemscore.Hbonds>
donor molecule, donor type, donor heavy atom, donor atom, acceptor molecule, acceptor atom, score
      P1  H  6896  6908       L1    10  0.49
      P1  H  7997  8009       L1     7  0.95
      P1  H 10752 10763       L1    11  0.74

> <Gold.Chemscore.Hbond.Weighted>
-8.2594

> <Gold.Chemscore.Metal.Weighted>
-0.0000

> <Gold.Chemscore.Lipo.Weighted>
-10.7418

> <Gold.Chemscore.Internal_Hbond.Weighted>
0.0000

> <Gold.Chemscore.DEClash.Weighted>
0.0855

> <Gold.Chemscore.DEInternal.Weighted>
1.7083

> <Gold.Chemscore.Rot.Weighted>
5.7603

> <Gold.Chemscore.Internal.Correction.Weighted>
   9.000000E+99

> <Gold.Protein.RotatedTorsions>
[ 6907 6896 6895 6894 ] final  -54.83 input  -60.11 | X-H torsion
[ 7974 7965 7964 7962 ] final -128.79 input  175.53 | X-H torsion
[ 8008 7997 7996 7995 ] final  159.26 input   59.86 | X-H torsion
[ 10167 10162 10161 10158 ] final  146.52 input  -65.29 | X-H torsion
[ 10718 10713 10712 10709 ] final  107.01 input   66.30 | X-H torsion
[ 10763 10752 10751 10750 ] final   97.46 input  -60.55 | X-H torsion
[ 11005 11000 10999 10996 ] final  154.23 input  -57.11 | X-H torsion

> <Gold.Protein.ActiveResidues>
 VAL166  LYS551  ARG553  GLY616  TRP617  ASP618  TYR619  PRO620  LYS621  CYS622 
 ASP623  PHE694  ASN695  SER759  ASP760  ASP761  ALA762  ILE779  LEU786  VAL792 
 PHE793  MET794  SER795  GLU796  ALA797  LYS798  CYS799  TRP800  GLU811  SER814 

> <Gold.Protein.RotatedAtoms>
  150.8304  134.7554  159.6848 H   0  0  0  0  0  0  0  0  0  0  0  0  # atno 6907 bound_to 6896
  152.4409  134.5589  159.9898 H   0  0  0  0  0  0  0  0  0  0  0  0  # atno 6908 bound_to 6896
  151.5752  133.3347  159.3033 H   0  0  0  0  0  0  0  0  0  0  0  0  # atno 6909 bound_to 6896
  144.9635  140.7472  143.4714 H   0  0  0  0  0  0  0  0  0  0  0  0  # atno 7974 bound_to 7965
  156.2250  140.1836  156.7384 H   0  0  0  0  0  0  0  0  0  0  0  0  # atno 8008 bound_to 7997
  154.5927  140.0648  156.9289 H   0  0  0  0  0  0  0  0  0  0  0  0  # atno 8009 bound_to 7997
  155.2309  140.3314  155.4306 H   0  0  0  0  0  0  0  0  0  0  0  0  # atno 8010 bound_to 7997
  139.4906  144.5823  151.6847 H   0  0  0  0  0  0  0  0  0  0  0  0  # atno 10167 bound_to 10162
  157.6645  131.0863  150.6092 H   0  0  0  0  0  0  0  0  0  0  0  0  # atno 10718 bound_to 10713
  153.2771  135.4182  155.1044 H   0  0  0  0  0  0  0  0  0  0  0  0  # atno 10763 bound_to 10752
  154.8476  135.3486  154.6163 H   0  0  0  0  0  0  0  0  0  0  0  0  # atno 10764 bound_to 10752
  153.6583  135.7049  153.5243 H   0  0  0  0  0  0  0  0  0  0  0  0  # atno 10765 bound_to 10752
  140.1470  134.8700  157.2406 H   0  0  0  0  0  0  0  0  0  0  0  0  # atno 11005 bound_to 11000
  145.2664  139.1972  143.4865 LP  0  0  0  0  0  0  0  0  0  0  0  0  # atno 17320 bound_to 7965
  146.3360  140.2603  142.8601 LP  0  0  0  0  0  0  0  0  0  0  0  0  # atno 17321 bound_to 7965
  140.5432  144.0546  150.6096 LP  0  0  0  0  0  0  0  0  0  0  0  0  # atno 17342 bound_to 10162
  140.3575  143.2927  152.0420 LP  0  0  0  0  0  0  0  0  0  0  0  0  # atno 17343 bound_to 10162
  156.6394  130.4454  149.5758 LP  0  0  0  0  0  0  0  0  0  0  0  0  # atno 17370 bound_to 10713
  156.2221  130.6743  151.1379 LP  0  0  0  0  0  0  0  0  0  0  0  0  # atno 17371 bound_to 10713
  140.2651  134.3526  155.7393 LP  0  0  0  0  0  0  0  0  0  0  0  0  # atno 17394 bound_to 11000
  141.2194  133.7391  156.9138 LP  0  0  0  0  0  0  0  0  0  0  0  0  # atno 17395 bound_to 11000

$$$$
