AV-unprocessed.smi:3173|AV-procd|sdf|12119|dock5
  -GOLD-   2272017553D 1   1.00000     0.00000
 Structure written by MMmdl.
 36 37  0  0  0  0  0  0  0  0  2 V2000
  144.1042  136.7849  152.1656 O   0  0  0  0  0  0  0  0  0  0  0  0
  145.2619  136.4755  151.8828 C   0  0  0  0  0  0  0  0  0  0  0  0
  145.5437  135.2801  150.9662 C   0  0  0  0  0  0  0  0  0  0  0  0
  144.9239  133.9625  151.4765 C   0  0  2  0  0  0  0  0  0  0  0  0
  145.2192  132.7999  150.5645 C   0  0  0  0  0  0  0  0  0  0  0  0
  144.1266  132.1162  150.2311 C   0  0  0  0  0  0  0  0  0  0  0  0
  142.8808  132.6847  150.8516 C   0  0  0  0  0  0  0  0  0  0  0  0
  143.3731  133.9688  151.5546 C   0  0  0  0  0  0  0  0  0  0  0  0
  146.3325  137.1444  152.3379 N   0  0  0  0  0  0  0  0  0  0  0  0
  146.2775  138.3235  153.1941 C   0  0  0  0  0  0  0  0  0  0  0  0
  147.2403  139.4192  152.7063 C   0  0  0  0  0  0  0  0  0  0  0  0
  148.5546  139.4085  153.4619 C   0  0  0  0  0  0  0  0  0  0  0  0
  148.9656  140.4951  154.2643 C   0  0  0  0  0  0  0  0  0  0  0  0
  150.1981  140.4210  154.9461 C   0  0  0  0  0  0  0  0  0  0  0  0
  150.9926  139.2635  154.8118 C   0  0  0  0  0  0  0  0  0  0  0  0
  150.5328  138.2070  153.9991 C   0  0  0  0  0  0  0  0  0  0  0  0
  149.3456  138.3153  153.3628 N   0  3  0  0  0  0  0  0  0  0  0  0
  145.1768  135.4938  149.9607 H   0  0  0  0  0  0  0  0  0  0  0  0
  146.6254  135.1700  150.8824 H   0  0  0  0  0  0  0  0  0  0  0  0
  145.3414  133.7096  152.4523 H   0  0  0  0  0  0  0  0  0  0  0  0
  146.2228  132.5597  150.2455 H   0  0  0  0  0  0  0  0  0  0  0  0
  144.1079  131.2390  149.6012 H   0  0  0  0  0  0  0  0  0  0  0  0
  142.1306  132.8997  150.0900 H   0  0  0  0  0  0  0  0  0  0  0  0
  142.4639  131.9702  151.5620 H   0  0  0  0  0  0  0  0  0  0  0  0
  143.0258  134.0204  152.5871 H   0  0  0  0  0  0  0  0  0  0  0  0
  142.9643  134.8377  151.0370 H   0  0  0  0  0  0  0  0  0  0  0  0
  147.2480  136.8186  152.0625 H   0  0  0  0  0  0  0  0  0  0  0  0
  145.2554  138.7040  153.2377 H   0  0  0  0  0  0  0  0  0  0  0  0
  146.5390  138.0195  154.2080 H   0  0  0  0  0  0  0  0  0  0  0  0
  147.4415  139.2939  151.6414 H   0  0  0  0  0  0  0  0  0  0  0  0
  146.7811  140.4025  152.8169 H   0  0  0  0  0  0  0  0  0  0  0  0
  148.3442  141.3741  154.3583 H   0  0  0  0  0  0  0  0  0  0  0  0
  150.5296  141.2423  155.5647 H   0  0  0  0  0  0  0  0  0  0  0  0
  151.9401  139.1875  155.3250 H   0  0  0  0  0  0  0  0  0  0  0  0
  151.0741  137.2858  153.8403 H   0  0  0  0  0  0  0  0  0  0  0  0
  149.0331  137.5382  152.7803 H   0  0  0  0  0  0  0  0  0  0  0  0
  1  2  2  0  0  0  0
  2  3  1  0  0  0  0
  2  9  1  0  0  0  0
  3  4  1  0  0  0  0
  3 18  1  0  0  0  0
  3 19  1  0  0  0  0
  4  8  1  0  0  0  0
  4  5  1  0  0  0  0
  4 20  1  0  0  0  0
  5  6  2  0  0  0  0
  5 21  1  0  0  0  0
  6  7  1  0  0  0  0
  6 22  1  0  0  0  0
  7  8  1  0  0  0  0
  7 23  1  0  0  0  0
  7 24  1  0  0  0  0
  8 25  1  0  0  0  0
  8 26  1  0  0  0  0
  9 10  1  0  0  0  0
  9 27  1  0  0  0  0
 10 11  1  0  0  0  0
 10 28  1  0  0  0  0
 10 29  1  0  0  0  0
 11 12  1  0  0  0  0
 11 30  1  0  0  0  0
 11 31  1  0  0  0  0
 12 17  1  0  0  0  0
 12 13  2  0  0  0  0
 13 14  1  0  0  0  0
 13 32  1  0  0  0  0
 14 15  2  0  0  0  0
 14 33  1  0  0  0  0
 15 16  1  0  0  0  0
 15 34  1  0  0  0  0
 16 17  2  0  0  0  0
 16 35  1  0  0  0  0
 17 36  1  0  0  0  0
M  CHG  1  17   1
M  END
> <s_m_source_file>
AV-unprocessed.smi

> <i_m_source_file_index>
3173

> <i_lp_mmshare_version>
43012

> <i_f3d_flags>
0

> <s_epik_input>
W0NIMl0xW0NIMl1bQ0hdPVtDSF1bQ0BIXTFbQ0gyXUMoPU8pW05IXVtDSDJdW0NIMl1jMltjSF1bY0hdW2NIXVtjSF1uMg==

> <s_epik_cmdline>
J2VwaWtfcHl0aG9uJywgJy1waCcsICc3LjAnLCAnLXRuJywgJzgnLCAnLW1hJywgJzIwMCcsICctbWV0YWxfYmluZGluZycsICctaW1hZScsICc8aW5maWxlLm1hZT4nLCAnLW9tYWUnLCAnPG91dGZpbGUubWFlPic=

> <r_epik_Ionization_Penalty>
1.86798

> <r_epik_Ionization_Penalty_Charging>
1.86798

> <r_epik_Ionization_Penalty_Neutral>
1.53848e-08

> <r_epik_State_Penalty>
1.98677

> <r_epik_Charging_Adjusted_Penalty>
3.85475

> <i_epik_Tot_Q>
1

> <i_epik_Tot_abs_Q>
1

> <r_epik_Metal_State_Penalty>
2.01174

> <b_epik_Metal_Only>
0

> <s_lp_Force_Field>
OPLS_2005

> <r_lp_Energy>
19.7802

> <b_lp_Chiralities_Consistent>
1

> <s_lp_Variant>
AV-unprocessed.smi:3173-3

> <Gold.Version>
5.8.1

> <Gold.Id.Protein>
6NUR|6NUR_protein|mol2

> <Gold.PLP.Fitness>
45.3129

> <Gold.PLP.PLP>
-37.0465

> <Gold.PLP.part.hbond>
-3.0000

> <Gold.PLP.part.metal>
0.0000

> <Gold.PLP.part.buried>
-0.6596

> <Gold.PLP.part.nonpolar>
-33.3242

> <Gold.PLP.part.repulsive>
0.7566

> <Gold.PLP.ligand.clash>
0.0000

> <Gold.PLP.ligand.torsion>
0.3809

> <Gold.PLP.Chemscore.Hbond>
3.0000

> <Gold.PLP.Chemscore.CHOScore>
0.0000

> <Gold.PLP.Chemscore.Metal>
0.0000

> <Gold.Chemscore.Hbonds>
donor molecule, donor type, donor heavy atom, donor atom, acceptor molecule, acceptor atom, score
      L1  H     9    27       P1  7948  1.00
      L1  H    17    36       P1  7948  2.00

> <Gold.PLP.Chemscore.Internal.Correction>
0.0282

> <Gold.Rescore>
     Score         DG    S(hbond)    S(metal)    S(lipo)     H(rot)  DE(clash)    DE(int)     intcor
     18.12     -18.68       1.96        0.00      92.06       1.61       0.11       0.44       ----

> <Gold.Chemscore.Fitness>
18.1216

> <Gold.Chemscore.DG>
-18.6755

> <Gold.Chemscore.ZeroCoef>
-5.4800

> <Gold.Chemscore.Hbond>
1.9617

> <Gold.Chemscore.Metal>
0.0000

> <Gold.Chemscore.Lipo>
92.0560

> <Gold.Chemscore.Internal_Hbond>
0.0000

> <Gold.Chemscore.DEClash>
0.1106

> <Gold.Chemscore.DEInternal>
0.4433

> <Gold.Chemscore.Rot>
1.6122

> <Gold.Chemscore.Internal.Correction>
   9.000000E+99

> <Gold.Chemscore.Hbonds>
donor molecule, donor type, donor heavy atom, donor atom, acceptor molecule, acceptor atom, score
      L1  H     9    27       P1  7948  1.00
      L1  H    17    36       P1  7948  0.96

> <Gold.Chemscore.Hbond.Weighted>
-6.5521

> <Gold.Chemscore.Metal.Weighted>
-0.0000

> <Gold.Chemscore.Lipo.Weighted>
-10.7706

> <Gold.Chemscore.Internal_Hbond.Weighted>
0.0000

> <Gold.Chemscore.DEClash.Weighted>
0.1106

> <Gold.Chemscore.DEInternal.Weighted>
0.4433

> <Gold.Chemscore.Rot.Weighted>
4.1271

> <Gold.Chemscore.Internal.Correction.Weighted>
   9.000000E+99

> <Gold.Protein.RotatedTorsions>
[ 6907 6896 6895 6894 ] final  104.58 input  -60.11 | X-H torsion
[ 7974 7965 7964 7962 ] final  119.60 input  175.53 | X-H torsion
[ 8008 7997 7996 7995 ] final  118.08 input   59.86 | X-H torsion
[ 10167 10162 10161 10158 ] final  111.21 input  -65.29 | X-H torsion
[ 10718 10713 10712 10709 ] final  -50.12 input   66.30 | X-H torsion
[ 10763 10752 10751 10750 ] final -113.61 input  -60.55 | X-H torsion
[ 11005 11000 10999 10996 ] final -177.32 input  -57.11 | X-H torsion

> <Gold.Protein.ActiveResidues>
 VAL166  LYS551  ARG553  GLY616  TRP617  ASP618  TYR619  PRO620  LYS621  CYS622 
 ASP623  PHE694  ASN695  SER759  ASP760  ASP761  ALA762  ILE779  LEU786  VAL792 
 PHE793  MET794  SER795  GLU796  ALA797  LYS798  CYS799  TRP800  GLU811  SER814 

> <Gold.Protein.RotatedAtoms>
  152.5259  133.9655  159.7737 H   0  0  0  0  0  0  0  0  0  0  0  0  # atno 6907 bound_to 6896
  150.9937  133.6116  159.2711 H   0  0  0  0  0  0  0  0  0  0  0  0  # atno 6908 bound_to 6896
  151.3250  135.0834  159.9372 H   0  0  0  0  0  0  0  0  0  0  0  0  # atno 6909 bound_to 6896
  145.1412  139.3267  143.4615 H   0  0  0  0  0  0  0  0  0  0  0  0  # atno 7974 bound_to 7965
  156.2528  140.2882  156.0779 H   0  0  0  0  0  0  0  0  0  0  0  0  # atno 8008 bound_to 7997
  155.1599  140.0399  157.2857 H   0  0  0  0  0  0  0  0  0  0  0  0  # atno 8009 bound_to 7997
  154.6400  140.2520  155.7340 H   0  0  0  0  0  0  0  0  0  0  0  0  # atno 8010 bound_to 7997
  139.6629  144.7128  151.1831 H   0  0  0  0  0  0  0  0  0  0  0  0  # atno 10167 bound_to 10162
  156.1830  130.4151  149.9479 H   0  0  0  0  0  0  0  0  0  0  0  0  # atno 10718 bound_to 10713
  154.8404  135.4448  154.1376 H   0  0  0  0  0  0  0  0  0  0  0  0  # atno 10763 bound_to 10752
  153.2569  135.6932  153.7625 H   0  0  0  0  0  0  0  0  0  0  0  0  # atno 10764 bound_to 10752
  153.6916  135.3386  155.3179 H   0  0  0  0  0  0  0  0  0  0  0  0  # atno 10765 bound_to 10752
  140.4423  134.6420  157.4763 H   0  0  0  0  0  0  0  0  0  0  0  0  # atno 11005 bound_to 11000
  146.3505  140.1449  142.8593 LP  0  0  0  0  0  0  0  0  0  0  0  0  # atno 17320 bound_to 7965
  145.0530  140.9032  143.4984 LP  0  0  0  0  0  0  0  0  0  0  0  0  # atno 17321 bound_to 7965
  140.7587  143.5966  150.8742 LP  0  0  0  0  0  0  0  0  0  0  0  0  # atno 17342 bound_to 10162
  139.9625  143.6148  152.2998 LP  0  0  0  0  0  0  0  0  0  0  0  0  # atno 17343 bound_to 10162
  156.7244  130.9019  151.3621 LP  0  0  0  0  0  0  0  0  0  0  0  0  # atno 17370 bound_to 10713
  157.6880  130.9205  150.0439 LP  0  0  0  0  0  0  0  0  0  0  0  0  # atno 17371 bound_to 10713
  140.0062  134.6761  155.9452 LP  0  0  0  0  0  0  0  0  0  0  0  0  # atno 17394 bound_to 11000
  141.1700  133.6537  156.4618 LP  0  0  0  0  0  0  0  0  0  0  0  0  # atno 17395 bound_to 11000

$$$$
