AV-unprocessed.smi:3067|AV-procd|sdf|11695|dock2
  -GOLD-   2272017 93D 1   1.00000     0.00000
 Structure written by MMmdl.
 34 35  0  0  0  0  0  0  0  0  1 V2000
  144.2661  135.8620  151.6618 C   0  0  0  0  0  0  0  0  0  0  0  0
  145.3569  134.9866  151.4230 O   0  0  0  0  0  0  0  0  0  0  0  0
  145.2531  133.7261  152.0792 C   0  0  1  0  0  0  0  0  0  0  0  0
  144.0267  132.9460  151.5596 C   0  0  0  0  0  0  0  0  0  0  0  0
  144.1667  132.5901  150.0699 C   0  0  0  0  0  0  0  0  0  0  0  0
  145.4668  131.8173  149.8007 C   0  0  0  0  0  0  0  0  0  0  0  0
  146.6928  132.5874  150.3164 C   0  0  0  0  0  0  0  0  0  0  0  0
  146.5512  132.9254  151.8131 C   0  0  1  0  0  0  0  0  0  0  0  0
  147.7357  133.6264  152.2981 N   0  0  0  0  0  0  0  0  0  0  0  0
  148.4608  133.1789  153.4134 C   0  0  0  0  0  0  0  0  0  0  0  0
  148.6328  131.8144  153.7443 C   0  0  0  0  0  0  0  0  0  0  0  0
  149.3801  131.4770  154.8890 C   0  0  0  0  0  0  0  0  0  0  0  0
  149.9352  132.5148  155.6662 C   0  0  0  0  0  0  0  0  0  0  0  0
  150.7095  132.1872  156.8512 C   0  0  0  0  0  0  0  0  0  0  0  0
  151.3258  131.9269  157.7954 N   0  0  0  0  0  0  0  0  0  0  0  0
  149.7799  133.8202  155.3572 N   0  0  0  0  0  0  0  0  0  0  0  0
  149.0619  134.1356  154.2583 C   0  0  0  0  0  0  0  0  0  0  0  0
  144.4375  136.8036  151.1404 H   0  0  0  0  0  0  0  0  0  0  0  0
  144.1652  136.0840  152.7249 H   0  0  0  0  0  0  0  0  0  0  0  0
  143.3254  135.4483  151.2992 H   0  0  0  0  0  0  0  0  0  0  0  0
  145.1450  133.8809  153.1536 H   0  0  0  0  0  0  0  0  0  0  0  0
  143.9190  132.0268  152.1368 H   0  0  0  0  0  0  0  0  0  0  0  0
  143.1082  133.5087  151.7229 H   0  0  0  0  0  0  0  0  0  0  0  0
  143.3101  131.9979  149.7472 H   0  0  0  0  0  0  0  0  0  0  0  0
  144.1529  133.5025  149.4724 H   0  0  0  0  0  0  0  0  0  0  0  0
  145.4188  130.8421  150.2870 H   0  0  0  0  0  0  0  0  0  0  0  0
  145.5706  131.6247  148.7325 H   0  0  0  0  0  0  0  0  0  0  0  0
  147.5902  131.9899  150.1524 H   0  0  0  0  0  0  0  0  0  0  0  0
  146.8209  133.5016  149.7350 H   0  0  0  0  0  0  0  0  0  0  0  0
  146.4871  131.9736  152.3398 H   0  0  0  0  0  0  0  0  0  0  0  0
  147.8493  134.5890  152.0138 H   0  0  0  0  0  0  0  0  0  0  0  0
  148.2074  131.0240  153.1454 H   0  0  0  0  0  0  0  0  0  0  0  0
  149.5220  130.4406  155.1596 H   0  0  0  0  0  0  0  0  0  0  0  0
  148.9625  135.1909  154.0490 H   0  0  0  0  0  0  0  0  0  0  0  0
  1  2  1  0  0  0  0
  1 18  1  0  0  0  0
  1 19  1  0  0  0  0
  1 20  1  0  0  0  0
  2  3  1  0  0  0  0
  3  8  1  0  0  0  0
  3  4  1  0  0  0  0
  3 21  1  0  0  0  0
  4  5  1  0  0  0  0
  4 22  1  0  0  0  0
  4 23  1  0  0  0  0
  5  6  1  0  0  0  0
  5 24  1  0  0  0  0
  5 25  1  0  0  0  0
  6  7  1  0  0  0  0
  6 26  1  0  0  0  0
  6 27  1  0  0  0  0
  7  8  1  0  0  0  0
  7 28  1  0  0  0  0
  7 29  1  0  0  0  0
  8  9  1  0  0  0  0
  8 30  1  0  0  0  0
  9 10  1  0  0  0  0
  9 31  1  0  0  0  0
 10 17  1  0  0  0  0
 10 11  2  0  0  0  0
 11 12  1  0  0  0  0
 11 32  1  0  0  0  0
 12 13  2  0  0  0  0
 12 33  1  0  0  0  0
 13 14  1  0  0  0  0
 13 16  1  0  0  0  0
 14 15  3  0  0  0  0
 16 17  2  0  0  0  0
 17 34  1  0  0  0  0
M  END
> <s_m_source_file>
AV-unprocessed.smi

> <i_m_source_file_index>
3067

> <i_lp_mmshare_version>
43012

> <i_f3d_flags>
0

> <s_epik_input>
W0NIM11PW0NAQEhdMVtDSDJdW0NIMl1bQ0gyXVtDSDJdW0NASF0xW05IXWMyW2NIXVtjSF1jKEMjTiluW2NIXTI=

> <s_epik_cmdline>
J2VwaWtfcHl0aG9uJywgJy1waCcsICc3LjAnLCAnLXRuJywgJzgnLCAnLW1hJywgJzIwMCcsICctbWV0YWxfYmluZGluZycsICctaW1hZScsICc8aW5maWxlLm1hZT4nLCAnLW9tYWUnLCAnPG91dGZpbGUubWFlPic=

> <r_lp_tautomer_probability>
1

> <r_epik_Ionization_Penalty>
2.01011e-07

> <r_epik_Ionization_Penalty_Charging>
0

> <r_epik_Ionization_Penalty_Neutral>
2.01011e-07

> <r_epik_State_Penalty>
-0

> <r_epik_Charging_Adjusted_Penalty>
0

> <i_epik_Tot_Q>
0

> <i_epik_Tot_abs_Q>
0

> <r_epik_Metal_State_Penalty>
-0

> <b_epik_Metal_Only>
0

> <s_lp_Force_Field>
OPLS_2005

> <r_lp_Energy>
17.9327

> <b_lp_Chiralities_Consistent>
1

> <s_lp_Variant>
AV-unprocessed.smi:3067-2

> <Gold.Version>
5.8.1

> <Gold.Id.Protein>
6NUR|6NUR_protein|mol2

> <Gold.PLP.Fitness>
39.4044

> <Gold.PLP.PLP>
-31.3253

> <Gold.PLP.part.hbond>
-2.0000

> <Gold.PLP.part.metal>
0.0000

> <Gold.PLP.part.buried>
-0.3902

> <Gold.PLP.part.nonpolar>
-29.0455

> <Gold.PLP.part.repulsive>
0.2479

> <Gold.PLP.ligand.clash>
0.0000

> <Gold.PLP.ligand.torsion>
0.3124

> <Gold.PLP.Chemscore.Hbond>
1.9913

> <Gold.PLP.Chemscore.CHOScore>
0.9062

> <Gold.PLP.Chemscore.Metal>
0.0000

> <Gold.Chemscore.Hbonds>
donor molecule, donor type, donor heavy atom, donor atom, acceptor molecule, acceptor atom, score
      L1  H     9    31       P1  7948  1.00
      P1  H  6896  6909       L1    15  0.99
      L1  C    17    34       P1  7948  0.91

> <Gold.PLP.Chemscore.Internal.Correction>
0.0116

> <Gold.Rescore>
     Score         DG    S(hbond)    S(metal)    S(lipo)     H(rot)  DE(clash)    DE(int)     intcor
     16.39     -16.77       1.65        0.00      75.78       1.20       0.01       0.38       ----

> <Gold.Chemscore.Fitness>
16.3862

> <Gold.Chemscore.DG>
-16.7750

> <Gold.Chemscore.ZeroCoef>
-5.4800

> <Gold.Chemscore.Hbond>
1.6479

> <Gold.Chemscore.Metal>
0.0000

> <Gold.Chemscore.Lipo>
75.7775

> <Gold.Chemscore.Internal_Hbond>
0.0000

> <Gold.Chemscore.DEClash>
0.0073

> <Gold.Chemscore.DEInternal>
0.3815

> <Gold.Chemscore.Rot>
1.2012

> <Gold.Chemscore.Internal.Correction>
   9.000000E+99

> <Gold.Chemscore.Hbonds>
donor molecule, donor type, donor heavy atom, donor atom, acceptor molecule, acceptor atom, score
      L1  H     9    31       P1  7948  0.33
      P1  H  6896  6909       L1    15  0.91

> <Gold.Chemscore.Hbond.Weighted>
-5.5040

> <Gold.Chemscore.Metal.Weighted>
-0.0000

> <Gold.Chemscore.Lipo.Weighted>
-8.8660

> <Gold.Chemscore.Internal_Hbond.Weighted>
0.0000

> <Gold.Chemscore.DEClash.Weighted>
0.0073

> <Gold.Chemscore.DEInternal.Weighted>
0.3815

> <Gold.Chemscore.Rot.Weighted>
3.0750

> <Gold.Chemscore.Internal.Correction.Weighted>
   9.000000E+99

> <Gold.Protein.RotatedTorsions>
[ 6907 6896 6895 6894 ] final  -60.76 input  -60.11 | X-H torsion
[ 7974 7965 7964 7962 ] final  161.47 input  175.53 | X-H torsion
[ 8008 7997 7996 7995 ] final   95.51 input   59.86 | X-H torsion
[ 10167 10162 10161 10158 ] final  166.30 input  -65.29 | X-H torsion
[ 10718 10713 10712 10709 ] final  170.25 input   66.30 | X-H torsion
[ 10763 10752 10751 10750 ] final -179.22 input  -60.55 | X-H torsion
[ 11005 11000 10999 10996 ] final  177.68 input  -57.11 | X-H torsion

> <Gold.Protein.ActiveResidues>
 VAL166  LYS551  ARG553  GLY616  TRP617  ASP618  TYR619  PRO620  LYS621  CYS622 
 ASP623  PHE694  ASN695  SER759  ASP760  ASP761  ALA762  ILE779  LEU786  VAL792 
 PHE793  MET794  SER795  GLU796  ALA797  LYS798  CYS799  TRP800  GLU811  SER814 

> <Gold.Protein.RotatedAtoms>
  150.7833  134.6794  159.6435 H   0  0  0  0  0  0  0  0  0  0  0  0  # atno 6907 bound_to 6896
  152.3922  134.6419  160.0112 H   0  0  0  0  0  0  0  0  0  0  0  0  # atno 6908 bound_to 6896
  151.6716  133.3277  159.3234 H   0  0  0  0  0  0  0  0  0  0  0  0  # atno 6909 bound_to 6896
  144.7684  139.7903  143.6306 H   0  0  0  0  0  0  0  0  0  0  0  0  # atno 7974 bound_to 7965
  156.0697  140.3285  155.7561 H   0  0  0  0  0  0  0  0  0  0  0  0  # atno 8008 bound_to 7997
  155.5325  140.0594  157.2903 H   0  0  0  0  0  0  0  0  0  0  0  0  # atno 8009 bound_to 7997
  154.4523  140.1925  156.0498 H   0  0  0  0  0  0  0  0  0  0  0  0  # atno 8010 bound_to 7997
  139.4922  144.4042  151.9374 H   0  0  0  0  0  0  0  0  0  0  0  0  # atno 10167 bound_to 10162
  157.0108  131.0203  151.2803 H   0  0  0  0  0  0  0  0  0  0  0  0  # atno 10718 bound_to 10713
  154.5379  135.2804  155.1122 H   0  0  0  0  0  0  0  0  0  0  0  0  # atno 10763 bound_to 10752
  154.2617  135.6320  153.5280 H   0  0  0  0  0  0  0  0  0  0  0  0  # atno 10764 bound_to 10752
  152.9972  135.5607  154.5910 H   0  0  0  0  0  0  0  0  0  0  0  0  # atno 10765 bound_to 10752
  140.3868  134.6897  157.4484 H   0  0  0  0  0  0  0  0  0  0  0  0  # atno 11005 bound_to 11000
  146.1811  139.5003  142.9866 LP  0  0  0  0  0  0  0  0  0  0  0  0  # atno 17320 bound_to 7965
  145.6399  141.0286  143.1817 LP  0  0  0  0  0  0  0  0  0  0  0  0  # atno 17321 bound_to 7965
  140.3482  144.3121  150.5954 LP  0  0  0  0  0  0  0  0  0  0  0  0  # atno 17342 bound_to 10162
  140.5508  143.2207  151.7930 LP  0  0  0  0  0  0  0  0  0  0  0  0  # atno 17343 bound_to 10162
  157.5321  130.8065  149.7929 LP  0  0  0  0  0  0  0  0  0  0  0  0  # atno 17370 bound_to 10713
  156.0137  130.3822  150.2181 LP  0  0  0  0  0  0  0  0  0  0  0  0  # atno 17371 bound_to 10713
  140.0436  134.6231  155.8949 LP  0  0  0  0  0  0  0  0  0  0  0  0  # atno 17394 bound_to 11000
  141.1904  133.6568  156.5413 LP  0  0  0  0  0  0  0  0  0  0  0  0  # atno 17395 bound_to 11000

$$$$
