AV-unprocessed.smi:1876|AV-procd|sdf|7620|dock1
  -GOLD-   22720 9343D 1   1.00000     0.00000
 Structure written by MMmdl.
 31 32  0  0  0  0  0  0  0  0  1 V2000
  154.3862  141.4425  161.0599 C   0  0  0  0  0  0  0  0  0  0  0  0
  153.5842  141.0772  159.8579 C   0  0  0  0  0  0  0  0  0  0  0  0
  152.3141  141.3839  159.4571 C   0  0  0  0  0  0  0  0  0  0  0  0
  152.1956  140.7004  158.2175 C   0  0  0  0  0  0  0  0  0  0  0  0
  150.9975  140.7660  157.4607 N   0  0  0  0  0  0  0  0  0  0  0  0
  150.8570  140.6002  156.1342 C   0  0  0  0  0  0  0  0  0  0  0  0
  151.7731  140.3481  155.3510 O   0  0  0  0  0  0  0  0  0  0  0  0
  149.5767  140.7418  155.7571 N   0  0  0  0  0  0  0  0  0  0  0  0
  149.0726  140.5925  154.3910 C   0  0  2  0  0  0  0  0  0  0  0  0
  147.6137  141.0887  154.3673 C   0  0  0  0  0  0  0  0  0  0  0  0
  146.9835  140.8308  152.9961 C   0  0  0  0  0  0  0  0  0  0  0  0
  146.9705  139.3261  152.6897 C   0  0  0  0  0  0  0  0  0  0  0  0
  148.1942  138.6402  153.1054 N   0  0  0  0  0  0  0  0  0  0  0  0
  149.1386  139.1131  153.9394 C   0  0  0  0  0  0  0  0  0  0  0  0
  150.0703  138.3959  154.3013 O   0  0  0  0  0  0  0  0  0  0  0  0
  153.2952  140.0386  157.8903 N   0  0  0  0  0  0  0  0  0  0  0  0
  154.1905  140.2767  158.9399 O   0  0  0  0  0  0  0  0  0  0  0  0
  153.8073  142.0674  161.7402 H   0  0  0  0  0  0  0  0  0  0  0  0
  155.2819  141.9940  160.7741 H   0  0  0  0  0  0  0  0  0  0  0  0
  154.6966  140.5495  161.6027 H   0  0  0  0  0  0  0  0  0  0  0  0
  151.5889  141.9974  159.9709 H   0  0  0  0  0  0  0  0  0  0  0  0
  150.1578  140.9592  157.9858 H   0  0  0  0  0  0  0  0  0  0  0  0
  148.8923  140.9445  156.4705 H   0  0  0  0  0  0  0  0  0  0  0  0
  149.6661  141.1882  153.6952 H   0  0  0  0  0  0  0  0  0  0  0  0
  147.0247  140.5935  155.1416 H   0  0  0  0  0  0  0  0  0  0  0  0
  147.5821  142.1562  154.5893 H   0  0  0  0  0  0  0  0  0  0  0  0
  145.9704  141.2317  152.9560 H   0  0  0  0  0  0  0  0  0  0  0  0
  147.5561  141.3568  152.2311 H   0  0  0  0  0  0  0  0  0  0  0  0
  146.1389  138.8560  153.2157 H   0  0  0  0  0  0  0  0  0  0  0  0
  146.8029  139.1561  151.6258 H   0  0  0  0  0  0  0  0  0  0  0  0
  148.2971  137.6855  152.7930 H   0  0  0  0  0  0  0  0  0  0  0  0
  1  2  1  0  0  0  0
  1 18  1  0  0  0  0
  1 19  1  0  0  0  0
  1 20  1  0  0  0  0
  2 17  1  0  0  0  0
  2  3  2  0  0  0  0
  3  4  1  0  0  0  0
  3 21  1  0  0  0  0
  4  5  1  0  0  0  0
  4 16  2  0  0  0  0
  5  6  1  0  0  0  0
  5 22  1  0  0  0  0
  6  7  2  0  0  0  0
  6  8  1  0  0  0  0
  8  9  1  0  0  0  0
  8 23  1  0  0  0  0
  9 14  1  0  0  0  0
  9 10  1  0  0  0  0
  9 24  1  0  0  0  0
 10 11  1  0  0  0  0
 10 25  1  0  0  0  0
 10 26  1  0  0  0  0
 11 12  1  0  0  0  0
 11 27  1  0  0  0  0
 11 28  1  0  0  0  0
 12 13  1  0  0  0  0
 12 29  1  0  0  0  0
 12 30  1  0  0  0  0
 13 14  1  0  0  0  0
 13 31  1  0  0  0  0
 14 15  2  0  0  0  0
 16 17  1  0  0  0  0
M  END
> <s_m_source_file>
AV-unprocessed.smi

> <i_m_source_file_index>
1876

> <i_lp_mmshare_version>
43012

> <i_f3d_flags>
0

> <s_epik_input>
W0NIM11jMVtjSF1jKG5vMSlbTkhdQyg9TylbTkhdW0NAQEhdMltDSDJdW0NIMl1bQ0gyXVtOSF1DMj1P

> <s_epik_cmdline>
J2VwaWtfcHl0aG9uJywgJy1waCcsICc3LjAnLCAnLXRuJywgJzgnLCAnLW1hJywgJzIwMCcsICctbWV0YWxfYmluZGluZycsICctaW1hZScsICc8aW5maWxlLm1hZT4nLCAnLW9tYWUnLCAnPG91dGZpbGUubWFlPic=

> <r_lp_tautomer_probability>
1

> <r_epik_Ionization_Penalty>
2.33177e-05

> <r_epik_Ionization_Penalty_Charging>
0

> <r_epik_Ionization_Penalty_Neutral>
2.33177e-05

> <r_epik_State_Penalty>
-0

> <r_epik_Charging_Adjusted_Penalty>
0

> <i_epik_Tot_Q>
0

> <i_epik_Tot_abs_Q>
0

> <r_epik_Metal_State_Penalty>
-0

> <b_epik_Metal_Only>
0

> <s_lp_Force_Field>
OPLS_2005

> <r_lp_Energy>
8.43972

> <b_lp_Chiralities_Consistent>
1

> <s_lp_Variant>
AV-unprocessed.smi:1876-1

> <Gold.Version>
5.8.1

> <Gold.Id.Protein>
6NUR|6NUR_protein|mol2

> <Gold.PLP.Fitness>
36.9014

> <Gold.PLP.PLP>
-29.5853

> <Gold.PLP.part.hbond>
-5.0000

> <Gold.PLP.part.metal>
0.0000

> <Gold.PLP.part.buried>
-1.1789

> <Gold.PLP.part.nonpolar>
-22.9783

> <Gold.PLP.part.repulsive>
0.3943

> <Gold.PLP.ligand.clash>
0.0000

> <Gold.PLP.ligand.torsion>
0.2241

> <Gold.PLP.Chemscore.Hbond>
2.5880

> <Gold.PLP.Chemscore.CHOScore>
0.0000

> <Gold.PLP.Chemscore.Metal>
0.0000

> <Gold.Chemscore.Hbonds>
donor molecule, donor type, donor heavy atom, donor atom, acceptor molecule, acceptor atom, score
      L1  H    13    31       P1  7948  1.00
      P1  H  7989  7998       L1     7  0.80
      P1  H  7997  8009       L1    16  0.65

> <Gold.PLP.Chemscore.Internal.Correction>
0.0003

> <Gold.Rescore>
     Score         DG    S(hbond)    S(metal)    S(lipo)     H(rot)  DE(clash)    DE(int)     intcor
     12.30     -15.87       1.84        0.00      58.28       1.00       0.11       3.46       ----

> <Gold.Chemscore.Fitness>
12.2959

> <Gold.Chemscore.DG>
-15.8724

> <Gold.Chemscore.ZeroCoef>
-5.4800

> <Gold.Chemscore.Hbond>
1.8365

> <Gold.Chemscore.Metal>
0.0000

> <Gold.Chemscore.Lipo>
58.2766

> <Gold.Chemscore.Internal_Hbond>
0.0000

> <Gold.Chemscore.DEClash>
0.1127

> <Gold.Chemscore.DEInternal>
3.4637

> <Gold.Chemscore.Rot>
1.0000

> <Gold.Chemscore.Internal.Correction>
   9.000000E+99

> <Gold.Chemscore.Hbonds>
donor molecule, donor type, donor heavy atom, donor atom, acceptor molecule, acceptor atom, score
      L1  H    13    31       P1  7948  0.99
      P1  H  7989  7998       L1     7  0.78
      P1  H  7997  8009       L1    16  0.08

> <Gold.Chemscore.Hbond.Weighted>
-6.1340

> <Gold.Chemscore.Metal.Weighted>
-0.0000

> <Gold.Chemscore.Lipo.Weighted>
-6.8184

> <Gold.Chemscore.Internal_Hbond.Weighted>
0.0000

> <Gold.Chemscore.DEClash.Weighted>
0.1127

> <Gold.Chemscore.DEInternal.Weighted>
3.4637

> <Gold.Chemscore.Rot.Weighted>
2.5600

> <Gold.Chemscore.Internal.Correction.Weighted>
   9.000000E+99

> <Gold.Protein.RotatedTorsions>
[ 6907 6896 6895 6894 ] final   35.54 input  -60.11 | X-H torsion
[ 7974 7965 7964 7962 ] final   57.77 input  175.53 | X-H torsion
[ 8008 7997 7996 7995 ] final  176.62 input   59.86 | X-H torsion
[ 10167 10162 10161 10158 ] final   27.13 input  -65.29 | X-H torsion
[ 10718 10713 10712 10709 ] final  -37.03 input   66.30 | X-H torsion
[ 10763 10752 10751 10750 ] final  -96.41 input  -60.55 | X-H torsion
[ 11005 11000 10999 10996 ] final  170.00 input  -57.11 | X-H torsion

> <Gold.Protein.ActiveResidues>
 VAL166  LYS551  ARG553  GLY616  TRP617  ASP618  TYR619  PRO620  LYS621  CYS622 
 ASP623  PHE694  ASN695  SER759  ASP760  ASP761  ALA762  ILE779  LEU786  VAL792 
 PHE793  MET794  SER795  GLU796  ALA797  LYS798  CYS799  TRP800  GLU811  SER814 

> <Gold.Protein.RotatedAtoms>
  152.1175  134.9230  160.0564 H   0  0  0  0  0  0  0  0  0  0  0  0  # atno 6907 bound_to 6896
  152.0383  133.3962  159.4334 H   0  0  0  0  0  0  0  0  0  0  0  0  # atno 6908 bound_to 6896
  150.6847  134.3364  159.4892 H   0  0  0  0  0  0  0  0  0  0  0  0  # atno 6909 bound_to 6896
  145.9255  139.3764  143.0453 H   0  0  0  0  0  0  0  0  0  0  0  0  # atno 7974 bound_to 7965
  156.0745  140.1379  156.9788 H   0  0  0  0  0  0  0  0  0  0  0  0  # atno 8008 bound_to 7997
  154.4550  140.0965  156.6781 H   0  0  0  0  0  0  0  0  0  0  0  0  # atno 8009 bound_to 7997
  155.5175  140.3455  155.4402 H   0  0  0  0  0  0  0  0  0  0  0  0  # atno 8010 bound_to 7997
  140.4964  144.0385  150.6316 H   0  0  0  0  0  0  0  0  0  0  0  0  # atno 10167 bound_to 10162
  156.3200  130.4264  149.7969 H   0  0  0  0  0  0  0  0  0  0  0  0  # atno 10718 bound_to 10713
  154.7237  135.5085  153.8852 H   0  0  0  0  0  0  0  0  0  0  0  0  # atno 10763 bound_to 10752
  153.0885  135.6652  153.9910 H   0  0  0  0  0  0  0  0  0  0  0  0  # atno 10764 bound_to 10752
  153.9727  135.3037  155.3405 H   0  0  0  0  0  0  0  0  0  0  0  0  # atno 10765 bound_to 10752
  140.3037  134.7574  157.3937 H   0  0  0  0  0  0  0  0  0  0  0  0  # atno 11005 bound_to 11000
  145.8495  140.9537  143.0757 LP  0  0  0  0  0  0  0  0  0  0  0  0  # atno 17320 bound_to 7965
  144.6758  140.0388  143.7481 LP  0  0  0  0  0  0  0  0  0  0  0  0  # atno 17321 bound_to 7965
  140.3668  143.2877  152.0322 LP  0  0  0  0  0  0  0  0  0  0  0  0  # atno 17342 bound_to 10162
  139.4862  144.6260  151.7163 LP  0  0  0  0  0  0  0  0  0  0  0  0  # atno 17343 bound_to 10162
  156.5281  130.8245  151.3227 LP  0  0  0  0  0  0  0  0  0  0  0  0  # atno 17370 bound_to 10713
  157.7410  130.9860  150.2413 LP  0  0  0  0  0  0  0  0  0  0  0  0  # atno 17371 bound_to 10713
  140.1086  134.5376  155.8287 LP  0  0  0  0  0  0  0  0  0  0  0  0  # atno 17394 bound_to 11000
  141.2123  133.6717  156.6646 LP  0  0  0  0  0  0  0  0  0  0  0  0  # atno 17395 bound_to 11000

$$$$
