AV-unprocessed.smi:897|AV-procd|sdf|4081|dock5
  -GOLD-   22720 1573D 1   1.00000     0.00000
 Structure written by MMmdl.
 35 37  0  0  0  0  0  0  0  0  1 V2000
  152.2282  145.2299  159.0110 C   0  0  0  0  0  0  0  0  0  0  0  0
  152.2702  143.7230  159.1541 C   0  0  0  0  0  0  0  0  0  0  0  0
  153.1370  143.1065  160.0754 C   0  0  0  0  0  0  0  0  0  0  0  0
  153.1365  141.7001  160.1680 C   0  0  0  0  0  0  0  0  0  0  0  0
  154.0676  141.0233  161.1628 C   0  0  0  0  0  0  0  0  0  0  0  0
  152.2639  140.9618  159.3262 C   0  0  0  0  0  0  0  0  0  0  0  0
  152.2360  139.5016  159.3854 C   0  0  0  0  0  0  0  0  0  0  0  0
  152.2138  138.3457  159.4316 N   0  0  0  0  0  0  0  0  0  0  0  0
  151.4273  141.6781  158.4260 C   0  0  0  0  0  0  0  0  0  0  0  0
  150.5420  140.9915  157.5741 N   0  0  0  0  0  0  0  0  0  0  0  0
  150.6927  141.0430  156.1228 C   0  0  2  0  0  0  0  0  0  0  0  0
  149.4865  141.6696  155.4193 C   0  0  0  0  0  0  0  0  0  0  0  0
  149.1214  140.5873  154.3932 C   0  0  2  0  0  0  0  0  0  0  0  0
  148.4318  139.3895  155.0587 C   0  0  0  0  0  0  0  0  0  0  0  0
  149.5971  138.7295  155.7931 C   0  0  0  0  0  0  0  0  0  0  0  0
  150.7672  139.6631  155.4378 C   0  0  1  0  0  0  0  0  0  0  0  0
  150.3968  140.0314  154.1198 O   0  0  0  0  0  0  0  0  0  0  0  0
  151.4374  143.0303  158.3520 N   0  0  0  0  0  0  0  0  0  0  0  0
  152.8227  145.7167  159.7845 H   0  0  0  0  0  0  0  0  0  0  0  0
  151.2031  145.5921  159.0931 H   0  0  0  0  0  0  0  0  0  0  0  0
  152.6219  145.5276  158.0390 H   0  0  0  0  0  0  0  0  0  0  0  0
  153.7883  143.7016  160.6990 H   0  0  0  0  0  0  0  0  0  0  0  0
  154.7571  140.3533  160.6484 H   0  0  0  0  0  0  0  0  0  0  0  0
  153.4960  140.4430  161.8880 H   0  0  0  0  0  0  0  0  0  0  0  0
  154.6611  141.7544  161.7127 H   0  0  0  0  0  0  0  0  0  0  0  0
  149.9901  140.2396  157.9615 H   0  0  0  0  0  0  0  0  0  0  0  0
  151.5801  141.6257  155.8707 H   0  0  0  0  0  0  0  0  0  0  0  0
  148.6538  141.8944  156.0876 H   0  0  0  0  0  0  0  0  0  0  0  0
  149.7792  142.5950  154.9224 H   0  0  0  0  0  0  0  0  0  0  0  0
  148.5974  140.9677  153.5159 H   0  0  0  0  0  0  0  0  0  0  0  0
  147.6255  139.6923  155.7276 H   0  0  0  0  0  0  0  0  0  0  0  0
  148.0196  138.7125  154.3095 H   0  0  0  0  0  0  0  0  0  0  0  0
  149.4293  138.6404  156.8666 H   0  0  0  0  0  0  0  0  0  0  0  0
  149.7745  137.7285  155.3986 H   0  0  0  0  0  0  0  0  0  0  0  0
  151.7456  139.1870  155.5056 H   0  0  0  0  0  0  0  0  0  0  0  0
  1  2  1  0  0  0  0
  1 19  1  0  0  0  0
  1 20  1  0  0  0  0
  1 21  1  0  0  0  0
  2 18  1  0  0  0  0
  2  3  2  0  0  0  0
  3  4  1  0  0  0  0
  3 22  1  0  0  0  0
  4  5  1  0  0  0  0
  4  6  2  0  0  0  0
  5 23  1  0  0  0  0
  5 24  1  0  0  0  0
  5 25  1  0  0  0  0
  6  7  1  0  0  0  0
  6  9  1  0  0  0  0
  7  8  3  0  0  0  0
  9 10  1  0  0  0  0
  9 18  2  0  0  0  0
 10 11  1  0  0  0  0
 10 26  1  0  0  0  0
 11 16  1  0  0  0  0
 11 12  1  0  0  0  0
 11 27  1  0  0  0  0
 12 13  1  0  0  0  0
 12 28  1  0  0  0  0
 12 29  1  0  0  0  0
 13 17  1  0  0  0  0
 13 14  1  0  0  0  0
 13 30  1  0  0  0  0
 14 15  1  0  0  0  0
 14 31  1  0  0  0  0
 14 32  1  0  0  0  0
 15 16  1  0  0  0  0
 15 33  1  0  0  0  0
 15 34  1  0  0  0  0
 16 17  1  0  0  0  0
 16 35  1  0  0  0  0
M  END
> <s_m_source_file>
AV-unprocessed.smi

> <i_m_source_file_index>
897

> <i_lp_mmshare_version>
43012

> <i_f3d_flags>
0

> <s_epik_input>
W0NIM11jMVtjSF1jKFtDSDNdKWMoQyNOKWMobjEpW05IXVtDQEhdKFtDSDJdW0NAQEhdMjMpW0NAQEhdKE8zKVtDSDJdW0NIMl0y

> <s_epik_cmdline>
J2VwaWtfcHl0aG9uJywgJy1waCcsICc3LjAnLCAnLXRuJywgJzgnLCAnLW1hJywgJzIwMCcsICctbWV0YWxfYmluZGluZycsICctaW1hZScsICc8aW5maWxlLm1hZT4nLCAnLW9tYWUnLCAnPG91dGZpbGUubWFlPic=

> <r_lp_tautomer_probability>
1

> <r_epik_Ionization_Penalty>
0.000502654

> <r_epik_Ionization_Penalty_Charging>
0

> <r_epik_Ionization_Penalty_Neutral>
0.000502654

> <r_epik_State_Penalty>
-0

> <r_epik_Charging_Adjusted_Penalty>
0

> <i_epik_Tot_Q>
0

> <i_epik_Tot_abs_Q>
0

> <r_epik_Metal_State_Penalty>
-0

> <b_epik_Metal_Only>
0

> <s_lp_Force_Field>
OPLS_2005

> <r_lp_Energy>
43.9229

> <b_lp_Chiralities_Consistent>
1

> <s_lp_Variant>
AV-unprocessed.smi:897-3

> <Gold.Version>
5.8.1

> <Gold.Id.Protein>
6NUR|6NUR_protein|mol2

> <Gold.PLP.Fitness>
40.7631

> <Gold.PLP.PLP>
-39.0102

> <Gold.PLP.part.hbond>
-0.9689

> <Gold.PLP.part.metal>
0.0000

> <Gold.PLP.part.buried>
-4.2245

> <Gold.PLP.part.nonpolar>
-34.6360

> <Gold.PLP.part.repulsive>
0.2646

> <Gold.PLP.ligand.clash>
0.0000

> <Gold.PLP.ligand.torsion>
0.6286

> <Gold.PLP.Chemscore.Hbond>
1.0000

> <Gold.PLP.Chemscore.CHOScore>
0.0000

> <Gold.PLP.Chemscore.Metal>
0.0000

> <Gold.Chemscore.Hbonds>
donor molecule, donor type, donor heavy atom, donor atom, acceptor molecule, acceptor atom, score
      P1  H  7989  7998       L1    17  1.00

> <Gold.PLP.Chemscore.Internal.Correction>
0.0101

> <Gold.Rescore>
     Score         DG    S(hbond)    S(metal)    S(lipo)     H(rot)  DE(clash)    DE(int)     intcor
     16.71     -17.31       0.82        0.00      99.63       1.00       0.01       0.59       ----

> <Gold.Chemscore.Fitness>
16.7145

> <Gold.Chemscore.DG>
-17.3149

> <Gold.Chemscore.ZeroCoef>
-5.4800

> <Gold.Chemscore.Hbond>
0.8197

> <Gold.Chemscore.Metal>
0.0000

> <Gold.Chemscore.Lipo>
99.6334

> <Gold.Chemscore.Internal_Hbond>
0.0000

> <Gold.Chemscore.DEClash>
0.0060

> <Gold.Chemscore.DEInternal>
0.5944

> <Gold.Chemscore.Rot>
1.0000

> <Gold.Chemscore.Internal.Correction>
   9.000000E+99

> <Gold.Chemscore.Hbonds>
donor molecule, donor type, donor heavy atom, donor atom, acceptor molecule, acceptor atom, score
      P1  H  7989  7998       L1    17  0.63

> <Gold.Chemscore.Hbond.Weighted>
-2.7378

> <Gold.Chemscore.Metal.Weighted>
-0.0000

> <Gold.Chemscore.Lipo.Weighted>
-11.6571

> <Gold.Chemscore.Internal_Hbond.Weighted>
0.0000

> <Gold.Chemscore.DEClash.Weighted>
0.0060

> <Gold.Chemscore.DEInternal.Weighted>
0.5944

> <Gold.Chemscore.Rot.Weighted>
2.5600

> <Gold.Chemscore.Internal.Correction.Weighted>
   9.000000E+99

> <Gold.Protein.RotatedTorsions>
[ 6907 6896 6895 6894 ] final  174.92 input  -60.11 | X-H torsion
[ 7974 7965 7964 7962 ] final   -0.13 input  175.53 | X-H torsion
[ 8008 7997 7996 7995 ] final   40.57 input   59.86 | X-H torsion
[ 10167 10162 10161 10158 ] final  122.45 input  -65.29 | X-H torsion
[ 10718 10713 10712 10709 ] final -106.87 input   66.30 | X-H torsion
[ 10763 10752 10751 10750 ] final   40.82 input  -60.55 | X-H torsion
[ 11005 11000 10999 10996 ] final -133.55 input  -57.11 | X-H torsion

> <Gold.Protein.ActiveResidues>
 VAL166  LYS551  ARG553  GLY616  TRP617  ASP618  TYR619  PRO620  LYS621  CYS622 
 ASP623  PHE694  ASN695  SER759  ASP760  ASP761  ALA762  ILE779  LEU786  VAL792 
 PHE793  MET794  SER795  GLU796  ALA797  LYS798  CYS799  TRP800  GLU811  SER814 

> <Gold.Protein.RotatedAtoms>
  151.7446  133.3324  159.3374 H   0  0  0  0  0  0  0  0  0  0  0  0  # atno 6907 bound_to 6896
  150.7559  134.6247  159.6164 H   0  0  0  0  0  0  0  0  0  0  0  0  # atno 6908 bound_to 6896
  152.3508  134.7010  160.0288 H   0  0  0  0  0  0  0  0  0  0  0  0  # atno 6909 bound_to 6896
  146.2430  140.1223  142.8340 H   0  0  0  0  0  0  0  0  0  0  0  0  # atno 7974 bound_to 7965
  155.2554  140.3355  155.4278 H   0  0  0  0  0  0  0  0  0  0  0  0  # atno 8008 bound_to 7997
  156.2198  140.1804  156.7547 H   0  0  0  0  0  0  0  0  0  0  0  0  # atno 8009 bound_to 7997
  154.5808  140.0654  156.9085 H   0  0  0  0  0  0  0  0  0  0  0  0  # atno 8010 bound_to 7997
  139.5858  144.7006  151.3413 H   0  0  0  0  0  0  0  0  0  0  0  0  # atno 10167 bound_to 10162
  156.0410  130.5634  150.7741 H   0  0  0  0  0  0  0  0  0  0  0  0  # atno 10718 bound_to 10713
  152.9925  135.6180  154.2688 H   0  0  0  0  0  0  0  0  0  0  0  0  # atno 10763 bound_to 10752
  154.2422  135.2788  155.2851 H   0  0  0  0  0  0  0  0  0  0  0  0  # atno 10764 bound_to 10752
  154.5359  135.5774  153.6856 H   0  0  0  0  0  0  0  0  0  0  0  0  # atno 10765 bound_to 10752
  140.9071  134.1616  157.4417 H   0  0  0  0  0  0  0  0  0  0  0  0  # atno 11005 bound_to 11000
  145.0396  140.8935  143.5060 LP  0  0  0  0  0  0  0  0  0  0  0  0  # atno 17320 bound_to 7965
  145.1301  139.2637  143.5544 LP  0  0  0  0  0  0  0  0  0  0  0  0  # atno 17321 bound_to 7965
  140.7130  143.7341  150.7602 LP  0  0  0  0  0  0  0  0  0  0  0  0  # atno 17342 bound_to 10162
  140.0885  143.4900  152.2492 LP  0  0  0  0  0  0  0  0  0  0  0  0  # atno 17343 bound_to 10162
  157.5227  131.0932  151.0058 LP  0  0  0  0  0  0  0  0  0  0  0  0  # atno 17370 bound_to 10713
  157.0384  130.5739  149.5353 LP  0  0  0  0  0  0  0  0  0  0  0  0  # atno 17371 bound_to 10713
  139.8751  134.9921  156.5580 LP  0  0  0  0  0  0  0  0  0  0  0  0  # atno 17394 bound_to 11000
  140.8157  133.8393  155.8850 LP  0  0  0  0  0  0  0  0  0  0  0  0  # atno 17395 bound_to 11000

$$$$
