AV-unprocessed.smi:160|AV-procd|sdf|1353|dock5
  -GOLD-   2262019 53D 1   1.00000     0.00000
 Structure written by MMmdl.
 29 30  0  0  0  0  0  0  0  0  1 V2000
  152.8338  141.0095  159.7652 N   0  0  0  0  0  0  0  0  0  0  0  0
  152.8782  140.3682  158.5927 C   0  0  0  0  0  0  0  0  0  0  0  0
  153.6336  139.4191  158.3889 O   0  0  0  0  0  0  0  0  0  0  0  0
  151.9466  140.8718  157.5251 C   0  0  0  0  0  0  0  0  0  0  0  0
  151.3989  142.1210  157.5981 N   0  0  0  0  0  0  0  0  0  0  0  0
  150.6831  142.1004  156.4813 C   0  0  0  0  0  0  0  0  0  0  0  0
  150.7815  140.9617  155.7879 N   0  0  0  0  0  0  0  0  0  0  0  0
  150.1309  140.5700  154.4940 C   0  0  2  0  0  0  0  0  0  0  0  0
  149.2152  141.5631  154.1405 O   0  0  0  0  0  0  0  0  0  0  0  0
  147.8924  141.1231  154.4290 C   0  0  1  0  0  0  0  0  0  0  0  0
  146.8501  141.9300  153.6351 C   0  0  0  0  0  0  0  0  0  0  0  0
  146.8089  143.2618  154.1019 O   0  0  0  0  0  0  0  0  0  0  0  0
  147.9613  139.6247  154.1027 C   0  0  1  0  0  0  0  0  0  0  0  0
  147.8285  139.4002  152.7103 O   0  0  0  0  0  0  0  0  0  0  0  0
  149.3582  139.2299  154.5709 C   0  0  2  0  0  0  0  0  0  0  0  0
  149.2961  138.6605  155.8674 O   0  0  0  0  0  0  0  0  0  0  0  0
  151.6144  140.1319  156.4660 N   0  0  0  0  0  0  0  0  0  0  0  0
  150.9506  140.5522  153.7748 H   0  0  0  0  0  0  0  0  0  0  0  0
  147.7048  141.2276  155.4990 H   0  0  0  0  0  0  0  0  0  0  0  0
  147.1742  139.0636  154.6086 H   0  0  0  0  0  0  0  0  0  0  0  0
  149.8236  138.5037  153.9030 H   0  0  0  0  0  0  0  0  0  0  0  0
  153.4356  140.7187  160.5217 H   0  0  0  0  0  0  0  0  0  0  0  0
  152.1962  141.7836  159.8852 H   0  0  0  0  0  0  0  0  0  0  0  0
  150.0768  142.9343  156.1599 H   0  0  0  0  0  0  0  0  0  0  0  0
  147.0613  141.9113  152.5653 H   0  0  0  0  0  0  0  0  0  0  0  0
  145.8566  141.5048  153.7797 H   0  0  0  0  0  0  0  0  0  0  0  0
  147.5974  143.4328  154.5939 H   0  0  0  0  0  0  0  0  0  0  0  0
  148.5087  139.8793  152.2622 H   0  0  0  0  0  0  0  0  0  0  0  0
  148.6839  139.1591  156.3864 H   0  0  0  0  0  0  0  0  0  0  0  0
  1  2  1  0  0  0  0
  1 22  1  0  0  0  0
  1 23  1  0  0  0  0
  2  3  2  0  0  0  0
  2  4  1  0  0  0  0
  4 17  2  0  0  0  0
  4  5  1  0  0  0  0
  5  6  2  0  0  0  0
  6  7  1  0  0  0  0
  6 24  1  0  0  0  0
  7  8  1  0  0  0  0
  7 17  1  0  0  0  0
  8 18  1  0  0  0  0
  8 15  1  0  0  0  0
  8  9  1  0  0  0  0
  9 10  1  0  0  0  0
 10 19  1  0  0  0  0
 10 11  1  0  0  0  0
 10 13  1  0  0  0  0
 11 12  1  0  0  0  0
 11 25  1  0  0  0  0
 11 26  1  0  0  0  0
 12 27  1  0  0  0  0
 13 20  1  0  0  0  0
 13 14  1  0  0  0  0
 13 15  1  0  0  0  0
 14 28  1  0  0  0  0
 15 21  1  0  0  0  0
 15 16  1  0  0  0  0
 16 29  1  0  0  0  0
M  END
> <s_m_source_file>
AV-unprocessed.smi

> <i_m_source_file_index>
160

> <i_lp_mmshare_version>
43012

> <i_f3d_flags>
0

> <s_epik_input>
W05IMl1DKD1PKWMxbltjSF1uKG4xKVtDQEBIXTJPW0NASF0oW0NIMl1bT0hdKVtDQEBIXShbT0hdKVtDQEhdMltPSF0=

> <s_epik_cmdline>
J2VwaWtfcHl0aG9uJywgJy1waCcsICc3LjAnLCAnLXRuJywgJzgnLCAnLW1hJywgJzIwMCcsICctbWV0YWxfYmluZGluZycsICctaW1hZScsICc8aW5maWxlLm1hZT4nLCAnLW9tYWUnLCAnPG91dGZpbGUubWFlPic=

> <r_lp_tautomer_probability>
1

> <r_epik_Ionization_Penalty>
1.06932e-05

> <r_epik_Ionization_Penalty_Charging>
0

> <r_epik_Ionization_Penalty_Neutral>
1.06932e-05

> <r_epik_State_Penalty>
-0

> <r_epik_Charging_Adjusted_Penalty>
0

> <i_epik_Tot_Q>
0

> <i_epik_Tot_abs_Q>
0

> <r_epik_Metal_State_Penalty>
0.0142097

> <b_epik_Metal_Only>
0

> <s_epik_Chemistry_Notes>
This compound contains an acetal/aminal-like group ( X-CH(R)-Y where X, Y are N, S, or O) that may be acid/base labile, releasing an aldehyde.

> <s_lp_Force_Field>
OPLS_2005

> <r_lp_Energy>
42.6693

> <b_lp_Chiralities_Consistent>
1

> <s_lp_Variant>
AV-unprocessed.smi:160-11

> <Gold.Version>
5.8.1

> <Gold.Id.Protein>
6NUR|6NUR_protein|mol2

> <Gold.PLP.Fitness>
38.2358

> <Gold.PLP.PLP>
-25.3100

> <Gold.PLP.part.hbond>
-5.4098

> <Gold.PLP.part.metal>
0.0000

> <Gold.PLP.part.buried>
-1.0389

> <Gold.PLP.part.nonpolar>
-18.2342

> <Gold.PLP.part.repulsive>
0.3541

> <Gold.PLP.ligand.clash>
0.0000

> <Gold.PLP.ligand.torsion>
0.2741

> <Gold.PLP.Chemscore.Hbond>
3.4901

> <Gold.PLP.Chemscore.CHOScore>
1.0000

> <Gold.PLP.Chemscore.Metal>
0.0000

> <Gold.Chemscore.Hbonds>
donor molecule, donor type, donor heavy atom, donor atom, acceptor molecule, acceptor atom, score
      L1  H    12    27       P1  8028  0.93
      L1  H    14    28       P1  7957  1.00
      P1  H  7997  8009       L1     3  1.00
      P1  H  8011  8017       L1     9  0.55
      L1  C     6    24       P1  8028  1.00

> <Gold.PLP.Chemscore.Internal.Correction>
0.0038

> <Gold.Rescore>
     Score         DG    S(hbond)    S(metal)    S(lipo)     H(rot)  DE(clash)    DE(int)     intcor
      4.07      -7.08       2.72        0.00      24.88       4.06       1.42       1.59       ----

> <Gold.Chemscore.Fitness>
4.0662

> <Gold.Chemscore.DG>
-7.0790

> <Gold.Chemscore.ZeroCoef>
-5.4800

> <Gold.Chemscore.Hbond>
2.7191

> <Gold.Chemscore.Metal>
0.0000

> <Gold.Chemscore.Lipo>
24.8774

> <Gold.Chemscore.Internal_Hbond>
0.0000

> <Gold.Chemscore.DEClash>
1.4187

> <Gold.Chemscore.DEInternal>
1.5941

> <Gold.Chemscore.Rot>
4.0600

> <Gold.Chemscore.Internal.Correction>
   9.000000E+99

> <Gold.Chemscore.Hbonds>
donor molecule, donor type, donor heavy atom, donor atom, acceptor molecule, acceptor atom, score
      L1  H    12    27       P1  8028  0.29
      L1  H    14    28       P1  7957  0.92
      P1  H  7997  8009       L1     3  0.30
      P1  H  8011  8017       L1     9  0.37

> <Gold.Chemscore.Hbond.Weighted>
-9.0819

> <Gold.Chemscore.Metal.Weighted>
-0.0000

> <Gold.Chemscore.Lipo.Weighted>
-2.9107

> <Gold.Chemscore.Internal_Hbond.Weighted>
0.0000

> <Gold.Chemscore.DEClash.Weighted>
1.4187

> <Gold.Chemscore.DEInternal.Weighted>
1.5941

> <Gold.Chemscore.Rot.Weighted>
10.3936

> <Gold.Chemscore.Internal.Correction.Weighted>
   9.000000E+99

> <Gold.Protein.RotatedTorsions>
[ 6907 6896 6895 6894 ] final -113.55 input  -60.11 | X-H torsion
[ 7974 7965 7964 7962 ] final   49.80 input  175.53 | X-H torsion
[ 8008 7997 7996 7995 ] final  156.55 input   59.86 | X-H torsion
[ 10167 10162 10161 10158 ] final   91.65 input  -65.29 | X-H torsion
[ 10718 10713 10712 10709 ] final  -39.36 input   66.30 | X-H torsion
[ 10763 10752 10751 10750 ] final  103.33 input  -60.55 | X-H torsion
[ 11005 11000 10999 10996 ] final   -8.95 input  -57.11 | X-H torsion

> <Gold.Protein.ActiveResidues>
 VAL166  LYS551  ARG553  GLY616  TRP617  ASP618  TYR619  PRO620  LYS621  CYS622 
 ASP623  PHE694  ASN695  SER759  ASP760  ASP761  ALA762  ILE779  LEU786  VAL792 
 PHE793  MET794  SER795  GLU796  ALA797  LYS798  CYS799  TRP800  GLU811  SER814 

> <Gold.Protein.RotatedAtoms>
  150.7837  133.8929  159.3318 H   0  0  0  0  0  0  0  0  0  0  0  0  # atno 6907 bound_to 6896
  151.6785  135.0963  160.0221 H   0  0  0  0  0  0  0  0  0  0  0  0  # atno 6908 bound_to 6896
  152.3895  133.6620  159.6261 H   0  0  0  0  0  0  0  0  0  0  0  0  # atno 6909 bound_to 6896
  146.0074  139.4505  142.9977 H   0  0  0  0  0  0  0  0  0  0  0  0  # atno 7974 bound_to 7965
  156.2416  140.1909  156.6973 H   0  0  0  0  0  0  0  0  0  0  0  0  # atno 8008 bound_to 7997
  154.6208  140.0609  156.9639 H   0  0  0  0  0  0  0  0  0  0  0  0  # atno 8009 bound_to 7997
  155.1865  140.3281  155.4368 H   0  0  0  0  0  0  0  0  0  0  0  0  # atno 8010 bound_to 7997
  139.8354  144.6667  150.9349 H   0  0  0  0  0  0  0  0  0  0  0  0  # atno 10167 bound_to 10162
  156.2933  130.4231  149.8216 H   0  0  0  0  0  0  0  0  0  0  0  0  # atno 10718 bound_to 10713
  153.3513  135.3980  155.1648 H   0  0  0  0  0  0  0  0  0  0  0  0  # atno 10763 bound_to 10752
  154.8663  135.3657  154.5218 H   0  0  0  0  0  0  0  0  0  0  0  0  # atno 10764 bound_to 10752
  153.5670  135.7080  153.5581 H   0  0  0  0  0  0  0  0  0  0  0  0  # atno 10765 bound_to 10752
  140.7290  133.8765  155.8878 H   0  0  0  0  0  0  0  0  0  0  0  0  # atno 11005 bound_to 11000
  145.7395  141.0013  143.1309 LP  0  0  0  0  0  0  0  0  0  0  0  0  # atno 17320 bound_to 7965
  144.6940  139.9081  143.7462 LP  0  0  0  0  0  0  0  0  0  0  0  0  # atno 17321 bound_to 7965
  140.7803  143.3962  151.1226 LP  0  0  0  0  0  0  0  0  0  0  0  0  # atno 17342 bound_to 10162
  139.7613  143.8632  152.3100 LP  0  0  0  0  0  0  0  0  0  0  0  0  # atno 17343 bound_to 10162
  156.5621  130.8388  151.3332 LP  0  0  0  0  0  0  0  0  0  0  0  0  # atno 17370 bound_to 10713
  157.7348  130.9752  150.2050 LP  0  0  0  0  0  0  0  0  0  0  0  0  # atno 17371 bound_to 10713
  140.9937  134.1243  157.4383 LP  0  0  0  0  0  0  0  0  0  0  0  0  # atno 17394 bound_to 11000
  139.8830  135.0048  156.6273 LP  0  0  0  0  0  0  0  0  0  0  0  0  # atno 17395 bound_to 11000

$$$$
