AV-unprocessed.smi:303|AV-procd|sdf|2274|dock8
  -GOLD-   2262022163D 1   1.00000     0.00000
 Structure written by MMmdl.
 45 46  0  0  0  0  0  0  0  0  1 V2000
  151.3038  143.0354  158.6547 C   0  0  0  0  0  0  0  0  0  0  0  0
  150.9072  142.6377  157.2279 C   0  0  0  0  0  0  0  0  0  0  0  0
  150.9534  140.8055  156.9824 S   0  0  0  0  0  0  0  0  0  0  0  0
  152.3550  140.3664  157.0630 O   0  0  0  0  0  0  0  0  0  0  0  0
  149.9425  140.1836  157.8520 O   0  0  0  0  0  0  0  0  0  0  0  0
  150.4343  140.5833  155.3348 N   0  0  0  0  0  0  0  0  0  0  0  0
  150.6762  139.2960  154.6559 C   0  0  0  0  0  0  0  0  0  0  0  0
  149.3954  138.4454  154.5931 C   0  0  0  0  0  0  0  0  0  0  0  0
  148.2423  139.2215  153.9317 C   0  0  0  0  0  0  0  0  0  0  0  0
  146.9555  138.3884  153.8954 C   0  0  0  0  0  0  0  0  0  0  0  0
  145.9459  138.7818  154.4809 O   0  0  0  0  0  0  0  0  0  0  0  0
  147.0001  137.2514  153.1826 N   0  0  0  0  0  0  0  0  0  0  0  0
  145.8703  136.3585  152.9359 C   0  0  0  0  0  0  0  0  0  0  0  0
  146.1858  134.9004  153.3246 C   0  0  0  0  0  0  0  0  0  0  0  0
  145.7618  133.8851  152.2768 C   0  0  0  0  0  0  0  0  0  0  0  0
  144.3975  133.5838  152.0734 C   0  0  0  0  0  0  0  0  0  0  0  0
  144.0619  132.6047  151.1188 C   0  0  0  0  0  0  0  0  0  0  0  0
  145.0968  131.9718  150.4040 C   0  0  0  0  0  0  0  0  0  0  0  0
  146.4271  132.3492  150.6759 C   0  0  0  0  0  0  0  0  0  0  0  0
  146.7600  133.2850  151.5907 N   0  0  0  0  0  0  0  0  0  0  0  0
  148.0157  140.5375  154.6978 C   0  0  0  0  0  0  0  0  0  0  0  0
  149.3074  141.3685  154.7888 C   0  0  0  0  0  0  0  0  0  0  0  0
  151.2453  144.1158  158.7855 H   0  0  0  0  0  0  0  0  0  0  0  0
  152.3261  142.7302  158.8789 H   0  0  0  0  0  0  0  0  0  0  0  0
  150.6483  142.5749  159.3931 H   0  0  0  0  0  0  0  0  0  0  0  0
  149.9217  143.0144  156.9670 H   0  0  0  0  0  0  0  0  0  0  0  0
  151.6132  143.0795  156.5249 H   0  0  0  0  0  0  0  0  0  0  0  0
  151.0314  139.4995  153.6452 H   0  0  0  0  0  0  0  0  0  0  0  0
  151.4728  138.7477  155.1582 H   0  0  0  0  0  0  0  0  0  0  0  0
  149.5978  137.5302  154.0353 H   0  0  0  0  0  0  0  0  0  0  0  0
  149.1131  138.1319  155.5980 H   0  0  0  0  0  0  0  0  0  0  0  0
  148.5326  139.4622  152.9072 H   0  0  0  0  0  0  0  0  0  0  0  0
  147.8747  137.0070  152.7411 H   0  0  0  0  0  0  0  0  0  0  0  0
  145.0240  136.7158  153.5228 H   0  0  0  0  0  0  0  0  0  0  0  0
  145.5570  136.4090  151.8918 H   0  0  0  0  0  0  0  0  0  0  0  0
  147.2554  134.7942  153.5109 H   0  0  0  0  0  0  0  0  0  0  0  0
  145.6923  134.6589  154.2670 H   0  0  0  0  0  0  0  0  0  0  0  0
  143.6264  134.0789  152.6451 H   0  0  0  0  0  0  0  0  0  0  0  0
  143.0297  132.3415  150.9410 H   0  0  0  0  0  0  0  0  0  0  0  0
  144.8773  131.2158  149.6647 H   0  0  0  0  0  0  0  0  0  0  0  0
  147.2459  131.8857  150.1459 H   0  0  0  0  0  0  0  0  0  0  0  0
  147.2478  141.1285  154.1971 H   0  0  0  0  0  0  0  0  0  0  0  0
  147.6304  140.3390  155.6972 H   0  0  0  0  0  0  0  0  0  0  0  0
  149.1388  142.2642  155.3853 H   0  0  0  0  0  0  0  0  0  0  0  0
  149.5848  141.7141  153.7925 H   0  0  0  0  0  0  0  0  0  0  0  0
  1  2  1  0  0  0  0
  1 23  1  0  0  0  0
  1 24  1  0  0  0  0
  1 25  1  0  0  0  0
  2  3  1  0  0  0  0
  2 26  1  0  0  0  0
  2 27  1  0  0  0  0
  3  4  2  0  0  0  0
  3  5  2  0  0  0  0
  3  6  1  0  0  0  0
  6 22  1  0  0  0  0
  6  7  1  0  0  0  0
  7  8  1  0  0  0  0
  7 28  1  0  0  0  0
  7 29  1  0  0  0  0
  8  9  1  0  0  0  0
  8 30  1  0  0  0  0
  8 31  1  0  0  0  0
  9 10  1  0  0  0  0
  9 21  1  0  0  0  0
  9 32  1  0  0  0  0
 10 11  2  0  0  0  0
 10 12  1  0  0  0  0
 12 13  1  0  0  0  0
 12 33  1  0  0  0  0
 13 14  1  0  0  0  0
 13 34  1  0  0  0  0
 13 35  1  0  0  0  0
 14 15  1  0  0  0  0
 14 36  1  0  0  0  0
 14 37  1  0  0  0  0
 15 20  1  0  0  0  0
 15 16  2  0  0  0  0
 16 17  1  0  0  0  0
 16 38  1  0  0  0  0
 17 18  2  0  0  0  0
 17 39  1  0  0  0  0
 18 19  1  0  0  0  0
 18 40  1  0  0  0  0
 19 20  2  0  0  0  0
 19 41  1  0  0  0  0
 21 22  1  0  0  0  0
 21 42  1  0  0  0  0
 21 43  1  0  0  0  0
 22 44  1  0  0  0  0
 22 45  1  0  0  0  0
M  END
> <s_m_source_file>
AV-unprocessed.smi

> <i_m_source_file_index>
303

> <i_lp_mmshare_version>
43012

> <i_f3d_flags>
0

> <s_epik_input>
W0NIM11bQ0gyXVMoPU8pKD1PKU4xW0NIMl1bQ0gyXVtDSF0oW0NIMl1bQ0gyXTEpQyg9TylbTkhdW0NIMl1bQ0gyXWMyW2NIXVtjSF1bY0hdW2NIXW4y

> <s_epik_cmdline>
J2VwaWtfcHl0aG9uJywgJy1waCcsICc3LjAnLCAnLXRuJywgJzgnLCAnLW1hJywgJzIwMCcsICctbWV0YWxfYmluZGluZycsICctaW1hZScsICc8aW5maWxlLm1hZT4nLCAnLW9tYWUnLCAnPG91dGZpbGUubWFlPic=

> <r_epik_Ionization_Penalty>
0.0277532

> <r_epik_Ionization_Penalty_Charging>
0

> <r_epik_Ionization_Penalty_Neutral>
0.0277532

> <r_epik_State_Penalty>
0.022734

> <r_epik_Charging_Adjusted_Penalty>
0.022734

> <i_epik_Tot_Q>
0

> <i_epik_Tot_abs_Q>
0

> <r_epik_Metal_State_Penalty>
0.021713

> <b_epik_Metal_Only>
0

> <s_lp_Force_Field>
OPLS_2005

> <r_lp_Energy>
1.72058

> <b_lp_Chiralities_Consistent>
1

> <s_lp_Variant>
AV-unprocessed.smi:303-1

> <Gold.Version>
5.8.1

> <Gold.Id.Protein>
6NUR|6NUR_protein|mol2

> <Gold.PLP.Fitness>
45.6508

> <Gold.PLP.PLP>
-37.8735

> <Gold.PLP.part.hbond>
-2.0000

> <Gold.PLP.part.metal>
0.0000

> <Gold.PLP.part.buried>
-1.4885

> <Gold.PLP.part.nonpolar>
-33.9163

> <Gold.PLP.part.repulsive>
0.3505

> <Gold.PLP.ligand.clash>
0.0000

> <Gold.PLP.ligand.torsion>
1.7132

> <Gold.PLP.Chemscore.Hbond>
2.0000

> <Gold.PLP.Chemscore.CHOScore>
1.0000

> <Gold.PLP.Chemscore.Metal>
0.0000

> <Gold.Chemscore.Hbonds>
donor molecule, donor type, donor heavy atom, donor atom, acceptor molecule, acceptor atom, score
      L1  H    12    33       P1  7948  1.00
      P1  H  7997  8010       L1     4  0.87
      L1  C    19    41       P1 10747  0.94

> <Gold.PLP.Chemscore.Internal.Correction>
2.2037

> <Gold.Rescore>
     Score         DG    S(hbond)    S(metal)    S(lipo)     H(rot)  DE(clash)    DE(int)     intcor
     16.31     -18.25       1.92        0.00      90.49       1.66       0.04       1.90       ----

> <Gold.Chemscore.Fitness>
16.3072

> <Gold.Chemscore.DG>
-18.2497

> <Gold.Chemscore.ZeroCoef>
-5.4800

> <Gold.Chemscore.Hbond>
1.9229

> <Gold.Chemscore.Metal>
0.0000

> <Gold.Chemscore.Lipo>
90.4895

> <Gold.Chemscore.Internal_Hbond>
0.0000

> <Gold.Chemscore.DEClash>
0.0431

> <Gold.Chemscore.DEInternal>
1.8994

> <Gold.Chemscore.Rot>
1.6563

> <Gold.Chemscore.Internal.Correction>
   9.000000E+99

> <Gold.Chemscore.Hbonds>
donor molecule, donor type, donor heavy atom, donor atom, acceptor molecule, acceptor atom, score
      L1  H    12    33       P1  7948  0.98
      P1  H  7997  8010       L1     4  0.80

> <Gold.Chemscore.Hbond.Weighted>
-6.4225

> <Gold.Chemscore.Metal.Weighted>
-0.0000

> <Gold.Chemscore.Lipo.Weighted>
-10.5873

> <Gold.Chemscore.Internal_Hbond.Weighted>
0.0000

> <Gold.Chemscore.DEClash.Weighted>
0.0431

> <Gold.Chemscore.DEInternal.Weighted>
1.8994

> <Gold.Chemscore.Rot.Weighted>
4.2401

> <Gold.Chemscore.Internal.Correction.Weighted>
   9.000000E+99

> <Gold.Protein.RotatedTorsions>
[ 6907 6896 6895 6894 ] final   23.09 input  -60.11 | X-H torsion
[ 7974 7965 7964 7962 ] final  -34.17 input  175.53 | X-H torsion
[ 8008 7997 7996 7995 ] final   65.12 input   59.86 | X-H torsion
[ 10167 10162 10161 10158 ] final   46.91 input  -65.29 | X-H torsion
[ 10718 10713 10712 10709 ] final   72.60 input   66.30 | X-H torsion
[ 10763 10752 10751 10750 ] final  -71.74 input  -60.55 | X-H torsion
[ 11005 11000 10999 10996 ] final -174.49 input  -57.11 | X-H torsion

> <Gold.Protein.ActiveResidues>
 VAL166  LYS551  ARG553  GLY616  TRP617  ASP618  TYR619  PRO620  LYS621  CYS622 
 ASP623  PHE694  ASN695  SER759  ASP760  ASP761  ALA762  ILE779  LEU786  VAL792 
 PHE793  MET794  SER795  GLU796  ALA797  LYS798  CYS799  TRP800  GLU811  SER814 

> <Gold.Protein.RotatedAtoms>
  151.9371  135.0230  160.0533 H   0  0  0  0  0  0  0  0  0  0  0  0  # atno 6907 bound_to 6896
  152.2068  133.4877  159.5097 H   0  0  0  0  0  0  0  0  0  0  0  0  # atno 6908 bound_to 6896
  150.6967  134.1436  159.4157 H   0  0  0  0  0  0  0  0  0  0  0  0  # atno 6909 bound_to 6896
  146.0852  140.6005  142.8890 H   0  0  0  0  0  0  0  0  0  0  0  0  # atno 7974 bound_to 7965
  155.6568  140.3497  155.4768 H   0  0  0  0  0  0  0  0  0  0  0  0  # atno 8008 bound_to 7997
  155.9802  140.1173  157.0757 H   0  0  0  0  0  0  0  0  0  0  0  0  # atno 8009 bound_to 7997
  154.4189  140.1140  156.5411 H   0  0  0  0  0  0  0  0  0  0  0  0  # atno 8010 bound_to 7997
  140.3090  144.2843  150.6203 H   0  0  0  0  0  0  0  0  0  0  0  0  # atno 10167 bound_to 10162
  157.6508  130.9587  150.0951 H   0  0  0  0  0  0  0  0  0  0  0  0  # atno 10718 bound_to 10713
  154.4360  135.5952  153.6098 H   0  0  0  0  0  0  0  0  0  0  0  0  # atno 10763 bound_to 10752
  152.9802  135.5986  154.3781 H   0  0  0  0  0  0  0  0  0  0  0  0  # atno 10764 bound_to 10752
  154.3625  135.2841  155.2290 H   0  0  0  0  0  0  0  0  0  0  0  0  # atno 10765 bound_to 10752
  140.4739  134.6139  157.4893 H   0  0  0  0  0  0  0  0  0  0  0  0  # atno 11005 bound_to 11000
  144.7320  140.4700  143.6931 LP  0  0  0  0  0  0  0  0  0  0  0  0  # atno 17320 bound_to 7965
  145.6144  139.1517  143.3058 LP  0  0  0  0  0  0  0  0  0  0  0  0  # atno 17321 bound_to 7965
  140.5585  143.2195  151.7807 LP  0  0  0  0  0  0  0  0  0  0  0  0  # atno 17342 bound_to 10162
  139.4898  144.4381  151.9795 LP  0  0  0  0  0  0  0  0  0  0  0  0  # atno 17343 bound_to 10162
  156.1889  130.3653  149.8935 LP  0  0  0  0  0  0  0  0  0  0  0  0  # atno 17370 bound_to 10713
  156.6869  130.8880  151.3583 LP  0  0  0  0  0  0  0  0  0  0  0  0  # atno 17371 bound_to 10713
  139.9868  134.7049  155.9760 LP  0  0  0  0  0  0  0  0  0  0  0  0  # atno 17394 bound_to 11000
  141.1564  133.6542  156.4174 LP  0  0  0  0  0  0  0  0  0  0  0  0  # atno 17395 bound_to 11000

$$$$
