AV-unprocessed.smi:3303|AV-procd|sdf|12674|dock4
  -GOLD-   2272019 13D 1   1.00000     0.00000
 Structure written by MMmdl.
 44 45  0  0  0  0  0  0  0  0  2 V2000
  152.4730  138.4164  155.3689 C   0  0  0  0  0  0  0  0  0  0  0  0
  151.4861  139.5594  155.0785 C   0  0  1  0  0  0  0  0  0  0  0  0
  150.0818  139.0343  154.7186 C   0  0  0  0  0  0  0  0  0  0  0  0
  149.2172  140.1463  154.3223 N   0  0  0  0  0  0  0  0  0  0  0  0
  147.9608  139.6500  153.7746 C   0  0  0  0  0  0  0  0  0  0  0  0
  149.0242  141.1467  155.3834 C   0  0  1  0  0  0  0  0  0  0  0  0
  148.1493  140.6647  156.5641 C   0  0  0  0  0  0  0  0  0  0  0  0
  150.4002  141.7013  155.8231 C   0  0  0  0  0  0  0  0  0  0  0  0
  151.4223  140.6081  156.2094 C   0  0  1  0  0  0  0  0  0  0  0  0
  151.1170  139.9782  157.5162 N   0  3  0  0  0  0  0  0  0  0  0  0
  152.1639  140.1144  158.5494 C   0  0  0  0  0  0  0  0  0  0  0  0
  152.6781  141.5584  158.6200 C   0  0  0  0  0  0  0  0  0  0  0  0
  152.8215  142.0442  160.0497 C   0  0  0  0  0  0  0  0  0  0  0  0
  153.6876  141.3901  160.9517 C   0  0  0  0  0  0  0  0  0  0  0  0
  153.7893  141.8898  162.2646 C   0  0  0  0  0  0  0  0  0  0  0  0
  153.0265  143.0183  162.6218 C   0  0  0  0  0  0  0  0  0  0  0  0
  152.1918  143.5996  161.6468 C   0  0  0  0  0  0  0  0  0  0  0  0
  152.0876  143.1289  160.3851 N   0  0  0  0  0  0  0  0  0  0  0  0
  152.1438  137.7991  156.2051 H   0  0  0  0  0  0  0  0  0  0  0  0
  153.4644  138.8031  155.6066 H   0  0  0  0  0  0  0  0  0  0  0  0
  152.5755  137.7630  154.5019 H   0  0  0  0  0  0  0  0  0  0  0  0
  151.8685  140.0718  154.1935 H   0  0  0  0  0  0  0  0  0  0  0  0
  150.1660  138.3379  153.8829 H   0  0  0  0  0  0  0  0  0  0  0  0
  149.6443  138.4763  155.5467 H   0  0  0  0  0  0  0  0  0  0  0  0
  147.3184  140.4780  153.4727 H   0  0  0  0  0  0  0  0  0  0  0  0
  147.4195  139.0361  154.4951 H   0  0  0  0  0  0  0  0  0  0  0  0
  148.1490  139.0392  152.8911 H   0  0  0  0  0  0  0  0  0  0  0  0
  148.4876  141.9798  154.9272 H   0  0  0  0  0  0  0  0  0  0  0  0
  148.1155  141.4199  157.3499 H   0  0  0  0  0  0  0  0  0  0  0  0
  148.5103  139.7416  157.0144 H   0  0  0  0  0  0  0  0  0  0  0  0
  147.1188  140.4938  156.2529 H   0  0  0  0  0  0  0  0  0  0  0  0
  150.8148  142.2646  154.9857 H   0  0  0  0  0  0  0  0  0  0  0  0
  150.2775  142.4349  156.6192 H   0  0  0  0  0  0  0  0  0  0  0  0
  152.4080  141.0678  156.2957 H   0  0  0  0  0  0  0  0  0  0  0  0
  150.2522  140.3649  157.8666 H   0  0  0  0  0  0  0  0  0  0  0  0
  151.7583  139.8184  159.5177 H   0  0  0  0  0  0  0  0  0  0  0  0
  152.9925  139.4430  158.3261 H   0  0  0  0  0  0  0  0  0  0  0  0
  153.6463  141.6358  158.1228 H   0  0  0  0  0  0  0  0  0  0  0  0
  152.0020  142.2234  158.0809 H   0  0  0  0  0  0  0  0  0  0  0  0
  154.2626  140.5276  160.6479 H   0  0  0  0  0  0  0  0  0  0  0  0
  154.4414  141.4173  162.9842 H   0  0  0  0  0  0  0  0  0  0  0  0
  153.0797  143.4288  163.6195 H   0  0  0  0  0  0  0  0  0  0  0  0
  151.5935  144.4665  161.8862 H   0  0  0  0  0  0  0  0  0  0  0  0
  150.9824  138.9907  157.3522 H   0  0  0  0  0  0  0  0  0  0  0  0
  1  2  1  0  0  0  0
  1 19  1  0  0  0  0
  1 20  1  0  0  0  0
  1 21  1  0  0  0  0
  2  9  1  0  0  0  0
  2  3  1  0  0  0  0
  2 22  1  0  0  0  0
  3  4  1  0  0  0  0
  3 23  1  0  0  0  0
  3 24  1  0  0  0  0
  4  5  1  0  0  0  0
  4  6  1  0  0  0  0
  5 25  1  0  0  0  0
  5 26  1  0  0  0  0
  5 27  1  0  0  0  0
  6  7  1  0  0  0  0
  6  8  1  0  0  0  0
  6 28  1  0  0  0  0
  7 29  1  0  0  0  0
  7 30  1  0  0  0  0
  7 31  1  0  0  0  0
  8  9  1  0  0  0  0
  8 32  1  0  0  0  0
  8 33  1  0  0  0  0
  9 10  1  0  0  0  0
  9 34  1  0  0  0  0
 10 11  1  0  0  0  0
 10 35  1  0  0  0  0
 10 44  1  0  0  0  0
 11 12  1  0  0  0  0
 11 36  1  0  0  0  0
 11 37  1  0  0  0  0
 12 13  1  0  0  0  0
 12 38  1  0  0  0  0
 12 39  1  0  0  0  0
 13 18  1  0  0  0  0
 13 14  2  0  0  0  0
 14 15  1  0  0  0  0
 14 40  1  0  0  0  0
 15 16  2  0  0  0  0
 15 41  1  0  0  0  0
 16 17  1  0  0  0  0
 16 42  1  0  0  0  0
 17 18  2  0  0  0  0
 17 43  1  0  0  0  0
M  CHG  1  10   1
M  END
> <s_m_source_file>
AV-unprocessed.smi

> <i_m_source_file_index>
3303

> <i_lp_mmshare_version>
43012

> <i_f3d_flags>
0

> <s_epik_input>
W0NIM11bQ0BASF0xW0NIMl1OKFtDSDNdKVtDQEBIXShbQ0gzXSlbQ0gyXVtDQEhdMVtOSF1bQ0gyXVtDSDJdYzJbY0hdW2NIXVtjSF1bY0hdbjI=

> <s_epik_cmdline>
J2VwaWtfcHl0aG9uJywgJy1waCcsICc3LjAnLCAnLXRuJywgJzgnLCAnLW1hJywgJzIwMCcsICctbWV0YWxfYmluZGluZycsICctaW1hZScsICc8aW5maWxlLm1hZT4nLCAnLW9tYWUnLCAnPG91dGZpbGUubWFlPic=

> <r_epik_Ionization_Penalty>
1.37325

> <r_epik_Ionization_Penalty_Charging>
0.000251572

> <r_epik_Ionization_Penalty_Neutral>
1.373

> <r_epik_State_Penalty>
1.46343

> <r_epik_Charging_Adjusted_Penalty>
1.46368

> <i_epik_Tot_Q>
1

> <i_epik_Tot_abs_Q>
1

> <r_epik_Metal_State_Penalty>
1.46331

> <b_epik_Metal_Only>
0

> <s_lp_Force_Field>
OPLS_2005

> <r_lp_Energy>
24.8067

> <b_lp_Chiralities_Consistent>
1

> <s_lp_Variant>
AV-unprocessed.smi:3303-18

> <Gold.Version>
5.8.1

> <Gold.Id.Protein>
6NUR|6NUR_protein|mol2

> <Gold.PLP.Fitness>
38.9924

> <Gold.PLP.PLP>
-41.1979

> <Gold.PLP.part.hbond>
0.0000

> <Gold.PLP.part.metal>
0.0000

> <Gold.PLP.part.buried>
-3.3811

> <Gold.PLP.part.nonpolar>
-36.9847

> <Gold.PLP.part.repulsive>
0.2051

> <Gold.PLP.ligand.clash>
0.0000

> <Gold.PLP.ligand.torsion>
1.1087

> <Gold.PLP.Chemscore.Hbond>
0.0000

> <Gold.PLP.Chemscore.CHOScore>
0.0000

> <Gold.PLP.Chemscore.Metal>
0.0000

> <Gold.PLP.Chemscore.Internal.Correction>
0.0117

> <Gold.Rescore>
     Score         DG    S(hbond)    S(metal)    S(lipo)     H(rot)  DE(clash)    DE(int)     intcor
     15.59     -16.82       0.00        0.00     125.98       1.33       0.12       1.10       ----

> <Gold.Chemscore.Fitness>
15.5926

> <Gold.Chemscore.DG>
-16.8152

> <Gold.Chemscore.ZeroCoef>
-5.4800

> <Gold.Chemscore.Hbond>
0.0000

> <Gold.Chemscore.Metal>
0.0000

> <Gold.Chemscore.Lipo>
125.9785

> <Gold.Chemscore.Internal_Hbond>
0.0000

> <Gold.Chemscore.DEClash>
0.1245

> <Gold.Chemscore.DEInternal>
1.0980

> <Gold.Chemscore.Rot>
1.3298

> <Gold.Chemscore.Internal.Correction>
   9.000000E+99

> <Gold.Chemscore.Hbond.Weighted>
-0.0000

> <Gold.Chemscore.Metal.Weighted>
-0.0000

> <Gold.Chemscore.Lipo.Weighted>
-14.7395

> <Gold.Chemscore.Internal_Hbond.Weighted>
0.0000

> <Gold.Chemscore.DEClash.Weighted>
0.1245

> <Gold.Chemscore.DEInternal.Weighted>
1.0980

> <Gold.Chemscore.Rot.Weighted>
3.4043

> <Gold.Chemscore.Internal.Correction.Weighted>
   9.000000E+99

> <Gold.Protein.RotatedTorsions>
[ 6907 6896 6895 6894 ] final -174.80 input  -60.11 | X-H torsion
[ 7974 7965 7964 7962 ] final  -98.39 input  175.53 | X-H torsion
[ 8008 7997 7996 7995 ] final  -85.76 input   59.86 | X-H torsion
[ 10167 10162 10161 10158 ] final  -74.38 input  -65.29 | X-H torsion
[ 10718 10713 10712 10709 ] final  -14.40 input   66.30 | X-H torsion
[ 10763 10752 10751 10750 ] final  107.20 input  -60.55 | X-H torsion
[ 11005 11000 10999 10996 ] final    2.23 input  -57.11 | X-H torsion

> <Gold.Protein.ActiveResidues>
 VAL166  LYS551  ARG553  GLY616  TRP617  ASP618  TYR619  PRO620  LYS621  CYS622 
 ASP623  PHE694  ASN695  SER759  ASP760  ASP761  ALA762  ILE779  LEU786  VAL792 
 PHE793  MET794  SER795  GLU796  ALA797  LYS798  CYS799  TRP800  GLU811  SER814 

> <Gold.Protein.RotatedAtoms>
  151.5782  133.3381  159.3002 H   0  0  0  0  0  0  0  0  0  0  0  0  # atno 6907 bound_to 6896
  150.8328  134.7592  159.6879 H   0  0  0  0  0  0  0  0  0  0  0  0  # atno 6908 bound_to 6896
  152.4409  134.5599  159.9942 H   0  0  0  0  0  0  0  0  0  0  0  0  # atno 6909 bound_to 6896
  145.3212  140.9422  143.2714 H   0  0  0  0  0  0  0  0  0  0  0  0  # atno 7974 bound_to 7965
  154.6443  140.0587  156.9882 H   0  0  0  0  0  0  0  0  0  0  0  0  # atno 8008 bound_to 7997
  155.1469  140.3270  155.4421 H   0  0  0  0  0  0  0  0  0  0  0  0  # atno 8009 bound_to 7997
  156.2546  140.1954  156.6582 H   0  0  0  0  0  0  0  0  0  0  0  0  # atno 8010 bound_to 7997
  140.5032  143.2357  151.7718 H   0  0  0  0  0  0  0  0  0  0  0  0  # atno 10167 bound_to 10162
  156.6165  130.4864  149.6181 H   0  0  0  0  0  0  0  0  0  0  0  0  # atno 10718 bound_to 10713
  153.4035  135.3852  155.2003 H   0  0  0  0  0  0  0  0  0  0  0  0  # atno 10763 bound_to 10752
  154.8731  135.3777  154.4589 H   0  0  0  0  0  0  0  0  0  0  0  0  # atno 10764 bound_to 10752
  153.5089  135.7087  153.5853 H   0  0  0  0  0  0  0  0  0  0  0  0  # atno 10765 bound_to 10752
  140.6066  133.9787  155.8157 H   0  0  0  0  0  0  0  0  0  0  0  0  # atno 11005 bound_to 11000
  144.8937  139.4740  143.6665 LP  0  0  0  0  0  0  0  0  0  0  0  0  # atno 17320 bound_to 7965
  146.3081  139.7651  142.9040 LP  0  0  0  0  0  0  0  0  0  0  0  0  # atno 17321 bound_to 7965
  139.4877  144.4494  151.9672 LP  0  0  0  0  0  0  0  0  0  0  0  0  # atno 17342 bound_to 10162
  140.3583  144.3004  150.5937 LP  0  0  0  0  0  0  0  0  0  0  0  0  # atno 17343 bound_to 10162
  156.2347  130.6815  151.1498 LP  0  0  0  0  0  0  0  0  0  0  0  0  # atno 17370 bound_to 10713
  157.7240  131.0663  150.6015 LP  0  0  0  0  0  0  0  0  0  0  0  0  # atno 17371 bound_to 10713
  141.0836  134.0024  157.3347 LP  0  0  0  0  0  0  0  0  0  0  0  0  # atno 17394 bound_to 11000
  139.9210  135.0200  156.8062 LP  0  0  0  0  0  0  0  0  0  0  0  0  # atno 17395 bound_to 11000

$$$$
