AV-unprocessed.smi:13|AV-procd|sdf|70|dock6
  -GOLD-   2262015193D 1   1.00000     0.00000
 Structure written by MMmdl.
 54 58  0  0  0  0  0  0  0  0  1 V2000
  146.7739  134.0474  162.2151 C   0  0  0  0  0  0  0  0  0  0  0  0
  146.7655  135.4449  161.5815 C   0  0  0  0  0  0  0  0  0  0  0  0
  145.4529  136.1079  161.9977 C   0  0  0  0  0  0  0  0  0  0  0  0
  148.0361  136.2800  161.8025 C   0  0  0  0  0  0  0  0  0  0  0  0
  148.4822  135.8192  160.4976 N   0  0  0  0  0  0  0  0  0  0  0  0
  149.1684  136.7828  159.7117 C   0  0  0  0  0  0  0  0  0  0  0  0
  150.4949  136.9271  159.9576 N   0  0  0  0  0  0  0  0  0  0  0  0
  151.2365  137.7943  159.2634 C   0  0  0  0  0  0  0  0  0  0  0  0
  150.8594  138.6138  158.2824 N   0  0  0  0  0  0  0  0  0  0  0  0
  149.5289  138.4819  158.0199 C   0  0  0  0  0  0  0  0  0  0  0  0
  148.6212  137.6038  158.6792 C   0  0  0  0  0  0  0  0  0  0  0  0
  147.3502  137.7538  158.1346 N   0  0  0  0  0  0  0  0  0  0  0  0
  147.4979  138.6650  157.2129 C   0  0  0  0  0  0  0  0  0  0  0  0
  148.7768  139.1516  157.0707 N   0  0  0  0  0  0  0  0  0  0  0  0
  149.2243  140.1599  156.1223 C   0  0  0  0  0  0  0  0  0  0  0  0
  150.4334  139.7050  155.2725 C   0  0  2  0  0  0  0  0  0  0  0  0
  150.2589  140.1653  153.9433 O   0  0  0  0  0  0  0  0  0  0  0  0
  150.6413  138.1932  155.2379 C   0  0  0  0  0  0  0  0  0  0  0  0
  152.1519  138.0624  155.1046 C   0  0  0  0  0  0  0  0  0  0  0  0
  152.6261  139.0936  155.9533 O   0  0  0  0  0  0  0  0  0  0  0  0
  151.7845  140.2318  155.7965 C   0  0  0  0  0  0  0  0  0  0  0  0
  147.1123  135.5467  160.0811 C   0  0  1  0  0  0  0  0  0  0  0  0
  147.0347  134.3356  159.1507 C   0  0  2  0  0  0  0  0  0  0  0  0
  147.9206  133.1653  159.5737 C   0  0  0  0  0  0  0  0  0  0  0  0
  148.1391  132.4114  158.2742 C   0  0  0  0  0  0  0  0  0  0  0  0
  147.8572  133.4565  157.1906 C   0  0  0  0  0  0  0  0  0  0  0  0
  147.5844  134.6669  157.8857 O   0  0  0  0  0  0  0  0  0  0  0  0
  146.6907  134.1005  163.3010 H   0  0  0  0  0  0  0  0  0  0  0  0
  147.6962  133.5096  161.9936 H   0  0  0  0  0  0  0  0  0  0  0  0
  145.9472  133.4369  161.8507 H   0  0  0  0  0  0  0  0  0  0  0  0
  145.3716  137.1181  161.5951 H   0  0  0  0  0  0  0  0  0  0  0  0
  145.3678  136.1856  163.0820 H   0  0  0  0  0  0  0  0  0  0  0  0
  144.5905  135.5465  161.6363 H   0  0  0  0  0  0  0  0  0  0  0  0
  147.8463  137.3518  161.8640 H   0  0  0  0  0  0  0  0  0  0  0  0
  148.6644  135.9333  162.6235 H   0  0  0  0  0  0  0  0  0  0  0  0
  152.2820  137.8345  159.5310 H   0  0  0  0  0  0  0  0  0  0  0  0
  146.6739  139.0049  156.6022 H   0  0  0  0  0  0  0  0  0  0  0  0
  148.3841  140.4241  155.4786 H   0  0  0  0  0  0  0  0  0  0  0  0
  149.4771  141.0631  156.6790 H   0  0  0  0  0  0  0  0  0  0  0  0
  149.4641  140.6752  153.9058 H   0  0  0  0  0  0  0  0  0  0  0  0
  150.3364  137.7487  156.1859 H   0  0  0  0  0  0  0  0  0  0  0  0
  150.0913  137.6887  154.4421 H   0  0  0  0  0  0  0  0  0  0  0  0
  152.5213  137.0842  155.4128 H   0  0  0  0  0  0  0  0  0  0  0  0
  152.4747  138.2495  154.0792 H   0  0  0  0  0  0  0  0  0  0  0  0
  152.2482  140.9364  155.1041 H   0  0  0  0  0  0  0  0  0  0  0  0
  151.6886  140.7373  156.7578 H   0  0  0  0  0  0  0  0  0  0  0  0
  146.6357  136.4281  159.6506 H   0  0  0  0  0  0  0  0  0  0  0  0
  146.0062  133.9975  159.0100 H   0  0  0  0  0  0  0  0  0  0  0  0
  148.8759  133.5326  159.9518 H   0  0  0  0  0  0  0  0  0  0  0  0
  147.4661  132.5490  160.3496 H   0  0  0  0  0  0  0  0  0  0  0  0
  149.1507  132.0094  158.2090 H   0  0  0  0  0  0  0  0  0  0  0  0
  147.4397  131.5793  158.1864 H   0  0  0  0  0  0  0  0  0  0  0  0
  148.6997  133.5882  156.5114 H   0  0  0  0  0  0  0  0  0  0  0  0
  146.9852  133.1724  156.5998 H   0  0  0  0  0  0  0  0  0  0  0  0
  1  2  1  0  0  0  0
  1 28  1  0  0  0  0
  1 29  1  0  0  0  0
  1 30  1  0  0  0  0
  2 22  1  0  0  0  0
  2  3  1  0  0  0  0
  2  4  1  0  0  0  0
  3 31  1  0  0  0  0
  3 32  1  0  0  0  0
  3 33  1  0  0  0  0
  4  5  1  0  0  0  0
  4 34  1  0  0  0  0
  4 35  1  0  0  0  0
  5  6  1  0  0  0  0
  5 22  1  0  0  0  0
  6 11  1  0  0  0  0
  6  7  2  0  0  0  0
  7  8  1  0  0  0  0
  8  9  2  0  0  0  0
  8 36  1  0  0  0  0
  9 10  1  0  0  0  0
 10 14  1  0  0  0  0
 10 11  2  0  0  0  0
 11 12  1  0  0  0  0
 12 13  2  0  0  0  0
 13 14  1  0  0  0  0
 13 37  1  0  0  0  0
 14 15  1  0  0  0  0
 15 16  1  0  0  0  0
 15 38  1  0  0  0  0
 15 39  1  0  0  0  0
 16 21  1  0  0  0  0
 16 17  1  0  0  0  0
 16 18  1  0  0  0  0
 17 40  1  0  0  0  0
 18 19  1  0  0  0  0
 18 41  1  0  0  0  0
 18 42  1  0  0  0  0
 19 20  1  0  0  0  0
 19 43  1  0  0  0  0
 19 44  1  0  0  0  0
 20 21  1  0  0  0  0
 21 45  1  0  0  0  0
 21 46  1  0  0  0  0
 22 23  1  0  0  0  0
 22 47  1  0  0  0  0
 23 27  1  0  0  0  0
 23 24  1  0  0  0  0
 23 48  1  0  0  0  0
 24 25  1  0  0  0  0
 24 49  1  0  0  0  0
 24 50  1  0  0  0  0
 25 26  1  0  0  0  0
 25 51  1  0  0  0  0
 25 52  1  0  0  0  0
 26 27  1  0  0  0  0
 26 53  1  0  0  0  0
 26 54  1  0  0  0  0
M  END
> <s_m_source_file>
AV-unprocessed.smi

> <i_m_source_file_index>
13

> <i_lp_mmshare_version>
43012

> <i_f3d_flags>
0

> <s_epik_input>
TzFbQ0gyXVtDSDJdW0NIMl1bQ0BIXTFbQ0BASF0yTihbQ0gyXUMyKFtDSDNdKVtDSDNdKWMobltjSF1uMyljKGMzNCluW2NIXW40W0NIMl1bQ0BAXTUoW09IXSlbQ0gyXVtDSDJdT1tDSDJdNQ==

> <s_epik_cmdline>
J2VwaWtfcHl0aG9uJywgJy1waCcsICc3LjAnLCAnLXRuJywgJzgnLCAnLW1hJywgJzIwMCcsICctbWV0YWxfYmluZGluZycsICctaW1hZScsICc8aW5maWxlLm1hZT4nLCAnLW9tYWUnLCAnPG91dGZpbGUubWFlPic=

> <r_lp_tautomer_probability>
1

> <r_epik_Ionization_Penalty>
0.00202764

> <r_epik_Ionization_Penalty_Charging>
0

> <r_epik_Ionization_Penalty_Neutral>
0.00202764

> <r_epik_State_Penalty>
0.00134017

> <r_epik_Charging_Adjusted_Penalty>
0.00134017

> <i_epik_Tot_Q>
0

> <i_epik_Tot_abs_Q>
0

> <r_epik_Metal_State_Penalty>
-0

> <b_epik_Metal_Only>
0

> <s_lp_Force_Field>
OPLS_2005

> <r_lp_Energy>
60.4811

> <b_lp_Chiralities_Consistent>
1

> <s_lp_Variant>
AV-unprocessed.smi:13-2

> <Gold.Version>
5.8.1

> <Gold.Id.Protein>
6NUR|6NUR_protein|mol2

> <Gold.PLP.Fitness>
40.1916

> <Gold.PLP.PLP>
-33.6818

> <Gold.PLP.part.hbond>
-4.4547

> <Gold.PLP.part.metal>
0.0000

> <Gold.PLP.part.buried>
-3.9580

> <Gold.PLP.part.nonpolar>
-26.6549

> <Gold.PLP.part.repulsive>
0.0000

> <Gold.PLP.ligand.clash>
0.0000

> <Gold.PLP.ligand.torsion>
1.4129

> <Gold.PLP.Chemscore.Hbond>
2.9600

> <Gold.PLP.Chemscore.CHOScore>
0.0000

> <Gold.PLP.Chemscore.Metal>
0.0000

> <Gold.Chemscore.Hbonds>
donor molecule, donor type, donor heavy atom, donor atom, acceptor molecule, acceptor atom, score
      P1  H  6896  6908       L1     7  1.00
      P1  H  7989  7998       L1    17  0.91
      P1  H  7997  8008       L1    20  0.80

> <Gold.PLP.Chemscore.Internal.Correction>
0.4555

> <Gold.Rescore>
     Score         DG    S(hbond)    S(metal)    S(lipo)     H(rot)  DE(clash)    DE(int)     intcor
     10.25     -14.77       1.91        0.00      75.29       2.30       0.23       4.30       ----

> <Gold.Chemscore.Fitness>
10.2455

> <Gold.Chemscore.DG>
-14.7735

> <Gold.Chemscore.ZeroCoef>
-5.4800

> <Gold.Chemscore.Hbond>
1.9075

> <Gold.Chemscore.Metal>
0.0000

> <Gold.Chemscore.Lipo>
75.2925

> <Gold.Chemscore.Internal_Hbond>
0.0000

> <Gold.Chemscore.DEClash>
0.2256

> <Gold.Chemscore.DEInternal>
4.3024

> <Gold.Chemscore.Rot>
2.2996

> <Gold.Chemscore.Internal.Correction>
   9.000000E+99

> <Gold.Chemscore.Hbonds>
donor molecule, donor type, donor heavy atom, donor atom, acceptor molecule, acceptor atom, score
      P1  H  6896  6908       L1     7  0.38
      P1  H  7989  7998       L1    17  0.58
      P1  H  7997  8008       L1    20  0.17

> <Gold.Chemscore.Hbond.Weighted>
-6.3712

> <Gold.Chemscore.Metal.Weighted>
-0.0000

> <Gold.Chemscore.Lipo.Weighted>
-8.8092

> <Gold.Chemscore.Internal_Hbond.Weighted>
0.0000

> <Gold.Chemscore.DEClash.Weighted>
0.2256

> <Gold.Chemscore.DEInternal.Weighted>
4.3024

> <Gold.Chemscore.Rot.Weighted>
5.8869

> <Gold.Chemscore.Internal.Correction.Weighted>
   9.000000E+99

> <Gold.Protein.RotatedTorsions>
[ 6907 6896 6895 6894 ] final -143.15 input  -60.11 | X-H torsion
[ 7974 7965 7964 7962 ] final   22.46 input  175.53 | X-H torsion
[ 8008 7997 7996 7995 ] final  -58.01 input   59.86 | X-H torsion
[ 10167 10162 10161 10158 ] final -134.59 input  -65.29 | X-H torsion
[ 10718 10713 10712 10709 ] final  112.88 input   66.30 | X-H torsion
[ 10763 10752 10751 10750 ] final   96.09 input  -60.55 | X-H torsion
[ 11005 11000 10999 10996 ] final  143.15 input  -57.11 | X-H torsion

> <Gold.Protein.ActiveResidues>
 VAL166  LYS551  ARG553  GLY616  TRP617  ASP618  TYR619  PRO620  LYS621  CYS622 
 ASP623  PHE694  ASN695  SER759  ASP760  ASP761  ALA762  ILE779  LEU786  VAL792 
 PHE793  MET794  SER795  GLU796  ALA797  LYS798  CYS799  TRP800  GLU811  SER814 

> <Gold.Protein.RotatedAtoms>
  151.0967  133.5275  159.2611 H   0  0  0  0  0  0  0  0  0  0  0  0  # atno 6907 bound_to 6896
  151.2121  135.0485  159.8925 H   0  0  0  0  0  0  0  0  0  0  0  0  # atno 6908 bound_to 6896
  152.5439  134.0781  159.8277 H   0  0  0  0  0  0  0  0  0  0  0  0  # atno 6909 bound_to 6896
  146.2028  139.7882  142.8749 H   0  0  0  0  0  0  0  0  0  0  0  0  # atno 7974 bound_to 7965
  154.4291  140.1094  156.5888 H   0  0  0  0  0  0  0  0  0  0  0  0  # atno 8008 bound_to 7997
  155.6034  140.3493  155.4582 H   0  0  0  0  0  0  0  0  0  0  0  0  # atno 8009 bound_to 7997
  156.0156  140.1228  157.0400 H   0  0  0  0  0  0  0  0  0  0  0  0  # atno 8010 bound_to 7997
  139.8865  143.6775  152.2619 H   0  0  0  0  0  0  0  0  0  0  0  0  # atno 10167 bound_to 10162
  157.6369  131.0975  150.6959 H   0  0  0  0  0  0  0  0  0  0  0  0  # atno 10718 bound_to 10713
  153.2608  135.4231  155.0892 H   0  0  0  0  0  0  0  0  0  0  0  0  # atno 10763 bound_to 10752
  154.8419  135.3448  154.6380 H   0  0  0  0  0  0  0  0  0  0  0  0  # atno 10764 bound_to 10752
  153.6801  135.7039  153.5178 H   0  0  0  0  0  0  0  0  0  0  0  0  # atno 10765 bound_to 10752
  140.0531  134.9245  157.1052 H   0  0  0  0  0  0  0  0  0  0  0  0  # atno 11005 bound_to 11000
  145.3426  141.0291  143.3384 LP  0  0  0  0  0  0  0  0  0  0  0  0  # atno 17320 bound_to 7965
  144.8722  139.5022  143.6762 LP  0  0  0  0  0  0  0  0  0  0  0  0  # atno 17321 bound_to 7965
  139.7148  144.7614  151.1051 LP  0  0  0  0  0  0  0  0  0  0  0  0  # atno 17342 bound_to 10162
  140.7735  143.5283  150.9454 LP  0  0  0  0  0  0  0  0  0  0  0  0  # atno 17343 bound_to 10162
  156.7289  130.4703  149.5504 LP  0  0  0  0  0  0  0  0  0  0  0  0  # atno 17370 bound_to 10713
  156.1615  130.6377  151.0725 LP  0  0  0  0  0  0  0  0  0  0  0  0  # atno 17371 bound_to 10713
  140.3886  134.2209  155.7167 LP  0  0  0  0  0  0  0  0  0  0  0  0  # atno 17394 bound_to 11000
  141.1939  133.8139  157.0777 LP  0  0  0  0  0  0  0  0  0  0  0  0  # atno 17395 bound_to 11000

$$$$
