AV-unprocessed.smi:511|AV-procd|sdf|2765|dock9
  -GOLD-   2262023233D 1   1.00000     0.00000
 Structure written by MMmdl.
 45 47  0  0  0  0  0  0  0  0  1 V2000
  150.5886  137.6154  158.9633 C   0  0  0  0  0  0  0  0  0  0  0  0
  151.0016  138.7416  158.2111 O   0  0  0  0  0  0  0  0  0  0  0  0
  151.7236  138.3840  157.0438 C   0  0  0  0  0  0  0  0  0  0  0  0
  152.1652  139.6545  156.3045 C   0  0  0  0  0  0  0  0  0  0  0  0
  151.0218  140.4509  155.8622 N   0  0  0  0  0  0  0  0  0  0  0  0
  150.6309  141.6956  156.2573 C   0  0  0  0  0  0  0  0  0  0  0  0
  151.3553  142.4551  157.1769 N   0  0  0  0  0  0  0  0  0  0  0  0
  152.1898  141.9635  158.2711 C   0  0  0  0  0  0  0  0  0  0  0  0
  151.8577  142.6946  159.5867 C   0  0  0  0  0  0  0  0  0  0  0  0
  152.1340  144.1217  159.4248 N   0  0  0  0  0  0  0  0  0  0  0  0
  151.8168  144.8239  160.6597 C   0  0  0  0  0  0  0  0  0  0  0  0
  151.3043  144.6390  158.3367 C   0  0  0  0  0  0  0  0  0  0  0  0
  151.6282  143.8822  157.0330 C   0  0  0  0  0  0  0  0  0  0  0  0
  149.4749  142.1084  155.7287 N   0  0  0  0  0  0  0  0  0  0  0  0
  149.1130  141.0553  154.9049 C   0  0  0  0  0  0  0  0  0  0  0  0
  150.0234  140.0524  154.9716 C   0  0  0  0  0  0  0  0  0  0  0  0
  149.8669  138.7994  154.2219 C   0  0  0  0  0  0  0  0  0  0  0  0
  150.6684  137.8694  154.2789 O   0  0  0  0  0  0  0  0  0  0  0  0
  148.7442  138.7712  153.4631 N   0  0  0  0  0  0  0  0  0  0  0  0
  147.7912  139.7466  153.3490 C   0  0  0  0  0  0  0  0  0  0  0  0
  146.8196  139.5662  152.6155 O   0  0  0  0  0  0  0  0  0  0  0  0
  147.9690  140.8985  154.0747 N   0  0  0  0  0  0  0  0  0  0  0  0
  147.0025  141.9977  154.0344 C   0  0  0  0  0  0  0  0  0  0  0  0
  148.5906  137.9324  152.9228 H   0  0  0  0  0  0  0  0  0  0  0  0
  150.0429  137.9462  159.8469 H   0  0  0  0  0  0  0  0  0  0  0  0
  151.4451  137.0277  159.2965 H   0  0  0  0  0  0  0  0  0  0  0  0
  149.9276  136.9731  158.3796 H   0  0  0  0  0  0  0  0  0  0  0  0
  152.5984  137.7907  157.3139 H   0  0  0  0  0  0  0  0  0  0  0  0
  151.1005  137.7689  156.3929 H   0  0  0  0  0  0  0  0  0  0  0  0
  152.8125  140.2382  156.9500 H   0  0  0  0  0  0  0  0  0  0  0  0
  152.7802  139.4007  155.4421 H   0  0  0  0  0  0  0  0  0  0  0  0
  152.0740  140.8865  158.3854 H   0  0  0  0  0  0  0  0  0  0  0  0
  153.2394  142.1162  158.0152 H   0  0  0  0  0  0  0  0  0  0  0  0
  150.8140  142.5355  159.8628 H   0  0  0  0  0  0  0  0  0  0  0  0
  152.4710  142.2954  160.3955 H   0  0  0  0  0  0  0  0  0  0  0  0
  152.0188  145.8904  160.5555 H   0  0  0  0  0  0  0  0  0  0  0  0
  152.4292  144.4479  161.4800 H   0  0  0  0  0  0  0  0  0  0  0  0
  150.7675  144.6993  160.9313 H   0  0  0  0  0  0  0  0  0  0  0  0
  150.2456  144.5371  158.5813 H   0  0  0  0  0  0  0  0  0  0  0  0
  151.5031  145.7031  158.2031 H   0  0  0  0  0  0  0  0  0  0  0  0
  152.6711  144.0314  156.7491 H   0  0  0  0  0  0  0  0  0  0  0  0
  151.0230  144.2865  156.2209 H   0  0  0  0  0  0  0  0  0  0  0  0
  146.1658  141.8298  153.3555 H   0  0  0  0  0  0  0  0  0  0  0  0
  147.4969  142.9173  153.7200 H   0  0  0  0  0  0  0  0  0  0  0  0
  146.5880  142.1636  155.0293 H   0  0  0  0  0  0  0  0  0  0  0  0
  1  2  1  0  0  0  0
  1 25  1  0  0  0  0
  1 26  1  0  0  0  0
  1 27  1  0  0  0  0
  2  3  1  0  0  0  0
  3  4  1  0  0  0  0
  3 28  1  0  0  0  0
  3 29  1  0  0  0  0
  4  5  1  0  0  0  0
  4 30  1  0  0  0  0
  4 31  1  0  0  0  0
  5 16  1  0  0  0  0
  5  6  1  0  0  0  0
  6  7  1  0  0  0  0
  6 14  2  0  0  0  0
  7 13  1  0  0  0  0
  7  8  1  0  0  0  0
  8  9  1  0  0  0  0
  8 32  1  0  0  0  0
  8 33  1  0  0  0  0
  9 10  1  0  0  0  0
  9 34  1  0  0  0  0
  9 35  1  0  0  0  0
 10 11  1  0  0  0  0
 10 12  1  0  0  0  0
 11 36  1  0  0  0  0
 11 37  1  0  0  0  0
 11 38  1  0  0  0  0
 12 13  1  0  0  0  0
 12 39  1  0  0  0  0
 12 40  1  0  0  0  0
 13 41  1  0  0  0  0
 13 42  1  0  0  0  0
 14 15  1  0  0  0  0
 15 22  1  0  0  0  0
 15 16  2  0  0  0  0
 16 17  1  0  0  0  0
 17 18  2  0  0  0  0
 17 19  1  0  0  0  0
 19 24  1  0  0  0  0
 19 20  1  0  0  0  0
 20 21  2  0  0  0  0
 20 22  1  0  0  0  0
 22 23  1  0  0  0  0
 23 43  1  0  0  0  0
 23 44  1  0  0  0  0
 23 45  1  0  0  0  0
M  END
> <s_m_source_file>
AV-unprocessed.smi

> <i_m_source_file_index>
511

> <i_lp_mmshare_version>
43012

> <i_f3d_flags>
0

> <s_epik_input>
W0NIM11uMWMoPU8pW25IXWMoPU8pYyhjMTIpbihbQ0gyXVtDSDJdT1tDSDNdKWMobjIpTjNbQ0gyXVtDSDJdTihbQ0gzXSlbQ0gyXVtDSDJdMw==

> <s_epik_cmdline>
J2VwaWtfcHl0aG9uJywgJy1waCcsICc3LjAnLCAnLXRuJywgJzgnLCAnLW1hJywgJzIwMCcsICctbWV0YWxfYmluZGluZycsICctaW1hZScsICc8aW5maWxlLm1hZT4nLCAnLW9tYWUnLCAnPG91dGZpbGUubWFlPic=

> <r_epik_Ionization_Penalty>
1.34394

> <r_epik_Ionization_Penalty_Charging>
1.59275e-05

> <r_epik_Ionization_Penalty_Neutral>
1.34392

> <r_epik_State_Penalty>
1.4212

> <r_epik_Charging_Adjusted_Penalty>
1.42122

> <i_epik_Tot_Q>
0

> <i_epik_Tot_abs_Q>
0

> <r_epik_Metal_State_Penalty>
1.44789

> <b_epik_Metal_Only>
0

> <s_lp_Force_Field>
OPLS_2005

> <r_lp_Energy>
49.2822

> <b_lp_Chiralities_Consistent>
1

> <s_lp_Variant>
AV-unprocessed.smi:511-2

> <Gold.Version>
5.8.1

> <Gold.Id.Protein>
6NUR|6NUR_protein|mol2

> <Gold.PLP.Fitness>
45.0197

> <Gold.PLP.PLP>
-42.9059

> <Gold.PLP.part.hbond>
-2.0000

> <Gold.PLP.part.metal>
0.0000

> <Gold.PLP.part.buried>
-5.7878

> <Gold.PLP.part.nonpolar>
-38.3654

> <Gold.PLP.part.repulsive>
3.2440

> <Gold.PLP.ligand.clash>
0.0000

> <Gold.PLP.ligand.torsion>
0.5867

> <Gold.PLP.Chemscore.Hbond>
1.0000

> <Gold.PLP.Chemscore.CHOScore>
0.0000

> <Gold.PLP.Chemscore.Metal>
0.0000

> <Gold.Chemscore.Hbonds>
donor molecule, donor type, donor heavy atom, donor atom, acceptor molecule, acceptor atom, score
      L1  H    19    24       P1  7948  1.00

> <Gold.PLP.Chemscore.Internal.Correction>
0.2872

> <Gold.Rescore>
     Score         DG    S(hbond)    S(metal)    S(lipo)     H(rot)  DE(clash)    DE(int)     intcor
     12.63     -14.10       0.97        0.00      78.53       1.49       0.01       1.46       ----

> <Gold.Chemscore.Fitness>
12.6259

> <Gold.Chemscore.DG>
-14.0971

> <Gold.Chemscore.ZeroCoef>
-5.4800

> <Gold.Chemscore.Hbond>
0.9723

> <Gold.Chemscore.Metal>
0.0000

> <Gold.Chemscore.Lipo>
78.5298

> <Gold.Chemscore.Internal_Hbond>
0.0000

> <Gold.Chemscore.DEClash>
0.0114

> <Gold.Chemscore.DEInternal>
1.4598

> <Gold.Chemscore.Rot>
1.4915

> <Gold.Chemscore.Internal.Correction>
   9.000000E+99

> <Gold.Chemscore.Hbonds>
donor molecule, donor type, donor heavy atom, donor atom, acceptor molecule, acceptor atom, score
      L1  H    19    24       P1  7948  0.94

> <Gold.Chemscore.Hbond.Weighted>
-3.2474

> <Gold.Chemscore.Metal.Weighted>
-0.0000

> <Gold.Chemscore.Lipo.Weighted>
-9.1880

> <Gold.Chemscore.Internal_Hbond.Weighted>
0.0000

> <Gold.Chemscore.DEClash.Weighted>
0.0114

> <Gold.Chemscore.DEInternal.Weighted>
1.4598

> <Gold.Chemscore.Rot.Weighted>
3.8183

> <Gold.Chemscore.Internal.Correction.Weighted>
   9.000000E+99

> <Gold.Protein.RotatedTorsions>
[ 6907 6896 6895 6894 ] final  -79.99 input  -60.11 | X-H torsion
[ 7974 7965 7964 7962 ] final  132.29 input  175.53 | X-H torsion
[ 8008 7997 7996 7995 ] final  -83.85 input   59.86 | X-H torsion
[ 10167 10162 10161 10158 ] final  -78.12 input  -65.29 | X-H torsion
[ 10718 10713 10712 10709 ] final  -37.71 input   66.30 | X-H torsion
[ 10763 10752 10751 10750 ] final  175.17 input  -60.55 | X-H torsion
[ 11005 11000 10999 10996 ] final   52.61 input  -57.11 | X-H torsion

> <Gold.Protein.ActiveResidues>
 VAL166  LYS551  ARG553  GLY616  TRP617  ASP618  TYR619  PRO620  LYS621  CYS622 
 ASP623  PHE694  ASN695  SER759  ASP760  ASP761  ALA762  ILE779  LEU786  VAL792 
 PHE793  MET794  SER795  GLU796  ALA797  LYS798  CYS799  TRP800  GLU811  SER814 

> <Gold.Protein.RotatedAtoms>
  150.6938  134.4038  159.5130 H   0  0  0  0  0  0  0  0  0  0  0  0  # atno 6907 bound_to 6896
  152.1807  134.8753  160.0535 H   0  0  0  0  0  0  0  0  0  0  0  0  # atno 6908 bound_to 6896
  151.9745  133.3702  159.4120 H   0  0  0  0  0  0  0  0  0  0  0  0  # atno 6909 bound_to 6896
  144.9984  139.4337  143.5304 H   0  0  0  0  0  0  0  0  0  0  0  0  # atno 7974 bound_to 7965
  154.6235  140.0613  156.9645 H   0  0  0  0  0  0  0  0  0  0  0  0  # atno 8008 bound_to 7997
  155.1779  140.3296  155.4362 H   0  0  0  0  0  0  0  0  0  0  0  0  # atno 8009 bound_to 7997
  156.2445  140.1903  156.6877 H   0  0  0  0  0  0  0  0  0  0  0  0  # atno 8010 bound_to 7997
  140.4710  143.2426  151.8204 H   0  0  0  0  0  0  0  0  0  0  0  0  # atno 10167 bound_to 10162
  156.3121  130.4254  149.8040 H   0  0  0  0  0  0  0  0  0  0  0  0  # atno 10718 bound_to 10713
  154.4640  135.2768  155.1692 H   0  0  0  0  0  0  0  0  0  0  0  0  # atno 10763 bound_to 10752
  154.3468  135.6158  153.5627 H   0  0  0  0  0  0  0  0  0  0  0  0  # atno 10764 bound_to 10752
  152.9857  135.5802  154.5007 H   0  0  0  0  0  0  0  0  0  0  0  0  # atno 10765 bound_to 10752
  140.0835  134.5306  155.8922 H   0  0  0  0  0  0  0  0  0  0  0  0  # atno 11005 bound_to 11000
  146.3446  139.9357  142.8747 LP  0  0  0  0  0  0  0  0  0  0  0  0  # atno 17320 bound_to 7965
  145.2188  140.9926  143.4058 LP  0  0  0  0  0  0  0  0  0  0  0  0  # atno 17321 bound_to 7965
  139.4818  144.4891  151.9208 LP  0  0  0  0  0  0  0  0  0  0  0  0  # atno 17342 bound_to 10162
  140.3976  144.2534  150.5895 LP  0  0  0  0  0  0  0  0  0  0  0  0  # atno 17343 bound_to 10162
  156.5379  130.8287  151.3259 LP  0  0  0  0  0  0  0  0  0  0  0  0  # atno 17370 bound_to 10713
  157.7393  130.9830  150.2307 LP  0  0  0  0  0  0  0  0  0  0  0  0  # atno 17371 bound_to 10713
  141.2055  133.6647  156.6183 LP  0  0  0  0  0  0  0  0  0  0  0  0  # atno 17394 bound_to 11000
  140.3453  134.7814  157.4428 LP  0  0  0  0  0  0  0  0  0  0  0  0  # atno 17395 bound_to 11000

$$$$
