AV-unprocessed.smi:2331|AV-procd|sdf|9314|dock10
  -GOLD-   2272012533D 1   1.00000     0.00000
 Structure written by MMmdl.
 49 50  0  0  0  0  0  0  0  0  1 V2000
  152.2641  144.6404  157.8258 C   0  0  0  0  0  0  0  0  0  0  0  0
  151.5281  144.2346  159.1260 C   0  0  0  0  0  0  0  0  0  0  0  0
  151.3053  145.5296  159.9356 C   0  0  0  0  0  0  0  0  0  0  0  0
  150.1447  143.6326  158.7549 C   0  0  0  0  0  0  0  0  0  0  0  0
  150.1759  142.8786  157.5037 N   0  0  0  0  0  0  0  0  0  0  0  0
  150.1264  141.5418  157.3823 C   0  0  0  0  0  0  0  0  0  0  0  0
  150.1712  140.7833  158.3505 O   0  0  0  0  0  0  0  0  0  0  0  0
  150.1046  141.1215  156.0961 N   0  0  0  0  0  0  0  0  0  0  0  0
  149.4351  141.8811  155.0326 C   0  0  0  0  0  0  0  0  0  0  0  0
  148.8280  140.8382  154.1050 C   0  0  0  0  0  0  0  0  0  0  0  0
  149.7874  139.6700  154.2260 C   0  0  0  0  0  0  0  0  0  0  0  0
  150.2996  139.7172  155.6792 C   0  0  1  0  0  0  0  0  0  0  0  0
  151.7674  139.1917  155.8258 C   0  0  0  0  0  0  0  0  0  0  0  0
  152.3170  139.4116  157.2506 C   0  0  0  0  0  0  0  0  0  0  0  0
  151.9504  137.7224  155.3945 C   0  0  0  0  0  0  0  0  0  0  0  0
  152.6159  139.9860  155.0207 O   0  0  0  0  0  0  0  0  0  0  0  0
  152.3361  143.2301  159.9715 C   0  0  0  0  0  0  0  0  0  0  0  0
  152.5904  143.4180  161.3528 C   0  0  0  0  0  0  0  0  0  0  0  0
  153.3637  142.4635  162.0426 C   0  0  0  0  0  0  0  0  0  0  0  0
  153.8835  141.3645  161.4588 N   0  0  0  0  0  0  0  0  0  0  0  0
  153.6428  141.1816  160.1447 C   0  0  0  0  0  0  0  0  0  0  0  0
  152.8844  142.0759  159.3643 C   0  0  0  0  0  0  0  0  0  0  0  0
  151.6727  145.3470  157.2425 H   0  0  0  0  0  0  0  0  0  0  0  0
  152.4632  143.7863  157.1785 H   0  0  0  0  0  0  0  0  0  0  0  0
  153.2188  145.1225  158.0395 H   0  0  0  0  0  0  0  0  0  0  0  0
  150.7514  146.2686  159.3556 H   0  0  0  0  0  0  0  0  0  0  0  0
  152.2542  145.9837  160.2232 H   0  0  0  0  0  0  0  0  0  0  0  0
  150.7380  145.3518  160.8491 H   0  0  0  0  0  0  0  0  0  0  0  0
  149.8257  142.9325  159.5275 H   0  0  0  0  0  0  0  0  0  0  0  0
  149.3766  144.4078  158.7309 H   0  0  0  0  0  0  0  0  0  0  0  0
  150.1781  143.4220  156.6525 H   0  0  0  0  0  0  0  0  0  0  0  0
  148.6602  142.5564  155.4007 H   0  0  0  0  0  0  0  0  0  0  0  0
  150.1809  142.4782  154.5064 H   0  0  0  0  0  0  0  0  0  0  0  0
  147.8429  140.5463  154.4712 H   0  0  0  0  0  0  0  0  0  0  0  0
  148.7160  141.1940  153.0805 H   0  0  0  0  0  0  0  0  0  0  0  0
  149.3182  138.7181  153.9763 H   0  0  0  0  0  0  0  0  0  0  0  0
  150.6048  139.8291  153.5223 H   0  0  0  0  0  0  0  0  0  0  0  0
  149.6296  139.0940  156.2754 H   0  0  0  0  0  0  0  0  0  0  0  0
  151.8115  138.7855  157.9855 H   0  0  0  0  0  0  0  0  0  0  0  0
  152.1998  140.4495  157.5651 H   0  0  0  0  0  0  0  0  0  0  0  0
  153.3791  139.1695  157.3100 H   0  0  0  0  0  0  0  0  0  0  0  0
  151.3117  137.0554  155.9733 H   0  0  0  0  0  0  0  0  0  0  0  0
  152.9800  137.3934  155.5389 H   0  0  0  0  0  0  0  0  0  0  0  0
  151.7128  137.5740  154.3410 H   0  0  0  0  0  0  0  0  0  0  0  0
  152.0826  140.5771  154.5119 H   0  0  0  0  0  0  0  0  0  0  0  0
  152.2189  144.2716  161.8979 H   0  0  0  0  0  0  0  0  0  0  0  0
  153.5728  142.5893  163.0945 H   0  0  0  0  0  0  0  0  0  0  0  0
  154.0709  140.2961  159.6985 H   0  0  0  0  0  0  0  0  0  0  0  0
  152.7378  141.8742  158.3137 H   0  0  0  0  0  0  0  0  0  0  0  0
  1  2  1  0  0  0  0
  1 23  1  0  0  0  0
  1 24  1  0  0  0  0
  1 25  1  0  0  0  0
  2  3  1  0  0  0  0
  2  4  1  0  0  0  0
  2 17  1  0  0  0  0
  3 26  1  0  0  0  0
  3 27  1  0  0  0  0
  3 28  1  0  0  0  0
  4  5  1  0  0  0  0
  4 29  1  0  0  0  0
  4 30  1  0  0  0  0
  5  6  1  0  0  0  0
  5 31  1  0  0  0  0
  6  7  2  0  0  0  0
  6  8  1  0  0  0  0
  8 12  1  0  0  0  0
  8  9  1  0  0  0  0
  9 10  1  0  0  0  0
  9 32  1  0  0  0  0
  9 33  1  0  0  0  0
 10 11  1  0  0  0  0
 10 34  1  0  0  0  0
 10 35  1  0  0  0  0
 11 12  1  0  0  0  0
 11 36  1  0  0  0  0
 11 37  1  0  0  0  0
 12 13  1  0  0  0  0
 12 38  1  0  0  0  0
 13 14  1  0  0  0  0
 13 15  1  0  0  0  0
 13 16  1  0  0  0  0
 14 39  1  0  0  0  0
 14 40  1  0  0  0  0
 14 41  1  0  0  0  0
 15 42  1  0  0  0  0
 15 43  1  0  0  0  0
 15 44  1  0  0  0  0
 16 45  1  0  0  0  0
 17 22  1  0  0  0  0
 17 18  2  0  0  0  0
 18 19  1  0  0  0  0
 18 46  1  0  0  0  0
 19 20  2  0  0  0  0
 19 47  1  0  0  0  0
 20 21  1  0  0  0  0
 21 22  2  0  0  0  0
 21 48  1  0  0  0  0
 22 49  1  0  0  0  0
M  END
> <s_m_source_file>
AV-unprocessed.smi

> <i_m_source_file_index>
2331

> <i_lp_mmshare_version>
43012

> <i_f3d_flags>
0

> <s_epik_input>
W2NIXTFbY0hdbltjSF1bY0hdYzFDKFtDSDNdKShbQ0gzXSlbQ0gyXVtOSF1DKD1PKU4yW0NIMl1bQ0gyXVtDSDJdW0NASF0yQyhbQ0gzXSkoW0NIM10pW09IXQ==

> <s_epik_cmdline>
J2VwaWtfcHl0aG9uJywgJy1waCcsICc3LjAnLCAnLXRuJywgJzgnLCAnLW1hJywgJzIwMCcsICctbWV0YWxfYmluZGluZycsICctaW1hZScsICc8aW5maWxlLm1hZT4nLCAnLW9tYWUnLCAnPG91dGZpbGUubWFlPic=

> <r_epik_Ionization_Penalty>
0.0581496

> <r_epik_Ionization_Penalty_Charging>
0

> <r_epik_Ionization_Penalty_Neutral>
0.0581496

> <r_epik_State_Penalty>
0.0501956

> <r_epik_Charging_Adjusted_Penalty>
0.0501956

> <i_epik_Tot_Q>
0

> <i_epik_Tot_abs_Q>
0

> <r_epik_Metal_State_Penalty>
0.0456895

> <b_epik_Metal_Only>
0

> <s_lp_Force_Field>
OPLS_2005

> <r_lp_Energy>
47.1334

> <b_lp_Chiralities_Consistent>
1

> <s_lp_Variant>
AV-unprocessed.smi:2331-1

> <Gold.Version>
5.8.1

> <Gold.Id.Protein>
6NUR|6NUR_protein|mol2

> <Gold.PLP.Fitness>
56.8412

> <Gold.PLP.PLP>
-54.0737

> <Gold.PLP.part.hbond>
-3.0000

> <Gold.PLP.part.metal>
0.0000

> <Gold.PLP.part.buried>
-2.6053

> <Gold.PLP.part.nonpolar>
-48.3615

> <Gold.PLP.part.repulsive>
0.0232

> <Gold.PLP.ligand.clash>
0.0000

> <Gold.PLP.ligand.torsion>
1.1711

> <Gold.PLP.Chemscore.Hbond>
1.5569

> <Gold.PLP.Chemscore.CHOScore>
0.0000

> <Gold.PLP.Chemscore.Metal>
0.0000

> <Gold.Chemscore.Hbonds>
donor molecule, donor type, donor heavy atom, donor atom, acceptor molecule, acceptor atom, score
      L1  H     5    31       P1  8028  0.67
      P1  H  7997  8010       L1    16  0.98

> <Gold.PLP.Chemscore.Internal.Correction>
0.4390

> <Gold.Rescore>
     Score         DG    S(hbond)    S(metal)    S(lipo)     H(rot)  DE(clash)    DE(int)     intcor
     20.06     -22.54       1.55        0.00     143.90       1.94       0.03       2.45       ----

> <Gold.Chemscore.Fitness>
20.0621

> <Gold.Chemscore.DG>
-22.5367

> <Gold.Chemscore.ZeroCoef>
-5.4800

> <Gold.Chemscore.Hbond>
1.5490

> <Gold.Chemscore.Metal>
0.0000

> <Gold.Chemscore.Lipo>
143.9026

> <Gold.Chemscore.Internal_Hbond>
0.0000

> <Gold.Chemscore.DEClash>
0.0252

> <Gold.Chemscore.DEInternal>
2.4493

> <Gold.Chemscore.Rot>
1.9350

> <Gold.Chemscore.Internal.Correction>
   9.000000E+99

> <Gold.Chemscore.Hbonds>
donor molecule, donor type, donor heavy atom, donor atom, acceptor molecule, acceptor atom, score
      L1  H     5    31       P1  8028  0.63
      P1  H  7997  8010       L1    16  0.69

> <Gold.Chemscore.Hbond.Weighted>
-5.1737

> <Gold.Chemscore.Metal.Weighted>
-0.0000

> <Gold.Chemscore.Lipo.Weighted>
-16.8366

> <Gold.Chemscore.Internal_Hbond.Weighted>
0.0000

> <Gold.Chemscore.DEClash.Weighted>
0.0252

> <Gold.Chemscore.DEInternal.Weighted>
2.4493

> <Gold.Chemscore.Rot.Weighted>
4.9536

> <Gold.Chemscore.Internal.Correction.Weighted>
   9.000000E+99

> <Gold.Protein.RotatedTorsions>
[ 6907 6896 6895 6894 ] final   35.28 input  -60.11 | X-H torsion
[ 7974 7965 7964 7962 ] final -161.20 input  175.53 | X-H torsion
[ 8008 7997 7996 7995 ] final  103.00 input   59.86 | X-H torsion
[ 10167 10162 10161 10158 ] final   45.33 input  -65.29 | X-H torsion
[ 10718 10713 10712 10709 ] final  -62.57 input   66.30 | X-H torsion
[ 10763 10752 10751 10750 ] final    4.74 input  -60.55 | X-H torsion
[ 11005 11000 10999 10996 ] final -114.80 input  -57.11 | X-H torsion

> <Gold.Protein.ActiveResidues>
 VAL166  LYS551  ARG553  GLY616  TRP617  ASP618  TYR619  PRO620  LYS621  CYS622 
 ASP623  PHE694  ASN695  SER759  ASP760  ASP761  ALA762  ILE779  LEU786  VAL792 
 PHE793  MET794  SER795  GLU796  ALA797  LYS798  CYS799  TRP800  GLU811  SER814 

> <Gold.Protein.RotatedAtoms>
  152.1140  134.9254  160.0565 H   0  0  0  0  0  0  0  0  0  0  0  0  # atno 6907 bound_to 6896
  152.0420  133.3977  159.4349 H   0  0  0  0  0  0  0  0  0  0  0  0  # atno 6908 bound_to 6896
  150.6845  134.3324  159.4876 H   0  0  0  0  0  0  0  0  0  0  0  0  # atno 6909 bound_to 6896
  144.7399  140.3432  143.6130 H   0  0  0  0  0  0  0  0  0  0  0  0  # atno 7974 bound_to 7965
  156.1444  140.3172  155.8547 H   0  0  0  0  0  0  0  0  0  0  0  0  # atno 8008 bound_to 7997
  155.4092  140.0505  157.3050 H   0  0  0  0  0  0  0  0  0  0  0  0  # atno 8009 bound_to 7997
  154.5004  140.2127  155.9371 H   0  0  0  0  0  0  0  0  0  0  0  0  # atno 8010 bound_to 7997
  140.3253  144.2656  150.6176 H   0  0  0  0  0  0  0  0  0  0  0  0  # atno 10167 bound_to 10162
  156.0846  130.4210  150.1154 H   0  0  0  0  0  0  0  0  0  0  0  0  # atno 10718 bound_to 10713
  153.2676  135.6929  153.7514 H   0  0  0  0  0  0  0  0  0  0  0  0  # atno 10763 bound_to 10752
  153.6549  135.3370  155.3111 H   0  0  0  0  0  0  0  0  0  0  0  0  # atno 10764 bound_to 10752
  154.8452  135.4463  154.1688 H   0  0  0  0  0  0  0  0  0  0  0  0  # atno 10765 bound_to 10752
  141.0528  133.9659  157.2806 H   0  0  0  0  0  0  0  0  0  0  0  0  # atno 11005 bound_to 11000
  145.7353  139.1748  143.2407 LP  0  0  0  0  0  0  0  0  0  0  0  0  # atno 17320 bound_to 7965
  146.1175  140.7351  142.9473 LP  0  0  0  0  0  0  0  0  0  0  0  0  # atno 17321 bound_to 7965
  140.5447  143.2217  151.8027 LP  0  0  0  0  0  0  0  0  0  0  0  0  # atno 17342 bound_to 10162
  139.4866  144.4555  151.9603 LP  0  0  0  0  0  0  0  0  0  0  0  0  # atno 17343 bound_to 10162
  156.9178  130.9673  151.3553 LP  0  0  0  0  0  0  0  0  0  0  0  0  # atno 17370 bound_to 10713
  157.5976  130.8489  149.8753 LP  0  0  0  0  0  0  0  0  0  0  0  0  # atno 17371 bound_to 10713
  139.9365  135.0196  156.8572 LP  0  0  0  0  0  0  0  0  0  0  0  0  # atno 17394 bound_to 11000
  140.6021  134.0162  155.7541 LP  0  0  0  0  0  0  0  0  0  0  0  0  # atno 17395 bound_to 11000

$$$$
