AV-unprocessed.smi:2061|AV-procd|sdf|8391|dock7
  -GOLD-   2272011 73D 1   1.00000     0.00000
 Structure written by MMmdl.
 45 46  0  0  0  0  0  0  0  0  3 V2000
  152.6244  144.2833  158.7851 C   0  0  0  0  0  0  0  0  0  0  0  0
  151.9344  143.0746  158.2530 C   0  0  0  0  0  0  0  0  0  0  0  0
  150.8331  142.9058  157.4618 C   0  0  0  0  0  0  0  0  0  0  0  0
  150.7359  141.4937  157.3436 C   0  0  0  0  0  0  0  0  0  0  0  0
  149.6925  140.9005  156.5847 N   0  0  0  0  0  0  0  0  0  0  0  0
  149.7805  140.1808  155.4514 C   0  0  0  0  0  0  0  0  0  0  0  0
  150.8802  139.9816  154.9212 O   0  0  0  0  0  0  0  0  0  0  0  0
  148.5650  139.7403  155.0231 N   0  5  0  0  0  0  0  0  0  0  0  0
  148.3196  138.4349  154.4068 C   0  0  0  0  0  0  0  0  0  0  0  0
  146.9747  138.4254  153.6275 C   0  0  1  0  0  0  0  0  0  0  0  0
  146.8906  139.4777  152.4933 C   0  0  0  0  0  0  0  0  0  0  0  0
  146.6498  137.0409  153.1643 N   0  3  1  0  0  0  0  0  0  0  0  0
  146.3532  136.0990  154.2716 C   0  0  0  0  0  0  0  0  0  0  0  0
  146.2319  134.6548  153.7468 C   0  0  2  0  0  0  0  0  0  0  0  0
  147.5850  134.0253  153.3711 C   0  0  0  0  0  0  0  0  0  0  0  0
  145.2918  134.5922  152.6736 O   0  0  0  0  0  0  0  0  0  0  0  0
  145.5628  135.4705  151.5836 C   0  0  1  0  0  0  0  0  0  0  0  0
  144.4603  135.2744  150.5372 C   0  0  0  0  0  0  0  0  0  0  0  0
  145.6180  136.9185  152.0990 C   0  0  0  0  0  0  0  0  0  0  0  0
  151.6929  140.8588  158.0047 N   0  0  0  0  0  0  0  0  0  0  0  0
  152.4660  141.8685  158.5896 O   0  0  0  0  0  0  0  0  0  0  0  0
  151.9720  145.1553  158.7392 H   0  0  0  0  0  0  0  0  0  0  0  0
  153.5219  144.5002  158.2058 H   0  0  0  0  0  0  0  0  0  0  0  0
  152.9186  144.1364  159.8246 H   0  0  0  0  0  0  0  0  0  0  0  0
  150.1995  143.6701  157.0372 H   0  0  0  0  0  0  0  0  0  0  0  0
  148.7606  141.0287  156.9504 H   0  0  0  0  0  0  0  0  0  0  0  0
  149.1253  138.1601  153.7257 H   0  0  0  0  0  0  0  0  0  0  0  0
  148.2992  137.6405  155.1548 H   0  0  0  0  0  0  0  0  0  0  0  0
  146.2052  138.6922  154.3537 H   0  0  0  0  0  0  0  0  0  0  0  0
  146.9784  140.4953  152.8781 H   0  0  0  0  0  0  0  0  0  0  0  0
  145.9285  139.4226  151.9836 H   0  0  0  0  0  0  0  0  0  0  0  0
  147.6686  139.3491  151.7388 H   0  0  0  0  0  0  0  0  0  0  0  0
  147.1336  136.1442  155.0326 H   0  0  0  0  0  0  0  0  0  0  0  0
  145.4224  136.3982  154.7554 H   0  0  0  0  0  0  0  0  0  0  0  0
  145.8146  134.0450  154.5487 H   0  0  0  0  0  0  0  0  0  0  0  0
  148.2369  133.9639  154.2429 H   0  0  0  0  0  0  0  0  0  0  0  0
  148.1148  134.6014  152.6129 H   0  0  0  0  0  0  0  0  0  0  0  0
  147.4500  133.0129  152.9901 H   0  0  0  0  0  0  0  0  0  0  0  0
  146.5160  135.2079  151.1240 H   0  0  0  0  0  0  0  0  0  0  0  0
  144.6211  135.9167  149.6710 H   0  0  0  0  0  0  0  0  0  0  0  0
  143.4779  135.5078  150.9491 H   0  0  0  0  0  0  0  0  0  0  0  0
  144.4362  134.2427  150.1855 H   0  0  0  0  0  0  0  0  0  0  0  0
  144.6405  137.2054  152.4894 H   0  0  0  0  0  0  0  0  0  0  0  0
  145.8426  137.5904  151.2700 H   0  0  0  0  0  0  0  0  0  0  0  0
  147.5119  136.7052  152.7584 H   0  0  0  0  0  0  0  0  0  0  0  0
  1  2  1  0  0  0  0
  1 22  1  0  0  0  0
  1 23  1  0  0  0  0
  1 24  1  0  0  0  0
  2 21  1  0  0  0  0
  2  3  2  0  0  0  0
  3  4  1  0  0  0  0
  3 25  1  0  0  0  0
  4  5  1  0  0  0  0
  4 20  2  0  0  0  0
  5  6  1  0  0  0  0
  5 26  1  0  0  0  0
  6  7  2  0  0  0  0
  6  8  1  0  0  0  0
  8  9  1  0  0  0  0
  9 10  1  0  0  0  0
  9 27  1  0  0  0  0
  9 28  1  0  0  0  0
 10 11  1  0  0  0  0
 10 12  1  0  0  0  0
 10 29  1  0  0  0  0
 11 30  1  0  0  0  0
 11 31  1  0  0  0  0
 11 32  1  0  0  0  0
 12 19  1  0  0  0  0
 12 13  1  0  0  0  0
 12 45  1  0  0  0  0
 13 14  1  0  0  0  0
 13 33  1  0  0  0  0
 13 34  1  0  0  0  0
 14 15  1  0  0  0  0
 14 16  1  0  0  0  0
 14 35  1  0  0  0  0
 15 36  1  0  0  0  0
 15 37  1  0  0  0  0
 15 38  1  0  0  0  0
 16 17  1  0  0  0  0
 17 18  1  0  0  0  0
 17 19  1  0  0  0  0
 17 39  1  0  0  0  0
 18 40  1  0  0  0  0
 18 41  1  0  0  0  0
 18 42  1  0  0  0  0
 19 43  1  0  0  0  0
 19 44  1  0  0  0  0
 20 21  1  0  0  0  0
M  CHG  1   8  -1
M  CHG  1  12   1
M  END
> <s_m_source_file>
AV-unprocessed.smi

> <i_m_source_file_index>
2061

> <i_lp_mmshare_version>
43012

> <i_f3d_flags>
0

> <s_epik_input>
W0NIM11jMVtjSF1jKG5vMSlbTkhdQyg9TylbTkhdW0NIMl1bQ0BIXShbQ0gzXSlOMltDSDJdW0NAQEhdKFtDSDNdKU9bQ0BASF0oW0NIM10pW0NIMl0y

> <s_epik_cmdline>
J2VwaWtfcHl0aG9uJywgJy1waCcsICc3LjAnLCAnLXRuJywgJzgnLCAnLW1hJywgJzIwMCcsICctbWV0YWxfYmluZGluZycsICctaW1hZScsICc8aW5maWxlLm1hZT4nLCAnLW9tYWUnLCAnPG91dGZpbGUubWFlPic=

> <r_epik_Ionization_Penalty>
6.8073

> <r_epik_Ionization_Penalty_Charging>
6.80729

> <r_epik_Ionization_Penalty_Neutral>
5.65391e-06

> <r_epik_State_Penalty>
7.47323

> <r_epik_Charging_Adjusted_Penalty>
14.2805

> <i_epik_Tot_Q>
0

> <i_epik_Tot_abs_Q>
2

> <r_epik_Metal_State_Penalty>
3.40035

> <b_epik_Metal_Only>
1

> <s_lp_Force_Field>
OPLS_2005

> <r_lp_Energy>
19.3707

> <b_lp_Chiralities_Consistent>
1

> <s_lp_Variant>
AV-unprocessed.smi:2061-32

> <Gold.Version>
5.8.1

> <Gold.Id.Protein>
6NUR|6NUR_protein|mol2

> <Gold.PLP.Fitness>
36.1712

> <Gold.PLP.PLP>
-29.6765

> <Gold.PLP.part.hbond>
-2.0000

> <Gold.PLP.part.metal>
0.0000

> <Gold.PLP.part.buried>
-1.6845

> <Gold.PLP.part.nonpolar>
-26.5219

> <Gold.PLP.part.repulsive>
0.2425

> <Gold.PLP.ligand.clash>
0.0000

> <Gold.PLP.ligand.torsion>
1.3274

> <Gold.PLP.Chemscore.Hbond>
3.0000

> <Gold.PLP.Chemscore.CHOScore>
0.0000

> <Gold.PLP.Chemscore.Metal>
0.0000

> <Gold.Chemscore.Hbonds>
donor molecule, donor type, donor heavy atom, donor atom, acceptor molecule, acceptor atom, score
      L1  H    12    45       P1  7948  2.00
      P1  H  7989  7998       L1     7  1.00

> <Gold.PLP.Chemscore.Internal.Correction>
0.1495

> <Gold.Rescore>
     Score         DG    S(hbond)    S(metal)    S(lipo)     H(rot)  DE(clash)    DE(int)     intcor
     15.71     -16.91       2.00        0.00      74.79       1.56       0.04       1.17       ----

> <Gold.Chemscore.Fitness>
15.7089

> <Gold.Chemscore.DG>
-16.9139

> <Gold.Chemscore.ZeroCoef>
-5.4800

> <Gold.Chemscore.Hbond>
1.9953

> <Gold.Chemscore.Metal>
0.0000

> <Gold.Chemscore.Lipo>
74.7913

> <Gold.Chemscore.Internal_Hbond>
0.0000

> <Gold.Chemscore.DEClash>
0.0384

> <Gold.Chemscore.DEInternal>
1.1666

> <Gold.Chemscore.Rot>
1.5550

> <Gold.Chemscore.Internal.Correction>
   9.000000E+99

> <Gold.Chemscore.Hbonds>
donor molecule, donor type, donor heavy atom, donor atom, acceptor molecule, acceptor atom, score
      L1  H    12    45       P1  7948  1.00
      P1  H  7989  7998       L1     7  1.00

> <Gold.Chemscore.Hbond.Weighted>
-6.6642

> <Gold.Chemscore.Metal.Weighted>
-0.0000

> <Gold.Chemscore.Lipo.Weighted>
-8.7506

> <Gold.Chemscore.Internal_Hbond.Weighted>
0.0000

> <Gold.Chemscore.DEClash.Weighted>
0.0384

> <Gold.Chemscore.DEInternal.Weighted>
1.1666

> <Gold.Chemscore.Rot.Weighted>
3.9809

> <Gold.Chemscore.Internal.Correction.Weighted>
   9.000000E+99

> <Gold.Protein.RotatedTorsions>
[ 6907 6896 6895 6894 ] final -122.88 input  -60.11 | X-H torsion
[ 7974 7965 7964 7962 ] final    5.59 input  175.53 | X-H torsion
[ 8008 7997 7996 7995 ] final   60.07 input   59.86 | X-H torsion
[ 10167 10162 10161 10158 ] final  -73.27 input  -65.29 | X-H torsion
[ 10718 10713 10712 10709 ] final   74.80 input   66.30 | X-H torsion
[ 10763 10752 10751 10750 ] final  167.14 input  -60.55 | X-H torsion
[ 11005 11000 10999 10996 ] final  -20.53 input  -57.11 | X-H torsion

> <Gold.Protein.ActiveResidues>
 VAL166  LYS551  ARG553  GLY616  TRP617  ASP618  TYR619  PRO620  LYS621  CYS622 
 ASP623  PHE694  ASN695  SER759  ASP760  ASP761  ALA762  ILE779  LEU786  VAL792 
 PHE793  MET794  SER795  GLU796  ALA797  LYS798  CYS799  TRP800  GLU811  SER814 

> <Gold.Protein.RotatedAtoms>
  150.8618  133.7632  159.2989 H   0  0  0  0  0  0  0  0  0  0  0  0  # atno 6907 bound_to 6896
  151.5272  135.1066  159.9903 H   0  0  0  0  0  0  0  0  0  0  0  0  # atno 6908 bound_to 6896
  152.4632  133.7822  159.6912 H   0  0  0  0  0  0  0  0  0  0  0  0  # atno 6909 bound_to 6896
  146.2440  140.0361  142.8386 H   0  0  0  0  0  0  0  0  0  0  0  0  # atno 7974 bound_to 7965
  155.5764  140.3491  155.4529 H   0  0  0  0  0  0  0  0  0  0  0  0  # atno 8008 bound_to 7997
  156.0406  140.1295  157.0185 H   0  0  0  0  0  0  0  0  0  0  0  0  # atno 8009 bound_to 7997
  154.4390  140.1025  156.6216 H   0  0  0  0  0  0  0  0  0  0  0  0  # atno 8010 bound_to 7997
  140.5124  143.2343  151.7570 H   0  0  0  0  0  0  0  0  0  0  0  0  # atno 10167 bound_to 10162
  157.6607  130.9695  150.1262 H   0  0  0  0  0  0  0  0  0  0  0  0  # atno 10718 bound_to 10713
  154.3495  135.2753  155.2379 H   0  0  0  0  0  0  0  0  0  0  0  0  # atno 10763 bound_to 10752
  154.4615  135.5906  153.6262 H   0  0  0  0  0  0  0  0  0  0  0  0  # atno 10764 bound_to 10752
  152.9851  135.6066  154.3704 H   0  0  0  0  0  0  0  0  0  0  0  0  # atno 10765 bound_to 10752
  140.8474  133.7882  155.9927 H   0  0  0  0  0  0  0  0  0  0  0  0  # atno 11005 bound_to 11000
  145.1111  140.9405  143.4656 LP  0  0  0  0  0  0  0  0  0  0  0  0  # atno 17320 bound_to 7965
  145.0575  139.3132  143.5897 LP  0  0  0  0  0  0  0  0  0  0  0  0  # atno 17321 bound_to 7965
  139.4900  144.4371  151.9806 LP  0  0  0  0  0  0  0  0  0  0  0  0  # atno 17342 bound_to 10162
  140.3464  144.3142  150.5957 LP  0  0  0  0  0  0  0  0  0  0  0  0  # atno 17343 bound_to 10162
  156.2120  130.3667  149.8658 LP  0  0  0  0  0  0  0  0  0  0  0  0  # atno 17370 bound_to 10713
  156.6534  130.8753  151.3535 LP  0  0  0  0  0  0  0  0  0  0  0  0  # atno 17371 bound_to 10713
  140.8829  134.2590  157.5135 LP  0  0  0  0  0  0  0  0  0  0  0  0  # atno 17394 bound_to 11000
  139.8703  134.9624  156.4426 LP  0  0  0  0  0  0  0  0  0  0  0  0  # atno 17395 bound_to 11000

$$$$
