AV-unprocessed.smi:2699|AV-procd|sdf|10424|dock5
  -GOLD-   2272014463D 1   1.00000     0.00000
 Structure written by MMmdl.
 43 45  0  0  0  0  0  0  0  0  1 V2000
  149.4163  140.7492  154.4536 C   0  0  0  0  0  0  0  0  0  0  0  0
  149.6821  139.2729  154.7210 C   0  0  0  0  0  0  0  0  0  0  0  0
  148.7519  138.3397  154.4474 C   0  0  0  0  0  0  0  0  0  0  0  0
  149.0446  136.9466  154.6786 C   0  0  0  0  0  0  0  0  0  0  0  0
  148.1207  136.0138  154.4175 O   0  0  0  0  0  0  0  0  0  0  0  0
  150.2531  136.5900  155.1505 C   0  0  0  0  0  0  0  0  0  0  0  0
  151.2904  137.5795  155.4507 C   0  0  0  0  0  0  0  0  0  0  0  0
  152.3979  137.2388  155.8693 O   0  0  0  0  0  0  0  0  0  0  0  0
  150.9542  138.8940  155.2432 N   0  0  0  0  0  0  0  0  0  0  0  0
  151.9542  139.9358  155.5766 C   0  0  0  0  0  0  0  0  0  0  0  0
  152.1706  140.1218  157.0922 C   0  0  0  0  0  0  0  0  0  0  0  0
  153.0308  139.4725  157.6851 O   0  0  0  0  0  0  0  0  0  0  0  0
  151.4082  141.0099  157.7483 N   0  0  0  0  0  0  0  0  0  0  0  0
  151.4685  141.3200  159.1736 C   0  0  0  0  0  0  0  0  0  0  0  0
  152.4457  142.4725  159.4748 C   0  0  0  0  0  0  0  0  0  0  0  0
  152.2279  143.5514  158.4088 C   0  0  0  0  0  0  0  0  0  0  0  0
  152.5048  145.0069  158.6895 C   0  0  0  0  0  0  0  0  0  0  0  0
  151.0870  144.5422  158.4137 C   0  0  0  0  0  0  0  0  0  0  0  0
  152.4588  142.9769  160.9348 C   0  0  0  0  0  0  0  0  0  0  0  0
  153.5858  141.9943  161.2473 C   0  0  0  0  0  0  0  0  0  0  0  0
  153.8953  142.0008  159.7511 C   0  0  0  0  0  0  0  0  0  0  0  0
  148.5356  140.8731  153.8230 H   0  0  0  0  0  0  0  0  0  0  0  0
  150.2453  141.2259  153.9311 H   0  0  0  0  0  0  0  0  0  0  0  0
  149.2300  141.2801  155.3874 H   0  0  0  0  0  0  0  0  0  0  0  0
  147.7923  138.6277  154.0426 H   0  0  0  0  0  0  0  0  0  0  0  0
  148.0930  135.8956  153.4802 H   0  0  0  0  0  0  0  0  0  0  0  0
  150.4705  135.5447  155.3180 H   0  0  0  0  0  0  0  0  0  0  0  0
  152.9108  139.7392  155.0956 H   0  0  0  0  0  0  0  0  0  0  0  0
  151.6522  140.8943  155.1515 H   0  0  0  0  0  0  0  0  0  0  0  0
  150.7215  141.5173  157.2091 H   0  0  0  0  0  0  0  0  0  0  0  0
  150.4633  141.5699  159.5160 H   0  0  0  0  0  0  0  0  0  0  0  0
  151.7655  140.4261  159.7239 H   0  0  0  0  0  0  0  0  0  0  0  0
  152.4886  143.2119  157.4080 H   0  0  0  0  0  0  0  0  0  0  0  0
  152.7499  145.2907  159.7109 H   0  0  0  0  0  0  0  0  0  0  0  0
  153.0094  145.5786  157.9135 H   0  0  0  0  0  0  0  0  0  0  0  0
  150.6552  144.8068  157.4507 H   0  0  0  0  0  0  0  0  0  0  0  0
  150.3845  144.5409  159.2425 H   0  0  0  0  0  0  0  0  0  0  0  0
  152.7798  144.0164  161.0218 H   0  0  0  0  0  0  0  0  0  0  0  0
  151.5402  142.8021  161.4956 H   0  0  0  0  0  0  0  0  0  0  0  0
  154.3783  142.3943  161.8800 H   0  0  0  0  0  0  0  0  0  0  0  0
  153.2246  141.0299  161.6076 H   0  0  0  0  0  0  0  0  0  0  0  0
  154.1422  141.0210  159.3411 H   0  0  0  0  0  0  0  0  0  0  0  0
  154.6702  142.7257  159.5058 H   0  0  0  0  0  0  0  0  0  0  0  0
  1  2  1  0  0  0  0
  1 22  1  0  0  0  0
  1 23  1  0  0  0  0
  1 24  1  0  0  0  0
  2  9  1  0  0  0  0
  2  3  2  0  0  0  0
  3  4  1  0  0  0  0
  3 25  1  0  0  0  0
  4  5  1  0  0  0  0
  4  6  2  0  0  0  0
  5 26  1  0  0  0  0
  6  7  1  0  0  0  0
  6 27  1  0  0  0  0
  7  8  2  0  0  0  0
  7  9  1  0  0  0  0
  9 10  1  0  0  0  0
 10 11  1  0  0  0  0
 10 28  1  0  0  0  0
 10 29  1  0  0  0  0
 11 12  2  0  0  0  0
 11 13  1  0  0  0  0
 13 14  1  0  0  0  0
 13 30  1  0  0  0  0
 14 15  1  0  0  0  0
 14 31  1  0  0  0  0
 14 32  1  0  0  0  0
 15 21  1  0  0  0  0
 15 16  1  0  0  0  0
 15 19  1  0  0  0  0
 16 18  1  0  0  0  0
 16 17  1  0  0  0  0
 16 33  1  0  0  0  0
 17 18  1  0  0  0  0
 17 34  1  0  0  0  0
 17 35  1  0  0  0  0
 18 36  1  0  0  0  0
 18 37  1  0  0  0  0
 19 20  1  0  0  0  0
 19 38  1  0  0  0  0
 19 39  1  0  0  0  0
 20 21  1  0  0  0  0
 20 40  1  0  0  0  0
 20 41  1  0  0  0  0
 21 42  1  0  0  0  0
 21 43  1  0  0  0  0
M  END
> <s_m_source_file>
AV-unprocessed.smi

> <i_m_source_file_index>
2699

> <i_lp_mmshare_version>
43012

> <i_f3d_flags>
0

> <s_epik_input>
W0NIM11jMVtjSF1jKFtPSF0pW2NIXWMoPU8pbjFbQ0gyXUMoPU8pW05IXVtDSDJdQzIoW0NIXTNbQ0gyXVtDSDJdMylbQ0gyXVtDSDJdW0NIMl0y

> <s_epik_cmdline>
J2VwaWtfcHl0aG9uJywgJy1waCcsICc3LjAnLCAnLXRuJywgJzgnLCAnLW1hJywgJzIwMCcsICctbWV0YWxfYmluZGluZycsICctaW1hZScsICc8aW5maWxlLm1hZT4nLCAnLW9tYWUnLCAnPG91dGZpbGUubWFlPic=

> <r_lp_tautomer_probability>
0.999984

> <r_epik_Ionization_Penalty>
0.783068

> <r_epik_Ionization_Penalty_Charging>
1.5268e-07

> <r_epik_Ionization_Penalty_Neutral>
0.783068

> <r_epik_State_Penalty>
0.823318

> <r_epik_Charging_Adjusted_Penalty>
0.823318

> <i_epik_Tot_Q>
0

> <i_epik_Tot_abs_Q>
0

> <r_epik_Metal_State_Penalty>
0.823318

> <b_epik_Metal_Only>
0

> <s_lp_Force_Field>
OPLS_2005

> <r_lp_Energy>
38.185

> <b_lp_Chiralities_Consistent>
1

> <s_lp_Variant>
AV-unprocessed.smi:2699-2

> <Gold.Version>
5.8.1

> <Gold.Id.Protein>
6NUR|6NUR_protein|mol2

> <Gold.PLP.Fitness>
52.2004

> <Gold.PLP.PLP>
-45.8743

> <Gold.PLP.part.hbond>
-3.0000

> <Gold.PLP.part.metal>
0.0000

> <Gold.PLP.part.buried>
-1.1978

> <Gold.PLP.part.nonpolar>
-40.9861

> <Gold.PLP.part.repulsive>
0.0754

> <Gold.PLP.ligand.clash>
0.0000

> <Gold.PLP.ligand.torsion>
1.7319

> <Gold.PLP.Chemscore.Hbond>
2.6960

> <Gold.PLP.Chemscore.CHOScore>
0.0000

> <Gold.PLP.Chemscore.Metal>
0.0000

> <Gold.Chemscore.Hbonds>
donor molecule, donor type, donor heavy atom, donor atom, acceptor molecule, acceptor atom, score
      L1  H     5    26       P1  7948  0.91
      P1  H  7997  8008       L1    12  1.00
      P1  H 10752 10764       L1     8  0.71

> <Gold.PLP.Chemscore.Internal.Correction>
1.7018

> <Gold.Rescore>
     Score         DG    S(hbond)    S(metal)    S(lipo)     H(rot)  DE(clash)    DE(int)     intcor
     19.58     -21.98       2.45        0.00     121.23       2.30       0.65       1.75       ----

> <Gold.Chemscore.Fitness>
19.5776

> <Gold.Chemscore.DG>
-21.9788

> <Gold.Chemscore.ZeroCoef>
-5.4800

> <Gold.Chemscore.Hbond>
2.4532

> <Gold.Chemscore.Metal>
0.0000

> <Gold.Chemscore.Lipo>
121.2253

> <Gold.Chemscore.Internal_Hbond>
0.0000

> <Gold.Chemscore.DEClash>
0.6549

> <Gold.Chemscore.DEInternal>
1.7463

> <Gold.Chemscore.Rot>
2.2962

> <Gold.Chemscore.Internal.Correction>
   9.000000E+99

> <Gold.Chemscore.Hbonds>
donor molecule, donor type, donor heavy atom, donor atom, acceptor molecule, acceptor atom, score
      L1  H     5    26       P1  7948  0.90
      P1  H  7997  8008       L1    12  0.50
      P1  H 10752 10764       L1     8  0.55

> <Gold.Chemscore.Hbond.Weighted>
-8.1938

> <Gold.Chemscore.Metal.Weighted>
-0.0000

> <Gold.Chemscore.Lipo.Weighted>
-14.1834

> <Gold.Chemscore.Internal_Hbond.Weighted>
0.0000

> <Gold.Chemscore.DEClash.Weighted>
0.6549

> <Gold.Chemscore.DEInternal.Weighted>
1.7463

> <Gold.Chemscore.Rot.Weighted>
5.8783

> <Gold.Chemscore.Internal.Correction.Weighted>
   9.000000E+99

> <Gold.Protein.RotatedTorsions>
[ 6907 6896 6895 6894 ] final -143.89 input  -60.11 | X-H torsion
[ 7974 7965 7964 7962 ] final   97.32 input  175.53 | X-H torsion
[ 8008 7997 7996 7995 ] final  -84.66 input   59.86 | X-H torsion
[ 10167 10162 10161 10158 ] final  100.78 input  -65.29 | X-H torsion
[ 10718 10713 10712 10709 ] final -123.53 input   66.30 | X-H torsion
[ 10763 10752 10751 10750 ] final  -41.85 input  -60.55 | X-H torsion
[ 11005 11000 10999 10996 ] final -138.35 input  -57.11 | X-H torsion

> <Gold.Protein.ActiveResidues>
 VAL166  LYS551  ARG553  GLY616  TRP617  ASP618  TYR619  PRO620  LYS621  CYS622 
 ASP623  PHE694  ASN695  SER759  ASP760  ASP761  ALA762  ILE779  LEU786  VAL792 
 PHE793  MET794  SER795  GLU796  ALA797  LYS798  CYS799  TRP800  GLU811  SER814 

> <Gold.Protein.RotatedAtoms>
  151.1066  133.5203  159.2607 H   0  0  0  0  0  0  0  0  0  0  0  0  # atno 6907 bound_to 6896
  151.2014  135.0443  159.8883 H   0  0  0  0  0  0  0  0  0  0  0  0  # atno 6908 bound_to 6896
  152.5447  134.0894  159.8324 H   0  0  0  0  0  0  0  0  0  0  0  0  # atno 6909 bound_to 6896
  145.4270  139.2315  143.3165 H   0  0  0  0  0  0  0  0  0  0  0  0  # atno 7974 bound_to 7965
  154.6322  140.0602  156.9746 H   0  0  0  0  0  0  0  0  0  0  0  0  # atno 8008 bound_to 7997
  155.1647  140.3285  155.4386 H   0  0  0  0  0  0  0  0  0  0  0  0  # atno 8009 bound_to 7997
  156.2489  140.1924  156.6752 H   0  0  0  0  0  0  0  0  0  0  0  0  # atno 8010 bound_to 7997
  139.7497  144.6987  151.0451 H   0  0  0  0  0  0  0  0  0  0  0  0  # atno 10167 bound_to 10162
  156.1510  130.6534  150.9913 H   0  0  0  0  0  0  0  0  0  0  0  0  # atno 10718 bound_to 10713
  153.9693  135.6730  153.4746 H   0  0  0  0  0  0  0  0  0  0  0  0  # atno 10763 bound_to 10752
  153.0800  135.4928  154.8480 H   0  0  0  0  0  0  0  0  0  0  0  0  # atno 10764 bound_to 10752
  154.7228  135.3121  154.8980 H   0  0  0  0  0  0  0  0  0  0  0  0  # atno 10765 bound_to 10752
  140.8624  134.2152  157.4699 H   0  0  0  0  0  0  0  0  0  0  0  0  # atno 11005 bound_to 11000
  146.2627  140.5002  142.8847 LP  0  0  0  0  0  0  0  0  0  0  0  0  # atno 17320 bound_to 7965
  144.8207  140.6545  143.6354 LP  0  0  0  0  0  0  0  0  0  0  0  0  # atno 17321 bound_to 7965
  140.7796  143.4824  151.0000 LP  0  0  0  0  0  0  0  0  0  0  0  0  # atno 17342 bound_to 10162
  139.8512  143.7436  152.3178 LP  0  0  0  0  0  0  0  0  0  0  0  0  # atno 17343 bound_to 10162
  157.6656  131.0872  150.7735 LP  0  0  0  0  0  0  0  0  0  0  0  0  # atno 17370 bound_to 10713
  156.7803  130.4857  149.5402 LP  0  0  0  0  0  0  0  0  0  0  0  0  # atno 17371 bound_to 10713
  139.8707  134.9736  156.4814 LP  0  0  0  0  0  0  0  0  0  0  0  0  # atno 17394 bound_to 11000
  140.8667  133.8019  155.9322 LP  0  0  0  0  0  0  0  0  0  0  0  0  # atno 17395 bound_to 11000

$$$$
