AV-unprocessed.smi:2801|AV-procd|sdf|10802|dock8
  -GOLD-   2272015233D 1   1.00000     0.00000
 Structure written by MMmdl.
 31 31  0  0  0  0  0  0  0  0  2 V2000
  148.3572  141.3227  154.1034 C   0  0  0  0  0  0  0  0  0  0  0  0
  149.3801  141.5405  155.2205 C   0  0  0  0  0  0  0  0  0  0  0  0
  150.5701  140.8340  154.8906 O   0  0  0  0  0  0  0  0  0  0  0  0
  150.7355  139.5767  155.5434 C   0  0  1  0  0  0  0  0  0  0  0  0
  151.6957  138.7247  154.6918 C   0  0  0  0  0  0  0  0  0  0  0  0
  151.1569  137.3146  154.4197 C   0  0  0  0  0  0  0  0  0  0  0  0
  151.2877  139.7862  156.9633 C   0  0  0  0  0  0  0  0  0  0  0  0
  151.4586  138.8126  157.6969 O   0  0  0  0  0  0  0  0  0  0  0  0
  151.5772  141.0592  157.2896 N   0  0  0  0  0  0  0  0  0  0  0  0
  152.0949  141.5951  158.5029 C   0  0  0  0  0  0  0  0  0  0  0  0
  151.6587  142.8126  159.0801 C   0  0  0  0  0  0  0  0  0  0  0  0
  152.2620  143.2490  160.2759 C   0  0  0  0  0  0  0  0  0  0  0  0
  153.2449  142.5732  160.9059 N   0  0  0  0  0  0  0  0  0  0  0  0
  153.6680  141.4192  160.3490 C   0  0  0  0  0  0  0  0  0  0  0  0
  153.1339  140.8897  159.1558 C   0  0  0  0  0  0  0  0  0  0  0  0
  153.6250  139.7142  158.6573 O   0  5  0  0  0  0  0  0  0  0  0  0
  147.4280  141.8507  154.3181 H   0  0  0  0  0  0  0  0  0  0  0  0
  148.1227  140.2644  153.9883 H   0  0  0  0  0  0  0  0  0  0  0  0
  148.7373  141.6880  153.1492 H   0  0  0  0  0  0  0  0  0  0  0  0
  149.5729  142.6077  155.3345 H   0  0  0  0  0  0  0  0  0  0  0  0
  148.9777  141.1750  156.1663 H   0  0  0  0  0  0  0  0  0  0  0  0
  149.7727  139.0639  155.5980 H   0  0  0  0  0  0  0  0  0  0  0  0
  151.8954  139.2232  153.7419 H   0  0  0  0  0  0  0  0  0  0  0  0
  152.6575  138.6364  155.1993 H   0  0  0  0  0  0  0  0  0  0  0  0
  151.8651  136.7365  153.8262 H   0  0  0  0  0  0  0  0  0  0  0  0
  150.2154  137.3498  153.8709 H   0  0  0  0  0  0  0  0  0  0  0  0
  150.9830  136.7734  155.3502 H   0  0  0  0  0  0  0  0  0  0  0  0
  151.4544  141.7407  156.5543 H   0  0  0  0  0  0  0  0  0  0  0  0
  150.8918  143.4243  158.6333 H   0  0  0  0  0  0  0  0  0  0  0  0
  151.9488  144.1739  160.7369 H   0  0  0  0  0  0  0  0  0  0  0  0
  154.4602  140.9040  160.8723 H   0  0  0  0  0  0  0  0  0  0  0  0
  1  2  1  0  0  0  0
  1 17  1  0  0  0  0
  1 18  1  0  0  0  0
  1 19  1  0  0  0  0
  2  3  1  0  0  0  0
  2 20  1  0  0  0  0
  2 21  1  0  0  0  0
  3  4  1  0  0  0  0
  4  5  1  0  0  0  0
  4  7  1  0  0  0  0
  4 22  1  0  0  0  0
  5  6  1  0  0  0  0
  5 23  1  0  0  0  0
  5 24  1  0  0  0  0
  6 25  1  0  0  0  0
  6 26  1  0  0  0  0
  6 27  1  0  0  0  0
  7  8  2  0  0  0  0
  7  9  1  0  0  0  0
  9 28  1  0  0  0  0
  9 10  1  0  0  0  0
 10 11  2  0  0  0  0
 10 15  1  0  0  0  0
 11 12  1  0  0  0  0
 11 29  1  0  0  0  0
 12 13  2  0  0  0  0
 12 30  1  0  0  0  0
 13 14  1  0  0  0  0
 14 15  2  0  0  0  0
 14 31  1  0  0  0  0
 15 16  1  0  0  0  0
M  CHG  1  16  -1
M  END
> <s_m_source_file>
AV-unprocessed.smi

> <i_m_source_file_index>
2801

> <i_lp_mmshare_version>
43012

> <i_f3d_flags>
0

> <s_epik_input>
W0NIM11bQ0gyXU9bQ0BIXShbQ0gyXVtDSDNdKUMoPU8pW05IXWMxW2NIXVtjSF1uW2NIXWMxW09IXQ==

> <s_epik_cmdline>
J2VwaWtfcHl0aG9uJywgJy1waCcsICc3LjAnLCAnLXRuJywgJzgnLCAnLW1hJywgJzIwMCcsICctbWV0YWxfYmluZGluZycsICctaW1hZScsICc8aW5maWxlLm1hZT4nLCAnLW9tYWUnLCAnPG91dGZpbGUubWFlPic=

> <r_lp_tautomer_probability>
0.56342

> <r_epik_Ionization_Penalty>
4.38321

> <r_epik_Ionization_Penalty_Charging>
2.0641

> <r_epik_Ionization_Penalty_Neutral>
2.31912

> <r_epik_State_Penalty>
2.63873

> <r_epik_Charging_Adjusted_Penalty>
4.70283

> <i_epik_Tot_Q>
-1

> <i_epik_Tot_abs_Q>
1

> <r_epik_Metal_State_Penalty>
0.606608

> <b_epik_Metal_Only>
1

> <s_lp_Force_Field>
OPLS_2005

> <r_lp_Energy>
9.76409

> <b_lp_Chiralities_Consistent>
1

> <s_lp_Variant>
AV-unprocessed.smi:2801-6

> <Gold.Version>
5.8.1

> <Gold.Id.Protein>
6NUR|6NUR_protein|mol2

> <Gold.PLP.Fitness>
36.7734

> <Gold.PLP.PLP>
-31.2629

> <Gold.PLP.part.hbond>
-2.0000

> <Gold.PLP.part.metal>
0.0000

> <Gold.PLP.part.buried>
-3.6351

> <Gold.PLP.part.nonpolar>
-26.7082

> <Gold.PLP.part.repulsive>
0.1902

> <Gold.PLP.ligand.clash>
0.0000

> <Gold.PLP.ligand.torsion>
1.5342

> <Gold.PLP.Chemscore.Hbond>
2.8480

> <Gold.PLP.Chemscore.CHOScore>
0.0000

> <Gold.PLP.Chemscore.Metal>
0.0000

> <Gold.Chemscore.Hbonds>
donor molecule, donor type, donor heavy atom, donor atom, acceptor molecule, acceptor atom, score
      P1  H  7989  7998       L1     3  0.82
      P1  H  7997  8008       L1    16  2.00

> <Gold.PLP.Chemscore.Internal.Correction>
0.0348

> <Gold.Rescore>
     Score         DG    S(hbond)    S(metal)    S(lipo)     H(rot)  DE(clash)    DE(int)     intcor
     12.01     -17.48       1.82        0.00      84.32       1.55       0.01       5.46       ----

> <Gold.Chemscore.Fitness>
12.0112

> <Gold.Chemscore.DG>
-17.4771

> <Gold.Chemscore.ZeroCoef>
-5.4800

> <Gold.Chemscore.Hbond>
1.8234

> <Gold.Chemscore.Metal>
0.0000

> <Gold.Chemscore.Lipo>
84.3179

> <Gold.Chemscore.Internal_Hbond>
0.0000

> <Gold.Chemscore.DEClash>
0.0081

> <Gold.Chemscore.DEInternal>
5.4578

> <Gold.Chemscore.Rot>
1.5462

> <Gold.Chemscore.Internal.Correction>
   9.000000E+99

> <Gold.Chemscore.Hbonds>
donor molecule, donor type, donor heavy atom, donor atom, acceptor molecule, acceptor atom, score
      P1  H  7989  7998       L1     3  0.57
      P1  H  7997  8008       L1    16  0.77

> <Gold.Chemscore.Hbond.Weighted>
-6.0903

> <Gold.Chemscore.Metal.Weighted>
-0.0000

> <Gold.Chemscore.Lipo.Weighted>
-9.8652

> <Gold.Chemscore.Internal_Hbond.Weighted>
0.0000

> <Gold.Chemscore.DEClash.Weighted>
0.0081

> <Gold.Chemscore.DEInternal.Weighted>
5.4578

> <Gold.Chemscore.Rot.Weighted>
3.9583

> <Gold.Chemscore.Internal.Correction.Weighted>
   9.000000E+99

> <Gold.Protein.RotatedTorsions>
[ 6907 6896 6895 6894 ] final  -39.84 input  -60.11 | X-H torsion
[ 7974 7965 7964 7962 ] final   80.91 input  175.53 | X-H torsion
[ 8008 7997 7996 7995 ] final -109.27 input   59.86 | X-H torsion
[ 10167 10162 10161 10158 ] final -179.14 input  -65.29 | X-H torsion
[ 10718 10713 10712 10709 ] final   26.64 input   66.30 | X-H torsion
[ 10763 10752 10751 10750 ] final   95.10 input  -60.55 | X-H torsion
[ 11005 11000 10999 10996 ] final  -23.85 input  -57.11 | X-H torsion

> <Gold.Protein.ActiveResidues>
 VAL166  LYS551  ARG553  GLY616  TRP617  ASP618  TYR619  PRO620  LYS621  CYS622 
 ASP623  PHE694  ASN695  SER759  ASP760  ASP761  ALA762  ILE779  LEU786  VAL792 
 PHE793  MET794  SER795  GLU796  ALA797  LYS798  CYS799  TRP800  GLU811  SER814 

> <Gold.Protein.RotatedAtoms>
  150.9855  134.9201  159.7869 H   0  0  0  0  0  0  0  0  0  0  0  0  # atno 6907 bound_to 6896
  152.5235  134.3352  159.9207 H   0  0  0  0  0  0  0  0  0  0  0  0  # atno 6908 bound_to 6896
  151.3359  133.3941  159.2701 H   0  0  0  0  0  0  0  0  0  0  0  0  # atno 6909 bound_to 6896
  145.6450  139.2434  143.2009 H   0  0  0  0  0  0  0  0  0  0  0  0  # atno 7974 bound_to 7965
  154.9568  140.0400  157.2171 H   0  0  0  0  0  0  0  0  0  0  0  0  # atno 8008 bound_to 7997
  154.7926  140.2838  155.5958 H   0  0  0  0  0  0  0  0  0  0  0  0  # atno 8009 bound_to 7997
  156.2951  140.2570  156.2777 H   0  0  0  0  0  0  0  0  0  0  0  0  # atno 8010 bound_to 7997
  139.5399  144.2391  152.0874 H   0  0  0  0  0  0  0  0  0  0  0  0  # atno 10167 bound_to 10162
  157.2095  130.6927  149.6222 H   0  0  0  0  0  0  0  0  0  0  0  0  # atno 10718 bound_to 10713
  153.2493  135.4266  155.0780 H   0  0  0  0  0  0  0  0  0  0  0  0  # atno 10763 bound_to 10752
  154.8375  135.3422  154.6536 H   0  0  0  0  0  0  0  0  0  0  0  0  # atno 10764 bound_to 10752
  153.6958  135.7031  153.5134 H   0  0  0  0  0  0  0  0  0  0  0  0  # atno 10765 bound_to 10752
  140.8790  133.7667  156.0279 H   0  0  0  0  0  0  0  0  0  0  0  0  # atno 11005 bound_to 11000
  146.1250  140.7260  142.9439 LP  0  0  0  0  0  0  0  0  0  0  0  0  # atno 17320 bound_to 7965
  144.7143  140.4154  143.7056 LP  0  0  0  0  0  0  0  0  0  0  0  0  # atno 17321 bound_to 7965
  140.1868  144.4791  150.6500 LP  0  0  0  0  0  0  0  0  0  0  0  0  # atno 17342 bound_to 10162
  140.6625  143.2256  151.5822 LP  0  0  0  0  0  0  0  0  0  0  0  0  # atno 17343 bound_to 10162
  155.9692  130.4556  150.5893 LP  0  0  0  0  0  0  0  0  0  0  0  0  # atno 17370 bound_to 10713
  157.3686  131.0762  151.1576 LP  0  0  0  0  0  0  0  0  0  0  0  0  # atno 17371 bound_to 10713
  140.8483  134.2984  157.5286 LP  0  0  0  0  0  0  0  0  0  0  0  0  # atno 17394 bound_to 11000
  139.8718  134.9454  156.3908 LP  0  0  0  0  0  0  0  0  0  0  0  0  # atno 17395 bound_to 11000

$$$$
