AV-unprocessed.smi:291|AV-procd|sdf|2248|dock9
  -GOLD-   2262022133D 1   1.00000     0.00000
 Structure written by MMmdl.
 35 36  0  0  0  0  0  0  0  0  1 V2000
  152.6507  143.0931  163.0232 C   0  0  0  0  0  0  0  0  0  0  0  0
  153.0028  143.1023  161.5289 C   0  0  2  0  0  0  0  0  0  0  0  0
  151.9283  143.8346  160.7026 C   0  0  0  0  0  0  0  0  0  0  0  0
  152.2726  143.8414  159.2023 C   0  0  0  0  0  0  0  0  0  0  0  0
  152.5091  142.4226  158.6514 C   0  0  2  0  0  0  0  0  0  0  0  0
  151.2491  141.6844  158.6130 N   0  0  0  0  0  0  0  0  0  0  0  0
  150.9779  140.6295  157.8283 C   0  0  0  0  0  0  0  0  0  0  0  0
  151.7854  140.1473  157.0348 O   0  0  0  0  0  0  0  0  0  0  0  0
  149.5837  140.0138  157.9687 C   0  0  0  0  0  0  0  0  0  0  0  0
  149.6492  138.6475  158.4580 N   0  0  0  0  0  0  0  0  0  0  0  0
  150.6835  137.8041  158.5437 C   0  0  0  0  0  0  0  0  0  0  0  0
  150.3684  136.6126  159.0369 N   0  0  0  0  0  0  0  0  0  0  0  0
  149.0349  136.8153  159.2448 C   0  0  0  0  0  0  0  0  0  0  0  0
  148.1847  135.7723  159.7928 C   0  0  0  0  0  0  0  0  0  0  0  0
  147.5073  134.9416  160.2290 N   0  0  0  0  0  0  0  0  0  0  0  0
  148.5453  138.0099  158.9197 N   0  0  0  0  0  0  0  0  0  0  0  0
  153.5642  141.6757  159.4926 C   0  0  0  0  0  0  0  0  0  0  0  0
  153.2162  141.6737  160.9920 C   0  0  0  0  0  0  0  0  0  0  0  0
  151.7205  142.5553  163.2083 H   0  0  0  0  0  0  0  0  0  0  0  0
  152.5307  144.1075  163.4047 H   0  0  0  0  0  0  0  0  0  0  0  0
  153.4354  142.6124  163.6081 H   0  0  0  0  0  0  0  0  0  0  0  0
  153.9412  143.6472  161.4162 H   0  0  0  0  0  0  0  0  0  0  0  0
  150.9574  143.3610  160.8555 H   0  0  0  0  0  0  0  0  0  0  0  0
  151.8249  144.8615  161.0546 H   0  0  0  0  0  0  0  0  0  0  0  0
  151.4804  144.3372  158.6396 H   0  0  0  0  0  0  0  0  0  0  0  0
  153.1723  144.4382  159.0473 H   0  0  0  0  0  0  0  0  0  0  0  0
  152.8839  142.5209  157.6310 H   0  0  0  0  0  0  0  0  0  0  0  0
  150.5208  142.0046  159.2353 H   0  0  0  0  0  0  0  0  0  0  0  0
  148.9816  140.6028  158.6618 H   0  0  0  0  0  0  0  0  0  0  0  0
  149.0752  140.0321  157.0034 H   0  0  0  0  0  0  0  0  0  0  0  0
  151.6847  138.0661  158.2343 H   0  0  0  0  0  0  0  0  0  0  0  0
  153.6808  140.6520  159.1348 H   0  0  0  0  0  0  0  0  0  0  0  0
  154.5341  142.1548  159.3540 H   0  0  0  0  0  0  0  0  0  0  0  0
  154.0146  141.1823  161.5491 H   0  0  0  0  0  0  0  0  0  0  0  0
  152.3171  141.0788  161.1584 H   0  0  0  0  0  0  0  0  0  0  0  0
  1  2  1  0  0  0  0
  1 19  1  0  0  0  0
  1 20  1  0  0  0  0
  1 21  1  0  0  0  0
  2 18  1  0  0  0  0
  2  3  1  0  0  0  0
  2 22  1  0  0  0  0
  3  4  1  0  0  0  0
  3 23  1  0  0  0  0
  3 24  1  0  0  0  0
  4  5  1  0  0  0  0
  4 25  1  0  0  0  0
  4 26  1  0  0  0  0
  5  6  1  0  0  0  0
  5 17  1  0  0  0  0
  5 27  1  0  0  0  0
  6  7  1  0  0  0  0
  6 28  1  0  0  0  0
  7  8  2  0  0  0  0
  7  9  1  0  0  0  0
  9 10  1  0  0  0  0
  9 29  1  0  0  0  0
  9 30  1  0  0  0  0
 10 16  1  0  0  0  0
 10 11  1  0  0  0  0
 11 12  2  0  0  0  0
 11 31  1  0  0  0  0
 12 13  1  0  0  0  0
 13 14  1  0  0  0  0
 13 16  2  0  0  0  0
 14 15  3  0  0  0  0
 17 18  1  0  0  0  0
 17 32  1  0  0  0  0
 17 33  1  0  0  0  0
 18 34  1  0  0  0  0
 18 35  1  0  0  0  0
M  END
> <s_m_source_file>
AV-unprocessed.smi

> <i_m_source_file_index>
291

> <i_lp_mmshare_version>
43012

> <i_f3d_flags>
0

> <s_epik_input>
W0NIM11bQ0BASF0xW0NIMl1bQ0gyXVtDQEhdKFtDSDJdW0NIMl0xKVtOSF1DKD1PKVtDSDJdbjJbY0hdbmMobjIpQyNO

> <s_epik_cmdline>
J2VwaWtfcHl0aG9uJywgJy1waCcsICc3LjAnLCAnLXRuJywgJzgnLCAnLW1hJywgJzIwMCcsICctbWV0YWxfYmluZGluZycsICctaW1hZScsICc8aW5maWxlLm1hZT4nLCAnLW9tYWUnLCAnPG91dGZpbGUubWFlPic=

> <r_lp_tautomer_probability>
1

> <r_epik_Ionization_Penalty>
5.31112e-08

> <r_epik_Ionization_Penalty_Charging>
0

> <r_epik_Ionization_Penalty_Neutral>
5.31112e-08

> <r_epik_State_Penalty>
-0

> <r_epik_Charging_Adjusted_Penalty>
0

> <i_epik_Tot_Q>
0

> <i_epik_Tot_abs_Q>
0

> <r_epik_Metal_State_Penalty>
-0

> <b_epik_Metal_Only>
0

> <s_lp_Force_Field>
OPLS_2005

> <r_lp_Energy>
11.449

> <b_lp_Chiralities_Consistent>
1

> <s_lp_Variant>
AV-unprocessed.smi:291-2

> <Gold.Version>
5.8.1

> <Gold.Id.Protein>
6NUR|6NUR_protein|mol2

> <Gold.PLP.Fitness>
36.5169

> <Gold.PLP.PLP>
-34.4861

> <Gold.PLP.part.hbond>
-2.3320

> <Gold.PLP.part.metal>
0.0000

> <Gold.PLP.part.buried>
-3.7286

> <Gold.PLP.part.nonpolar>
-28.7335

> <Gold.PLP.part.repulsive>
0.1188

> <Gold.PLP.ligand.clash>
0.0000

> <Gold.PLP.ligand.torsion>
0.4877

> <Gold.PLP.Chemscore.Hbond>
1.0000

> <Gold.PLP.Chemscore.CHOScore>
0.0000

> <Gold.PLP.Chemscore.Metal>
0.0000

> <Gold.Chemscore.Hbonds>
donor molecule, donor type, donor heavy atom, donor atom, acceptor molecule, acceptor atom, score
      P1  H  6896  6909       L1    12  1.00

> <Gold.PLP.Chemscore.Internal.Correction>
0.0062

> <Gold.Rescore>
     Score         DG    S(hbond)    S(metal)    S(lipo)     H(rot)  DE(clash)    DE(int)     intcor
     13.91     -17.02       1.96        0.00      85.18       1.95       1.86       1.25       ----

> <Gold.Chemscore.Fitness>
13.9128

> <Gold.Chemscore.DG>
-17.0195

> <Gold.Chemscore.ZeroCoef>
-5.4800

> <Gold.Chemscore.Hbond>
1.9638

> <Gold.Chemscore.Metal>
0.0000

> <Gold.Chemscore.Lipo>
85.1751

> <Gold.Chemscore.Internal_Hbond>
0.0000

> <Gold.Chemscore.DEClash>
1.8573

> <Gold.Chemscore.DEInternal>
1.2494

> <Gold.Chemscore.Rot>
1.9474

> <Gold.Chemscore.Internal.Correction>
   9.000000E+99

> <Gold.Chemscore.Hbonds>
donor molecule, donor type, donor heavy atom, donor atom, acceptor molecule, acceptor atom, score
      P1  H  6896  6909       L1    12  0.68

> <Gold.Chemscore.Hbond.Weighted>
-6.5592

> <Gold.Chemscore.Metal.Weighted>
-0.0000

> <Gold.Chemscore.Lipo.Weighted>
-9.9655

> <Gold.Chemscore.Internal_Hbond.Weighted>
0.0000

> <Gold.Chemscore.DEClash.Weighted>
1.8573

> <Gold.Chemscore.DEInternal.Weighted>
1.2494

> <Gold.Chemscore.Rot.Weighted>
4.9852

> <Gold.Chemscore.Internal.Correction.Weighted>
   9.000000E+99

> <Gold.Protein.RotatedTorsions>
[ 6907 6896 6895 6894 ] final   70.15 input  -60.11 | X-H torsion
[ 7974 7965 7964 7962 ] final -143.90 input  175.53 | X-H torsion
[ 8008 7997 7996 7995 ] final   76.47 input   59.86 | X-H torsion
[ 10167 10162 10161 10158 ] final -166.25 input  -65.29 | X-H torsion
[ 10718 10713 10712 10709 ] final  -60.70 input   66.30 | X-H torsion
[ 10763 10752 10751 10750 ] final -159.56 input  -60.55 | X-H torsion
[ 11005 11000 10999 10996 ] final  -40.02 input  -57.11 | X-H torsion

> <Gold.Protein.ActiveResidues>
 VAL166  LYS551  ARG553  GLY616  TRP617  ASP618  TYR619  PRO620  LYS621  CYS622 
 ASP623  PHE694  ASN695  SER759  ASP760  ASP761  ALA762  ILE779  LEU786  VAL792 
 PHE793  MET794  SER795  GLU796  ALA797  LYS798  CYS799  TRP800  GLU811  SER814 

> <Gold.Protein.RotatedAtoms>
  152.4731  134.4911  159.9695 H   0  0  0  0  0  0  0  0  0  0  0  0  # atno 6907 bound_to 6896
  151.4933  133.3514  159.2865 H   0  0  0  0  0  0  0  0  0  0  0  0  # atno 6908 bound_to 6896
  150.8753  134.8162  159.7246 H   0  0  0  0  0  0  0  0  0  0  0  0  # atno 6909 bound_to 6896
  144.8336  140.5777  143.5499 H   0  0  0  0  0  0  0  0  0  0  0  0  # atno 7974 bound_to 7965
  155.8277  140.3467  155.5553 H   0  0  0  0  0  0  0  0  0  0  0  0  # atno 8008 bound_to 7997
  155.8275  140.0922  157.1832 H   0  0  0  0  0  0  0  0  0  0  0  0  # atno 8009 bound_to 7997
  154.4004  140.1418  156.3561 H   0  0  0  0  0  0  0  0  0  0  0  0  # atno 8010 bound_to 7997
  139.6127  144.0781  152.1858 H   0  0  0  0  0  0  0  0  0  0  0  0  # atno 10167 bound_to 10162
  156.0972  130.4191  150.0890 H   0  0  0  0  0  0  0  0  0  0  0  0  # atno 10718 bound_to 10713
  154.7464  135.3081  154.8636 H   0  0  0  0  0  0  0  0  0  0  0  0  # atno 10763 bound_to 10752
  153.9436  135.6772  153.4748 H   0  0  0  0  0  0  0  0  0  0  0  0  # atno 10764 bound_to 10752
  153.1061  135.4888  154.8880 H   0  0  0  0  0  0  0  0  0  0  0  0  # atno 10765 bound_to 10752
  141.0145  133.6892  156.2265 H   0  0  0  0  0  0  0  0  0  0  0  0  # atno 11005 bound_to 11000
  145.4843  139.1493  143.3744 LP  0  0  0  0  0  0  0  0  0  0  0  0  # atno 17320 bound_to 7965
  146.2637  140.4980  142.8843 LP  0  0  0  0  0  0  0  0  0  0  0  0  # atno 17321 bound_to 7965
  140.0404  144.6012  150.7416 LP  0  0  0  0  0  0  0  0  0  0  0  0  # atno 17342 bound_to 10162
  140.7330  143.2712  151.3882 LP  0  0  0  0  0  0  0  0  0  0  0  0  # atno 17343 bound_to 10162
  156.8886  130.9581  151.3591 LP  0  0  0  0  0  0  0  0  0  0  0  0  # atno 17370 bound_to 10713
  157.6136  130.8601  149.8991 LP  0  0  0  0  0  0  0  0  0  0  0  0  # atno 17371 bound_to 10713
  140.6679  134.4899  157.5586 LP  0  0  0  0  0  0  0  0  0  0  0  0  # atno 17394 bound_to 11000
  139.9109  134.8348  156.1534 LP  0  0  0  0  0  0  0  0  0  0  0  0  # atno 17395 bound_to 11000

$$$$
