AV-unprocessed.smi:1506|AV-procd|sdf|6077|dock7
  -GOLD-   22720 6203D 1   1.00000     0.00000
 Structure written by MMmdl.
 39 41  0  0  0  0  0  0  0  0  1 V2000
  145.3664  144.7139  152.4194 C   0  0  0  0  0  0  0  0  0  0  0  0
  145.3898  143.9378  153.7203 C   0  0  0  0  0  0  0  0  0  0  0  0
  144.6477  144.3855  154.8309 C   0  0  0  0  0  0  0  0  0  0  0  0
  144.6761  143.6567  156.0342 C   0  0  0  0  0  0  0  0  0  0  0  0
  145.4425  142.4793  156.1319 C   0  0  0  0  0  0  0  0  0  0  0  0
  146.1905  142.0165  155.0198 C   0  0  0  0  0  0  0  0  0  0  0  0
  146.9628  140.8747  155.0256 O   0  0  0  0  0  0  0  0  0  0  0  0
  148.0222  140.7742  154.0831 C   0  0  0  0  0  0  0  0  0  0  0  0
  149.3313  140.4836  154.8313 C   0  0  1  0  0  0  0  0  0  0  0  0
  150.3104  140.1039  153.8845 O   0  0  0  0  0  0  0  0  0  0  0  0
  149.8271  141.6986  155.6399 C   0  0  0  0  0  0  0  0  0  0  0  0
  150.8777  141.3510  156.5801 N   0  0  0  0  0  0  0  0  0  0  0  0
  151.5908  140.2089  156.6114 C   0  0  0  0  0  0  0  0  0  0  0  0
  152.5129  140.0920  157.5628 N   0  0  0  0  0  0  0  0  0  0  0  0
  152.3824  141.2987  158.2286 C   0  0  0  0  0  0  0  0  0  0  0  0
  153.0777  141.8091  159.3484 C   0  0  0  0  0  0  0  0  0  0  0  0
  152.7677  143.0862  159.8608 C   0  0  0  0  0  0  0  0  0  0  0  0
  151.7617  143.8721  159.2619 C   0  0  0  0  0  0  0  0  0  0  0  0
  151.0557  143.3853  158.1450 C   0  0  0  0  0  0  0  0  0  0  0  0
  151.3665  142.1098  157.6381 C   0  0  0  0  0  0  0  0  0  0  0  0
  146.1544  142.7576  153.8205 C   0  0  0  0  0  0  0  0  0  0  0  0
  144.9202  145.6998  152.5536 H   0  0  0  0  0  0  0  0  0  0  0  0
  144.7865  144.1742  151.6702 H   0  0  0  0  0  0  0  0  0  0  0  0
  146.3789  144.8496  152.0382 H   0  0  0  0  0  0  0  0  0  0  0  0
  144.0549  145.2863  154.7653 H   0  0  0  0  0  0  0  0  0  0  0  0
  144.1081  144.0008  156.8859 H   0  0  0  0  0  0  0  0  0  0  0  0
  145.4386  141.9491  157.0718 H   0  0  0  0  0  0  0  0  0  0  0  0
  147.8082  139.9617  153.3863 H   0  0  0  0  0  0  0  0  0  0  0  0
  148.1194  141.6966  153.5080 H   0  0  0  0  0  0  0  0  0  0  0  0
  149.1781  139.6364  155.5011 H   0  0  0  0  0  0  0  0  0  0  0  0
  149.8890  139.9983  153.0450 H   0  0  0  0  0  0  0  0  0  0  0  0
  150.1995  142.4769  154.9724 H   0  0  0  0  0  0  0  0  0  0  0  0
  149.0025  142.1407  156.2003 H   0  0  0  0  0  0  0  0  0  0  0  0
  151.4239  139.4193  155.8934 H   0  0  0  0  0  0  0  0  0  0  0  0
  153.8511  141.2169  159.8143 H   0  0  0  0  0  0  0  0  0  0  0  0
  153.3049  143.4654  160.7178 H   0  0  0  0  0  0  0  0  0  0  0  0
  151.5323  144.8494  159.6611 H   0  0  0  0  0  0  0  0  0  0  0  0
  150.2856  143.9848  157.6827 H   0  0  0  0  0  0  0  0  0  0  0  0
  146.7206  142.4140  152.9670 H   0  0  0  0  0  0  0  0  0  0  0  0
  1  2  1  0  0  0  0
  1 22  1  0  0  0  0
  1 23  1  0  0  0  0
  1 24  1  0  0  0  0
  2 21  1  0  0  0  0
  2  3  2  0  0  0  0
  3  4  1  0  0  0  0
  3 25  1  0  0  0  0
  4  5  2  0  0  0  0
  4 26  1  0  0  0  0
  5  6  1  0  0  0  0
  5 27  1  0  0  0  0
  6  7  1  0  0  0  0
  6 21  2  0  0  0  0
  7  8  1  0  0  0  0
  8  9  1  0  0  0  0
  8 28  1  0  0  0  0
  8 29  1  0  0  0  0
  9 10  1  0  0  0  0
  9 11  1  0  0  0  0
  9 30  1  0  0  0  0
 10 31  1  0  0  0  0
 11 12  1  0  0  0  0
 11 32  1  0  0  0  0
 11 33  1  0  0  0  0
 12 20  1  0  0  0  0
 12 13  1  0  0  0  0
 13 14  2  0  0  0  0
 13 34  1  0  0  0  0
 14 15  1  0  0  0  0
 15 20  2  0  0  0  0
 15 16  1  0  0  0  0
 16 17  2  0  0  0  0
 16 35  1  0  0  0  0
 17 18  1  0  0  0  0
 17 36  1  0  0  0  0
 18 19  2  0  0  0  0
 18 37  1  0  0  0  0
 19 20  1  0  0  0  0
 19 38  1  0  0  0  0
 21 39  1  0  0  0  0
M  END
> <s_m_source_file>
AV-unprocessed.smi

> <i_m_source_file_index>
1506

> <i_lp_mmshare_version>
43012

> <i_f3d_flags>
0

> <s_epik_input>
W0NIM11jMVtjSF1bY0hdW2NIXWMoW2NIXTEpT1tDSDJdW0NASF0oW09IXSlbQ0gyXW4oW2NIXW4yKWMoYzIzKVtjSF1bY0hdW2NIXVtjSF0z

> <s_epik_cmdline>
J2VwaWtfcHl0aG9uJywgJy1waCcsICc3LjAnLCAnLXRuJywgJzgnLCAnLW1hJywgJzIwMCcsICctbWV0YWxfYmluZGluZycsICctaW1hZScsICc8aW5maWxlLm1hZT4nLCAnLW9tYWUnLCAnPG91dGZpbGUubWFlPic=

> <r_lp_tautomer_probability>
1

> <r_epik_Ionization_Penalty>
0.0608485

> <r_epik_Ionization_Penalty_Charging>
0

> <r_epik_Ionization_Penalty_Neutral>
0.0608485

> <r_epik_State_Penalty>
0.0527778

> <r_epik_Charging_Adjusted_Penalty>
0.0527778

> <i_epik_Tot_Q>
0

> <i_epik_Tot_abs_Q>
0

> <r_epik_Metal_State_Penalty>
5.51973e-05

> <b_epik_Metal_Only>
0

> <s_lp_Force_Field>
OPLS_2005

> <r_lp_Energy>
14.3046

> <b_lp_Chiralities_Consistent>
1

> <s_lp_Variant>
AV-unprocessed.smi:1506-2

> <Gold.Version>
5.8.1

> <Gold.Id.Protein>
6NUR|6NUR_protein|mol2

> <Gold.PLP.Fitness>
54.6023

> <Gold.PLP.PLP>
-48.2373

> <Gold.PLP.part.hbond>
-2.6775

> <Gold.PLP.part.metal>
0.0000

> <Gold.PLP.part.buried>
-5.1346

> <Gold.PLP.part.nonpolar>
-39.8765

> <Gold.PLP.part.repulsive>
0.0840

> <Gold.PLP.ligand.clash>
0.4686

> <Gold.PLP.ligand.torsion>
1.0099

> <Gold.PLP.Chemscore.Hbond>
2.9120

> <Gold.PLP.Chemscore.CHOScore>
0.0000

> <Gold.PLP.Chemscore.Metal>
0.0000

> <Gold.Chemscore.Hbonds>
donor molecule, donor type, donor heavy atom, donor atom, acceptor molecule, acceptor atom, score
      L1  H    10    31       P1  7957  1.00
      P1  H  7989  7998       L1    10  0.93
      P1  H  7997  8009       L1    14  0.93

> <Gold.PLP.Chemscore.Internal.Correction>
0.1173

> <Gold.Rescore>
     Score         DG    S(hbond)    S(metal)    S(lipo)     H(rot)  DE(clash)    DE(int)     intcor
     18.70     -21.16       2.28        0.00     116.70       2.19       0.38       2.07       ----

> <Gold.Chemscore.Fitness>
18.6973

> <Gold.Chemscore.DG>
-21.1564

> <Gold.Chemscore.ZeroCoef>
-5.4800

> <Gold.Chemscore.Hbond>
2.2824

> <Gold.Chemscore.Metal>
0.0000

> <Gold.Chemscore.Lipo>
116.6983

> <Gold.Chemscore.Internal_Hbond>
0.0000

> <Gold.Chemscore.DEClash>
0.3846

> <Gold.Chemscore.DEInternal>
2.0745

> <Gold.Chemscore.Rot>
2.1877

> <Gold.Chemscore.Internal.Correction>
   9.000000E+99

> <Gold.Chemscore.Hbonds>
donor molecule, donor type, donor heavy atom, donor atom, acceptor molecule, acceptor atom, score
      L1  H    10    31       P1  7957  0.99
      P1  H  7989  7998       L1    10  0.26
      P1  H  7997  8009       L1    14  0.35

> <Gold.Chemscore.Hbond.Weighted>
-7.6232

> <Gold.Chemscore.Metal.Weighted>
-0.0000

> <Gold.Chemscore.Lipo.Weighted>
-13.6537

> <Gold.Chemscore.Internal_Hbond.Weighted>
0.0000

> <Gold.Chemscore.DEClash.Weighted>
0.3846

> <Gold.Chemscore.DEInternal.Weighted>
2.0745

> <Gold.Chemscore.Rot.Weighted>
5.6005

> <Gold.Chemscore.Internal.Correction.Weighted>
   9.000000E+99

> <Gold.Protein.RotatedTorsions>
[ 6907 6896 6895 6894 ] final  167.01 input  -60.11 | X-H torsion
[ 7974 7965 7964 7962 ] final   -4.26 input  175.53 | X-H torsion
[ 8008 7997 7996 7995 ] final  174.49 input   59.86 | X-H torsion
[ 10167 10162 10161 10158 ] final   12.07 input  -65.29 | X-H torsion
[ 10718 10713 10712 10709 ] final  153.20 input   66.30 | X-H torsion
[ 10763 10752 10751 10750 ] final   45.51 input  -60.55 | X-H torsion
[ 11005 11000 10999 10996 ] final  -85.05 input  -57.11 | X-H torsion

> <Gold.Protein.ActiveResidues>
 VAL166  LYS551  ARG553  GLY616  TRP617  ASP618  TYR619  PRO620  LYS621  CYS622 
 ASP623  PHE694  ASN695  SER759  ASP760  ASP761  ALA762  ILE779  LEU786  VAL792 
 PHE793  MET794  SER795  GLU796  ALA797  LYS798  CYS799  TRP800  GLU811  SER814 

> <Gold.Protein.RotatedAtoms>
  151.8699  133.3473  159.3731 H   0  0  0  0  0  0  0  0  0  0  0  0  # atno 6907 bound_to 6896
  150.7155  134.5123  159.5622 H   0  0  0  0  0  0  0  0  0  0  0  0  # atno 6908 bound_to 6896
  152.2653  134.7991  160.0474 H   0  0  0  0  0  0  0  0  0  0  0  0  # atno 6909 bound_to 6896
  146.2375  140.1844  142.8332 H   0  0  0  0  0  0  0  0  0  0  0  0  # atno 7974 bound_to 7965
  156.0969  140.1433  156.9519 H   0  0  0  0  0  0  0  0  0  0  0  0  # atno 8008 bound_to 7997
  154.4677  140.0920  156.7109 H   0  0  0  0  0  0  0  0  0  0  0  0  # atno 8009 bound_to 7997
  155.4826  140.3445  155.4344 H   0  0  0  0  0  0  0  0  0  0  0  0  # atno 8010 bound_to 7997
  140.6092  143.8444  150.7046 H   0  0  0  0  0  0  0  0  0  0  0  0  # atno 10167 bound_to 10162
  157.2478  131.0772  151.1750 H   0  0  0  0  0  0  0  0  0  0  0  0  # atno 10718 bound_to 10713
  152.9823  135.6037  154.3449 H   0  0  0  0  0  0  0  0  0  0  0  0  # atno 10763 bound_to 10752
  154.3143  135.2770  155.2553 H   0  0  0  0  0  0  0  0  0  0  0  0  # atno 10764 bound_to 10752
  154.4748  135.5932  153.6403 H   0  0  0  0  0  0  0  0  0  0  0  0  # atno 10765 bound_to 10752
  141.1645  133.7378  156.8957 H   0  0  0  0  0  0  0  0  0  0  0  0  # atno 11005 bound_to 11000
  144.9908  140.8545  143.5340 LP  0  0  0  0  0  0  0  0  0  0  0  0  # atno 17320 bound_to 7965
  145.1850  139.2331  143.5273 LP  0  0  0  0  0  0  0  0  0  0  0  0  # atno 17321 bound_to 7965
  140.2009  143.3960  152.1792 LP  0  0  0  0  0  0  0  0  0  0  0  0  # atno 17342 bound_to 10162
  139.5348  144.7198  151.4932 LP  0  0  0  0  0  0  0  0  0  0  0  0  # atno 17343 bound_to 10162
  157.3310  130.6985  149.6324 LP  0  0  0  0  0  0  0  0  0  0  0  0  # atno 17370 bound_to 10713
  155.9667  130.4307  150.4890 LP  0  0  0  0  0  0  0  0  0  0  0  0  # atno 17371 bound_to 10713
  140.1617  134.9161  157.2723 LP  0  0  0  0  0  0  0  0  0  0  0  0  # atno 17394 bound_to 11000
  140.2603  134.3579  155.7409 LP  0  0  0  0  0  0  0  0  0  0  0  0  # atno 17395 bound_to 11000

$$$$
