AV-unprocessed.smi:14|AV-procd|sdf|77|dock4
  -GOLD-   2262015203D 1   1.00000     0.00000
 Structure written by MMmdl.
 57 60  0  0  0  0  0  0  0  0  1 V2000
  146.9448  131.4177  161.2632 N   0  0  0  0  0  0  0  0  0  0  0  0
  147.7302  131.7555  160.4837 C   0  0  0  0  0  0  0  0  0  0  0  0
  148.7284  132.1847  159.4923 C   0  0  0  0  0  0  0  0  0  0  0  0
  148.3385  133.4575  158.7202 C   0  0  0  0  0  0  0  0  0  0  0  0
  148.0746  134.6101  159.5808 N   0  0  0  0  0  0  0  0  0  0  0  0
  146.8332  134.6177  160.3583 C   0  0  0  0  0  0  0  0  0  0  0  0
  147.0444  134.9783  161.8463 C   0  0  2  0  0  0  0  0  0  0  0  0
  145.7526  135.3035  162.5769 C   0  0  0  0  0  0  0  0  0  0  0  0
  145.5234  136.7761  162.2413 C   0  0  0  0  0  0  0  0  0  0  0  0
  146.8042  137.3167  161.9287 O   0  0  0  0  0  0  0  0  0  0  0  0
  147.7953  136.2988  162.0108 C   0  0  0  0  0  0  0  0  0  0  0  0
  148.5384  135.7884  159.0915 C   0  0  0  0  0  0  0  0  0  0  0  0
  149.8457  136.1237  159.2573 N   0  0  0  0  0  0  0  0  0  0  0  0
  150.3071  137.2875  158.7905 C   0  0  0  0  0  0  0  0  0  0  0  0
  149.6446  138.2483  158.1434 N   0  0  0  0  0  0  0  0  0  0  0  0
  148.3319  137.9184  157.9760 C   0  0  0  0  0  0  0  0  0  0  0  0
  147.7034  136.7183  158.4126 C   0  0  0  0  0  0  0  0  0  0  0  0
  146.3633  136.7253  158.0469 N   0  0  0  0  0  0  0  0  0  0  0  0
  146.2070  137.8665  157.4343 C   0  0  0  0  0  0  0  0  0  0  0  0
  147.3333  138.6558  157.3619 N   0  0  0  0  0  0  0  0  0  0  0  0
  147.4409  139.9652  156.7338 C   0  0  0  0  0  0  0  0  0  0  0  0
  147.3383  139.9646  155.1754 C   0  0  0  0  0  0  0  0  0  0  0  0
  145.8851  139.5828  154.7779 C   0  0  0  0  0  0  0  0  0  0  0  0
  145.7725  139.0960  153.4551 O   0  0  0  0  0  0  0  0  0  0  0  0
  147.6842  141.3810  154.6468 C   0  0  0  0  0  0  0  0  0  0  0  0
  149.1825  141.7164  154.7797 C   0  0  0  0  0  0  0  0  0  0  0  0
  149.9683  140.7236  154.1312 O   0  0  0  0  0  0  0  0  0  0  0  0
  149.8005  139.4265  154.6899 C   0  0  0  0  0  0  0  0  0  0  0  0
  148.3387  138.9735  154.5259 C   0  0  0  0  0  0  0  0  0  0  0  0
  149.6562  132.3614  160.0365 H   0  0  0  0  0  0  0  0  0  0  0  0
  148.9175  131.3538  158.8122 H   0  0  0  0  0  0  0  0  0  0  0  0
  149.1316  133.7153  158.0177 H   0  0  0  0  0  0  0  0  0  0  0  0
  147.4625  133.2511  158.1064 H   0  0  0  0  0  0  0  0  0  0  0  0
  146.1291  135.3186  159.9086 H   0  0  0  0  0  0  0  0  0  0  0  0
  146.3632  133.6365  160.2831 H   0  0  0  0  0  0  0  0  0  0  0  0
  147.5853  134.1772  162.3504 H   0  0  0  0  0  0  0  0  0  0  0  0
  144.9125  134.6672  162.2968 H   0  0  0  0  0  0  0  0  0  0  0  0
  145.9055  135.1929  163.6514 H   0  0  0  0  0  0  0  0  0  0  0  0
  144.8813  136.8758  161.3656 H   0  0  0  0  0  0  0  0  0  0  0  0
  145.0562  137.3158  163.0654 H   0  0  0  0  0  0  0  0  0  0  0  0
  148.2574  136.3473  162.9976 H   0  0  0  0  0  0  0  0  0  0  0  0
  148.5802  136.4422  161.2675 H   0  0  0  0  0  0  0  0  0  0  0  0
  151.3568  137.4758  158.9611 H   0  0  0  0  0  0  0  0  0  0  0  0
  145.2563  138.1671  157.0191 H   0  0  0  0  0  0  0  0  0  0  0  0
  146.6607  140.6017  157.1534 H   0  0  0  0  0  0  0  0  0  0  0  0
  148.3787  140.4037  157.0708 H   0  0  0  0  0  0  0  0  0  0  0  0
  145.4934  138.8093  155.4381 H   0  0  0  0  0  0  0  0  0  0  0  0
  145.2262  140.4462  154.8757 H   0  0  0  0  0  0  0  0  0  0  0  0
  145.5866  139.8238  152.8818 H   0  0  0  0  0  0  0  0  0  0  0  0
  147.4278  141.4621  153.5902 H   0  0  0  0  0  0  0  0  0  0  0  0
  147.0860  142.1362  155.1577 H   0  0  0  0  0  0  0  0  0  0  0  0
  149.3870  142.6787  154.3100 H   0  0  0  0  0  0  0  0  0  0  0  0
  149.4856  141.8138  155.8221 H   0  0  0  0  0  0  0  0  0  0  0  0
  150.4619  138.7359  154.1667 H   0  0  0  0  0  0  0  0  0  0  0  0
  150.1105  139.4221  155.7350 H   0  0  0  0  0  0  0  0  0  0  0  0
  148.2070  137.9651  154.9160 H   0  0  0  0  0  0  0  0  0  0  0  0
  148.1408  138.8974  153.4564 H   0  0  0  0  0  0  0  0  0  0  0  0
  1  2  3  0  0  0  0
  2  3  1  0  0  0  0
  3  4  1  0  0  0  0
  3 30  1  0  0  0  0
  3 31  1  0  0  0  0
  4  5  1  0  0  0  0
  4 32  1  0  0  0  0
  4 33  1  0  0  0  0
  5  6  1  0  0  0  0
  5 12  1  0  0  0  0
  6  7  1  0  0  0  0
  6 34  1  0  0  0  0
  6 35  1  0  0  0  0
  7 11  1  0  0  0  0
  7  8  1  0  0  0  0
  7 36  1  0  0  0  0
  8  9  1  0  0  0  0
  8 37  1  0  0  0  0
  8 38  1  0  0  0  0
  9 10  1  0  0  0  0
  9 39  1  0  0  0  0
  9 40  1  0  0  0  0
 10 11  1  0  0  0  0
 11 41  1  0  0  0  0
 11 42  1  0  0  0  0
 12 17  1  0  0  0  0
 12 13  2  0  0  0  0
 13 14  1  0  0  0  0
 14 15  2  0  0  0  0
 14 43  1  0  0  0  0
 15 16  1  0  0  0  0
 16 20  1  0  0  0  0
 16 17  2  0  0  0  0
 17 18  1  0  0  0  0
 18 19  2  0  0  0  0
 19 20  1  0  0  0  0
 19 44  1  0  0  0  0
 20 21  1  0  0  0  0
 21 22  1  0  0  0  0
 21 45  1  0  0  0  0
 21 46  1  0  0  0  0
 22 29  1  0  0  0  0
 22 23  1  0  0  0  0
 22 25  1  0  0  0  0
 23 24  1  0  0  0  0
 23 47  1  0  0  0  0
 23 48  1  0  0  0  0
 24 49  1  0  0  0  0
 25 26  1  0  0  0  0
 25 50  1  0  0  0  0
 25 51  1  0  0  0  0
 26 27  1  0  0  0  0
 26 52  1  0  0  0  0
 26 53  1  0  0  0  0
 27 28  1  0  0  0  0
 28 29  1  0  0  0  0
 28 54  1  0  0  0  0
 28 55  1  0  0  0  0
 29 56  1  0  0  0  0
 29 57  1  0  0  0  0
M  END
> <s_m_source_file>
AV-unprocessed.smi

> <i_m_source_file_index>
14

> <i_lp_mmshare_version>
43012

> <i_f3d_flags>
0

> <s_epik_input>
W0NIMl0xT1tDSDJdW0NIMl1bQ0BIXTFbQ0gyXU4oW0NIMl1bQ0gyXUMjTiljKG5bY0hdbjIpYyhjMjMpbltjSF1uM1tDSDJdQzQoW0NIMl1bT0hdKVtDSDJdW0NIMl1PW0NIMl1bQ0gyXTQ=

> <s_epik_cmdline>
J2VwaWtfcHl0aG9uJywgJy1waCcsICc3LjAnLCAnLXRuJywgJzgnLCAnLW1hJywgJzIwMCcsICctbWV0YWxfYmluZGluZycsICctaW1hZScsICc8aW5maWxlLm1hZT4nLCAnLW9tYWUnLCAnPG91dGZpbGUubWFlPic=

> <r_lp_tautomer_probability>
1

> <r_epik_Ionization_Penalty>
0.000542547

> <r_epik_Ionization_Penalty_Charging>
0

> <r_epik_Ionization_Penalty_Neutral>
0.000542547

> <r_epik_State_Penalty>
0.000265709

> <r_epik_Charging_Adjusted_Penalty>
0.000265709

> <i_epik_Tot_Q>
0

> <i_epik_Tot_abs_Q>
0

> <r_epik_Metal_State_Penalty>
-0

> <b_epik_Metal_Only>
0

> <s_lp_Force_Field>
OPLS_2005

> <r_lp_Energy>
44.4286

> <b_lp_Chiralities_Consistent>
1

> <s_lp_Variant>
AV-unprocessed.smi:14-1

> <Gold.Version>
5.8.1

> <Gold.Id.Protein>
6NUR|6NUR_protein|mol2

> <Gold.PLP.Fitness>
41.5456

> <Gold.PLP.PLP>
-35.7112

> <Gold.PLP.part.hbond>
-5.0000

> <Gold.PLP.part.metal>
0.0000

> <Gold.PLP.part.buried>
-4.9743

> <Gold.PLP.part.nonpolar>
-27.0600

> <Gold.PLP.part.repulsive>
0.9547

> <Gold.PLP.ligand.clash>
0.0000

> <Gold.PLP.ligand.torsion>
2.1332

> <Gold.PLP.Chemscore.Hbond>
2.9520

> <Gold.PLP.Chemscore.CHOScore>
0.0000

> <Gold.PLP.Chemscore.Metal>
0.0000

> <Gold.Chemscore.Hbonds>
donor molecule, donor type, donor heavy atom, donor atom, acceptor molecule, acceptor atom, score
      L1  H    24    49       P1 10175  0.45
      P1  H  6896  6907       L1    13  1.00
      P1  H  6934  6947       L1    10  0.86
      P1  H  7989  7998       L1    27  0.66

> <Gold.PLP.Chemscore.Internal.Correction>
1.2449

> <Gold.Rescore>
     Score         DG    S(hbond)    S(metal)    S(lipo)     H(rot)  DE(clash)    DE(int)     intcor
     12.62     -14.92       2.66        0.00      75.87       3.26       0.13       2.17       ----

> <Gold.Chemscore.Fitness>
12.6218

> <Gold.Chemscore.DG>
-14.9214

> <Gold.Chemscore.ZeroCoef>
-5.4800

> <Gold.Chemscore.Hbond>
2.6641

> <Gold.Chemscore.Metal>
0.0000

> <Gold.Chemscore.Lipo>
75.8699

> <Gold.Chemscore.Internal_Hbond>
0.0000

> <Gold.Chemscore.DEClash>
0.1266

> <Gold.Chemscore.DEInternal>
2.1730

> <Gold.Chemscore.Rot>
3.2553

> <Gold.Chemscore.Internal.Correction>
   9.000000E+99

> <Gold.Chemscore.Hbonds>
donor molecule, donor type, donor heavy atom, donor atom, acceptor molecule, acceptor atom, score
      L1  H    24    49       P1 10175  0.43
      P1  H  6896  6907       L1    13  0.78
      P1  H  6934  6947       L1    10  0.80
      P1  H  7989  7998       L1    27  0.49

> <Gold.Chemscore.Hbond.Weighted>
-8.8982

> <Gold.Chemscore.Metal.Weighted>
-0.0000

> <Gold.Chemscore.Lipo.Weighted>
-8.8768

> <Gold.Chemscore.Internal_Hbond.Weighted>
0.0000

> <Gold.Chemscore.DEClash.Weighted>
0.1266

> <Gold.Chemscore.DEInternal.Weighted>
2.1730

> <Gold.Chemscore.Rot.Weighted>
8.3336

> <Gold.Chemscore.Internal.Correction.Weighted>
   9.000000E+99

> <Gold.Protein.RotatedTorsions>
[ 6907 6896 6895 6894 ] final  -58.65 input  -60.11 | X-H torsion
[ 7974 7965 7964 7962 ] final   22.74 input  175.53 | X-H torsion
[ 8008 7997 7996 7995 ] final  177.44 input   59.86 | X-H torsion
[ 10167 10162 10161 10158 ] final  101.55 input  -65.29 | X-H torsion
[ 10718 10713 10712 10709 ] final -151.98 input   66.30 | X-H torsion
[ 10763 10752 10751 10750 ] final   48.43 input  -60.55 | X-H torsion
[ 11005 11000 10999 10996 ] final  -41.85 input  -57.11 | X-H torsion

> <Gold.Protein.ActiveResidues>
 VAL166  LYS551  ARG553  GLY616  TRP617  ASP618  TYR619  PRO620  LYS621  CYS622 
 ASP623  PHE694  ASN695  SER759  ASP760  ASP761  ALA762  ILE779  LEU786  VAL792 
 PHE793  MET794  SER795  GLU796  ALA797  LYS798  CYS799  TRP800  GLU811  SER814 

> <Gold.Protein.RotatedAtoms>
  150.7990  134.7071  159.6582 H   0  0  0  0  0  0  0  0  0  0  0  0  # atno 6907 bound_to 6896
  152.4106  134.6128  160.0040 H   0  0  0  0  0  0  0  0  0  0  0  0  # atno 6908 bound_to 6896
  151.6372  133.3291  159.3158 H   0  0  0  0  0  0  0  0  0  0  0  0  # atno 6909 bound_to 6896
  146.2015  139.7842  142.8758 H   0  0  0  0  0  0  0  0  0  0  0  0  # atno 7974 bound_to 7965
  156.0656  140.1358  156.9889 H   0  0  0  0  0  0  0  0  0  0  0  0  # atno 8008 bound_to 7997
  154.4504  140.0982  156.6654 H   0  0  0  0  0  0  0  0  0  0  0  0  # atno 8009 bound_to 7997
  155.5308  140.3458  155.4428 H   0  0  0  0  0  0  0  0  0  0  0  0  # atno 8010 bound_to 7997
  139.7428  144.7006  151.0550 H   0  0  0  0  0  0  0  0  0  0  0  0  # atno 10167 bound_to 10162
  156.4665  130.8238  151.2468 H   0  0  0  0  0  0  0  0  0  0  0  0  # atno 10718 bound_to 10713
  152.9792  135.5944  154.3925 H   0  0  0  0  0  0  0  0  0  0  0  0  # atno 10763 bound_to 10752
  154.3578  135.2767  155.2338 H   0  0  0  0  0  0  0  0  0  0  0  0  # atno 10764 bound_to 10752
  154.4349  135.6027  153.6147 H   0  0  0  0  0  0  0  0  0  0  0  0  # atno 10765 bound_to 10752
  141.0275  133.6835  156.2513 H   0  0  0  0  0  0  0  0  0  0  0  0  # atno 11005 bound_to 11000
  145.3467  141.0299  143.3362 LP  0  0  0  0  0  0  0  0  0  0  0  0  # atno 17320 bound_to 7965
  144.8695  139.5059  143.6774 LP  0  0  0  0  0  0  0  0  0  0  0  0  # atno 17321 bound_to 7965
  140.7788  143.4904  150.9901 LP  0  0  0  0  0  0  0  0  0  0  0  0  # atno 17342 bound_to 10162
  139.8592  143.7337  152.3174 LP  0  0  0  0  0  0  0  0  0  0  0  0  # atno 17343 bound_to 10162
  157.7494  131.0090  150.3251 LP  0  0  0  0  0  0  0  0  0  0  0  0  # atno 17370 bound_to 10713
  156.3663  130.3855  149.7211 LP  0  0  0  0  0  0  0  0  0  0  0  0  # atno 17371 bound_to 10713
  140.6466  134.5110  157.5574 LP  0  0  0  0  0  0  0  0  0  0  0  0  # atno 17394 bound_to 11000
  139.9185  134.8196  156.1287 LP  0  0  0  0  0  0  0  0  0  0  0  0  # atno 17395 bound_to 11000

$$$$
