AV-unprocessed.smi:2721|AV-procd|sdf|10502|dock5
  -GOLD-   2272014543D 1   1.00000     0.00000
 Structure written by MMmdl.
 29 30  0  0  0  0  0  0  0  0  2 V2000
  152.4047  138.7512  155.3340 C   0  0  0  0  0  0  0  0  0  0  0  0
  151.7847  139.9199  155.9205 N   0  0  0  0  0  0  0  0  0  0  0  0
  151.9026  140.4040  157.2047 C   0  0  0  0  0  0  0  0  0  0  0  0
  151.1349  141.5343  157.2972 C   0  0  0  0  0  0  0  0  0  0  0  0
  150.8986  142.4882  158.4531 C   0  0  1  0  0  0  0  0  0  0  0  0
  151.2224  141.9240  159.7264 O   0  0  0  0  0  0  0  0  0  0  0  0
  152.6119  141.7955  160.0232 C   0  0  0  0  0  0  0  0  0  0  0  0
  153.3075  143.1637  159.9590 C   0  0  0  0  0  0  0  0  0  0  0  0
  153.0774  143.8284  158.5983 C   0  0  0  0  0  0  0  0  0  0  0  0
  151.5723  143.8755  158.2983 C   0  0  1  0  0  0  0  0  0  0  0  0
  151.2996  144.4787  156.9803 N   0  3  0  0  0  0  0  0  0  0  0  0
  150.5834  141.6510  155.9881 C   0  0  0  0  0  0  0  0  0  0  0  0
  150.9743  140.6898  155.1689 N   0  0  0  0  0  0  0  0  0  0  0  0
  149.8255  142.6763  158.5088 H   0  0  0  0  0  0  0  0  0  0  0  0
  151.1218  144.5392  159.0377 H   0  0  0  0  0  0  0  0  0  0  0  0
  152.9748  138.2105  156.0900 H   0  0  0  0  0  0  0  0  0  0  0  0
  153.0776  139.0548  154.5317 H   0  0  0  0  0  0  0  0  0  0  0  0
  151.6383  138.0897  154.9284 H   0  0  0  0  0  0  0  0  0  0  0  0
  152.5209  139.9016  157.9333 H   0  0  0  0  0  0  0  0  0  0  0  0
  152.7107  141.3799  161.0260 H   0  0  0  0  0  0  0  0  0  0  0  0
  153.0883  141.0829  159.3522 H   0  0  0  0  0  0  0  0  0  0  0  0
  152.9155  143.8057  160.7491 H   0  0  0  0  0  0  0  0  0  0  0  0
  154.3756  143.0531  160.1488 H   0  0  0  0  0  0  0  0  0  0  0  0
  153.4941  144.8363  158.6055 H   0  0  0  0  0  0  0  0  0  0  0  0
  153.6118  143.2833  157.8213 H   0  0  0  0  0  0  0  0  0  0  0  0
  150.3210  144.3682  156.7552 H   0  0  0  0  0  0  0  0  0  0  0  0
  151.8615  144.0220  156.2762 H   0  0  0  0  0  0  0  0  0  0  0  0
  149.9149  142.4100  155.6091 H   0  0  0  0  0  0  0  0  0  0  0  0
  151.5274  145.4623  157.0063 H   0  0  0  0  0  0  0  0  0  0  0  0
  1  2  1  0  0  0  0
  1 16  1  0  0  0  0
  1 17  1  0  0  0  0
  1 18  1  0  0  0  0
  2 13  1  0  0  0  0
  2  3  1  0  0  0  0
  3  4  2  0  0  0  0
  3 19  1  0  0  0  0
  4  5  1  0  0  0  0
  4 12  1  0  0  0  0
  5 14  1  0  0  0  0
  5 10  1  0  0  0  0
  5  6  1  0  0  0  0
  6  7  1  0  0  0  0
  7  8  1  0  0  0  0
  7 20  1  0  0  0  0
  7 21  1  0  0  0  0
  8  9  1  0  0  0  0
  8 22  1  0  0  0  0
  8 23  1  0  0  0  0
  9 10  1  0  0  0  0
  9 24  1  0  0  0  0
  9 25  1  0  0  0  0
 10 15  1  0  0  0  0
 10 11  1  0  0  0  0
 11 26  1  0  0  0  0
 11 27  1  0  0  0  0
 11 29  1  0  0  0  0
 12 13  2  0  0  0  0
 12 28  1  0  0  0  0
M  CHG  1  11   1
M  END
> <s_m_source_file>
AV-unprocessed.smi

> <i_m_source_file_index>
2721

> <i_lp_mmshare_version>
43012

> <i_f3d_flags>
0

> <s_epik_input>
W0NIM11uMVtjSF1jKFtjSF1uMSlbQ0BIXTJPW0NIMl1bQ0gyXVtDSDJdW0NAQEhdMltOSDJd

> <s_epik_cmdline>
J2VwaWtfcHl0aG9uJywgJy1waCcsICc3LjAnLCAnLXRuJywgJzgnLCAnLW1hJywgJzIwMCcsICctbWV0YWxfYmluZGluZycsICctaW1hZScsICc8aW5maWxlLm1hZT4nLCAnLW9tYWUnLCAnPG91dGZpbGUubWFlPic=

> <r_lp_tautomer_probability>
1

> <r_epik_Ionization_Penalty>
0.0061467

> <r_epik_Ionization_Penalty_Charging>
0.00611941

> <r_epik_Ionization_Penalty_Neutral>
2.72888e-05

> <r_epik_State_Penalty>
0.00451057

> <r_epik_Charging_Adjusted_Penalty>
0.01063

> <i_epik_Tot_Q>
1

> <i_epik_Tot_abs_Q>
1

> <r_epik_Metal_State_Penalty>
-0

> <b_epik_Metal_Only>
0

> <s_lp_Force_Field>
OPLS_2005

> <r_lp_Energy>
14.6487

> <b_lp_Chiralities_Consistent>
1

> <s_lp_Variant>
AV-unprocessed.smi:2721-3

> <Gold.Version>
5.8.1

> <Gold.Id.Protein>
6NUR|6NUR_protein|mol2

> <Gold.PLP.Fitness>
42.6090

> <Gold.PLP.PLP>
-31.7055

> <Gold.PLP.part.hbond>
-3.0000

> <Gold.PLP.part.metal>
0.0000

> <Gold.PLP.part.buried>
-2.1316

> <Gold.PLP.part.nonpolar>
-25.9686

> <Gold.PLP.part.repulsive>
0.1156

> <Gold.PLP.ligand.clash>
0.0000

> <Gold.PLP.ligand.torsion>
0.3747

> <Gold.PLP.Chemscore.Hbond>
2.8640

> <Gold.PLP.Chemscore.CHOScore>
1.0000

> <Gold.PLP.Chemscore.Metal>
0.0000

> <Gold.Chemscore.Hbonds>
donor molecule, donor type, donor heavy atom, donor atom, acceptor molecule, acceptor atom, score
      L1  H    11    26       P1  8028  1.95
      P1  H  7989  7998       L1    13  0.88
      L1  C    12    28       P1  8028  1.00

> <Gold.PLP.Chemscore.Internal.Correction>
0.0610

> <Gold.Rescore>
     Score         DG    S(hbond)    S(metal)    S(lipo)     H(rot)  DE(clash)    DE(int)     intcor
     18.17     -18.81       1.82        0.00      83.71       1.00       0.19       0.45       ----

> <Gold.Chemscore.Fitness>
18.1676

> <Gold.Chemscore.DG>
-18.8065

> <Gold.Chemscore.ZeroCoef>
-5.4800

> <Gold.Chemscore.Hbond>
1.8241

> <Gold.Chemscore.Metal>
0.0000

> <Gold.Chemscore.Lipo>
83.7104

> <Gold.Chemscore.Internal_Hbond>
0.0000

> <Gold.Chemscore.DEClash>
0.1889

> <Gold.Chemscore.DEInternal>
0.4500

> <Gold.Chemscore.Rot>
1.0000

> <Gold.Chemscore.Internal.Correction>
   9.000000E+99

> <Gold.Chemscore.Hbonds>
donor molecule, donor type, donor heavy atom, donor atom, acceptor molecule, acceptor atom, score
      L1  H    11    26       P1  8028  0.89
      P1  H  7989  7998       L1    13  0.68

> <Gold.Chemscore.Hbond.Weighted>
-6.0924

> <Gold.Chemscore.Metal.Weighted>
-0.0000

> <Gold.Chemscore.Lipo.Weighted>
-9.7941

> <Gold.Chemscore.Internal_Hbond.Weighted>
0.0000

> <Gold.Chemscore.DEClash.Weighted>
0.1889

> <Gold.Chemscore.DEInternal.Weighted>
0.4500

> <Gold.Chemscore.Rot.Weighted>
2.5600

> <Gold.Chemscore.Internal.Correction.Weighted>
   9.000000E+99

> <Gold.Protein.RotatedTorsions>
[ 6907 6896 6895 6894 ] final   29.82 input  -60.11 | X-H torsion
[ 7974 7965 7964 7962 ] final  -51.30 input  175.53 | X-H torsion
[ 8008 7997 7996 7995 ] final -162.51 input   59.86 | X-H torsion
[ 10167 10162 10161 10158 ] final   -2.76 input  -65.29 | X-H torsion
[ 10718 10713 10712 10709 ] final  106.90 input   66.30 | X-H torsion
[ 10763 10752 10751 10750 ] final   10.79 input  -60.55 | X-H torsion
[ 11005 11000 10999 10996 ] final   33.03 input  -57.11 | X-H torsion

> <Gold.Protein.ActiveResidues>
 VAL166  LYS551  ARG553  GLY616  TRP617  ASP618  TYR619  PRO620  LYS621  CYS622 
 ASP623  PHE694  ASN695  SER759  ASP760  ASP761  ALA762  ILE779  LEU786  VAL792 
 PHE793  MET794  SER795  GLU796  ALA797  LYS798  CYS799  TRP800  GLU811  SER814 

> <Gold.Protein.RotatedAtoms>
  152.0371  134.9733  160.0573 H   0  0  0  0  0  0  0  0  0  0  0  0  # atno 6907 bound_to 6896
  152.1187  133.4336  159.4673 H   0  0  0  0  0  0  0  0  0  0  0  0  # atno 6908 bound_to 6896
  150.6847  134.2480  159.4542 H   0  0  0  0  0  0  0  0  0  0  0  0  # atno 6909 bound_to 6896
  145.9204  140.7838  142.9650 H   0  0  0  0  0  0  0  0  0  0  0  0  # atno 7974 bound_to 7965
  155.8079  140.0901  157.1921 H   0  0  0  0  0  0  0  0  0  0  0  0  # atno 8008 bound_to 7997
  154.3980  140.1460  156.3411 H   0  0  0  0  0  0  0  0  0  0  0  0  # atno 8009 bound_to 7997
  155.8396  140.3439  155.5626 H   0  0  0  0  0  0  0  0  0  0  0  0  # atno 8010 bound_to 7997
  140.6863  143.6620  150.8259 H   0  0  0  0  0  0  0  0  0  0  0  0  # atno 10167 bound_to 10162
  157.6650  131.0861  150.6076 H   0  0  0  0  0  0  0  0  0  0  0  0  # atno 10718 bound_to 10713
  153.1994  135.6854  153.8250 H   0  0  0  0  0  0  0  0  0  0  0  0  # atno 10763 bound_to 10752
  153.7522  135.3222  155.3324 H   0  0  0  0  0  0  0  0  0  0  0  0  # atno 10764 bound_to 10752
  154.8163  135.4683  154.0753 H   0  0  0  0  0  0  0  0  0  0  0  0  # atno 10765 bound_to 10752
  140.2673  134.3123  155.7838 H   0  0  0  0  0  0  0  0  0  0  0  0  # atno 11005 bound_to 11000
  144.6752  140.1967  143.7391 LP  0  0  0  0  0  0  0  0  0  0  0  0  # atno 17320 bound_to 7965
  145.8557  139.2197  143.1746 LP  0  0  0  0  0  0  0  0  0  0  0  0  # atno 17321 bound_to 7965
  140.0327  143.5427  152.2753 LP  0  0  0  0  0  0  0  0  0  0  0  0  # atno 17342 bound_to 10162
  139.6225  144.7631  151.2708 LP  0  0  0  0  0  0  0  0  0  0  0  0  # atno 17343 bound_to 10162
  156.6377  130.4449  149.5763 LP  0  0  0  0  0  0  0  0  0  0  0  0  # atno 17370 bound_to 10713
  156.2233  130.6750  151.1390 LP  0  0  0  0  0  0  0  0  0  0  0  0  # atno 17371 bound_to 10713
  141.2182  133.7445  156.9280 LP  0  0  0  0  0  0  0  0  0  0  0  0  # atno 17394 bound_to 11000
  140.1407  134.9295  157.2462 LP  0  0  0  0  0  0  0  0  0  0  0  0  # atno 17395 bound_to 11000

$$$$
