AV-unprocessed.smi:1046|AV-procd|sdf|4548|dock3
  -GOLD-   22720 2573D 1   1.00000     0.00000
 Structure written by MMmdl.
 53 55  0  0  0  0  0  0  0  0  2 V2000
  152.6398  143.1181  161.2822 C   0  0  0  0  0  0  0  0  0  0  0  0
  152.1412  142.7261  159.9025 C   0  0  0  0  0  0  0  0  0  0  0  0
  152.5319  141.4816  159.3593 C   0  0  0  0  0  0  0  0  0  0  0  0
  152.0920  141.0804  158.0791 C   0  0  0  0  0  0  0  0  0  0  0  0
  152.3493  139.9247  157.3618 N   0  0  0  0  0  0  0  0  0  0  0  0
  151.6607  140.1429  156.2457 C   0  0  0  0  0  0  0  0  0  0  0  0
  150.9871  141.3056  156.1537 N   0  0  0  0  0  0  0  0  0  0  0  0
  150.1770  141.7572  155.0367 C   0  0  0  0  0  0  0  0  0  0  0  0
  148.9530  140.8532  154.7956 C   0  0  2  0  0  0  0  0  0  0  0  0
  149.3530  139.6998  154.0794 O   0  0  0  0  0  0  0  0  0  0  0  0
  147.8532  141.5796  153.9963 C   0  0  0  0  0  0  0  0  0  0  0  0
  146.9694  142.4071  154.8569 N   0  3  0  0  0  0  0  0  0  0  0  0
  146.5977  141.7152  156.1180 C   0  0  0  0  0  0  0  0  0  0  0  0
  145.7452  142.6414  157.0096 C   0  0  0  0  0  0  0  0  0  0  0  0
  144.5362  143.1297  156.3466 N   0  0  0  0  0  0  0  0  0  0  0  0
  143.5197  142.0861  156.1793 C   0  0  0  0  0  0  0  0  0  0  0  0
  142.3197  142.4853  155.3056 C   0  0  0  0  0  0  0  0  0  0  0  0
  142.0012  141.4226  154.4344 O   0  0  0  0  0  0  0  0  0  0  0  0
  144.9267  143.8037  155.1059 C   0  0  0  0  0  0  0  0  0  0  0  0
  145.7559  142.9116  154.1596 C   0  0  0  0  0  0  0  0  0  0  0  0
  151.2422  141.9645  157.3518 C   0  0  0  0  0  0  0  0  0  0  0  0
  150.8456  143.2048  157.8822 C   0  0  0  0  0  0  0  0  0  0  0  0
  151.2950  143.5905  159.1625 C   0  0  0  0  0  0  0  0  0  0  0  0
  150.8628  144.9322  159.7265 C   0  0  0  0  0  0  0  0  0  0  0  0
  153.3047  142.3592  161.6958 H   0  0  0  0  0  0  0  0  0  0  0  0
  151.8028  143.2406  161.9698 H   0  0  0  0  0  0  0  0  0  0  0  0
  153.1920  144.0569  161.2376 H   0  0  0  0  0  0  0  0  0  0  0  0
  153.1759  140.8225  159.9227 H   0  0  0  0  0  0  0  0  0  0  0  0
  151.6471  139.4167  155.4462 H   0  0  0  0  0  0  0  0  0  0  0  0
  149.8545  142.7783  155.2446 H   0  0  0  0  0  0  0  0  0  0  0  0
  150.8034  141.8057  154.1449 H   0  0  0  0  0  0  0  0  0  0  0  0
  148.5689  140.5334  155.7636 H   0  0  0  0  0  0  0  0  0  0  0  0
  149.6345  139.9602  153.2153 H   0  0  0  0  0  0  0  0  0  0  0  0
  148.2948  142.2131  153.2254 H   0  0  0  0  0  0  0  0  0  0  0  0
  147.2579  140.8322  153.4690 H   0  0  0  0  0  0  0  0  0  0  0  0
  146.0646  140.7906  155.8925 H   0  0  0  0  0  0  0  0  0  0  0  0
  147.5017  141.4321  156.6584 H   0  0  0  0  0  0  0  0  0  0  0  0
  145.4794  142.1252  157.9326 H   0  0  0  0  0  0  0  0  0  0  0  0
  146.3528  143.4949  157.3133 H   0  0  0  0  0  0  0  0  0  0  0  0
  143.9663  141.1749  155.7824 H   0  0  0  0  0  0  0  0  0  0  0  0
  143.1335  141.8202  157.1642 H   0  0  0  0  0  0  0  0  0  0  0  0
  141.4504  142.7115  155.9236 H   0  0  0  0  0  0  0  0  0  0  0  0
  142.5366  143.3672  154.7035 H   0  0  0  0  0  0  0  0  0  0  0  0
  142.0478  141.7383  153.5447 H   0  0  0  0  0  0  0  0  0  0  0  0
  144.0494  144.1851  154.5851 H   0  0  0  0  0  0  0  0  0  0  0  0
  145.5167  144.6862  155.3569 H   0  0  0  0  0  0  0  0  0  0  0  0
  146.0384  143.4983  153.2868 H   0  0  0  0  0  0  0  0  0  0  0  0
  145.1596  142.0755  153.7920 H   0  0  0  0  0  0  0  0  0  0  0  0
  150.2017  143.8546  157.3088 H   0  0  0  0  0  0  0  0  0  0  0  0
  150.2021  145.4595  159.0377 H   0  0  0  0  0  0  0  0  0  0  0  0
  151.7307  145.5661  159.9092 H   0  0  0  0  0  0  0  0  0  0  0  0
  150.3269  144.7977  160.6664 H   0  0  0  0  0  0  0  0  0  0  0  0
  147.5104  143.2157  155.1295 H   0  0  0  0  0  0  0  0  0  0  0  0
  1  2  1  0  0  0  0
  1 25  1  0  0  0  0
  1 26  1  0  0  0  0
  1 27  1  0  0  0  0
  2 23  1  0  0  0  0
  2  3  2  0  0  0  0
  3  4  1  0  0  0  0
  3 28  1  0  0  0  0
  4 21  2  0  0  0  0
  4  5  1  0  0  0  0
  5  6  2  0  0  0  0
  6  7  1  0  0  0  0
  6 29  1  0  0  0  0
  7  8  1  0  0  0  0
  7 21  1  0  0  0  0
  8  9  1  0  0  0  0
  8 30  1  0  0  0  0
  8 31  1  0  0  0  0
  9 10  1  0  0  0  0
  9 11  1  0  0  0  0
  9 32  1  0  0  0  0
 10 33  1  0  0  0  0
 11 12  1  0  0  0  0
 11 34  1  0  0  0  0
 11 35  1  0  0  0  0
 12 20  1  0  0  0  0
 12 13  1  0  0  0  0
 12 53  1  0  0  0  0
 13 14  1  0  0  0  0
 13 36  1  0  0  0  0
 13 37  1  0  0  0  0
 14 15  1  0  0  0  0
 14 38  1  0  0  0  0
 14 39  1  0  0  0  0
 15 16  1  0  0  0  0
 15 19  1  0  0  0  0
 16 17  1  0  0  0  0
 16 40  1  0  0  0  0
 16 41  1  0  0  0  0
 17 18  1  0  0  0  0
 17 42  1  0  0  0  0
 17 43  1  0  0  0  0
 18 44  1  0  0  0  0
 19 20  1  0  0  0  0
 19 45  1  0  0  0  0
 19 46  1  0  0  0  0
 20 47  1  0  0  0  0
 20 48  1  0  0  0  0
 21 22  1  0  0  0  0
 22 23  2  0  0  0  0
 22 49  1  0  0  0  0
 23 24  1  0  0  0  0
 24 50  1  0  0  0  0
 24 51  1  0  0  0  0
 24 52  1  0  0  0  0
M  CHG  1  12   1
M  END
> <s_m_source_file>
AV-unprocessed.smi

> <i_m_source_file_index>
1046

> <i_lp_mmshare_version>
43012

> <i_f3d_flags>
0

> <s_epik_input>
W0NIM11jKFtjSF0xKWMoW0NIM10pW2NIXWMoYzEyKW4oW2NIXW4yKVtDSDJdW0NASF0oW09IXSlbQ0gyXU4zW0NIMl1bQ0gyXU4oW0NIMl1bQ0gyXTMpW0NIMl1bQ0gyXVtPSF0=

> <s_epik_cmdline>
J2VwaWtfcHl0aG9uJywgJy1waCcsICc3LjAnLCAnLXRuJywgJzgnLCAnLW1hJywgJzIwMCcsICctbWV0YWxfYmluZGluZycsICctaW1hZScsICc8aW5maWxlLm1hZT4nLCAnLW9tYWUnLCAnPG91dGZpbGUubWFlPic=

> <r_epik_Ionization_Penalty>
0.131947

> <r_epik_Ionization_Penalty_Charging>
0.00213896

> <r_epik_Ionization_Penalty_Neutral>
0.129808

> <r_epik_State_Penalty>
0.319681

> <r_epik_Charging_Adjusted_Penalty>
0.32182

> <i_epik_Tot_Q>
1

> <i_epik_Tot_abs_Q>
1

> <r_epik_Metal_State_Penalty>
0.225417

> <b_epik_Metal_Only>
0

> <s_lp_Force_Field>
OPLS_2005

> <r_lp_Energy>
31.2013

> <b_lp_Chiralities_Consistent>
1

> <s_lp_Variant>
AV-unprocessed.smi:1046-1

> <Gold.Version>
5.8.1

> <Gold.Id.Protein>
6NUR|6NUR_protein|mol2

> <Gold.PLP.Fitness>
59.3522

> <Gold.PLP.PLP>
-46.1557

> <Gold.PLP.part.hbond>
-5.0000

> <Gold.PLP.part.metal>
0.0000

> <Gold.PLP.part.buried>
-5.0318

> <Gold.PLP.part.nonpolar>
-35.8643

> <Gold.PLP.part.repulsive>
0.1531

> <Gold.PLP.ligand.clash>
0.0000

> <Gold.PLP.ligand.torsion>
0.9540

> <Gold.PLP.Chemscore.Hbond>
4.9588

> <Gold.PLP.Chemscore.CHOScore>
0.0000

> <Gold.PLP.Chemscore.Metal>
0.0000

> <Gold.Chemscore.Hbonds>
donor molecule, donor type, donor heavy atom, donor atom, acceptor molecule, acceptor atom, score
      L1  H    10    33       P1  7957  0.94
      L1  H    12    53       P1  8028  1.82
      L1  H    18    44       P1 10174  0.75
      P1  H  7997  8009       L1     5  0.70

> <Gold.PLP.Chemscore.Internal.Correction>
0.2283

> <Gold.Rescore>
     Score         DG    S(hbond)    S(metal)    S(lipo)     H(rot)  DE(clash)    DE(int)     intcor
     17.22     -21.08       3.07        0.00     115.78       3.21       3.00       0.85       ----

> <Gold.Chemscore.Fitness>
17.2238

> <Gold.Chemscore.DG>
-21.0799

> <Gold.Chemscore.ZeroCoef>
-5.4800

> <Gold.Chemscore.Hbond>
3.0721

> <Gold.Chemscore.Metal>
0.0000

> <Gold.Chemscore.Lipo>
115.7759

> <Gold.Chemscore.Internal_Hbond>
0.0000

> <Gold.Chemscore.DEClash>
3.0031

> <Gold.Chemscore.DEInternal>
0.8530

> <Gold.Chemscore.Rot>
3.2058

> <Gold.Chemscore.Internal.Correction>
   9.000000E+99

> <Gold.Chemscore.Hbonds>
donor molecule, donor type, donor heavy atom, donor atom, acceptor molecule, acceptor atom, score
      L1  H    10    33       P1  7957  0.89
      L1  H    12    53       P1  8028  0.27
      L1  H    18    44       P1 10174  0.09
      P1  H  7997  8009       L1     5  0.13

> <Gold.Chemscore.Hbond.Weighted>
-10.2608

> <Gold.Chemscore.Metal.Weighted>
-0.0000

> <Gold.Chemscore.Lipo.Weighted>
-13.5458

> <Gold.Chemscore.Internal_Hbond.Weighted>
0.0000

> <Gold.Chemscore.DEClash.Weighted>
3.0031

> <Gold.Chemscore.DEInternal.Weighted>
0.8530

> <Gold.Chemscore.Rot.Weighted>
8.2067

> <Gold.Chemscore.Internal.Correction.Weighted>
   9.000000E+99

> <Gold.Protein.RotatedTorsions>
[ 6907 6896 6895 6894 ] final -120.73 input  -60.11 | X-H torsion
[ 7974 7965 7964 7962 ] final  -12.40 input  175.53 | X-H torsion
[ 8008 7997 7996 7995 ] final  177.19 input   59.86 | X-H torsion
[ 10167 10162 10161 10158 ] final   93.63 input  -65.29 | X-H torsion
[ 10718 10713 10712 10709 ] final   93.74 input   66.30 | X-H torsion
[ 10763 10752 10751 10750 ] final   54.03 input  -60.55 | X-H torsion
[ 11005 11000 10999 10996 ] final -102.29 input  -57.11 | X-H torsion

> <Gold.Protein.ActiveResidues>
 VAL166  LYS551  ARG553  GLY616  TRP617  ASP618  TYR619  PRO620  LYS621  CYS622 
 ASP623  PHE694  ASN695  SER759  ASP760  ASP761  ALA762  ILE779  LEU786  VAL792 
 PHE793  MET794  SER795  GLU796  ALA797  LYS798  CYS799  TRP800  GLU811  SER814 

> <Gold.Protein.RotatedAtoms>
  150.8419  133.7922  159.3057 H   0  0  0  0  0  0  0  0  0  0  0  0  # atno 6907 bound_to 6896
  151.5620  135.1063  159.9984 H   0  0  0  0  0  0  0  0  0  0  0  0  # atno 6908 bound_to 6896
  152.4481  133.7533  159.6762 H   0  0  0  0  0  0  0  0  0  0  0  0  # atno 6909 bound_to 6896
  146.2153  140.3051  142.8378 H   0  0  0  0  0  0  0  0  0  0  0  0  # atno 7974 bound_to 7965
  156.0683  140.1364  156.9859 H   0  0  0  0  0  0  0  0  0  0  0  0  # atno 8008 bound_to 7997
  154.4518  140.0977  156.6692 H   0  0  0  0  0  0  0  0  0  0  0  0  # atno 8009 bound_to 7997
  155.5269  140.3457  155.4420 H   0  0  0  0  0  0  0  0  0  0  0  0  # atno 8010 bound_to 7997
  139.8161  144.6752  150.9578 H   0  0  0  0  0  0  0  0  0  0  0  0  # atno 10167 bound_to 10162
  157.6953  131.0488  150.4080 H   0  0  0  0  0  0  0  0  0  0  0  0  # atno 10718 bound_to 10713
  152.9800  135.5758  154.4838 H   0  0  0  0  0  0  0  0  0  0  0  0  # atno 10763 bound_to 10752
  154.4383  135.2775  155.1867 H   0  0  0  0  0  0  0  0  0  0  0  0  # atno 10764 bound_to 10752
  154.3546  135.6202  153.5713 H   0  0  0  0  0  0  0  0  0  0  0  0  # atno 10765 bound_to 10752
  141.1195  133.8546  157.1340 H   0  0  0  0  0  0  0  0  0  0  0  0  # atno 11005 bound_to 11000
  144.9029  140.7664  143.5856 LP  0  0  0  0  0  0  0  0  0  0  0  0  # atno 17320 bound_to 7965
  145.2978  139.1861  143.4706 LP  0  0  0  0  0  0  0  0  0  0  0  0  # atno 17321 bound_to 7965
  140.7815  143.4137  151.0952 LP  0  0  0  0  0  0  0  0  0  0  0  0  # atno 17342 bound_to 10162
  139.7800  143.8369  152.3136 LP  0  0  0  0  0  0  0  0  0  0  0  0  # atno 17343 bound_to 10162
  156.4466  130.4003  149.6662 LP  0  0  0  0  0  0  0  0  0  0  0  0  # atno 17370 bound_to 10713
  156.3827  130.7587  151.2581 LP  0  0  0  0  0  0  0  0  0  0  0  0  # atno 17371 bound_to 10713
  140.0142  134.9975  157.0459 LP  0  0  0  0  0  0  0  0  0  0  0  0  # atno 17394 bound_to 11000
  140.4548  134.1545  155.7185 LP  0  0  0  0  0  0  0  0  0  0  0  0  # atno 17395 bound_to 11000

$$$$
