AV-unprocessed.smi:2320|AV-procd|sdf|9280|dock3
  -GOLD-   2272012503D 1   1.00000     0.00000
 Structure written by MMmdl.
 41 42  0  0  0  0  0  0  0  0  1 V2000
  152.4055  144.1638  161.2392 C   0  0  0  0  0  0  0  0  0  0  0  0
  152.0592  143.3850  159.9869 C   0  0  0  0  0  0  0  0  0  0  0  0
  152.4163  142.0272  159.8668 C   0  0  0  0  0  0  0  0  0  0  0  0
  152.0898  141.3125  158.6985 C   0  0  0  0  0  0  0  0  0  0  0  0
  151.4060  141.9378  157.6359 C   0  0  0  0  0  0  0  0  0  0  0  0
  151.1281  141.1629  156.5305 O   0  0  0  0  0  0  0  0  0  0  0  0
  150.2480  141.6860  155.5441 C   0  0  0  0  0  0  0  0  0  0  0  0
  149.6189  140.5158  154.7721 C   0  0  1  0  0  0  0  0  0  0  0  0
  149.0477  141.0541  153.5967 O   0  0  0  0  0  0  0  0  0  0  0  0
  150.6639  139.4457  154.3821 C   0  0  0  0  0  0  0  0  0  0  0  0
  151.3328  138.8680  155.5599 N   0  0  0  0  0  0  0  0  0  0  0  0
  152.7342  138.9662  155.5909 C   0  0  0  0  0  0  0  0  0  0  0  0
  153.4272  138.4908  156.5733 N   0  0  0  0  0  0  0  0  0  0  0  0
  152.7811  137.8620  157.6415 C   0  0  0  0  0  0  0  0  0  0  0  0
  153.6896  137.3310  158.7361 C   0  0  0  0  0  0  0  0  0  0  0  0
  151.4257  137.7428  157.6770 C   0  0  0  0  0  0  0  0  0  0  0  0
  150.6686  137.0654  158.8130 C   0  0  0  0  0  0  0  0  0  0  0  0
  150.6232  138.2823  156.5671 C   0  0  0  0  0  0  0  0  0  0  0  0
  149.3931  138.2123  156.5378 O   0  0  0  0  0  0  0  0  0  0  0  0
  151.0490  143.3039  157.7635 C   0  0  0  0  0  0  0  0  0  0  0  0
  151.3752  144.0198  158.9319 C   0  0  0  0  0  0  0  0  0  0  0  0
  152.9064  143.5333  161.9745 H   0  0  0  0  0  0  0  0  0  0  0  0
  151.5010  144.5664  161.6959 H   0  0  0  0  0  0  0  0  0  0  0  0
  153.0679  144.9948  160.9958 H   0  0  0  0  0  0  0  0  0  0  0  0
  152.9408  141.5280  160.6683 H   0  0  0  0  0  0  0  0  0  0  0  0
  152.3682  140.2721  158.6164 H   0  0  0  0  0  0  0  0  0  0  0  0
  149.4653  142.2683  156.0339 H   0  0  0  0  0  0  0  0  0  0  0  0
  150.7824  142.3449  154.8573 H   0  0  0  0  0  0  0  0  0  0  0  0
  148.8216  140.0827  155.3774 H   0  0  0  0  0  0  0  0  0  0  0  0
  148.9212  140.3537  152.9749 H   0  0  0  0  0  0  0  0  0  0  0  0
  150.2119  138.6777  153.7513 H   0  0  0  0  0  0  0  0  0  0  0  0
  151.4235  139.8960  153.7398 H   0  0  0  0  0  0  0  0  0  0  0  0
  153.1879  139.4714  154.7362 H   0  0  0  0  0  0  0  0  0  0  0  0
  153.5659  136.2533  158.8448 H   0  0  0  0  0  0  0  0  0  0  0  0
  153.4590  137.8075  159.6892 H   0  0  0  0  0  0  0  0  0  0  0  0
  154.7391  137.5255  158.5113 H   0  0  0  0  0  0  0  0  0  0  0  0
  149.9542  137.7596  159.2567 H   0  0  0  0  0  0  0  0  0  0  0  0
  151.3187  136.7122  159.6119 H   0  0  0  0  0  0  0  0  0  0  0  0
  150.1150  136.2055  158.4346 H   0  0  0  0  0  0  0  0  0  0  0  0
  150.5228  143.8266  156.9795 H   0  0  0  0  0  0  0  0  0  0  0  0
  151.0972  145.0603  159.0166 H   0  0  0  0  0  0  0  0  0  0  0  0
  1  2  1  0  0  0  0
  1 22  1  0  0  0  0
  1 23  1  0  0  0  0
  1 24  1  0  0  0  0
  2 21  1  0  0  0  0
  2  3  2  0  0  0  0
  3  4  1  0  0  0  0
  3 25  1  0  0  0  0
  4  5  2  0  0  0  0
  4 26  1  0  0  0  0
  5  6  1  0  0  0  0
  5 20  1  0  0  0  0
  6  7  1  0  0  0  0
  7  8  1  0  0  0  0
  7 27  1  0  0  0  0
  7 28  1  0  0  0  0
  8  9  1  0  0  0  0
  8 10  1  0  0  0  0
  8 29  1  0  0  0  0
  9 30  1  0  0  0  0
 10 11  1  0  0  0  0
 10 31  1  0  0  0  0
 10 32  1  0  0  0  0
 11 18  1  0  0  0  0
 11 12  1  0  0  0  0
 12 13  2  0  0  0  0
 12 33  1  0  0  0  0
 13 14  1  0  0  0  0
 14 15  1  0  0  0  0
 14 16  2  0  0  0  0
 15 34  1  0  0  0  0
 15 35  1  0  0  0  0
 15 36  1  0  0  0  0
 16 17  1  0  0  0  0
 16 18  1  0  0  0  0
 17 37  1  0  0  0  0
 17 38  1  0  0  0  0
 17 39  1  0  0  0  0
 18 19  2  0  0  0  0
 20 21  2  0  0  0  0
 20 40  1  0  0  0  0
 21 41  1  0  0  0  0
M  END
> <s_m_source_file>
AV-unprocessed.smi

> <i_m_source_file_index>
2320

> <i_lp_mmshare_version>
43012

> <i_f3d_flags>
0

> <s_epik_input>
W0NIM11jMVtjSF1bY0hdYyhbY0hdW2NIXTEpT1tDSDJdW0NASF0oW09IXSlbQ0gyXW4yW2NIXW5jKFtDSDNdKWMoW0NIM10pYzI9Tw==

> <s_epik_cmdline>
J2VwaWtfcHl0aG9uJywgJy1waCcsICc3LjAnLCAnLXRuJywgJzgnLCAnLW1hJywgJzIwMCcsICctbWV0YWxfYmluZGluZycsICctaW1hZScsICc8aW5maWxlLm1hZT4nLCAnLW9tYWUnLCAnPG91dGZpbGUubWFlPic=

> <r_lp_tautomer_probability>
1

> <r_epik_Ionization_Penalty>
3.74127e-05

> <r_epik_Ionization_Penalty_Charging>
8.43242e-08

> <r_epik_Ionization_Penalty_Neutral>
3.73284e-05

> <r_epik_State_Penalty>
-0

> <r_epik_Charging_Adjusted_Penalty>
8.43242e-08

> <i_epik_Tot_Q>
0

> <i_epik_Tot_abs_Q>
0

> <r_epik_Metal_State_Penalty>
-0

> <b_epik_Metal_Only>
0

> <s_lp_Force_Field>
OPLS_2005

> <r_lp_Energy>
22.1305

> <b_lp_Chiralities_Consistent>
1

> <s_lp_Variant>
AV-unprocessed.smi:2320-2

> <Gold.Version>
5.8.1

> <Gold.Id.Protein>
6NUR|6NUR_protein|mol2

> <Gold.PLP.Fitness>
45.4796

> <Gold.PLP.PLP>
-39.1919

> <Gold.PLP.part.hbond>
-4.0000

> <Gold.PLP.part.metal>
0.0000

> <Gold.PLP.part.buried>
-1.2929

> <Gold.PLP.part.nonpolar>
-32.5965

> <Gold.PLP.part.repulsive>
0.0384

> <Gold.PLP.ligand.clash>
0.0000

> <Gold.PLP.ligand.torsion>
0.3573

> <Gold.PLP.Chemscore.Hbond>
2.2992

> <Gold.PLP.Chemscore.CHOScore>
0.0000

> <Gold.PLP.Chemscore.Metal>
0.0000

> <Gold.Chemscore.Hbonds>
donor molecule, donor type, donor heavy atom, donor atom, acceptor molecule, acceptor atom, score
      L1  H     9    30       P1  7957  0.66
      P1  H  7997  8010       L1    13  0.62
      P1  H  8011  8017       L1     9  0.90

> <Gold.PLP.Chemscore.Internal.Correction>
0.1047

> <Gold.Rescore>
     Score         DG    S(hbond)    S(metal)    S(lipo)     H(rot)  DE(clash)    DE(int)     intcor
     12.52     -16.77       1.33        0.00     109.90       2.35       0.39       3.86       ----

> <Gold.Chemscore.Fitness>
12.5196

> <Gold.Chemscore.DG>
-16.7739

> <Gold.Chemscore.ZeroCoef>
-5.4800

> <Gold.Chemscore.Hbond>
1.3321

> <Gold.Chemscore.Metal>
0.0000

> <Gold.Chemscore.Lipo>
109.8991

> <Gold.Chemscore.Internal_Hbond>
0.0000

> <Gold.Chemscore.DEClash>
0.3910

> <Gold.Chemscore.DEInternal>
3.8633

> <Gold.Chemscore.Rot>
2.3490

> <Gold.Chemscore.Internal.Correction>
   9.000000E+99

> <Gold.Chemscore.Hbonds>
donor molecule, donor type, donor heavy atom, donor atom, acceptor molecule, acceptor atom, score
      L1  H     9    30       P1  7957  0.65
      P1  H  7997  8010       L1    13  0.18
      P1  H  8011  8017       L1     9  0.16

> <Gold.Chemscore.Hbond.Weighted>
-4.4492

> <Gold.Chemscore.Metal.Weighted>
-0.0000

> <Gold.Chemscore.Lipo.Weighted>
-12.8582

> <Gold.Chemscore.Internal_Hbond.Weighted>
0.0000

> <Gold.Chemscore.DEClash.Weighted>
0.3910

> <Gold.Chemscore.DEInternal.Weighted>
3.8633

> <Gold.Chemscore.Rot.Weighted>
6.0136

> <Gold.Chemscore.Internal.Correction.Weighted>
   9.000000E+99

> <Gold.Protein.RotatedTorsions>
[ 6907 6896 6895 6894 ] final   78.53 input  -60.11 | X-H torsion
[ 7974 7965 7964 7962 ] final  -51.43 input  175.53 | X-H torsion
[ 8008 7997 7996 7995 ] final   34.66 input   59.86 | X-H torsion
[ 10167 10162 10161 10158 ] final -133.42 input  -65.29 | X-H torsion
[ 10718 10713 10712 10709 ] final   97.09 input   66.30 | X-H torsion
[ 10763 10752 10751 10750 ] final   25.37 input  -60.55 | X-H torsion
[ 11005 11000 10999 10996 ] final -114.93 input  -57.11 | X-H torsion

> <Gold.Protein.ActiveResidues>
 VAL166  LYS551  ARG553  GLY616  TRP617  ASP618  TYR619  PRO620  LYS621  CYS622 
 ASP623  PHE694  ASN695  SER759  ASP760  ASP761  ALA762  ILE779  LEU786  VAL792 
 PHE793  MET794  SER795  GLU796  ALA797  LYS798  CYS799  TRP800  GLU811  SER814 

> <Gold.Protein.RotatedAtoms>
  152.5163  134.3650  159.9297 H   0  0  0  0  0  0  0  0  0  0  0  0  # atno 6907 bound_to 6896
  151.3603  133.3885  159.2697 H   0  0  0  0  0  0  0  0  0  0  0  0  # atno 6908 bound_to 6896
  150.9657  134.9057  159.7815 H   0  0  0  0  0  0  0  0  0  0  0  0  # atno 6909 bound_to 6896
  145.9190  140.7850  142.9657 H   0  0  0  0  0  0  0  0  0  0  0  0  # atno 7974 bound_to 7965
  155.1584  140.3281  155.4416 H   0  0  0  0  0  0  0  0  0  0  0  0  # atno 8008 bound_to 7997
  156.2551  140.1964  156.6643 H   0  0  0  0  0  0  0  0  0  0  0  0  # atno 8009 bound_to 7997
  154.6423  140.0569  156.9846 H   0  0  0  0  0  0  0  0  0  0  0  0  # atno 8010 bound_to 7997
  139.8984  143.6637  152.2599 H   0  0  0  0  0  0  0  0  0  0  0  0  # atno 10167 bound_to 10162
  157.6918  131.0598  150.4591 H   0  0  0  0  0  0  0  0  0  0  0  0  # atno 10718 bound_to 10713
  153.0697  135.6584  154.0275 H   0  0  0  0  0  0  0  0  0  0  0  0  # atno 10763 bound_to 10752
  153.9923  135.2945  155.3412 H   0  0  0  0  0  0  0  0  0  0  0  0  # atno 10764 bound_to 10752
  154.7067  135.5222  153.8675 H   0  0  0  0  0  0  0  0  0  0  0  0  # atno 10765 bound_to 10752
  141.0520  133.9671  157.2819 H   0  0  0  0  0  0  0  0  0  0  0  0  # atno 11005 bound_to 11000
  144.6751  140.1946  143.7393 LP  0  0  0  0  0  0  0  0  0  0  0  0  # atno 17320 bound_to 7965
  145.8574  139.2205  143.1736 LP  0  0  0  0  0  0  0  0  0  0  0  0  # atno 17321 bound_to 7965
  139.7047  144.7630  151.1213 LP  0  0  0  0  0  0  0  0  0  0  0  0  # atno 17342 bound_to 10162
  140.7712  143.5410  150.9312 LP  0  0  0  0  0  0  0  0  0  0  0  0  # atno 17343 bound_to 10162
  156.4936  130.4101  149.6392 LP  0  0  0  0  0  0  0  0  0  0  0  0  # atno 17370 bound_to 10713
  156.3393  130.7373  151.2316 LP  0  0  0  0  0  0  0  0  0  0  0  0  # atno 17371 bound_to 10713
  139.9359  135.0196  156.8552 LP  0  0  0  0  0  0  0  0  0  0  0  0  # atno 17394 bound_to 11000
  140.6036  134.0148  155.7547 LP  0  0  0  0  0  0  0  0  0  0  0  0  # atno 17395 bound_to 11000

$$$$
