AV-unprocessed.smi:1033|AV-procd|sdf|4500|dock4
  -GOLD-   22720 2493D 1   1.00000     0.00000
 Structure written by MMmdl.
 57 59  0  0  0  0  0  0  0  0  3 V2000
  153.2331  142.5197  159.9940 C   0  0  0  0  0  0  0  0  0  0  0  0
  152.4224  141.9998  158.8190 C   0  0  0  0  0  0  0  0  0  0  0  0
  152.4234  140.6105  158.5608 C   0  0  0  0  0  0  0  0  0  0  0  0
  151.6740  140.1660  157.4781 C   0  0  0  0  0  0  0  0  0  0  0  0
  151.4754  138.8803  156.9708 N   0  3  0  0  0  0  0  0  0  0  0  0
  150.6532  138.9410  155.8872 C   0  0  0  0  0  0  0  0  0  0  0  0
  150.3248  140.2475  155.6924 N   0  0  0  0  0  0  0  0  0  0  0  0
  149.4597  140.8535  154.6695 C   0  0  0  0  0  0  0  0  0  0  0  0
  148.4863  139.8440  154.0295 C   0  0  2  0  0  0  0  0  0  0  0  0
  149.1883  139.0224  153.1171 O   0  0  0  0  0  0  0  0  0  0  0  0
  147.3461  140.5572  153.2750 C   0  0  0  0  0  0  0  0  0  0  0  0
  146.1417  140.7746  154.1165 N   0  3  0  0  0  0  0  0  0  0  0  0
  146.2490  142.0006  154.9493 C   0  0  0  0  0  0  0  0  0  0  0  0
  144.9524  142.2229  155.7552 C   0  0  0  0  0  0  0  0  0  0  0  0
  144.5956  141.0845  156.6014 N   0  0  0  0  0  0  0  0  0  0  0  0
  145.4854  140.9395  157.7629 C   0  0  0  0  0  0  0  0  0  0  0  0
  145.9545  142.2437  158.4469 C   0  0  1  0  0  0  0  0  0  0  0  0
  144.8391  143.2681  158.7078 C   0  0  0  0  0  0  0  0  0  0  0  0
  146.6552  141.9593  159.6404 O   0  0  0  0  0  0  0  0  0  0  0  0
  144.4911  139.8952  155.7526 C   0  0  0  0  0  0  0  0  0  0  0  0
  145.7764  139.6009  154.9543 C   0  0  0  0  0  0  0  0  0  0  0  0
  150.9379  141.0491  156.6638 C   0  0  0  0  0  0  0  0  0  0  0  0
  150.9265  142.4213  156.9050 C   0  0  0  0  0  0  0  0  0  0  0  0
  151.6833  142.8936  158.0013 C   0  0  0  0  0  0  0  0  0  0  0  0
  151.6909  144.3858  158.2873 C   0  0  0  0  0  0  0  0  0  0  0  0
  153.7594  141.7123  160.5041 H   0  0  0  0  0  0  0  0  0  0  0  0
  152.5835  143.0061  160.7220 H   0  0  0  0  0  0  0  0  0  0  0  0
  153.9778  143.2412  159.6574 H   0  0  0  0  0  0  0  0  0  0  0  0
  152.9833  139.9241  159.1792 H   0  0  0  0  0  0  0  0  0  0  0  0
  150.3200  138.1025  155.2921 H   0  0  0  0  0  0  0  0  0  0  0  0
  148.8964  141.6476  155.1617 H   0  0  0  0  0  0  0  0  0  0  0  0
  150.0784  141.3437  153.9172 H   0  0  0  0  0  0  0  0  0  0  0  0
  148.0836  139.2092  154.8180 H   0  0  0  0  0  0  0  0  0  0  0  0
  149.5942  139.5746  152.4658 H   0  0  0  0  0  0  0  0  0  0  0  0
  147.6869  141.5172  152.8844 H   0  0  0  0  0  0  0  0  0  0  0  0
  147.0786  139.9540  152.4055 H   0  0  0  0  0  0  0  0  0  0  0  0
  147.1125  141.9264  155.6117 H   0  0  0  0  0  0  0  0  0  0  0  0
  146.4214  142.8639  154.3057 H   0  0  0  0  0  0  0  0  0  0  0  0
  145.0438  143.1234  156.3635 H   0  0  0  0  0  0  0  0  0  0  0  0
  144.1347  142.4180  155.0600 H   0  0  0  0  0  0  0  0  0  0  0  0
  145.0521  140.2715  158.5072 H   0  0  0  0  0  0  0  0  0  0  0  0
  146.3892  140.4335  157.4207 H   0  0  0  0  0  0  0  0  0  0  0  0
  146.6848  142.7123  157.7864 H   0  0  0  0  0  0  0  0  0  0  0  0
  144.3064  143.5067  157.7870 H   0  0  0  0  0  0  0  0  0  0  0  0
  145.2490  144.1986  159.1018 H   0  0  0  0  0  0  0  0  0  0  0  0
  144.1097  142.8997  159.4296 H   0  0  0  0  0  0  0  0  0  0  0  0
  147.1999  142.7014  159.8540 H   0  0  0  0  0  0  0  0  0  0  0  0
  144.2101  139.0254  156.3441 H   0  0  0  0  0  0  0  0  0  0  0  0
  143.6698  140.0378  155.0487 H   0  0  0  0  0  0  0  0  0  0  0  0
  145.6039  138.7280  154.3261 H   0  0  0  0  0  0  0  0  0  0  0  0
  146.5988  139.3458  155.6236 H   0  0  0  0  0  0  0  0  0  0  0  0
  150.3682  143.1046  156.2826 H   0  0  0  0  0  0  0  0  0  0  0  0
  151.0577  144.9302  157.5861 H   0  0  0  0  0  0  0  0  0  0  0  0
  152.7015  144.7859  158.2033 H   0  0  0  0  0  0  0  0  0  0  0  0
  151.3207  144.5857  159.2930 H   0  0  0  0  0  0  0  0  0  0  0  0
  145.3729  140.9342  153.4805 H   0  0  0  0  0  0  0  0  0  0  0  0
  151.8679  138.0225  157.3377 H   0  0  0  0  0  0  0  0  0  0  0  0
  1  2  1  0  0  0  0
  1 26  1  0  0  0  0
  1 27  1  0  0  0  0
  1 28  1  0  0  0  0
  2 24  1  0  0  0  0
  2  3  2  0  0  0  0
  3  4  1  0  0  0  0
  3 29  1  0  0  0  0
  4 22  2  0  0  0  0
  4  5  1  0  0  0  0
  5  6  2  0  0  0  0
  5 57  1  0  0  0  0
  6  7  1  0  0  0  0
  6 30  1  0  0  0  0
  7  8  1  0  0  0  0
  7 22  1  0  0  0  0
  8  9  1  0  0  0  0
  8 31  1  0  0  0  0
  8 32  1  0  0  0  0
  9 10  1  0  0  0  0
  9 11  1  0  0  0  0
  9 33  1  0  0  0  0
 10 34  1  0  0  0  0
 11 12  1  0  0  0  0
 11 35  1  0  0  0  0
 11 36  1  0  0  0  0
 12 21  1  0  0  0  0
 12 13  1  0  0  0  0
 12 56  1  0  0  0  0
 13 14  1  0  0  0  0
 13 37  1  0  0  0  0
 13 38  1  0  0  0  0
 14 15  1  0  0  0  0
 14 39  1  0  0  0  0
 14 40  1  0  0  0  0
 15 16  1  0  0  0  0
 15 20  1  0  0  0  0
 16 17  1  0  0  0  0
 16 41  1  0  0  0  0
 16 42  1  0  0  0  0
 17 18  1  0  0  0  0
 17 19  1  0  0  0  0
 17 43  1  0  0  0  0
 18 44  1  0  0  0  0
 18 45  1  0  0  0  0
 18 46  1  0  0  0  0
 19 47  1  0  0  0  0
 20 21  1  0  0  0  0
 20 48  1  0  0  0  0
 20 49  1  0  0  0  0
 21 50  1  0  0  0  0
 21 51  1  0  0  0  0
 22 23  1  0  0  0  0
 23 24  2  0  0  0  0
 23 52  1  0  0  0  0
 24 25  1  0  0  0  0
 25 53  1  0  0  0  0
 25 54  1  0  0  0  0
 25 55  1  0  0  0  0
M  CHG  1   5   1
M  CHG  1  12   1
M  END
> <s_m_source_file>
AV-unprocessed.smi

> <i_m_source_file_index>
1033

> <i_lp_mmshare_version>
43012

> <i_f3d_flags>
0

> <s_epik_input>
W0NIM11jKFtjSF0xKWMoW0NIM10pW2NIXWMoYzEyKW4oW2NIXW4yKVtDSDJdW0NASF0oW09IXSlbQ0gyXU4zW0NIMl1bQ0gyXU4oW0NIMl1bQ0gyXTMpW0NIMl1bQ0BIXShbQ0gzXSlbT0hd

> <s_epik_cmdline>
J2VwaWtfcHl0aG9uJywgJy1waCcsICc3LjAnLCAnLXRuJywgJzgnLCAnLW1hJywgJzIwMCcsICctbWV0YWxfYmluZGluZycsICctaW1hZScsICc8aW5maWxlLm1hZT4nLCAnLW9tYWUnLCAnPG91dGZpbGUubWFlPic=

> <r_epik_Ionization_Penalty>
1.22049

> <r_epik_Ionization_Penalty_Charging>
1.17952

> <r_epik_Ionization_Penalty_Neutral>
0.0409743

> <r_epik_State_Penalty>
1.61468

> <r_epik_Charging_Adjusted_Penalty>
2.7942

> <i_epik_Tot_Q>
2

> <i_epik_Tot_abs_Q>
2

> <r_epik_Metal_State_Penalty>
5.63169

> <b_epik_Metal_Only>
0

> <s_lp_Force_Field>
OPLS_2005

> <r_lp_Energy>
46.6999

> <b_lp_Chiralities_Consistent>
1

> <s_lp_Variant>
AV-unprocessed.smi:1033-11

> <Gold.Version>
5.8.1

> <Gold.Id.Protein>
6NUR|6NUR_protein|mol2

> <Gold.PLP.Fitness>
52.4790

> <Gold.PLP.PLP>
-42.9084

> <Gold.PLP.part.hbond>
-3.5708

> <Gold.PLP.part.metal>
0.0000

> <Gold.PLP.part.buried>
-3.8105

> <Gold.PLP.part.nonpolar>
-35.5884

> <Gold.PLP.part.repulsive>
0.0781

> <Gold.PLP.ligand.clash>
0.0000

> <Gold.PLP.ligand.torsion>
1.2856

> <Gold.PLP.Chemscore.Hbond>
4.0000

> <Gold.PLP.Chemscore.CHOScore>
0.0000

> <Gold.PLP.Chemscore.Metal>
0.0000

> <Gold.Chemscore.Hbonds>
donor molecule, donor type, donor heavy atom, donor atom, acceptor molecule, acceptor atom, score
      L1  H    10    34       P1  7957  0.61
      L1  H    12    56       P1 10175  2.00
      P1  H  6934  6946       L1    19  0.98

> <Gold.PLP.Chemscore.Internal.Correction>
0.1418

> <Gold.Rescore>
     Score         DG    S(hbond)    S(metal)    S(lipo)     H(rot)  DE(clash)    DE(int)     intcor
     18.75     -19.72       2.94        0.00     106.69       3.15       0.08       0.88       ----

> <Gold.Chemscore.Fitness>
18.7500

> <Gold.Chemscore.DG>
-19.7167

> <Gold.Chemscore.ZeroCoef>
-5.4800

> <Gold.Chemscore.Hbond>
2.9383

> <Gold.Chemscore.Metal>
0.0000

> <Gold.Chemscore.Lipo>
106.6877

> <Gold.Chemscore.Internal_Hbond>
0.0000

> <Gold.Chemscore.DEClash>
0.0825

> <Gold.Chemscore.DEInternal>
0.8842

> <Gold.Chemscore.Rot>
3.1483

> <Gold.Chemscore.Internal.Correction>
   9.000000E+99

> <Gold.Chemscore.Hbonds>
donor molecule, donor type, donor heavy atom, donor atom, acceptor molecule, acceptor atom, score
      L1  H    10    34       P1  7957  0.58
      L1  H    12    56       P1 10175  0.66
      P1  H  6934  6946       L1    19  0.58

> <Gold.Chemscore.Hbond.Weighted>
-9.8140

> <Gold.Chemscore.Metal.Weighted>
-0.0000

> <Gold.Chemscore.Lipo.Weighted>
-12.4825

> <Gold.Chemscore.Internal_Hbond.Weighted>
0.0000

> <Gold.Chemscore.DEClash.Weighted>
0.0825

> <Gold.Chemscore.DEInternal.Weighted>
0.8842

> <Gold.Chemscore.Rot.Weighted>
8.0597

> <Gold.Chemscore.Internal.Correction.Weighted>
   9.000000E+99

> <Gold.Protein.RotatedTorsions>
[ 6907 6896 6895 6894 ] final  101.75 input  -60.11 | X-H torsion
[ 7974 7965 7964 7962 ] final  114.43 input  175.53 | X-H torsion
[ 8008 7997 7996 7995 ] final  -68.61 input   59.86 | X-H torsion
[ 10167 10162 10161 10158 ] final  -19.20 input  -65.29 | X-H torsion
[ 10718 10713 10712 10709 ] final  178.74 input   66.30 | X-H torsion
[ 10763 10752 10751 10750 ] final -113.21 input  -60.55 | X-H torsion
[ 11005 11000 10999 10996 ] final  136.48 input  -57.11 | X-H torsion

> <Gold.Protein.ActiveResidues>
 VAL166  LYS551  ARG553  GLY616  TRP617  ASP618  TYR619  PRO620  LYS621  CYS622 
 ASP623  PHE694  ASN695  SER759  ASP760  ASP761  ALA762  ILE779  LEU786  VAL792 
 PHE793  MET794  SER795  GLU796  ALA797  LYS798  CYS799  TRP800  GLU811  SER814 

> <Gold.Protein.RotatedAtoms>
  152.5341  134.0079  159.7924 H   0  0  0  0  0  0  0  0  0  0  0  0  # atno 6907 bound_to 6896
  151.0286  133.5803  159.2670 H   0  0  0  0  0  0  0  0  0  0  0  0  # atno 6908 bound_to 6896
  151.2816  135.0722  159.9225 H   0  0  0  0  0  0  0  0  0  0  0  0  # atno 6909 bound_to 6896
  145.2046  139.2936  143.4300 H   0  0  0  0  0  0  0  0  0  0  0  0  # atno 7974 bound_to 7965
  154.4880  140.0869  156.7531 H   0  0  0  0  0  0  0  0  0  0  0  0  # atno 8008 bound_to 7997
  155.4301  140.3449  155.4261 H   0  0  0  0  0  0  0  0  0  0  0  0  # atno 8009 bound_to 7997
  156.1289  140.1495  156.9082 H   0  0  0  0  0  0  0  0  0  0  0  0  # atno 8010 bound_to 7997
  140.7266  143.4841  151.0078 H   0  0  0  0  0  0  0  0  0  0  0  0  # atno 10167 bound_to 10162
  156.8861  130.9832  151.3055 H   0  0  0  0  0  0  0  0  0  0  0  0  # atno 10718 bound_to 10713
  154.8385  135.4462  154.1313 H   0  0  0  0  0  0  0  0  0  0  0  0  # atno 10763 bound_to 10752
  153.2523  135.6928  153.7672 H   0  0  0  0  0  0  0  0  0  0  0  0  # atno 10764 bound_to 10752
  153.6980  135.3376  155.3193 H   0  0  0  0  0  0  0  0  0  0  0  0  # atno 10765 bound_to 10752
  140.0049  134.9463  157.0153 H   0  0  0  0  0  0  0  0  0  0  0  0  # atno 11005 bound_to 11000
  146.3410  140.2301  142.8593 LP  0  0  0  0  0  0  0  0  0  0  0  0  # atno 17320 bound_to 7965
  144.9915  140.8551  143.5337 LP  0  0  0  0  0  0  0  0  0  0  0  0  # atno 17321 bound_to 7965
  139.8542  143.7399  152.3177 LP  0  0  0  0  0  0  0  0  0  0  0  0  # atno 17342 bound_to 10162
  139.7591  144.7512  151.0390 LP  0  0  0  0  0  0  0  0  0  0  0  0  # atno 17343 bound_to 10162
  157.6111  130.8584  149.8954 LP  0  0  0  0  0  0  0  0  0  0  0  0  # atno 17370 bound_to 10713
  156.0652  130.3693  150.0893 LP  0  0  0  0  0  0  0  0  0  0  0  0  # atno 17371 bound_to 10713
  140.4659  134.1436  155.7197 LP  0  0  0  0  0  0  0  0  0  0  0  0  # atno 17394 bound_to 11000
  141.1669  133.8684  157.1686 LP  0  0  0  0  0  0  0  0  0  0  0  0  # atno 17395 bound_to 11000

$$$$
