AV-unprocessed.smi:633|AV-procd|sdf|3132|dock7
  -GOLD-   22720 0 53D 1   1.00000     0.00000
 Structure written by MMmdl.
 53 56  0  0  0  0  0  0  0  0  1 V2000
  151.9649  144.3031  157.7186 C   0  0  0  0  0  0  0  0  0  0  0  0
  151.2207  143.4216  158.7378 C   0  0  1  0  0  0  0  0  0  0  0  0
  150.5334  142.1963  158.1035 C   0  0  0  0  0  0  0  0  0  0  0  0
  151.5103  141.1656  157.7584 N   0  0  0  0  0  0  0  0  0  0  0  0
  151.0876  140.1012  156.9336 C   0  0  0  0  0  0  0  0  0  0  0  0
  151.5591  140.0031  155.6037 C   0  0  0  0  0  0  0  0  0  0  0  0
  151.1272  138.9342  154.7953 C   0  0  0  0  0  0  0  0  0  0  0  0
  150.2241  137.9891  155.3348 C   0  0  0  0  0  0  0  0  0  0  0  0
  149.7336  136.8560  154.6312 N   0  0  0  0  0  0  0  0  0  0  0  0
  149.3451  135.6677  155.1247 C   0  0  0  0  0  0  0  0  0  0  0  0
  149.3949  135.3417  156.3104 O   0  0  0  0  0  0  0  0  0  0  0  0
  148.9082  134.8597  154.1463 N   0  0  0  0  0  0  0  0  0  0  0  0
  148.4159  133.4909  154.2956 C   0  0  0  0  0  0  0  0  0  0  0  0
  149.4678  132.4253  154.0238 C   0  0  0  0  0  0  0  0  0  0  0  0
  149.2879  131.0056  154.5069 C   0  0  0  0  0  0  0  0  0  0  0  0
  150.3425  131.8911  155.1324 C   0  0  0  0  0  0  0  0  0  0  0  0
  147.1414  133.2080  153.5141 C   0  0  0  0  0  0  0  0  0  0  0  0
  146.9003  131.8617  152.8748 C   0  0  0  0  0  0  0  0  0  0  0  0
  147.1586  133.0751  152.0096 C   0  0  0  0  0  0  0  0  0  0  0  0
  149.8172  138.1652  156.6719 C   0  0  0  0  0  0  0  0  0  0  0  0
  150.2264  139.1897  157.4488 N   0  0  0  0  0  0  0  0  0  0  0  0
  152.3726  140.7948  158.8757 C   0  0  0  0  0  0  0  0  0  0  0  0
  153.0542  142.0430  159.4647 C   0  0  2  0  0  0  0  0  0  0  0  0
  153.8600  141.7114  160.7252 C   0  0  0  0  0  0  0  0  0  0  0  0
  152.0651  143.0105  159.8154 O   0  0  0  0  0  0  0  0  0  0  0  0
  151.2712  144.7114  156.9831 H   0  0  0  0  0  0  0  0  0  0  0  0
  152.7264  143.7495  157.1698 H   0  0  0  0  0  0  0  0  0  0  0  0
  152.4519  145.1435  158.2137 H   0  0  0  0  0  0  0  0  0  0  0  0
  150.4430  144.0435  159.1819 H   0  0  0  0  0  0  0  0  0  0  0  0
  149.8142  141.7750  158.8073 H   0  0  0  0  0  0  0  0  0  0  0  0
  149.9746  142.5063  157.2192 H   0  0  0  0  0  0  0  0  0  0  0  0
  152.2360  140.7372  155.1927 H   0  0  0  0  0  0  0  0  0  0  0  0
  151.5058  138.8572  153.7881 H   0  0  0  0  0  0  0  0  0  0  0  0
  149.7195  136.9454  153.6257 H   0  0  0  0  0  0  0  0  0  0  0  0
  148.9153  135.2261  153.2057 H   0  0  0  0  0  0  0  0  0  0  0  0
  148.1578  133.4118  155.3527 H   0  0  0  0  0  0  0  0  0  0  0  0
  149.9483  132.5233  153.0519 H   0  0  0  0  0  0  0  0  0  0  0  0
  148.4089  130.7771  155.1060 H   0  0  0  0  0  0  0  0  0  0  0  0
  149.6256  130.2062  153.8509 H   0  0  0  0  0  0  0  0  0  0  0  0
  151.3830  131.6818  154.8930 H   0  0  0  0  0  0  0  0  0  0  0  0
  150.1593  132.2518  156.1425 H   0  0  0  0  0  0  0  0  0  0  0  0
  146.2600  133.6978  153.9243 H   0  0  0  0  0  0  0  0  0  0  0  0
  147.6913  131.1178  152.9454 H   0  0  0  0  0  0  0  0  0  0  0  0
  145.8861  131.4684  152.9015 H   0  0  0  0  0  0  0  0  0  0  0  0
  146.3163  133.4901  151.4597 H   0  0  0  0  0  0  0  0  0  0  0  0
  148.1196  133.1305  151.5021 H   0  0  0  0  0  0  0  0  0  0  0  0
  149.1369  137.4652  157.1348 H   0  0  0  0  0  0  0  0  0  0  0  0
  151.7640  140.3051  159.6369 H   0  0  0  0  0  0  0  0  0  0  0  0
  153.1368  140.0793  158.5754 H   0  0  0  0  0  0  0  0  0  0  0  0
  153.7389  142.4668  158.7296 H   0  0  0  0  0  0  0  0  0  0  0  0
  154.6410  140.9814  160.5112 H   0  0  0  0  0  0  0  0  0  0  0  0
  153.2197  141.2978  161.5052 H   0  0  0  0  0  0  0  0  0  0  0  0
  154.3401  142.6042  161.1266 H   0  0  0  0  0  0  0  0  0  0  0  0
  1  2  1  0  0  0  0
  1 26  1  0  0  0  0
  1 27  1  0  0  0  0
  1 28  1  0  0  0  0
  2 25  1  0  0  0  0
  2  3  1  0  0  0  0
  2 29  1  0  0  0  0
  3  4  1  0  0  0  0
  3 30  1  0  0  0  0
  3 31  1  0  0  0  0
  4  5  1  0  0  0  0
  4 22  1  0  0  0  0
  5 21  1  0  0  0  0
  5  6  2  0  0  0  0
  6  7  1  0  0  0  0
  6 32  1  0  0  0  0
  7  8  2  0  0  0  0
  7 33  1  0  0  0  0
  8  9  1  0  0  0  0
  8 20  1  0  0  0  0
  9 10  1  0  0  0  0
  9 34  1  0  0  0  0
 10 11  2  0  0  0  0
 10 12  1  0  0  0  0
 12 13  1  0  0  0  0
 12 35  1  0  0  0  0
 13 14  1  0  0  0  0
 13 17  1  0  0  0  0
 13 36  1  0  0  0  0
 14 16  1  0  0  0  0
 14 15  1  0  0  0  0
 14 37  1  0  0  0  0
 15 16  1  0  0  0  0
 15 38  1  0  0  0  0
 15 39  1  0  0  0  0
 16 40  1  0  0  0  0
 16 41  1  0  0  0  0
 17 19  1  0  0  0  0
 17 18  1  0  0  0  0
 17 42  1  0  0  0  0
 18 19  1  0  0  0  0
 18 43  1  0  0  0  0
 18 44  1  0  0  0  0
 19 45  1  0  0  0  0
 19 46  1  0  0  0  0
 20 21  2  0  0  0  0
 20 47  1  0  0  0  0
 22 23  1  0  0  0  0
 22 48  1  0  0  0  0
 22 49  1  0  0  0  0
 23 24  1  0  0  0  0
 23 25  1  0  0  0  0
 23 50  1  0  0  0  0
 24 51  1  0  0  0  0
 24 52  1  0  0  0  0
 24 53  1  0  0  0  0
M  END
> <s_m_source_file>
AV-unprocessed.smi

> <i_m_source_file_index>
633

> <i_lp_mmshare_version>
43012

> <i_f3d_flags>
0

> <s_epik_input>
W0NIM11bQ0BASF0xW0NIMl1OKFtDSDJdW0NASF0oTzEpW0NIM10pYzJbY0hdW2NIXWMoW2NIXW4yKVtOSF1DKD1PKVtOSF1bQ0hdKFtDSF0zW0NIMl1bQ0gyXTMpW0NIXTRbQ0gyXVtDSDJdNA==

> <s_epik_cmdline>
J2VwaWtfcHl0aG9uJywgJy1waCcsICc3LjAnLCAnLXRuJywgJzgnLCAnLW1hJywgJzIwMCcsICctbWV0YWxfYmluZGluZycsICctaW1hZScsICc8aW5maWxlLm1hZT4nLCAnLW9tYWUnLCAnPG91dGZpbGUubWFlPic=

> <r_lp_tautomer_probability>
1

> <r_epik_Ionization_Penalty>
0.00291159

> <r_epik_Ionization_Penalty_Charging>
0

> <r_epik_Ionization_Penalty_Neutral>
0.00291159

> <r_epik_State_Penalty>
0.00200877

> <r_epik_Charging_Adjusted_Penalty>
0.00200877

> <i_epik_Tot_Q>
0

> <i_epik_Tot_abs_Q>
0

> <r_epik_Metal_State_Penalty>
-0

> <b_epik_Metal_Only>
0

> <s_lp_Force_Field>
OPLS_2005

> <r_lp_Energy>
43.3159

> <b_lp_Chiralities_Consistent>
1

> <s_lp_Variant>
AV-unprocessed.smi:633-3

> <Gold.Version>
5.8.1

> <Gold.Id.Protein>
6NUR|6NUR_protein|mol2

> <Gold.PLP.Fitness>
50.4061

> <Gold.PLP.PLP>
-45.6037

> <Gold.PLP.part.hbond>
-2.0000

> <Gold.PLP.part.metal>
0.0000

> <Gold.PLP.part.buried>
-5.6716

> <Gold.PLP.part.nonpolar>
-38.6294

> <Gold.PLP.part.repulsive>
0.0551

> <Gold.PLP.ligand.clash>
0.0000

> <Gold.PLP.ligand.torsion>
1.7653

> <Gold.PLP.Chemscore.Hbond>
1.9440

> <Gold.PLP.Chemscore.CHOScore>
0.0000

> <Gold.PLP.Chemscore.Metal>
0.0000

> <Gold.Chemscore.Hbonds>
donor molecule, donor type, donor heavy atom, donor atom, acceptor molecule, acceptor atom, score
      L1  H     9    34       P1  7948  0.94
      L1  H    12    35       P1  7948  1.00

> <Gold.PLP.Chemscore.Internal.Correction>
2.5010

> <Gold.Rescore>
     Score         DG    S(hbond)    S(metal)    S(lipo)     H(rot)  DE(clash)    DE(int)     intcor
     17.39     -21.53       1.85        0.00     115.20       1.40       0.03       4.11       ----

> <Gold.Chemscore.Fitness>
17.3948

> <Gold.Chemscore.DG>
-21.5333

> <Gold.Chemscore.ZeroCoef>
-5.4800

> <Gold.Chemscore.Hbond>
1.8458

> <Gold.Chemscore.Metal>
0.0000

> <Gold.Chemscore.Lipo>
115.1956

> <Gold.Chemscore.Internal_Hbond>
0.0000

> <Gold.Chemscore.DEClash>
0.0251

> <Gold.Chemscore.DEInternal>
4.1134

> <Gold.Chemscore.Rot>
1.4022

> <Gold.Chemscore.Internal.Correction>
   9.000000E+99

> <Gold.Chemscore.Hbonds>
donor molecule, donor type, donor heavy atom, donor atom, acceptor molecule, acceptor atom, score
      L1  H     9    34       P1  7948  0.56
      L1  H    12    35       P1  7948  0.45

> <Gold.Chemscore.Hbond.Weighted>
-6.1651

> <Gold.Chemscore.Metal.Weighted>
-0.0000

> <Gold.Chemscore.Lipo.Weighted>
-13.4779

> <Gold.Chemscore.Internal_Hbond.Weighted>
0.0000

> <Gold.Chemscore.DEClash.Weighted>
0.0251

> <Gold.Chemscore.DEInternal.Weighted>
4.1134

> <Gold.Chemscore.Rot.Weighted>
3.5897

> <Gold.Chemscore.Internal.Correction.Weighted>
   9.000000E+99

> <Gold.Protein.RotatedTorsions>
[ 6907 6896 6895 6894 ] final -154.03 input  -60.11 | X-H torsion
[ 7974 7965 7964 7962 ] final   19.19 input  175.53 | X-H torsion
[ 8008 7997 7996 7995 ] final -165.44 input   59.86 | X-H torsion
[ 10167 10162 10161 10158 ] final  118.57 input  -65.29 | X-H torsion
[ 10718 10713 10712 10709 ] final  139.20 input   66.30 | X-H torsion
[ 10763 10752 10751 10750 ] final  -78.43 input  -60.55 | X-H torsion
[ 11005 11000 10999 10996 ] final  -25.55 input  -57.11 | X-H torsion

> <Gold.Protein.ActiveResidues>
 VAL166  LYS551  ARG553  GLY616  TRP617  ASP618  TYR619  PRO620  LYS621  CYS622 
 ASP623  PHE694  ASN695  SER759  ASP760  ASP761  ALA762  ILE779  LEU786  VAL792 
 PHE793  MET794  SER795  GLU796  ALA797  LYS798  CYS799  TRP800  GLU811  SER814 

> <Gold.Protein.RotatedAtoms>
  151.2514  133.4348  159.2611 H   0  0  0  0  0  0  0  0  0  0  0  0  # atno 6907 bound_to 6896
  151.0614  134.9739  159.8272 H   0  0  0  0  0  0  0  0  0  0  0  0  # atno 6908 bound_to 6896
  152.5399  134.2464  159.8934 H   0  0  0  0  0  0  0  0  0  0  0  0  # atno 6909 bound_to 6896
  146.2158  139.8348  142.8653 H   0  0  0  0  0  0  0  0  0  0  0  0  # atno 7974 bound_to 7965
  155.8498  140.0961  157.1682 H   0  0  0  0  0  0  0  0  0  0  0  0  # atno 8008 bound_to 7997
  154.3985  140.1385  156.3892 H   0  0  0  0  0  0  0  0  0  0  0  0  # atno 8009 bound_to 7997
  155.7974  140.3454  155.5385 H   0  0  0  0  0  0  0  0  0  0  0  0  # atno 8010 bound_to 7997
  139.6103  144.7080  151.2860 H   0  0  0  0  0  0  0  0  0  0  0  0  # atno 10167 bound_to 10162
  157.4170  131.1034  151.0394 H   0  0  0  0  0  0  0  0  0  0  0  0  # atno 10718 bound_to 10713
  154.5258  135.5730  153.6718 H   0  0  0  0  0  0  0  0  0  0  0  0  # atno 10763 bound_to 10752
  152.9927  135.6192  154.2694 H   0  0  0  0  0  0  0  0  0  0  0  0  # atno 10764 bound_to 10752
  154.2618  135.2856  155.2754 H   0  0  0  0  0  0  0  0  0  0  0  0  # atno 10765 bound_to 10752
  140.8948  133.7564  156.0467 H   0  0  0  0  0  0  0  0  0  0  0  0  # atno 11005 bound_to 11000
  145.2960  141.0181  143.3636 LP  0  0  0  0  0  0  0  0  0  0  0  0  # atno 17320 bound_to 7965
  144.9042  139.4611  143.6618 LP  0  0  0  0  0  0  0  0  0  0  0  0  # atno 17321 bound_to 7965
  140.7314  143.6853  150.7967 LP  0  0  0  0  0  0  0  0  0  0  0  0  # atno 17342 bound_to 10162
  140.0446  143.5311  152.2702 LP  0  0  0  0  0  0  0  0  0  0  0  0  # atno 17343 bound_to 10162
  157.1338  130.6113  149.5536 LP  0  0  0  0  0  0  0  0  0  0  0  0  # atno 17370 bound_to 10713
  155.9868  130.4905  150.7097 LP  0  0  0  0  0  0  0  0  0  0  0  0  # atno 17371 bound_to 10713
  140.8302  134.3187  157.5351 LP  0  0  0  0  0  0  0  0  0  0  0  0  # atno 17394 bound_to 11000
  139.8734  134.9359  156.3646 LP  0  0  0  0  0  0  0  0  0  0  0  0  # atno 17395 bound_to 11000

$$$$
