AV-unprocessed.smi:1406|AV-procd|sdf|5714|dock3
  -GOLD-   22720 5343D 1   1.00000     0.00000
 Structure written by MMmdl.
 41 43  0  0  0  0  0  0  0  0  2 V2000
  150.5000  138.6493  154.0383 C   0  0  0  0  0  0  0  0  0  0  0  0
  150.1841  139.3864  155.3556 C   0  0  1  0  0  0  0  0  0  0  0  0
  151.4156  140.0734  155.9741 C   0  0  0  0  0  0  0  0  0  0  0  0
  152.4411  140.2487  155.3151 O   0  0  0  0  0  0  0  0  0  0  0  0
  151.3027  140.4577  157.2552 N   0  0  0  0  0  0  0  0  0  0  0  0
  152.3279  141.1724  158.0054 C   0  0  2  0  0  0  0  0  0  0  0  0
  152.8182  140.4306  159.2630 C   0  0  0  0  0  0  0  0  0  0  0  0
  153.0338  141.5290  160.3239 C   0  0  0  0  0  0  0  0  0  0  0  0
  152.7622  142.8028  159.6295 N   0  3  2  0  0  0  0  0  0  0  0  0
  152.3464  143.9527  160.4616 C   0  0  0  0  0  0  0  0  0  0  0  0
  152.1880  145.1977  159.5652 C   0  0  0  0  0  0  0  0  0  0  0  0
  151.2504  144.9295  158.3696 C   0  0  0  0  0  0  0  0  0  0  0  0
  151.6804  143.6673  157.5971 C   0  0  0  0  0  0  0  0  0  0  0  0
  151.7916  142.4846  158.5723 C   0  0  1  0  0  0  0  0  0  0  0  0
  149.0905  140.3375  155.1889 N   0  0  0  0  0  0  0  0  0  0  0  0
  148.7803  141.1171  154.1506 C   0  0  0  0  0  0  0  0  0  0  0  0
  147.6778  141.8318  154.3245 N   0  0  0  0  0  0  0  0  0  0  0  0
  147.3324  141.4174  155.5797 C   0  0  0  0  0  0  0  0  0  0  0  0
  148.1384  140.5151  156.1388 N   0  0  0  0  0  0  0  0  0  0  0  0
  151.2572  137.8788  154.1881 H   0  0  0  0  0  0  0  0  0  0  0  0
  150.8668  139.3298  153.2686 H   0  0  0  0  0  0  0  0  0  0  0  0
  149.6097  138.1570  153.6457 H   0  0  0  0  0  0  0  0  0  0  0  0
  149.8503  138.6373  156.0754 H   0  0  0  0  0  0  0  0  0  0  0  0
  150.4307  140.2734  157.7298 H   0  0  0  0  0  0  0  0  0  0  0  0
  153.1817  141.3894  157.3597 H   0  0  0  0  0  0  0  0  0  0  0  0
  152.0750  139.7153  159.6181 H   0  0  0  0  0  0  0  0  0  0  0  0
  153.7347  139.8759  159.0581 H   0  0  0  0  0  0  0  0  0  0  0  0
  152.3332  141.3938  161.1494 H   0  0  0  0  0  0  0  0  0  0  0  0
  154.0445  141.5203  160.7327 H   0  0  0  0  0  0  0  0  0  0  0  0
  151.4076  143.7250  160.9688 H   0  0  0  0  0  0  0  0  0  0  0  0
  153.0947  144.1367  161.2331 H   0  0  0  0  0  0  0  0  0  0  0  0
  151.8135  146.0364  160.1529 H   0  0  0  0  0  0  0  0  0  0  0  0
  153.1675  145.4986  159.1912 H   0  0  0  0  0  0  0  0  0  0  0  0
  150.2294  144.8028  158.7317 H   0  0  0  0  0  0  0  0  0  0  0  0
  151.2362  145.7919  157.7024 H   0  0  0  0  0  0  0  0  0  0  0  0
  150.9590  143.4437  156.8104 H   0  0  0  0  0  0  0  0  0  0  0  0
  152.6381  143.8414  157.1048 H   0  0  0  0  0  0  0  0  0  0  0  0
  150.8191  142.3041  159.0372 H   0  0  0  0  0  0  0  0  0  0  0  0
  149.3686  141.1568  153.2455 H   0  0  0  0  0  0  0  0  0  0  0  0
  146.4565  141.7855  156.0936 H   0  0  0  0  0  0  0  0  0  0  0  0
  153.6188  143.0629  159.1617 H   0  0  0  0  0  0  0  0  0  0  0  0
  1  2  1  0  0  0  0
  1 20  1  0  0  0  0
  1 21  1  0  0  0  0
  1 22  1  0  0  0  0
  2  3  1  0  0  0  0
  2 15  1  0  0  0  0
  2 23  1  0  0  0  0
  3  4  2  0  0  0  0
  3  5  1  0  0  0  0
  5  6  1  0  0  0  0
  5 24  1  0  0  0  0
  6 14  1  0  0  0  0
  6  7  1  0  0  0  0
  6 25  1  0  0  0  0
  7  8  1  0  0  0  0
  7 26  1  0  0  0  0
  7 27  1  0  0  0  0
  8  9  1  0  0  0  0
  8 28  1  0  0  0  0
  8 29  1  0  0  0  0
  9 14  1  0  0  0  0
  9 10  1  0  0  0  0
  9 41  1  0  0  0  0
 10 11  1  0  0  0  0
 10 30  1  0  0  0  0
 10 31  1  0  0  0  0
 11 12  1  0  0  0  0
 11 32  1  0  0  0  0
 11 33  1  0  0  0  0
 12 13  1  0  0  0  0
 12 34  1  0  0  0  0
 12 35  1  0  0  0  0
 13 14  1  0  0  0  0
 13 36  1  0  0  0  0
 13 37  1  0  0  0  0
 14 38  1  0  0  0  0
 15 19  1  0  0  0  0
 15 16  1  0  0  0  0
 16 17  2  0  0  0  0
 16 39  1  0  0  0  0
 17 18  1  0  0  0  0
 18 19  2  0  0  0  0
 18 40  1  0  0  0  0
M  CHG  1   9   1
M  END
> <s_m_source_file>
AV-unprocessed.smi

> <i_m_source_file_index>
1406

> <i_lp_mmshare_version>
43012

> <i_f3d_flags>
0

> <s_epik_input>
bjFbY0hdbltjSF1uMVtDQEhdKFtDSDNdKUMoPU8pW05IXVtDQEhdKFtDSDJdW0NIMl0yKVtDQEBIXShOMjMpW0NIMl1bQ0gyXVtDSDJdW0NIMl0z

> <s_epik_cmdline>
J2VwaWtfcHl0aG9uJywgJy1waCcsICc3LjAnLCAnLXRuJywgJzgnLCAnLW1hJywgJzIwMCcsICctbWV0YWxfYmluZGluZycsICctaW1hZScsICc8aW5maWxlLm1hZT4nLCAnLW9tYWUnLCAnPG91dGZpbGUubWFlPic=

> <r_lp_tautomer_probability>
1

> <r_epik_Ionization_Penalty>
0.00197066

> <r_epik_Ionization_Penalty_Charging>
0.00196223

> <r_epik_Ionization_Penalty_Neutral>
8.43107e-06

> <r_epik_State_Penalty>
0.00133866

> <r_epik_Charging_Adjusted_Penalty>
0.00330089

> <i_epik_Tot_Q>
1

> <i_epik_Tot_abs_Q>
1

> <r_epik_Metal_State_Penalty>
-0

> <b_epik_Metal_Only>
0

> <s_lp_Force_Field>
OPLS_2005

> <r_lp_Energy>
39.7

> <b_lp_Chiralities_Consistent>
1

> <s_lp_Variant>
AV-unprocessed.smi:1406-6

> <Gold.Version>
5.8.1

> <Gold.Id.Protein>
6NUR|6NUR_protein|mol2

> <Gold.PLP.Fitness>
43.8283

> <Gold.PLP.PLP>
-38.3018

> <Gold.PLP.part.hbond>
-2.0000

> <Gold.PLP.part.metal>
0.0000

> <Gold.PLP.part.buried>
-4.2763

> <Gold.PLP.part.nonpolar>
-30.4529

> <Gold.PLP.part.repulsive>
0.3134

> <Gold.PLP.ligand.clash>
0.0000

> <Gold.PLP.ligand.torsion>
0.9638

> <Gold.PLP.Chemscore.Hbond>
1.4482

> <Gold.PLP.Chemscore.CHOScore>
1.0000

> <Gold.PLP.Chemscore.Metal>
0.0000

> <Gold.Chemscore.Hbonds>
donor molecule, donor type, donor heavy atom, donor atom, acceptor molecule, acceptor atom, score
      P1  H  7989  7998       L1     4  0.50
      P1  H  7997  8010       L1     4  0.89
      L1  C    16    39       P1  7957  1.00

> <Gold.PLP.Chemscore.Internal.Correction>
0.1095

> <Gold.Rescore>
     Score         DG    S(hbond)    S(metal)    S(lipo)     H(rot)  DE(clash)    DE(int)     intcor
     15.30     -15.99       1.19        0.00      97.24       1.89       0.06       0.63       ----

> <Gold.Chemscore.Fitness>
15.3025

> <Gold.Chemscore.DG>
-15.9917

> <Gold.Chemscore.ZeroCoef>
-5.4800

> <Gold.Chemscore.Hbond>
1.1868

> <Gold.Chemscore.Metal>
0.0000

> <Gold.Chemscore.Lipo>
97.2413

> <Gold.Chemscore.Internal_Hbond>
0.0000

> <Gold.Chemscore.DEClash>
0.0575

> <Gold.Chemscore.DEInternal>
0.6316

> <Gold.Chemscore.Rot>
1.8865

> <Gold.Chemscore.Internal.Correction>
   9.000000E+99

> <Gold.Chemscore.Hbonds>
donor molecule, donor type, donor heavy atom, donor atom, acceptor molecule, acceptor atom, score
      P1  H  7989  7998       L1     4  0.17
      P1  H  7997  8010       L1     4  0.87

> <Gold.Chemscore.Hbond.Weighted>
-3.9640

> <Gold.Chemscore.Metal.Weighted>
-0.0000

> <Gold.Chemscore.Lipo.Weighted>
-11.3772

> <Gold.Chemscore.Internal_Hbond.Weighted>
0.0000

> <Gold.Chemscore.DEClash.Weighted>
0.0575

> <Gold.Chemscore.DEInternal.Weighted>
0.6316

> <Gold.Chemscore.Rot.Weighted>
4.8295

> <Gold.Chemscore.Internal.Correction.Weighted>
   9.000000E+99

> <Gold.Protein.RotatedTorsions>
[ 6907 6896 6895 6894 ] final  -53.94 input  -60.11 | X-H torsion
[ 7974 7965 7964 7962 ] final  -25.60 input  175.53 | X-H torsion
[ 8008 7997 7996 7995 ] final   97.86 input   59.86 | X-H torsion
[ 10167 10162 10161 10158 ] final   29.52 input  -65.29 | X-H torsion
[ 10718 10713 10712 10709 ] final -103.95 input   66.30 | X-H torsion
[ 10763 10752 10751 10750 ] final  116.65 input  -60.55 | X-H torsion
[ 11005 11000 10999 10996 ] final -157.37 input  -57.11 | X-H torsion

> <Gold.Protein.ActiveResidues>
 VAL166  LYS551  ARG553  GLY616  TRP617  ASP618  TYR619  PRO620  LYS621  CYS622 
 ASP623  PHE694  ASN695  SER759  ASP760  ASP761  ALA762  ILE779  LEU786  VAL792 
 PHE793  MET794  SER795  GLU796  ALA797  LYS798  CYS799  TRP800  GLU811  SER814 

> <Gold.Protein.RotatedAtoms>
  150.8382  134.7663  159.6910 H   0  0  0  0  0  0  0  0  0  0  0  0  # atno 6907 bound_to 6896
  152.4475  134.5461  159.9863 H   0  0  0  0  0  0  0  0  0  0  0  0  # atno 6908 bound_to 6896
  151.5607  133.3366  159.3006 H   0  0  0  0  0  0  0  0  0  0  0  0  # atno 6909 bound_to 6896
  146.1481  140.4908  142.8623 H   0  0  0  0  0  0  0  0  0  0  0  0  # atno 7974 bound_to 7965
  156.0945  140.3252  155.7859 H   0  0  0  0  0  0  0  0  0  0  0  0  # atno 8008 bound_to 7997
  155.4941  140.0564  157.2966 H   0  0  0  0  0  0  0  0  0  0  0  0  # atno 8009 bound_to 7997
  154.4658  140.1988  156.0139 H   0  0  0  0  0  0  0  0  0  0  0  0  # atno 8010 bound_to 7997
  140.4758  144.0692  150.6250 H   0  0  0  0  0  0  0  0  0  0  0  0  # atno 10167 bound_to 10162
  156.0285  130.5491  150.7326 H   0  0  0  0  0  0  0  0  0  0  0  0  # atno 10718 bound_to 10713
  153.5404  135.3560  155.2716 H   0  0  0  0  0  0  0  0  0  0  0  0  # atno 10763 bound_to 10752
  154.8718  135.4090  154.3050 H   0  0  0  0  0  0  0  0  0  0  0  0  # atno 10764 bound_to 10752
  153.3756  135.7066  153.6672 H   0  0  0  0  0  0  0  0  0  0  0  0  # atno 10765 bound_to 10752
  140.6654  134.4305  157.5233 H   0  0  0  0  0  0  0  0  0  0  0  0  # atno 11005 bound_to 11000
  144.7870  140.5956  143.6567 LP  0  0  0  0  0  0  0  0  0  0  0  0  # atno 17320 bound_to 7965
  145.4890  139.1490  143.3720 LP  0  0  0  0  0  0  0  0  0  0  0  0  # atno 17321 bound_to 7965
  140.3919  143.2748  152.0049 LP  0  0  0  0  0  0  0  0  0  0  0  0  # atno 17342 bound_to 10162
  139.4825  144.6070  151.7504 LP  0  0  0  0  0  0  0  0  0  0  0  0  # atno 17343 bound_to 10162
  157.4915  131.0911  151.0422 LP  0  0  0  0  0  0  0  0  0  0  0  0  # atno 17370 bound_to 10713
  157.0827  130.5910  149.5424 LP  0  0  0  0  0  0  0  0  0  0  0  0  # atno 17371 bound_to 10713
  139.8999  134.8580  156.1941 LP  0  0  0  0  0  0  0  0  0  0  0  0  # atno 17394 bound_to 11000
  141.0433  133.6926  156.1638 LP  0  0  0  0  0  0  0  0  0  0  0  0  # atno 17395 bound_to 11000

$$$$
