AV-unprocessed.smi:1667|AV-procd|sdf|6673|dock2
  -GOLD-   22720 7383D 1   1.00000     0.00000
 Structure written by MMmdl.
 45 47  0  0  0  0  0  0  0  0  1 V2000
  150.6390  134.2510  154.5889 C   0  0  0  0  0  0  0  0  0  0  0  0
  151.0531  135.5273  155.3128 C   0  0  0  0  0  0  0  0  0  0  0  0
  151.2247  135.5124  156.5305 O   0  0  0  0  0  0  0  0  0  0  0  0
  151.2080  136.6165  154.5410 N   0  0  0  0  0  0  0  0  0  0  0  0
  151.6115  137.9639  154.9518 C   0  0  1  0  0  0  0  0  0  0  0  0
  152.9800  138.3948  154.3888 C   0  0  0  0  0  0  0  0  0  0  0  0
  150.4916  138.9402  154.6771 C   0  0  0  0  0  0  0  0  0  0  0  0
  149.4190  138.5986  153.9592 N   0  0  0  0  0  0  0  0  0  0  0  0
  148.6321  139.7292  154.0163 C   0  0  0  0  0  0  0  0  0  0  0  0
  147.3653  139.9934  153.4487 C   0  0  0  0  0  0  0  0  0  0  0  0
  146.7365  141.2384  153.6551 C   0  0  0  0  0  0  0  0  0  0  0  0
  147.3635  142.2331  154.4324 C   0  0  0  0  0  0  0  0  0  0  0  0
  148.6256  141.9887  155.0068 C   0  0  0  0  0  0  0  0  0  0  0  0
  149.2528  140.7459  154.7933 C   0  0  0  0  0  0  0  0  0  0  0  0
  150.4648  140.1952  155.2042 N   0  0  0  0  0  0  0  0  0  0  0  0
  151.4577  140.8541  156.0504 C   0  0  0  0  0  0  0  0  0  0  0  0
  150.9220  141.2920  157.4345 C   0  0  2  0  0  0  0  0  0  0  0  0
  150.3843  142.5979  157.3657 O   0  0  0  0  0  0  0  0  0  0  0  0
  151.9497  141.1377  158.5480 C   0  0  0  0  0  0  0  0  0  0  0  0
  152.3363  142.2426  159.3402 C   0  0  0  0  0  0  0  0  0  0  0  0
  153.3007  142.0872  160.3544 C   0  0  0  0  0  0  0  0  0  0  0  0
  153.8878  140.8280  160.5816 C   0  0  0  0  0  0  0  0  0  0  0  0
  153.5075  139.7234  159.7957 C   0  0  0  0  0  0  0  0  0  0  0  0
  154.0741  138.5127  160.0103 F   0  0  0  0  0  0  0  0  0  0  0  0
  152.5401  139.8776  158.7838 C   0  0  0  0  0  0  0  0  0  0  0  0
  151.7563  137.9022  156.0271 H   0  0  0  0  0  0  0  0  0  0  0  0
  149.6813  134.3905  154.0870 H   0  0  0  0  0  0  0  0  0  0  0  0
  150.5390  133.4223  155.2905 H   0  0  0  0  0  0  0  0  0  0  0  0
  151.3850  133.9776  153.8424 H   0  0  0  0  0  0  0  0  0  0  0  0
  151.0346  136.4979  153.5536 H   0  0  0  0  0  0  0  0  0  0  0  0
  153.2847  139.3549  154.8052 H   0  0  0  0  0  0  0  0  0  0  0  0
  152.9672  138.5008  153.3042 H   0  0  0  0  0  0  0  0  0  0  0  0
  153.7522  137.6680  154.6415 H   0  0  0  0  0  0  0  0  0  0  0  0
  146.8754  139.2351  152.8560 H   0  0  0  0  0  0  0  0  0  0  0  0
  145.7677  141.4298  153.2176 H   0  0  0  0  0  0  0  0  0  0  0  0
  146.8751  143.1839  154.5881 H   0  0  0  0  0  0  0  0  0  0  0  0
  149.1068  142.7497  155.6026 H   0  0  0  0  0  0  0  0  0  0  0  0
  152.2878  140.1603  156.1889 H   0  0  0  0  0  0  0  0  0  0  0  0
  151.8847  141.7042  155.5195 H   0  0  0  0  0  0  0  0  0  0  0  0
  150.0804  140.6434  157.6805 H   0  0  0  0  0  0  0  0  0  0  0  0
  149.7767  142.6339  156.6429 H   0  0  0  0  0  0  0  0  0  0  0  0
  151.9039  143.2172  159.1668 H   0  0  0  0  0  0  0  0  0  0  0  0
  153.5951  142.9362  160.9533 H   0  0  0  0  0  0  0  0  0  0  0  0
  154.6306  140.7103  161.3565 H   0  0  0  0  0  0  0  0  0  0  0  0
  152.2585  139.0255  158.1827 H   0  0  0  0  0  0  0  0  0  0  0  0
  1  2  1  0  0  0  0
  1 27  1  0  0  0  0
  1 28  1  0  0  0  0
  1 29  1  0  0  0  0
  2  3  2  0  0  0  0
  2  4  1  0  0  0  0
  4  5  1  0  0  0  0
  4 30  1  0  0  0  0
  5 26  1  0  0  0  0
  5  6  1  0  0  0  0
  5  7  1  0  0  0  0
  6 31  1  0  0  0  0
  6 32  1  0  0  0  0
  6 33  1  0  0  0  0
  7 15  1  0  0  0  0
  7  8  2  0  0  0  0
  8  9  1  0  0  0  0
  9 14  2  0  0  0  0
  9 10  1  0  0  0  0
 10 11  2  0  0  0  0
 10 34  1  0  0  0  0
 11 12  1  0  0  0  0
 11 35  1  0  0  0  0
 12 13  2  0  0  0  0
 12 36  1  0  0  0  0
 13 14  1  0  0  0  0
 13 37  1  0  0  0  0
 14 15  1  0  0  0  0
 15 16  1  0  0  0  0
 16 17  1  0  0  0  0
 16 38  1  0  0  0  0
 16 39  1  0  0  0  0
 17 18  1  0  0  0  0
 17 19  1  0  0  0  0
 17 40  1  0  0  0  0
 18 41  1  0  0  0  0
 19 25  1  0  0  0  0
 19 20  2  0  0  0  0
 20 21  1  0  0  0  0
 20 42  1  0  0  0  0
 21 22  2  0  0  0  0
 21 43  1  0  0  0  0
 22 23  1  0  0  0  0
 22 44  1  0  0  0  0
 23 24  1  0  0  0  0
 23 25  2  0  0  0  0
 25 45  1  0  0  0  0
M  END
> <s_m_source_file>
AV-unprocessed.smi

> <i_m_source_file_index>
1667

> <i_lp_mmshare_version>
43012

> <i_f3d_flags>
0

> <s_epik_input>
W0NIM11DKD1PKVtOSF1bQ0BASF0oW0NIM10pYyhuMSluKGMoYzEyKVtjSF1bY0hdW2NIXVtjSF0yKVtDSDJdW0NASF0oW09IXSljM1tjSF1bY0hdW2NIXWMoRilbY0hdMw==

> <s_epik_cmdline>
J2VwaWtfcHl0aG9uJywgJy1waCcsICc3LjAnLCAnLXRuJywgJzgnLCAnLW1hJywgJzIwMCcsICctbWV0YWxfYmluZGluZycsICctaW1hZScsICc8aW5maWxlLm1hZT4nLCAnLW9tYWUnLCAnPG91dGZpbGUubWFlPic=

> <r_epik_Ionization_Penalty>
0.133011

> <r_epik_Ionization_Penalty_Charging>
0

> <r_epik_Ionization_Penalty_Neutral>
0.133011

> <r_epik_State_Penalty>
0.122384

> <r_epik_Charging_Adjusted_Penalty>
0.122384

> <i_epik_Tot_Q>
0

> <i_epik_Tot_abs_Q>
0

> <r_epik_Metal_State_Penalty>
0.0997374

> <b_epik_Metal_Only>
0

> <s_lp_Force_Field>
OPLS_2005

> <r_lp_Energy>
8.264

> <b_lp_Chiralities_Consistent>
1

> <s_lp_Variant>
AV-unprocessed.smi:1667-1

> <Gold.Version>
5.8.1

> <Gold.Id.Protein>
6NUR|6NUR_protein|mol2

> <Gold.PLP.Fitness>
51.5071

> <Gold.PLP.PLP>
-51.6140

> <Gold.PLP.part.hbond>
-1.5963

> <Gold.PLP.part.metal>
0.0000

> <Gold.PLP.part.buried>
-1.7677

> <Gold.PLP.part.nonpolar>
-48.1793

> <Gold.PLP.part.repulsive>
0.3105

> <Gold.PLP.ligand.clash>
0.0000

> <Gold.PLP.ligand.torsion>
0.6214

> <Gold.PLP.Chemscore.Hbond>
0.3040

> <Gold.PLP.Chemscore.CHOScore>
0.0000

> <Gold.PLP.Chemscore.Metal>
0.0000

> <Gold.Chemscore.Hbonds>
donor molecule, donor type, donor heavy atom, donor atom, acceptor molecule, acceptor atom, score
      L1  H     4    30       P1  7949  0.76

> <Gold.PLP.Chemscore.Internal.Correction>
0.2240

> <Gold.Rescore>
     Score         DG    S(hbond)    S(metal)    S(lipo)     H(rot)  DE(clash)    DE(int)     intcor
     14.48     -15.90       0.51        0.00     128.62       2.48       0.50       0.93       ----

> <Gold.Chemscore.Fitness>
14.4751

> <Gold.Chemscore.DG>
-15.9015

> <Gold.Chemscore.ZeroCoef>
-5.4800

> <Gold.Chemscore.Hbond>
0.5125

> <Gold.Chemscore.Metal>
0.0000

> <Gold.Chemscore.Lipo>
128.6181

> <Gold.Chemscore.Internal_Hbond>
0.0000

> <Gold.Chemscore.DEClash>
0.4953

> <Gold.Chemscore.DEInternal>
0.9310

> <Gold.Chemscore.Rot>
2.4760

> <Gold.Chemscore.Internal.Correction>
   9.000000E+99

> <Gold.Chemscore.Hbonds>
donor molecule, donor type, donor heavy atom, donor atom, acceptor molecule, acceptor atom, score
      L1  H     4    30       P1  7949  0.22
      L1  H    18    41       P1  8028  0.02

> <Gold.Chemscore.Hbond.Weighted>
-1.7117

> <Gold.Chemscore.Metal.Weighted>
-0.0000

> <Gold.Chemscore.Lipo.Weighted>
-15.0483

> <Gold.Chemscore.Internal_Hbond.Weighted>
0.0000

> <Gold.Chemscore.DEClash.Weighted>
0.4953

> <Gold.Chemscore.DEInternal.Weighted>
0.9310

> <Gold.Chemscore.Rot.Weighted>
6.3385

> <Gold.Chemscore.Internal.Correction.Weighted>
   9.000000E+99

> <Gold.Protein.RotatedTorsions>
[ 6907 6896 6895 6894 ] final  109.61 input  -60.11 | X-H torsion
[ 7974 7965 7964 7962 ] final  -11.13 input  175.53 | X-H torsion
[ 8008 7997 7996 7995 ] final   99.43 input   59.86 | X-H torsion
[ 10167 10162 10161 10158 ] final  -30.12 input  -65.29 | X-H torsion
[ 10718 10713 10712 10709 ] final  -51.10 input   66.30 | X-H torsion
[ 10763 10752 10751 10750 ] final   10.90 input  -60.55 | X-H torsion
[ 11005 11000 10999 10996 ] final  157.52 input  -57.11 | X-H torsion

> <Gold.Protein.ActiveResidues>
 VAL166  LYS551  ARG553  GLY616  TRP617  ASP618  TYR619  PRO620  LYS621  CYS622 
 ASP623  PHE694  ASN695  SER759  ASP760  ASP761  ALA762  ILE779  LEU786  VAL792 
 PHE793  MET794  SER795  GLU796  ALA797  LYS798  CYS799  TRP800  GLU811  SER814 

> <Gold.Protein.RotatedAtoms>
  152.5059  133.8919  159.7397 H   0  0  0  0  0  0  0  0  0  0  0  0  # atno 6907 bound_to 6896
  150.9355  133.6708  159.2808 H   0  0  0  0  0  0  0  0  0  0  0  0  # atno 6908 bound_to 6896
  151.4037  135.0979  159.9616 H   0  0  0  0  0  0  0  0  0  0  0  0  # atno 6909 bound_to 6896
  146.2198  140.2866  142.8365 H   0  0  0  0  0  0  0  0  0  0  0  0  # atno 7974 bound_to 7965
  156.1104  140.3229  155.8065 H   0  0  0  0  0  0  0  0  0  0  0  0  # atno 8008 bound_to 7997
  155.4682  140.0544  157.3000 H   0  0  0  0  0  0  0  0  0  0  0  0  # atno 8009 bound_to 7997
  154.4756  140.2031  155.9900 H   0  0  0  0  0  0  0  0  0  0  0  0  # atno 8010 bound_to 7997
  140.7253  143.3874  151.1491 H   0  0  0  0  0  0  0  0  0  0  0  0  # atno 10167 bound_to 10162
  156.1740  130.4149  149.9604 H   0  0  0  0  0  0  0  0  0  0  0  0  # atno 10718 bound_to 10713
  153.1983  135.6852  153.8264 H   0  0  0  0  0  0  0  0  0  0  0  0  # atno 10763 bound_to 10752
  153.7539  135.3220  155.3327 H   0  0  0  0  0  0  0  0  0  0  0  0  # atno 10764 bound_to 10752
  154.8157  135.4687  154.0737 H   0  0  0  0  0  0  0  0  0  0  0  0  # atno 10765 bound_to 10752
  140.1777  134.8498  157.2766 H   0  0  0  0  0  0  0  0  0  0  0  0  # atno 11005 bound_to 11000
  144.9157  140.7810  143.5779 LP  0  0  0  0  0  0  0  0  0  0  0  0  # atno 17320 bound_to 7965
  145.2800  139.1922  143.4796 LP  0  0  0  0  0  0  0  0  0  0  0  0  # atno 17321 bound_to 7965
  139.7473  143.8832  152.3067 LP  0  0  0  0  0  0  0  0  0  0  0  0  # atno 17342 bound_to 10162
  139.8673  144.7086  150.9028 LP  0  0  0  0  0  0  0  0  0  0  0  0  # atno 17343 bound_to 10162
  156.7396  130.9074  151.3631 LP  0  0  0  0  0  0  0  0  0  0  0  0  # atno 17370 bound_to 10713
  157.6823  130.9151  150.0297 LP  0  0  0  0  0  0  0  0  0  0  0  0  # atno 17371 bound_to 10713
  140.2303  134.3917  155.7525 LP  0  0  0  0  0  0  0  0  0  0  0  0  # atno 17394 bound_to 11000
  141.2221  133.7211  156.8631 LP  0  0  0  0  0  0  0  0  0  0  0  0  # atno 17395 bound_to 11000

$$$$
