AV-unprocessed.smi:3288|AV-procd|sdf|12606|dock1
  -GOLD-   2272018533D 1   1.00000     0.00000
 Structure written by MMmdl.
 38 39  0  0  0  0  0  0  0  0  1 V2000
  156.6958  137.7558  153.3500 C   0  0  0  0  0  0  0  0  0  0  0  0
  155.4130  137.5235  153.9093 O   0  0  0  0  0  0  0  0  0  0  0  0
  154.7948  138.6874  154.4401 C   0  0  0  0  0  0  0  0  0  0  0  0
  153.2920  138.4824  154.6801 C   0  0  0  0  0  0  0  0  0  0  0  0
  152.8594  139.4274  155.6538 O   0  0  0  0  0  0  0  0  0  0  0  0
  151.5800  139.9419  155.5609 C   0  0  0  0  0  0  0  0  0  0  0  0
  150.8491  139.6577  154.4536 N   0  0  0  0  0  0  0  0  0  0  0  0
  149.6011  140.1601  154.3608 C   0  0  0  0  0  0  0  0  0  0  0  0
  149.0194  140.9650  155.3569 C   0  0  0  0  0  0  0  0  0  0  0  0
  149.7758  141.2589  156.5062 C   0  0  0  0  0  0  0  0  0  0  0  0
  151.0878  140.7406  156.6209 C   0  0  0  0  0  0  0  0  0  0  0  0
  151.9131  140.9750  157.7330 N   0  0  0  0  0  0  0  0  0  0  0  0
  151.6908  142.0733  158.6654 C   0  0  0  0  0  0  0  0  0  0  0  0
  151.5511  143.4240  157.9412 C   0  0  0  0  0  0  0  0  0  0  0  0
  151.4230  144.5690  158.9595 C   0  0  0  0  0  0  0  0  0  0  0  0
  152.5450  144.5704  159.8364 O   0  0  0  0  0  0  0  0  0  0  0  0
  152.6541  143.3754  160.6030 C   0  0  0  0  0  0  0  0  0  0  0  0
  152.8481  142.1693  159.6698 C   0  0  0  0  0  0  0  0  0  0  0  0
  157.0740  136.8304  152.9158 H   0  0  0  0  0  0  0  0  0  0  0  0
  157.4130  138.0843  154.1021 H   0  0  0  0  0  0  0  0  0  0  0  0
  156.6519  138.5029  152.5564 H   0  0  0  0  0  0  0  0  0  0  0  0
  155.2983  139.0211  155.3487 H   0  0  0  0  0  0  0  0  0  0  0  0
  154.9270  139.4815  153.7048 H   0  0  0  0  0  0  0  0  0  0  0  0
  152.7504  138.6342  153.7451 H   0  0  0  0  0  0  0  0  0  0  0  0
  153.0949  137.4676  155.0272 H   0  0  0  0  0  0  0  0  0  0  0  0
  149.0492  139.9132  153.4660 H   0  0  0  0  0  0  0  0  0  0  0  0
  148.0160  141.3472  155.2427 H   0  0  0  0  0  0  0  0  0  0  0  0
  149.3366  141.8749  157.2757 H   0  0  0  0  0  0  0  0  0  0  0  0
  152.7367  140.4032  157.8573 H   0  0  0  0  0  0  0  0  0  0  0  0
  150.7826  141.8734  159.2342 H   0  0  0  0  0  0  0  0  0  0  0  0
  152.4234  143.5995  157.3101 H   0  0  0  0  0  0  0  0  0  0  0  0
  150.6851  143.4231  157.2794 H   0  0  0  0  0  0  0  0  0  0  0  0
  151.3814  145.5271  158.4415 H   0  0  0  0  0  0  0  0  0  0  0  0
  150.4997  144.4773  159.5335 H   0  0  0  0  0  0  0  0  0  0  0  0
  153.5054  143.4669  161.2778 H   0  0  0  0  0  0  0  0  0  0  0  0
  151.7672  143.2473  161.2253 H   0  0  0  0  0  0  0  0  0  0  0  0
  152.9150  141.2529  160.2572 H   0  0  0  0  0  0  0  0  0  0  0  0
  153.7965  142.2724  159.1402 H   0  0  0  0  0  0  0  0  0  0  0  0
  1  2  1  0  0  0  0
  1 19  1  0  0  0  0
  1 20  1  0  0  0  0
  1 21  1  0  0  0  0
  2  3  1  0  0  0  0
  3  4  1  0  0  0  0
  3 22  1  0  0  0  0
  3 23  1  0  0  0  0
  4  5  1  0  0  0  0
  4 24  1  0  0  0  0
  4 25  1  0  0  0  0
  5  6  1  0  0  0  0
  6 11  1  0  0  0  0
  6  7  2  0  0  0  0
  7  8  1  0  0  0  0
  8  9  2  0  0  0  0
  8 26  1  0  0  0  0
  9 10  1  0  0  0  0
  9 27  1  0  0  0  0
 10 11  2  0  0  0  0
 10 28  1  0  0  0  0
 11 12  1  0  0  0  0
 12 13  1  0  0  0  0
 12 29  1  0  0  0  0
 13 18  1  0  0  0  0
 13 14  1  0  0  0  0
 13 30  1  0  0  0  0
 14 15  1  0  0  0  0
 14 31  1  0  0  0  0
 14 32  1  0  0  0  0
 15 16  1  0  0  0  0
 15 33  1  0  0  0  0
 15 34  1  0  0  0  0
 16 17  1  0  0  0  0
 17 18  1  0  0  0  0
 17 35  1  0  0  0  0
 17 36  1  0  0  0  0
 18 37  1  0  0  0  0
 18 38  1  0  0  0  0
M  END
> <s_m_source_file>
AV-unprocessed.smi

> <i_m_source_file_index>
3288

> <i_lp_mmshare_version>
43012

> <i_f3d_flags>
0

> <s_epik_input>
W0NIM11PW0NIMl1bQ0gyXU9jMW5bY0hdW2NIXVtjSF1jMVtOSF1bQ0hdMltDSDJdW0NIMl1PW0NIMl1bQ0gyXTI=

> <s_epik_cmdline>
J2VwaWtfcHl0aG9uJywgJy1waCcsICc3LjAnLCAnLXRuJywgJzgnLCAnLW1hJywgJzIwMCcsICctbWV0YWxfYmluZGluZycsICctaW1hZScsICc8aW5maWxlLm1hZT4nLCAnLW9tYWUnLCAnPG91dGZpbGUubWFlPic=

> <r_lp_tautomer_probability>
1

> <r_epik_Ionization_Penalty>
0.000236303

> <r_epik_Ionization_Penalty_Charging>
0

> <r_epik_Ionization_Penalty_Neutral>
0.000236303

> <r_epik_State_Penalty>
-0

> <r_epik_Charging_Adjusted_Penalty>
0

> <i_epik_Tot_Q>
0

> <i_epik_Tot_abs_Q>
0

> <r_epik_Metal_State_Penalty>
-0

> <b_epik_Metal_Only>
0

> <s_lp_Force_Field>
OPLS_2005

> <r_lp_Energy>
13.3054

> <b_lp_Chiralities_Consistent>
1

> <s_lp_Variant>
AV-unprocessed.smi:3288-1

> <Gold.Version>
5.8.1

> <Gold.Id.Protein>
6NUR|6NUR_protein|mol2

> <Gold.PLP.Fitness>
46.2063

> <Gold.PLP.PLP>
-37.6537

> <Gold.PLP.part.hbond>
-3.0000

> <Gold.PLP.part.metal>
0.0000

> <Gold.PLP.part.buried>
-0.5337

> <Gold.PLP.part.nonpolar>
-34.2984

> <Gold.PLP.part.repulsive>
0.2264

> <Gold.PLP.ligand.clash>
0.0000

> <Gold.PLP.ligand.torsion>
0.5981

> <Gold.PLP.Chemscore.Hbond>
2.1960

> <Gold.PLP.Chemscore.CHOScore>
1.0000

> <Gold.PLP.Chemscore.Metal>
0.0000

> <Gold.Chemscore.Hbonds>
donor molecule, donor type, donor heavy atom, donor atom, acceptor molecule, acceptor atom, score
      P1  H  7989  7998       L1     7  0.60
      P1  H  7997  8008       L1     5  1.00
      P1  H 10752 10763       L1     2  0.47
      L1  C     8    26       P1  7957  1.00

> <Gold.PLP.Chemscore.Internal.Correction>
0.1608

> <Gold.Rescore>
     Score         DG    S(hbond)    S(metal)    S(lipo)     H(rot)  DE(clash)    DE(int)     intcor
     16.25     -18.27       1.19        0.00     112.12       1.68       1.24       0.78       ----

> <Gold.Chemscore.Fitness>
16.2534

> <Gold.Chemscore.DG>
-18.2739

> <Gold.Chemscore.ZeroCoef>
-5.4800

> <Gold.Chemscore.Hbond>
1.1924

> <Gold.Chemscore.Metal>
0.0000

> <Gold.Chemscore.Lipo>
112.1248

> <Gold.Chemscore.Internal_Hbond>
0.0000

> <Gold.Chemscore.DEClash>
1.2411

> <Gold.Chemscore.DEInternal>
0.7793

> <Gold.Chemscore.Rot>
1.6826

> <Gold.Chemscore.Internal.Correction>
   9.000000E+99

> <Gold.Chemscore.Hbonds>
donor molecule, donor type, donor heavy atom, donor atom, acceptor molecule, acceptor atom, score
      P1  H  7989  7998       L1     7  0.01
      P1  H  7997  8008       L1     5  0.26
      P1  H 10752 10763       L1     2  0.42

> <Gold.Chemscore.Hbond.Weighted>
-3.9827

> <Gold.Chemscore.Metal.Weighted>
-0.0000

> <Gold.Chemscore.Lipo.Weighted>
-13.1186

> <Gold.Chemscore.Internal_Hbond.Weighted>
0.0000

> <Gold.Chemscore.DEClash.Weighted>
1.2411

> <Gold.Chemscore.DEInternal.Weighted>
0.7793

> <Gold.Chemscore.Rot.Weighted>
4.3074

> <Gold.Chemscore.Internal.Correction.Weighted>
   9.000000E+99

> <Gold.Protein.RotatedTorsions>
[ 6907 6896 6895 6894 ] final -159.31 input  -60.11 | X-H torsion
[ 7974 7965 7964 7962 ] final   40.17 input  175.53 | X-H torsion
[ 8008 7997 7996 7995 ] final  -26.95 input   59.86 | X-H torsion
[ 10167 10162 10161 10158 ] final   -7.11 input  -65.29 | X-H torsion
[ 10718 10713 10712 10709 ] final  138.85 input   66.30 | X-H torsion
[ 10763 10752 10751 10750 ] final  -87.46 input  -60.55 | X-H torsion
[ 11005 11000 10999 10996 ] final  146.03 input  -57.11 | X-H torsion

> <Gold.Protein.ActiveResidues>
 VAL166  LYS551  ARG553  GLY616  TRP617  ASP618  TYR619  PRO620  LYS621  CYS622 
 ASP623  PHE694  ASN695  SER759  ASP760  ASP761  ALA762  ILE779  LEU786  VAL792 
 PHE793  MET794  SER795  GLU796  ALA797  LYS798  CYS799  TRP800  GLU811  SER814 

> <Gold.Protein.RotatedAtoms>
  151.3317  133.3998  159.2662 H   0  0  0  0  0  0  0  0  0  0  0  0  # atno 6907 bound_to 6896
  150.9950  134.9277  159.7932 H   0  0  0  0  0  0  0  0  0  0  0  0  # atno 6908 bound_to 6896
  152.5258  134.3282  159.9225 H   0  0  0  0  0  0  0  0  0  0  0  0  # atno 6909 bound_to 6896
  146.0926  139.5565  142.9466 H   0  0  0  0  0  0  0  0  0  0  0  0  # atno 7974 bound_to 7965
  154.4400  140.1885  156.0856 H   0  0  0  0  0  0  0  0  0  0  0  0  # atno 8008 bound_to 7997
  156.0405  140.3320  155.7212 H   0  0  0  0  0  0  0  0  0  0  0  0  # atno 8009 bound_to 7997
  155.5706  140.0612  157.2798 H   0  0  0  0  0  0  0  0  0  0  0  0  # atno 8010 bound_to 7997
  140.7019  143.6117  150.8697 H   0  0  0  0  0  0  0  0  0  0  0  0  # atno 10167 bound_to 10162
  157.4209  131.1038  151.0355 H   0  0  0  0  0  0  0  0  0  0  0  0  # atno 10718 bound_to 10713
  154.6338  135.5412  153.7711 H   0  0  0  0  0  0  0  0  0  0  0  0  # atno 10763 bound_to 10752
  153.0298  135.6442  154.1261 H   0  0  0  0  0  0  0  0  0  0  0  0  # atno 10764 bound_to 10752
  154.1190  135.2921  155.3193 H   0  0  0  0  0  0  0  0  0  0  0  0  # atno 10765 bound_to 10752
  140.0760  134.9125  157.1423 H   0  0  0  0  0  0  0  0  0  0  0  0  # atno 11005 bound_to 11000
  145.6009  141.0355  143.2019 LP  0  0  0  0  0  0  0  0  0  0  0  0  # atno 17320 bound_to 7965
  144.7372  139.7553  143.7325 LP  0  0  0  0  0  0  0  0  0  0  0  0  # atno 17321 bound_to 7965
  139.9840  143.5920  152.2933 LP  0  0  0  0  0  0  0  0  0  0  0  0  # atno 17342 bound_to 10162
  139.6551  144.7662  151.2071 LP  0  0  0  0  0  0  0  0  0  0  0  0  # atno 17343 bound_to 10162
  157.1286  130.6092  149.5523 LP  0  0  0  0  0  0  0  0  0  0  0  0  # atno 17370 bound_to 10713
  155.9880  130.4922  150.7151 LP  0  0  0  0  0  0  0  0  0  0  0  0  # atno 17371 bound_to 10713
  140.3557  134.2549  155.7193 LP  0  0  0  0  0  0  0  0  0  0  0  0  # atno 17394 bound_to 11000
  141.2029  133.7925  157.0365 LP  0  0  0  0  0  0  0  0  0  0  0  0  # atno 17395 bound_to 11000

$$$$
