AV-unprocessed.smi:1533|AV-procd|sdf|6165|dock9
  -GOLD-   22720 6313D 1   1.00000     0.00000
 Structure written by MMmdl.
 37 39  0  0  0  0  0  0  0  0  1 V2000
  145.6978  144.0807  153.0141 C   0  0  0  0  0  0  0  0  0  0  0  0
  146.1471  142.9660  153.8959 C   0  0  0  0  0  0  0  0  0  0  0  0
  145.2803  142.2438  154.5955 N   0  0  0  0  0  0  0  0  0  0  0  0
  146.0956  141.3211  155.2669 O   0  0  0  0  0  0  0  0  0  0  0  0
  147.3658  141.6143  154.8984 C   0  0  0  0  0  0  0  0  0  0  0  0
  148.4814  140.7693  155.4153 C   0  0  0  0  0  0  0  0  0  0  0  0
  149.8433  141.4756  155.3221 C   0  0  0  0  0  0  0  0  0  0  0  0
  150.1344  142.2432  156.5277 N   0  0  0  0  0  0  0  0  0  0  0  0
  150.6710  141.7385  157.6498 C   0  0  0  0  0  0  0  0  0  0  0  0
  150.9732  140.5508  157.7701 O   0  0  0  0  0  0  0  0  0  0  0  0
  150.8985  142.7325  158.8026 C   0  0  1  0  0  0  0  0  0  0  0  0
  152.3728  142.7986  159.2730 C   0  0  0  0  0  0  0  0  0  0  0  0
  152.7156  144.2967  159.1527 C   0  0  2  0  0  0  0  0  0  0  0  0
  151.9348  145.0890  160.2186 C   0  0  0  0  0  0  0  0  0  0  0  0
  150.4911  145.0510  159.6803 C   0  0  0  0  0  0  0  0  0  0  0  0
  150.6320  144.2057  158.3998 C   0  0  1  0  0  0  0  0  0  0  0  0
  151.9847  144.6882  157.8762 C   0  0  0  0  0  0  0  0  0  0  0  0
  147.4561  142.6186  154.0301 N   0  0  0  0  0  0  0  0  0  0  0  0
  144.6571  144.3395  153.2121 H   0  0  0  0  0  0  0  0  0  0  0  0
  145.7897  143.7913  151.9670 H   0  0  0  0  0  0  0  0  0  0  0  0
  146.3101  144.9666  153.1840 H   0  0  0  0  0  0  0  0  0  0  0  0
  148.2601  140.5035  156.4499 H   0  0  0  0  0  0  0  0  0  0  0  0
  148.5014  139.8362  154.8510 H   0  0  0  0  0  0  0  0  0  0  0  0
  150.6359  140.7385  155.1891 H   0  0  0  0  0  0  0  0  0  0  0  0
  149.8761  142.1275  154.4470 H   0  0  0  0  0  0  0  0  0  0  0  0
  149.9110  143.2280  156.5086 H   0  0  0  0  0  0  0  0  0  0  0  0
  150.2517  142.4523  159.6362 H   0  0  0  0  0  0  0  0  0  0  0  0
  152.4925  142.4346  160.2940 H   0  0  0  0  0  0  0  0  0  0  0  0
  153.0363  142.2075  158.6392 H   0  0  0  0  0  0  0  0  0  0  0  0
  153.7866  144.5014  159.1522 H   0  0  0  0  0  0  0  0  0  0  0  0
  152.0218  144.6434  161.2103 H   0  0  0  0  0  0  0  0  0  0  0  0
  152.2936  146.1173  160.2806 H   0  0  0  0  0  0  0  0  0  0  0  0
  149.7890  144.6190  160.3943 H   0  0  0  0  0  0  0  0  0  0  0  0
  150.1456  146.0580  159.4423 H   0  0  0  0  0  0  0  0  0  0  0  0
  149.8032  144.3353  157.7024 H   0  0  0  0  0  0  0  0  0  0  0  0
  152.0122  145.7607  157.6746 H   0  0  0  0  0  0  0  0  0  0  0  0
  152.3415  144.1575  156.9934 H   0  0  0  0  0  0  0  0  0  0  0  0
  1  2  1  0  0  0  0
  1 19  1  0  0  0  0
  1 20  1  0  0  0  0
  1 21  1  0  0  0  0
  2 18  1  0  0  0  0
  2  3  2  0  0  0  0
  3  4  1  0  0  0  0
  4  5  1  0  0  0  0
  5  6  1  0  0  0  0
  5 18  2  0  0  0  0
  6  7  1  0  0  0  0
  6 22  1  0  0  0  0
  6 23  1  0  0  0  0
  7  8  1  0  0  0  0
  7 24  1  0  0  0  0
  7 25  1  0  0  0  0
  8  9  1  0  0  0  0
  8 26  1  0  0  0  0
  9 10  2  0  0  0  0
  9 11  1  0  0  0  0
 11 16  1  0  0  0  0
 11 12  1  0  0  0  0
 11 27  1  0  0  0  0
 12 13  1  0  0  0  0
 12 28  1  0  0  0  0
 12 29  1  0  0  0  0
 13 17  1  0  0  0  0
 13 14  1  0  0  0  0
 13 30  1  0  0  0  0
 14 15  1  0  0  0  0
 14 31  1  0  0  0  0
 14 32  1  0  0  0  0
 15 16  1  0  0  0  0
 15 33  1  0  0  0  0
 15 34  1  0  0  0  0
 16 17  1  0  0  0  0
 16 35  1  0  0  0  0
 17 36  1  0  0  0  0
 17 37  1  0  0  0  0
M  END
> <s_m_source_file>
AV-unprocessed.smi

> <i_m_source_file_index>
1533

> <i_lp_mmshare_version>
43012

> <i_f3d_flags>
0

> <s_epik_input>
W0NIM11jMW5vYyhuMSlbQ0gyXVtDSDJdW05IXUMoPU8pW0NASF0oW0NIMl1bQ0BASF0yMylbQ0BASF0oW0NIMl0zKVtDSDJdW0NIMl0y

> <s_epik_cmdline>
J2VwaWtfcHl0aG9uJywgJy1waCcsICc3LjAnLCAnLXRuJywgJzgnLCAnLW1hJywgJzIwMCcsICctbWV0YWxfYmluZGluZycsICctaW1hZScsICc8aW5maWxlLm1hZT4nLCAnLW9tYWUnLCAnPG91dGZpbGUubWFlPic=

> <r_lp_tautomer_probability>
1

> <r_epik_Ionization_Penalty>
1.90116e-08

> <r_epik_Ionization_Penalty_Charging>
0

> <r_epik_Ionization_Penalty_Neutral>
1.90116e-08

> <r_epik_State_Penalty>
-0

> <r_epik_Charging_Adjusted_Penalty>
0

> <i_epik_Tot_Q>
0

> <i_epik_Tot_abs_Q>
0

> <r_epik_Metal_State_Penalty>
-0

> <b_epik_Metal_Only>
0

> <s_lp_Force_Field>
OPLS_2005

> <r_lp_Energy>
42.7172

> <b_lp_Chiralities_Consistent>
1

> <s_lp_Variant>
AV-unprocessed.smi:1533-4

> <Gold.Version>
5.8.1

> <Gold.Id.Protein>
6NUR|6NUR_protein|mol2

> <Gold.PLP.Fitness>
41.1137

> <Gold.PLP.PLP>
-39.6463

> <Gold.PLP.part.hbond>
-1.1980

> <Gold.PLP.part.metal>
0.0000

> <Gold.PLP.part.buried>
-6.1198

> <Gold.PLP.part.nonpolar>
-32.7578

> <Gold.PLP.part.repulsive>
1.6489

> <Gold.PLP.ligand.clash>
0.0000

> <Gold.PLP.ligand.torsion>
0.7235

> <Gold.PLP.Chemscore.Hbond>
0.9600

> <Gold.PLP.Chemscore.CHOScore>
0.0000

> <Gold.PLP.Chemscore.Metal>
0.0000

> <Gold.Chemscore.Hbonds>
donor molecule, donor type, donor heavy atom, donor atom, acceptor molecule, acceptor atom, score
      L1  H     8    26       P1  8028  0.98

> <Gold.PLP.Chemscore.Internal.Correction>
0.0344

> <Gold.Rescore>
     Score         DG    S(hbond)    S(metal)    S(lipo)     H(rot)  DE(clash)    DE(int)     intcor
     14.21     -15.29       0.89        0.00      99.06       1.85       0.44       0.64       ----

> <Gold.Chemscore.Fitness>
14.2088

> <Gold.Chemscore.DG>
-15.2933

> <Gold.Chemscore.ZeroCoef>
-5.4800

> <Gold.Chemscore.Hbond>
0.8851

> <Gold.Chemscore.Metal>
0.0000

> <Gold.Chemscore.Lipo>
99.0644

> <Gold.Chemscore.Internal_Hbond>
0.0000

> <Gold.Chemscore.DEClash>
0.4401

> <Gold.Chemscore.DEInternal>
0.6444

> <Gold.Chemscore.Rot>
1.8490

> <Gold.Chemscore.Internal.Correction>
   9.000000E+99

> <Gold.Chemscore.Hbonds>
donor molecule, donor type, donor heavy atom, donor atom, acceptor molecule, acceptor atom, score
      L1  H     8    26       P1  8028  0.90
      P1  H  8022  8030       L1    18  0.01

> <Gold.Chemscore.Hbond.Weighted>
-2.9561

> <Gold.Chemscore.Metal.Weighted>
-0.0000

> <Gold.Chemscore.Lipo.Weighted>
-11.5905

> <Gold.Chemscore.Internal_Hbond.Weighted>
0.0000

> <Gold.Chemscore.DEClash.Weighted>
0.4401

> <Gold.Chemscore.DEInternal.Weighted>
0.6444

> <Gold.Chemscore.Rot.Weighted>
4.7334

> <Gold.Chemscore.Internal.Correction.Weighted>
   9.000000E+99

> <Gold.Protein.RotatedTorsions>
[ 6907 6896 6895 6894 ] final -122.15 input  -60.11 | X-H torsion
[ 7974 7965 7964 7962 ] final  -21.57 input  175.53 | X-H torsion
[ 8008 7997 7996 7995 ] final  -99.38 input   59.86 | X-H torsion
[ 10167 10162 10161 10158 ] final -111.99 input  -65.29 | X-H torsion
[ 10718 10713 10712 10709 ] final  138.18 input   66.30 | X-H torsion
[ 10763 10752 10751 10750 ] final  -84.42 input  -60.55 | X-H torsion
[ 11005 11000 10999 10996 ] final -128.35 input  -57.11 | X-H torsion

> <Gold.Protein.ActiveResidues>
 VAL166  LYS551  ARG553  GLY616  TRP617  ASP618  TYR619  PRO620  LYS621  CYS622 
 ASP623  PHE694  ASN695  SER759  ASP760  ASP761  ALA762  ILE779  LEU786  VAL792 
 PHE793  MET794  SER795  GLU796  ALA797  LYS798  CYS799  TRP800  GLU811  SER814 

> <Gold.Protein.RotatedAtoms>
  150.8549  133.7730  159.3012 H   0  0  0  0  0  0  0  0  0  0  0  0  # atno 6907 bound_to 6896
  151.5390  135.1067  159.9931 H   0  0  0  0  0  0  0  0  0  0  0  0  # atno 6908 bound_to 6896
  152.4582  133.7723  159.6861 H   0  0  0  0  0  0  0  0  0  0  0  0  # atno 6909 bound_to 6896
  146.1725  140.4359  142.8526 H   0  0  0  0  0  0  0  0  0  0  0  0  # atno 7974 bound_to 7965
  154.8141  140.0448  157.1364 H   0  0  0  0  0  0  0  0  0  0  0  0  # atno 8008 bound_to 7997
  154.9334  140.3043  155.5136 H   0  0  0  0  0  0  0  0  0  0  0  0  # atno 8009 bound_to 7997
  156.2974  140.2319  156.4397 H   0  0  0  0  0  0  0  0  0  0  0  0  # atno 8010 bound_to 7997
  140.1276  143.4389  152.1649 H   0  0  0  0  0  0  0  0  0  0  0  0  # atno 10167 bound_to 10162
  157.4281  131.1045  151.0280 H   0  0  0  0  0  0  0  0  0  0  0  0  # atno 10718 bound_to 10713
  154.5993  135.5521  153.7358 H   0  0  0  0  0  0  0  0  0  0  0  0  # atno 10763 bound_to 10752
  153.0148  135.6362  154.1737 H   0  0  0  0  0  0  0  0  0  0  0  0  # atno 10764 bound_to 10752
  154.1677  135.2894  155.3070 H   0  0  0  0  0  0  0  0  0  0  0  0  # atno 10765 bound_to 10752
  140.9523  134.1048  157.4050 H   0  0  0  0  0  0  0  0  0  0  0  0  # atno 11005 bound_to 11000
  144.8185  140.6510  143.6368 LP  0  0  0  0  0  0  0  0  0  0  0  0  # atno 17320 bound_to 7965
  145.4300  139.1550  143.4027 LP  0  0  0  0  0  0  0  0  0  0  0  0  # atno 17321 bound_to 7965
  139.5536  144.7356  151.4360 LP  0  0  0  0  0  0  0  0  0  0  0  0  # atno 17342 bound_to 10162
  140.6836  143.8025  150.7155 LP  0  0  0  0  0  0  0  0  0  0  0  0  # atno 17343 bound_to 10162
  157.1186  130.6052  149.5499 LP  0  0  0  0  0  0  0  0  0  0  0  0  # atno 17370 bound_to 10713
  155.9903  130.4954  150.7254 LP  0  0  0  0  0  0  0  0  0  0  0  0  # atno 17371 bound_to 10713
  139.8851  135.0069  156.6414 LP  0  0  0  0  0  0  0  0  0  0  0  0  # atno 17394 bound_to 11000
  140.7585  133.8837  155.8400 LP  0  0  0  0  0  0  0  0  0  0  0  0  # atno 17395 bound_to 11000

$$$$
