AV-unprocessed.smi:2045|AV-procd|sdf|8310|dock8
  -GOLD-   2272010573D 1   1.00000     0.00000
 Structure written by MMmdl.
 38 39  0  0  0  0  0  0  0  0  3 V2000
  153.0024  143.0890  160.8290 C   0  0  0  0  0  0  0  0  0  0  0  0
  152.1501  142.8476  159.6308 C   0  0  0  0  0  0  0  0  0  0  0  0
  152.3558  142.1662  158.4644 C   0  0  0  0  0  0  0  0  0  0  0  0
  151.1290  142.3405  157.7697 C   0  0  0  0  0  0  0  0  0  0  0  0
  150.9366  141.7663  156.4852 N   0  0  0  0  0  0  0  0  0  0  0  0
  151.5870  140.7344  155.9166 C   0  0  0  0  0  0  0  0  0  0  0  0
  152.4739  140.1364  156.5378 O   0  0  0  0  0  0  0  0  0  0  0  0
  151.1448  140.4808  154.6542 N   0  5  0  0  0  0  0  0  0  0  0  0
  150.1841  139.4373  154.3039 C   0  0  0  0  0  0  0  0  0  0  0  0
  150.8673  138.0592  154.3872 C   0  0  0  0  0  0  0  0  0  0  0  0
  149.8827  136.9445  154.3606 N   0  3  0  0  0  0  0  0  0  0  0  0
  150.4729  135.6506  154.7959 C   0  0  0  0  0  0  0  0  0  0  0  0
  149.4765  134.4926  154.6153 C   0  0  0  0  0  0  0  0  0  0  0  0
  148.1648  134.7710  155.3604 C   0  0  0  0  0  0  0  0  0  0  0  0
  147.5898  136.1223  154.9177 C   0  0  0  0  0  0  0  0  0  0  0  0
  148.6238  137.2457  155.1002 C   0  0  0  0  0  0  0  0  0  0  0  0
  150.2539  143.0638  158.4525 N   0  0  0  0  0  0  0  0  0  0  0  0
  150.9040  143.3929  159.6478 O   0  0  0  0  0  0  0  0  0  0  0  0
  153.9962  142.6622  160.6931 H   0  0  0  0  0  0  0  0  0  0  0  0
  152.5583  142.6370  161.7158 H   0  0  0  0  0  0  0  0  0  0  0  0
  153.1155  144.1573  161.0131 H   0  0  0  0  0  0  0  0  0  0  0  0
  153.2413  141.6291  158.1589 H   0  0  0  0  0  0  0  0  0  0  0  0
  150.2211  142.1969  155.9188 H   0  0  0  0  0  0  0  0  0  0  0  0
  149.3165  139.4377  154.9651 H   0  0  0  0  0  0  0  0  0  0  0  0
  149.7904  139.5769  153.2966 H   0  0  0  0  0  0  0  0  0  0  0  0
  151.5477  137.9707  153.5384 H   0  0  0  0  0  0  0  0  0  0  0  0
  151.4919  137.9844  155.2793 H   0  0  0  0  0  0  0  0  0  0  0  0
  151.3697  135.4403  154.2119 H   0  0  0  0  0  0  0  0  0  0  0  0
  150.7821  135.7242  155.8397 H   0  0  0  0  0  0  0  0  0  0  0  0
  149.2715  134.3485  153.5536 H   0  0  0  0  0  0  0  0  0  0  0  0
  149.9177  133.5622  154.9738 H   0  0  0  0  0  0  0  0  0  0  0  0
  147.4456  133.9737  155.1713 H   0  0  0  0  0  0  0  0  0  0  0  0
  148.3459  134.7809  156.4360 H   0  0  0  0  0  0  0  0  0  0  0  0
  147.2882  136.0686  153.8707 H   0  0  0  0  0  0  0  0  0  0  0  0
  146.6887  136.3488  155.4884 H   0  0  0  0  0  0  0  0  0  0  0  0
  148.8465  137.3798  156.1600 H   0  0  0  0  0  0  0  0  0  0  0  0
  148.1945  138.1847  154.7495 H   0  0  0  0  0  0  0  0  0  0  0  0
  149.6329  136.8245  153.3891 H   0  0  0  0  0  0  0  0  0  0  0  0
  1  2  1  0  0  0  0
  1 19  1  0  0  0  0
  1 20  1  0  0  0  0
  1 21  1  0  0  0  0
  2 18  1  0  0  0  0
  2  3  2  0  0  0  0
  3  4  1  0  0  0  0
  3 22  1  0  0  0  0
  4  5  1  0  0  0  0
  4 17  2  0  0  0  0
  5  6  1  0  0  0  0
  5 23  1  0  0  0  0
  6  7  2  0  0  0  0
  6  8  1  0  0  0  0
  8  9  1  0  0  0  0
  9 10  1  0  0  0  0
  9 24  1  0  0  0  0
  9 25  1  0  0  0  0
 10 11  1  0  0  0  0
 10 26  1  0  0  0  0
 10 27  1  0  0  0  0
 11 16  1  0  0  0  0
 11 12  1  0  0  0  0
 11 38  1  0  0  0  0
 12 13  1  0  0  0  0
 12 28  1  0  0  0  0
 12 29  1  0  0  0  0
 13 14  1  0  0  0  0
 13 30  1  0  0  0  0
 13 31  1  0  0  0  0
 14 15  1  0  0  0  0
 14 32  1  0  0  0  0
 14 33  1  0  0  0  0
 15 16  1  0  0  0  0
 15 34  1  0  0  0  0
 15 35  1  0  0  0  0
 16 36  1  0  0  0  0
 16 37  1  0  0  0  0
 17 18  1  0  0  0  0
M  CHG  1   8  -1
M  CHG  1  11   1
M  END
> <s_m_source_file>
AV-unprocessed.smi

> <i_m_source_file_index>
2045

> <i_lp_mmshare_version>
43012

> <i_f3d_flags>
0

> <s_epik_input>
W0NIM11jMVtjSF1jKG5vMSlbTkhdQyg9TylbTkhdW0NIMl1bQ0gyXU4yW0NIMl1bQ0gyXVtDSDJdW0NIMl1bQ0gyXTI=

> <s_epik_cmdline>
J2VwaWtfcHl0aG9uJywgJy1waCcsICc3LjAnLCAnLXRuJywgJzgnLCAnLW1hJywgJzIwMCcsICctbWV0YWxfYmluZGluZycsICctaW1hZScsICc8aW5maWxlLm1hZT4nLCAnLW9tYWUnLCAnPG91dGZpbGUubWFlPic=

> <r_epik_Ionization_Penalty>
6.7666

> <r_epik_Ionization_Penalty_Charging>
6.7666

> <r_epik_Ionization_Penalty_Neutral>
5.77131e-06

> <r_epik_State_Penalty>
6.79217

> <r_epik_Charging_Adjusted_Penalty>
13.5588

> <i_epik_Tot_Q>
0

> <i_epik_Tot_abs_Q>
2

> <r_epik_Metal_State_Penalty>
2.72569

> <b_epik_Metal_Only>
1

> <s_lp_Force_Field>
OPLS_2005

> <r_lp_Energy>
13.1294

> <b_lp_Chiralities_Consistent>
1

> <s_lp_Variant>
AV-unprocessed.smi:2045-3

> <Gold.Version>
5.8.1

> <Gold.Id.Protein>
6NUR|6NUR_protein|mol2

> <Gold.PLP.Fitness>
42.2619

> <Gold.PLP.PLP>
-32.4849

> <Gold.PLP.part.hbond>
-4.4349

> <Gold.PLP.part.metal>
0.0000

> <Gold.PLP.part.buried>
-5.1395

> <Gold.PLP.part.nonpolar>
-22.9728

> <Gold.PLP.part.repulsive>
0.2580

> <Gold.PLP.ligand.clash>
0.0000

> <Gold.PLP.ligand.torsion>
1.1345

> <Gold.PLP.Chemscore.Hbond>
4.0000

> <Gold.PLP.Chemscore.CHOScore>
0.0000

> <Gold.PLP.Chemscore.Metal>
0.0000

> <Gold.Chemscore.Hbonds>
donor molecule, donor type, donor heavy atom, donor atom, acceptor molecule, acceptor atom, score
      L1  H    11    38       P1  7948  2.00
      P1  H  7989  7998       L1     8  0.46
      P1  H  7997  8009       L1     7  1.00

> <Gold.PLP.Chemscore.Internal.Correction>
0.0460

> <Gold.Rescore>
     Score         DG    S(hbond)    S(metal)    S(lipo)     H(rot)  DE(clash)    DE(int)     intcor
     16.04     -18.51       2.81        0.00      65.33       1.55       0.01       2.47       ----

> <Gold.Chemscore.Fitness>
16.0373

> <Gold.Chemscore.DG>
-18.5142

> <Gold.Chemscore.ZeroCoef>
-5.4800

> <Gold.Chemscore.Hbond>
2.8052

> <Gold.Chemscore.Metal>
0.0000

> <Gold.Chemscore.Lipo>
65.3344

> <Gold.Chemscore.Internal_Hbond>
0.0000

> <Gold.Chemscore.DEClash>
0.0095

> <Gold.Chemscore.DEInternal>
2.4674

> <Gold.Chemscore.Rot>
1.5544

> <Gold.Chemscore.Internal.Correction>
   9.000000E+99

> <Gold.Chemscore.Hbonds>
donor molecule, donor type, donor heavy atom, donor atom, acceptor molecule, acceptor atom, score
      L1  H    11    38       P1  7948  0.65
      P1  H  7989  7998       L1     8  0.22
      P1  H  7997  8009       L1     7  0.98

> <Gold.Chemscore.Hbond.Weighted>
-9.3695

> <Gold.Chemscore.Metal.Weighted>
-0.0000

> <Gold.Chemscore.Lipo.Weighted>
-7.6441

> <Gold.Chemscore.Internal_Hbond.Weighted>
0.0000

> <Gold.Chemscore.DEClash.Weighted>
0.0095

> <Gold.Chemscore.DEInternal.Weighted>
2.4674

> <Gold.Chemscore.Rot.Weighted>
3.9794

> <Gold.Chemscore.Internal.Correction.Weighted>
   9.000000E+99

> <Gold.Protein.RotatedTorsions>
[ 6907 6896 6895 6894 ] final  -92.83 input  -60.11 | X-H torsion
[ 7974 7965 7964 7962 ] final   40.73 input  175.53 | X-H torsion
[ 8008 7997 7996 7995 ] final -170.13 input   59.86 | X-H torsion
[ 10167 10162 10161 10158 ] final   24.10 input  -65.29 | X-H torsion
[ 10718 10713 10712 10709 ] final -112.50 input   66.30 | X-H torsion
[ 10763 10752 10751 10750 ] final   28.73 input  -60.55 | X-H torsion
[ 11005 11000 10999 10996 ] final  -12.40 input  -57.11 | X-H torsion

> <Gold.Protein.ActiveResidues>
 VAL166  LYS551  ARG553  GLY616  TRP617  ASP618  TYR619  PRO620  LYS621  CYS622 
 ASP623  PHE694  ASN695  SER759  ASP760  ASP761  ALA762  ILE779  LEU786  VAL792 
 PHE793  MET794  SER795  GLU796  ALA797  LYS798  CYS799  TRP800  GLU811  SER814 

> <Gold.Protein.RotatedAtoms>
  150.6912  134.2062  159.4340 H   0  0  0  0  0  0  0  0  0  0  0  0  # atno 6907 bound_to 6896
  152.0025  134.9918  160.0575 H   0  0  0  0  0  0  0  0  0  0  0  0  # atno 6908 bound_to 6896
  152.1565  133.4519  159.4876 H   0  0  0  0  0  0  0  0  0  0  0  0  # atno 6909 bound_to 6896
  146.0881  139.5498  142.9494 H   0  0  0  0  0  0  0  0  0  0  0  0  # atno 7974 bound_to 7965
  155.9143  140.1063  157.1255 H   0  0  0  0  0  0  0  0  0  0  0  0  # atno 8008 bound_to 7997
  154.4044  140.1268  156.4662 H   0  0  0  0  0  0  0  0  0  0  0  0  # atno 8009 bound_to 7997
  155.7273  140.3469  155.5045 H   0  0  0  0  0  0  0  0  0  0  0  0  # atno 8010 bound_to 7997
  140.5215  143.9994  150.6419 H   0  0  0  0  0  0  0  0  0  0  0  0  # atno 10167 bound_to 10162
  156.0709  130.5923  150.8516 H   0  0  0  0  0  0  0  0  0  0  0  0  # atno 10718 bound_to 10713
  153.0473  135.6506  154.0783 H   0  0  0  0  0  0  0  0  0  0  0  0  # atno 10763 bound_to 10752
  154.0478  135.2898  155.3346 H   0  0  0  0  0  0  0  0  0  0  0  0  # atno 10764 bound_to 10752
  154.6739  135.5345  153.8240 H   0  0  0  0  0  0  0  0  0  0  0  0  # atno 10765 bound_to 10752
  140.7653  133.8482  155.9160 H   0  0  0  0  0  0  0  0  0  0  0  0  # atno 11005 bound_to 11000
  145.6092  141.0342  143.1976 LP  0  0  0  0  0  0  0  0  0  0  0  0  # atno 17320 bound_to 7965
  144.7340  139.7641  143.7336 LP  0  0  0  0  0  0  0  0  0  0  0  0  # atno 17321 bound_to 7965
  140.3344  143.3057  152.0653 LP  0  0  0  0  0  0  0  0  0  0  0  0  # atno 17342 bound_to 10162
  139.4925  144.6486  151.6724 LP  0  0  0  0  0  0  0  0  0  0  0  0  # atno 17343 bound_to 10162
  157.5779  131.0946  150.9317 LP  0  0  0  0  0  0  0  0  0  0  0  0  # atno 17370 bound_to 10713
  156.9519  130.5423  149.5283 LP  0  0  0  0  0  0  0  0  0  0  0  0  # atno 17371 bound_to 10713
  140.9624  134.1638  157.4643 LP  0  0  0  0  0  0  0  0  0  0  0  0  # atno 17394 bound_to 11000
  139.8764  134.9949  156.5719 LP  0  0  0  0  0  0  0  0  0  0  0  0  # atno 17395 bound_to 11000

$$$$
