AV-unprocessed.smi:116|AV-procd|sdf|1127|dock3
  -GOLD-   2262018253D 1   1.00000     0.00000
 Structure written by MMmdl.
 38 41  0  0  0  0  0  0  0  0  1 V2000
  148.8804  134.6189  157.3508 O   0  0  0  0  0  0  0  0  0  0  0  0
  149.3988  135.6556  156.9328 C   0  0  0  0  0  0  0  0  0  0  0  0
  148.9396  136.9874  157.3127 C   0  0  0  0  0  0  0  0  0  0  0  0
  147.8936  137.1165  158.1464 F   0  0  0  0  0  0  0  0  0  0  0  0
  149.5537  138.0970  156.8487 C   0  0  0  0  0  0  0  0  0  0  0  0
  150.6400  138.0565  155.9902 N   0  0  0  0  0  0  0  0  0  0  0  0
  151.3238  139.3205  155.5151 C   0  0  2  0  0  0  0  0  0  0  0  0
  151.8745  140.1048  156.7113 C   0  0  0  0  0  0  0  0  0  0  0  0
  150.7157  141.0209  157.0374 C   0  0  0  0  0  0  0  0  0  0  0  0
  150.1615  141.3214  155.6489 C   0  0  0  0  0  0  0  0  0  0  0  0
  150.3869  140.1418  154.8786 O   0  0  0  0  0  0  0  0  0  0  0  0
  151.1505  136.8104  155.5671 C   0  0  0  0  0  0  0  0  0  0  0  0
  152.1294  136.7505  154.8189 O   0  0  0  0  0  0  0  0  0  0  0  0
  150.5074  135.6459  156.0493 N   0  0  0  0  0  0  0  0  0  0  0  0
  151.0730  134.3614  155.6664 C   0  0  0  0  0  0  0  0  0  0  0  0
  150.0600  133.5311  154.9367 C   0  0  0  0  0  0  0  0  0  0  0  0
  149.2726  134.0374  153.9779 N   0  0  0  0  0  0  0  0  0  0  0  0
  148.4109  133.0562  153.4966 C   0  0  0  0  0  0  0  0  0  0  0  0
  147.4239  133.2085  152.4949 C   0  0  0  0  0  0  0  0  0  0  0  0
  146.6112  132.1262  152.1022 C   0  0  0  0  0  0  0  0  0  0  0  0
  146.7715  130.8643  152.7052 C   0  0  0  0  0  0  0  0  0  0  0  0
  147.7463  130.6835  153.7034 C   0  0  0  0  0  0  0  0  0  0  0  0
  148.5535  131.7684  154.0927 C   0  0  0  0  0  0  0  0  0  0  0  0
  149.8289  131.8165  155.3047 S   0  0  0  0  0  0  0  0  0  0  0  0
  149.1710  139.0516  157.1769 H   0  0  0  0  0  0  0  0  0  0  0  0
  152.0846  139.0005  154.8011 H   0  0  0  0  0  0  0  0  0  0  0  0
  152.1765  139.4570  157.5352 H   0  0  0  0  0  0  0  0  0  0  0  0
  152.7382  140.6828  156.3805 H   0  0  0  0  0  0  0  0  0  0  0  0
  149.9733  140.4915  157.6361 H   0  0  0  0  0  0  0  0  0  0  0  0
  151.0162  141.9172  157.5806 H   0  0  0  0  0  0  0  0  0  0  0  0
  149.1051  141.5899  155.6690 H   0  0  0  0  0  0  0  0  0  0  0  0
  150.7121  142.1445  155.1921 H   0  0  0  0  0  0  0  0  0  0  0  0
  151.9609  134.5200  155.0539 H   0  0  0  0  0  0  0  0  0  0  0  0
  151.4134  133.8624  156.5756 H   0  0  0  0  0  0  0  0  0  0  0  0
  147.2902  134.1713  152.0243 H   0  0  0  0  0  0  0  0  0  0  0  0
  145.8626  132.2654  151.3362 H   0  0  0  0  0  0  0  0  0  0  0  0
  146.1469  130.0366  152.4023 H   0  0  0  0  0  0  0  0  0  0  0  0
  147.8739  129.7176  154.1696 H   0  0  0  0  0  0  0  0  0  0  0  0
  1  2  2  0  0  0  0
  2 14  1  0  0  0  0
  2  3  1  0  0  0  0
  3  4  1  0  0  0  0
  3  5  2  0  0  0  0
  5  6  1  0  0  0  0
  5 25  1  0  0  0  0
  6  7  1  0  0  0  0
  6 12  1  0  0  0  0
  7 11  1  0  0  0  0
  7  8  1  0  0  0  0
  7 26  1  0  0  0  0
  8  9  1  0  0  0  0
  8 27  1  0  0  0  0
  8 28  1  0  0  0  0
  9 10  1  0  0  0  0
  9 29  1  0  0  0  0
  9 30  1  0  0  0  0
 10 11  1  0  0  0  0
 10 31  1  0  0  0  0
 10 32  1  0  0  0  0
 12 13  2  0  0  0  0
 12 14  1  0  0  0  0
 14 15  1  0  0  0  0
 15 16  1  0  0  0  0
 15 33  1  0  0  0  0
 15 34  1  0  0  0  0
 16 24  1  0  0  0  0
 16 17  2  0  0  0  0
 17 18  1  0  0  0  0
 18 23  2  0  0  0  0
 18 19  1  0  0  0  0
 19 20  2  0  0  0  0
 19 35  1  0  0  0  0
 20 21  1  0  0  0  0
 20 36  1  0  0  0  0
 21 22  2  0  0  0  0
 21 37  1  0  0  0  0
 22 23  1  0  0  0  0
 22 38  1  0  0  0  0
 23 24  1  0  0  0  0
M  END
> <s_m_source_file>
AV-unprocessed.smi

> <i_m_source_file_index>
116

> <i_lp_mmshare_version>
43012

> <i_f3d_flags>
0

> <s_epik_input>
TzFbQ0gyXVtDSDJdW0NIMl1bQ0BIXTFuKFtjSF1jKEYpYzI9TyljKD1PKW4yW0NIMl1jKG4zKXNjKGMzNClbY0hdW2NIXVtjSF1bY0hdNA==

> <s_epik_cmdline>
J2VwaWtfcHl0aG9uJywgJy1waCcsICc3LjAnLCAnLXRuJywgJzgnLCAnLW1hJywgJzIwMCcsICctbWV0YWxfYmluZGluZycsICctaW1hZScsICc8aW5maWxlLm1hZT4nLCAnLW9tYWUnLCAnPG91dGZpbGUubWFlPic=

> <r_lp_tautomer_probability>
1

> <r_epik_Ionization_Penalty>
4.2492e-05

> <r_epik_Ionization_Penalty_Charging>
2.84664e-09

> <r_epik_Ionization_Penalty_Neutral>
4.24891e-05

> <r_epik_State_Penalty>
-0

> <r_epik_Charging_Adjusted_Penalty>
2.84664e-09

> <i_epik_Tot_Q>
0

> <i_epik_Tot_abs_Q>
0

> <r_epik_Metal_State_Penalty>
-0

> <b_epik_Metal_Only>
0

> <s_epik_Chemistry_Notes>
This compound contains an acetal/aminal-like group ( X-CH(R)-Y where X, Y are N, S, or O) that may be acid/base labile, releasing an aldehyde.

> <s_lp_Force_Field>
OPLS_2005

> <r_lp_Energy>
31.0424

> <b_lp_Chiralities_Consistent>
1

> <s_lp_Variant>
AV-unprocessed.smi:116-1

> <Gold.Version>
5.8.1

> <Gold.Id.Protein>
6NUR|6NUR_protein|mol2

> <Gold.PLP.Fitness>
38.8764

> <Gold.PLP.PLP>
-33.4061

> <Gold.PLP.part.hbond>
-1.7197

> <Gold.PLP.part.metal>
0.0000

> <Gold.PLP.part.buried>
-5.1006

> <Gold.PLP.part.nonpolar>
-27.8988

> <Gold.PLP.part.repulsive>
0.9908

> <Gold.PLP.ligand.clash>
0.0000

> <Gold.PLP.ligand.torsion>
0.2122

> <Gold.PLP.Chemscore.Hbond>
1.9600

> <Gold.PLP.Chemscore.CHOScore>
0.0000

> <Gold.PLP.Chemscore.Metal>
0.0000

> <Gold.Chemscore.Hbonds>
donor molecule, donor type, donor heavy atom, donor atom, acceptor molecule, acceptor atom, score
      P1  H  7989  7998       L1    11  0.85
      P1  H 10752 10763       L1    13  0.71

> <Gold.PLP.Chemscore.Internal.Correction>
0.0148

> <Gold.Rescore>
     Score         DG    S(hbond)    S(metal)    S(lipo)     H(rot)  DE(clash)    DE(int)     intcor
     12.25     -14.00       1.24        0.00      70.77       1.52       0.26       1.49       ----

> <Gold.Chemscore.Fitness>
12.2457

> <Gold.Chemscore.DG>
-14.0023

> <Gold.Chemscore.ZeroCoef>
-5.4800

> <Gold.Chemscore.Hbond>
1.2356

> <Gold.Chemscore.Metal>
0.0000

> <Gold.Chemscore.Lipo>
70.7663

> <Gold.Chemscore.Internal_Hbond>
0.0000

> <Gold.Chemscore.DEClash>
0.2624

> <Gold.Chemscore.DEInternal>
1.4942

> <Gold.Chemscore.Rot>
1.5172

> <Gold.Chemscore.Internal.Correction>
   9.000000E+99

> <Gold.Chemscore.Hbonds>
donor molecule, donor type, donor heavy atom, donor atom, acceptor molecule, acceptor atom, score
      P1  H  7989  7998       L1    11  0.04
      P1  H 10752 10763       L1    13  0.68

> <Gold.Chemscore.Hbond.Weighted>
-4.1268

> <Gold.Chemscore.Metal.Weighted>
-0.0000

> <Gold.Chemscore.Lipo.Weighted>
-8.2797

> <Gold.Chemscore.Internal_Hbond.Weighted>
0.0000

> <Gold.Chemscore.DEClash.Weighted>
0.2624

> <Gold.Chemscore.DEInternal.Weighted>
1.4942

> <Gold.Chemscore.Rot.Weighted>
3.8841

> <Gold.Chemscore.Internal.Correction.Weighted>
   9.000000E+99

> <Gold.Protein.RotatedTorsions>
[ 6907 6896 6895 6894 ] final -101.52 input  -60.11 | X-H torsion
[ 7974 7965 7964 7962 ] final  116.42 input  175.53 | X-H torsion
[ 8008 7997 7996 7995 ] final  103.30 input   59.86 | X-H torsion
[ 10167 10162 10161 10158 ] final -123.66 input  -65.29 | X-H torsion
[ 10718 10713 10712 10709 ] final   81.87 input   66.30 | X-H torsion
[ 10763 10752 10751 10750 ] final   61.38 input  -60.55 | X-H torsion
[ 11005 11000 10999 10996 ] final  -23.69 input  -57.11 | X-H torsion

> <Gold.Protein.ActiveResidues>
 VAL166  LYS551  ARG553  GLY616  TRP617  ASP618  TYR619  PRO620  LYS621  CYS622 
 ASP623  PHE694  ASN695  SER759  ASP760  ASP761  ALA762  ILE779  LEU786  VAL792 
 PHE793  MET794  SER795  GLU796  ALA797  LYS798  CYS799  TRP800  GLU811  SER814 

> <Gold.Protein.RotatedAtoms>
  150.7158  134.0721  159.3867 H   0  0  0  0  0  0  0  0  0  0  0  0  # atno 6907 bound_to 6896
  151.8704  135.0489  160.0488 H   0  0  0  0  0  0  0  0  0  0  0  0  # atno 6908 bound_to 6896
  152.2648  133.5293  159.5440 H   0  0  0  0  0  0  0  0  0  0  0  0  # atno 6909 bound_to 6896
  145.1798  139.3056  143.4424 H   0  0  0  0  0  0  0  0  0  0  0  0  # atno 7974 bound_to 7965
  156.1472  140.3167  155.8588 H   0  0  0  0  0  0  0  0  0  0  0  0  # atno 8008 bound_to 7997
  155.4042  140.0501  157.3052 H   0  0  0  0  0  0  0  0  0  0  0  0  # atno 8009 bound_to 7997
  154.5026  140.2135  155.9327 H   0  0  0  0  0  0  0  0  0  0  0  0  # atno 8010 bound_to 7997
  140.0011  143.5539  152.2303 H   0  0  0  0  0  0  0  0  0  0  0  0  # atno 10167 bound_to 10162
  157.6844  131.0023  150.2291 H   0  0  0  0  0  0  0  0  0  0  0  0  # atno 10718 bound_to 10713
  152.9949  135.5503  154.6025 H   0  0  0  0  0  0  0  0  0  0  0  0  # atno 10763 bound_to 10752
  154.5363  135.2817  155.1138 H   0  0  0  0  0  0  0  0  0  0  0  0  # atno 10764 bound_to 10752
  154.2433  135.6412  153.5267 H   0  0  0  0  0  0  0  0  0  0  0  0  # atno 10765 bound_to 10752
  140.8775  133.7677  156.0261 H   0  0  0  0  0  0  0  0  0  0  0  0  # atno 11005 bound_to 11000
  146.3455  140.1973  142.8589 LP  0  0  0  0  0  0  0  0  0  0  0  0  # atno 17320 bound_to 7965
  145.0148  140.8744  143.5202 LP  0  0  0  0  0  0  0  0  0  0  0  0  # atno 17321 bound_to 7965
  139.6271  144.7639  151.2615 LP  0  0  0  0  0  0  0  0  0  0  0  0  # atno 17342 bound_to 10162
  140.7418  143.6545  150.8219 LP  0  0  0  0  0  0  0  0  0  0  0  0  # atno 17343 bound_to 10162
  156.2927  130.3748  149.7826 LP  0  0  0  0  0  0  0  0  0  0  0  0  # atno 17370 bound_to 10713
  156.5480  130.8329  151.3290 LP  0  0  0  0  0  0  0  0  0  0  0  0  # atno 17371 bound_to 10713
  140.8501  134.2964  157.5279 LP  0  0  0  0  0  0  0  0  0  0  0  0  # atno 17394 bound_to 11000
  139.8717  134.9463  156.3934 LP  0  0  0  0  0  0  0  0  0  0  0  0  # atno 17395 bound_to 11000

$$$$
