AV-unprocessed.smi:2164|AV-procd|sdf|8810|dock6
  -GOLD-   2272012 03D 1   1.00000     0.00000
 Structure written by MMmdl.
 38 40  0  0  0  0  0  0  0  0  2 V2000
  155.4308  138.8126  158.9991 O   0  0  0  0  0  0  0  0  0  0  0  0
  154.5655  138.8976  159.8801 C   0  0  0  0  0  0  0  0  0  0  0  0
  153.6609  139.9167  159.9966 N   0  5  0  0  0  0  0  0  0  0  0  0
  153.9832  141.3430  159.9547 C   0  0  0  0  0  0  0  0  0  0  0  0
  153.0011  142.1220  160.8523 C   0  0  0  0  0  0  0  0  0  0  0  0
  152.2584  143.2358  160.1270 C   0  0  0  0  0  0  0  0  0  0  0  0
  152.2228  144.5470  160.6499 C   0  0  0  0  0  0  0  0  0  0  0  0
  151.5122  145.5403  159.9491 C   0  0  0  0  0  0  0  0  0  0  0  0
  150.8611  145.1803  158.7527 C   0  0  0  0  0  0  0  0  0  0  0  0
  150.8810  143.9298  158.2440 N   0  0  0  0  0  0  0  0  0  0  0  0
  151.5650  142.9828  158.9219 C   0  0  0  0  0  0  0  0  0  0  0  0
  154.4923  137.8276  160.8862 C   0  0  0  0  0  0  0  0  0  0  0  0
  154.9378  136.5713  160.6652 C   0  0  0  0  0  0  0  0  0  0  0  0
  154.8712  135.5484  161.6148 N   0  0  0  0  0  0  0  0  0  0  0  0
  155.2978  134.2125  161.2142 C   0  0  0  0  0  0  0  0  0  0  0  0
  156.0815  133.5485  162.3352 C   0  0  0  0  0  0  0  0  0  0  0  0
  154.9217  133.3783  163.7449 S   0  0  0  0  0  0  0  0  0  0  0  0
  153.7967  132.5356  163.3099 O   0  0  0  0  0  0  0  0  0  0  0  0
  155.6981  132.9869  164.9312 O   0  0  0  0  0  0  0  0  0  0  0  0
  154.3943  134.9611  163.9063 N   0  0  0  0  0  0  0  0  0  0  0  0
  154.3827  135.8070  162.9209 C   0  0  0  0  0  0  0  0  0  0  0  0
  153.8650  137.1459  163.1494 C   0  0  0  0  0  0  0  0  0  0  0  0
  153.9173  138.0968  162.1947 C   0  0  0  0  0  0  0  0  0  0  0  0
  155.0018  141.5342  160.2950 H   0  0  0  0  0  0  0  0  0  0  0  0
  153.9257  141.7389  158.9400 H   0  0  0  0  0  0  0  0  0  0  0  0
  152.2663  141.4375  161.2791 H   0  0  0  0  0  0  0  0  0  0  0  0
  153.5371  142.5569  161.6973 H   0  0  0  0  0  0  0  0  0  0  0  0
  152.7331  144.7880  161.5709 H   0  0  0  0  0  0  0  0  0  0  0  0
  151.4673  146.5533  160.3201 H   0  0  0  0  0  0  0  0  0  0  0  0
  150.3068  145.9168  158.1899 H   0  0  0  0  0  0  0  0  0  0  0  0
  151.5593  141.9929  158.4898 H   0  0  0  0  0  0  0  0  0  0  0  0
  155.3806  136.2643  159.7286 H   0  0  0  0  0  0  0  0  0  0  0  0
  154.4219  133.6196  160.9488 H   0  0  0  0  0  0  0  0  0  0  0  0
  155.9251  134.2605  160.3235 H   0  0  0  0  0  0  0  0  0  0  0  0
  156.4346  132.5580  162.0497 H   0  0  0  0  0  0  0  0  0  0  0  0
  156.9400  134.1467  162.6426 H   0  0  0  0  0  0  0  0  0  0  0  0
  153.4303  137.4208  164.0995 H   0  0  0  0  0  0  0  0  0  0  0  0
  153.5182  139.0738  162.4259 H   0  0  0  0  0  0  0  0  0  0  0  0
  1  2  2  0  0  0  0
  2  3  1  0  0  0  0
  2 12  1  0  0  0  0
  3  4  1  0  0  0  0
  4  5  1  0  0  0  0
  4 24  1  0  0  0  0
  4 25  1  0  0  0  0
  5  6  1  0  0  0  0
  5 26  1  0  0  0  0
  5 27  1  0  0  0  0
  6 11  1  0  0  0  0
  6  7  2  0  0  0  0
  7  8  1  0  0  0  0
  7 28  1  0  0  0  0
  8  9  2  0  0  0  0
  8 29  1  0  0  0  0
  9 10  1  0  0  0  0
  9 30  1  0  0  0  0
 10 11  2  0  0  0  0
 11 31  1  0  0  0  0
 12 23  1  0  0  0  0
 12 13  2  0  0  0  0
 13 14  1  0  0  0  0
 13 32  1  0  0  0  0
 14 21  1  0  0  0  0
 14 15  1  0  0  0  0
 15 16  1  0  0  0  0
 15 33  1  0  0  0  0
 15 34  1  0  0  0  0
 16 17  1  0  0  0  0
 16 35  1  0  0  0  0
 16 36  1  0  0  0  0
 17 18  2  0  0  0  0
 17 19  2  0  0  0  0
 17 20  1  0  0  0  0
 20 21  2  0  0  0  0
 21 22  1  0  0  0  0
 22 23  2  0  0  0  0
 22 37  1  0  0  0  0
 23 38  1  0  0  0  0
M  CHG  1   3  -1
M  END
> <s_m_source_file>
AV-unprocessed.smi

> <i_m_source_file_index>
2164

> <i_lp_mmshare_version>
43012

> <i_f3d_flags>
0

> <s_epik_input>
W0NIMl0xW0NIMl1TKD1PKSg9TylOPUMoTjEyKVtDSF09W0NIXUMoPVtDSF0yKUMoPU8pW05IXVtDSDJdW0NIMl1jM1tjSF1bY0hdW2NIXW5bY0hdMw==

> <s_epik_cmdline>
J2VwaWtfcHl0aG9uJywgJy1waCcsICc3LjAnLCAnLXRuJywgJzgnLCAnLW1hJywgJzIwMCcsICctbWV0YWxfYmluZGluZycsICctaW1hZScsICc8aW5maWxlLm1hZT4nLCAnLW9tYWUnLCAnPG91dGZpbGUubWFlPic=

> <r_epik_Ionization_Penalty>
5.17728

> <r_epik_Ionization_Penalty_Charging>
5.15676

> <r_epik_Ionization_Penalty_Neutral>
0.0205175

> <r_epik_State_Penalty>
5.1638

> <r_epik_Charging_Adjusted_Penalty>
10.3206

> <i_epik_Tot_Q>
-1

> <i_epik_Tot_abs_Q>
1

> <r_epik_Metal_State_Penalty>
1.2481

> <b_epik_Metal_Only>
1

> <s_lp_Force_Field>
OPLS_2005

> <r_lp_Energy>
26.7817

> <b_lp_Chiralities_Consistent>
1

> <s_lp_Variant>
AV-unprocessed.smi:2164-3

> <Gold.Version>
5.8.1

> <Gold.Id.Protein>
6NUR|6NUR_protein|mol2

> <Gold.PLP.Fitness>
44.2449

> <Gold.PLP.PLP>
-40.8608

> <Gold.PLP.part.hbond>
-1.0000

> <Gold.PLP.part.metal>
0.0000

> <Gold.PLP.part.buried>
-6.3320

> <Gold.PLP.part.nonpolar>
-34.2089

> <Gold.PLP.part.repulsive>
0.2488

> <Gold.PLP.ligand.clash>
0.0000

> <Gold.PLP.ligand.torsion>
1.3154

> <Gold.PLP.Chemscore.Hbond>
1.0000

> <Gold.PLP.Chemscore.CHOScore>
1.0000

> <Gold.PLP.Chemscore.Metal>
0.0000

> <Gold.Chemscore.Hbonds>
donor molecule, donor type, donor heavy atom, donor atom, acceptor molecule, acceptor atom, score
      P1  H  7997  8008       L1     1  0.99
      L1  C     9    30       P1  8029  0.95

> <Gold.PLP.Chemscore.Internal.Correction>
0.0148

> <Gold.Rescore>
     Score         DG    S(hbond)    S(metal)    S(lipo)     H(rot)  DE(clash)    DE(int)     intcor
     16.34     -17.54       0.99        0.00     106.44       1.44       0.10       1.10       ----

> <Gold.Chemscore.Fitness>
16.3356

> <Gold.Chemscore.DG>
-17.5391

> <Gold.Chemscore.ZeroCoef>
-5.4800

> <Gold.Chemscore.Hbond>
0.9882

> <Gold.Chemscore.Metal>
0.0000

> <Gold.Chemscore.Lipo>
106.4401

> <Gold.Chemscore.Internal_Hbond>
0.0000

> <Gold.Chemscore.DEClash>
0.0998

> <Gold.Chemscore.DEInternal>
1.1037

> <Gold.Chemscore.Rot>
1.4433

> <Gold.Chemscore.Internal.Correction>
   9.000000E+99

> <Gold.Chemscore.Hbonds>
donor molecule, donor type, donor heavy atom, donor atom, acceptor molecule, acceptor atom, score
      P1  H  7997  8008       L1     1  0.89

> <Gold.Chemscore.Hbond.Weighted>
-3.3005

> <Gold.Chemscore.Metal.Weighted>
-0.0000

> <Gold.Chemscore.Lipo.Weighted>
-12.4535

> <Gold.Chemscore.Internal_Hbond.Weighted>
0.0000

> <Gold.Chemscore.DEClash.Weighted>
0.0998

> <Gold.Chemscore.DEInternal.Weighted>
1.1037

> <Gold.Chemscore.Rot.Weighted>
3.6949

> <Gold.Chemscore.Internal.Correction.Weighted>
   9.000000E+99

> <Gold.Protein.RotatedTorsions>
[ 6907 6896 6895 6894 ] final -107.61 input  -60.11 | X-H torsion
[ 7974 7965 7964 7962 ] final -146.48 input  175.53 | X-H torsion
[ 8008 7997 7996 7995 ] final -129.98 input   59.86 | X-H torsion
[ 10167 10162 10161 10158 ] final  131.35 input  -65.29 | X-H torsion
[ 10718 10713 10712 10709 ] final  162.13 input   66.30 | X-H torsion
[ 10763 10752 10751 10750 ] final  156.77 input  -60.55 | X-H torsion
[ 11005 11000 10999 10996 ] final   33.82 input  -57.11 | X-H torsion

> <Gold.Protein.ActiveResidues>
 VAL166  LYS551  ARG553  GLY616  TRP617  ASP618  TYR619  PRO620  LYS621  CYS622 
 ASP623  PHE694  ASN695  SER759  ASP760  ASP761  ALA762  ILE779  LEU786  VAL792 
 PHE793  MET794  SER795  GLU796  ALA797  LYS798  CYS799  TRP800  GLU811  SER814 

> <Gold.Protein.RotatedAtoms>
  150.7454  133.9801  159.3573 H   0  0  0  0  0  0  0  0  0  0  0  0  # atno 6907 bound_to 6896
  151.7741  135.0776  160.0373 H   0  0  0  0  0  0  0  0  0  0  0  0  # atno 6908 bound_to 6896
  152.3318  133.5930  159.5851 H   0  0  0  0  0  0  0  0  0  0  0  0  # atno 6909 bound_to 6896
  144.8157  140.5451  143.5612 H   0  0  0  0  0  0  0  0  0  0  0  0  # atno 7974 bound_to 7965
  155.2882  140.0447  157.3021 H   0  0  0  0  0  0  0  0  0  0  0  0  # atno 8008 bound_to 7997
  154.5557  140.2331  155.8382 H   0  0  0  0  0  0  0  0  0  0  0  0  # atno 8009 bound_to 7997
  156.2005  140.3027  155.9523 H   0  0  0  0  0  0  0  0  0  0  0  0  # atno 8010 bound_to 7997
  139.5388  144.6710  151.4695 H   0  0  0  0  0  0  0  0  0  0  0  0  # atno 10167 bound_to 10162
  157.1268  131.0506  151.2390 H   0  0  0  0  0  0  0  0  0  0  0  0  # atno 10718 bound_to 10713
  154.1896  135.2795  155.3026 H   0  0  0  0  0  0  0  0  0  0  0  0  # atno 10763 bound_to 10752
  154.5939  135.5551  153.7309 H   0  0  0  0  0  0  0  0  0  0  0  0  # atno 10764 bound_to 10752
  153.0116  135.6375  154.2035 H   0  0  0  0  0  0  0  0  0  0  0  0  # atno 10765 bound_to 10752
  140.2592  134.3212  155.7863 H   0  0  0  0  0  0  0  0  0  0  0  0  # atno 11005 bound_to 11000
  145.5220  139.1476  143.3547 LP  0  0  0  0  0  0  0  0  0  0  0  0  # atno 17320 bound_to 7965
  146.2460  140.5361  142.8914 LP  0  0  0  0  0  0  0  0  0  0  0  0  # atno 17321 bound_to 7965
  140.6608  143.8503  150.6885 LP  0  0  0  0  0  0  0  0  0  0  0  0  # atno 17342 bound_to 10162
  140.1897  143.4047  152.1872 LP  0  0  0  0  0  0  0  0  0  0  0  0  # atno 17343 bound_to 10162
  157.4427  130.7553  149.7083 LP  0  0  0  0  0  0  0  0  0  0  0  0  # atno 17370 bound_to 10713
  155.9816  130.4017  150.3461 LP  0  0  0  0  0  0  0  0  0  0  0  0  # atno 17371 bound_to 10713
  141.2192  133.7399  156.9160 LP  0  0  0  0  0  0  0  0  0  0  0  0  # atno 17394 bound_to 11000
  140.1481  134.9248  157.2556 LP  0  0  0  0  0  0  0  0  0  0  0  0  # atno 17395 bound_to 11000

$$$$
