AV-unprocessed.smi:2061|AV-procd|sdf|8394|dock2
  -GOLD-   2272011 73D 1   1.00000     0.00000
 Structure written by MMmdl.
 45 46  0  0  0  0  0  0  0  0  3 V2000
  150.9526  139.8364  155.4921 C   0  0  0  0  0  0  0  0  0  0  0  0
  150.8087  138.3603  155.3476 C   0  0  0  0  0  0  0  0  0  0  0  0
  149.9185  137.5739  154.6720 C   0  0  0  0  0  0  0  0  0  0  0  0
  150.3627  136.2574  154.9680 C   0  0  0  0  0  0  0  0  0  0  0  0
  149.6824  135.1271  154.4413 N   0  0  0  0  0  0  0  0  0  0  0  0
  149.6541  133.8665  154.9121 C   0  0  0  0  0  0  0  0  0  0  0  0
  150.2866  133.5679  155.9322 O   0  0  0  0  0  0  0  0  0  0  0  0
  148.8809  133.0469  154.1478 N   0  5  0  0  0  0  0  0  0  0  0  0
  147.5945  133.4325  153.5676 C   0  0  0  0  0  0  0  0  0  0  0  0
  146.4165  132.7870  154.3549 C   0  0  2  0  0  0  0  0  0  0  0  0
  146.7196  131.2937  154.6727 C   0  0  0  0  0  0  0  0  0  0  0  0
  145.1279  133.0132  153.6081 N   0  3  1  0  0  0  0  0  0  0  0  0
  144.6874  134.4165  153.3733 C   0  0  0  0  0  0  0  0  0  0  0  0
  145.4378  135.0581  152.1865 C   0  0  2  0  0  0  0  0  0  0  0  0
  144.9381  136.4759  151.8894 C   0  0  0  0  0  0  0  0  0  0  0  0
  145.2242  134.2641  151.0262 O   0  0  0  0  0  0  0  0  0  0  0  0
  145.7306  132.9422  151.1689 C   0  0  2  0  0  0  0  0  0  0  0  0
  145.5214  132.2103  149.8388 C   0  0  0  0  0  0  0  0  0  0  0  0
  144.9990  132.2444  152.3350 C   0  0  0  0  0  0  0  0  0  0  0  0
  151.4312  136.2439  155.7513 N   0  0  0  0  0  0  0  0  0  0  0  0
  151.7222  137.5906  155.9983 O   0  0  0  0  0  0  0  0  0  0  0  0
  150.0485  140.3497  155.1642 H   0  0  0  0  0  0  0  0  0  0  0  0
  151.7862  140.2028  154.8933 H   0  0  0  0  0  0  0  0  0  0  0  0
  151.1362  140.1079  156.5318 H   0  0  0  0  0  0  0  0  0  0  0  0
  149.0828  137.8907  154.0658 H   0  0  0  0  0  0  0  0  0  0  0  0
  149.1394  135.2949  153.6076 H   0  0  0  0  0  0  0  0  0  0  0  0
  147.4800  134.5170  153.5816 H   0  0  0  0  0  0  0  0  0  0  0  0
  147.5149  133.1475  152.5176 H   0  0  0  0  0  0  0  0  0  0  0  0
  146.3278  133.2945  155.3163 H   0  0  0  0  0  0  0  0  0  0  0  0
  147.6447  131.1696  155.2395 H   0  0  0  0  0  0  0  0  0  0  0  0
  146.8119  130.6847  153.7711 H   0  0  0  0  0  0  0  0  0  0  0  0
  145.9480  130.8435  155.2945 H   0  0  0  0  0  0  0  0  0  0  0  0
  143.6231  134.3858  153.1351 H   0  0  0  0  0  0  0  0  0  0  0  0
  144.7512  135.0282  154.2721 H   0  0  0  0  0  0  0  0  0  0  0  0
  146.5084  135.1074  152.3864 H   0  0  0  0  0  0  0  0  0  0  0  0
  145.0925  137.1337  152.7451 H   0  0  0  0  0  0  0  0  0  0  0  0
  143.8739  136.4785  151.6522 H   0  0  0  0  0  0  0  0  0  0  0  0
  145.4695  136.9062  151.0402 H   0  0  0  0  0  0  0  0  0  0  0  0
  146.8022  132.9878  151.3684 H   0  0  0  0  0  0  0  0  0  0  0  0
  145.9061  131.1913  149.8876 H   0  0  0  0  0  0  0  0  0  0  0  0
  146.0388  132.7218  149.0269 H   0  0  0  0  0  0  0  0  0  0  0  0
  144.4639  132.1573  149.5783 H   0  0  0  0  0  0  0  0  0  0  0  0
  145.3578  131.2209  152.4457 H   0  0  0  0  0  0  0  0  0  0  0  0
  143.9372  132.1635  152.0980 H   0  0  0  0  0  0  0  0  0  0  0  0
  144.4325  132.6292  154.2323 H   0  0  0  0  0  0  0  0  0  0  0  0
  1  2  1  0  0  0  0
  1 22  1  0  0  0  0
  1 23  1  0  0  0  0
  1 24  1  0  0  0  0
  2 21  1  0  0  0  0
  2  3  2  0  0  0  0
  3  4  1  0  0  0  0
  3 25  1  0  0  0  0
  4  5  1  0  0  0  0
  4 20  2  0  0  0  0
  5  6  1  0  0  0  0
  5 26  1  0  0  0  0
  6  7  2  0  0  0  0
  6  8  1  0  0  0  0
  8  9  1  0  0  0  0
  9 10  1  0  0  0  0
  9 27  1  0  0  0  0
  9 28  1  0  0  0  0
 10 11  1  0  0  0  0
 10 12  1  0  0  0  0
 10 29  1  0  0  0  0
 11 30  1  0  0  0  0
 11 31  1  0  0  0  0
 11 32  1  0  0  0  0
 12 19  1  0  0  0  0
 12 13  1  0  0  0  0
 12 45  1  0  0  0  0
 13 14  1  0  0  0  0
 13 33  1  0  0  0  0
 13 34  1  0  0  0  0
 14 15  1  0  0  0  0
 14 16  1  0  0  0  0
 14 35  1  0  0  0  0
 15 36  1  0  0  0  0
 15 37  1  0  0  0  0
 15 38  1  0  0  0  0
 16 17  1  0  0  0  0
 17 18  1  0  0  0  0
 17 19  1  0  0  0  0
 17 39  1  0  0  0  0
 18 40  1  0  0  0  0
 18 41  1  0  0  0  0
 18 42  1  0  0  0  0
 19 43  1  0  0  0  0
 19 44  1  0  0  0  0
 20 21  1  0  0  0  0
M  CHG  1   8  -1
M  CHG  1  12   1
M  END
> <s_m_source_file>
AV-unprocessed.smi

> <i_m_source_file_index>
2061

> <i_lp_mmshare_version>
43012

> <i_f3d_flags>
0

> <s_epik_input>
W0NIM11jMVtjSF1jKG5vMSlbTkhdQyg9TylbTkhdW0NIMl1bQ0BIXShbQ0gzXSlOMltDSDJdW0NAQEhdKFtDSDNdKU9bQ0BASF0oW0NIM10pW0NIMl0y

> <s_epik_cmdline>
J2VwaWtfcHl0aG9uJywgJy1waCcsICc3LjAnLCAnLXRuJywgJzgnLCAnLW1hJywgJzIwMCcsICctbWV0YWxfYmluZGluZycsICctaW1hZScsICc8aW5maWxlLm1hZT4nLCAnLW9tYWUnLCAnPG91dGZpbGUubWFlPic=

> <r_epik_Ionization_Penalty>
6.8073

> <r_epik_Ionization_Penalty_Charging>
6.80729

> <r_epik_Ionization_Penalty_Neutral>
5.65391e-06

> <r_epik_State_Penalty>
7.47323

> <r_epik_Charging_Adjusted_Penalty>
14.2805

> <i_epik_Tot_Q>
0

> <i_epik_Tot_abs_Q>
2

> <r_epik_Metal_State_Penalty>
3.40035

> <b_epik_Metal_Only>
1

> <s_lp_Force_Field>
OPLS_2005

> <r_lp_Energy>
21.662

> <b_lp_Chiralities_Consistent>
1

> <s_lp_Variant>
AV-unprocessed.smi:2061-35

> <Gold.Version>
5.8.1

> <Gold.Id.Protein>
6NUR|6NUR_protein|mol2

> <Gold.PLP.Fitness>
38.3551

> <Gold.PLP.PLP>
-28.5564

> <Gold.PLP.part.hbond>
-3.1844

> <Gold.PLP.part.metal>
0.0000

> <Gold.PLP.part.buried>
-5.8780

> <Gold.PLP.part.nonpolar>
-21.8565

> <Gold.PLP.part.repulsive>
0.3864

> <Gold.PLP.ligand.clash>
0.0000

> <Gold.PLP.ligand.torsion>
0.6605

> <Gold.PLP.Chemscore.Hbond>
3.6400

> <Gold.PLP.Chemscore.CHOScore>
0.0000

> <Gold.PLP.Chemscore.Metal>
0.0000

> <Gold.Chemscore.Hbonds>
donor molecule, donor type, donor heavy atom, donor atom, acceptor molecule, acceptor atom, score
      L1  H     5    26       P1  7948  0.96
      L1  H    12    45       P1 10957  1.98
      P1  H 10752 10763       L1    20  1.00

> <Gold.PLP.Chemscore.Internal.Correction>
0.1997

> <Gold.Rescore>
     Score         DG    S(hbond)    S(metal)    S(lipo)     H(rot)  DE(clash)    DE(int)     intcor
     12.68     -15.55       2.09        0.00      60.45       1.56       0.07       2.81       ----

> <Gold.Chemscore.Fitness>
12.6763

> <Gold.Chemscore.DG>
-15.5537

> <Gold.Chemscore.ZeroCoef>
-5.4800

> <Gold.Chemscore.Hbond>
2.0903

> <Gold.Chemscore.Metal>
0.0000

> <Gold.Chemscore.Lipo>
60.4521

> <Gold.Chemscore.Internal_Hbond>
0.0000

> <Gold.Chemscore.DEClash>
0.0682

> <Gold.Chemscore.DEInternal>
2.8092

> <Gold.Chemscore.Rot>
1.5550

> <Gold.Chemscore.Internal.Correction>
   9.000000E+99

> <Gold.Chemscore.Hbonds>
donor molecule, donor type, donor heavy atom, donor atom, acceptor molecule, acceptor atom, score
      L1  H     5    26       P1  7948  0.41
      L1  H    12    45       P1 10957  0.76
      P1  H 10752 10763       L1    20  0.23

> <Gold.Chemscore.Hbond.Weighted>
-6.9817

> <Gold.Chemscore.Metal.Weighted>
-0.0000

> <Gold.Chemscore.Lipo.Weighted>
-7.0729

> <Gold.Chemscore.Internal_Hbond.Weighted>
0.0000

> <Gold.Chemscore.DEClash.Weighted>
0.0682

> <Gold.Chemscore.DEInternal.Weighted>
2.8092

> <Gold.Chemscore.Rot.Weighted>
3.9809

> <Gold.Chemscore.Internal.Correction.Weighted>
   9.000000E+99

> <Gold.Protein.RotatedTorsions>
[ 6907 6896 6895 6894 ] final  -56.55 input  -60.11 | X-H torsion
[ 7974 7965 7964 7962 ] final   -1.15 input  175.53 | X-H torsion
[ 8008 7997 7996 7995 ] final  -95.63 input   59.86 | X-H torsion
[ 10167 10162 10161 10158 ] final   91.86 input  -65.29 | X-H torsion
[ 10718 10713 10712 10709 ] final  -92.89 input   66.30 | X-H torsion
[ 10763 10752 10751 10750 ] final   57.13 input  -60.55 | X-H torsion
[ 11005 11000 10999 10996 ] final  -98.44 input  -57.11 | X-H torsion

> <Gold.Protein.ActiveResidues>
 VAL166  LYS551  ARG553  GLY616  TRP617  ASP618  TYR619  PRO620  LYS621  CYS622 
 ASP623  PHE694  ASN695  SER759  ASP760  ASP761  ALA762  ILE779  LEU786  VAL792 
 PHE793  MET794  SER795  GLU796  ALA797  LYS798  CYS799  TRP800  GLU811  SER814 

> <Gold.Protein.RotatedAtoms>
  150.8158  134.7339  159.6728 H   0  0  0  0  0  0  0  0  0  0  0  0  # atno 6907 bound_to 6896
  152.4277  134.5835  159.9964 H   0  0  0  0  0  0  0  0  0  0  0  0  # atno 6908 bound_to 6896
  151.6032  133.3317  159.3087 H   0  0  0  0  0  0  0  0  0  0  0  0  # atno 6909 bound_to 6896
  146.2420  140.1378  142.8336 H   0  0  0  0  0  0  0  0  0  0  0  0  # atno 7974 bound_to 7965
  154.7638  140.0478  157.0995 H   0  0  0  0  0  0  0  0  0  0  0  0  # atno 8008 bound_to 7997
  154.9904  140.3112  155.4889 H   0  0  0  0  0  0  0  0  0  0  0  0  # atno 8009 bound_to 7997
  156.2909  140.2219  156.5009 H   0  0  0  0  0  0  0  0  0  0  0  0  # atno 8010 bound_to 7997
  139.8333  144.6677  150.9373 H   0  0  0  0  0  0  0  0  0  0  0  0  # atno 10167 bound_to 10162
  156.0007  130.5005  150.5694 H   0  0  0  0  0  0  0  0  0  0  0  0  # atno 10718 bound_to 10713
  152.9844  135.5652  154.5341 H   0  0  0  0  0  0  0  0  0  0  0  0  # atno 10763 bound_to 10752
  154.4807  135.2788  155.1575 H   0  0  0  0  0  0  0  0  0  0  0  0  # atno 10764 bound_to 10752
  154.3085  135.6293  153.5508 H   0  0  0  0  0  0  0  0  0  0  0  0  # atno 10765 bound_to 10752
  141.1344  133.8246  157.0840 H   0  0  0  0  0  0  0  0  0  0  0  0  # atno 11005 bound_to 11000
  145.0272  140.8842  143.5131 LP  0  0  0  0  0  0  0  0  0  0  0  0  # atno 17320 bound_to 7965
  145.1436  139.2557  143.5477 LP  0  0  0  0  0  0  0  0  0  0  0  0  # atno 17321 bound_to 7965
  140.7805  143.3981  151.1196 LP  0  0  0  0  0  0  0  0  0  0  0  0  # atno 17342 bound_to 10162
  139.7633  143.8603  152.3105 LP  0  0  0  0  0  0  0  0  0  0  0  0  # atno 17343 bound_to 10162
  157.3591  131.0747  151.1651 LP  0  0  0  0  0  0  0  0  0  0  0  0  # atno 17370 bound_to 10713
  157.2442  130.6583  149.5903 LP  0  0  0  0  0  0  0  0  0  0  0  0  # atno 17371 bound_to 10713
  140.0434  134.9843  157.1003 LP  0  0  0  0  0  0  0  0  0  0  0  0  # atno 17394 bound_to 11000
  140.4100  134.1991  155.7163 LP  0  0  0  0  0  0  0  0  0  0  0  0  # atno 17395 bound_to 11000

$$$$
