AV-unprocessed.smi:3231|AV-procd|sdf|12333|dock10
  -GOLD-   2272018183D 1   1.00000     0.00000
 Structure written by MMmdl.
 41 42  0  0  0  0  0  0  0  0  2 V2000
  151.3871  137.1083  153.8871 O   0  0  0  0  0  0  0  0  0  0  0  0
  150.6342  138.2563  154.2243 C   0  0  2  0  0  0  0  0  0  0  0  0
  151.5122  139.1239  155.1414 C   0  0  0  0  0  0  0  0  0  0  0  0
  150.9880  140.4814  155.2461 N   0  0  0  0  0  0  0  0  0  0  0  0
  150.9574  140.9916  156.6138 C   0  0  0  0  0  0  0  0  0  0  0  0
  150.5338  142.4685  156.6558 C   0  0  0  0  0  0  0  0  0  0  0  0
  151.0195  143.1450  157.8458 N   0  0  0  0  0  0  0  0  0  0  0  0
  150.8014  144.4488  158.2382 C   0  0  0  0  0  0  0  0  0  0  0  0
  151.4472  144.6287  159.4276 C   0  0  0  0  0  0  0  0  0  0  0  0
  152.0417  143.3618  159.6845 C   0  0  0  0  0  0  0  0  0  0  0  0
  151.7817  142.4749  158.7376 N   0  0  0  0  0  0  0  0  0  0  0  0
  149.3294  137.8036  154.9163 C   0  0  0  0  0  0  0  0  0  0  0  0
  148.1902  137.6667  153.9734 N   0  3  0  0  0  0  0  0  0  0  0  0
  147.0993  136.8280  154.5246 C   0  0  0  0  0  0  0  0  0  0  0  0
  145.9672  136.6697  153.4957 C   0  0  0  0  0  0  0  0  0  0  0  0
  145.4872  137.9519  153.1123 O   0  0  0  0  0  0  0  0  0  0  0  0
  146.5020  138.7384  152.5011 C   0  0  0  0  0  0  0  0  0  0  0  0
  147.6513  138.9655  153.4977 C   0  0  0  0  0  0  0  0  0  0  0  0
  150.9950  136.6947  153.1338 H   0  0  0  0  0  0  0  0  0  0  0  0
  150.4300  138.8094  153.3076 H   0  0  0  0  0  0  0  0  0  0  0  0
  151.5901  138.6693  156.1300 H   0  0  0  0  0  0  0  0  0  0  0  0
  152.5247  139.1615  154.7365 H   0  0  0  0  0  0  0  0  0  0  0  0
  151.5361  141.1085  154.6653 H   0  0  0  0  0  0  0  0  0  0  0  0
  150.2633  140.3997  157.2113 H   0  0  0  0  0  0  0  0  0  0  0  0
  151.9381  140.8827  157.0786 H   0  0  0  0  0  0  0  0  0  0  0  0
  150.8860  142.9968  155.7683 H   0  0  0  0  0  0  0  0  0  0  0  0
  149.4456  142.5397  156.6485 H   0  0  0  0  0  0  0  0  0  0  0  0
  150.2088  145.1309  157.6465 H   0  0  0  0  0  0  0  0  0  0  0  0
  151.4888  145.5281  160.0235 H   0  0  0  0  0  0  0  0  0  0  0  0
  152.6488  143.0621  160.5260 H   0  0  0  0  0  0  0  0  0  0  0  0
  149.5139  136.8494  155.4126 H   0  0  0  0  0  0  0  0  0  0  0  0
  149.0469  138.5020  155.7056 H   0  0  0  0  0  0  0  0  0  0  0  0
  147.4877  135.8450  154.7940 H   0  0  0  0  0  0  0  0  0  0  0  0
  146.7136  137.2829  155.4383 H   0  0  0  0  0  0  0  0  0  0  0  0
  146.3110  136.1188  152.6185 H   0  0  0  0  0  0  0  0  0  0  0  0
  145.1444  136.0995  153.9272 H   0  0  0  0  0  0  0  0  0  0  0  0
  146.8622  138.2497  151.5943 H   0  0  0  0  0  0  0  0  0  0  0  0
  146.0733  139.6937  152.1984 H   0  0  0  0  0  0  0  0  0  0  0  0
  147.2936  139.5473  154.3486 H   0  0  0  0  0  0  0  0  0  0  0  0
  148.4318  139.5529  153.0162 H   0  0  0  0  0  0  0  0  0  0  0  0
  148.5422  137.1746  153.1648 H   0  0  0  0  0  0  0  0  0  0  0  0
  1  2  1  0  0  0  0
  1 19  1  0  0  0  0
  2  3  1  0  0  0  0
  2 12  1  0  0  0  0
  2 20  1  0  0  0  0
  3  4  1  0  0  0  0
  3 21  1  0  0  0  0
  3 22  1  0  0  0  0
  4  5  1  0  0  0  0
  4 23  1  0  0  0  0
  5  6  1  0  0  0  0
  5 24  1  0  0  0  0
  5 25  1  0  0  0  0
  6  7  1  0  0  0  0
  6 26  1  0  0  0  0
  6 27  1  0  0  0  0
  7 11  1  0  0  0  0
  7  8  1  0  0  0  0
  8  9  2  0  0  0  0
  8 28  1  0  0  0  0
  9 10  1  0  0  0  0
  9 29  1  0  0  0  0
 10 11  2  0  0  0  0
 10 30  1  0  0  0  0
 12 13  1  0  0  0  0
 12 31  1  0  0  0  0
 12 32  1  0  0  0  0
 13 18  1  0  0  0  0
 13 14  1  0  0  0  0
 13 41  1  0  0  0  0
 14 15  1  0  0  0  0
 14 33  1  0  0  0  0
 14 34  1  0  0  0  0
 15 16  1  0  0  0  0
 15 35  1  0  0  0  0
 15 36  1  0  0  0  0
 16 17  1  0  0  0  0
 17 18  1  0  0  0  0
 17 37  1  0  0  0  0
 17 38  1  0  0  0  0
 18 39  1  0  0  0  0
 18 40  1  0  0  0  0
M  CHG  1  13   1
M  END
> <s_m_source_file>
AV-unprocessed.smi

> <i_m_source_file_index>
3231

> <i_lp_mmshare_version>
43012

> <i_f3d_flags>
0

> <s_epik_input>
W0NIMl0xW0NIMl1PW0NIMl1bQ0gyXU4xW0NIMl1bQ0BIXShbT0hdKVtDSDJdW05IXVtDSDJdW0NIMl1uMltjSF1bY0hdW2NIXW4y

> <s_epik_cmdline>
J2VwaWtfcHl0aG9uJywgJy1waCcsICc3LjAnLCAnLXRuJywgJzgnLCAnLW1hJywgJzIwMCcsICctbWV0YWxfYmluZGluZycsICctaW1hZScsICc8aW5maWxlLm1hZT4nLCAnLW9tYWUnLCAnPG91dGZpbGUubWFlPic=

> <r_epik_Ionization_Penalty>
0.33973

> <r_epik_Ionization_Penalty_Charging>
0.202493

> <r_epik_Ionization_Penalty_Neutral>
0.137237

> <r_epik_State_Penalty>
0.943915

> <r_epik_Charging_Adjusted_Penalty>
1.14641

> <i_epik_Tot_Q>
1

> <i_epik_Tot_abs_Q>
1

> <r_epik_Metal_State_Penalty>
0.94313

> <b_epik_Metal_Only>
0

> <s_lp_Force_Field>
OPLS_2005

> <r_lp_Energy>
21.8008

> <b_lp_Chiralities_Consistent>
1

> <s_lp_Variant>
AV-unprocessed.smi:3231-3

> <Gold.Version>
5.8.1

> <Gold.Id.Protein>
6NUR|6NUR_protein|mol2

> <Gold.PLP.Fitness>
50.8025

> <Gold.PLP.PLP>
-38.0322

> <Gold.PLP.part.hbond>
-4.0000

> <Gold.PLP.part.metal>
0.0000

> <Gold.PLP.part.buried>
-4.1743

> <Gold.PLP.part.nonpolar>
-30.3097

> <Gold.PLP.part.repulsive>
0.2128

> <Gold.PLP.ligand.clash>
0.0000

> <Gold.PLP.ligand.torsion>
1.1561

> <Gold.PLP.Chemscore.Hbond>
4.0000

> <Gold.PLP.Chemscore.CHOScore>
0.9861

> <Gold.PLP.Chemscore.Metal>
0.0000

> <Gold.Chemscore.Hbonds>
donor molecule, donor type, donor heavy atom, donor atom, acceptor molecule, acceptor atom, score
      L1  H     1    19       P1  7949  0.99
      L1  H    13    41       P1  7948  2.00
      P1  H 10752 10765       L1     1  0.63
      L1  C     8    28       P1  8028  0.50
      L1  C     8    28       P1  8029  0.31

> <Gold.PLP.Chemscore.Internal.Correction>
0.1243

> <Gold.Rescore>
     Score         DG    S(hbond)    S(metal)    S(lipo)     H(rot)  DE(clash)    DE(int)     intcor
     15.16     -16.67       2.55        0.00      84.98       2.84       0.11       1.40       ----

> <Gold.Chemscore.Fitness>
15.1610

> <Gold.Chemscore.DG>
-16.6681

> <Gold.Chemscore.ZeroCoef>
-5.4800

> <Gold.Chemscore.Hbond>
2.5493

> <Gold.Chemscore.Metal>
0.0000

> <Gold.Chemscore.Lipo>
84.9830

> <Gold.Chemscore.Internal_Hbond>
0.0000

> <Gold.Chemscore.DEClash>
0.1062

> <Gold.Chemscore.DEInternal>
1.4010

> <Gold.Chemscore.Rot>
2.8397

> <Gold.Chemscore.Internal.Correction>
   9.000000E+99

> <Gold.Chemscore.Hbonds>
donor molecule, donor type, donor heavy atom, donor atom, acceptor molecule, acceptor atom, score
      L1  H     1    19       P1  7949  0.24
      L1  H    13    41       P1  7948  1.00
      P1  H 10752 10765       L1     1  0.16

> <Gold.Chemscore.Hbond.Weighted>
-8.5147

> <Gold.Chemscore.Metal.Weighted>
-0.0000

> <Gold.Chemscore.Lipo.Weighted>
-9.9430

> <Gold.Chemscore.Internal_Hbond.Weighted>
0.0000

> <Gold.Chemscore.DEClash.Weighted>
0.1062

> <Gold.Chemscore.DEInternal.Weighted>
1.4010

> <Gold.Chemscore.Rot.Weighted>
7.2696

> <Gold.Chemscore.Internal.Correction.Weighted>
   9.000000E+99

> <Gold.Protein.RotatedTorsions>
[ 6907 6896 6895 6894 ] final  -25.07 input  -60.11 | X-H torsion
[ 7974 7965 7964 7962 ] final  -58.57 input  175.53 | X-H torsion
[ 8008 7997 7996 7995 ] final  -67.91 input   59.86 | X-H torsion
[ 10167 10162 10161 10158 ] final   30.39 input  -65.29 | X-H torsion
[ 10718 10713 10712 10709 ] final  -13.39 input   66.30 | X-H torsion
[ 10763 10752 10751 10750 ] final  167.87 input  -60.55 | X-H torsion
[ 11005 11000 10999 10996 ] final    6.10 input  -57.11 | X-H torsion

> <Gold.Protein.ActiveResidues>
 VAL166  LYS551  ARG553  GLY616  TRP617  ASP618  TYR619  PRO620  LYS621  CYS622 
 ASP623  PHE694  ASN695  SER759  ASP760  ASP761  ALA762  ILE779  LEU786  VAL792 
 PHE793  MET794  SER795  GLU796  ALA797  LYS798  CYS799  TRP800  GLU811  SER814 

> <Gold.Protein.RotatedAtoms>
  151.1805  135.0358  159.8789 H   0  0  0  0  0  0  0  0  0  0  0  0  # atno 6907 bound_to 6896
  152.5445  134.1068  159.8352 H   0  0  0  0  0  0  0  0  0  0  0  0  # atno 6908 bound_to 6896
  151.1185  133.5074  159.2635 H   0  0  0  0  0  0  0  0  0  0  0  0  # atno 6909 bound_to 6896
  145.8377  140.8437  143.0050 H   0  0  0  0  0  0  0  0  0  0  0  0  # atno 7974 bound_to 7965
  154.4832  140.0883  156.7425 H   0  0  0  0  0  0  0  0  0  0  0  0  # atno 8008 bound_to 7997
  155.4418  140.3454  155.4272 H   0  0  0  0  0  0  0  0  0  0  0  0  # atno 8009 bound_to 7997
  156.1222  140.1477  156.9176 H   0  0  0  0  0  0  0  0  0  0  0  0  # atno 8010 bound_to 7997
  140.4682  144.0804  150.6230 H   0  0  0  0  0  0  0  0  0  0  0  0  # atno 10167 bound_to 10162
  156.6309  130.4901  149.6129 H   0  0  0  0  0  0  0  0  0  0  0  0  # atno 10718 bound_to 10713
  154.3602  135.2753  155.2324 H   0  0  0  0  0  0  0  0  0  0  0  0  # atno 10763 bound_to 10752
  154.4515  135.5929  153.6198 H   0  0  0  0  0  0  0  0  0  0  0  0  # atno 10764 bound_to 10752
  152.9844  135.6043  154.3822 H   0  0  0  0  0  0  0  0  0  0  0  0  # atno 10765 bound_to 10752
  140.5633  134.0171  155.7980 H   0  0  0  0  0  0  0  0  0  0  0  0  # atno 11005 bound_to 11000
  144.6735  140.0766  143.7471 LP  0  0  0  0  0  0  0  0  0  0  0  0  # atno 17320 bound_to 7965
  145.9500  139.2727  143.1218 LP  0  0  0  0  0  0  0  0  0  0  0  0  # atno 17321 bound_to 7965
  140.4010  143.2704  151.9947 LP  0  0  0  0  0  0  0  0  0  0  0  0  # atno 17342 bound_to 10162
  139.4815  144.5997  151.7627 LP  0  0  0  0  0  0  0  0  0  0  0  0  # atno 17343 bound_to 10162
  156.2235  130.6752  151.1392 LP  0  0  0  0  0  0  0  0  0  0  0  0  # atno 17370 bound_to 10713
  157.7200  131.0687  150.6174 LP  0  0  0  0  0  0  0  0  0  0  0  0  # atno 17371 bound_to 10713
  141.1101  133.9630  157.2926 LP  0  0  0  0  0  0  0  0  0  0  0  0  # atno 17394 bound_to 11000
  139.9397  135.0192  156.8669 LP  0  0  0  0  0  0  0  0  0  0  0  0  # atno 17395 bound_to 11000

$$$$
