AV-unprocessed.smi:467|AV-procd|sdf|2647|dock7
  -GOLD-   2262023 53D 1   1.00000     0.00000
 Structure written by MMmdl.
 45 47  0  0  0  0  0  0  0  0  2 V2000
  152.9902  142.9153  160.4356 C   0  0  0  0  0  0  0  0  0  0  0  0
  152.3253  142.3756  159.1808 C   0  0  0  0  0  0  0  0  0  0  0  0
  152.4333  140.9947  158.9013 C   0  0  0  0  0  0  0  0  0  0  0  0
  151.8187  140.5318  157.7441 C   0  0  0  0  0  0  0  0  0  0  0  0
  151.7485  139.2484  157.1985 N   0  3  0  0  0  0  0  0  0  0  0  0
  151.0358  139.2863  156.0391 C   0  0  0  0  0  0  0  0  0  0  0  0
  150.6476  140.5745  155.8369 N   0  0  0  0  0  0  0  0  0  0  0  0
  149.8640  141.1508  154.7349 C   0  0  0  0  0  0  0  0  0  0  0  0
  148.6128  140.3155  154.3931 C   0  0  2  0  0  0  0  0  0  0  0  0
  148.9725  139.2555  153.5305 O   0  0  0  0  0  0  0  0  0  0  0  0
  147.5192  141.1428  153.6881 C   0  0  0  0  0  0  0  0  0  0  0  0
  146.7782  142.0685  154.5457 N   0  0  0  0  0  0  0  0  0  0  0  0
  146.0417  141.3857  155.6082 C   0  0  0  0  0  0  0  0  0  0  0  0
  145.2402  142.3705  156.4777 C   0  0  0  0  0  0  0  0  0  0  0  0
  144.3616  143.1318  155.6562 O   0  0  0  0  0  0  0  0  0  0  0  0
  145.0497  143.8527  154.6398 C   0  0  0  0  0  0  0  0  0  0  0  0
  145.8436  142.8699  153.7621 C   0  0  0  0  0  0  0  0  0  0  0  0
  151.1124  141.3885  156.8772 C   0  0  0  0  0  0  0  0  0  0  0  0
  150.9942  142.7516  157.1399 C   0  0  0  0  0  0  0  0  0  0  0  0
  151.6139  143.2426  158.3115 C   0  0  0  0  0  0  0  0  0  0  0  0
  151.5044  144.7258  158.6213 C   0  0  0  0  0  0  0  0  0  0  0  0
  153.5315  142.1330  160.9685 H   0  0  0  0  0  0  0  0  0  0  0  0
  152.2447  143.3285  161.1155 H   0  0  0  0  0  0  0  0  0  0  0  0
  153.7040  143.7003  160.1848 H   0  0  0  0  0  0  0  0  0  0  0  0
  152.9729  140.3283  159.5582 H   0  0  0  0  0  0  0  0  0  0  0  0
  150.8189  138.4462  155.3949 H   0  0  0  0  0  0  0  0  0  0  0  0
  149.5674  142.1515  155.0512 H   0  0  0  0  0  0  0  0  0  0  0  0
  150.5049  141.2864  153.8634 H   0  0  0  0  0  0  0  0  0  0  0  0
  148.2182  139.8588  155.3004 H   0  0  0  0  0  0  0  0  0  0  0  0
  149.1393  139.6114  152.6714 H   0  0  0  0  0  0  0  0  0  0  0  0
  147.9940  141.7077  152.8846 H   0  0  0  0  0  0  0  0  0  0  0  0
  146.8147  140.4679  153.1989 H   0  0  0  0  0  0  0  0  0  0  0  0
  145.3610  140.6517  155.1740 H   0  0  0  0  0  0  0  0  0  0  0  0
  146.7260  140.8358  156.2528 H   0  0  0  0  0  0  0  0  0  0  0  0
  144.6545  141.8297  157.2211 H   0  0  0  0  0  0  0  0  0  0  0  0
  145.9104  143.0383  157.0212 H   0  0  0  0  0  0  0  0  0  0  0  0
  144.3242  144.3991  154.0369 H   0  0  0  0  0  0  0  0  0  0  0  0
  145.7136  144.5912  155.0922 H   0  0  0  0  0  0  0  0  0  0  0  0
  146.3852  143.4287  152.9980 H   0  0  0  0  0  0  0  0  0  0  0  0
  145.1466  142.2162  153.2348 H   0  0  0  0  0  0  0  0  0  0  0  0
  150.4571  143.4141  156.4779 H   0  0  0  0  0  0  0  0  0  0  0  0
  150.9101  145.2477  157.8705 H   0  0  0  0  0  0  0  0  0  0  0  0
  152.4925  145.1862  158.6422 H   0  0  0  0  0  0  0  0  0  0  0  0
  151.0283  144.8819  159.5896 H   0  0  0  0  0  0  0  0  0  0  0  0
  152.1576  138.4075  157.5857 H   0  0  0  0  0  0  0  0  0  0  0  0
  1  2  1  0  0  0  0
  1 22  1  0  0  0  0
  1 23  1  0  0  0  0
  1 24  1  0  0  0  0
  2 20  1  0  0  0  0
  2  3  2  0  0  0  0
  3  4  1  0  0  0  0
  3 25  1  0  0  0  0
  4 18  2  0  0  0  0
  4  5  1  0  0  0  0
  5  6  2  0  0  0  0
  5 45  1  0  0  0  0
  6  7  1  0  0  0  0
  6 26  1  0  0  0  0
  7  8  1  0  0  0  0
  7 18  1  0  0  0  0
  8  9  1  0  0  0  0
  8 27  1  0  0  0  0
  8 28  1  0  0  0  0
  9 10  1  0  0  0  0
  9 11  1  0  0  0  0
  9 29  1  0  0  0  0
 10 30  1  0  0  0  0
 11 12  1  0  0  0  0
 11 31  1  0  0  0  0
 11 32  1  0  0  0  0
 12 17  1  0  0  0  0
 12 13  1  0  0  0  0
 13 14  1  0  0  0  0
 13 33  1  0  0  0  0
 13 34  1  0  0  0  0
 14 15  1  0  0  0  0
 14 35  1  0  0  0  0
 14 36  1  0  0  0  0
 15 16  1  0  0  0  0
 16 17  1  0  0  0  0
 16 37  1  0  0  0  0
 16 38  1  0  0  0  0
 17 39  1  0  0  0  0
 17 40  1  0  0  0  0
 18 19  1  0  0  0  0
 19 20  2  0  0  0  0
 19 41  1  0  0  0  0
 20 21  1  0  0  0  0
 21 42  1  0  0  0  0
 21 43  1  0  0  0  0
 21 44  1  0  0  0  0
M  CHG  1   5   1
M  END
> <s_m_source_file>
AV-unprocessed.smi

> <i_m_source_file_index>
467

> <i_lp_mmshare_version>
43012

> <i_f3d_flags>
0

> <s_epik_input>
W0NIM11jKFtjSF0xKWMoW0NIM10pW2NIXWMoYzEyKW4oW2NIXW4yKVtDSDJdW0NASF0oW09IXSlbQ0gyXU4zW0NIMl1bQ0gyXU9bQ0gyXVtDSDJdMw==

> <s_epik_cmdline>
J2VwaWtfcHl0aG9uJywgJy1waCcsICc3LjAnLCAnLXRuJywgJzgnLCAnLW1hJywgJzIwMCcsICctbWV0YWxfYmluZGluZycsICctaW1hZScsICc8aW5maWxlLm1hZT4nLCAnLW9tYWUnLCAnPG91dGZpbGUubWFlPic=

> <r_epik_Ionization_Penalty>
1.42557

> <r_epik_Ionization_Penalty_Charging>
1.21121

> <r_epik_Ionization_Penalty_Neutral>
0.214359

> <r_epik_State_Penalty>
1.47019

> <r_epik_Charging_Adjusted_Penalty>
2.68141

> <i_epik_Tot_Q>
1

> <i_epik_Tot_abs_Q>
1

> <r_epik_Metal_State_Penalty>
5.48819

> <b_epik_Metal_Only>
0

> <s_lp_Force_Field>
OPLS_2005

> <r_lp_Energy>
33.4521

> <b_lp_Chiralities_Consistent>
1

> <s_lp_Variant>
AV-unprocessed.smi:467-5

> <Gold.Version>
5.8.1

> <Gold.Id.Protein>
6NUR|6NUR_protein|mol2

> <Gold.PLP.Fitness>
45.4314

> <Gold.PLP.PLP>
-43.4689

> <Gold.PLP.part.hbond>
-1.0000

> <Gold.PLP.part.metal>
0.0000

> <Gold.PLP.part.buried>
-5.3649

> <Gold.PLP.part.nonpolar>
-38.2041

> <Gold.PLP.part.repulsive>
0.3348

> <Gold.PLP.ligand.clash>
0.0000

> <Gold.PLP.ligand.torsion>
0.5214

> <Gold.PLP.Chemscore.Hbond>
1.0000

> <Gold.PLP.Chemscore.CHOScore>
0.0000

> <Gold.PLP.Chemscore.Metal>
0.0000

> <Gold.Chemscore.Hbonds>
donor molecule, donor type, donor heavy atom, donor atom, acceptor molecule, acceptor atom, score
      L1  H    10    30       P1  7957  1.00

> <Gold.PLP.Chemscore.Internal.Correction>
0.0052

> <Gold.Rescore>
     Score         DG    S(hbond)    S(metal)    S(lipo)     H(rot)  DE(clash)    DE(int)     intcor
     16.20     -17.39       1.00        0.00     118.80       2.08       0.67       0.52       ----

> <Gold.Chemscore.Fitness>
16.2015

> <Gold.Chemscore.DG>
-17.3921

> <Gold.Chemscore.ZeroCoef>
-5.4800

> <Gold.Chemscore.Hbond>
1.0000

> <Gold.Chemscore.Metal>
0.0000

> <Gold.Chemscore.Lipo>
118.8006

> <Gold.Chemscore.Internal_Hbond>
0.0000

> <Gold.Chemscore.DEClash>
0.6721

> <Gold.Chemscore.DEInternal>
0.5186

> <Gold.Chemscore.Rot>
2.0811

> <Gold.Chemscore.Internal.Correction>
   9.000000E+99

> <Gold.Chemscore.Hbonds>
donor molecule, donor type, donor heavy atom, donor atom, acceptor molecule, acceptor atom, score
      L1  H    10    30       P1  7957  1.00

> <Gold.Chemscore.Hbond.Weighted>
-3.3400

> <Gold.Chemscore.Metal.Weighted>
-0.0000

> <Gold.Chemscore.Lipo.Weighted>
-13.8997

> <Gold.Chemscore.Internal_Hbond.Weighted>
0.0000

> <Gold.Chemscore.DEClash.Weighted>
0.6721

> <Gold.Chemscore.DEInternal.Weighted>
0.5186

> <Gold.Chemscore.Rot.Weighted>
5.3275

> <Gold.Chemscore.Internal.Correction.Weighted>
   9.000000E+99

> <Gold.Protein.RotatedTorsions>
[ 6907 6896 6895 6894 ] final  -54.83 input  -60.11 | X-H torsion
[ 7974 7965 7964 7962 ] final  -18.95 input  175.53 | X-H torsion
[ 8008 7997 7996 7995 ] final   19.41 input   59.86 | X-H torsion
[ 10167 10162 10161 10158 ] final  -87.25 input  -65.29 | X-H torsion
[ 10718 10713 10712 10709 ] final   17.89 input   66.30 | X-H torsion
[ 10763 10752 10751 10750 ] final  -79.33 input  -60.55 | X-H torsion
[ 11005 11000 10999 10996 ] final   -0.07 input  -57.11 | X-H torsion

> <Gold.Protein.ActiveResidues>
 VAL166  LYS551  ARG553  GLY616  TRP617  ASP618  TYR619  PRO620  LYS621  CYS622 
 ASP623  PHE694  ASN695  SER759  ASP760  ASP761  ALA762  ILE779  LEU786  VAL792 
 PHE793  MET794  SER795  GLU796  ALA797  LYS798  CYS799  TRP800  GLU811  SER814 

> <Gold.Protein.RotatedAtoms>
  150.8304  134.7555  159.6848 H   0  0  0  0  0  0  0  0  0  0  0  0  # atno 6907 bound_to 6896
  152.4409  134.5589  159.9898 H   0  0  0  0  0  0  0  0  0  0  0  0  # atno 6908 bound_to 6896
  151.5751  133.3347  159.3033 H   0  0  0  0  0  0  0  0  0  0  0  0  # atno 6909 bound_to 6896
  146.1866  140.3993  142.8474 H   0  0  0  0  0  0  0  0  0  0  0  0  # atno 7974 bound_to 7965
  154.9204  140.3026  155.5219 H   0  0  0  0  0  0  0  0  0  0  0  0  # atno 8008 bound_to 7997
  156.3010  140.2372  156.4189 H   0  0  0  0  0  0  0  0  0  0  0  0  # atno 8009 bound_to 7997
  154.8336  140.0417  157.1483 H   0  0  0  0  0  0  0  0  0  0  0  0  # atno 8010 bound_to 7997
  140.3862  143.2725  151.9321 H   0  0  0  0  0  0  0  0  0  0  0  0  # atno 10167 bound_to 10162
  157.0885  130.6418  149.5843 H   0  0  0  0  0  0  0  0  0  0  0  0  # atno 10718 bound_to 10713
  154.5372  135.5699  153.6809 H   0  0  0  0  0  0  0  0  0  0  0  0  # atno 10763 bound_to 10752
  152.9954  135.6219  154.2550 H   0  0  0  0  0  0  0  0  0  0  0  0  # atno 10764 bound_to 10752
  154.2479  135.2860  155.2808 H   0  0  0  0  0  0  0  0  0  0  0  0  # atno 10765 bound_to 10752
  140.6321  133.9565  155.8280 H   0  0  0  0  0  0  0  0  0  0  0  0  # atno 11005 bound_to 11000
  144.8409  140.6856  143.6230 LP  0  0  0  0  0  0  0  0  0  0  0  0  # atno 17320 bound_to 7965
  145.3919  139.1615  143.4224 LP  0  0  0  0  0  0  0  0  0  0  0  0  # atno 17321 bound_to 7965
  139.4792  144.5771  151.7994 LP  0  0  0  0  0  0  0  0  0  0  0  0  # atno 17342 bound_to 10162
  140.4886  144.1343  150.5946 LP  0  0  0  0  0  0  0  0  0  0  0  0  # atno 17343 bound_to 10162
  155.9904  130.4955  150.7256 LP  0  0  0  0  0  0  0  0  0  0  0  0  # atno 17370 bound_to 10713
  157.4740  131.0896  151.0610 LP  0  0  0  0  0  0  0  0  0  0  0  0  # atno 17371 bound_to 10713
  141.0667  134.0266  157.3583 LP  0  0  0  0  0  0  0  0  0  0  0  0  # atno 17394 bound_to 11000
  139.9112  135.0190  156.7698 LP  0  0  0  0  0  0  0  0  0  0  0  0  # atno 17395 bound_to 11000

$$$$
