AV-unprocessed.smi:522|AV-procd|sdf|2802|dock7
  -GOLD-   2262023273D 1   1.00000     0.00000
 Structure written by MMmdl.
 41 42  0  0  0  0  0  0  0  0  1 V2000
  150.4337  138.7755  154.7839 C   0  0  0  0  0  0  0  0  0  0  0  0
  151.6496  139.4963  154.8730 O   0  0  0  0  0  0  0  0  0  0  0  0
  151.7431  140.2614  156.0636 C   0  0  0  0  0  0  0  0  0  0  0  0
  151.7870  139.3281  157.2814 C   0  0  0  0  0  0  0  0  0  0  0  0
  152.4266  139.9567  158.4279 N   0  0  0  0  0  0  0  0  0  0  0  0
  153.2763  139.3999  159.3261 C   0  0  0  0  0  0  0  0  0  0  0  0
  153.7663  137.7067  159.2306 S   0  0  0  0  0  0  0  0  0  0  0  0
  154.5966  137.5787  160.8466 C   0  0  0  0  0  0  0  0  0  0  0  0
  154.6605  136.1385  161.3755 C   0  0  0  0  0  0  0  0  0  0  0  0
  154.4420  135.2089  160.5974 O   0  0  0  0  0  0  0  0  0  0  0  0
  154.9524  135.9733  162.8229 C   0  0  0  0  0  0  0  0  0  0  0  0
  155.2619  137.1068  163.6368 C   0  0  0  0  0  0  0  0  0  0  0  0
  155.5281  138.0181  164.2993 N   0  0  0  0  0  0  0  0  0  0  0  0
  154.9487  134.7560  163.4294 C   0  0  0  0  0  0  0  0  0  0  0  0
  154.6718  133.4160  162.7584 C   0  0  0  0  0  0  0  0  0  0  0  0
  155.2199  134.6145  164.7793 N   0  0  0  0  0  0  0  0  0  0  0  0
  153.7221  140.2161  160.2819 N   0  0  0  0  0  0  0  0  0  0  0  0
  153.1003  141.4109  159.9781 C   0  0  0  0  0  0  0  0  0  0  0  0
  153.1627  142.6685  160.6200 C   0  0  0  0  0  0  0  0  0  0  0  0
  152.4272  143.7625  160.1189 C   0  0  0  0  0  0  0  0  0  0  0  0
  151.6214  143.6155  158.9713 C   0  0  0  0  0  0  0  0  0  0  0  0
  151.5452  142.3712  158.3167 C   0  0  0  0  0  0  0  0  0  0  0  0
  152.2811  141.2824  158.8214 C   0  0  0  0  0  0  0  0  0  0  0  0
  150.4097  138.2116  153.8514 H   0  0  0  0  0  0  0  0  0  0  0  0
  149.5750  139.4479  154.7934 H   0  0  0  0  0  0  0  0  0  0  0  0
  150.3344  138.0674  155.6078 H   0  0  0  0  0  0  0  0  0  0  0  0
  152.6416  140.8795  156.0401 H   0  0  0  0  0  0  0  0  0  0  0  0
  150.8873  140.9337  156.1426 H   0  0  0  0  0  0  0  0  0  0  0  0
  150.7817  139.0063  157.5518 H   0  0  0  0  0  0  0  0  0  0  0  0
  152.3375  138.4200  157.0343 H   0  0  0  0  0  0  0  0  0  0  0  0
  155.6023  137.9911  160.7637 H   0  0  0  0  0  0  0  0  0  0  0  0
  154.0552  138.1916  161.5671 H   0  0  0  0  0  0  0  0  0  0  0  0
  155.3546  133.2552  161.9233 H   0  0  0  0  0  0  0  0  0  0  0  0
  153.6471  133.3751  162.3883 H   0  0  0  0  0  0  0  0  0  0  0  0
  154.8012  132.5816  163.4493 H   0  0  0  0  0  0  0  0  0  0  0  0
  155.4309  135.4098  165.3654 H   0  0  0  0  0  0  0  0  0  0  0  0
  155.2201  133.7126  165.2349 H   0  0  0  0  0  0  0  0  0  0  0  0
  153.7765  142.7911  161.5001 H   0  0  0  0  0  0  0  0  0  0  0  0
  152.4812  144.7192  160.6177 H   0  0  0  0  0  0  0  0  0  0  0  0
  151.0616  144.4587  158.5938 H   0  0  0  0  0  0  0  0  0  0  0  0
  150.9283  142.2547  157.4379 H   0  0  0  0  0  0  0  0  0  0  0  0
  1  2  1  0  0  0  0
  1 24  1  0  0  0  0
  1 25  1  0  0  0  0
  1 26  1  0  0  0  0
  2  3  1  0  0  0  0
  3  4  1  0  0  0  0
  3 27  1  0  0  0  0
  3 28  1  0  0  0  0
  4  5  1  0  0  0  0
  4 29  1  0  0  0  0
  4 30  1  0  0  0  0
  5 23  1  0  0  0  0
  5  6  1  0  0  0  0
  6  7  1  0  0  0  0
  6 17  2  0  0  0  0
  7  8  1  0  0  0  0
  8  9  1  0  0  0  0
  8 31  1  0  0  0  0
  8 32  1  0  0  0  0
  9 10  2  0  0  0  0
  9 11  1  0  0  0  0
 11 12  1  0  0  0  0
 11 14  2  0  0  0  0
 12 13  3  0  0  0  0
 14 15  1  0  0  0  0
 14 16  1  0  0  0  0
 15 33  1  0  0  0  0
 15 34  1  0  0  0  0
 15 35  1  0  0  0  0
 16 36  1  0  0  0  0
 16 37  1  0  0  0  0
 17 18  1  0  0  0  0
 18 23  2  0  0  0  0
 18 19  1  0  0  0  0
 19 20  2  0  0  0  0
 19 38  1  0  0  0  0
 20 21  1  0  0  0  0
 20 39  1  0  0  0  0
 21 22  2  0  0  0  0
 21 40  1  0  0  0  0
 22 23  1  0  0  0  0
 22 41  1  0  0  0  0
M  END
> <s_m_source_file>
AV-unprocessed.smi

> <i_m_source_file_index>
522

> <i_lp_mmshare_version>
43012

> <i_f3d_flags>
0

> <s_epik_input>
W2NIXTFbY0hdW2NIXVtjSF1jKGMxMiluKFtDSDJdW0NIMl1PW0NIM10pYyhuMilTW0NIMl1DKD1PKS9DKEMjTik9QygvW0NIM10pW05IMl0=

> <s_epik_cmdline>
J2VwaWtfcHl0aG9uJywgJy1waCcsICc3LjAnLCAnLXRuJywgJzgnLCAnLW1hJywgJzIwMCcsICctbWV0YWxfYmluZGluZycsICctaW1hZScsICc8aW5maWxlLm1hZT4nLCAnLW9tYWUnLCAnPG91dGZpbGUubWFlPic=

> <r_lp_tautomer_probability>
0.5

> <r_epik_Ionization_Penalty>
0.0129021

> <r_epik_Ionization_Penalty_Charging>
0

> <r_epik_Ionization_Penalty_Neutral>
0.0129021

> <r_epik_State_Penalty>
0.42069

> <r_epik_Charging_Adjusted_Penalty>
0.42069

> <i_epik_Tot_Q>
0

> <i_epik_Tot_abs_Q>
0

> <r_epik_Metal_State_Penalty>
0.41068

> <b_epik_Metal_Only>
0

> <s_lp_Force_Field>
OPLS_2005

> <r_lp_Energy>
16.5573

> <b_lp_Chiralities_Consistent>
1

> <s_lp_Variant>
AV-unprocessed.smi:522-2

> <Gold.Version>
5.8.1

> <Gold.Id.Protein>
6NUR|6NUR_protein|mol2

> <Gold.PLP.Fitness>
49.8373

> <Gold.PLP.PLP>
-45.5159

> <Gold.PLP.part.hbond>
-3.0000

> <Gold.PLP.part.metal>
0.0000

> <Gold.PLP.part.buried>
-6.9162

> <Gold.PLP.part.nonpolar>
-35.7188

> <Gold.PLP.part.repulsive>
0.1240

> <Gold.PLP.ligand.clash>
0.0000

> <Gold.PLP.ligand.torsion>
0.8675

> <Gold.PLP.Chemscore.Hbond>
1.9913

> <Gold.PLP.Chemscore.CHOScore>
0.0000

> <Gold.PLP.Chemscore.Metal>
0.0000

> <Gold.Chemscore.Hbonds>
donor molecule, donor type, donor heavy atom, donor atom, acceptor molecule, acceptor atom, score
      P1  H  6896  6909       L1    10  0.78
      P1  H  7989  7998       L1     2  1.00

> <Gold.PLP.Chemscore.Internal.Correction>
0.0826

> <Gold.Rescore>
     Score         DG    S(hbond)    S(metal)    S(lipo)     H(rot)  DE(clash)    DE(int)     intcor
     16.31     -18.57       1.93        0.00     107.88       2.33       0.20       2.07       ----

> <Gold.Chemscore.Fitness>
16.3056

> <Gold.Chemscore.DG>
-18.5742

> <Gold.Chemscore.ZeroCoef>
-5.4800

> <Gold.Chemscore.Hbond>
1.9256

> <Gold.Chemscore.Metal>
0.0000

> <Gold.Chemscore.Lipo>
107.8833

> <Gold.Chemscore.Internal_Hbond>
0.0000

> <Gold.Chemscore.DEClash>
0.1958

> <Gold.Chemscore.DEInternal>
2.0728

> <Gold.Chemscore.Rot>
2.3280

> <Gold.Chemscore.Internal.Correction>
   9.000000E+99

> <Gold.Chemscore.Hbonds>
donor molecule, donor type, donor heavy atom, donor atom, acceptor molecule, acceptor atom, score
      P1  H  6896  6909       L1    10  0.76
      P1  H  7989  7998       L1     2  0.27

> <Gold.Chemscore.Hbond.Weighted>
-6.4317

> <Gold.Chemscore.Metal.Weighted>
-0.0000

> <Gold.Chemscore.Lipo.Weighted>
-12.6223

> <Gold.Chemscore.Internal_Hbond.Weighted>
0.0000

> <Gold.Chemscore.DEClash.Weighted>
0.1958

> <Gold.Chemscore.DEInternal.Weighted>
2.0728

> <Gold.Chemscore.Rot.Weighted>
5.9598

> <Gold.Chemscore.Internal.Correction.Weighted>
   9.000000E+99

> <Gold.Protein.RotatedTorsions>
[ 6907 6896 6895 6894 ] final -174.23 input  -60.11 | X-H torsion
[ 7974 7965 7964 7962 ] final  113.73 input  175.53 | X-H torsion
[ 8008 7997 7996 7995 ] final -137.75 input   59.86 | X-H torsion
[ 10167 10162 10161 10158 ] final    6.10 input  -65.29 | X-H torsion
[ 10718 10713 10712 10709 ] final  123.00 input   66.30 | X-H torsion
[ 10763 10752 10751 10750 ] final  -14.75 input  -60.55 | X-H torsion
[ 11005 11000 10999 10996 ] final   38.26 input  -57.11 | X-H torsion

> <Gold.Protein.ActiveResidues>
 VAL166  LYS551  ARG553  GLY616  TRP617  ASP618  TYR619  PRO620  LYS621  CYS622 
 ASP623  PHE694  ASN695  SER759  ASP760  ASP761  ALA762  ILE779  LEU786  VAL792 
 PHE793  MET794  SER795  GLU796  ALA797  LYS798  CYS799  TRP800  GLU811  SER814 

> <Gold.Protein.RotatedAtoms>
  151.5690  133.3392  159.2985 H   0  0  0  0  0  0  0  0  0  0  0  0  # atno 6907 bound_to 6896
  150.8378  134.7661  159.6919 H   0  0  0  0  0  0  0  0  0  0  0  0  # atno 6908 bound_to 6896
  152.4451  134.5517  159.9920 H   0  0  0  0  0  0  0  0  0  0  0  0  # atno 6909 bound_to 6896
  145.2133  139.2896  143.4257 H   0  0  0  0  0  0  0  0  0  0  0  0  # atno 7974 bound_to 7965
  155.4169  140.0516  157.3028 H   0  0  0  0  0  0  0  0  0  0  0  0  # atno 8008 bound_to 7997
  154.4920  140.2124  155.9487 H   0  0  0  0  0  0  0  0  0  0  0  0  # atno 8009 bound_to 7997
  156.1355  140.3164  155.8419 H   0  0  0  0  0  0  0  0  0  0  0  0  # atno 8010 bound_to 7997
  140.6446  143.7693  150.7479 H   0  0  0  0  0  0  0  0  0  0  0  0  # atno 10167 bound_to 10162
  157.5699  131.1084  150.8386 H   0  0  0  0  0  0  0  0  0  0  0  0  # atno 10718 bound_to 10713
  153.5330  135.7014  153.5674 H   0  0  0  0  0  0  0  0  0  0  0  0  # atno 10763 bound_to 10752
  153.3673  135.3954  155.1763 H   0  0  0  0  0  0  0  0  0  0  0  0  # atno 10764 bound_to 10752
  154.8682  135.3803  154.4828 H   0  0  0  0  0  0  0  0  0  0  0  0  # atno 10765 bound_to 10752
  140.2144  134.3716  155.8034 H   0  0  0  0  0  0  0  0  0  0  0  0  # atno 11005 bound_to 11000
  146.3392  140.2416  142.8596 LP  0  0  0  0  0  0  0  0  0  0  0  0  # atno 17320 bound_to 7965
  144.9835  140.8481  143.5383 LP  0  0  0  0  0  0  0  0  0  0  0  0  # atno 17321 bound_to 7965
  140.1331  143.4508  152.2241 LP  0  0  0  0  0  0  0  0  0  0  0  0  # atno 17342 bound_to 10162
  139.5656  144.7433  151.4032 LP  0  0  0  0  0  0  0  0  0  0  0  0  # atno 17343 bound_to 10162
  156.8860  130.5196  149.5288 LP  0  0  0  0  0  0  0  0  0  0  0  0  # atno 17370 bound_to 10713
  156.0745  130.5770  150.9447 LP  0  0  0  0  0  0  0  0  0  0  0  0  # atno 17371 bound_to 10713
  141.2225  133.7160  156.8472 LP  0  0  0  0  0  0  0  0  0  0  0  0  # atno 17394 bound_to 11000
  140.1916  134.8961  157.3067 LP  0  0  0  0  0  0  0  0  0  0  0  0  # atno 17395 bound_to 11000

$$$$
