AV-unprocessed.smi:1843|AV-procd|sdf|7506|dock4
  -GOLD-   22720 9213D 1   1.00000     0.00000
 Structure written by MMmdl.
 36 38  0  0  0  0  0  0  0  0  2 V2000
  150.9368  140.6432  155.3639 O   0  0  0  0  0  0  0  0  0  0  0  0
  150.0598  141.5100  155.3771 C   0  0  0  0  0  0  0  0  0  0  0  0
  148.9460  141.5344  154.6104 N   0  5  0  0  0  0  0  0  0  0  0  0
  147.7468  141.7532  155.1746 C   0  0  0  0  0  0  0  0  0  0  0  0
  147.5414  141.6347  156.4940 N   0  0  0  0  0  0  0  0  0  0  0  0
  146.2337  141.9082  156.8680 N   0  0  0  0  0  0  0  0  0  0  0  0
  145.4703  142.2411  155.8246 C   0  0  0  0  0  0  0  0  0  0  0  0
  144.0250  142.5826  155.9687 C   0  0  0  0  0  0  0  0  0  0  0  0
  143.3752  142.7230  157.3280 C   0  0  0  0  0  0  0  0  0  0  0  0
  143.0304  141.5496  156.4469 C   0  0  0  0  0  0  0  0  0  0  0  0
  146.3078  142.2423  154.2806 S   0  0  0  0  0  0  0  0  0  0  0  0
  150.1662  142.5585  156.2060 N   0  0  0  0  0  0  0  0  0  0  0  0
  151.2630  142.8136  157.1384 C   0  0  2  0  0  0  0  0  0  0  0  0
  151.5011  141.5847  158.0370 C   0  0  0  0  0  0  0  0  0  0  0  0
  152.6571  141.8303  159.0197 C   0  0  0  0  0  0  0  0  0  0  0  0
  152.4125  143.0887  159.8676 C   0  0  0  0  0  0  0  0  0  0  0  0
  152.1606  144.3241  158.9836 C   0  0  0  0  0  0  0  0  0  0  0  0
  151.0194  144.0953  157.9733 C   0  0  2  0  0  0  0  0  0  0  0  0
  149.7908  144.0163  158.6728 O   0  0  0  0  0  0  0  0  0  0  0  0
  143.7124  143.2680  155.1834 H   0  0  0  0  0  0  0  0  0  0  0  0
  143.9782  142.5208  158.2110 H   0  0  0  0  0  0  0  0  0  0  0  0
  142.6240  143.5012  157.4456 H   0  0  0  0  0  0  0  0  0  0  0  0
  142.0489  141.5433  155.9778 H   0  0  0  0  0  0  0  0  0  0  0  0
  143.4147  140.5746  156.7397 H   0  0  0  0  0  0  0  0  0  0  0  0
  149.4225  143.2405  156.1839 H   0  0  0  0  0  0  0  0  0  0  0  0
  152.1720  142.9613  156.5520 H   0  0  0  0  0  0  0  0  0  0  0  0
  150.5936  141.3454  158.5930 H   0  0  0  0  0  0  0  0  0  0  0  0
  151.7240  140.7118  157.4223 H   0  0  0  0  0  0  0  0  0  0  0  0
  152.7829  140.9634  159.6688 H   0  0  0  0  0  0  0  0  0  0  0  0
  153.5901  141.9392  158.4655 H   0  0  0  0  0  0  0  0  0  0  0  0
  151.5564  142.9251  160.5234 H   0  0  0  0  0  0  0  0  0  0  0  0
  153.2674  143.2690  160.5196 H   0  0  0  0  0  0  0  0  0  0  0  0
  151.9452  145.1928  159.6066 H   0  0  0  0  0  0  0  0  0  0  0  0
  153.0750  144.5611  158.4384 H   0  0  0  0  0  0  0  0  0  0  0  0
  150.9585  144.9595  157.3110 H   0  0  0  0  0  0  0  0  0  0  0  0
  149.1576  144.5491  158.2153 H   0  0  0  0  0  0  0  0  0  0  0  0
  1  2  2  0  0  0  0
  2  3  1  0  0  0  0
  2 12  1  0  0  0  0
  3  4  1  0  0  0  0
  4 11  1  0  0  0  0
  4  5  2  0  0  0  0
  5  6  1  0  0  0  0
  6  7  2  0  0  0  0
  7  8  1  0  0  0  0
  7 11  1  0  0  0  0
  8 10  1  0  0  0  0
  8  9  1  0  0  0  0
  8 20  1  0  0  0  0
  9 10  1  0  0  0  0
  9 21  1  0  0  0  0
  9 22  1  0  0  0  0
 10 23  1  0  0  0  0
 10 24  1  0  0  0  0
 12 13  1  0  0  0  0
 12 25  1  0  0  0  0
 13 18  1  0  0  0  0
 13 14  1  0  0  0  0
 13 26  1  0  0  0  0
 14 15  1  0  0  0  0
 14 27  1  0  0  0  0
 14 28  1  0  0  0  0
 15 16  1  0  0  0  0
 15 29  1  0  0  0  0
 15 30  1  0  0  0  0
 16 17  1  0  0  0  0
 16 31  1  0  0  0  0
 16 32  1  0  0  0  0
 17 18  1  0  0  0  0
 17 33  1  0  0  0  0
 17 34  1  0  0  0  0
 18 19  1  0  0  0  0
 18 35  1  0  0  0  0
 19 36  1  0  0  0  0
M  CHG  1   3  -1
M  END
> <s_m_source_file>
AV-unprocessed.smi

> <i_m_source_file_index>
1843

> <i_lp_mmshare_version>
43012

> <i_f3d_flags>
0

> <s_epik_input>
W09IXVtDQEBIXTFbQ0gyXVtDSDJdW0NIMl1bQ0gyXVtDQEhdMVtOSF1DKD1PKVtOSF1jMm5uYyhzMilbQ0hdM1tDSDJdW0NIMl0z

> <s_epik_cmdline>
J2VwaWtfcHl0aG9uJywgJy1waCcsICc3LjAnLCAnLXRuJywgJzgnLCAnLW1hJywgJzIwMCcsICctbWV0YWxfYmluZGluZycsICctaW1hZScsICc8aW5maWxlLm1hZT4nLCAnLW9tYWUnLCAnPG91dGZpbGUubWFlPic=

> <r_lp_tautomer_probability>
1

> <r_epik_Ionization_Penalty>
4.7996

> <r_epik_Ionization_Penalty_Charging>
4.64516

> <r_epik_Ionization_Penalty_Neutral>
0.154442

> <r_epik_State_Penalty>
4.64493

> <r_epik_Charging_Adjusted_Penalty>
9.29009

> <i_epik_Tot_Q>
-1

> <i_epik_Tot_abs_Q>
1

> <r_epik_Metal_State_Penalty>
0.896144

> <b_epik_Metal_Only>
1

> <s_lp_Force_Field>
OPLS_2005

> <r_lp_Energy>
9.09011

> <b_lp_Chiralities_Consistent>
1

> <s_lp_Variant>
AV-unprocessed.smi:1843-7

> <Gold.Version>
5.8.1

> <Gold.Id.Protein>
6NUR|6NUR_protein|mol2

> <Gold.PLP.Fitness>
41.5312

> <Gold.PLP.PLP>
-34.2171

> <Gold.PLP.part.hbond>
-4.2644

> <Gold.PLP.part.metal>
0.0000

> <Gold.PLP.part.buried>
-2.9556

> <Gold.PLP.part.nonpolar>
-28.0513

> <Gold.PLP.part.repulsive>
0.5971

> <Gold.PLP.ligand.clash>
0.0000

> <Gold.PLP.ligand.torsion>
0.5869

> <Gold.PLP.Chemscore.Hbond>
2.7708

> <Gold.PLP.Chemscore.CHOScore>
0.0000

> <Gold.PLP.Chemscore.Metal>
0.0000

> <Gold.Chemscore.Hbonds>
donor molecule, donor type, donor heavy atom, donor atom, acceptor molecule, acceptor atom, score
      L1  H    12    25       P1  8028  0.96
      L1  H    19    36       P1  8029  0.83
      P1  H  7989  7998       L1     1  0.90

> <Gold.PLP.Chemscore.Internal.Correction>
0.1754

> <Gold.Rescore>
     Score         DG    S(hbond)    S(metal)    S(lipo)     H(rot)  DE(clash)    DE(int)     intcor
     13.10     -15.18       1.40        0.00      80.63       1.72       0.01       2.08       ----

> <Gold.Chemscore.Fitness>
13.0974

> <Gold.Chemscore.DG>
-15.1821

> <Gold.Chemscore.ZeroCoef>
-5.4800

> <Gold.Chemscore.Hbond>
1.3955

> <Gold.Chemscore.Metal>
0.0000

> <Gold.Chemscore.Lipo>
80.6341

> <Gold.Chemscore.Internal_Hbond>
0.0000

> <Gold.Chemscore.DEClash>
0.0089

> <Gold.Chemscore.DEInternal>
2.0759

> <Gold.Chemscore.Rot>
1.7160

> <Gold.Chemscore.Internal.Correction>
   9.000000E+99

> <Gold.Chemscore.Hbonds>
donor molecule, donor type, donor heavy atom, donor atom, acceptor molecule, acceptor atom, score
      L1  H    12    25       P1  8028  0.92
      L1  H    19    36       P1  8029  0.21
      P1  H  7989  7998       L1     1  0.21

> <Gold.Chemscore.Hbond.Weighted>
-4.6609

> <Gold.Chemscore.Metal.Weighted>
-0.0000

> <Gold.Chemscore.Lipo.Weighted>
-9.4342

> <Gold.Chemscore.Internal_Hbond.Weighted>
0.0000

> <Gold.Chemscore.DEClash.Weighted>
0.0089

> <Gold.Chemscore.DEInternal.Weighted>
2.0759

> <Gold.Chemscore.Rot.Weighted>
4.3930

> <Gold.Chemscore.Internal.Correction.Weighted>
   9.000000E+99

> <Gold.Protein.RotatedTorsions>
[ 6907 6896 6895 6894 ] final  -86.69 input  -60.11 | X-H torsion
[ 7974 7965 7964 7962 ] final -165.74 input  175.53 | X-H torsion
[ 8008 7997 7996 7995 ] final -107.46 input   59.86 | X-H torsion
[ 10167 10162 10161 10158 ] final   66.64 input  -65.29 | X-H torsion
[ 10718 10713 10712 10709 ] final -170.18 input   66.30 | X-H torsion
[ 10763 10752 10751 10750 ] final  176.94 input  -60.55 | X-H torsion
[ 11005 11000 10999 10996 ] final   36.70 input  -57.11 | X-H torsion

> <Gold.Protein.ActiveResidues>
 VAL166  LYS551  ARG553  GLY616  TRP617  ASP618  TYR619  PRO620  LYS621  CYS622 
 ASP623  PHE694  ASN695  SER759  ASP760  ASP761  ALA762  ILE779  LEU786  VAL792 
 PHE793  MET794  SER795  GLU796  ALA797  LYS798  CYS799  TRP800  GLU811  SER814 

> <Gold.Protein.RotatedAtoms>
  150.6866  134.3011  159.4706 H   0  0  0  0  0  0  0  0  0  0  0  0  # atno 6907 bound_to 6896
  152.0907  134.9406  160.0581 H   0  0  0  0  0  0  0  0  0  0  0  0  # atno 6908 bound_to 6896
  152.0724  133.4078  159.4502 H   0  0  0  0  0  0  0  0  0  0  0  0  # atno 6909 bound_to 6896
  144.7262  140.2769  143.6242 H   0  0  0  0  0  0  0  0  0  0  0  0  # atno 7974 bound_to 7965
  154.9296  140.0405  157.2041 H   0  0  0  0  0  0  0  0  0  0  0  0  # atno 8008 bound_to 7997
  154.8174  140.2878  155.5789 H   0  0  0  0  0  0  0  0  0  0  0  0  # atno 8009 bound_to 7997
  156.2977  140.2525  156.3074 H   0  0  0  0  0  0  0  0  0  0  0  0  # atno 8010 bound_to 7997
  140.0982  144.4927  150.7054 H   0  0  0  0  0  0  0  0  0  0  0  0  # atno 10167 bound_to 10162
  156.7224  130.9275  151.3098 H   0  0  0  0  0  0  0  0  0  0  0  0  # atno 10718 bound_to 10713
  154.4879  135.2777  155.1520 H   0  0  0  0  0  0  0  0  0  0  0  0  # atno 10763 bound_to 10752
  154.3203  135.6211  153.5508 H   0  0  0  0  0  0  0  0  0  0  0  0  # atno 10764 bound_to 10752
  152.9884  135.5741  154.5294 H   0  0  0  0  0  0  0  0  0  0  0  0  # atno 10765 bound_to 10752
  140.2299  134.3539  155.7968 H   0  0  0  0  0  0  0  0  0  0  0  0  # atno 11005 bound_to 11000
  145.7988  139.1956  143.2060 LP  0  0  0  0  0  0  0  0  0  0  0  0  # atno 17320 bound_to 7965
  146.0694  140.7885  142.9695 LP  0  0  0  0  0  0  0  0  0  0  0  0  # atno 17321 bound_to 7965
  140.6992  143.2423  151.4914 LP  0  0  0  0  0  0  0  0  0  0  0  0  # atno 17342 bound_to 10162
  139.5686  144.1983  152.1802 LP  0  0  0  0  0  0  0  0  0  0  0  0  # atno 17343 bound_to 10162
  157.6893  130.9217  150.0469 LP  0  0  0  0  0  0  0  0  0  0  0  0  # atno 17370 bound_to 10713
  156.1585  130.3643  149.9333 LP  0  0  0  0  0  0  0  0  0  0  0  0  # atno 17371 bound_to 10713
  141.2218  133.7240  156.8715 LP  0  0  0  0  0  0  0  0  0  0  0  0  # atno 17394 bound_to 11000
  140.1761  134.9066  157.2892 LP  0  0  0  0  0  0  0  0  0  0  0  0  # atno 17395 bound_to 11000

$$$$
