AV-unprocessed.smi:1422|AV-procd|sdf|5792|dock9
  -GOLD-   22720 5443D 1   1.00000     0.00000
 Structure written by MMmdl.
 31 32  0  0  0  0  0  0  0  0  1 V2000
  151.1790  137.8819  154.5331 C   0  0  0  0  0  0  0  0  0  0  0  0
  150.6831  139.2187  154.9665 C   0  0  0  0  0  0  0  0  0  0  0  0
  151.3157  140.3484  155.4037 C   0  0  0  0  0  0  0  0  0  0  0  0
  150.2399  141.2429  155.6480 C   0  0  0  0  0  0  0  0  0  0  0  0
  150.4807  142.5556  156.1274 N   0  0  0  0  0  0  0  0  0  0  0  0
  151.4140  142.9468  157.0118 C   0  0  0  0  0  0  0  0  0  0  0  0
  152.2233  142.2016  157.5647 O   0  0  0  0  0  0  0  0  0  0  0  0
  151.3552  144.2691  157.2275 N   0  0  0  0  0  0  0  0  0  0  0  0
  152.2195  145.0193  158.1336 C   0  0  0  0  0  0  0  0  0  0  0  0
  152.1888  144.4426  159.5612 C   0  0  2  0  0  0  0  0  0  0  0  0
  153.2554  143.3996  159.8239 C   0  0  0  0  0  0  0  0  0  0  0  0
  152.7199  142.7118  161.0762 C   0  0  0  0  0  0  0  0  0  0  0  0
  151.3002  142.7828  160.9808 O   0  0  0  0  0  0  0  0  0  0  0  0
  150.9248  143.6584  159.9216 C   0  0  0  0  0  0  0  0  0  0  0  0
  149.0579  140.7084  155.3822 N   0  0  0  0  0  0  0  0  0  0  0  0
  149.3358  139.4079  154.9448 O   0  0  0  0  0  0  0  0  0  0  0  0
  152.2533  137.9056  154.3501 H   0  0  0  0  0  0  0  0  0  0  0  0
  150.6869  137.5648  153.6135 H   0  0  0  0  0  0  0  0  0  0  0  0
  150.9825  137.1312  155.2988 H   0  0  0  0  0  0  0  0  0  0  0  0
  152.3767  140.5055  155.5286 H   0  0  0  0  0  0  0  0  0  0  0  0
  149.8790  143.2747  155.7542 H   0  0  0  0  0  0  0  0  0  0  0  0
  150.6567  144.7998  156.7277 H   0  0  0  0  0  0  0  0  0  0  0  0
  153.2424  145.0600  157.7549 H   0  0  0  0  0  0  0  0  0  0  0  0
  151.8621  146.0492  158.1513 H   0  0  0  0  0  0  0  0  0  0  0  0
  152.3163  145.2524  160.2819 H   0  0  0  0  0  0  0  0  0  0  0  0
  153.3043  142.6874  158.9987 H   0  0  0  0  0  0  0  0  0  0  0  0
  154.2487  143.8264  159.9660 H   0  0  0  0  0  0  0  0  0  0  0  0
  153.0633  141.6810  161.1653 H   0  0  0  0  0  0  0  0  0  0  0  0
  153.0335  143.2521  161.9702 H   0  0  0  0  0  0  0  0  0  0  0  0
  150.0999  144.3073  160.2165 H   0  0  0  0  0  0  0  0  0  0  0  0
  150.5925  143.0518  159.0782 H   0  0  0  0  0  0  0  0  0  0  0  0
  1  2  1  0  0  0  0
  1 17  1  0  0  0  0
  1 18  1  0  0  0  0
  1 19  1  0  0  0  0
  2 16  1  0  0  0  0
  2  3  2  0  0  0  0
  3  4  1  0  0  0  0
  3 20  1  0  0  0  0
  4  5  1  0  0  0  0
  4 15  2  0  0  0  0
  5  6  1  0  0  0  0
  5 21  1  0  0  0  0
  6  7  2  0  0  0  0
  6  8  1  0  0  0  0
  8  9  1  0  0  0  0
  8 22  1  0  0  0  0
  9 10  1  0  0  0  0
  9 23  1  0  0  0  0
  9 24  1  0  0  0  0
 10 14  1  0  0  0  0
 10 11  1  0  0  0  0
 10 25  1  0  0  0  0
 11 12  1  0  0  0  0
 11 26  1  0  0  0  0
 11 27  1  0  0  0  0
 12 13  1  0  0  0  0
 12 28  1  0  0  0  0
 12 29  1  0  0  0  0
 13 14  1  0  0  0  0
 14 30  1  0  0  0  0
 14 31  1  0  0  0  0
 15 16  1  0  0  0  0
M  END
> <s_m_source_file>
AV-unprocessed.smi

> <i_m_source_file_index>
1422

> <i_lp_mmshare_version>
43012

> <i_f3d_flags>
0

> <s_epik_input>
W0NIM11jMVtjSF1jKG5vMSlbTkhdQyg9TylbTkhdW0NIMl1bQ0BASF0yW0NIMl1bQ0gyXU9bQ0gyXTI=

> <s_epik_cmdline>
J2VwaWtfcHl0aG9uJywgJy1waCcsICc3LjAnLCAnLXRuJywgJzgnLCAnLW1hJywgJzIwMCcsICctbWV0YWxfYmluZGluZycsICctaW1hZScsICc8aW5maWxlLm1hZT4nLCAnLW9tYWUnLCAnPG91dGZpbGUubWFlPic=

> <r_lp_tautomer_probability>
1

> <r_epik_Ionization_Penalty>
2.27275e-05

> <r_epik_Ionization_Penalty_Charging>
0

> <r_epik_Ionization_Penalty_Neutral>
2.27275e-05

> <r_epik_State_Penalty>
-0

> <r_epik_Charging_Adjusted_Penalty>
0

> <i_epik_Tot_Q>
0

> <i_epik_Tot_abs_Q>
0

> <r_epik_Metal_State_Penalty>
-0

> <b_epik_Metal_Only>
0

> <s_lp_Force_Field>
OPLS_2005

> <r_lp_Energy>
16.1313

> <b_lp_Chiralities_Consistent>
1

> <s_lp_Variant>
AV-unprocessed.smi:1422-1

> <Gold.Version>
5.8.1

> <Gold.Id.Protein>
6NUR|6NUR_protein|mol2

> <Gold.PLP.Fitness>
35.9183

> <Gold.PLP.PLP>
-30.9149

> <Gold.PLP.part.hbond>
-2.9321

> <Gold.PLP.part.metal>
0.0000

> <Gold.PLP.part.buried>
-2.6908

> <Gold.PLP.part.nonpolar>
-26.3216

> <Gold.PLP.part.repulsive>
0.4168

> <Gold.PLP.ligand.clash>
0.0000

> <Gold.PLP.ligand.torsion>
0.7291

> <Gold.PLP.Chemscore.Hbond>
2.1520

> <Gold.PLP.Chemscore.CHOScore>
0.0000

> <Gold.PLP.Chemscore.Metal>
0.0000

> <Gold.Chemscore.Hbonds>
donor molecule, donor type, donor heavy atom, donor atom, acceptor molecule, acceptor atom, score
      L1  H     5    21       P1  8028  1.00
      L1  H     8    22       P1  8028  0.94
      P1  H  6933  6945       L1    13  0.22

> <Gold.PLP.Chemscore.Internal.Correction>
0.0055

> <Gold.Rescore>
     Score         DG    S(hbond)    S(metal)    S(lipo)     H(rot)  DE(clash)    DE(int)     intcor
     14.42     -16.98       1.68        0.00      78.74       1.30       0.40       2.16       ----

> <Gold.Chemscore.Fitness>
14.4193

> <Gold.Chemscore.DG>
-16.9770

> <Gold.Chemscore.ZeroCoef>
-5.4800

> <Gold.Chemscore.Hbond>
1.6778

> <Gold.Chemscore.Metal>
0.0000

> <Gold.Chemscore.Lipo>
78.7373

> <Gold.Chemscore.Internal_Hbond>
0.0000

> <Gold.Chemscore.DEClash>
0.3950

> <Gold.Chemscore.DEInternal>
2.1626

> <Gold.Chemscore.Rot>
1.2965

> <Gold.Chemscore.Internal.Correction>
   9.000000E+99

> <Gold.Chemscore.Hbonds>
donor molecule, donor type, donor heavy atom, donor atom, acceptor molecule, acceptor atom, score
      L1  H     5    21       P1  8028  1.00
      L1  H     8    22       P1  8028  0.74
      P1  H  6933  6945       L1    13  0.22

> <Gold.Chemscore.Hbond.Weighted>
-5.6039

> <Gold.Chemscore.Metal.Weighted>
-0.0000

> <Gold.Chemscore.Lipo.Weighted>
-9.2123

> <Gold.Chemscore.Internal_Hbond.Weighted>
0.0000

> <Gold.Chemscore.DEClash.Weighted>
0.3950

> <Gold.Chemscore.DEInternal.Weighted>
2.1626

> <Gold.Chemscore.Rot.Weighted>
3.3192

> <Gold.Chemscore.Internal.Correction.Weighted>
   9.000000E+99

> <Gold.Protein.RotatedTorsions>
[ 6907 6896 6895 6894 ] final -177.13 input  -60.11 | X-H torsion
[ 7974 7965 7964 7962 ] final  151.48 input  175.53 | X-H torsion
[ 8008 7997 7996 7995 ] final  -25.53 input   59.86 | X-H torsion
[ 10167 10162 10161 10158 ] final  -97.65 input  -65.29 | X-H torsion
[ 10718 10713 10712 10709 ] final  -87.56 input   66.30 | X-H torsion
[ 10763 10752 10751 10750 ] final   65.09 input  -60.55 | X-H torsion
[ 11005 11000 10999 10996 ] final  159.50 input  -57.11 | X-H torsion

> <Gold.Protein.ActiveResidues>
 VAL166  LYS551  ARG553  GLY616  TRP617  ASP618  TYR619  PRO620  LYS621  CYS622 
 ASP623  PHE694  ASN695  SER759  ASP760  ASP761  ALA762  ILE779  LEU786  VAL792 
 PHE793  MET794  SER795  GLU796  ALA797  LYS798  CYS799  TRP800  GLU811  SER814 

> <Gold.Protein.RotatedAtoms>
  151.6159  133.3343  159.3077 H   0  0  0  0  0  0  0  0  0  0  0  0  # atno 6907 bound_to 6896
  150.8131  134.7301  159.6717 H   0  0  0  0  0  0  0  0  0  0  0  0  # atno 6908 bound_to 6896
  152.4228  134.5929  160.0030 H   0  0  0  0  0  0  0  0  0  0  0  0  # atno 6909 bound_to 6896
  144.8290  139.6543  143.6067 H   0  0  0  0  0  0  0  0  0  0  0  0  # atno 7974 bound_to 7965
  154.4471  140.1924  156.0633 H   0  0  0  0  0  0  0  0  0  0  0  0  # atno 8008 bound_to 7997
  156.0566  140.3302  155.7386 H   0  0  0  0  0  0  0  0  0  0  0  0  # atno 8009 bound_to 7997
  155.5476  140.0592  157.2847 H   0  0  0  0  0  0  0  0  0  0  0  0  # atno 8010 bound_to 7997
  140.2812  143.3280  152.0439 H   0  0  0  0  0  0  0  0  0  0  0  0  # atno 10167 bound_to 10162
  155.9985  130.4804  150.4885 H   0  0  0  0  0  0  0  0  0  0  0  0  # atno 10718 bound_to 10713
  153.0082  135.5369  154.6613 H   0  0  0  0  0  0  0  0  0  0  0  0  # atno 10763 bound_to 10752
  154.5821  135.2851  155.0724 H   0  0  0  0  0  0  0  0  0  0  0  0  # atno 10764 bound_to 10752
  154.1849  135.6510  153.5096 H   0  0  0  0  0  0  0  0  0  0  0  0  # atno 10765 bound_to 10752
  140.1967  134.8367  157.2973 H   0  0  0  0  0  0  0  0  0  0  0  0  # atno 11005 bound_to 11000
  146.2594  139.6375  142.9373 LP  0  0  0  0  0  0  0  0  0  0  0  0  # atno 17320 bound_to 7965
  145.4938  141.0438  143.2578 LP  0  0  0  0  0  0  0  0  0  0  0  0  # atno 17321 bound_to 7965
  139.4962  144.6590  151.6507 LP  0  0  0  0  0  0  0  0  0  0  0  0  # atno 17342 bound_to 10162
  140.5810  143.9946  150.6268 LP  0  0  0  0  0  0  0  0  0  0  0  0  # atno 17343 bound_to 10162
  157.2883  131.0621  151.2151 LP  0  0  0  0  0  0  0  0  0  0  0  0  # atno 17370 bound_to 10713
  157.3173  130.6919  149.6249 LP  0  0  0  0  0  0  0  0  0  0  0  0  # atno 17371 bound_to 10713
  140.2099  134.4151  155.7618 LP  0  0  0  0  0  0  0  0  0  0  0  0  # atno 17394 bound_to 11000
  141.2227  133.7113  156.8321 LP  0  0  0  0  0  0  0  0  0  0  0  0  # atno 17395 bound_to 11000

$$$$
