AV-unprocessed.smi:1667|AV-procd|sdf|6680|dock1
  -GOLD-   22720 7393D 1   1.00000     0.00000
 Structure written by MMmdl.
 46 48  0  0  0  0  0  0  0  0  2 V2000
  150.7335  134.4726  156.4688 C   0  0  0  0  0  0  0  0  0  0  0  0
  150.6892  135.4094  155.2671 C   0  0  0  0  0  0  0  0  0  0  0  0
  150.0004  135.1262  154.2890 O   0  0  0  0  0  0  0  0  0  0  0  0
  151.4259  136.5274  155.3554 N   0  0  0  0  0  0  0  0  0  0  0  0
  151.5659  137.5380  154.3083 C   0  0  2  0  0  0  0  0  0  0  0  0
  152.9136  138.2532  154.4795 C   0  0  0  0  0  0  0  0  0  0  0  0
  150.4426  138.5376  154.2889 C   0  0  0  0  0  0  0  0  0  0  0  0
  149.2946  138.4459  153.5564 N   0  3  0  0  0  0  0  0  0  0  0  0
  148.4739  139.5422  153.8169 C   0  0  0  0  0  0  0  0  0  0  0  0
  147.2233  139.8843  153.3121 C   0  0  0  0  0  0  0  0  0  0  0  0
  146.6493  141.0768  153.7996 C   0  0  0  0  0  0  0  0  0  0  0  0
  147.3140  141.8751  154.7530 C   0  0  0  0  0  0  0  0  0  0  0  0
  148.5820  141.5172  155.2565 C   0  0  0  0  0  0  0  0  0  0  0  0
  149.1455  140.3400  154.7644 C   0  0  0  0  0  0  0  0  0  0  0  0
  150.3572  139.6881  155.0212 N   0  0  0  0  0  0  0  0  0  0  0  0
  151.2909  140.2776  155.9950 C   0  0  0  0  0  0  0  0  0  0  0  0
  150.6696  140.4859  157.3919 C   0  0  1  0  0  0  0  0  0  0  0  0
  150.5257  139.2172  157.9946 O   0  0  0  0  0  0  0  0  0  0  0  0
  151.4722  141.4412  158.2627 C   0  0  0  0  0  0  0  0  0  0  0  0
  151.6094  142.8001  157.9029 C   0  0  0  0  0  0  0  0  0  0  0  0
  152.3644  143.6748  158.7082 C   0  0  0  0  0  0  0  0  0  0  0  0
  152.9911  143.1949  159.8741 C   0  0  0  0  0  0  0  0  0  0  0  0
  152.8556  141.8415  160.2391 C   0  0  0  0  0  0  0  0  0  0  0  0
  153.4521  141.3802  161.3637 F   0  0  0  0  0  0  0  0  0  0  0  0
  152.0947  140.9684  159.4378 C   0  0  0  0  0  0  0  0  0  0  0  0
  151.5751  137.0180  153.3499 H   0  0  0  0  0  0  0  0  0  0  0  0
  150.5949  135.0282  157.3968 H   0  0  0  0  0  0  0  0  0  0  0  0
  151.6945  133.9596  156.5123 H   0  0  0  0  0  0  0  0  0  0  0  0
  149.9465  133.7203  156.4020 H   0  0  0  0  0  0  0  0  0  0  0  0
  151.9589  136.6740  156.2005 H   0  0  0  0  0  0  0  0  0  0  0  0
  153.0863  138.9728  153.6790 H   0  0  0  0  0  0  0  0  0  0  0  0
  153.7406  137.5427  154.4633 H   0  0  0  0  0  0  0  0  0  0  0  0
  152.9580  138.7948  155.4251 H   0  0  0  0  0  0  0  0  0  0  0  0
  146.7105  139.2717  152.5851 H   0  0  0  0  0  0  0  0  0  0  0  0
  145.6786  141.3834  153.4373 H   0  0  0  0  0  0  0  0  0  0  0  0
  146.8414  142.7801  155.1062 H   0  0  0  0  0  0  0  0  0  0  0  0
  149.0815  142.1350  155.9884 H   0  0  0  0  0  0  0  0  0  0  0  0
  152.1607  139.6215  156.0551 H   0  0  0  0  0  0  0  0  0  0  0  0
  151.6527  141.2244  155.5942 H   0  0  0  0  0  0  0  0  0  0  0  0
  149.6606  140.8842  157.2847 H   0  0  0  0  0  0  0  0  0  0  0  0
  151.1078  139.1706  158.7378 H   0  0  0  0  0  0  0  0  0  0  0  0
  151.1348  143.1756  157.0080 H   0  0  0  0  0  0  0  0  0  0  0  0
  152.4652  144.7137  158.4303 H   0  0  0  0  0  0  0  0  0  0  0  0
  153.5709  143.8655  160.4911 H   0  0  0  0  0  0  0  0  0  0  0  0
  151.9942  139.9328  159.7279 H   0  0  0  0  0  0  0  0  0  0  0  0
  149.0944  137.6854  152.9199 H   0  0  0  0  0  0  0  0  0  0  0  0
  1  2  1  0  0  0  0
  1 27  1  0  0  0  0
  1 28  1  0  0  0  0
  1 29  1  0  0  0  0
  2  3  2  0  0  0  0
  2  4  1  0  0  0  0
  4  5  1  0  0  0  0
  4 30  1  0  0  0  0
  5 26  1  0  0  0  0
  5  6  1  0  0  0  0
  5  7  1  0  0  0  0
  6 31  1  0  0  0  0
  6 32  1  0  0  0  0
  6 33  1  0  0  0  0
  7 15  1  0  0  0  0
  7  8  2  0  0  0  0
  8  9  1  0  0  0  0
  8 46  1  0  0  0  0
  9 14  2  0  0  0  0
  9 10  1  0  0  0  0
 10 11  2  0  0  0  0
 10 34  1  0  0  0  0
 11 12  1  0  0  0  0
 11 35  1  0  0  0  0
 12 13  2  0  0  0  0
 12 36  1  0  0  0  0
 13 14  1  0  0  0  0
 13 37  1  0  0  0  0
 14 15  1  0  0  0  0
 15 16  1  0  0  0  0
 16 17  1  0  0  0  0
 16 38  1  0  0  0  0
 16 39  1  0  0  0  0
 17 18  1  0  0  0  0
 17 19  1  0  0  0  0
 17 40  1  0  0  0  0
 18 41  1  0  0  0  0
 19 25  1  0  0  0  0
 19 20  2  0  0  0  0
 20 21  1  0  0  0  0
 20 42  1  0  0  0  0
 21 22  2  0  0  0  0
 21 43  1  0  0  0  0
 22 23  1  0  0  0  0
 22 44  1  0  0  0  0
 23 24  1  0  0  0  0
 23 25  2  0  0  0  0
 25 45  1  0  0  0  0
M  CHG  1   8   1
M  END
> <s_m_source_file>
AV-unprocessed.smi

> <i_m_source_file_index>
1667

> <i_lp_mmshare_version>
43012

> <i_f3d_flags>
0

> <s_epik_input>
W0NIM11DKD1PKVtOSF1bQ0BASF0oW0NIM10pYyhuMSluKGMoYzEyKVtjSF1bY0hdW2NIXVtjSF0yKVtDSDJdW0NASF0oW09IXSljM1tjSF1bY0hdW2NIXWMoRilbY0hdMw==

> <s_epik_cmdline>
J2VwaWtfcHl0aG9uJywgJy1waCcsICc3LjAnLCAnLXRuJywgJzgnLCAnLW1hJywgJzIwMCcsICctbWV0YWxfYmluZGluZycsICctaW1hZScsICc8aW5maWxlLm1hZT4nLCAnLW9tYWUnLCAnPG91dGZpbGUubWFlPic=

> <r_epik_Ionization_Penalty>
0.950383

> <r_epik_Ionization_Penalty_Charging>
0.950379

> <r_epik_Ionization_Penalty_Neutral>
3.60962e-06

> <r_epik_State_Penalty>
0.994584

> <r_epik_Charging_Adjusted_Penalty>
1.94496

> <i_epik_Tot_Q>
1

> <i_epik_Tot_abs_Q>
1

> <r_epik_Metal_State_Penalty>
1.10485

> <b_epik_Metal_Only>
0

> <s_lp_Force_Field>
OPLS_2005

> <r_lp_Energy>
10.8153

> <b_lp_Chiralities_Consistent>
1

> <s_lp_Variant>
AV-unprocessed.smi:1667-8

> <Gold.Version>
5.8.1

> <Gold.Id.Protein>
6NUR|6NUR_protein|mol2

> <Gold.PLP.Fitness>
59.7157

> <Gold.PLP.PLP>
-56.1488

> <Gold.PLP.part.hbond>
-2.0000

> <Gold.PLP.part.metal>
0.0000

> <Gold.PLP.part.buried>
0.9583

> <Gold.PLP.part.nonpolar>
-57.1727

> <Gold.PLP.part.repulsive>
0.7340

> <Gold.PLP.ligand.clash>
0.0000

> <Gold.PLP.ligand.torsion>
1.2387

> <Gold.PLP.Chemscore.Hbond>
2.0000

> <Gold.PLP.Chemscore.CHOScore>
0.0000

> <Gold.PLP.Chemscore.Metal>
0.0000

> <Gold.Chemscore.Hbonds>
donor molecule, donor type, donor heavy atom, donor atom, acceptor molecule, acceptor atom, score
      L1  H     8    46       P1  7948  2.00

> <Gold.PLP.Chemscore.Internal.Correction>
0.0442

> <Gold.Rescore>
     Score         DG    S(hbond)    S(metal)    S(lipo)     H(rot)  DE(clash)    DE(int)     intcor
     15.19     -18.67       0.98        0.00     140.20       2.53       2.77       0.70       ----

> <Gold.Chemscore.Fitness>
15.1894

> <Gold.Chemscore.DG>
-18.6654

> <Gold.Chemscore.ZeroCoef>
-5.4800

> <Gold.Chemscore.Hbond>
0.9783

> <Gold.Chemscore.Metal>
0.0000

> <Gold.Chemscore.Lipo>
140.2015

> <Gold.Chemscore.Internal_Hbond>
0.0000

> <Gold.Chemscore.DEClash>
2.7750

> <Gold.Chemscore.DEInternal>
0.7010

> <Gold.Chemscore.Rot>
2.5335

> <Gold.Chemscore.Internal.Correction>
   9.000000E+99

> <Gold.Chemscore.Hbonds>
donor molecule, donor type, donor heavy atom, donor atom, acceptor molecule, acceptor atom, score
      L1  H     8    46       P1  7948  1.00

> <Gold.Chemscore.Hbond.Weighted>
-3.2675

> <Gold.Chemscore.Metal.Weighted>
-0.0000

> <Gold.Chemscore.Lipo.Weighted>
-16.4036

> <Gold.Chemscore.Internal_Hbond.Weighted>
0.0000

> <Gold.Chemscore.DEClash.Weighted>
2.7750

> <Gold.Chemscore.DEInternal.Weighted>
0.7010

> <Gold.Chemscore.Rot.Weighted>
6.4856

> <Gold.Chemscore.Internal.Correction.Weighted>
   9.000000E+99

> <Gold.Protein.RotatedTorsions>
[ 6907 6896 6895 6894 ] final -138.66 input  -60.11 | X-H torsion
[ 7974 7965 7964 7962 ] final   35.09 input  175.53 | X-H torsion
[ 8008 7997 7996 7995 ] final  -70.50 input   59.86 | X-H torsion
[ 10167 10162 10161 10158 ] final  -53.64 input  -65.29 | X-H torsion
[ 10718 10713 10712 10709 ] final -144.84 input   66.30 | X-H torsion
[ 10763 10752 10751 10750 ] final    9.79 input  -60.55 | X-H torsion
[ 11005 11000 10999 10996 ] final -158.70 input  -57.11 | X-H torsion

> <Gold.Protein.ActiveResidues>
 VAL166  LYS551  ARG553  GLY616  TRP617  ASP618  TYR619  PRO620  LYS621  CYS622 
 ASP623  PHE694  ASN695  SER759  ASP760  ASP761  ALA762  ILE779  LEU786  VAL792 
 PHE793  MET794  SER795  GLU796  ALA797  LYS798  CYS799  TRP800  GLU811  SER814 

> <Gold.Protein.RotatedAtoms>
  151.0379  133.5732  159.2653 H   0  0  0  0  0  0  0  0  0  0  0  0  # atno 6907 bound_to 6896
  151.2790  135.0707  159.9172 H   0  0  0  0  0  0  0  0  0  0  0  0  # atno 6908 bound_to 6896
  152.5358  134.0096  159.7986 H   0  0  0  0  0  0  0  0  0  0  0  0  # atno 6909 bound_to 6896
  146.1307  139.6186  142.9228 H   0  0  0  0  0  0  0  0  0  0  0  0  # atno 7974 bound_to 7965
  154.5017  140.0833  156.7811 H   0  0  0  0  0  0  0  0  0  0  0  0  # atno 8008 bound_to 7997
  155.3988  140.3436  155.4237 H   0  0  0  0  0  0  0  0  0  0  0  0  # atno 8009 bound_to 7997
  156.1464  140.1545  156.8827 H   0  0  0  0  0  0  0  0  0  0  0  0  # atno 8010 bound_to 7997
  140.6474  143.2544  151.4821 H   0  0  0  0  0  0  0  0  0  0  0  0  # atno 10167 bound_to 10162
  156.3751  130.7808  151.1994 H   0  0  0  0  0  0  0  0  0  0  0  0  # atno 10718 bound_to 10713
  153.2102  135.6868  153.8123 H   0  0  0  0  0  0  0  0  0  0  0  0  # atno 10763 bound_to 10752
  153.7358  135.3245  155.3295 H   0  0  0  0  0  0  0  0  0  0  0  0  # atno 10764 bound_to 10752
  154.8218  135.4646  154.0907 H   0  0  0  0  0  0  0  0  0  0  0  0  # atno 10765 bound_to 10752
  140.6507  134.4453  157.5235 H   0  0  0  0  0  0  0  0  0  0  0  0  # atno 11005 bound_to 11000
  145.5266  141.0429  143.2406 LP  0  0  0  0  0  0  0  0  0  0  0  0  # atno 17320 bound_to 7965
  144.7688  139.6783  143.7203 LP  0  0  0  0  0  0  0  0  0  0  0  0  # atno 17321 bound_to 7965
  139.5686  144.1983  152.1802 LP  0  0  0  0  0  0  0  0  0  0  0  0  # atno 17342 bound_to 10162
  140.1272  144.5320  150.6825 LP  0  0  0  0  0  0  0  0  0  0  0  0  # atno 17343 bound_to 10162
  157.7487  131.0361  150.4392 LP  0  0  0  0  0  0  0  0  0  0  0  0  # atno 17370 bound_to 10713
  156.4626  130.4035  149.6567 LP  0  0  0  0  0  0  0  0  0  0  0  0  # atno 17371 bound_to 10713
  139.9047  134.8476  156.1754 LP  0  0  0  0  0  0  0  0  0  0  0  0  # atno 17394 bound_to 11000
  141.0539  133.6875  156.1823 LP  0  0  0  0  0  0  0  0  0  0  0  0  # atno 17395 bound_to 11000

$$$$
