AV-unprocessed.smi:2003|AV-procd|sdf|8119|dock5
  -GOLD-   2272010353D 1   1.00000     0.00000
 Structure written by MMmdl.
 44 45  0  0  0  0  0  0  0  0  2 V2000
  153.3126  141.2239  160.7726 C   0  0  0  0  0  0  0  0  0  0  0  0
  152.5993  141.9633  159.6794 C   0  0  0  0  0  0  0  0  0  0  0  0
  151.6467  141.4526  158.7503 C   0  0  0  0  0  0  0  0  0  0  0  0
  151.3380  142.5540  157.9996 C   0  0  0  0  0  0  0  0  0  0  0  0
  150.4799  142.6612  156.9505 N   0  0  0  0  0  0  0  0  0  0  0  0
  150.0503  141.6995  156.1153 C   0  0  0  0  0  0  0  0  0  0  0  0
  150.3519  140.5082  156.1814 O   0  0  0  0  0  0  0  0  0  0  0  0
  149.2366  142.2038  155.1767 N   0  0  0  0  0  0  0  0  0  0  0  0
  148.5908  141.4374  154.1116 C   0  0  0  0  0  0  0  0  0  0  0  0
  147.0413  141.4213  154.2126 C   0  0  2  0  0  0  0  0  0  0  0  0
  146.6080  141.5777  155.6868 C   0  0  0  0  0  0  0  0  0  0  0  0
  146.4350  140.2177  153.5554 N   0  3  0  0  0  0  0  0  0  0  0  0
  147.2283  139.6709  152.4206 C   0  0  0  0  0  0  0  0  0  0  0  0
  146.5276  138.4565  151.7874 C   0  0  0  0  0  0  0  0  0  0  0  0
  146.3006  137.4615  152.7740 O   0  0  0  0  0  0  0  0  0  0  0  0
  145.4507  137.9377  153.8063 C   0  0  0  0  0  0  0  0  0  0  0  0
  146.1197  139.1257  154.5166 C   0  0  0  0  0  0  0  0  0  0  0  0
  152.0649  143.6272  158.4640 N   0  0  0  0  0  0  0  0  0  0  0  0
  152.0860  144.9987  157.9942 C   0  0  0  0  0  0  0  0  0  0  0  0
  152.8449  143.2567  159.5022 N   0  0  0  0  0  0  0  0  0  0  0  0
  152.9719  140.1901  160.8367 H   0  0  0  0  0  0  0  0  0  0  0  0
  153.1377  141.6905  161.7424 H   0  0  0  0  0  0  0  0  0  0  0  0
  154.3886  141.2081  160.5980 H   0  0  0  0  0  0  0  0  0  0  0  0
  151.2697  140.4445  158.6670 H   0  0  0  0  0  0  0  0  0  0  0  0
  150.1270  143.5913  156.7800 H   0  0  0  0  0  0  0  0  0  0  0  0
  149.0327  143.1920  155.2111 H   0  0  0  0  0  0  0  0  0  0  0  0
  148.9102  141.7977  153.1322 H   0  0  0  0  0  0  0  0  0  0  0  0
  148.9756  140.4194  154.1679 H   0  0  0  0  0  0  0  0  0  0  0  0
  146.6733  142.3039  153.6867 H   0  0  0  0  0  0  0  0  0  0  0  0
  147.1657  142.3754  156.1784 H   0  0  0  0  0  0  0  0  0  0  0  0
  146.7727  140.6623  156.2554 H   0  0  0  0  0  0  0  0  0  0  0  0
  145.5553  141.8453  155.7756 H   0  0  0  0  0  0  0  0  0  0  0  0
  147.3582  140.4176  151.6385 H   0  0  0  0  0  0  0  0  0  0  0  0
  148.2227  139.3899  152.7710 H   0  0  0  0  0  0  0  0  0  0  0  0
  145.5841  138.7493  151.3235 H   0  0  0  0  0  0  0  0  0  0  0  0
  147.1505  138.0343  150.9986 H   0  0  0  0  0  0  0  0  0  0  0  0
  144.4799  138.2229  153.3973 H   0  0  0  0  0  0  0  0  0  0  0  0
  145.2719  137.1293  154.5154 H   0  0  0  0  0  0  0  0  0  0  0  0
  147.0364  138.7960  155.0082 H   0  0  0  0  0  0  0  0  0  0  0  0
  145.4468  139.4751  155.2981 H   0  0  0  0  0  0  0  0  0  0  0  0
  151.0664  145.3776  157.9183 H   0  0  0  0  0  0  0  0  0  0  0  0
  152.5566  145.0405  157.0117 H   0  0  0  0  0  0  0  0  0  0  0  0
  152.6456  145.6325  158.6837 H   0  0  0  0  0  0  0  0  0  0  0  0
  145.5559  140.5227  153.1628 H   0  0  0  0  0  0  0  0  0  0  0  0
  1  2  1  0  0  0  0
  1 21  1  0  0  0  0
  1 22  1  0  0  0  0
  1 23  1  0  0  0  0
  2 20  2  0  0  0  0
  2  3  1  0  0  0  0
  3  4  2  0  0  0  0
  3 24  1  0  0  0  0
  4  5  1  0  0  0  0
  4 18  1  0  0  0  0
  5  6  1  0  0  0  0
  5 25  1  0  0  0  0
  6  7  2  0  0  0  0
  6  8  1  0  0  0  0
  8  9  1  0  0  0  0
  8 26  1  0  0  0  0
  9 10  1  0  0  0  0
  9 27  1  0  0  0  0
  9 28  1  0  0  0  0
 10 11  1  0  0  0  0
 10 12  1  0  0  0  0
 10 29  1  0  0  0  0
 11 30  1  0  0  0  0
 11 31  1  0  0  0  0
 11 32  1  0  0  0  0
 12 17  1  0  0  0  0
 12 13  1  0  0  0  0
 12 44  1  0  0  0  0
 13 14  1  0  0  0  0
 13 33  1  0  0  0  0
 13 34  1  0  0  0  0
 14 15  1  0  0  0  0
 14 35  1  0  0  0  0
 14 36  1  0  0  0  0
 15 16  1  0  0  0  0
 16 17  1  0  0  0  0
 16 37  1  0  0  0  0
 16 38  1  0  0  0  0
 17 39  1  0  0  0  0
 17 40  1  0  0  0  0
 18 19  1  0  0  0  0
 18 20  1  0  0  0  0
 19 41  1  0  0  0  0
 19 42  1  0  0  0  0
 19 43  1  0  0  0  0
M  CHG  1  12   1
M  END
> <s_m_source_file>
AV-unprocessed.smi

> <i_m_source_file_index>
2003

> <i_lp_mmshare_version>
43012

> <i_f3d_flags>
0

> <s_epik_input>
W0NIM11jMVtjSF1jKG4objEpW0NIM10pW05IXUMoPU8pW05IXVtDSDJdW0NASF0oW0NIM10pTjJbQ0gyXVtDSDJdT1tDSDJdW0NIMl0y

> <s_epik_cmdline>
J2VwaWtfcHl0aG9uJywgJy1waCcsICc3LjAnLCAnLXRuJywgJzgnLCAnLW1hJywgJzIwMCcsICctbWV0YWxfYmluZGluZycsICctaW1hZScsICc8aW5maWxlLm1hZT4nLCAnLW9tYWUnLCAnPG91dGZpbGUubWFlPic=

> <r_lp_tautomer_probability>
1

> <r_epik_Ionization_Penalty>
0.663903

> <r_epik_Ionization_Penalty_Charging>
0.663826

> <r_epik_Ionization_Penalty_Neutral>
7.78239e-05

> <r_epik_State_Penalty>
0.683414

> <r_epik_Charging_Adjusted_Penalty>
1.34724

> <i_epik_Tot_Q>
1

> <i_epik_Tot_abs_Q>
1

> <r_epik_Metal_State_Penalty>
0.683419

> <b_epik_Metal_Only>
0

> <s_lp_Force_Field>
OPLS_2005

> <r_lp_Energy>
28.7948

> <b_lp_Chiralities_Consistent>
1

> <s_lp_Variant>
AV-unprocessed.smi:2003-3

> <Gold.Version>
5.8.1

> <Gold.Id.Protein>
6NUR|6NUR_protein|mol2

> <Gold.PLP.Fitness>
48.1366

> <Gold.PLP.PLP>
-38.8441

> <Gold.PLP.part.hbond>
-3.0000

> <Gold.PLP.part.metal>
0.0000

> <Gold.PLP.part.buried>
-3.6277

> <Gold.PLP.part.nonpolar>
-33.7663

> <Gold.PLP.part.repulsive>
0.4869

> <Gold.PLP.ligand.clash>
0.0069

> <Gold.PLP.ligand.torsion>
1.2947

> <Gold.PLP.Chemscore.Hbond>
3.9440

> <Gold.PLP.Chemscore.CHOScore>
0.0000

> <Gold.PLP.Chemscore.Metal>
0.0000

> <Gold.Chemscore.Hbonds>
donor molecule, donor type, donor heavy atom, donor atom, acceptor molecule, acceptor atom, score
      L1  H     5    25       P1  8028  0.93
      L1  H     8    26       P1  8028  1.00
      L1  H    12    44       P1 10175  2.00

> <Gold.PLP.Chemscore.Internal.Correction>
0.0569

> <Gold.Rescore>
     Score         DG    S(hbond)    S(metal)    S(lipo)     H(rot)  DE(clash)    DE(int)     intcor
     17.85     -20.25       2.87        0.00      78.14       1.54       0.22       2.18       ----

> <Gold.Chemscore.Fitness>
17.8463

> <Gold.Chemscore.DG>
-20.2541

> <Gold.Chemscore.ZeroCoef>
-5.4800

> <Gold.Chemscore.Hbond>
2.8664

> <Gold.Chemscore.Metal>
0.0000

> <Gold.Chemscore.Lipo>
78.1395

> <Gold.Chemscore.Internal_Hbond>
0.0000

> <Gold.Chemscore.DEClash>
0.2233

> <Gold.Chemscore.DEInternal>
2.1845

> <Gold.Chemscore.Rot>
1.5398

> <Gold.Chemscore.Internal.Correction>
   9.000000E+99

> <Gold.Chemscore.Hbonds>
donor molecule, donor type, donor heavy atom, donor atom, acceptor molecule, acceptor atom, score
      L1  H     5    25       P1  8028  0.87
      L1  H     8    26       P1  8028  0.98
      L1  H    12    44       P1 10175  0.87

> <Gold.Chemscore.Hbond.Weighted>
-9.5737

> <Gold.Chemscore.Metal.Weighted>
-0.0000

> <Gold.Chemscore.Lipo.Weighted>
-9.1423

> <Gold.Chemscore.Internal_Hbond.Weighted>
0.0000

> <Gold.Chemscore.DEClash.Weighted>
0.2233

> <Gold.Chemscore.DEInternal.Weighted>
2.1845

> <Gold.Chemscore.Rot.Weighted>
3.9420

> <Gold.Chemscore.Internal.Correction.Weighted>
   9.000000E+99

> <Gold.Protein.RotatedTorsions>
[ 6907 6896 6895 6894 ] final -163.73 input  -60.11 | X-H torsion
[ 7974 7965 7964 7962 ] final -149.64 input  175.53 | X-H torsion
[ 8008 7997 7996 7995 ] final  -97.92 input   59.86 | X-H torsion
[ 10167 10162 10161 10158 ] final -128.87 input  -65.29 | X-H torsion
[ 10718 10713 10712 10709 ] final  158.94 input   66.30 | X-H torsion
[ 10763 10752 10751 10750 ] final -123.83 input  -60.55 | X-H torsion
[ 11005 11000 10999 10996 ] final -129.37 input  -57.11 | X-H torsion

> <Gold.Protein.ActiveResidues>
 VAL166  LYS551  ARG553  GLY616  TRP617  ASP618  TYR619  PRO620  LYS621  CYS622 
 ASP623  PHE694  ASN695  SER759  ASP760  ASP761  ALA762  ILE779  LEU786  VAL792 
 PHE793  MET794  SER795  GLU796  ALA797  LYS798  CYS799  TRP800  GLU811  SER814 

> <Gold.Protein.RotatedAtoms>
  151.4006  133.3758  159.2731 H   0  0  0  0  0  0  0  0  0  0  0  0  # atno 6907 bound_to 6896
  150.9436  134.8844  159.7638 H   0  0  0  0  0  0  0  0  0  0  0  0  # atno 6908 bound_to 6896
  152.5082  134.3958  159.9452 H   0  0  0  0  0  0  0  0  0  0  0  0  # atno 6909 bound_to 6896
  144.7955  140.5037  143.5743 H   0  0  0  0  0  0  0  0  0  0  0  0  # atno 7974 bound_to 7965
  154.7942  140.0459  157.1224 H   0  0  0  0  0  0  0  0  0  0  0  0  # atno 8008 bound_to 7997
  154.9555  140.3070  155.5035 H   0  0  0  0  0  0  0  0  0  0  0  0  # atno 8009 bound_to 7997
  156.2954  140.2280  156.4636 H   0  0  0  0  0  0  0  0  0  0  0  0  # atno 8010 bound_to 7997
  139.9457  143.6112  152.2490 H   0  0  0  0  0  0  0  0  0  0  0  0  # atno 10167 bound_to 10162
  157.1710  131.0610  151.2182 H   0  0  0  0  0  0  0  0  0  0  0  0  # atno 10718 bound_to 10713
  154.8714  135.4084  154.3007 H   0  0  0  0  0  0  0  0  0  0  0  0  # atno 10763 bound_to 10752
  153.3867  135.7013  153.6530 H   0  0  0  0  0  0  0  0  0  0  0  0  # atno 10764 bound_to 10752
  153.5330  135.3663  155.2655 H   0  0  0  0  0  0  0  0  0  0  0  0  # atno 10765 bound_to 10752
  140.9437  134.1158  157.4127 H   0  0  0  0  0  0  0  0  0  0  0  0  # atno 11005 bound_to 11000
  145.5685  139.1482  143.3302 LP  0  0  0  0  0  0  0  0  0  0  0  0  # atno 17320 bound_to 7965
  146.2221  140.5819  142.9012 LP  0  0  0  0  0  0  0  0  0  0  0  0  # atno 17321 bound_to 7965
  139.6668  144.7662  151.1857 LP  0  0  0  0  0  0  0  0  0  0  0  0  # atno 17342 bound_to 10162
  140.7598  143.5925  150.8782 LP  0  0  0  0  0  0  0  0  0  0  0  0  # atno 17343 bound_to 10162
  157.4043  130.7350  149.6790 LP  0  0  0  0  0  0  0  0  0  0  0  0  # atno 17370 bound_to 10713
  155.9738  130.4112  150.3971 LP  0  0  0  0  0  0  0  0  0  0  0  0  # atno 17371 bound_to 10713
  139.8827  135.0045  156.6251 LP  0  0  0  0  0  0  0  0  0  0  0  0  # atno 17394 bound_to 11000
  140.7698  133.8748  155.8483 LP  0  0  0  0  0  0  0  0  0  0  0  0  # atno 17395 bound_to 11000

$$$$
