AV-unprocessed.smi:986|AV-procd|sdf|4320|dock6
  -GOLD-   22720 2223D 1   1.00000     0.00000
 Structure written by MMmdl.
 31 31  0  0  0  0  0  0  0  0  1 V2000
  151.3590  145.2195  159.4469 C   0  0  0  0  0  0  0  0  0  0  0  0
  151.6068  143.7046  159.5240 C   0  0  0  0  0  0  0  0  0  0  0  0
  153.0781  143.3893  159.8237 C   0  0  0  0  0  0  0  0  0  0  0  0
  151.2245  143.0592  158.2731 N   0  0  0  0  0  0  0  0  0  0  0  0
  151.5292  141.8016  157.9058 C   0  0  0  0  0  0  0  0  0  0  0  0
  152.1894  141.0417  158.6136 O   0  0  0  0  0  0  0  0  0  0  0  0
  151.0299  141.3038  156.5386 C   0  0  0  0  0  0  0  0  0  0  0  0
  151.5906  140.0173  156.1265 N   0  0  0  0  0  0  0  0  0  0  0  0
  151.3120  139.3802  154.9775 C   0  0  0  0  0  0  0  0  0  0  0  0
  150.4818  139.7808  154.1626 O   0  0  0  0  0  0  0  0  0  0  0  0
  152.1175  138.1132  154.6916 C   0  0  0  0  0  0  0  0  0  0  0  0
  151.2646  136.9397  154.7589 N   0  0  0  0  0  0  0  0  0  0  0  0
  149.9555  136.8297  154.9944 C   0  0  0  0  0  0  0  0  0  0  0  0
  149.5157  135.5792  155.0024 N   0  0  0  0  0  0  0  0  0  0  0  0
  150.6866  134.9240  154.7443 C   0  0  0  0  0  0  0  0  0  0  0  0
  151.7652  135.6927  154.5934 N   0  0  0  0  0  0  0  0  0  0  0  0
  151.6442  145.7099  160.3780 H   0  0  0  0  0  0  0  0  0  0  0  0
  150.3062  145.4419  159.2705 H   0  0  0  0  0  0  0  0  0  0  0  0
  151.9352  145.6750  158.6409 H   0  0  0  0  0  0  0  0  0  0  0  0
  151.0028  143.2908  160.3336 H   0  0  0  0  0  0  0  0  0  0  0  0
  153.3875  143.8275  160.7729 H   0  0  0  0  0  0  0  0  0  0  0  0
  153.7341  143.7834  159.0467 H   0  0  0  0  0  0  0  0  0  0  0  0
  153.2463  142.3137  159.8872 H   0  0  0  0  0  0  0  0  0  0  0  0
  150.6715  143.6106  157.6331 H   0  0  0  0  0  0  0  0  0  0  0  0
  149.9457  141.1999  156.5859 H   0  0  0  0  0  0  0  0  0  0  0  0
  151.2340  142.0661  155.7849 H   0  0  0  0  0  0  0  0  0  0  0  0
  152.2816  139.6091  156.7389 H   0  0  0  0  0  0  0  0  0  0  0  0
  152.5674  138.1687  153.6994 H   0  0  0  0  0  0  0  0  0  0  0  0
  152.9311  138.0117  155.4115 H   0  0  0  0  0  0  0  0  0  0  0  0
  149.3134  137.6801  155.1713 H   0  0  0  0  0  0  0  0  0  0  0  0
  150.7464  133.8482  154.6688 H   0  0  0  0  0  0  0  0  0  0  0  0
  1  2  1  0  0  0  0
  1 17  1  0  0  0  0
  1 18  1  0  0  0  0
  1 19  1  0  0  0  0
  2  3  1  0  0  0  0
  2  4  1  0  0  0  0
  2 20  1  0  0  0  0
  3 21  1  0  0  0  0
  3 22  1  0  0  0  0
  3 23  1  0  0  0  0
  4  5  1  0  0  0  0
  4 24  1  0  0  0  0
  5  6  2  0  0  0  0
  5  7  1  0  0  0  0
  7  8  1  0  0  0  0
  7 25  1  0  0  0  0
  7 26  1  0  0  0  0
  8  9  1  0  0  0  0
  8 27  1  0  0  0  0
  9 10  2  0  0  0  0
  9 11  1  0  0  0  0
 11 12  1  0  0  0  0
 11 28  1  0  0  0  0
 11 29  1  0  0  0  0
 12 16  1  0  0  0  0
 12 13  1  0  0  0  0
 13 14  2  0  0  0  0
 13 30  1  0  0  0  0
 14 15  1  0  0  0  0
 15 16  2  0  0  0  0
 15 31  1  0  0  0  0
M  END
> <s_m_source_file>
AV-unprocessed.smi

> <i_m_source_file_index>
986

> <i_lp_mmshare_version>
43012

> <i_f3d_flags>
0

> <s_epik_input>
W0NIM11bQ0hdKFtDSDNdKVtOSF1DKD1PKVtDSDJdW05IXUMoPU8pW0NIMl1uMVtjSF1uW2NIXW4x

> <s_epik_cmdline>
J2VwaWtfcHl0aG9uJywgJy1waCcsICc3LjAnLCAnLXRuJywgJzgnLCAnLW1hJywgJzIwMCcsICctbWV0YWxfYmluZGluZycsICctaW1hZScsICc8aW5maWxlLm1hZT4nLCAnLW9tYWUnLCAnPG91dGZpbGUubWFlPic=

> <r_lp_tautomer_probability>
1

> <r_epik_Ionization_Penalty>
7.25916e-06

> <r_epik_Ionization_Penalty_Charging>
0

> <r_epik_Ionization_Penalty_Neutral>
7.25916e-06

> <r_epik_State_Penalty>
-0

> <r_epik_Charging_Adjusted_Penalty>
0

> <i_epik_Tot_Q>
0

> <i_epik_Tot_abs_Q>
0

> <r_epik_Metal_State_Penalty>
-0

> <b_epik_Metal_Only>
0

> <s_lp_Force_Field>
OPLS_2005

> <r_lp_Energy>
0.116245

> <b_lp_Chiralities_Consistent>
1

> <s_lp_Variant>
AV-unprocessed.smi:986-1

> <Gold.Version>
5.8.1

> <Gold.Id.Protein>
6NUR|6NUR_protein|mol2

> <Gold.PLP.Fitness>
35.7879

> <Gold.PLP.PLP>
-30.4571

> <Gold.PLP.part.hbond>
-2.0000

> <Gold.PLP.part.metal>
0.0000

> <Gold.PLP.part.buried>
-5.3208

> <Gold.PLP.part.nonpolar>
-24.6265

> <Gold.PLP.part.repulsive>
0.6232

> <Gold.PLP.ligand.clash>
0.0000

> <Gold.PLP.ligand.torsion>
0.3476

> <Gold.PLP.Chemscore.Hbond>
2.0000

> <Gold.PLP.Chemscore.CHOScore>
0.0000

> <Gold.PLP.Chemscore.Metal>
0.0000

> <Gold.Chemscore.Hbonds>
donor molecule, donor type, donor heavy atom, donor atom, acceptor molecule, acceptor atom, score
      P1  H  7989  7998       L1    10  0.55
      P1  H 10752 10763       L1    16  0.16

> <Gold.PLP.Chemscore.Internal.Correction>
0.0260

> <Gold.Rescore>
     Score         DG    S(hbond)    S(metal)    S(lipo)     H(rot)  DE(clash)    DE(int)     intcor
      8.10      -9.91       1.94        0.00      48.76       3.03       0.00       1.81       ----

> <Gold.Chemscore.Fitness>
8.0968

> <Gold.Chemscore.DG>
-9.9056

> <Gold.Chemscore.ZeroCoef>
-5.4800

> <Gold.Chemscore.Hbond>
1.9415

> <Gold.Chemscore.Metal>
0.0000

> <Gold.Chemscore.Lipo>
48.7626

> <Gold.Chemscore.Internal_Hbond>
0.0000

> <Gold.Chemscore.DEClash>
0.0000

> <Gold.Chemscore.DEInternal>
1.8088

> <Gold.Chemscore.Rot>
3.0329

> <Gold.Chemscore.Internal.Correction>
   9.000000E+99

> <Gold.Chemscore.Hbonds>
donor molecule, donor type, donor heavy atom, donor atom, acceptor molecule, acceptor atom, score
      P1  H  7989  7998       L1    10  0.03
      P1  H 10752 10763       L1    16  0.16

> <Gold.Chemscore.Hbond.Weighted>
-6.4847

> <Gold.Chemscore.Metal.Weighted>
-0.0000

> <Gold.Chemscore.Lipo.Weighted>
-5.7052

> <Gold.Chemscore.Internal_Hbond.Weighted>
0.0000

> <Gold.Chemscore.DEClash.Weighted>
0.0000

> <Gold.Chemscore.DEInternal.Weighted>
1.8088

> <Gold.Chemscore.Rot.Weighted>
7.7643

> <Gold.Chemscore.Internal.Correction.Weighted>
   9.000000E+99

> <Gold.Protein.RotatedTorsions>
[ 6907 6896 6895 6894 ] final   42.24 input  -60.11 | X-H torsion
[ 7974 7965 7964 7962 ] final  104.34 input  175.53 | X-H torsion
[ 8008 7997 7996 7995 ] final   50.32 input   59.86 | X-H torsion
[ 10167 10162 10161 10158 ] final    5.95 input  -65.29 | X-H torsion
[ 10718 10713 10712 10709 ] final  153.20 input   66.30 | X-H torsion
[ 10763 10752 10751 10750 ] final   66.92 input  -60.55 | X-H torsion
[ 11005 11000 10999 10996 ] final -131.42 input  -57.11 | X-H torsion

> <Gold.Protein.ActiveResidues>
 VAL166  LYS551  ARG553  GLY616  TRP617  ASP618  TYR619  PRO620  LYS621  CYS622 
 ASP623  PHE694  ASN695  SER759  ASP760  ASP761  ALA762  ILE779  LEU786  VAL792 
 PHE793  MET794  SER795  GLU796  ALA797  LYS798  CYS799  TRP800  GLU811  SER814 

> <Gold.Protein.RotatedAtoms>
  152.2054  134.8550  160.0503 H   0  0  0  0  0  0  0  0  0  0  0  0  # atno 6907 bound_to 6896
  151.9388  133.3627  159.3966 H   0  0  0  0  0  0  0  0  0  0  0  0  # atno 6908 bound_to 6896
  150.6964  134.4385  159.5325 H   0  0  0  0  0  0  0  0  0  0  0  0  # atno 6909 bound_to 6896
  145.3341  139.2479  143.3645 H   0  0  0  0  0  0  0  0  0  0  0  0  # atno 7974 bound_to 7965
  155.4168  140.3445  155.4268 H   0  0  0  0  0  0  0  0  0  0  0  0  # atno 8008 bound_to 7997
  156.1416  140.1544  156.8943 H   0  0  0  0  0  0  0  0  0  0  0  0  # atno 8009 bound_to 7997
  154.4976  140.0823  156.7710 H   0  0  0  0  0  0  0  0  0  0  0  0  # atno 8010 bound_to 7997
  140.6454  143.7673  150.7491 H   0  0  0  0  0  0  0  0  0  0  0  0  # atno 10167 bound_to 10162
  157.2478  131.0772  151.1750 H   0  0  0  0  0  0  0  0  0  0  0  0  # atno 10718 bound_to 10713
  153.0162  135.5303  154.6899 H   0  0  0  0  0  0  0  0  0  0  0  0  # atno 10763 bound_to 10752
  154.6037  135.2871  155.0510 H   0  0  0  0  0  0  0  0  0  0  0  0  # atno 10764 bound_to 10752
  154.1558  135.6555  153.5026 H   0  0  0  0  0  0  0  0  0  0  0  0  # atno 10765 bound_to 10752
  140.9260  134.1382  157.4275 H   0  0  0  0  0  0  0  0  0  0  0  0  # atno 11005 bound_to 11000
  146.3034  140.3925  142.8696 LP  0  0  0  0  0  0  0  0  0  0  0  0  # atno 17320 bound_to 7965
  144.8841  140.7439  143.5968 LP  0  0  0  0  0  0  0  0  0  0  0  0  # atno 17321 bound_to 7965
  140.1314  143.4523  152.2252 LP  0  0  0  0  0  0  0  0  0  0  0  0  # atno 17342 bound_to 10162
  139.5665  144.7438  151.4008 LP  0  0  0  0  0  0  0  0  0  0  0  0  # atno 17343 bound_to 10162
  157.3310  130.6985  149.6324 LP  0  0  0  0  0  0  0  0  0  0  0  0  # atno 17370 bound_to 10713
  155.9667  130.4307  150.4889 LP  0  0  0  0  0  0  0  0  0  0  0  0  # atno 17371 bound_to 10713
  139.8785  134.9988  156.5921 LP  0  0  0  0  0  0  0  0  0  0  0  0  # atno 17394 bound_to 11000
  140.7926  133.8570  155.8658 LP  0  0  0  0  0  0  0  0  0  0  0  0  # atno 17395 bound_to 11000

$$$$
