AV-unprocessed.smi:1|AV-procd|sdf|9|dock5
  -GOLD-   2262015 93D 1   1.00000     0.00000
 Structure written by MMmdl.
 57 62  0  0  0  0  0  0  0  0  1 V2000
  147.6254  132.2066  153.0249 O   0  0  0  0  0  0  0  0  0  0  0  0
  146.7922  133.0804  152.7700 C   0  0  0  0  0  0  0  0  0  0  0  0
  146.5504  134.2744  153.4360 N   0  0  0  0  0  0  0  0  0  0  0  0
  147.5231  134.9018  154.0246 C   0  0  0  0  0  0  0  0  0  0  0  0
  148.8916  134.6267  154.1463 N   0  0  0  0  0  0  0  0  0  0  0  0
  149.8348  135.4224  154.8154 C   0  0  0  0  0  0  0  0  0  0  0  0
  149.5658  136.5441  155.4288 N   0  0  0  0  0  0  0  0  0  0  0  0
  148.2180  136.8615  155.3385 C   0  0  0  0  0  0  0  0  0  0  0  0
  147.2027  136.1687  154.7159 C   0  0  0  0  0  0  0  0  0  0  0  0
  145.9903  136.8340  154.8602 N   0  0  0  0  0  0  0  0  0  0  0  0
  146.3306  137.9100  155.5650 C   0  0  0  0  0  0  0  0  0  0  0  0
  147.6384  138.0048  155.8794 N   0  0  0  0  0  0  0  0  0  0  0  0
  148.3359  139.0868  156.6503 C   0  0  2  0  0  0  0  0  0  0  0  0
  149.6839  139.0977  156.2875 O   0  0  0  0  0  0  0  0  0  0  0  0
  150.4489  138.3977  157.2608 C   0  0  1  0  0  0  0  0  0  0  0  0
  151.9206  138.8118  157.1776 C   0  0  0  0  0  0  0  0  0  0  0  0
  152.0286  140.1812  157.5289 O   0  0  0  0  0  0  0  0  0  0  0  0
  152.4394  140.5327  158.7618 C   0  0  0  0  0  0  0  0  0  0  0  0
  152.8923  139.7335  159.5840 O   0  0  0  0  0  0  0  0  0  0  0  0
  152.2860  141.9921  159.0291 C   0  0  0  0  0  0  0  0  0  0  0  0
  152.5605  142.4922  160.3234 C   0  0  0  0  0  0  0  0  0  0  0  0
  152.4232  143.8651  160.6060 C   0  0  0  0  0  0  0  0  0  0  0  0
  152.0103  144.7551  159.5974 C   0  0  0  0  0  0  0  0  0  0  0  0
  151.7350  144.2704  158.3055 C   0  0  0  0  0  0  0  0  0  0  0  0
  151.8711  142.8975  158.0211 C   0  0  0  0  0  0  0  0  0  0  0  0
  149.7671  138.8035  158.5665 C   0  0  2  0  0  0  0  0  0  0  0  0
  149.9593  137.8414  159.5886 O   0  0  0  0  0  0  0  0  0  0  0  0
  148.6709  136.7779  159.5799 S   0  0  0  0  0  0  0  0  0  0  0  0
  149.1162  135.5170  158.9673 O   0  0  0  0  0  0  0  0  0  0  0  0
  148.0199  136.8324  160.8974 O   0  0  0  0  0  0  0  0  0  0  0  0
  147.6985  137.5734  158.4812 O   0  0  0  0  0  0  0  0  0  0  0  0
  148.2827  138.8305  158.1714 C   0  0  2  0  0  0  0  0  0  0  0  0
  145.9116  132.8828  151.5797 C   0  0  0  0  0  0  0  0  0  0  0  0
  146.4605  132.4249  150.3631 C   0  0  0  0  0  0  0  0  0  0  0  0
  145.6338  132.2517  149.2361 C   0  0  0  0  0  0  0  0  0  0  0  0
  144.2573  132.5374  149.3212 C   0  0  0  0  0  0  0  0  0  0  0  0
  143.7071  132.9966  150.5337 C   0  0  0  0  0  0  0  0  0  0  0  0
  144.5327  133.1707  151.6619 C   0  0  0  0  0  0  0  0  0  0  0  0
  150.8502  135.0243  154.7872 H   0  0  0  0  0  0  0  0  0  0  0  0
  145.6004  138.6497  155.8573 H   0  0  0  0  0  0  0  0  0  0  0  0
  147.8446  140.0086  156.3369 H   0  0  0  0  0  0  0  0  0  0  0  0
  150.3438  137.3227  157.1053 H   0  0  0  0  0  0  0  0  0  0  0  0
  152.5312  138.1901  157.8341 H   0  0  0  0  0  0  0  0  0  0  0  0
  152.2879  138.6793  156.1591 H   0  0  0  0  0  0  0  0  0  0  0  0
  152.8788  141.8280  161.1140 H   0  0  0  0  0  0  0  0  0  0  0  0
  152.6348  144.2351  161.5985 H   0  0  0  0  0  0  0  0  0  0  0  0
  151.9053  145.8080  159.8138 H   0  0  0  0  0  0  0  0  0  0  0  0
  151.4183  144.9526  157.5305 H   0  0  0  0  0  0  0  0  0  0  0  0
  151.6514  142.5589  157.0189 H   0  0  0  0  0  0  0  0  0  0  0  0
  150.0955  139.7924  158.8889 H   0  0  0  0  0  0  0  0  0  0  0  0
  147.7364  139.6288  158.6745 H   0  0  0  0  0  0  0  0  0  0  0  0
  147.5163  132.2069  150.2897 H   0  0  0  0  0  0  0  0  0  0  0  0
  146.0560  131.9017  148.3058 H   0  0  0  0  0  0  0  0  0  0  0  0
  143.6243  132.4058  148.4560 H   0  0  0  0  0  0  0  0  0  0  0  0
  142.6519  133.2177  150.5980 H   0  0  0  0  0  0  0  0  0  0  0  0
  144.1040  133.5269  152.5875 H   0  0  0  0  0  0  0  0  0  0  0  0
  149.2288  133.7806  153.7103 H   0  0  0  0  0  0  0  0  0  0  0  0
  1  2  2  0  0  0  0
  2  3  1  0  0  0  0
  2 33  1  0  0  0  0
  3  4  2  0  0  0  0
  4  9  1  0  0  0  0
  4  5  1  0  0  0  0
  5  6  1  0  0  0  0
  5 57  1  0  0  0  0
  6  7  2  0  0  0  0
  6 39  1  0  0  0  0
  7  8  1  0  0  0  0
  8 12  1  0  0  0  0
  8  9  2  0  0  0  0
  9 10  1  0  0  0  0
 10 11  2  0  0  0  0
 11 12  1  0  0  0  0
 11 40  1  0  0  0  0
 12 13  1  0  0  0  0
 13 32  1  0  0  0  0
 13 14  1  0  0  0  0
 13 41  1  0  0  0  0
 14 15  1  0  0  0  0
 15 16  1  0  0  0  0
 15 26  1  0  0  0  0
 15 42  1  0  0  0  0
 16 17  1  0  0  0  0
 16 43  1  0  0  0  0
 16 44  1  0  0  0  0
 17 18  1  0  0  0  0
 18 19  2  0  0  0  0
 18 20  1  0  0  0  0
 20 25  1  0  0  0  0
 20 21  2  0  0  0  0
 21 22  1  0  0  0  0
 21 45  1  0  0  0  0
 22 23  2  0  0  0  0
 22 46  1  0  0  0  0
 23 24  1  0  0  0  0
 23 47  1  0  0  0  0
 24 25  2  0  0  0  0
 24 48  1  0  0  0  0
 25 49  1  0  0  0  0
 26 32  1  0  0  0  0
 26 27  1  0  0  0  0
 26 50  1  0  0  0  0
 27 28  1  0  0  0  0
 28 29  2  0  0  0  0
 28 30  2  0  0  0  0
 28 31  1  0  0  0  0
 31 32  1  0  0  0  0
 32 51  1  0  0  0  0
 33 38  1  0  0  0  0
 33 34  2  0  0  0  0
 34 35  1  0  0  0  0
 34 52  1  0  0  0  0
 35 36  2  0  0  0  0
 35 53  1  0  0  0  0
 36 37  1  0  0  0  0
 36 54  1  0  0  0  0
 37 38  2  0  0  0  0
 37 55  1  0  0  0  0
 38 56  1  0  0  0  0
M  END
> <s_m_source_file>
AV-unprocessed.smi

> <i_m_source_file_index>
1

> <i_lp_mmshare_version>
43012

> <i_f3d_flags>
0

> <s_epik_input>
W2NIXTFbY0hdW2NIXVtjSF1bY0hdYzFDKD1PKVtOSF1jKG5bY0hdbjIpYyhjMjMpbltjSF1uM1tDQEBIXShbQ0BIXShbQ0BIXTQ1KU9TKE81KSg9Tyk9TylPW0NASF00W0NIMl1PQyg9TyljNltjSF1bY0hdW2NIXVtjSF1bY0hdNg==

> <s_epik_cmdline>
J2VwaWtfcHl0aG9uJywgJy1waCcsICc3LjAnLCAnLXRuJywgJzgnLCAnLW1hJywgJzIwMCcsICctbWV0YWxfYmluZGluZycsICctaW1hZScsICc8aW5maWxlLm1hZT4nLCAnLW9tYWUnLCAnPG91dGZpbGUubWFlPic=

> <r_epik_Ionization_Penalty>
0.122545

> <r_epik_Ionization_Penalty_Charging>
0.122545

> <r_epik_Ionization_Penalty_Neutral>
7.8935e-16

> <r_epik_State_Penalty>
2.69178

> <r_epik_Charging_Adjusted_Penalty>
2.81433

> <i_epik_Tot_Q>
0

> <i_epik_Tot_abs_Q>
0

> <r_epik_Metal_State_Penalty>
3.02665

> <b_epik_Metal_Only>
0

> <s_epik_Chemistry_Notes>
This compound has an ester and may undergo hydrolysis at high or low pH. This compound contains an acetal/aminal-like group ( X-CH(R)-Y where X, Y are N, S, or O) that may be acid/base labile, releasing an aldehyde.

> <s_lp_Force_Field>
OPLS_2005

> <r_lp_Energy>
57.7872

> <b_lp_Chiralities_Consistent>
1

> <s_lp_Variant>
AV-unprocessed.smi:1-9

> <Gold.Version>
5.8.1

> <Gold.Id.Protein>
6NUR|6NUR_protein|mol2

> <Gold.PLP.Fitness>
55.3211

> <Gold.PLP.PLP>
-52.2282

> <Gold.PLP.part.hbond>
-4.8111

> <Gold.PLP.part.metal>
0.0000

> <Gold.PLP.part.buried>
-3.3622

> <Gold.PLP.part.nonpolar>
-44.4215

> <Gold.PLP.part.repulsive>
0.3571

> <Gold.PLP.ligand.clash>
0.0000

> <Gold.PLP.ligand.torsion>
2.0657

> <Gold.PLP.Chemscore.Hbond>
2.3165

> <Gold.PLP.Chemscore.CHOScore>
0.0000

> <Gold.PLP.Chemscore.Metal>
0.0000

> <Gold.Chemscore.Hbonds>
donor molecule, donor type, donor heavy atom, donor atom, acceptor molecule, acceptor atom, score
      P1  H  6896  6907       L1    29  1.00
      P1  H  6931  6943       L1    30  1.00
      P1  H  6934  6947       L1    30  0.18

> <Gold.PLP.Chemscore.Internal.Correction>
0.2749

> <Gold.Rescore>
     Score         DG    S(hbond)    S(metal)    S(lipo)     H(rot)  DE(clash)    DE(int)     intcor
     16.64     -22.22       1.91        0.00     135.26       2.13       0.46       5.13       ----

> <Gold.Chemscore.Fitness>
16.6371

> <Gold.Chemscore.DG>
-22.2238

> <Gold.Chemscore.ZeroCoef>
-5.4800

> <Gold.Chemscore.Hbond>
1.9099

> <Gold.Chemscore.Metal>
0.0000

> <Gold.Chemscore.Lipo>
135.2648

> <Gold.Chemscore.Internal_Hbond>
0.0000

> <Gold.Chemscore.DEClash>
0.4587

> <Gold.Chemscore.DEInternal>
5.1280

> <Gold.Chemscore.Rot>
2.1333

> <Gold.Chemscore.Internal.Correction>
   9.000000E+99

> <Gold.Chemscore.Hbonds>
donor molecule, donor type, donor heavy atom, donor atom, acceptor molecule, acceptor atom, score
      P1  H  6896  6907       L1    29  0.97
      P1  H  6931  6943       L1    30  0.41
      P1  H  6934  6947       L1    30  0.06

> <Gold.Chemscore.Hbond.Weighted>
-6.3792

> <Gold.Chemscore.Metal.Weighted>
-0.0000

> <Gold.Chemscore.Lipo.Weighted>
-15.8260

> <Gold.Chemscore.Internal_Hbond.Weighted>
0.0000

> <Gold.Chemscore.DEClash.Weighted>
0.4587

> <Gold.Chemscore.DEInternal.Weighted>
5.1280

> <Gold.Chemscore.Rot.Weighted>
5.4614

> <Gold.Chemscore.Internal.Correction.Weighted>
   9.000000E+99

> <Gold.Protein.RotatedTorsions>
[ 6907 6896 6895 6894 ] final  -84.76 input  -60.11 | X-H torsion
[ 7974 7965 7964 7962 ] final  146.72 input  175.53 | X-H torsion
[ 8008 7997 7996 7995 ] final -164.67 input   59.86 | X-H torsion
[ 10167 10162 10161 10158 ] final  151.33 input  -65.29 | X-H torsion
[ 10718 10713 10712 10709 ] final   84.82 input   66.30 | X-H torsion
[ 10763 10752 10751 10750 ] final -157.03 input  -60.55 | X-H torsion
[ 11005 11000 10999 10996 ] final  103.88 input  -57.11 | X-H torsion

> <Gold.Protein.ActiveResidues>
 VAL166  LYS551  ARG553  GLY616  TRP617  ASP618  TYR619  PRO620  LYS621  CYS622 
 ASP623  PHE694  ASN695  SER759  ASP760  ASP761  ALA762  ILE779  LEU786  VAL792 
 PHE793  MET794  SER795  GLU796  ALA797  LYS798  CYS799  TRP800  GLU811  SER814 

> <Gold.Protein.RotatedAtoms>
  150.6874  134.3309  159.4826 H   0  0  0  0  0  0  0  0  0  0  0  0  # atno 6907 bound_to 6896
  152.1174  134.9228  160.0573 H   0  0  0  0  0  0  0  0  0  0  0  0  # atno 6908 bound_to 6896
  152.0447  133.3958  159.4388 H   0  0  0  0  0  0  0  0  0  0  0  0  # atno 6909 bound_to 6896
  144.8648  139.5940  143.5914 H   0  0  0  0  0  0  0  0  0  0  0  0  # atno 7974 bound_to 7965
  155.8390  140.0945  157.1746 H   0  0  0  0  0  0  0  0  0  0  0  0  # atno 8008 bound_to 7997
  154.3981  140.1404  156.3766 H   0  0  0  0  0  0  0  0  0  0  0  0  # atno 8009 bound_to 7997
  155.8085  140.3450  155.5446 H   0  0  0  0  0  0  0  0  0  0  0  0  # atno 8010 bound_to 7997
  139.4841  144.5449  151.7501 H   0  0  0  0  0  0  0  0  0  0  0  0  # atno 10167 bound_to 10162
  157.6904  131.0149  150.2730 H   0  0  0  0  0  0  0  0  0  0  0  0  # atno 10718 bound_to 10713
  154.7668  135.3133  154.8271 H   0  0  0  0  0  0  0  0  0  0  0  0  # atno 10763 bound_to 10752
  153.9017  135.6815  153.4759 H   0  0  0  0  0  0  0  0  0  0  0  0  # atno 10764 bound_to 10752
  153.1275  135.4795  154.9229 H   0  0  0  0  0  0  0  0  0  0  0  0  # atno 10765 bound_to 10752
  139.8787  134.9280  156.5277 H   0  0  0  0  0  0  0  0  0  0  0  0  # atno 11005 bound_to 11000
  146.2888  139.7079  142.9176 LP  0  0  0  0  0  0  0  0  0  0  0  0  # atno 17320 bound_to 7965
  145.4242  141.0409  143.2947 LP  0  0  0  0  0  0  0  0  0  0  0  0  # atno 17321 bound_to 7965
  140.4994  144.1191  150.5967 LP  0  0  0  0  0  0  0  0  0  0  0  0  # atno 17342 bound_to 10162
  140.4079  143.2671  151.9868 LP  0  0  0  0  0  0  0  0  0  0  0  0  # atno 17343 bound_to 10162
  156.3289  130.3797  149.7508 LP  0  0  0  0  0  0  0  0  0  0  0  0  # atno 17370 bound_to 10713
  156.5054  130.8148  151.3148 LP  0  0  0  0  0  0  0  0  0  0  0  0  # atno 17371 bound_to 10713
  140.8403  133.8210  155.9069 LP  0  0  0  0  0  0  0  0  0  0  0  0  # atno 17394 bound_to 11000
  140.9243  134.2102  157.4906 LP  0  0  0  0  0  0  0  0  0  0  0  0  # atno 17395 bound_to 11000

$$$$
