AV-unprocessed.smi:192|AV-procd|sdf|1495|dock2
  -GOLD-   2262019323D 1   1.00000     0.00000
 Structure written by MMmdl.
 58 60  0  0  0  0  0  0  0  0  1 V2000
  147.7530  141.3844  154.0370 C   0  0  0  0  0  0  0  0  0  0  0  0
  148.3518  140.9948  155.3964 C   0  0  0  0  0  0  0  0  0  0  0  0
  148.2847  139.4819  155.7123 C   0  0  0  0  0  0  0  0  0  0  0  0
  149.2912  138.6803  154.8567 C   0  0  0  0  0  0  0  0  0  0  0  0
  150.7616  138.9277  155.2259 C   0  0  0  0  0  0  0  0  0  0  0  0
  146.8435  138.9460  155.5106 C   0  0  0  0  0  0  0  0  0  0  0  0
  146.5773  137.6722  156.1817 N   0  0  0  0  0  0  0  0  0  0  0  0
  146.2363  137.6856  157.6028 C   0  0  0  0  0  0  0  0  0  0  0  0
  147.2195  136.8956  158.4854 C   0  0  0  0  0  0  0  0  0  0  0  0
  147.0020  137.0666  159.9302 C   0  0  0  0  0  0  0  0  0  0  0  0
  146.8310  137.2018  161.0664 N   0  0  0  0  0  0  0  0  0  0  0  0
  145.9781  136.6810  155.4783 C   0  0  0  0  0  0  0  0  0  0  0  0
  145.5973  135.5763  156.1676 N   0  0  0  0  0  0  0  0  0  0  0  0
  145.0252  134.5510  155.5303 C   0  0  0  0  0  0  0  0  0  0  0  0
  144.7372  134.4306  154.2331 N   0  0  0  0  0  0  0  0  0  0  0  0
  145.0959  135.5485  153.5389 C   0  0  0  0  0  0  0  0  0  0  0  0
  145.7180  136.7107  154.0771 C   0  0  0  0  0  0  0  0  0  0  0  0
  145.9323  137.6395  153.0653 N   0  0  0  0  0  0  0  0  0  0  0  0
  145.4828  137.0532  151.9903 C   0  0  0  0  0  0  0  0  0  0  0  0
  144.9381  135.8051  152.1881 N   0  0  0  0  0  0  0  0  0  0  0  0
  144.4164  134.9302  151.1798 C   0  0  0  0  0  0  0  0  0  0  0  0
  144.1717  133.4478  151.4682 C   0  0  0  0  0  0  0  0  0  0  0  0
  144.5037  133.1156  149.9952 C   0  0  0  0  0  0  0  0  0  0  0  0
  145.3766  131.8712  149.7552 C   0  0  0  0  0  0  0  0  0  0  0  0
  146.2594  131.6295  150.8313 O   0  0  0  0  0  0  0  0  0  0  0  0
  143.3164  133.1034  149.0087 C   0  0  0  0  0  0  0  0  0  0  0  0
  143.5604  133.8960  147.8652 O   0  0  0  0  0  0  0  0  0  0  0  0
  145.2853  134.4485  150.0156 C   0  0  0  0  0  0  0  0  0  0  0  0
  147.9023  142.4470  153.8445 H   0  0  0  0  0  0  0  0  0  0  0  0
  146.6813  141.1956  153.9903 H   0  0  0  0  0  0  0  0  0  0  0  0
  148.2286  140.8332  153.2254 H   0  0  0  0  0  0  0  0  0  0  0  0
  149.3918  141.3215  155.3919 H   0  0  0  0  0  0  0  0  0  0  0  0
  147.8656  141.5623  156.1907 H   0  0  0  0  0  0  0  0  0  0  0  0
  148.5736  139.3482  156.7551 H   0  0  0  0  0  0  0  0  0  0  0  0
  149.0699  137.6143  154.9231 H   0  0  0  0  0  0  0  0  0  0  0  0
  149.1761  138.9438  153.8064 H   0  0  0  0  0  0  0  0  0  0  0  0
  151.4238  138.4138  154.5288 H   0  0  0  0  0  0  0  0  0  0  0  0
  151.0003  138.5644  156.2248 H   0  0  0  0  0  0  0  0  0  0  0  0
  151.0033  139.9904  155.1881 H   0  0  0  0  0  0  0  0  0  0  0  0
  146.1343  139.6883  155.8785 H   0  0  0  0  0  0  0  0  0  0  0  0
  146.6214  138.8306  154.4527 H   0  0  0  0  0  0  0  0  0  0  0  0
  146.1906  138.7191  157.9480 H   0  0  0  0  0  0  0  0  0  0  0  0
  145.2295  137.2862  157.7289 H   0  0  0  0  0  0  0  0  0  0  0  0
  147.1877  135.8303  158.2568 H   0  0  0  0  0  0  0  0  0  0  0  0
  148.2371  137.2285  158.2810 H   0  0  0  0  0  0  0  0  0  0  0  0
  144.7623  133.7045  156.1474 H   0  0  0  0  0  0  0  0  0  0  0  0
  145.5315  137.5227  151.0184 H   0  0  0  0  0  0  0  0  0  0  0  0
  143.5061  135.4068  150.8121 H   0  0  0  0  0  0  0  0  0  0  0  0
  144.8990  133.0319  152.1682 H   0  0  0  0  0  0  0  0  0  0  0  0
  143.1539  133.2111  151.7791 H   0  0  0  0  0  0  0  0  0  0  0  0
  144.7650  130.9831  149.5932 H   0  0  0  0  0  0  0  0  0  0  0  0
  145.9847  131.9908  148.8581 H   0  0  0  0  0  0  0  0  0  0  0  0
  147.0678  131.2834  150.4859 H   0  0  0  0  0  0  0  0  0  0  0  0
  143.1022  132.0919  148.6630 H   0  0  0  0  0  0  0  0  0  0  0  0
  142.4031  133.4559  149.4889 H   0  0  0  0  0  0  0  0  0  0  0  0
  144.3754  134.3580  147.9880 H   0  0  0  0  0  0  0  0  0  0  0  0
  145.1969  135.0485  149.1092 H   0  0  0  0  0  0  0  0  0  0  0  0
  146.3322  134.3322  150.3025 H   0  0  0  0  0  0  0  0  0  0  0  0
  1  2  1  0  0  0  0
  1 29  1  0  0  0  0
  1 30  1  0  0  0  0
  1 31  1  0  0  0  0
  2  3  1  0  0  0  0
  2 32  1  0  0  0  0
  2 33  1  0  0  0  0
  3  4  1  0  0  0  0
  3  6  1  0  0  0  0
  3 34  1  0  0  0  0
  4  5  1  0  0  0  0
  4 35  1  0  0  0  0
  4 36  1  0  0  0  0
  5 37  1  0  0  0  0
  5 38  1  0  0  0  0
  5 39  1  0  0  0  0
  6  7  1  0  0  0  0
  6 40  1  0  0  0  0
  6 41  1  0  0  0  0
  7  8  1  0  0  0  0
  7 12  1  0  0  0  0
  8  9  1  0  0  0  0
  8 42  1  0  0  0  0
  8 43  1  0  0  0  0
  9 10  1  0  0  0  0
  9 44  1  0  0  0  0
  9 45  1  0  0  0  0
 10 11  3  0  0  0  0
 12 17  1  0  0  0  0
 12 13  2  0  0  0  0
 13 14  1  0  0  0  0
 14 15  2  0  0  0  0
 14 46  1  0  0  0  0
 15 16  1  0  0  0  0
 16 20  1  0  0  0  0
 16 17  2  0  0  0  0
 17 18  1  0  0  0  0
 18 19  2  0  0  0  0
 19 20  1  0  0  0  0
 19 47  1  0  0  0  0
 20 21  1  0  0  0  0
 21 28  1  0  0  0  0
 21 22  1  0  0  0  0
 21 48  1  0  0  0  0
 22 23  1  0  0  0  0
 22 49  1  0  0  0  0
 22 50  1  0  0  0  0
 23 24  1  0  0  0  0
 23 26  1  0  0  0  0
 23 28  1  0  0  0  0
 24 25  1  0  0  0  0
 24 51  1  0  0  0  0
 24 52  1  0  0  0  0
 25 53  1  0  0  0  0
 26 27  1  0  0  0  0
 26 54  1  0  0  0  0
 26 55  1  0  0  0  0
 27 56  1  0  0  0  0
 28 57  1  0  0  0  0
 28 58  1  0  0  0  0
M  END
> <s_m_source_file>
AV-unprocessed.smi

> <i_m_source_file_index>
192

> <i_lp_mmshare_version>
43012

> <i_f3d_flags>
0

> <s_epik_input>
W0NIM11bQ0gyXVtDSF0oW0NIMl1bQ0gzXSlbQ0gyXU4oW0NIMl1bQ0gyXUMjTiljKG5bY0hdbjEpYyhjMTIpbltjSF1uMltDSF0oW0NIMl0zKVtDSDJdQzMoW0NIMl1bT0hdKVtDSDJdW09IXQ==

> <s_epik_cmdline>
J2VwaWtfcHl0aG9uJywgJy1waCcsICc3LjAnLCAnLXRuJywgJzgnLCAnLW1hJywgJzIwMCcsICctbWV0YWxfYmluZGluZycsICctaW1hZScsICc8aW5maWxlLm1hZT4nLCAnLW9tYWUnLCAnPG91dGZpbGUubWFlPic=

> <r_lp_tautomer_probability>
1

> <r_epik_Ionization_Penalty>
0.000545077

> <r_epik_Ionization_Penalty_Charging>
0

> <r_epik_Ionization_Penalty_Neutral>
0.000545077

> <r_epik_State_Penalty>
0.000259443

> <r_epik_Charging_Adjusted_Penalty>
0.000259443

> <i_epik_Tot_Q>
0

> <i_epik_Tot_abs_Q>
0

> <r_epik_Metal_State_Penalty>
-0

> <b_epik_Metal_Only>
0

> <s_lp_Force_Field>
OPLS_2005

> <r_lp_Energy>
36.5324

> <b_lp_Chiralities_Consistent>
1

> <s_lp_Variant>
AV-unprocessed.smi:192-1

> <Gold.Version>
5.8.1

> <Gold.Id.Protein>
6NUR|6NUR_protein|mol2

> <Gold.PLP.Fitness>
51.0471

> <Gold.PLP.PLP>
-35.5521

> <Gold.PLP.part.hbond>
-6.9468

> <Gold.PLP.part.metal>
0.0000

> <Gold.PLP.part.buried>
0.9603

> <Gold.PLP.part.nonpolar>
-30.8476

> <Gold.PLP.part.repulsive>
0.3061

> <Gold.PLP.ligand.clash>
0.0000

> <Gold.PLP.ligand.torsion>
2.0267

> <Gold.PLP.Chemscore.Hbond>
4.7833

> <Gold.PLP.Chemscore.CHOScore>
1.0000

> <Gold.PLP.Chemscore.Metal>
0.0000

> <Gold.Chemscore.Hbonds>
donor molecule, donor type, donor heavy atom, donor atom, acceptor molecule, acceptor atom, score
      L1  H    25    53       P1 10747  1.00
      L1  H    27    56       P1  7921  1.00
      P1  H  6934  6947       L1    11  0.55
      P1  H 10192 10197       L1    27  0.78
      L1  C    19    47       P1 10171  1.00

> <Gold.PLP.Chemscore.Internal.Correction>
2.1985

> <Gold.Rescore>
     Score         DG    S(hbond)    S(metal)    S(lipo)     H(rot)  DE(clash)    DE(int)     intcor
     10.21     -17.61       3.99        0.00      83.13       4.27       3.06       4.34       ----

> <Gold.Chemscore.Fitness>
10.2119

> <Gold.Chemscore.DG>
-17.6149

> <Gold.Chemscore.ZeroCoef>
-5.4800

> <Gold.Chemscore.Hbond>
3.9910

> <Gold.Chemscore.Metal>
0.0000

> <Gold.Chemscore.Lipo>
83.1339

> <Gold.Chemscore.Internal_Hbond>
0.0000

> <Gold.Chemscore.DEClash>
3.0595

> <Gold.Chemscore.DEInternal>
4.3435

> <Gold.Chemscore.Rot>
4.2663

> <Gold.Chemscore.Internal.Correction>
   9.000000E+99

> <Gold.Chemscore.Hbonds>
donor molecule, donor type, donor heavy atom, donor atom, acceptor molecule, acceptor atom, score
      L1  H    25    53       P1 10747  0.98
      L1  H    27    56       P1  7921  0.98
      P1  H  6934  6947       L1    11  0.03
      P1  H 10192 10197       L1    27  0.61

> <Gold.Chemscore.Hbond.Weighted>
-13.3301

> <Gold.Chemscore.Metal.Weighted>
-0.0000

> <Gold.Chemscore.Lipo.Weighted>
-9.7267

> <Gold.Chemscore.Internal_Hbond.Weighted>
0.0000

> <Gold.Chemscore.DEClash.Weighted>
3.0595

> <Gold.Chemscore.DEInternal.Weighted>
4.3435

> <Gold.Chemscore.Rot.Weighted>
10.9218

> <Gold.Chemscore.Internal.Correction.Weighted>
   9.000000E+99

> <Gold.Protein.RotatedTorsions>
[ 6907 6896 6895 6894 ] final   -7.38 input  -60.11 | X-H torsion
[ 7974 7965 7964 7962 ] final  -27.17 input  175.53 | X-H torsion
[ 8008 7997 7996 7995 ] final   26.00 input   59.86 | X-H torsion
[ 10167 10162 10161 10158 ] final -163.87 input  -65.29 | X-H torsion
[ 10718 10713 10712 10709 ] final  110.91 input   66.30 | X-H torsion
[ 10763 10752 10751 10750 ] final   -8.05 input  -60.55 | X-H torsion
[ 11005 11000 10999 10996 ] final  -14.94 input  -57.11 | X-H torsion

> <Gold.Protein.ActiveResidues>
 VAL166  LYS551  ARG553  GLY616  TRP617  ASP618  TYR619  PRO620  LYS621  CYS622 
 ASP623  PHE694  ASN695  SER759  ASP760  ASP761  ALA762  ILE779  LEU786  VAL792 
 PHE793  MET794  SER795  GLU796  ALA797  LYS798  CYS799  TRP800  GLU811  SER814 

> <Gold.Protein.RotatedAtoms>
  151.4505  135.1029  159.9696 H   0  0  0  0  0  0  0  0  0  0  0  0  # atno 6907 bound_to 6896
  152.4890  133.8444  159.7180 H   0  0  0  0  0  0  0  0  0  0  0  0  # atno 6908 bound_to 6896
  150.9025  133.7040  159.2902 H   0  0  0  0  0  0  0  0  0  0  0  0  # atno 6909 bound_to 6896
  146.1376  140.5116  142.8666 H   0  0  0  0  0  0  0  0  0  0  0  0  # atno 7974 bound_to 7965
  155.0205  140.3147  155.4795 H   0  0  0  0  0  0  0  0  0  0  0  0  # atno 8008 bound_to 7997
  156.2893  140.2198  156.5265 H   0  0  0  0  0  0  0  0  0  0  0  0  # atno 8009 bound_to 7997
  154.7456  140.0470  157.0837 H   0  0  0  0  0  0  0  0  0  0  0  0  # atno 8010 bound_to 7997
  139.6290  144.0476  152.1999 H   0  0  0  0  0  0  0  0  0  0  0  0  # atno 10167 bound_to 10162
  157.6471  131.0941  150.6671 H   0  0  0  0  0  0  0  0  0  0  0  0  # atno 10718 bound_to 10713
  153.4350  135.7012  153.6206 H   0  0  0  0  0  0  0  0  0  0  0  0  # atno 10763 bound_to 10752
  153.4605  135.3737  155.2335 H   0  0  0  0  0  0  0  0  0  0  0  0  # atno 10764 bound_to 10752
  154.8726  135.4019  154.3739 H   0  0  0  0  0  0  0  0  0  0  0  0  # atno 10765 bound_to 10752
  140.7915  133.8284  155.9384 H   0  0  0  0  0  0  0  0  0  0  0  0  # atno 11005 bound_to 11000
  144.7757  140.5734  143.6640 LP  0  0  0  0  0  0  0  0  0  0  0  0  # atno 17320 bound_to 7965
  145.5120  139.1479  143.3599 LP  0  0  0  0  0  0  0  0  0  0  0  0  # atno 17321 bound_to 7965
  140.0137  144.6205  150.7625 LP  0  0  0  0  0  0  0  0  0  0  0  0  # atno 17342 bound_to 10162
  140.7428  143.2837  151.3525 LP  0  0  0  0  0  0  0  0  0  0  0  0  # atno 17343 bound_to 10162
  156.6987  130.4617  149.5579 LP  0  0  0  0  0  0  0  0  0  0  0  0  # atno 17370 bound_to 10713
  156.1810  130.6499  151.0952 LP  0  0  0  0  0  0  0  0  0  0  0  0  # atno 17371 bound_to 10713
  140.9385  134.1932  157.4815 LP  0  0  0  0  0  0  0  0  0  0  0  0  # atno 17394 bound_to 11000
  139.8731  134.9862  156.5314 LP  0  0  0  0  0  0  0  0  0  0  0  0  # atno 17395 bound_to 11000

$$$$
