AV-unprocessed.smi:1897|AV-procd|sdf|7693|dock6
  -GOLD-   22720 9433D 1   1.00000     0.00000
 Structure written by MMmdl.
 38 40  0  0  0  0  0  0  0  0  3 V2000
  148.1696  136.2235  160.3522 C   0  0  0  0  0  0  0  0  0  0  0  0
  148.6976  136.0198  158.9735 C   0  0  0  0  0  0  0  0  0  0  0  0
  149.9963  136.1116  158.6764 N   0  0  0  0  0  0  0  0  0  0  0  0
  150.2417  135.8834  157.3306 N   0  0  0  0  0  0  0  0  0  0  0  0
  149.1268  135.6383  156.6268 C   0  0  0  0  0  0  0  0  0  0  0  0
  149.1447  135.4070  155.3008 N   0  5  0  0  0  0  0  0  0  0  0  0
  148.7578  134.2220  154.7613 C   0  0  0  0  0  0  0  0  0  0  0  0
  148.7822  133.1569  155.3768 O   0  0  0  0  0  0  0  0  0  0  0  0
  148.3389  134.2230  153.4814 N   0  0  0  0  0  0  0  0  0  0  0  0
  147.9630  133.0469  152.7041 C   0  0  1  0  0  0  0  0  0  0  0  0
  147.0923  132.0578  153.4900 C   0  0  0  0  0  0  0  0  0  0  0  0
  146.1574  131.4275  152.4426 C   0  0  0  0  0  0  0  0  0  0  0  0
  146.4947  132.0673  151.1514 N   0  3  1  0  0  0  0  0  0  0  0  0
  145.4239  132.0866  150.1225 C   0  0  0  0  0  0  0  0  0  0  0  0
  144.3740  133.1810  150.3777 C   0  0  0  0  0  0  0  0  0  0  0  0
  145.0462  134.5480  150.5397 C   0  0  0  0  0  0  0  0  0  0  0  0
  146.0629  134.4882  151.6842 C   0  0  0  0  0  0  0  0  0  0  0  0
  147.1176  133.3726  151.4617 C   0  0  1  0  0  0  0  0  0  0  0  0
  147.6611  135.6497  157.6055 S   0  0  0  0  0  0  0  0  0  0  0  0
  148.0564  137.2888  160.5528 H   0  0  0  0  0  0  0  0  0  0  0  0
  148.8535  135.7971  161.0866 H   0  0  0  0  0  0  0  0  0  0  0  0
  147.1981  135.7410  160.4601 H   0  0  0  0  0  0  0  0  0  0  0  0
  148.3246  135.1107  153.0005 H   0  0  0  0  0  0  0  0  0  0  0  0
  148.8652  132.5192  152.3876 H   0  0  0  0  0  0  0  0  0  0  0  0
  147.6985  131.3109  154.0034 H   0  0  0  0  0  0  0  0  0  0  0  0
  146.4993  132.5748  154.2462 H   0  0  0  0  0  0  0  0  0  0  0  0
  146.2915  130.3478  152.3714 H   0  0  0  0  0  0  0  0  0  0  0  0
  145.1176  131.6165  152.7126 H   0  0  0  0  0  0  0  0  0  0  0  0
  145.8950  132.2629  149.1546 H   0  0  0  0  0  0  0  0  0  0  0  0
  144.9521  131.1053  150.0628 H   0  0  0  0  0  0  0  0  0  0  0  0
  143.6639  133.2121  149.5507 H   0  0  0  0  0  0  0  0  0  0  0  0
  143.7935  132.9464  151.2705 H   0  0  0  0  0  0  0  0  0  0  0  0
  145.5449  134.8332  149.6126 H   0  0  0  0  0  0  0  0  0  0  0  0
  144.2973  135.3140  150.7424 H   0  0  0  0  0  0  0  0  0  0  0  0
  146.5555  135.4564  151.7810 H   0  0  0  0  0  0  0  0  0  0  0  0
  145.5306  134.3237  152.6219 H   0  0  0  0  0  0  0  0  0  0  0  0
  147.7622  133.6615  150.6301 H   0  0  0  0  0  0  0  0  0  0  0  0
  147.2408  131.5018  150.7723 H   0  0  0  0  0  0  0  0  0  0  0  0
  1  2  1  0  0  0  0
  1 20  1  0  0  0  0
  1 21  1  0  0  0  0
  1 22  1  0  0  0  0
  2 19  1  0  0  0  0
  2  3  2  0  0  0  0
  3  4  1  0  0  0  0
  4  5  2  0  0  0  0
  5  6  1  0  0  0  0
  5 19  1  0  0  0  0
  6  7  1  0  0  0  0
  7  8  2  0  0  0  0
  7  9  1  0  0  0  0
  9 10  1  0  0  0  0
  9 23  1  0  0  0  0
 10 18  1  0  0  0  0
 10 11  1  0  0  0  0
 10 24  1  0  0  0  0
 11 12  1  0  0  0  0
 11 25  1  0  0  0  0
 11 26  1  0  0  0  0
 12 13  1  0  0  0  0
 12 27  1  0  0  0  0
 12 28  1  0  0  0  0
 13 18  1  0  0  0  0
 13 14  1  0  0  0  0
 13 38  1  0  0  0  0
 14 15  1  0  0  0  0
 14 29  1  0  0  0  0
 14 30  1  0  0  0  0
 15 16  1  0  0  0  0
 15 31  1  0  0  0  0
 15 32  1  0  0  0  0
 16 17  1  0  0  0  0
 16 33  1  0  0  0  0
 16 34  1  0  0  0  0
 17 18  1  0  0  0  0
 17 35  1  0  0  0  0
 17 36  1  0  0  0  0
 18 37  1  0  0  0  0
M  CHG  1   6  -1
M  CHG  1  13   1
M  END
> <s_m_source_file>
AV-unprocessed.smi

> <i_m_source_file_index>
1897

> <i_lp_mmshare_version>
43012

> <i_f3d_flags>
0

> <s_epik_input>
W0NIM11jMW5uYyhzMSlbTkhdQyg9TylbTkhdW0NASF0oW0NIMl1bQ0gyXTIpW0NAQEhdKE4yMylbQ0gyXVtDSDJdW0NIMl1bQ0gyXTM=

> <s_epik_cmdline>
J2VwaWtfcHl0aG9uJywgJy1waCcsICc3LjAnLCAnLXRuJywgJzgnLCAnLW1hJywgJzIwMCcsICctbWV0YWxfYmluZGluZycsICctaW1hZScsICc8aW5maWxlLm1hZT4nLCAnLW9tYWUnLCAnPG91dGZpbGUubWFlPic=

> <r_lp_tautomer_probability>
1

> <r_epik_Ionization_Penalty>
3.77712

> <r_epik_Ionization_Penalty_Charging>
3.67739

> <r_epik_Ionization_Penalty_Neutral>
0.0997294

> <r_epik_State_Penalty>
3.67514

> <r_epik_Charging_Adjusted_Penalty>
7.35254

> <i_epik_Tot_Q>
0

> <i_epik_Tot_abs_Q>
2

> <r_epik_Metal_State_Penalty>
0.540795

> <b_epik_Metal_Only>
1

> <s_lp_Force_Field>
OPLS_2005

> <r_lp_Energy>
30.11

> <b_lp_Chiralities_Consistent>
1

> <s_lp_Variant>
AV-unprocessed.smi:1897-10

> <Gold.Version>
5.8.1

> <Gold.Id.Protein>
6NUR|6NUR_protein|mol2

> <Gold.PLP.Fitness>
36.1434

> <Gold.PLP.PLP>
-29.0663

> <Gold.PLP.part.hbond>
-3.3138

> <Gold.PLP.part.metal>
0.0000

> <Gold.PLP.part.buried>
-4.1574

> <Gold.PLP.part.nonpolar>
-21.0746

> <Gold.PLP.part.repulsive>
0.1392

> <Gold.PLP.ligand.clash>
0.0000

> <Gold.PLP.ligand.torsion>
0.9634

> <Gold.PLP.Chemscore.Hbond>
3.0000

> <Gold.PLP.Chemscore.CHOScore>
0.0000

> <Gold.PLP.Chemscore.Metal>
0.0000

> <Gold.Chemscore.Hbonds>
donor molecule, donor type, donor heavy atom, donor atom, acceptor molecule, acceptor atom, score
      L1  H     9    23       P1  7948  1.00
      L1  H    13    38       P1 10747  1.00
      P1  H  6896  6909       L1     3  1.00

> <Gold.PLP.Chemscore.Internal.Correction>
0.0040

> <Gold.Rescore>
     Score         DG    S(hbond)    S(metal)    S(lipo)     H(rot)  DE(clash)    DE(int)     intcor
     16.82     -19.04       2.54        0.00      65.30       1.00       0.01       2.21       ----

> <Gold.Chemscore.Fitness>
16.8196

> <Gold.Chemscore.DG>
-19.0414

> <Gold.Chemscore.ZeroCoef>
-5.4800

> <Gold.Chemscore.Hbond>
2.5393

> <Gold.Chemscore.Metal>
0.0000

> <Gold.Chemscore.Lipo>
65.2996

> <Gold.Chemscore.Internal_Hbond>
0.0000

> <Gold.Chemscore.DEClash>
0.0126

> <Gold.Chemscore.DEInternal>
2.2092

> <Gold.Chemscore.Rot>
1.0000

> <Gold.Chemscore.Internal.Correction>
   9.000000E+99

> <Gold.Chemscore.Hbonds>
donor molecule, donor type, donor heavy atom, donor atom, acceptor molecule, acceptor atom, score
      L1  H     9    23       P1  7948  0.86
      L1  H    13    38       P1 10747  1.00
      P1  H  6896  6909       L1     3  0.51

> <Gold.Chemscore.Hbond.Weighted>
-8.4814

> <Gold.Chemscore.Metal.Weighted>
-0.0000

> <Gold.Chemscore.Lipo.Weighted>
-7.6401

> <Gold.Chemscore.Internal_Hbond.Weighted>
0.0000

> <Gold.Chemscore.DEClash.Weighted>
0.0126

> <Gold.Chemscore.DEInternal.Weighted>
2.2092

> <Gold.Chemscore.Rot.Weighted>
2.5600

> <Gold.Chemscore.Internal.Correction.Weighted>
   9.000000E+99

> <Gold.Protein.RotatedTorsions>
[ 6907 6896 6895 6894 ] final   75.01 input  -60.11 | X-H torsion
[ 7974 7965 7964 7962 ] final -108.03 input  175.53 | X-H torsion
[ 8008 7997 7996 7995 ] final   22.72 input   59.86 | X-H torsion
[ 10167 10162 10161 10158 ] final  156.78 input  -65.29 | X-H torsion
[ 10718 10713 10712 10709 ] final  -45.43 input   66.30 | X-H torsion
[ 10763 10752 10751 10750 ] final  100.00 input  -60.55 | X-H torsion
[ 11005 11000 10999 10996 ] final  -71.51 input  -57.11 | X-H torsion

> <Gold.Protein.ActiveResidues>
 VAL166  LYS551  ARG553  GLY616  TRP617  ASP618  TYR619  PRO620  LYS621  CYS622 
 ASP623  PHE694  ASN695  SER759  ASP760  ASP761  ALA762  ILE779  LEU786  VAL792 
 PHE793  MET794  SER795  GLU796  ALA797  LYS798  CYS799  TRP800  GLU811  SER814 

> <Gold.Protein.RotatedAtoms>
  152.5005  134.4185  159.9472 H   0  0  0  0  0  0  0  0  0  0  0  0  # atno 6907 bound_to 6896
  151.4157  133.3707  159.2757 H   0  0  0  0  0  0  0  0  0  0  0  0  # atno 6908 bound_to 6896
  150.9259  134.8698  159.7579 H   0  0  0  0  0  0  0  0  0  0  0  0  # atno 6909 bound_to 6896
  145.1980  140.9044  143.3386 H   0  0  0  0  0  0  0  0  0  0  0  0  # atno 7974 bound_to 7965
  154.9701  140.3089  155.4992 H   0  0  0  0  0  0  0  0  0  0  0  0  # atno 8008 bound_to 7997
  156.2967  140.2285  156.4731 H   0  0  0  0  0  0  0  0  0  0  0  0  # atno 8009 bound_to 7997
  154.7885  140.0441  157.1171 H   0  0  0  0  0  0  0  0  0  0  0  0  # atno 8010 bound_to 7997
  139.4822  144.4978  151.8214 H   0  0  0  0  0  0  0  0  0  0  0  0  # atno 10167 bound_to 10162
  156.2285  130.4171  149.8904 H   0  0  0  0  0  0  0  0  0  0  0  0  # atno 10718 bound_to 10713
  153.3084  135.4094  155.1314 H   0  0  0  0  0  0  0  0  0  0  0  0  # atno 10763 bound_to 10752
  154.8569  135.3558  154.5757 H   0  0  0  0  0  0  0  0  0  0  0  0  # atno 10764 bound_to 10752
  153.6184  135.7065  153.5378 H   0  0  0  0  0  0  0  0  0  0  0  0  # atno 10765 bound_to 10752
  141.1593  133.6819  156.6916 H   0  0  0  0  0  0  0  0  0  0  0  0  # atno 11005 bound_to 11000
  144.9976  139.3629  143.6183 LP  0  0  0  0  0  0  0  0  0  0  0  0  # atno 17320 bound_to 7965
  146.3423  139.9185  142.8770 LP  0  0  0  0  0  0  0  0  0  0  0  0  # atno 17321 bound_to 7965
  140.4468  144.1911  150.5894 LP  0  0  0  0  0  0  0  0  0  0  0  0  # atno 17342 bound_to 10162
  140.4626  143.2443  151.9198 LP  0  0  0  0  0  0  0  0  0  0  0  0  # atno 17343 bound_to 10162
  156.6527  130.8750  151.3534 LP  0  0  0  0  0  0  0  0  0  0  0  0  # atno 17370 bound_to 10713
  157.7122  130.9453  150.1127 LP  0  0  0  0  0  0  0  0  0  0  0  0  # atno 17371 bound_to 10713
  140.3026  134.8151  157.4110 LP  0  0  0  0  0  0  0  0  0  0  0  0  # atno 17394 bound_to 11000
  140.1249  134.5171  155.8153 LP  0  0  0  0  0  0  0  0  0  0  0  0  # atno 17395 bound_to 11000

$$$$
