AV-unprocessed.smi:977|AV-procd|sdf|4307|dock9
  -GOLD-   22720 2213D 1   1.00000     0.00000
 Structure written by MMmdl.
 37 38  0  0  0  0  0  0  0  0  1 V2000
  147.3995  141.4411  154.0725 C   0  0  0  0  0  0  0  0  0  0  0  0
  148.7149  140.7345  154.2484 C   0  0  0  0  0  0  0  0  0  0  0  0
  149.7359  141.3968  154.7725 N   0  0  0  0  0  0  0  0  0  0  0  0
  150.7962  140.4839  154.8818 O   0  0  0  0  0  0  0  0  0  0  0  0
  150.3864  139.2759  154.4143 C   0  0  0  0  0  0  0  0  0  0  0  0
  151.3733  138.1590  154.4630 C   0  0  0  0  0  0  0  0  0  0  0  0
  149.0990  139.3876  153.9791 C   0  0  0  0  0  0  0  0  0  0  0  0
  148.3314  138.3196  153.4511 N   0  0  0  0  0  0  0  0  0  0  0  0
  147.0734  137.9930  153.7826 C   0  0  0  0  0  0  0  0  0  0  0  0
  146.3715  138.6180  154.5768 O   0  0  0  0  0  0  0  0  0  0  0  0
  146.6635  136.9005  153.1222 N   0  0  0  0  0  0  0  0  0  0  0  0
  145.3480  136.2730  153.2384 C   0  0  1  0  0  0  0  0  0  0  0  0
  144.2935  137.2329  152.6685 C   0  0  0  0  0  0  0  0  0  0  0  0
  145.3312  134.9089  152.5163 C   0  0  1  0  0  0  0  0  0  0  0  0
  145.5391  134.9711  151.0016 C   0  0  0  0  0  0  0  0  0  0  0  0
  146.0241  133.5716  150.7030 C   0  0  0  0  0  0  0  0  0  0  0  0
  146.9011  133.2759  151.9167 C   0  0  0  0  0  0  0  0  0  0  0  0
  146.3966  134.0827  152.9790 O   0  0  0  0  0  0  0  0  0  0  0  0
  146.5619  140.7607  154.2265 H   0  0  0  0  0  0  0  0  0  0  0  0
  147.3119  141.8620  153.0709 H   0  0  0  0  0  0  0  0  0  0  0  0
  147.2874  142.2594  154.7844 H   0  0  0  0  0  0  0  0  0  0  0  0
  150.8917  137.2011  154.2663 H   0  0  0  0  0  0  0  0  0  0  0  0
  151.8459  138.1030  155.4437 H   0  0  0  0  0  0  0  0  0  0  0  0
  152.1555  138.3035  153.7177 H   0  0  0  0  0  0  0  0  0  0  0  0
  148.7515  137.8042  152.6916 H   0  0  0  0  0  0  0  0  0  0  0  0
  147.3150  136.4622  152.4878 H   0  0  0  0  0  0  0  0  0  0  0  0
  145.1087  136.1109  154.2911 H   0  0  0  0  0  0  0  0  0  0  0  0
  143.2889  136.8221  152.7723 H   0  0  0  0  0  0  0  0  0  0  0  0
  144.4644  137.4286  151.6094 H   0  0  0  0  0  0  0  0  0  0  0  0
  144.3098  138.1897  153.1916 H   0  0  0  0  0  0  0  0  0  0  0  0
  144.3945  134.3877  152.7226 H   0  0  0  0  0  0  0  0  0  0  0  0
  144.6326  135.2336  150.4553 H   0  0  0  0  0  0  0  0  0  0  0  0
  146.3147  135.6955  150.7486 H   0  0  0  0  0  0  0  0  0  0  0  0
  145.1785  132.8831  150.6726 H   0  0  0  0  0  0  0  0  0  0  0  0
  146.5624  133.4949  149.7581 H   0  0  0  0  0  0  0  0  0  0  0  0
  146.8915  132.2184  152.1826 H   0  0  0  0  0  0  0  0  0  0  0  0
  147.9343  133.5669  151.7236 H   0  0  0  0  0  0  0  0  0  0  0  0
  1  2  1  0  0  0  0
  1 19  1  0  0  0  0
  1 20  1  0  0  0  0
  1 21  1  0  0  0  0
  2  7  1  0  0  0  0
  2  3  2  0  0  0  0
  3  4  1  0  0  0  0
  4  5  1  0  0  0  0
  5  6  1  0  0  0  0
  5  7  2  0  0  0  0
  6 22  1  0  0  0  0
  6 23  1  0  0  0  0
  6 24  1  0  0  0  0
  7  8  1  0  0  0  0
  8  9  1  0  0  0  0
  8 25  1  0  0  0  0
  9 10  2  0  0  0  0
  9 11  1  0  0  0  0
 11 12  1  0  0  0  0
 11 26  1  0  0  0  0
 12 13  1  0  0  0  0
 12 14  1  0  0  0  0
 12 27  1  0  0  0  0
 13 28  1  0  0  0  0
 13 29  1  0  0  0  0
 13 30  1  0  0  0  0
 14 18  1  0  0  0  0
 14 15  1  0  0  0  0
 14 31  1  0  0  0  0
 15 16  1  0  0  0  0
 15 32  1  0  0  0  0
 15 33  1  0  0  0  0
 16 17  1  0  0  0  0
 16 34  1  0  0  0  0
 16 35  1  0  0  0  0
 17 18  1  0  0  0  0
 17 36  1  0  0  0  0
 17 37  1  0  0  0  0
M  END
> <s_m_source_file>
AV-unprocessed.smi

> <i_m_source_file_index>
977

> <i_lp_mmshare_version>
43012

> <i_f3d_flags>
0

> <s_epik_input>
W0NIM11jMW5vYyhbQ0gzXSljMVtOSF1DKD1PKVtOSF1bQ0BIXShbQ0gzXSlbQ0BASF0yW0NIMl1bQ0gyXVtDSDJdTzI=

> <s_epik_cmdline>
J2VwaWtfcHl0aG9uJywgJy1waCcsICc3LjAnLCAnLXRuJywgJzgnLCAnLW1hJywgJzIwMCcsICctbWV0YWxfYmluZGluZycsICctaW1hZScsICc8aW5maWxlLm1hZT4nLCAnLW9tYWUnLCAnPG91dGZpbGUubWFlPic=

> <r_lp_tautomer_probability>
1

> <r_epik_Ionization_Penalty>
3.41601e-05

> <r_epik_Ionization_Penalty_Charging>
0

> <r_epik_Ionization_Penalty_Neutral>
3.41601e-05

> <r_epik_State_Penalty>
-0

> <r_epik_Charging_Adjusted_Penalty>
0

> <i_epik_Tot_Q>
0

> <i_epik_Tot_abs_Q>
0

> <r_epik_Metal_State_Penalty>
-0

> <b_epik_Metal_Only>
0

> <s_lp_Force_Field>
OPLS_2005

> <r_lp_Energy>
19.4669

> <b_lp_Chiralities_Consistent>
1

> <s_lp_Variant>
AV-unprocessed.smi:977-4

> <Gold.Version>
5.8.1

> <Gold.Id.Protein>
6NUR|6NUR_protein|mol2

> <Gold.PLP.Fitness>
37.1018

> <Gold.PLP.PLP>
-29.5482

> <Gold.PLP.part.hbond>
-4.6484

> <Gold.PLP.part.metal>
0.0000

> <Gold.PLP.part.buried>
-0.9606

> <Gold.PLP.part.nonpolar>
-23.8348

> <Gold.PLP.part.repulsive>
0.4410

> <Gold.PLP.ligand.clash>
0.0000

> <Gold.PLP.ligand.torsion>
0.4696

> <Gold.PLP.Chemscore.Hbond>
2.7420

> <Gold.PLP.Chemscore.CHOScore>
0.0000

> <Gold.PLP.Chemscore.Metal>
0.0000

> <Gold.Chemscore.Hbonds>
donor molecule, donor type, donor heavy atom, donor atom, acceptor molecule, acceptor atom, score
      L1  H     8    25       P1  7948  0.99
      L1  H    11    26       P1  7948  1.00
      P1  H  7989  7998       L1     4  0.71

> <Gold.PLP.Chemscore.Internal.Correction>
0.2668

> <Gold.Rescore>
     Score         DG    S(hbond)    S(metal)    S(lipo)     H(rot)  DE(clash)    DE(int)     intcor
     15.82     -16.47       1.93        0.00      65.67       1.22       0.15       0.50       ----

> <Gold.Chemscore.Fitness>
15.8172

> <Gold.Chemscore.DG>
-16.4710

> <Gold.Chemscore.ZeroCoef>
-5.4800

> <Gold.Chemscore.Hbond>
1.9253

> <Gold.Chemscore.Metal>
0.0000

> <Gold.Chemscore.Lipo>
65.6713

> <Gold.Chemscore.Internal_Hbond>
0.0000

> <Gold.Chemscore.DEClash>
0.1521

> <Gold.Chemscore.DEInternal>
0.5016

> <Gold.Chemscore.Rot>
1.2200

> <Gold.Chemscore.Internal.Correction>
   9.000000E+99

> <Gold.Chemscore.Hbonds>
donor molecule, donor type, donor heavy atom, donor atom, acceptor molecule, acceptor atom, score
      L1  H     8    25       P1  7948  0.93
      L1  H    11    26       P1  7948  0.96
      P1  H  7989  7998       L1     4  0.02

> <Gold.Chemscore.Hbond.Weighted>
-6.4306

> <Gold.Chemscore.Metal.Weighted>
-0.0000

> <Gold.Chemscore.Lipo.Weighted>
-7.6835

> <Gold.Chemscore.Internal_Hbond.Weighted>
0.0000

> <Gold.Chemscore.DEClash.Weighted>
0.1521

> <Gold.Chemscore.DEInternal.Weighted>
0.5016

> <Gold.Chemscore.Rot.Weighted>
3.1232

> <Gold.Chemscore.Internal.Correction.Weighted>
   9.000000E+99

> <Gold.Protein.RotatedTorsions>
[ 6907 6896 6895 6894 ] final   16.01 input  -60.11 | X-H torsion
[ 7974 7965 7964 7962 ] final  162.86 input  175.53 | X-H torsion
[ 8008 7997 7996 7995 ] final -154.77 input   59.86 | X-H torsion
[ 10167 10162 10161 10158 ] final -150.71 input  -65.29 | X-H torsion
[ 10718 10713 10712 10709 ] final  164.90 input   66.30 | X-H torsion
[ 10763 10752 10751 10750 ] final   12.28 input  -60.55 | X-H torsion
[ 11005 11000 10999 10996 ] final   50.51 input  -57.11 | X-H torsion

> <Gold.Protein.ActiveResidues>
 VAL166  LYS551  ARG553  GLY616  TRP617  ASP618  TYR619  PRO620  LYS621  CYS622 
 ASP623  PHE694  ASN695  SER759  ASP760  ASP761  ALA762  ILE779  LEU786  VAL792 
 PHE793  MET794  SER795  GLU796  ALA797  LYS798  CYS799  TRP800  GLU811  SER814 

> <Gold.Protein.RotatedAtoms>
  151.8272  135.0633  160.0432 H   0  0  0  0  0  0  0  0  0  0  0  0  # atno 6907 bound_to 6896
  152.2907  133.5554  159.5564 H   0  0  0  0  0  0  0  0  0  0  0  0  # atno 6908 bound_to 6896
  150.7229  134.0348  159.3788 H   0  0  0  0  0  0  0  0  0  0  0  0  # atno 6909 bound_to 6896
  144.7616  139.8100  143.6330 H   0  0  0  0  0  0  0  0  0  0  0  0  # atno 7974 bound_to 7965
  155.6915  140.0756  157.2446 H   0  0  0  0  0  0  0  0  0  0  0  0  # atno 8008 bound_to 7997
  154.4088  140.1664  156.2144 H   0  0  0  0  0  0  0  0  0  0  0  0  # atno 8009 bound_to 7997
  155.9448  140.3382  155.6360 H   0  0  0  0  0  0  0  0  0  0  0  0  # atno 8010 bound_to 7997
  139.7330  143.8778  152.2540 H   0  0  0  0  0  0  0  0  0  0  0  0  # atno 10167 bound_to 10162
  157.0878  131.0409  151.2549 H   0  0  0  0  0  0  0  0  0  0  0  0  # atno 10718 bound_to 10713
  153.1839  135.6832  153.8442 H   0  0  0  0  0  0  0  0  0  0  0  0  # atno 10763 bound_to 10752
  153.7764  135.3188  155.3360 H   0  0  0  0  0  0  0  0  0  0  0  0  # atno 10764 bound_to 10752
  154.8076  135.4738  154.0529 H   0  0  0  0  0  0  0  0  0  0  0  0  # atno 10765 bound_to 10752
  140.1011  134.5080  155.8762 H   0  0  0  0  0  0  0  0  0  0  0  0  # atno 11005 bound_to 11000
  146.1685  139.4826  142.9943 LP  0  0  0  0  0  0  0  0  0  0  0  0  # atno 17320 bound_to 7965
  145.6600  141.0243  143.1714 LP  0  0  0  0  0  0  0  0  0  0  0  0  # atno 17321 bound_to 7965
  139.8707  144.7070  150.8991 LP  0  0  0  0  0  0  0  0  0  0  0  0  # atno 17342 bound_to 10162
  140.7774  143.3741  151.1596 LP  0  0  0  0  0  0  0  0  0  0  0  0  # atno 17343 bound_to 10162
  157.4746  130.7729  149.7356 LP  0  0  0  0  0  0  0  0  0  0  0  0  # atno 17370 bound_to 10713
  155.9906  130.3943  150.3021 LP  0  0  0  0  0  0  0  0  0  0  0  0  # atno 17371 bound_to 10713
  141.2106  133.6696  156.6519 LP  0  0  0  0  0  0  0  0  0  0  0  0  # atno 17394 bound_to 11000
  140.3219  134.8001  157.4259 LP  0  0  0  0  0  0  0  0  0  0  0  0  # atno 17395 bound_to 11000

$$$$
