AV-unprocessed.smi:3029|AV-procd|sdf|11531|dock9
  -GOLD-   2272016473D 1   1.00000     0.00000
 Structure written by MMmdl.
 41 42  0  0  0  0  0  0  0  0  3 V2000
  149.5623  131.1017  155.8014 O   0  0  0  0  0  0  0  0  0  0  0  0
  149.9186  132.2648  155.9907 C   0  0  0  0  0  0  0  0  0  0  0  0
  151.0181  132.6025  156.9002 C   0  0  0  0  0  0  0  0  0  0  0  0
  151.4178  133.8759  157.0864 C   0  0  0  0  0  0  0  0  0  0  0  0
  150.7645  134.9624  156.3821 C   0  0  0  0  0  0  0  0  0  0  0  0
  151.1990  136.3306  156.5595 N   0  3  0  0  0  0  0  0  0  0  0  0
  152.3834  136.5543  156.7909 O   0  0  0  0  0  0  0  0  0  0  0  0
  150.3668  137.2280  156.4732 O   0  5  0  0  0  0  0  0  0  0  0  0
  149.7471  134.6507  155.5553 C   0  0  0  0  0  0  0  0  0  0  0  0
  149.3177  133.3229  155.3661 N   0  0  0  0  0  0  0  0  0  0  0  0
  148.2025  133.1086  154.4351 C   0  0  0  0  0  0  0  0  0  0  0  0
  148.6350  132.2343  153.2482 C   0  0  0  0  0  0  0  0  0  0  0  0
  147.5549  132.1619  152.2765 N   0  0  0  0  0  0  0  0  0  0  0  0
  146.3186  131.6617  152.8726 C   0  0  2  0  0  0  0  0  0  0  0  0
  146.6284  130.3402  153.6074 C   0  0  0  0  0  0  0  0  0  0  0  0
  146.8746  129.1656  152.6441 C   0  0  0  0  0  0  0  0  0  0  0  0
  145.7191  129.0011  151.6482 C   0  0  0  0  0  0  0  0  0  0  0  0
  145.4604  130.3036  150.8765 C   0  0  0  0  0  0  0  0  0  0  0  0
  145.1778  131.4846  151.8303 C   0  0  2  0  0  0  0  0  0  0  0  0
  144.7721  132.7740  151.0792 C   0  0  0  0  0  0  0  0  0  0  0  0
  143.8386  132.5380  150.1568 F   0  0  0  0  0  0  0  0  0  0  0  0
  144.2876  133.6613  151.9484 F   0  0  0  0  0  0  0  0  0  0  0  0
  145.8393  133.3166  150.4927 F   0  0  0  0  0  0  0  0  0  0  0  0
  151.5189  131.8086  157.4350 H   0  0  0  0  0  0  0  0  0  0  0  0
  152.2314  134.0751  157.7682 H   0  0  0  0  0  0  0  0  0  0  0  0
  149.2001  135.3845  154.9805 H   0  0  0  0  0  0  0  0  0  0  0  0
  147.3578  132.6501  154.9530 H   0  0  0  0  0  0  0  0  0  0  0  0
  147.8258  134.0664  154.0720 H   0  0  0  0  0  0  0  0  0  0  0  0
  149.5238  132.6540  152.7754 H   0  0  0  0  0  0  0  0  0  0  0  0
  148.8918  131.2340  153.5953 H   0  0  0  0  0  0  0  0  0  0  0  0
  147.8329  131.5555  151.5181 H   0  0  0  0  0  0  0  0  0  0  0  0
  145.9818  132.3712  153.6304 H   0  0  0  0  0  0  0  0  0  0  0  0
  147.4829  130.4642  154.2744 H   0  0  0  0  0  0  0  0  0  0  0  0
  145.7831  130.0913  154.2501 H   0  0  0  0  0  0  0  0  0  0  0  0
  147.8051  129.3262  152.0981 H   0  0  0  0  0  0  0  0  0  0  0  0
  147.0087  128.2442  153.2114 H   0  0  0  0  0  0  0  0  0  0  0  0
  145.9443  128.1950  150.9493 H   0  0  0  0  0  0  0  0  0  0  0  0
  144.8149  128.7045  152.1815 H   0  0  0  0  0  0  0  0  0  0  0  0
  146.3195  130.5338  150.2454 H   0  0  0  0  0  0  0  0  0  0  0  0
  144.6167  130.1570  150.2018 H   0  0  0  0  0  0  0  0  0  0  0  0
  144.2973  131.1992  152.4089 H   0  0  0  0  0  0  0  0  0  0  0  0
  1  2  2  0  0  0  0
  2 10  1  0  0  0  0
  2  3  1  0  0  0  0
  3  4  2  0  0  0  0
  3 24  1  0  0  0  0
  4  5  1  0  0  0  0
  4 25  1  0  0  0  0
  5  6  1  0  0  0  0
  5  9  2  0  0  0  0
  6  7  2  0  0  0  0
  6  8  1  0  0  0  0
  9 10  1  0  0  0  0
  9 26  1  0  0  0  0
 10 11  1  0  0  0  0
 11 12  1  0  0  0  0
 11 27  1  0  0  0  0
 11 28  1  0  0  0  0
 12 13  1  0  0  0  0
 12 29  1  0  0  0  0
 12 30  1  0  0  0  0
 13 14  1  0  0  0  0
 13 31  1  0  0  0  0
 14 19  1  0  0  0  0
 14 15  1  0  0  0  0
 14 32  1  0  0  0  0
 15 16  1  0  0  0  0
 15 33  1  0  0  0  0
 15 34  1  0  0  0  0
 16 17  1  0  0  0  0
 16 35  1  0  0  0  0
 16 36  1  0  0  0  0
 17 18  1  0  0  0  0
 17 37  1  0  0  0  0
 17 38  1  0  0  0  0
 18 19  1  0  0  0  0
 18 39  1  0  0  0  0
 18 40  1  0  0  0  0
 19 20  1  0  0  0  0
 19 41  1  0  0  0  0
 20 21  1  0  0  0  0
 20 22  1  0  0  0  0
 20 23  1  0  0  0  0
M  CHG  1   6   1
M  CHG  1   8  -1
M  END
> <s_m_source_file>
AV-unprocessed.smi

> <i_m_source_file_index>
3029

> <i_lp_mmshare_version>
43012

> <i_f3d_flags>
0

> <s_epik_input>
Tz1jMVtjSF1bY0hdYyhbTitdKD1PKVtPLV0pW2NIXW4xW0NIMl1bQ0gyXVtOSF1bQ0BASF0yW0NIMl1bQ0gyXVtDSDJdW0NIMl1bQ0BIXTJDKEYpKEYpRg==

> <s_epik_cmdline>
J2VwaWtfcHl0aG9uJywgJy1waCcsICc3LjAnLCAnLXRuJywgJzgnLCAnLW1hJywgJzIwMCcsICctbWV0YWxfYmluZGluZycsICctaW1hZScsICc8aW5maWxlLm1hZT4nLCAnLW9tYWUnLCAnPG91dGZpbGUubWFlPic=

> <r_lp_tautomer_probability>
1

> <r_epik_Ionization_Penalty>
1.65565

> <r_epik_Ionization_Penalty_Charging>
3.32684e-10

> <r_epik_Ionization_Penalty_Neutral>
1.65565

> <r_epik_State_Penalty>
1.75811

> <r_epik_Charging_Adjusted_Penalty>
1.75811

> <i_epik_Tot_Q>
0

> <i_epik_Tot_abs_Q>
2

> <r_epik_Metal_State_Penalty>
1.75811

> <b_epik_Metal_Only>
0

> <s_lp_Force_Field>
OPLS_2005

> <r_lp_Energy>
35.9342

> <b_lp_Chiralities_Consistent>
1

> <s_lp_Variant>
AV-unprocessed.smi:3029-7

> <Gold.Version>
5.8.1

> <Gold.Id.Protein>
6NUR|6NUR_protein|mol2

> <Gold.PLP.Fitness>
47.3072

> <Gold.PLP.PLP>
-40.3818

> <Gold.PLP.part.hbond>
-2.0000

> <Gold.PLP.part.metal>
0.0000

> <Gold.PLP.part.buried>
-5.0660

> <Gold.PLP.part.nonpolar>
-33.8306

> <Gold.PLP.part.repulsive>
0.1044

> <Gold.PLP.ligand.clash>
0.0000

> <Gold.PLP.ligand.torsion>
0.5856

> <Gold.PLP.Chemscore.Hbond>
1.6560

> <Gold.PLP.Chemscore.CHOScore>
1.0000

> <Gold.PLP.Chemscore.Metal>
0.0000

> <Gold.Chemscore.Hbonds>
donor molecule, donor type, donor heavy atom, donor atom, acceptor molecule, acceptor atom, score
      L1  H    13    31       P1 10747  1.00
      P1  H 10752 10764       L1     7  0.38

> <Gold.PLP.Chemscore.Internal.Correction>
0.1287

> <Gold.Rescore>
     Score         DG    S(hbond)    S(metal)    S(lipo)     H(rot)  DE(clash)    DE(int)     intcor
     11.71     -13.75       1.00        0.00      82.79       1.86       0.19       1.84       ----

> <Gold.Chemscore.Fitness>
11.7127

> <Gold.Chemscore.DG>
-13.7455

> <Gold.Chemscore.ZeroCoef>
-5.4800

> <Gold.Chemscore.Hbond>
0.9990

> <Gold.Chemscore.Metal>
0.0000

> <Gold.Chemscore.Lipo>
82.7892

> <Gold.Chemscore.Internal_Hbond>
0.0000

> <Gold.Chemscore.DEClash>
0.1897

> <Gold.Chemscore.DEInternal>
1.8431

> <Gold.Chemscore.Rot>
1.8584

> <Gold.Chemscore.Internal.Correction>
   9.000000E+99

> <Gold.Chemscore.Hbonds>
donor molecule, donor type, donor heavy atom, donor atom, acceptor molecule, acceptor atom, score
      L1  H    13    31       P1 10747  0.98
      P1  H 10752 10764       L1     7  0.04

> <Gold.Chemscore.Hbond.Weighted>
-3.3367

> <Gold.Chemscore.Metal.Weighted>
-0.0000

> <Gold.Chemscore.Lipo.Weighted>
-9.6863

> <Gold.Chemscore.Internal_Hbond.Weighted>
0.0000

> <Gold.Chemscore.DEClash.Weighted>
0.1897

> <Gold.Chemscore.DEInternal.Weighted>
1.8431

> <Gold.Chemscore.Rot.Weighted>
4.7576

> <Gold.Chemscore.Internal.Correction.Weighted>
   9.000000E+99

> <Gold.Protein.RotatedTorsions>
[ 6907 6896 6895 6894 ] final  -23.75 input  -60.11 | X-H torsion
[ 7974 7965 7964 7962 ] final -116.23 input  175.53 | X-H torsion
[ 8008 7997 7996 7995 ] final    1.29 input   59.86 | X-H torsion
[ 10167 10162 10161 10158 ] final -151.71 input  -65.29 | X-H torsion
[ 10718 10713 10712 10709 ] final   15.84 input   66.30 | X-H torsion
[ 10763 10752 10751 10750 ] final  -36.58 input  -60.55 | X-H torsion
[ 11005 11000 10999 10996 ] final   20.92 input  -57.11 | X-H torsion

> <Gold.Protein.ActiveResidues>
 VAL166  LYS551  ARG553  GLY616  TRP617  ASP618  TYR619  PRO620  LYS621  CYS622 
 ASP623  PHE694  ASN695  SER759  ASP760  ASP761  ALA762  ILE779  LEU786  VAL792 
 PHE793  MET794  SER795  GLU796  ALA797  LYS798  CYS799  TRP800  GLU811  SER814 

> <Gold.Protein.RotatedAtoms>
  151.1995  135.0436  159.8865 H   0  0  0  0  0  0  0  0  0  0  0  0  # atno 6907 bound_to 6896
  152.5433  134.0866  159.8269 H   0  0  0  0  0  0  0  0  0  0  0  0  # atno 6908 bound_to 6896
  151.1005  133.5200  159.2642 H   0  0  0  0  0  0  0  0  0  0  0  0  # atno 6909 bound_to 6896
  145.0992  140.8540  143.3936 H   0  0  0  0  0  0  0  0  0  0  0  0  # atno 7974 bound_to 7965
  154.6781  140.2626  155.6937 H   0  0  0  0  0  0  0  0  0  0  0  0  # atno 8008 bound_to 7997
  156.2686  140.2816  156.1237 H   0  0  0  0  0  0  0  0  0  0  0  0  # atno 8009 bound_to 7997
  155.1071  140.0375  157.2704 H   0  0  0  0  0  0  0  0  0  0  0  0  # atno 8010 bound_to 7997
  139.7244  143.8906  152.2514 H   0  0  0  0  0  0  0  0  0  0  0  0  # atno 10167 bound_to 10162
  157.0593  130.6302  149.5783 H   0  0  0  0  0  0  0  0  0  0  0  0  # atno 10718 bound_to 10713
  153.8821  135.6820  153.4766 H   0  0  0  0  0  0  0  0  0  0  0  0  # atno 10763 bound_to 10752
  153.1228  135.4732  154.9221 H   0  0  0  0  0  0  0  0  0  0  0  0  # atno 10764 bound_to 10752
  154.7664  135.3225  154.8230 H   0  0  0  0  0  0  0  0  0  0  0  0  # atno 10765 bound_to 10752
  140.3973  134.1755  155.7663 H   0  0  0  0  0  0  0  0  0  0  0  0  # atno 11005 bound_to 11000
  145.0976  139.2846  143.5703 LP  0  0  0  0  0  0  0  0  0  0  0  0  # atno 17320 bound_to 7965
  146.3530  140.0532  142.8634 LP  0  0  0  0  0  0  0  0  0  0  0  0  # atno 17321 bound_to 7965
  139.8811  144.7017  150.8876 LP  0  0  0  0  0  0  0  0  0  0  0  0  # atno 17342 bound_to 10162
  140.7760  143.3660  151.1738 LP  0  0  0  0  0  0  0  0  0  0  0  0  # atno 17343 bound_to 10162
  155.9983  130.5057  150.7566 LP  0  0  0  0  0  0  0  0  0  0  0  0  # atno 17370 bound_to 10713
  157.4967  131.0915  151.0363 LP  0  0  0  0  0  0  0  0  0  0  0  0  # atno 17371 bound_to 10713
  141.1869  133.8292  157.1050 LP  0  0  0  0  0  0  0  0  0  0  0  0  # atno 17394 bound_to 11000
  140.0362  134.9877  157.0875 LP  0  0  0  0  0  0  0  0  0  0  0  0  # atno 17395 bound_to 11000

$$$$
