AV-unprocessed.smi:99|AV-procd|sdf|894|dock1
  -GOLD-   2262017383D 1   1.00000     0.00000
 Structure written by MMmdl.
 52 55  0  0  0  0  0  0  0  0  2 V2000
  145.5323  136.4929  152.6687 O   0  0  0  0  0  0  0  0  0  0  0  0
  145.9094  135.3374  152.8729 C   0  0  0  0  0  0  0  0  0  0  0  0
  146.5923  134.9569  153.9690 O   0  0  0  0  0  0  0  0  0  0  0  0
  146.6681  135.8029  155.1051 C   0  0  0  0  0  0  0  0  0  0  0  0
  147.7158  135.2344  156.0702 C   0  0  1  0  0  0  0  0  0  0  0  0
  148.9819  135.1285  155.4237 O   0  0  0  0  0  0  0  0  0  0  0  0
  150.0199  135.3319  156.3441 C   0  0  1  0  0  0  0  0  0  0  0  0
  150.8666  136.5016  155.8902 N   0  0  0  0  0  0  0  0  0  0  0  0
  150.6199  137.1364  154.6839 C   0  0  0  0  0  0  0  0  0  0  0  0
  151.3615  138.1877  154.2790 C   0  0  0  0  0  0  0  0  0  0  0  0
  152.4454  138.6707  155.1299 C   0  0  0  0  0  0  0  0  0  0  0  0
  153.1225  139.6233  154.7483 O   0  0  0  0  0  0  0  0  0  0  0  0
  152.6578  138.0391  156.3203 N   0  5  0  0  0  0  0  0  0  0  0  0
  151.9047  136.9792  156.7360 C   0  0  0  0  0  0  0  0  0  0  0  0
  152.0746  136.4159  157.8175 O   0  0  0  0  0  0  0  0  0  0  0  0
  149.3850  135.6379  157.7095 C   0  0  2  0  0  0  0  0  0  0  0  0
  149.3369  134.4633  158.4986 O   0  0  0  0  0  0  0  0  0  0  0  0
  148.0059  136.1138  157.2853 C   0  0  2  0  0  0  0  0  0  0  0  0
  147.0559  136.0036  158.3411 O   0  0  0  0  0  0  0  0  0  0  0  0
  147.2884  136.5549  159.5526 C   0  0  0  0  0  0  0  0  0  0  0  0
  148.3150  137.1731  159.8414 O   0  0  0  0  0  0  0  0  0  0  0  0
  146.1499  136.3735  160.4976 C   0  0  0  0  0  0  0  0  0  0  0  0
  144.9528  135.7800  160.0333 C   0  0  0  0  0  0  0  0  0  0  0  0
  143.8697  135.5706  160.9086 C   0  0  0  0  0  0  0  0  0  0  0  0
  143.9699  135.9543  162.2586 C   0  0  0  0  0  0  0  0  0  0  0  0
  145.1541  136.5489  162.7317 C   0  0  0  0  0  0  0  0  0  0  0  0
  146.2389  136.7582  161.8581 C   0  0  0  0  0  0  0  0  0  0  0  0
  145.6390  134.2032  151.9426 C   0  0  0  0  0  0  0  0  0  0  0  0
  146.3601  132.9957  152.0916 C   0  0  0  0  0  0  0  0  0  0  0  0
  146.1409  131.9166  151.2133 C   0  0  0  0  0  0  0  0  0  0  0  0
  145.1982  132.0314  150.1751 C   0  0  0  0  0  0  0  0  0  0  0  0
  144.4712  133.2255  150.0187 C   0  0  0  0  0  0  0  0  0  0  0  0
  144.6870  134.3044  150.8977 C   0  0  0  0  0  0  0  0  0  0  0  0
  146.9554  136.8030  154.7796 H   0  0  0  0  0  0  0  0  0  0  0  0
  145.7023  135.8832  155.6063 H   0  0  0  0  0  0  0  0  0  0  0  0
  147.4290  134.2316  156.3918 H   0  0  0  0  0  0  0  0  0  0  0  0
  150.6819  134.4642  156.3387 H   0  0  0  0  0  0  0  0  0  0  0  0
  149.8177  136.7979  154.0461 H   0  0  0  0  0  0  0  0  0  0  0  0
  151.1541  138.6713  153.3357 H   0  0  0  0  0  0  0  0  0  0  0  0
  149.9408  136.4048  158.2507 H   0  0  0  0  0  0  0  0  0  0  0  0
  149.1273  133.7339  157.9361 H   0  0  0  0  0  0  0  0  0  0  0  0
  148.1084  137.1475  156.9515 H   0  0  0  0  0  0  0  0  0  0  0  0
  144.8553  135.4698  159.0028 H   0  0  0  0  0  0  0  0  0  0  0  0
  142.9628  135.1115  160.5436 H   0  0  0  0  0  0  0  0  0  0  0  0
  143.1398  135.7924  162.9303 H   0  0  0  0  0  0  0  0  0  0  0  0
  145.2323  136.8438  163.7678 H   0  0  0  0  0  0  0  0  0  0  0  0
  147.1351  137.2132  162.2545 H   0  0  0  0  0  0  0  0  0  0  0  0
  147.0936  132.8864  152.8774 H   0  0  0  0  0  0  0  0  0  0  0  0
  146.6997  131.0003  151.3350 H   0  0  0  0  0  0  0  0  0  0  0  0
  145.0334  131.2050  149.4994 H   0  0  0  0  0  0  0  0  0  0  0  0
  143.7499  133.3178  149.2201 H   0  0  0  0  0  0  0  0  0  0  0  0
  144.1161  135.2085  150.7444 H   0  0  0  0  0  0  0  0  0  0  0  0
  1  2  2  0  0  0  0
  2  3  1  0  0  0  0
  2 28  1  0  0  0  0
  3  4  1  0  0  0  0
  4  5  1  0  0  0  0
  4 34  1  0  0  0  0
  4 35  1  0  0  0  0
  5 18  1  0  0  0  0
  5  6  1  0  0  0  0
  5 36  1  0  0  0  0
  6  7  1  0  0  0  0
  7  8  1  0  0  0  0
  7 16  1  0  0  0  0
  7 37  1  0  0  0  0
  8 14  1  0  0  0  0
  8  9  1  0  0  0  0
  9 10  2  0  0  0  0
  9 38  1  0  0  0  0
 10 11  1  0  0  0  0
 10 39  1  0  0  0  0
 11 12  2  0  0  0  0
 11 13  1  0  0  0  0
 13 14  1  0  0  0  0
 14 15  2  0  0  0  0
 16 17  1  0  0  0  0
 16 18  1  0  0  0  0
 16 40  1  0  0  0  0
 17 41  1  0  0  0  0
 18 19  1  0  0  0  0
 18 42  1  0  0  0  0
 19 20  1  0  0  0  0
 20 21  2  0  0  0  0
 20 22  1  0  0  0  0
 22 27  1  0  0  0  0
 22 23  2  0  0  0  0
 23 24  1  0  0  0  0
 23 43  1  0  0  0  0
 24 25  2  0  0  0  0
 24 44  1  0  0  0  0
 25 26  1  0  0  0  0
 25 45  1  0  0  0  0
 26 27  2  0  0  0  0
 26 46  1  0  0  0  0
 27 47  1  0  0  0  0
 28 33  1  0  0  0  0
 28 29  2  0  0  0  0
 29 30  1  0  0  0  0
 29 48  1  0  0  0  0
 30 31  2  0  0  0  0
 30 49  1  0  0  0  0
 31 32  1  0  0  0  0
 31 50  1  0  0  0  0
 32 33  2  0  0  0  0
 32 51  1  0  0  0  0
 33 52  1  0  0  0  0
M  CHG  1  13  -1
M  END
> <s_m_source_file>
AV-unprocessed.smi

> <i_m_source_file_index>
99

> <i_lp_mmshare_version>
43012

> <i_f3d_flags>
0

> <s_epik_input>
W2NIXTFbY0hdW2NIXVtjSF1bY0hdYzFDKD1PKU9bQ0gyXVtDQEBIXTJPW0NAQEhdKG4zW2NIXVtjSF1jKD1PKVtuSF1jMz1PKVtDQEBIXShbT0hdKVtDQEhdMk9DKD1PKWM0W2NIXVtjSF1bY0hdW2NIXVtjSF00

> <s_epik_cmdline>
J2VwaWtfcHl0aG9uJywgJy1waCcsICc3LjAnLCAnLXRuJywgJzgnLCAnLW1hJywgJzIwMCcsICctbWV0YWxfYmluZGluZycsICctaW1hZScsICc8aW5maWxlLm1hZT4nLCAnLW9tYWUnLCAnPG91dGZpbGUubWFlPic=

> <r_lp_tautomer_probability>
1

> <r_epik_Ionization_Penalty>
2.89159

> <r_epik_Ionization_Penalty_Charging>
2.1077e-08

> <r_epik_Ionization_Penalty_Neutral>
2.89159

> <r_epik_State_Penalty>
2.88671

> <r_epik_Charging_Adjusted_Penalty>
2.88671

> <i_epik_Tot_Q>
-1

> <i_epik_Tot_abs_Q>
1

> <r_epik_Metal_State_Penalty>
0.0727308

> <b_epik_Metal_Only>
1

> <s_epik_Chemistry_Notes>
This compound has an ester and may undergo hydrolysis at high or low pH. This compound contains an acetal/aminal-like group ( X-CH(R)-Y where X, Y are N, S, or O) that may be acid/base labile, releasing an aldehyde.

> <s_lp_Force_Field>
OPLS_2005

> <r_lp_Energy>
45.2634

> <b_lp_Chiralities_Consistent>
1

> <s_lp_Variant>
AV-unprocessed.smi:99-30

> <Gold.Version>
5.8.1

> <Gold.Id.Protein>
6NUR|6NUR_protein|mol2

> <Gold.PLP.Fitness>
51.0521

> <Gold.PLP.PLP>
-40.7623

> <Gold.PLP.part.hbond>
-5.2429

> <Gold.PLP.part.metal>
0.0000

> <Gold.PLP.part.buried>
-7.8207

> <Gold.PLP.part.nonpolar>
-28.0503

> <Gold.PLP.part.repulsive>
0.3790

> <Gold.PLP.ligand.clash>
0.0000

> <Gold.PLP.ligand.torsion>
0.4205

> <Gold.PLP.Chemscore.Hbond>
2.5933

> <Gold.PLP.Chemscore.CHOScore>
1.0000

> <Gold.PLP.Chemscore.Metal>
0.0000

> <Gold.Chemscore.Hbonds>
donor molecule, donor type, donor heavy atom, donor atom, acceptor molecule, acceptor atom, score
      P1  H  6896  6909       L1    17  1.00
      P1  H  6931  6943       L1    21  0.01
      P1  H  6934  6947       L1    21  0.02
      P1  H  7989  7998       L1    12  0.14
      P1  H  7997  8009       L1    12  1.00
      L1  C     9    38       P1  7948  1.00

> <Gold.PLP.Chemscore.Internal.Correction>
0.3508

> <Gold.Rescore>
     Score         DG    S(hbond)    S(metal)    S(lipo)     H(rot)  DE(clash)    DE(int)     intcor
     13.40     -16.28       2.62        0.00      86.00       3.13       0.24       2.65       ----

> <Gold.Chemscore.Fitness>
13.3993

> <Gold.Chemscore.DG>
-16.2842

> <Gold.Chemscore.ZeroCoef>
-5.4800

> <Gold.Chemscore.Hbond>
2.6249

> <Gold.Chemscore.Metal>
0.0000

> <Gold.Chemscore.Lipo>
85.9959

> <Gold.Chemscore.Internal_Hbond>
0.0000

> <Gold.Chemscore.DEClash>
0.2380

> <Gold.Chemscore.DEInternal>
2.6470

> <Gold.Chemscore.Rot>
3.1346

> <Gold.Chemscore.Internal.Correction>
   9.000000E+99

> <Gold.Chemscore.Hbonds>
donor molecule, donor type, donor heavy atom, donor atom, acceptor molecule, acceptor atom, score
      P1  H  6896  6909       L1    17  0.75
      P1  H  6931  6943       L1    21  0.05
      P1  H  6934  6947       L1    21  0.01
      P1  H  7989  7998       L1    12  0.07
      P1  H  7997  8009       L1    12  0.97

> <Gold.Chemscore.Hbond.Weighted>
-8.7673

> <Gold.Chemscore.Metal.Weighted>
-0.0000

> <Gold.Chemscore.Lipo.Weighted>
-10.0615

> <Gold.Chemscore.Internal_Hbond.Weighted>
0.0000

> <Gold.Chemscore.DEClash.Weighted>
0.2380

> <Gold.Chemscore.DEInternal.Weighted>
2.6470

> <Gold.Chemscore.Rot.Weighted>
8.0246

> <Gold.Chemscore.Internal.Correction.Weighted>
   9.000000E+99

> <Gold.Protein.RotatedTorsions>
[ 6907 6896 6895 6894 ] final   37.02 input  -60.11 | X-H torsion
[ 7974 7965 7964 7962 ] final  -79.05 input  175.53 | X-H torsion
[ 8008 7997 7996 7995 ] final -130.46 input   59.86 | X-H torsion
[ 10167 10162 10161 10158 ] final -140.86 input  -65.29 | X-H torsion
[ 10718 10713 10712 10709 ] final -159.79 input   66.30 | X-H torsion
[ 10763 10752 10751 10750 ] final   69.16 input  -60.55 | X-H torsion
[ 11005 11000 10999 10996 ] final  -50.15 input  -57.11 | X-H torsion

> <Gold.Protein.ActiveResidues>
 VAL166  LYS551  ARG553  GLY616  TRP617  ASP618  TYR619  PRO620  LYS621  CYS622 
 ASP623  PHE694  ASN695  SER759  ASP760  ASP761  ALA762  ILE779  LEU786  VAL792 
 PHE793  MET794  SER795  GLU796  ALA797  LYS798  CYS799  TRP800  GLU811  SER814 

> <Gold.Protein.RotatedAtoms>
  152.1375  134.9088  160.0555 H   0  0  0  0  0  0  0  0  0  0  0  0  # atno 6907 bound_to 6896
  152.0168  133.3878  159.4250 H   0  0  0  0  0  0  0  0  0  0  0  0  # atno 6908 bound_to 6896
  150.6862  134.3591  159.4986 H   0  0  0  0  0  0  0  0  0  0  0  0  # atno 6909 bound_to 6896
  145.5783  140.9453  143.1358 H   0  0  0  0  0  0  0  0  0  0  0  0  # atno 7974 bound_to 7965
  155.2961  140.0450  157.3026 H   0  0  0  0  0  0  0  0  0  0  0  0  # atno 8008 bound_to 7997
  154.5513  140.2318  155.8447 H   0  0  0  0  0  0  0  0  0  0  0  0  # atno 8009 bound_to 7997
  156.1969  140.3036  155.9453 H   0  0  0  0  0  0  0  0  0  0  0  0  # atno 8010 bound_to 7997
  139.8240  143.7535  152.2666 H   0  0  0  0  0  0  0  0  0  0  0  0  # atno 10167 bound_to 10162
  156.5731  130.8697  151.2843 H   0  0  0  0  0  0  0  0  0  0  0  0  # atno 10718 bound_to 10713
  153.0272  135.5221  154.7245 H   0  0  0  0  0  0  0  0  0  0  0  0  # atno 10763 bound_to 10752
  154.6291  135.2898  155.0240 H   0  0  0  0  0  0  0  0  0  0  0  0  # atno 10764 bound_to 10752
  154.1199  135.6609  153.4953 H   0  0  0  0  0  0  0  0  0  0  0  0  # atno 10765 bound_to 10752
  141.0800  133.6656  156.3689 H   0  0  0  0  0  0  0  0  0  0  0  0  # atno 11005 bound_to 11000
  144.7405  139.7461  143.7312 LP  0  0  0  0  0  0  0  0  0  0  0  0  # atno 17320 bound_to 7965
  146.1734  139.4895  142.9912 LP  0  0  0  0  0  0  0  0  0  0  0  0  # atno 17321 bound_to 7965
  139.7722  144.7473  151.0208 LP  0  0  0  0  0  0  0  0  0  0  0  0  # atno 17342 bound_to 10162
  140.7811  143.4632  151.0248 LP  0  0  0  0  0  0  0  0  0  0  0  0  # atno 17343 bound_to 10162
  157.7344  130.9745  150.2025 LP  0  0  0  0  0  0  0  0  0  0  0  0  # atno 17370 bound_to 10713
  156.2697  130.3720  149.8044 LP  0  0  0  0  0  0  0  0  0  0  0  0  # atno 17371 bound_to 10713
  140.5490  134.6046  157.5402 LP  0  0  0  0  0  0  0  0  0  0  0  0  # atno 17394 bound_to 11000
  139.9613  134.7448  156.0231 LP  0  0  0  0  0  0  0  0  0  0  0  0  # atno 17395 bound_to 11000

$$$$
