AV-unprocessed.smi:1866|AV-procd|sdf|7559|dock4
  -GOLD-   22720 9273D 1   1.00000     0.00000
 Structure written by MMmdl.
 29 30  0  0  0  0  0  0  0  0  2 V2000
  148.8586  140.7892  154.9677 C   0  0  0  0  0  0  0  0  0  0  0  0
  149.7899  139.6347  154.8225 C   0  0  0  0  0  0  0  0  0  0  0  0
  151.1178  139.7725  154.8350 N   0  0  0  0  0  0  0  0  0  0  0  0
  151.7707  138.5575  154.6843 N   0  0  0  0  0  0  0  0  0  0  0  0
  150.9302  137.5195  154.5697 C   0  0  0  0  0  0  0  0  0  0  0  0
  151.3619  136.2574  154.4112 N   0  5  0  0  0  0  0  0  0  0  0  0
  150.6489  135.2295  154.9256 C   0  0  0  0  0  0  0  0  0  0  0  0
  150.8910  134.6244  155.9723 O   0  0  0  0  0  0  0  0  0  0  0  0
  149.5858  134.8877  154.1819 N   0  0  0  0  0  0  0  0  0  0  0  0
  148.6304  133.8132  154.4580 C   0  0  1  0  0  0  0  0  0  0  0  0
  147.2061  134.3484  154.1928 C   0  0  0  0  0  0  0  0  0  0  0  0
  146.8923  134.4511  152.6970 C   0  0  0  0  0  0  0  0  0  0  0  0
  147.0107  133.0686  152.0447 C   0  0  0  0  0  0  0  0  0  0  0  0
  148.2024  132.3408  152.4747 N   0  0  0  0  0  0  0  0  0  0  0  0
  148.9516  132.5921  153.5642 C   0  0  0  0  0  0  0  0  0  0  0  0
  149.8923  131.8583  153.8607 O   0  0  0  0  0  0  0  0  0  0  0  0
  149.2295  137.9835  154.6202 S   0  0  0  0  0  0  0  0  0  0  0  0
  148.8054  141.0953  156.0125 H   0  0  0  0  0  0  0  0  0  0  0  0
  147.8588  140.5142  154.6313 H   0  0  0  0  0  0  0  0  0  0  0  0
  149.2071  141.6325  154.3709 H   0  0  0  0  0  0  0  0  0  0  0  0
  149.4349  135.4152  153.3348 H   0  0  0  0  0  0  0  0  0  0  0  0
  148.7050  133.5180  155.5061 H   0  0  0  0  0  0  0  0  0  0  0  0
  146.4798  133.6844  154.6635 H   0  0  0  0  0  0  0  0  0  0  0  0
  147.0742  135.3204  154.6701 H   0  0  0  0  0  0  0  0  0  0  0  0
  145.8912  134.8546  152.5427 H   0  0  0  0  0  0  0  0  0  0  0  0
  147.5842  135.1468  152.2207 H   0  0  0  0  0  0  0  0  0  0  0  0
  146.1415  132.4637  152.3043 H   0  0  0  0  0  0  0  0  0  0  0  0
  147.0169  133.1607  150.9585 H   0  0  0  0  0  0  0  0  0  0  0  0
  148.4651  131.5437  151.9136 H   0  0  0  0  0  0  0  0  0  0  0  0
  1  2  1  0  0  0  0
  1 18  1  0  0  0  0
  1 19  1  0  0  0  0
  1 20  1  0  0  0  0
  2 17  1  0  0  0  0
  2  3  2  0  0  0  0
  3  4  1  0  0  0  0
  4  5  2  0  0  0  0
  5  6  1  0  0  0  0
  5 17  1  0  0  0  0
  6  7  1  0  0  0  0
  7  8  2  0  0  0  0
  7  9  1  0  0  0  0
  9 10  1  0  0  0  0
  9 21  1  0  0  0  0
 10 15  1  0  0  0  0
 10 11  1  0  0  0  0
 10 22  1  0  0  0  0
 11 12  1  0  0  0  0
 11 23  1  0  0  0  0
 11 24  1  0  0  0  0
 12 13  1  0  0  0  0
 12 25  1  0  0  0  0
 12 26  1  0  0  0  0
 13 14  1  0  0  0  0
 13 27  1  0  0  0  0
 13 28  1  0  0  0  0
 14 15  1  0  0  0  0
 14 29  1  0  0  0  0
 15 16  2  0  0  0  0
M  CHG  1   6  -1
M  END
> <s_m_source_file>
AV-unprocessed.smi

> <i_m_source_file_index>
1866

> <i_lp_mmshare_version>
43012

> <i_f3d_flags>
0

> <s_epik_input>
W0NIM11jMW5uYyhzMSlbTkhdQyg9TylbTkhdW0NAQEhdMltDSDJdW0NIMl1bQ0gyXVtOSF1DMj1P

> <s_epik_cmdline>
J2VwaWtfcHl0aG9uJywgJy1waCcsICc3LjAnLCAnLXRuJywgJzgnLCAnLW1hJywgJzIwMCcsICctbWV0YWxfYmluZGluZycsICctaW1hZScsICc8aW5maWxlLm1hZT4nLCAnLW9tYWUnLCAnPG91dGZpbGUubWFlPic=

> <r_lp_tautomer_probability>
1

> <r_epik_Ionization_Penalty>
3.97471

> <r_epik_Ionization_Penalty_Charging>
3.84029

> <r_epik_Ionization_Penalty_Neutral>
0.134427

> <r_epik_State_Penalty>
3.83938

> <r_epik_Charging_Adjusted_Penalty>
7.67966

> <i_epik_Tot_Q>
-1

> <i_epik_Tot_abs_Q>
1

> <r_epik_Metal_State_Penalty>
0.577306

> <b_epik_Metal_Only>
1

> <s_lp_Force_Field>
OPLS_2005

> <r_lp_Energy>
8.91558

> <b_lp_Chiralities_Consistent>
1

> <s_lp_Variant>
AV-unprocessed.smi:1866-4

> <Gold.Version>
5.8.1

> <Gold.Id.Protein>
6NUR|6NUR_protein|mol2

> <Gold.PLP.Fitness>
35.3145

> <Gold.PLP.PLP>
-23.3840

> <Gold.PLP.part.hbond>
-4.0000

> <Gold.PLP.part.metal>
0.0000

> <Gold.PLP.part.buried>
-1.6550

> <Gold.PLP.part.nonpolar>
-18.4299

> <Gold.PLP.part.repulsive>
1.1219

> <Gold.PLP.ligand.clash>
0.0000

> <Gold.PLP.ligand.torsion>
1.1715

> <Gold.PLP.Chemscore.Hbond>
4.7564

> <Gold.PLP.Chemscore.CHOScore>
0.0000

> <Gold.PLP.Chemscore.Metal>
0.0000

> <Gold.Chemscore.Hbonds>
donor molecule, donor type, donor heavy atom, donor atom, acceptor molecule, acceptor atom, score
      L1  H     9    21       P1  7948  0.75
      L1  H    14    29       P1 10747  0.99
      P1  H  7989  7998       L1     3  1.00
      P1  H 10752 10765       L1     6  2.00

> <Gold.PLP.Chemscore.Internal.Correction>
0.0042

> <Gold.Rescore>
     Score         DG    S(hbond)    S(metal)    S(lipo)     H(rot)  DE(clash)    DE(int)     intcor
     14.00     -15.93       2.66        0.00      35.25       1.00       0.81       1.11       ----

> <Gold.Chemscore.Fitness>
14.0011

> <Gold.Chemscore.DG>
-15.9297

> <Gold.Chemscore.ZeroCoef>
-5.4800

> <Gold.Chemscore.Hbond>
2.6603

> <Gold.Chemscore.Metal>
0.0000

> <Gold.Chemscore.Lipo>
35.2495

> <Gold.Chemscore.Internal_Hbond>
0.0000

> <Gold.Chemscore.DEClash>
0.8142

> <Gold.Chemscore.DEInternal>
1.1144

> <Gold.Chemscore.Rot>
1.0000

> <Gold.Chemscore.Internal.Correction>
   9.000000E+99

> <Gold.Chemscore.Hbonds>
donor molecule, donor type, donor heavy atom, donor atom, acceptor molecule, acceptor atom, score
      L1  H     9    21       P1  7948  0.09
      L1  H    14    29       P1 10747  0.93
      P1  H  7989  7998       L1     3  0.49
      P1  H 10752 10765       L1     6  0.40

> <Gold.Chemscore.Hbond.Weighted>
-8.8855

> <Gold.Chemscore.Metal.Weighted>
-0.0000

> <Gold.Chemscore.Lipo.Weighted>
-4.1242

> <Gold.Chemscore.Internal_Hbond.Weighted>
0.0000

> <Gold.Chemscore.DEClash.Weighted>
0.8142

> <Gold.Chemscore.DEInternal.Weighted>
1.1144

> <Gold.Chemscore.Rot.Weighted>
2.5600

> <Gold.Chemscore.Internal.Correction.Weighted>
   9.000000E+99

> <Gold.Protein.RotatedTorsions>
[ 6907 6896 6895 6894 ] final  153.64 input  -60.11 | X-H torsion
[ 7974 7965 7964 7962 ] final   38.42 input  175.53 | X-H torsion
[ 8008 7997 7996 7995 ] final -157.54 input   59.86 | X-H torsion
[ 10167 10162 10161 10158 ] final  -21.70 input  -65.29 | X-H torsion
[ 10718 10713 10712 10709 ] final   76.48 input   66.30 | X-H torsion
[ 10763 10752 10751 10750 ] final  165.35 input  -60.55 | X-H torsion
[ 11005 11000 10999 10996 ] final  -31.71 input  -57.11 | X-H torsion

> <Gold.Protein.ActiveResidues>
 VAL166  LYS551  ARG553  GLY616  TRP617  ASP618  TYR619  PRO620  LYS621  CYS622 
 ASP623  PHE694  ASN695  SER759  ASP760  ASP761  ALA762  ILE779  LEU786  VAL792 
 PHE793  MET794  SER795  GLU796  ALA797  LYS798  CYS799  TRP800  GLU811  SER814 

> <Gold.Protein.RotatedAtoms>
  152.0698  133.4101  159.4453 H   0  0  0  0  0  0  0  0  0  0  0  0  # atno 6907 bound_to 6896
  150.6864  134.3105  159.4753 H   0  0  0  0  0  0  0  0  0  0  0  0  # atno 6908 bound_to 6896
  152.0935  134.9390  160.0622 H   0  0  0  0  0  0  0  0  0  0  0  0  # atno 6909 bound_to 6896
  146.1063  139.5774  142.9381 H   0  0  0  0  0  0  0  0  0  0  0  0  # atno 7974 bound_to 7965
  155.7340  140.0805  157.2276 H   0  0  0  0  0  0  0  0  0  0  0  0  # atno 8008 bound_to 7997
  154.4029  140.1590  156.2595 H   0  0  0  0  0  0  0  0  0  0  0  0  # atno 8009 bound_to 7997
  155.9083  140.3405  155.6081 H   0  0  0  0  0  0  0  0  0  0  0  0  # atno 8010 bound_to 7997
  140.7283  143.4603  151.0389 H   0  0  0  0  0  0  0  0  0  0  0  0  # atno 10167 bound_to 10162
  157.6675  130.9776  150.1503 H   0  0  0  0  0  0  0  0  0  0  0  0  # atno 10718 bound_to 10713
  154.3226  135.2755  155.2512 H   0  0  0  0  0  0  0  0  0  0  0  0  # atno 10763 bound_to 10752
  154.4858  135.5846  153.6426 H   0  0  0  0  0  0  0  0  0  0  0  0  # atno 10764 bound_to 10752
  152.9875  135.6122  154.3412 H   0  0  0  0  0  0  0  0  0  0  0  0  # atno 10765 bound_to 10752
  140.9491  133.7232  156.1192 H   0  0  0  0  0  0  0  0  0  0  0  0  # atno 11005 bound_to 11000
  145.5754  141.0389  143.2151 LP  0  0  0  0  0  0  0  0  0  0  0  0  # atno 17320 bound_to 7965
  144.7474  139.7284  143.7287 LP  0  0  0  0  0  0  0  0  0  0  0  0  # atno 17321 bound_to 7965
  139.8287  143.7720  152.3179 LP  0  0  0  0  0  0  0  0  0  0  0  0  # atno 17342 bound_to 10162
  139.7828  144.7438  151.0064 LP  0  0  0  0  0  0  0  0  0  0  0  0  # atno 17343 bound_to 10162
  156.2304  130.3681  149.8452 LP  0  0  0  0  0  0  0  0  0  0  0  0  # atno 17370 bound_to 10713
  156.6280  130.8654  151.3489 LP  0  0  0  0  0  0  0  0  0  0  0  0  # atno 17371 bound_to 10713
  140.7628  134.3920  157.5522 LP  0  0  0  0  0  0  0  0  0  0  0  0  # atno 17394 bound_to 11000
  139.8842  134.8972  156.2718 LP  0  0  0  0  0  0  0  0  0  0  0  0  # atno 17395 bound_to 11000

$$$$
