AV-unprocessed.smi:276|AV-procd|sdf|2081|dock9
  -GOLD-   2262021353D 1   1.00000     0.00000
 Structure written by MMmdl.
 57 61  0  0  0  0  0  0  0  0  1 V2000
  154.3586  141.4093  160.4333 C   0  0  0  0  0  0  0  0  0  0  0  0
  153.6829  142.5164  159.8636 O   0  0  0  0  0  0  0  0  0  0  0  0
  152.8321  142.1420  158.7917 C   0  0  1  0  0  0  0  0  0  0  0  0
  151.8548  141.0069  159.1207 C   0  0  0  0  0  0  0  0  0  0  0  0
  150.7681  141.7749  158.3424 C   0  0  2  0  0  0  0  0  0  0  0  0
  150.7057  141.3461  156.9375 N   0  0  0  0  0  0  0  0  0  0  0  0
  151.9447  140.8236  156.3695 C   0  0  0  0  0  0  0  0  0  0  0  0
  149.6732  140.5378  156.6092 C   0  0  0  0  0  0  0  0  0  0  0  0
  149.3879  139.5273  157.4675 N   0  0  0  0  0  0  0  0  0  0  0  0
  148.3828  138.6876  157.2019 C   0  0  0  0  0  0  0  0  0  0  0  0
  147.5502  138.6850  156.1587 N   0  0  0  0  0  0  0  0  0  0  0  0
  147.8270  139.7087  155.3011 C   0  0  0  0  0  0  0  0  0  0  0  0
  148.8590  140.6778  155.4484 C   0  0  0  0  0  0  0  0  0  0  0  0
  148.8263  141.5674  154.3806 N   0  0  0  0  0  0  0  0  0  0  0  0
  147.8394  141.1422  153.6399 C   0  0  0  0  0  0  0  0  0  0  0  0
  147.1853  140.0304  154.1191 N   0  0  0  0  0  0  0  0  0  0  0  0
  146.0562  139.3505  153.5097 C   0  0  0  0  0  0  0  0  0  0  0  0
  146.4912  138.3017  152.4671 C   0  0  2  0  0  0  0  0  0  0  0  0
  146.2326  138.8038  151.1695 O   0  0  0  0  0  0  0  0  0  0  0  0
  145.7494  136.9636  152.6432 C   0  0  1  0  0  0  0  0  0  0  0  0
  144.2612  137.1021  152.9696 C   0  0  0  0  0  0  0  0  0  0  0  0
  143.7196  135.7735  152.4951 C   0  0  0  0  0  0  0  0  0  0  0  0
  144.5350  135.5427  151.2271 C   0  0  0  0  0  0  0  0  0  0  0  0
  145.7763  136.2137  151.4300 O   0  0  0  0  0  0  0  0  0  0  0  0
  151.6043  143.0543  158.6185 C   0  0  0  0  0  0  0  0  0  0  0  0
  151.1825  143.9983  159.7594 C   0  0  0  0  0  0  0  0  0  0  0  0
  151.8471  145.1417  158.9882 C   0  0  0  0  0  0  0  0  0  0  0  0
  151.6644  144.3045  157.7199 C   0  0  0  0  0  0  0  0  0  0  0  0
  155.0013  141.7511  161.2444 H   0  0  0  0  0  0  0  0  0  0  0  0
  154.9860  140.9094  159.6941 H   0  0  0  0  0  0  0  0  0  0  0  0
  153.6562  140.6832  160.8448 H   0  0  0  0  0  0  0  0  0  0  0  0
  153.3594  141.9893  157.8474 H   0  0  0  0  0  0  0  0  0  0  0  0
  152.1480  140.0352  158.7243 H   0  0  0  0  0  0  0  0  0  0  0  0
  151.6321  140.9428  160.1872 H   0  0  0  0  0  0  0  0  0  0  0  0
  149.8075  141.7588  158.8570 H   0  0  0  0  0  0  0  0  0  0  0  0
  151.7723  140.2290  155.4704 H   0  0  0  0  0  0  0  0  0  0  0  0
  152.4640  140.1949  157.0936 H   0  0  0  0  0  0  0  0  0  0  0  0
  152.6077  141.6421  156.0909 H   0  0  0  0  0  0  0  0  0  0  0  0
  148.2232  137.9056  157.9294 H   0  0  0  0  0  0  0  0  0  0  0  0
  147.5609  141.6312  152.7179 H   0  0  0  0  0  0  0  0  0  0  0  0
  145.4806  138.8776  154.3061 H   0  0  0  0  0  0  0  0  0  0  0  0
  145.4029  140.0954  153.0534 H   0  0  0  0  0  0  0  0  0  0  0  0
  147.5651  138.1303  152.5535 H   0  0  0  0  0  0  0  0  0  0  0  0
  145.2970  138.8390  151.0425 H   0  0  0  0  0  0  0  0  0  0  0  0
  146.2308  136.3611  153.4155 H   0  0  0  0  0  0  0  0  0  0  0  0
  144.0722  137.2863  154.0275 H   0  0  0  0  0  0  0  0  0  0  0  0
  143.8132  137.9142  152.3949 H   0  0  0  0  0  0  0  0  0  0  0  0
  143.9378  134.9969  153.2297 H   0  0  0  0  0  0  0  0  0  0  0  0
  142.6442  135.7850  152.3162 H   0  0  0  0  0  0  0  0  0  0  0  0
  144.6844  134.4833  151.0176 H   0  0  0  0  0  0  0  0  0  0  0  0
  144.0376  135.9909  150.3662 H   0  0  0  0  0  0  0  0  0  0  0  0
  150.0997  144.1152  159.8275 H   0  0  0  0  0  0  0  0  0  0  0  0
  151.6207  143.7857  160.7348 H   0  0  0  0  0  0  0  0  0  0  0  0
  151.2963  146.0825  158.9993 H   0  0  0  0  0  0  0  0  0  0  0  0
  152.8957  145.2802  159.2569 H   0  0  0  0  0  0  0  0  0  0  0  0
  152.5057  144.3335  157.0270 H   0  0  0  0  0  0  0  0  0  0  0  0
  150.7244  144.5436  157.2234 H   0  0  0  0  0  0  0  0  0  0  0  0
  1  2  1  0  0  0  0
  1 29  1  0  0  0  0
  1 30  1  0  0  0  0
  1 31  1  0  0  0  0
  2  3  1  0  0  0  0
  3 25  1  0  0  0  0
  3  4  1  0  0  0  0
  3 32  1  0  0  0  0
  4  5  1  0  0  0  0
  4 33  1  0  0  0  0
  4 34  1  0  0  0  0
  5  6  1  0  0  0  0
  5 25  1  0  0  0  0
  5 35  1  0  0  0  0
  6  7  1  0  0  0  0
  6  8  1  0  0  0  0
  7 36  1  0  0  0  0
  7 37  1  0  0  0  0
  7 38  1  0  0  0  0
  8 13  1  0  0  0  0
  8  9  2  0  0  0  0
  9 10  1  0  0  0  0
 10 11  2  0  0  0  0
 10 39  1  0  0  0  0
 11 12  1  0  0  0  0
 12 16  1  0  0  0  0
 12 13  2  0  0  0  0
 13 14  1  0  0  0  0
 14 15  2  0  0  0  0
 15 16  1  0  0  0  0
 15 40  1  0  0  0  0
 16 17  1  0  0  0  0
 17 18  1  0  0  0  0
 17 41  1  0  0  0  0
 17 42  1  0  0  0  0
 18 19  1  0  0  0  0
 18 20  1  0  0  0  0
 18 43  1  0  0  0  0
 19 44  1  0  0  0  0
 20 24  1  0  0  0  0
 20 21  1  0  0  0  0
 20 45  1  0  0  0  0
 21 22  1  0  0  0  0
 21 46  1  0  0  0  0
 21 47  1  0  0  0  0
 22 23  1  0  0  0  0
 22 48  1  0  0  0  0
 22 49  1  0  0  0  0
 23 24  1  0  0  0  0
 23 50  1  0  0  0  0
 23 51  1  0  0  0  0
 25 28  1  0  0  0  0
 25 26  1  0  0  0  0
 26 27  1  0  0  0  0
 26 52  1  0  0  0  0
 26 53  1  0  0  0  0
 27 28  1  0  0  0  0
 27 54  1  0  0  0  0
 27 55  1  0  0  0  0
 28 56  1  0  0  0  0
 28 57  1  0  0  0  0
M  END
> <s_m_source_file>
AV-unprocessed.smi

> <i_m_source_file_index>
276

> <i_lp_mmshare_version>
43012

> <i_f3d_flags>
0

> <s_epik_input>
W0NIMl0xW0NIMl1bQ0gyXUMxMltDQEhdKE9bQ0gzXSlbQ0gyXVtDQEhdMk4oW0NIM10pYyhuW2NIXW4zKWMoYzM0KW5bY0hdbjRbQ0gyXVtDQEhdKFtPSF0pW0NAQEhdNVtDSDJdW0NIMl1bQ0gyXU81

> <s_epik_cmdline>
J2VwaWtfcHl0aG9uJywgJy1waCcsICc3LjAnLCAnLXRuJywgJzgnLCAnLW1hJywgJzIwMCcsICctbWV0YWxfYmluZGluZycsICctaW1hZScsICc8aW5maWxlLm1hZT4nLCAnLW9tYWUnLCAnPG91dGZpbGUubWFlPic=

> <r_lp_tautomer_probability>
1

> <r_epik_Ionization_Penalty>
0.00204117

> <r_epik_Ionization_Penalty_Charging>
0

> <r_epik_Ionization_Penalty_Neutral>
0.00204117

> <r_epik_State_Penalty>
0.00127401

> <r_epik_Charging_Adjusted_Penalty>
0.00127401

> <i_epik_Tot_Q>
0

> <i_epik_Tot_abs_Q>
0

> <r_epik_Metal_State_Penalty>
-0

> <b_epik_Metal_Only>
0

> <s_lp_Force_Field>
OPLS_2005

> <r_lp_Energy>
57.2167

> <b_lp_Chiralities_Consistent>
1

> <s_lp_Variant>
AV-unprocessed.smi:276-12

> <Gold.Version>
5.8.1

> <Gold.Id.Protein>
6NUR|6NUR_protein|mol2

> <Gold.PLP.Fitness>
43.7623

> <Gold.PLP.PLP>
-44.9863

> <Gold.PLP.part.hbond>
-3.7342

> <Gold.PLP.part.metal>
0.0000

> <Gold.PLP.part.buried>
-1.7320

> <Gold.PLP.part.nonpolar>
-40.6413

> <Gold.PLP.part.repulsive>
0.9299

> <Gold.PLP.ligand.clash>
3.3745

> <Gold.PLP.ligand.torsion>
2.8478

> <Gold.PLP.Chemscore.Hbond>
1.9571

> <Gold.PLP.Chemscore.CHOScore>
0.3787

> <Gold.PLP.Chemscore.Metal>
0.0000

> <Gold.Chemscore.Hbonds>
donor molecule, donor type, donor heavy atom, donor atom, acceptor molecule, acceptor atom, score
      L1  H    19    44       P1 10171  0.91
      P1  H  8011  8017       L1    14  0.01

> <Gold.PLP.Chemscore.Internal.Correction>
0.8387

> <Gold.Rescore>
     Score         DG    S(hbond)    S(metal)    S(lipo)     H(rot)  DE(clash)    DE(int)     intcor
     12.33     -17.90       1.47        0.00     123.60       2.72       1.18       4.38       ----

> <Gold.Chemscore.Fitness>
12.3318

> <Gold.Chemscore.DG>
-17.8953

> <Gold.Chemscore.ZeroCoef>
-5.4800

> <Gold.Chemscore.Hbond>
1.4701

> <Gold.Chemscore.Metal>
0.0000

> <Gold.Chemscore.Lipo>
123.6004

> <Gold.Chemscore.Internal_Hbond>
0.0000

> <Gold.Chemscore.DEClash>
1.1801

> <Gold.Chemscore.DEInternal>
4.3834

> <Gold.Chemscore.Rot>
2.7172

> <Gold.Chemscore.Internal.Correction>
   9.000000E+99

> <Gold.Chemscore.Hbonds>
donor molecule, donor type, donor heavy atom, donor atom, acceptor molecule, acceptor atom, score
      L1  H    19    44       P1 10171  0.88
      P1  H  7954  7966       L1    19  0.01

> <Gold.Chemscore.Hbond.Weighted>
-4.9100

> <Gold.Chemscore.Metal.Weighted>
-0.0000

> <Gold.Chemscore.Lipo.Weighted>
-14.4612

> <Gold.Chemscore.Internal_Hbond.Weighted>
0.0000

> <Gold.Chemscore.DEClash.Weighted>
1.1801

> <Gold.Chemscore.DEInternal.Weighted>
4.3834

> <Gold.Chemscore.Rot.Weighted>
6.9560

> <Gold.Chemscore.Internal.Correction.Weighted>
   9.000000E+99

> <Gold.Protein.RotatedTorsions>
[ 6907 6896 6895 6894 ] final  -26.68 input  -60.11 | X-H torsion
[ 7974 7965 7964 7962 ] final -139.40 input  175.53 | X-H torsion
[ 8008 7997 7996 7995 ] final   61.41 input   59.86 | X-H torsion
[ 10167 10162 10161 10158 ] final  112.69 input  -65.29 | X-H torsion
[ 10718 10713 10712 10709 ] final  -48.77 input   66.30 | X-H torsion
[ 10763 10752 10751 10750 ] final  124.47 input  -60.55 | X-H torsion
[ 11005 11000 10999 10996 ] final -103.34 input  -57.11 | X-H torsion

> <Gold.Protein.ActiveResidues>
 VAL166  LYS551  ARG553  GLY616  TRP617  ASP618  TYR619  PRO620  LYS621  CYS622 
 ASP623  PHE694  ASN695  SER759  ASP760  ASP761  ALA762  ILE779  LEU786  VAL792 
 PHE793  MET794  SER795  GLU796  ALA797  LYS798  CYS799  TRP800  GLU811  SER814 

> <Gold.Protein.RotatedAtoms>
  151.1575  135.0257  159.8695 H   0  0  0  0  0  0  0  0  0  0  0  0  # atno 6907 bound_to 6896
  152.5452  134.1317  159.8452 H   0  0  0  0  0  0  0  0  0  0  0  0  # atno 6908 bound_to 6896
  151.1409  133.4926  159.2629 H   0  0  0  0  0  0  0  0  0  0  0  0  # atno 6909 bound_to 6896
  144.8680  140.6323  143.5285 H   0  0  0  0  0  0  0  0  0  0  0  0  # atno 7974 bound_to 7965
  155.5979  140.3493  155.4585 H   0  0  0  0  0  0  0  0  0  0  0  0  # atno 8008 bound_to 7997
  156.0251  140.1262  157.0342 H   0  0  0  0  0  0  0  0  0  0  0  0  # atno 8009 bound_to 7997
  154.4330  140.1054  156.6005 H   0  0  0  0  0  0  0  0  0  0  0  0  # atno 8010 bound_to 7997
  139.6517  144.7128  151.2035 H   0  0  0  0  0  0  0  0  0  0  0  0  # atno 10167 bound_to 10162
  156.1956  130.4154  149.9311 H   0  0  0  0  0  0  0  0  0  0  0  0  # atno 10718 bound_to 10713
  153.6619  135.3345  155.3129 H   0  0  0  0  0  0  0  0  0  0  0  0  # atno 10763 bound_to 10752
  154.8513  135.4365  154.1796 H   0  0  0  0  0  0  0  0  0  0  0  0  # atno 10764 bound_to 10752
  153.2764  135.7005  153.7504 H   0  0  0  0  0  0  0  0  0  0  0  0  # atno 10765 bound_to 10752
  141.1150  133.8632  157.1474 H   0  0  0  0  0  0  0  0  0  0  0  0  # atno 11005 bound_to 11000
  145.4184  139.1568  143.4087 LP  0  0  0  0  0  0  0  0  0  0  0  0  # atno 17320 bound_to 7965
  146.2910  140.4293  142.8739 LP  0  0  0  0  0  0  0  0  0  0  0  0  # atno 17321 bound_to 7965
  140.7541  143.6139  150.8578 LP  0  0  0  0  0  0  0  0  0  0  0  0  # atno 17342 bound_to 10162
  139.9788  143.5975  152.2950 LP  0  0  0  0  0  0  0  0  0  0  0  0  # atno 17343 bound_to 10162
  156.7037  130.8943  151.3602 LP  0  0  0  0  0  0  0  0  0  0  0  0  # atno 17370 bound_to 10713
  157.6956  130.9278  150.0634 LP  0  0  0  0  0  0  0  0  0  0  0  0  # atno 17371 bound_to 10713
  140.0066  135.0006  157.0306 LP  0  0  0  0  0  0  0  0  0  0  0  0  # atno 17394 bound_to 11000
  140.4671  134.1424  155.7198 LP  0  0  0  0  0  0  0  0  0  0  0  0  # atno 17395 bound_to 11000

$$$$
