AV-unprocessed.smi:1817|AV-procd|sdf|7375|dock6
  -GOLD-   22720 9 43D 1   1.00000     0.00000
 Structure written by MMmdl.
 42 43  0  0  0  0  0  0  0  0  3 V2000
  151.1272  144.7516  158.6393 C   0  0  0  0  0  0  0  0  0  0  0  0
  151.6089  143.7074  157.6216 C   0  0  0  0  0  0  0  0  0  0  0  0
  150.5052  142.8650  157.0980 N   0  3  0  0  0  0  0  0  0  0  0  0
  149.8802  142.0354  158.1583 C   0  0  0  0  0  0  0  0  0  0  0  0
  148.7306  141.1768  157.5831 C   0  0  0  0  0  0  0  0  0  0  0  0
  149.1857  140.2984  156.4947 N   0  0  0  0  0  0  0  0  0  0  0  0
  150.1074  139.2215  156.9214 C   0  0  1  0  0  0  0  0  0  0  0  0
  149.4182  138.3088  157.9629 C   0  0  0  0  0  0  0  0  0  0  0  0
  150.6207  138.3735  155.7251 C   0  0  0  0  0  0  0  0  0  0  0  0
  151.8278  138.9368  155.1275 N   0  0  0  0  0  0  0  0  0  0  0  0
  153.0536  138.3966  155.1962 C   0  0  0  0  0  0  0  0  0  0  0  0
  153.2295  137.3486  155.8233 O   0  0  0  0  0  0  0  0  0  0  0  0
  153.9980  139.0986  154.5310 N   0  5  0  0  0  0  0  0  0  0  0  0
  155.1398  138.4981  154.1565 C   0  0  0  0  0  0  0  0  0  0  0  0
  155.4226  137.2261  154.4798 N   0  0  0  0  0  0  0  0  0  0  0  0
  156.6497  136.7984  153.9913 N   0  0  0  0  0  0  0  0  0  0  0  0
  157.2604  137.7616  153.3019 C   0  0  0  0  0  0  0  0  0  0  0  0
  156.3926  139.2783  153.1875 S   0  0  0  0  0  0  0  0  0  0  0  0
  149.6940  141.1945  155.4467 C   0  0  0  0  0  0  0  0  0  0  0  0
  150.8978  142.0242  155.9390 C   0  0  0  0  0  0  0  0  0  0  0  0
  151.9756  145.2812  159.0730 H   0  0  0  0  0  0  0  0  0  0  0  0
  150.5780  144.2835  159.4566 H   0  0  0  0  0  0  0  0  0  0  0  0
  150.4814  145.5010  158.1824 H   0  0  0  0  0  0  0  0  0  0  0  0
  152.1347  144.1900  156.7962 H   0  0  0  0  0  0  0  0  0  0  0  0
  152.3370  143.0657  158.1195 H   0  0  0  0  0  0  0  0  0  0  0  0
  150.6333  141.4165  158.6473 H   0  0  0  0  0  0  0  0  0  0  0  0
  149.4781  142.6918  158.9307 H   0  0  0  0  0  0  0  0  0  0  0  0
  148.2462  140.6088  158.3751 H   0  0  0  0  0  0  0  0  0  0  0  0
  147.9517  141.8351  157.1955 H   0  0  0  0  0  0  0  0  0  0  0  0
  150.9782  139.6666  157.3990 H   0  0  0  0  0  0  0  0  0  0  0  0
  150.0413  137.4539  158.2249 H   0  0  0  0  0  0  0  0  0  0  0  0
  148.4730  137.9181  157.5847 H   0  0  0  0  0  0  0  0  0  0  0  0
  149.2215  138.8234  158.9021 H   0  0  0  0  0  0  0  0  0  0  0  0
  150.8365  137.3548  156.0485 H   0  0  0  0  0  0  0  0  0  0  0  0
  149.8884  138.2964  154.9229 H   0  0  0  0  0  0  0  0  0  0  0  0
  151.7250  139.7957  154.6071 H   0  0  0  0  0  0  0  0  0  0  0  0
  158.2265  137.5776  152.8562 H   0  0  0  0  0  0  0  0  0  0  0  0
  149.9414  140.6477  154.5393 H   0  0  0  0  0  0  0  0  0  0  0  0
  148.8919  141.8704  155.1464 H   0  0  0  0  0  0  0  0  0  0  0  0
  151.2353  142.6599  155.1213 H   0  0  0  0  0  0  0  0  0  0  0  0
  151.7407  141.3832  156.2006 H   0  0  0  0  0  0  0  0  0  0  0  0
  149.7846  143.4927  156.7718 H   0  0  0  0  0  0  0  0  0  0  0  0
  1  2  1  0  0  0  0
  1 21  1  0  0  0  0
  1 22  1  0  0  0  0
  1 23  1  0  0  0  0
  2  3  1  0  0  0  0
  2 24  1  0  0  0  0
  2 25  1  0  0  0  0
  3 20  1  0  0  0  0
  3  4  1  0  0  0  0
  3 42  1  0  0  0  0
  4  5  1  0  0  0  0
  4 26  1  0  0  0  0
  4 27  1  0  0  0  0
  5  6  1  0  0  0  0
  5 28  1  0  0  0  0
  5 29  1  0  0  0  0
  6  7  1  0  0  0  0
  6 19  1  0  0  0  0
  7  8  1  0  0  0  0
  7  9  1  0  0  0  0
  7 30  1  0  0  0  0
  8 31  1  0  0  0  0
  8 32  1  0  0  0  0
  8 33  1  0  0  0  0
  9 10  1  0  0  0  0
  9 34  1  0  0  0  0
  9 35  1  0  0  0  0
 10 11  1  0  0  0  0
 10 36  1  0  0  0  0
 11 12  2  0  0  0  0
 11 13  1  0  0  0  0
 13 14  1  0  0  0  0
 14 18  1  0  0  0  0
 14 15  2  0  0  0  0
 15 16  1  0  0  0  0
 16 17  2  0  0  0  0
 17 18  1  0  0  0  0
 17 37  1  0  0  0  0
 19 20  1  0  0  0  0
 19 38  1  0  0  0  0
 19 39  1  0  0  0  0
 20 40  1  0  0  0  0
 20 41  1  0  0  0  0
M  CHG  1   3   1
M  CHG  1  13  -1
M  END
> <s_m_source_file>
AV-unprocessed.smi

> <i_m_source_file_index>
1817

> <i_lp_mmshare_version>
43012

> <i_f3d_flags>
0

> <s_epik_input>
W0NIM11bQ0gyXU4xW0NIMl1bQ0gyXU4oW0NIMl1bQ0gyXTEpW0NASF0oW0NIM10pW0NIMl1bTkhdQyg9TylbTkhdYzJubltjSF1zMg==

> <s_epik_cmdline>
J2VwaWtfcHl0aG9uJywgJy1waCcsICc3LjAnLCAnLXRuJywgJzgnLCAnLW1hJywgJzIwMCcsICctbWV0YWxfYmluZGluZycsICctaW1hZScsICc8aW5maWxlLm1hZT4nLCAnLW9tYWUnLCAnPG91dGZpbGUubWFlPic=

> <r_lp_tautomer_probability>
1

> <r_epik_Ionization_Penalty>
3.58527

> <r_epik_Ionization_Penalty_Charging>
3.54445

> <r_epik_Ionization_Penalty_Neutral>
0.0408199

> <r_epik_State_Penalty>
3.6633

> <r_epik_Charging_Adjusted_Penalty>
7.20774

> <i_epik_Tot_Q>
0

> <i_epik_Tot_abs_Q>
2

> <r_epik_Metal_State_Penalty>
0.683711

> <b_epik_Metal_Only>
1

> <s_lp_Force_Field>
OPLS_2005

> <r_lp_Energy>
13.2913

> <b_lp_Chiralities_Consistent>
1

> <s_lp_Variant>
AV-unprocessed.smi:1817-8

> <Gold.Version>
5.8.1

> <Gold.Id.Protein>
6NUR|6NUR_protein|mol2

> <Gold.PLP.Fitness>
44.8155

> <Gold.PLP.PLP>
-32.0906

> <Gold.PLP.part.hbond>
-4.4907

> <Gold.PLP.part.metal>
0.0000

> <Gold.PLP.part.buried>
-5.3308

> <Gold.PLP.part.nonpolar>
-22.1875

> <Gold.PLP.part.repulsive>
0.2205

> <Gold.PLP.ligand.clash>
0.0000

> <Gold.PLP.ligand.torsion>
0.5608

> <Gold.PLP.Chemscore.Hbond>
4.5680

> <Gold.PLP.Chemscore.CHOScore>
0.0000

> <Gold.PLP.Chemscore.Metal>
0.0000

> <Gold.Chemscore.Hbonds>
donor molecule, donor type, donor heavy atom, donor atom, acceptor molecule, acceptor atom, score
      L1  H     3    42       P1  8028  2.00
      P1  H  7997  8010       L1    13  2.00
      P1  H 10752 10763       L1    12  0.42
      P1  H 10752 10764       L1    15  0.15

> <Gold.PLP.Chemscore.Internal.Correction>
0.1424

> <Gold.Rescore>
     Score         DG    S(hbond)    S(metal)    S(lipo)     H(rot)  DE(clash)    DE(int)     intcor
     14.55     -17.12       2.18        0.00      78.43       1.88       0.16       2.40       ----

> <Gold.Chemscore.Fitness>
14.5545

> <Gold.Chemscore.DG>
-17.1154

> <Gold.Chemscore.ZeroCoef>
-5.4800

> <Gold.Chemscore.Hbond>
2.1790

> <Gold.Chemscore.Metal>
0.0000

> <Gold.Chemscore.Lipo>
78.4326

> <Gold.Chemscore.Internal_Hbond>
0.0000

> <Gold.Chemscore.DEClash>
0.1647

> <Gold.Chemscore.DEInternal>
2.3962

> <Gold.Chemscore.Rot>
1.8825

> <Gold.Chemscore.Internal.Correction>
   9.000000E+99

> <Gold.Chemscore.Hbonds>
donor molecule, donor type, donor heavy atom, donor atom, acceptor molecule, acceptor atom, score
      L1  H     3    42       P1  8028  0.99
      P1  H  7997  8010       L1    13  0.12
      P1  H 10752 10763       L1    12  0.41
      P1  H 10752 10764       L1    15  0.01

> <Gold.Chemscore.Hbond.Weighted>
-7.2779

> <Gold.Chemscore.Metal.Weighted>
-0.0000

> <Gold.Chemscore.Lipo.Weighted>
-9.1766

> <Gold.Chemscore.Internal_Hbond.Weighted>
0.0000

> <Gold.Chemscore.DEClash.Weighted>
0.1647

> <Gold.Chemscore.DEInternal.Weighted>
2.3962

> <Gold.Chemscore.Rot.Weighted>
4.8191

> <Gold.Chemscore.Internal.Correction.Weighted>
   9.000000E+99

> <Gold.Protein.RotatedTorsions>
[ 6907 6896 6895 6894 ] final  157.34 input  -60.11 | X-H torsion
[ 7974 7965 7964 7962 ] final -144.00 input  175.53 | X-H torsion
[ 8008 7997 7996 7995 ] final  118.26 input   59.86 | X-H torsion
[ 10167 10162 10161 10158 ] final  -26.77 input  -65.29 | X-H torsion
[ 10718 10713 10712 10709 ] final  -11.04 input   66.30 | X-H torsion
[ 10763 10752 10751 10750 ] final   96.22 input  -60.55 | X-H torsion
[ 11005 11000 10999 10996 ] final -132.81 input  -57.11 | X-H torsion

> <Gold.Protein.ActiveResidues>
 VAL166  LYS551  ARG553  GLY616  TRP617  ASP618  TYR619  PRO620  LYS621  CYS622 
 ASP623  PHE694  ASN695  SER759  ASP760  ASP761  ALA762  ILE779  LEU786  VAL792 
 PHE793  MET794  SER795  GLU796  ALA797  LYS798  CYS799  TRP800  GLU811  SER814 

> <Gold.Protein.RotatedAtoms>
  152.0165  133.3881  159.4240 H   0  0  0  0  0  0  0  0  0  0  0  0  # atno 6907 bound_to 6896
  150.6894  134.3673  159.4986 H   0  0  0  0  0  0  0  0  0  0  0  0  # atno 6908 bound_to 6896
  152.1441  134.9039  160.0602 H   0  0  0  0  0  0  0  0  0  0  0  0  # atno 6909 bound_to 6896
  144.8329  140.5765  143.5503 H   0  0  0  0  0  0  0  0  0  0  0  0  # atno 7974 bound_to 7965
  156.2537  140.2878  156.0807 H   0  0  0  0  0  0  0  0  0  0  0  0  # atno 8008 bound_to 7997
  155.1570  140.0398  157.2851 H   0  0  0  0  0  0  0  0  0  0  0  0  # atno 8009 bound_to 7997
  154.6420  140.2524  155.7318 H   0  0  0  0  0  0  0  0  0  0  0  0  # atno 8010 bound_to 7997
  140.7281  143.4149  151.1044 H   0  0  0  0  0  0  0  0  0  0  0  0  # atno 10167 bound_to 10162
  156.6648  130.4992  149.6019 H   0  0  0  0  0  0  0  0  0  0  0  0  # atno 10718 bound_to 10713
  153.2623  135.4226  155.0907 H   0  0  0  0  0  0  0  0  0  0  0  0  # atno 10763 bound_to 10752
  154.8425  135.3452  154.6360 H   0  0  0  0  0  0  0  0  0  0  0  0  # atno 10764 bound_to 10752
  153.6780  135.7040  153.5184 H   0  0  0  0  0  0  0  0  0  0  0  0  # atno 10765 bound_to 10752
  140.9137  134.1535  157.4369 H   0  0  0  0  0  0  0  0  0  0  0  0  # atno 11005 bound_to 11000
  145.4857  139.1492  143.3737 LP  0  0  0  0  0  0  0  0  0  0  0  0  # atno 17320 bound_to 7965
  146.2630  140.4994  142.8845 LP  0  0  0  0  0  0  0  0  0  0  0  0  # atno 17321 bound_to 7965
  139.7788  143.8386  152.3134 LP  0  0  0  0  0  0  0  0  0  0  0  0  # atno 17342 bound_to 10162
  139.8330  144.7245  150.9426 LP  0  0  0  0  0  0  0  0  0  0  0  0  # atno 17343 bound_to 10162
  156.1983  130.6604  151.1139 LP  0  0  0  0  0  0  0  0  0  0  0  0  # atno 17370 bound_to 10713
  157.7097  131.0740  150.6543 LP  0  0  0  0  0  0  0  0  0  0  0  0  # atno 17371 bound_to 10713
  139.8762  134.9945  156.5698 LP  0  0  0  0  0  0  0  0  0  0  0  0  # atno 17394 bound_to 11000
  140.8077  133.8454  155.8782 LP  0  0  0  0  0  0  0  0  0  0  0  0  # atno 17395 bound_to 11000

$$$$
