AV-unprocessed.smi:2044|AV-procd|sdf|8304|dock5
  -GOLD-   2272010573D 1   1.00000     0.00000
 Structure written by MMmdl.
 39 40  0  0  0  0  0  0  0  0  3 V2000
  149.8108  141.1513  155.0846 C   0  0  0  0  0  0  0  0  0  0  0  0
  150.4636  139.8220  154.9145 C   0  0  0  0  0  0  0  0  0  0  0  0
  149.9909  138.5416  154.9732 C   0  0  0  0  0  0  0  0  0  0  0  0
  151.1462  137.7564  154.7072 C   0  0  0  0  0  0  0  0  0  0  0  0
  151.1999  136.4161  154.6646 N   0  5  0  0  0  0  0  0  0  0  0  0
  150.2376  135.6774  155.2623 C   0  0  0  0  0  0  0  0  0  0  0  0
  150.1713  135.3889  156.4593 O   0  0  0  0  0  0  0  0  0  0  0  0
  149.2894  135.2464  154.4201 N   0  0  0  0  0  0  0  0  0  0  0  0
  148.1272  134.4507  154.7989 C   0  0  0  0  0  0  0  0  0  0  0  0
  147.3524  133.9098  153.5681 C   0  0  2  0  0  0  0  0  0  0  0  0
  148.2659  132.9872  152.7233 C   0  0  0  0  0  0  0  0  0  0  0  0
  146.7677  135.0113  152.7316 N   0  3  0  0  0  0  0  0  0  0  0  0
  145.9479  134.5159  151.5902 C   0  0  0  0  0  0  0  0  0  0  0  0
  145.3945  135.6765  150.7473 C   0  0  0  0  0  0  0  0  0  0  0  0
  144.6264  136.5401  151.5692 O   0  0  0  0  0  0  0  0  0  0  0  0
  145.4245  137.1205  152.5881 C   0  0  0  0  0  0  0  0  0  0  0  0
  145.9880  136.0203  153.5031 C   0  0  0  0  0  0  0  0  0  0  0  0
  152.2275  138.4947  154.5228 N   0  0  0  0  0  0  0  0  0  0  0  0
  151.7973  139.8210  154.6471 O   0  0  0  0  0  0  0  0  0  0  0  0
  149.3230  141.2197  156.0568 H   0  0  0  0  0  0  0  0  0  0  0  0
  149.0558  141.3107  154.3147 H   0  0  0  0  0  0  0  0  0  0  0  0
  150.5394  141.9594  155.0154 H   0  0  0  0  0  0  0  0  0  0  0  0
  148.9800  138.2171  155.1692 H   0  0  0  0  0  0  0  0  0  0  0  0
  149.3790  135.5025  153.4477 H   0  0  0  0  0  0  0  0  0  0  0  0
  148.5166  133.6392  155.4125 H   0  0  0  0  0  0  0  0  0  0  0  0
  147.4594  135.0452  155.4250 H   0  0  0  0  0  0  0  0  0  0  0  0
  146.5233  133.3073  153.9433 H   0  0  0  0  0  0  0  0  0  0  0  0
  148.7613  132.2286  153.3285 H   0  0  0  0  0  0  0  0  0  0  0  0
  149.0451  133.5586  152.2181 H   0  0  0  0  0  0  0  0  0  0  0  0
  147.7114  132.4297  151.9704 H   0  0  0  0  0  0  0  0  0  0  0  0
  146.5366  133.8872  150.9252 H   0  0  0  0  0  0  0  0  0  0  0  0
  145.1262  133.9059  151.9687 H   0  0  0  0  0  0  0  0  0  0  0  0
  146.2025  136.2301  150.2659 H   0  0  0  0  0  0  0  0  0  0  0  0
  144.7574  135.2905  149.9513 H   0  0  0  0  0  0  0  0  0  0  0  0
  146.2296  137.7109  152.1474 H   0  0  0  0  0  0  0  0  0  0  0  0
  144.8088  137.8092  153.1672 H   0  0  0  0  0  0  0  0  0  0  0  0
  145.1767  135.5245  154.0386 H   0  0  0  0  0  0  0  0  0  0  0  0
  146.6127  136.5173  154.2430 H   0  0  0  0  0  0  0  0  0  0  0  0
  147.5505  135.5078  152.3303 H   0  0  0  0  0  0  0  0  0  0  0  0
  1  2  1  0  0  0  0
  1 20  1  0  0  0  0
  1 21  1  0  0  0  0
  1 22  1  0  0  0  0
  2 19  1  0  0  0  0
  2  3  2  0  0  0  0
  3  4  1  0  0  0  0
  3 23  1  0  0  0  0
  4  5  1  0  0  0  0
  4 18  2  0  0  0  0
  5  6  1  0  0  0  0
  6  7  2  0  0  0  0
  6  8  1  0  0  0  0
  8  9  1  0  0  0  0
  8 24  1  0  0  0  0
  9 10  1  0  0  0  0
  9 25  1  0  0  0  0
  9 26  1  0  0  0  0
 10 11  1  0  0  0  0
 10 12  1  0  0  0  0
 10 27  1  0  0  0  0
 11 28  1  0  0  0  0
 11 29  1  0  0  0  0
 11 30  1  0  0  0  0
 12 17  1  0  0  0  0
 12 13  1  0  0  0  0
 12 39  1  0  0  0  0
 13 14  1  0  0  0  0
 13 31  1  0  0  0  0
 13 32  1  0  0  0  0
 14 15  1  0  0  0  0
 14 33  1  0  0  0  0
 14 34  1  0  0  0  0
 15 16  1  0  0  0  0
 16 17  1  0  0  0  0
 16 35  1  0  0  0  0
 16 36  1  0  0  0  0
 17 37  1  0  0  0  0
 17 38  1  0  0  0  0
 18 19  1  0  0  0  0
M  CHG  1   5  -1
M  CHG  1  12   1
M  END
> <s_m_source_file>
AV-unprocessed.smi

> <i_m_source_file_index>
2044

> <i_lp_mmshare_version>
43012

> <i_f3d_flags>
0

> <s_epik_input>
W0NIM11jMVtjSF1jKG5vMSlbTkhdQyg9TylbTkhdW0NIMl1bQ0BIXShbQ0gzXSlOMltDSDJdW0NIMl1PW0NIMl1bQ0gyXTI=

> <s_epik_cmdline>
J2VwaWtfcHl0aG9uJywgJy1waCcsICc3LjAnLCAnLXRuJywgJzgnLCAnLW1hJywgJzIwMCcsICctbWV0YWxfYmluZGluZycsICctaW1hZScsICc8aW5maWxlLm1hZT4nLCAnLW9tYWUnLCAnPG91dGZpbGUubWFlPic=

> <r_epik_Ionization_Penalty>
6.73014

> <r_epik_Ionization_Penalty_Charging>
6.73004

> <r_epik_Ionization_Penalty_Neutral>
9.51297e-05

> <r_epik_State_Penalty>
6.93052

> <r_epik_Charging_Adjusted_Penalty>
13.6606

> <i_epik_Tot_Q>
0

> <i_epik_Tot_abs_Q>
2

> <r_epik_Metal_State_Penalty>
2.86736

> <b_epik_Metal_Only>
1

> <s_lp_Force_Field>
OPLS_2005

> <r_lp_Energy>
9.04271

> <b_lp_Chiralities_Consistent>
1

> <s_lp_Variant>
AV-unprocessed.smi:2044-7

> <Gold.Version>
5.8.1

> <Gold.Id.Protein>
6NUR|6NUR_protein|mol2

> <Gold.PLP.Fitness>
44.9214

> <Gold.PLP.PLP>
-28.8218

> <Gold.PLP.part.hbond>
-3.9626

> <Gold.PLP.part.metal>
0.0000

> <Gold.PLP.part.buried>
-4.7912

> <Gold.PLP.part.nonpolar>
-21.9823

> <Gold.PLP.part.repulsive>
2.1791

> <Gold.PLP.ligand.clash>
0.0000

> <Gold.PLP.ligand.torsion>
0.9153

> <Gold.PLP.Chemscore.Hbond>
5.9500

> <Gold.PLP.Chemscore.CHOScore>
0.0000

> <Gold.PLP.Chemscore.Metal>
0.0000

> <Gold.Chemscore.Hbonds>
donor molecule, donor type, donor heavy atom, donor atom, acceptor molecule, acceptor atom, score
      L1  H     8    24       P1  7948  0.95
      L1  H    12    39       P1  7948  2.00
      P1  H  7989  7998       L1    19  0.70
      P1  H 10752 10765       L1     5  2.00

> <Gold.PLP.Chemscore.Internal.Correction>
0.0803

> <Gold.Rescore>
     Score         DG    S(hbond)    S(metal)    S(lipo)     H(rot)  DE(clash)    DE(int)     intcor
     15.90     -17.45       3.03        0.00      50.68       1.59       0.55       1.01       ----

> <Gold.Chemscore.Fitness>
15.8989

> <Gold.Chemscore.DG>
-17.4536

> <Gold.Chemscore.ZeroCoef>
-5.4800

> <Gold.Chemscore.Hbond>
3.0305

> <Gold.Chemscore.Metal>
0.0000

> <Gold.Chemscore.Lipo>
50.6816

> <Gold.Chemscore.Internal_Hbond>
0.0000

> <Gold.Chemscore.DEClash>
0.5486

> <Gold.Chemscore.DEInternal>
1.0061

> <Gold.Chemscore.Rot>
1.5930

> <Gold.Chemscore.Internal.Correction>
   9.000000E+99

> <Gold.Chemscore.Hbonds>
donor molecule, donor type, donor heavy atom, donor atom, acceptor molecule, acceptor atom, score
      L1  H     8    24       P1  7948  0.21
      L1  H    12    39       P1  7948  0.99
      P1  H  7989  7998       L1    19  0.07
      P1  H 10752 10765       L1     5  0.90

> <Gold.Chemscore.Hbond.Weighted>
-10.1219

> <Gold.Chemscore.Metal.Weighted>
-0.0000

> <Gold.Chemscore.Lipo.Weighted>
-5.9297

> <Gold.Chemscore.Internal_Hbond.Weighted>
0.0000

> <Gold.Chemscore.DEClash.Weighted>
0.5486

> <Gold.Chemscore.DEInternal.Weighted>
1.0061

> <Gold.Chemscore.Rot.Weighted>
4.0781

> <Gold.Chemscore.Internal.Correction.Weighted>
   9.000000E+99

> <Gold.Protein.RotatedTorsions>
[ 6907 6896 6895 6894 ] final  -20.84 input  -60.11 | X-H torsion
[ 7974 7965 7964 7962 ] final   88.42 input  175.53 | X-H torsion
[ 8008 7997 7996 7995 ] final   43.30 input   59.86 | X-H torsion
[ 10167 10162 10161 10158 ] final   43.85 input  -65.29 | X-H torsion
[ 10718 10713 10712 10709 ] final   36.27 input   66.30 | X-H torsion
[ 10763 10752 10751 10750 ] final  169.22 input  -60.55 | X-H torsion
[ 11005 11000 10999 10996 ] final  -93.28 input  -57.11 | X-H torsion

> <Gold.Protein.ActiveResidues>
 VAL166  LYS551  ARG553  GLY616  TRP617  ASP618  TYR619  PRO620  LYS621  CYS622 
 ASP623  PHE694  ASN695  SER759  ASP760  ASP761  ALA762  ILE779  LEU786  VAL792 
 PHE793  MET794  SER795  GLU796  ALA797  LYS798  CYS799  TRP800  GLU811  SER814 

> <Gold.Protein.RotatedAtoms>
  151.2421  135.0592  159.9028 H   0  0  0  0  0  0  0  0  0  0  0  0  # atno 6907 bound_to 6896
  152.5391  134.0423  159.8083 H   0  0  0  0  0  0  0  0  0  0  0  0  # atno 6908 bound_to 6896
  151.0618  133.5489  159.2665 H   0  0  0  0  0  0  0  0  0  0  0  0  # atno 6909 bound_to 6896
  145.5459  139.2292  143.2540 H   0  0  0  0  0  0  0  0  0  0  0  0  # atno 7974 bound_to 7965
  155.3004  140.3384  155.4248 H   0  0  0  0  0  0  0  0  0  0  0  0  # atno 8008 bound_to 7997
  156.2004  140.1730  156.7950 H   0  0  0  0  0  0  0  0  0  0  0  0  # atno 8009 bound_to 7997
  154.5552  140.0698  156.8715 H   0  0  0  0  0  0  0  0  0  0  0  0  # atno 8010 bound_to 7997
  140.3402  144.2480  150.6156 H   0  0  0  0  0  0  0  0  0  0  0  0  # atno 10167 bound_to 10162
  157.3329  130.7507  149.6859 H   0  0  0  0  0  0  0  0  0  0  0  0  # atno 10718 bound_to 10713
  154.3800  135.2753  155.2217 H   0  0  0  0  0  0  0  0  0  0  0  0  # atno 10763 bound_to 10752
  154.4328  135.5973  153.6083 H   0  0  0  0  0  0  0  0  0  0  0  0  # atno 10764 bound_to 10752
  152.9835  135.6000  154.4041 H   0  0  0  0  0  0  0  0  0  0  0  0  # atno 10765 bound_to 10752
  141.1501  133.7877  157.0137 H   0  0  0  0  0  0  0  0  0  0  0  0  # atno 11005 bound_to 11000
  146.1950  140.6280  142.9128 LP  0  0  0  0  0  0  0  0  0  0  0  0  # atno 17320 bound_to 7965
  144.7553  140.5293  143.6773 LP  0  0  0  0  0  0  0  0  0  0  0  0  # atno 17321 bound_to 7965
  140.5316  143.2242  151.8229 LP  0  0  0  0  0  0  0  0  0  0  0  0  # atno 17342 bound_to 10162
  139.4842  144.4713  151.9422 LP  0  0  0  0  0  0  0  0  0  0  0  0  # atno 17343 bound_to 10162
  155.9698  130.4190  150.4354 LP  0  0  0  0  0  0  0  0  0  0  0  0  # atno 17370 bound_to 10713
  157.2389  131.0521  151.2448 LP  0  0  0  0  0  0  0  0  0  0  0  0  # atno 17371 bound_to 10713
  140.0861  134.9620  157.1701 LP  0  0  0  0  0  0  0  0  0  0  0  0  # atno 17394 bound_to 11000
  140.3510  134.2598  155.7198 LP  0  0  0  0  0  0  0  0  0  0  0  0  # atno 17395 bound_to 11000

$$$$
