AV-unprocessed.smi:959|AV-procd|sdf|4269|dock9
  -GOLD-   22720 2173D 1   1.00000     0.00000
 Structure written by MMmdl.
 33 34  0  0  0  0  0  0  0  0  2 V2000
  150.9247  144.7225  159.8838 C   0  0  0  0  0  0  0  0  0  0  0  0
  152.3225  144.2191  159.4945 C   0  0  0  0  0  0  0  0  0  0  0  0
  152.7378  144.7288  158.1034 C   0  0  0  0  0  0  0  0  0  0  0  0
  152.3887  142.7634  159.5945 N   0  0  0  0  0  0  0  0  0  0  0  0
  153.2102  142.0076  160.3449 C   0  0  0  0  0  0  0  0  0  0  0  0
  153.0518  140.6925  160.2147 N   0  0  0  0  0  0  0  0  0  0  0  0
  152.0484  140.5571  159.2810 N   0  0  0  0  0  0  0  0  0  0  0  0
  151.7089  141.8031  158.9245 C   0  0  0  0  0  0  0  0  0  0  0  0
  150.6436  142.0928  157.9021 C   0  0  2  0  0  0  0  0  0  0  0  0
  149.3298  141.3545  158.2199 C   0  0  0  0  0  0  0  0  0  0  0  0
  148.2685  141.6574  157.1512 C   0  0  0  0  0  0  0  0  0  0  0  0
  148.7990  141.3394  155.7433 C   0  0  0  0  0  0  0  0  0  0  0  0
  150.0552  142.0745  155.4800 N   0  3  0  0  0  0  0  0  0  0  0  0
  151.1167  141.7766  156.4671 C   0  0  0  0  0  0  0  0  0  0  0  0
  150.8775  145.8115  159.8521 H   0  0  0  0  0  0  0  0  0  0  0  0
  150.6574  144.4112  160.8938 H   0  0  0  0  0  0  0  0  0  0  0  0
  150.1629  144.3372  159.2052 H   0  0  0  0  0  0  0  0  0  0  0  0
  153.0474  144.6304  160.1967 H   0  0  0  0  0  0  0  0  0  0  0  0
  152.7835  145.8182  158.0877 H   0  0  0  0  0  0  0  0  0  0  0  0
  152.0306  144.4234  157.3316 H   0  0  0  0  0  0  0  0  0  0  0  0
  153.7243  144.3570  157.8240 H   0  0  0  0  0  0  0  0  0  0  0  0
  153.9480  142.4259  161.0133 H   0  0  0  0  0  0  0  0  0  0  0  0
  150.4270  143.1597  157.9203 H   0  0  0  0  0  0  0  0  0  0  0  0
  149.5066  140.2786  158.2615 H   0  0  0  0  0  0  0  0  0  0  0  0
  148.9613  141.6476  159.2038 H   0  0  0  0  0  0  0  0  0  0  0  0
  147.3653  141.0796  157.3492 H   0  0  0  0  0  0  0  0  0  0  0  0
  147.9820  142.7085  157.2067 H   0  0  0  0  0  0  0  0  0  0  0  0
  148.9799  140.2688  155.6379 H   0  0  0  0  0  0  0  0  0  0  0  0
  148.0612  141.6141  154.9892 H   0  0  0  0  0  0  0  0  0  0  0  0
  150.3886  141.8336  154.5573 H   0  0  0  0  0  0  0  0  0  0  0  0
  152.0010  142.3654  156.2203 H   0  0  0  0  0  0  0  0  0  0  0  0
  151.3968  140.7261  156.3740 H   0  0  0  0  0  0  0  0  0  0  0  0
  149.8591  143.0650  155.5072 H   0  0  0  0  0  0  0  0  0  0  0  0
  1  2  1  0  0  0  0
  1 15  1  0  0  0  0
  1 16  1  0  0  0  0
  1 17  1  0  0  0  0
  2  3  1  0  0  0  0
  2  4  1  0  0  0  0
  2 18  1  0  0  0  0
  3 19  1  0  0  0  0
  3 20  1  0  0  0  0
  3 21  1  0  0  0  0
  4  8  1  0  0  0  0
  4  5  1  0  0  0  0
  5  6  2  0  0  0  0
  5 22  1  0  0  0  0
  6  7  1  0  0  0  0
  7  8  2  0  0  0  0
  8  9  1  0  0  0  0
  9 14  1  0  0  0  0
  9 10  1  0  0  0  0
  9 23  1  0  0  0  0
 10 11  1  0  0  0  0
 10 24  1  0  0  0  0
 10 25  1  0  0  0  0
 11 12  1  0  0  0  0
 11 26  1  0  0  0  0
 11 27  1  0  0  0  0
 12 13  1  0  0  0  0
 12 28  1  0  0  0  0
 12 29  1  0  0  0  0
 13 14  1  0  0  0  0
 13 30  1  0  0  0  0
 13 33  1  0  0  0  0
 14 31  1  0  0  0  0
 14 32  1  0  0  0  0
M  CHG  1  13   1
M  END
> <s_m_source_file>
AV-unprocessed.smi

> <i_m_source_file_index>
959

> <i_lp_mmshare_version>
43012

> <i_f3d_flags>
0

> <s_epik_input>
W0NIM11bQ0hdKFtDSDNdKW4xW2NIXW5uYzFbQ0BASF0yW0NIMl1bQ0gyXVtDSDJdW05IXVtDSDJdMg==

> <s_epik_cmdline>
J2VwaWtfcHl0aG9uJywgJy1waCcsICc3LjAnLCAnLXRuJywgJzgnLCAnLW1hJywgJzIwMCcsICctbWV0YWxfYmluZGluZycsICctaW1hZScsICc8aW5maWxlLm1hZT4nLCAnLW9tYWUnLCAnPG91dGZpbGUubWFlPic=

> <r_lp_tautomer_probability>
1

> <r_epik_Ionization_Penalty>
0.000442722

> <r_epik_Ionization_Penalty_Charging>
0.000426856

> <r_epik_Ionization_Penalty_Neutral>
1.58656e-05

> <r_epik_State_Penalty>
-0

> <r_epik_Charging_Adjusted_Penalty>
0.000426856

> <i_epik_Tot_Q>
1

> <i_epik_Tot_abs_Q>
1

> <r_epik_Metal_State_Penalty>
-0

> <b_epik_Metal_Only>
0

> <s_lp_Force_Field>
OPLS_2005

> <r_lp_Energy>
20.311

> <b_lp_Chiralities_Consistent>
1

> <s_lp_Variant>
AV-unprocessed.smi:959-1

> <Gold.Version>
5.8.1

> <Gold.Id.Protein>
6NUR|6NUR_protein|mol2

> <Gold.PLP.Fitness>
38.4837

> <Gold.PLP.PLP>
-32.8589

> <Gold.PLP.part.hbond>
-1.0000

> <Gold.PLP.part.metal>
0.0000

> <Gold.PLP.part.buried>
-5.3207

> <Gold.PLP.part.nonpolar>
-26.8007

> <Gold.PLP.part.repulsive>
0.1777

> <Gold.PLP.ligand.clash>
0.0000

> <Gold.PLP.ligand.torsion>
0.2237

> <Gold.PLP.Chemscore.Hbond>
2.0000

> <Gold.PLP.Chemscore.CHOScore>
0.0000

> <Gold.PLP.Chemscore.Metal>
0.0000

> <Gold.Chemscore.Hbonds>
donor molecule, donor type, donor heavy atom, donor atom, acceptor molecule, acceptor atom, score
      L1  H    13    33       P1  8028  2.00

> <Gold.PLP.Chemscore.Internal.Correction>
0.0722

> <Gold.Rescore>
     Score         DG    S(hbond)    S(metal)    S(lipo)     H(rot)  DE(clash)    DE(int)     intcor
     13.06     -13.20       0.99        0.00      64.74       1.24       0.05       0.09       ----

> <Gold.Chemscore.Fitness>
13.0600

> <Gold.Chemscore.DG>
-13.1999

> <Gold.Chemscore.ZeroCoef>
-5.4800

> <Gold.Chemscore.Hbond>
0.9907

> <Gold.Chemscore.Metal>
0.0000

> <Gold.Chemscore.Lipo>
64.7375

> <Gold.Chemscore.Internal_Hbond>
0.0000

> <Gold.Chemscore.DEClash>
0.0544

> <Gold.Chemscore.DEInternal>
0.0854

> <Gold.Chemscore.Rot>
1.2357

> <Gold.Chemscore.Internal.Correction>
   9.000000E+99

> <Gold.Chemscore.Hbonds>
donor molecule, donor type, donor heavy atom, donor atom, acceptor molecule, acceptor atom, score
      L1  H    13    33       P1  8028  0.99

> <Gold.Chemscore.Hbond.Weighted>
-3.3090

> <Gold.Chemscore.Metal.Weighted>
-0.0000

> <Gold.Chemscore.Lipo.Weighted>
-7.5743

> <Gold.Chemscore.Internal_Hbond.Weighted>
0.0000

> <Gold.Chemscore.DEClash.Weighted>
0.0544

> <Gold.Chemscore.DEInternal.Weighted>
0.0854

> <Gold.Chemscore.Rot.Weighted>
3.1634

> <Gold.Chemscore.Internal.Correction.Weighted>
   9.000000E+99

> <Gold.Protein.RotatedTorsions>
[ 6907 6896 6895 6894 ] final  132.27 input  -60.11 | X-H torsion
[ 7974 7965 7964 7962 ] final  139.38 input  175.53 | X-H torsion
[ 8008 7997 7996 7995 ] final  150.40 input   59.86 | X-H torsion
[ 10167 10162 10161 10158 ] final   38.47 input  -65.29 | X-H torsion
[ 10718 10713 10712 10709 ] final -179.96 input   66.30 | X-H torsion
[ 10763 10752 10751 10750 ] final -105.05 input  -60.55 | X-H torsion
[ 11005 11000 10999 10996 ] final  -55.10 input  -57.11 | X-H torsion

> <Gold.Protein.ActiveResidues>
 VAL166  LYS551  ARG553  GLY616  TRP617  ASP618  TYR619  PRO620  LYS621  CYS622 
 ASP623  PHE694  ASN695  SER759  ASP760  ASP761  ALA762  ILE779  LEU786  VAL792 
 PHE793  MET794  SER795  GLU796  ALA797  LYS798  CYS799  TRP800  GLU811  SER814 

> <Gold.Protein.RotatedAtoms>
  152.3341  133.5991  159.5829 H   0  0  0  0  0  0  0  0  0  0  0  0  # atno 6907 bound_to 6896
  150.7440  133.9823  159.3589 H   0  0  0  0  0  0  0  0  0  0  0  0  # atno 6908 bound_to 6896
  151.7695  135.0790  160.0409 H   0  0  0  0  0  0  0  0  0  0  0  0  # atno 6909 bound_to 6896
  144.9284  139.5078  143.5629 H   0  0  0  0  0  0  0  0  0  0  0  0  # atno 7974 bound_to 7965
  156.2717  140.2076  156.6012 H   0  0  0  0  0  0  0  0  0  0  0  0  # atno 8008 bound_to 7997
  154.6905  140.0530  157.0382 H   0  0  0  0  0  0  0  0  0  0  0  0  # atno 8009 bound_to 7997
  155.0873  140.3193  155.4587 H   0  0  0  0  0  0  0  0  0  0  0  0  # atno 8010 bound_to 7997
  140.3933  144.1823  150.6131 H   0  0  0  0  0  0  0  0  0  0  0  0  # atno 10167 bound_to 10162
  156.8668  130.9770  151.3077 H   0  0  0  0  0  0  0  0  0  0  0  0  # atno 10718 bound_to 10713
  154.7920  135.4763  154.0075 H   0  0  0  0  0  0  0  0  0  0  0  0  # atno 10763 bound_to 10752
  153.1646  135.6814  153.8701 H   0  0  0  0  0  0  0  0  0  0  0  0  # atno 10764 bound_to 10752
  153.8303  135.3192  155.3396 H   0  0  0  0  0  0  0  0  0  0  0  0  # atno 10765 bound_to 10752
  141.1058  133.6613  156.4420 H   0  0  0  0  0  0  0  0  0  0  0  0  # atno 11005 bound_to 11000
  146.3236  139.8217  142.8925 LP  0  0  0  0  0  0  0  0  0  0  0  0  # atno 17320 bound_to 7965
  145.3181  141.0237  143.3516 LP  0  0  0  0  0  0  0  0  0  0  0  0  # atno 17321 bound_to 7965
  140.4817  143.2377  151.8946 LP  0  0  0  0  0  0  0  0  0  0  0  0  # atno 17342 bound_to 10162
  139.4788  144.5262  151.8731 LP  0  0  0  0  0  0  0  0  0  0  0  0  # atno 17343 bound_to 10162
  157.6219  130.8661  149.9123 LP  0  0  0  0  0  0  0  0  0  0  0  0  # atno 17370 bound_to 10713
  156.0747  130.3680  150.0701 LP  0  0  0  0  0  0  0  0  0  0  0  0  # atno 17371 bound_to 10713
  140.4906  134.6579  157.5209 LP  0  0  0  0  0  0  0  0  0  0  0  0  # atno 17394 bound_to 11000
  139.9927  134.6959  155.9661 LP  0  0  0  0  0  0  0  0  0  0  0  0  # atno 17395 bound_to 11000

$$$$
