AV-unprocessed.smi:1740|AV-procd|sdf|7006|dock7
  -GOLD-   22720 8213D 1   1.00000     0.00000
 Structure written by MMmdl.
 51 53  0  0  0  0  0  0  0  0  1 V2000
  151.5727  142.8886  158.6794 N   0  0  0  0  0  0  0  0  0  0  0  0
  151.2564  141.8049  157.9668 C   0  0  0  0  0  0  0  0  0  0  0  0
  151.2372  140.6786  158.4587 O   0  0  0  0  0  0  0  0  0  0  0  0
  150.9039  142.0160  156.4891 C   0  0  0  0  0  0  0  0  0  0  0  0
  150.5463  140.7786  155.7584 N   0  0  0  0  0  0  0  0  0  0  0  0
  149.3580  140.1807  156.3767 C   0  0  0  0  0  0  0  0  0  0  0  0
  148.8790  138.9614  155.5698 C   0  0  0  0  0  0  0  0  0  0  0  0
  149.9890  137.9044  155.4564 C   0  0  0  0  0  0  0  0  0  0  0  0
  149.5777  136.8057  154.5881 N   0  0  0  0  0  0  0  0  0  0  0  0
  149.5455  135.5131  154.9406 C   0  0  0  0  0  0  0  0  0  0  0  0
  149.8647  135.1024  156.0565 O   0  0  0  0  0  0  0  0  0  0  0  0
  149.1419  134.7417  153.9176 N   0  0  0  0  0  0  0  0  0  0  0  0
  149.0202  133.3238  153.8839 C   0  0  0  0  0  0  0  0  0  0  0  0
  149.8059  132.4937  154.7203 C   0  0  0  0  0  0  0  0  0  0  0  0
  149.6014  131.1034  154.7010 C   0  0  0  0  0  0  0  0  0  0  0  0
  148.6039  130.5907  153.8553 C   0  0  0  0  0  0  0  0  0  0  0  0
  147.8377  131.3678  153.0643 N   0  0  0  0  0  0  0  0  0  0  0  0
  148.0333  132.7097  153.0606 C   0  0  0  0  0  0  0  0  0  0  0  0
  147.2153  133.4732  152.1965 N   0  0  0  0  0  0  0  0  0  0  0  0
  147.1334  133.0627  150.7975 C   0  0  0  0  0  0  0  0  0  0  0  0
  145.6859  133.3072  150.3580 C   0  0  0  0  0  0  0  0  0  0  0  0
  145.1759  134.3397  151.3584 C   0  0  0  0  0  0  0  0  0  0  0  0
  145.9049  133.9394  152.6379 C   0  0  0  0  0  0  0  0  0  0  0  0
  151.2532  138.5695  154.8959 C   0  0  0  0  0  0  0  0  0  0  0  0
  151.6480  139.8050  155.7242 C   0  0  0  0  0  0  0  0  0  0  0  0
  151.8103  142.7930  159.6560 H   0  0  0  0  0  0  0  0  0  0  0  0
  151.5729  143.7982  158.2416 H   0  0  0  0  0  0  0  0  0  0  0  0
  150.0910  142.7398  156.4039 H   0  0  0  0  0  0  0  0  0  0  0  0
  151.7752  142.4741  156.0190 H   0  0  0  0  0  0  0  0  0  0  0  0
  149.5703  139.8902  157.4073 H   0  0  0  0  0  0  0  0  0  0  0  0
  148.5523  140.9150  156.4144 H   0  0  0  0  0  0  0  0  0  0  0  0
  147.9972  138.5312  156.0459 H   0  0  0  0  0  0  0  0  0  0  0  0
  148.5667  139.2845  154.5752 H   0  0  0  0  0  0  0  0  0  0  0  0
  150.2172  137.5151  156.4507 H   0  0  0  0  0  0  0  0  0  0  0  0
  149.2990  137.0494  153.6489 H   0  0  0  0  0  0  0  0  0  0  0  0
  149.0064  135.2083  153.0327 H   0  0  0  0  0  0  0  0  0  0  0  0
  150.5452  132.9023  155.3922 H   0  0  0  0  0  0  0  0  0  0  0  0
  150.1864  130.4480  155.3289 H   0  0  0  0  0  0  0  0  0  0  0  0
  148.4110  129.5287  153.8170 H   0  0  0  0  0  0  0  0  0  0  0  0
  147.8094  133.6838  150.2091 H   0  0  0  0  0  0  0  0  0  0  0  0
  147.4217  132.0200  150.6559 H   0  0  0  0  0  0  0  0  0  0  0  0
  145.6078  133.6400  149.3226 H   0  0  0  0  0  0  0  0  0  0  0  0
  145.1112  132.3854  150.4596 H   0  0  0  0  0  0  0  0  0  0  0  0
  145.4818  135.3404  151.0504 H   0  0  0  0  0  0  0  0  0  0  0  0
  144.0910  134.3327  151.4664 H   0  0  0  0  0  0  0  0  0  0  0  0
  145.3524  133.1394  153.1325 H   0  0  0  0  0  0  0  0  0  0  0  0
  145.9948  134.7753  153.3321 H   0  0  0  0  0  0  0  0  0  0  0  0
  152.0771  137.8552  154.8860 H   0  0  0  0  0  0  0  0  0  0  0  0
  151.0903  138.8682  153.8589 H   0  0  0  0  0  0  0  0  0  0  0  0
  152.5392  140.2404  155.2724 H   0  0  0  0  0  0  0  0  0  0  0  0
  151.9209  139.5096  156.7388 H   0  0  0  0  0  0  0  0  0  0  0  0
  1  2  1  0  0  0  0
  1 26  1  0  0  0  0
  1 27  1  0  0  0  0
  2  3  2  0  0  0  0
  2  4  1  0  0  0  0
  4  5  1  0  0  0  0
  4 28  1  0  0  0  0
  4 29  1  0  0  0  0
  5 25  1  0  0  0  0
  5  6  1  0  0  0  0
  6  7  1  0  0  0  0
  6 30  1  0  0  0  0
  6 31  1  0  0  0  0
  7  8  1  0  0  0  0
  7 32  1  0  0  0  0
  7 33  1  0  0  0  0
  8  9  1  0  0  0  0
  8 24  1  0  0  0  0
  8 34  1  0  0  0  0
  9 10  1  0  0  0  0
  9 35  1  0  0  0  0
 10 11  2  0  0  0  0
 10 12  1  0  0  0  0
 12 13  1  0  0  0  0
 12 36  1  0  0  0  0
 13 18  1  0  0  0  0
 13 14  2  0  0  0  0
 14 15  1  0  0  0  0
 14 37  1  0  0  0  0
 15 16  2  0  0  0  0
 15 38  1  0  0  0  0
 16 17  1  0  0  0  0
 16 39  1  0  0  0  0
 17 18  2  0  0  0  0
 18 19  1  0  0  0  0
 19 23  1  0  0  0  0
 19 20  1  0  0  0  0
 20 21  1  0  0  0  0
 20 40  1  0  0  0  0
 20 41  1  0  0  0  0
 21 22  1  0  0  0  0
 21 42  1  0  0  0  0
 21 43  1  0  0  0  0
 22 23  1  0  0  0  0
 22 44  1  0  0  0  0
 22 45  1  0  0  0  0
 23 46  1  0  0  0  0
 23 47  1  0  0  0  0
 24 25  1  0  0  0  0
 24 48  1  0  0  0  0
 24 49  1  0  0  0  0
 25 50  1  0  0  0  0
 25 51  1  0  0  0  0
M  END
> <s_m_source_file>
AV-unprocessed.smi

> <i_m_source_file_index>
1740

> <i_lp_mmshare_version>
43012

> <i_f3d_flags>
0

> <s_epik_input>
W05IMl1DKD1PKVtDSDJdTjFbQ0gyXVtDSDJdW0NIXShbQ0gyXVtDSDJdMSlbTkhdQyg9TylbTkhdYzJbY0hdW2NIXVtjSF1uYzJOM1tDSDJdW0NIMl1bQ0gyXVtDSDJdMw==

> <s_epik_cmdline>
J2VwaWtfcHl0aG9uJywgJy1waCcsICc3LjAnLCAnLXRuJywgJzgnLCAnLW1hJywgJzIwMCcsICctbWV0YWxfYmluZGluZycsICctaW1hZScsICc8aW5maWxlLm1hZT4nLCAnLW9tYWUnLCAnPG91dGZpbGUubWFlPic=

> <r_lp_tautomer_probability>
1

> <r_epik_Ionization_Penalty>
0.268698

> <r_epik_Ionization_Penalty_Charging>
0

> <r_epik_Ionization_Penalty_Neutral>
0.268698

> <r_epik_State_Penalty>
0.247497

> <r_epik_Charging_Adjusted_Penalty>
0.247497

> <i_epik_Tot_Q>
0

> <i_epik_Tot_abs_Q>
0

> <r_epik_Metal_State_Penalty>
0.244805

> <b_epik_Metal_Only>
0

> <s_lp_Force_Field>
OPLS_2005

> <r_lp_Energy>
39.8984

> <b_lp_Chiralities_Consistent>
1

> <s_lp_Variant>
AV-unprocessed.smi:1740-1

> <Gold.Version>
5.8.1

> <Gold.Id.Protein>
6NUR|6NUR_protein|mol2

> <Gold.PLP.Fitness>
41.0342

> <Gold.PLP.PLP>
-36.5936

> <Gold.PLP.part.hbond>
-2.0420

> <Gold.PLP.part.metal>
0.0000

> <Gold.PLP.part.buried>
-5.2676

> <Gold.PLP.part.nonpolar>
-29.3671

> <Gold.PLP.part.repulsive>
0.4013

> <Gold.PLP.ligand.clash>
0.0000

> <Gold.PLP.ligand.torsion>
0.6210

> <Gold.PLP.Chemscore.Hbond>
1.7840

> <Gold.PLP.Chemscore.CHOScore>
0.0000

> <Gold.PLP.Chemscore.Metal>
0.0000

> <Gold.Chemscore.Hbonds>
donor molecule, donor type, donor heavy atom, donor atom, acceptor molecule, acceptor atom, score
      L1  H     9    35       P1  7948  0.83
      L1  H    12    36       P1  7948  0.91

> <Gold.PLP.Chemscore.Internal.Correction>
0.3307

> <Gold.Rescore>
     Score         DG    S(hbond)    S(metal)    S(lipo)     H(rot)  DE(clash)    DE(int)     intcor
      9.57     -13.90       1.56        0.00      74.82       2.16       0.07       4.26       ----

> <Gold.Chemscore.Fitness>
9.5725

> <Gold.Chemscore.DG>
-13.9043

> <Gold.Chemscore.ZeroCoef>
-5.4800

> <Gold.Chemscore.Hbond>
1.5595

> <Gold.Chemscore.Metal>
0.0000

> <Gold.Chemscore.Lipo>
74.8209

> <Gold.Chemscore.Internal_Hbond>
0.0000

> <Gold.Chemscore.DEClash>
0.0716

> <Gold.Chemscore.DEInternal>
4.2602

> <Gold.Chemscore.Rot>
2.1635

> <Gold.Chemscore.Internal.Correction>
   9.000000E+99

> <Gold.Chemscore.Hbonds>
donor molecule, donor type, donor heavy atom, donor atom, acceptor molecule, acceptor atom, score
      L1  H     9    35       P1  7948  0.78
      L1  H    12    36       P1  7948  0.20

> <Gold.Chemscore.Hbond.Weighted>
-5.2088

> <Gold.Chemscore.Metal.Weighted>
-0.0000

> <Gold.Chemscore.Lipo.Weighted>
-8.7541

> <Gold.Chemscore.Internal_Hbond.Weighted>
0.0000

> <Gold.Chemscore.DEClash.Weighted>
0.0716

> <Gold.Chemscore.DEInternal.Weighted>
4.2602

> <Gold.Chemscore.Rot.Weighted>
5.5385

> <Gold.Chemscore.Internal.Correction.Weighted>
   9.000000E+99

> <Gold.Protein.RotatedTorsions>
[ 6907 6896 6895 6894 ] final -146.77 input  -60.11 | X-H torsion
[ 7974 7965 7964 7962 ] final  162.39 input  175.53 | X-H torsion
[ 8008 7997 7996 7995 ] final -159.19 input   59.86 | X-H torsion
[ 10167 10162 10161 10158 ] final  -60.34 input  -65.29 | X-H torsion
[ 10718 10713 10712 10709 ] final  145.01 input   66.30 | X-H torsion
[ 10763 10752 10751 10750 ] final  -19.68 input  -60.55 | X-H torsion
[ 11005 11000 10999 10996 ] final   39.00 input  -57.11 | X-H torsion

> <Gold.Protein.ActiveResidues>
 VAL166  LYS551  ARG553  GLY616  TRP617  ASP618  TYR619  PRO620  LYS621  CYS622 
 ASP623  PHE694  ASN695  SER759  ASP760  ASP761  ALA762  ILE779  LEU786  VAL792 
 PHE793  MET794  SER795  GLU796  ALA797  LYS798  CYS799  TRP800  GLU811  SER814 

> <Gold.Protein.RotatedAtoms>
  151.1463  133.4937  159.2595 H   0  0  0  0  0  0  0  0  0  0  0  0  # atno 6907 bound_to 6896
  151.1601  135.0269  159.8716 H   0  0  0  0  0  0  0  0  0  0  0  0  # atno 6908 bound_to 6896
  152.5463  134.1338  159.8503 H   0  0  0  0  0  0  0  0  0  0  0  0  # atno 6909 bound_to 6896
  144.7639  139.8034  143.6322 H   0  0  0  0  0  0  0  0  0  0  0  0  # atno 7974 bound_to 7965
  155.7588  140.0836  157.2165 H   0  0  0  0  0  0  0  0  0  0  0  0  # atno 8008 bound_to 7997
  154.4005  140.1547  156.2865 H   0  0  0  0  0  0  0  0  0  0  0  0  # atno 8009 bound_to 7997
  155.8859  140.3418  155.5924 H   0  0  0  0  0  0  0  0  0  0  0  0  # atno 8010 bound_to 7997
  140.6077  143.2378  151.5782 H   0  0  0  0  0  0  0  0  0  0  0  0  # atno 10167 bound_to 10162
  157.3503  131.0949  151.1005 H   0  0  0  0  0  0  0  0  0  0  0  0  # atno 10718 bound_to 10713
  153.6086  135.6997  153.5356 H   0  0  0  0  0  0  0  0  0  0  0  0  # atno 10763 bound_to 10752
  153.3036  135.4121  155.1274 H   0  0  0  0  0  0  0  0  0  0  0  0  # atno 10764 bound_to 10752
  154.8568  135.3655  154.5623 H   0  0  0  0  0  0  0  0  0  0  0  0  # atno 10765 bound_to 10752
  140.2071  134.3800  155.8067 H   0  0  0  0  0  0  0  0  0  0  0  0  # atno 11005 bound_to 11000
  146.1728  139.4885  142.9917 LP  0  0  0  0  0  0  0  0  0  0  0  0  # atno 17320 bound_to 7965
  145.6532  141.0258  143.1749 LP  0  0  0  0  0  0  0  0  0  0  0  0  # atno 17321 bound_to 7965
  139.5337  144.2841  152.1206 LP  0  0  0  0  0  0  0  0  0  0  0  0  # atno 17342 bound_to 10162
  140.2034  144.4635  150.6420 LP  0  0  0  0  0  0  0  0  0  0  0  0  # atno 17343 bound_to 10162
  157.2184  130.6470  149.5801 LP  0  0  0  0  0  0  0  0  0  0  0  0  # atno 17370 bound_to 10713
  155.9720  130.4637  150.6192 LP  0  0  0  0  0  0  0  0  0  0  0  0  # atno 17371 bound_to 10713
  141.2227  133.7124  156.8356 LP  0  0  0  0  0  0  0  0  0  0  0  0  # atno 17394 bound_to 11000
  140.1991  134.8910  157.3148 LP  0  0  0  0  0  0  0  0  0  0  0  0  # atno 17395 bound_to 11000

$$$$
