AV-unprocessed.smi:158|AV-procd|sdf|1323|dock10
  -GOLD-   2262019 13D 1   1.00000     0.00000
 Structure written by MMmdl.
 31 33  0  0  0  0  0  0  0  0  1 V2000
  151.8784  143.1097  161.5162 N   0  0  0  0  0  0  0  0  0  0  0  0
  152.4013  142.1965  160.6857 C   0  0  0  0  0  0  0  0  0  0  0  0
  153.5618  141.5952  161.0368 N   0  0  0  0  0  0  0  0  0  0  0  0
  154.1162  140.6775  160.2353 C   0  0  0  0  0  0  0  0  0  0  0  0
  155.5937  139.9734  160.7773 Cl  0  0  0  0  0  0  0  0  0  0  0  0
  153.6532  140.2436  159.0587 N   0  0  0  0  0  0  0  0  0  0  0  0
  152.4835  140.8469  158.6998 C   0  0  0  0  0  0  0  0  0  0  0  0
  151.7955  141.8313  159.4586 C   0  0  0  0  0  0  0  0  0  0  0  0
  150.6415  142.2217  158.7934 N   0  0  0  0  0  0  0  0  0  0  0  0
  150.6512  141.5040  157.7021 C   0  0  0  0  0  0  0  0  0  0  0  0
  151.7247  140.6513  157.5628 N   0  0  0  0  0  0  0  0  0  0  0  0
  152.0035  139.7169  156.4255 C   0  0  2  0  0  0  0  0  0  0  0  0
  151.2033  140.1018  155.3488 O   0  0  0  0  0  0  0  0  0  0  0  0
  150.5362  138.9684  154.8038 C   0  0  2  0  0  0  0  0  0  0  0  0
  149.2196  139.4146  154.1475 C   0  0  0  0  0  0  0  0  0  0  0  0
  148.8830  138.5569  153.0773 O   0  0  0  0  0  0  0  0  0  0  0  0
  150.3712  138.0194  155.9949 C   0  0  1  0  0  0  0  0  0  0  0  0
  150.2870  136.6713  155.5790 O   0  0  0  0  0  0  0  0  0  0  0  0
  151.6516  138.2600  156.7745 C   0  0  2  0  0  0  0  0  0  0  0  0
  151.4897  138.0829  158.0881 F   0  0  0  0  0  0  0  0  0  0  0  0
  153.0610  139.8614  156.2013 H   0  0  0  0  0  0  0  0  0  0  0  0
  151.2058  138.5309  154.0604 H   0  0  0  0  0  0  0  0  0  0  0  0
  149.4992  138.2872  156.5918 H   0  0  0  0  0  0  0  0  0  0  0  0
  152.4637  137.6160  156.4337 H   0  0  0  0  0  0  0  0  0  0  0  0
  151.0129  143.5702  161.2741 H   0  0  0  0  0  0  0  0  0  0  0  0
  152.3494  143.3359  162.3803 H   0  0  0  0  0  0  0  0  0  0  0  0
  149.8698  141.5802  156.9598 H   0  0  0  0  0  0  0  0  0  0  0  0
  148.4050  139.4350  154.8718 H   0  0  0  0  0  0  0  0  0  0  0  0
  149.3241  140.4254  153.7528 H   0  0  0  0  0  0  0  0  0  0  0  0
  149.4278  138.7744  152.3362 H   0  0  0  0  0  0  0  0  0  0  0  0
  150.7531  136.5833  154.7610 H   0  0  0  0  0  0  0  0  0  0  0  0
  1  2  1  0  0  0  0
  1 25  1  0  0  0  0
  1 26  1  0  0  0  0
  2  8  1  0  0  0  0
  2  3  2  0  0  0  0
  3  4  1  0  0  0  0
  4  5  1  0  0  0  0
  4  6  2  0  0  0  0
  6  7  1  0  0  0  0
  7 11  1  0  0  0  0
  7  8  2  0  0  0  0
  8  9  1  0  0  0  0
  9 10  2  0  0  0  0
 10 11  1  0  0  0  0
 10 27  1  0  0  0  0
 11 12  1  0  0  0  0
 12 21  1  0  0  0  0
 12 19  1  0  0  0  0
 12 13  1  0  0  0  0
 13 14  1  0  0  0  0
 14 22  1  0  0  0  0
 14 15  1  0  0  0  0
 14 17  1  0  0  0  0
 15 16  1  0  0  0  0
 15 28  1  0  0  0  0
 15 29  1  0  0  0  0
 16 30  1  0  0  0  0
 17 23  1  0  0  0  0
 17 18  1  0  0  0  0
 17 19  1  0  0  0  0
 18 31  1  0  0  0  0
 19 24  1  0  0  0  0
 19 20  1  0  0  0  0
M  END
> <s_m_source_file>
AV-unprocessed.smi

> <i_m_source_file_index>
158

> <i_lp_mmshare_version>
43012

> <i_f3d_flags>
0

> <s_epik_input>
Q2xjKG4xKW5jKFtOSDJdKWMoYzEyKW5bY0hdbjJbQ0BASF0zT1tDQEhdKFtDSDJdW09IXSlbQ0BASF0oW09IXSlbQ0BASF0zRg==

> <s_epik_cmdline>
J2VwaWtfcHl0aG9uJywgJy1waCcsICc3LjAnLCAnLXRuJywgJzgnLCAnLW1hJywgJzIwMCcsICctbWV0YWxfYmluZGluZycsICctaW1hZScsICc8aW5maWxlLm1hZT4nLCAnLW9tYWUnLCAnPG91dGZpbGUubWFlPic=

> <r_lp_tautomer_probability>
1

> <r_epik_Ionization_Penalty>
6.51543e-05

> <r_epik_Ionization_Penalty_Charging>
0

> <r_epik_Ionization_Penalty_Neutral>
6.51543e-05

> <r_epik_State_Penalty>
-0

> <r_epik_Charging_Adjusted_Penalty>
0

> <i_epik_Tot_Q>
0

> <i_epik_Tot_abs_Q>
0

> <r_epik_Metal_State_Penalty>
-0

> <b_epik_Metal_Only>
0

> <s_epik_Chemistry_Notes>
This compound contains an acetal/aminal-like group ( X-CH(R)-Y where X, Y are N, S, or O) that may be acid/base labile, releasing an aldehyde.

> <s_lp_Force_Field>
OPLS_2005

> <r_lp_Energy>
34.2201

> <b_lp_Chiralities_Consistent>
1

> <s_lp_Variant>
AV-unprocessed.smi:158-1

> <Gold.Version>
5.8.1

> <Gold.Id.Protein>
6NUR|6NUR_protein|mol2

> <Gold.PLP.Fitness>
37.0971

> <Gold.PLP.PLP>
-30.4354

> <Gold.PLP.part.hbond>
-4.0000

> <Gold.PLP.part.metal>
0.0000

> <Gold.PLP.part.buried>
-5.7047

> <Gold.PLP.part.nonpolar>
-21.1903

> <Gold.PLP.part.repulsive>
0.1429

> <Gold.PLP.ligand.clash>
0.0000

> <Gold.PLP.ligand.torsion>
0.8500

> <Gold.PLP.Chemscore.Hbond>
2.7770

> <Gold.PLP.Chemscore.CHOScore>
0.0000

> <Gold.PLP.Chemscore.Metal>
0.0000

> <Gold.Chemscore.Hbonds>
donor molecule, donor type, donor heavy atom, donor atom, acceptor molecule, acceptor atom, score
      L1  H    16    30       P1  7957  0.82
      P1  H  7989  7998       L1    13  0.62
      P1  H  7997  8008       L1     6  0.52

> <Gold.PLP.Chemscore.Internal.Correction>
0.0306

> <Gold.Rescore>
     Score         DG    S(hbond)    S(metal)    S(lipo)     H(rot)  DE(clash)    DE(int)     intcor
      6.30      -7.74       1.81        0.00      35.85       3.12       0.02       1.42       ----

> <Gold.Chemscore.Fitness>
6.3020

> <Gold.Chemscore.DG>
-7.7387

> <Gold.Chemscore.ZeroCoef>
-5.4800

> <Gold.Chemscore.Hbond>
1.8142

> <Gold.Chemscore.Metal>
0.0000

> <Gold.Chemscore.Lipo>
35.8488

> <Gold.Chemscore.Internal_Hbond>
0.0000

> <Gold.Chemscore.DEClash>
0.0212

> <Gold.Chemscore.DEInternal>
1.4156

> <Gold.Chemscore.Rot>
3.1230

> <Gold.Chemscore.Internal.Correction>
   9.000000E+99

> <Gold.Chemscore.Hbonds>
donor molecule, donor type, donor heavy atom, donor atom, acceptor molecule, acceptor atom, score
      L1  H    16    30       P1  7957  0.53
      P1  H  7989  7998       L1    13  0.05
      P1  H  7997  8008       L1     6  0.33

> <Gold.Chemscore.Hbond.Weighted>
-6.0594

> <Gold.Chemscore.Metal.Weighted>
-0.0000

> <Gold.Chemscore.Lipo.Weighted>
-4.1943

> <Gold.Chemscore.Internal_Hbond.Weighted>
0.0000

> <Gold.Chemscore.DEClash.Weighted>
0.0212

> <Gold.Chemscore.DEInternal.Weighted>
1.4156

> <Gold.Chemscore.Rot.Weighted>
7.9950

> <Gold.Chemscore.Internal.Correction.Weighted>
   9.000000E+99

> <Gold.Protein.RotatedTorsions>
[ 6907 6896 6895 6894 ] final -171.52 input  -60.11 | X-H torsion
[ 7974 7965 7964 7962 ] final -149.25 input  175.53 | X-H torsion
[ 8008 7997 7996 7995 ] final -108.82 input   59.86 | X-H torsion
[ 10167 10162 10161 10158 ] final  147.96 input  -65.29 | X-H torsion
[ 10718 10713 10712 10709 ] final   31.09 input   66.30 | X-H torsion
[ 10763 10752 10751 10750 ] final  -91.48 input  -60.55 | X-H torsion
[ 11005 11000 10999 10996 ] final  117.51 input  -57.11 | X-H torsion

> <Gold.Protein.ActiveResidues>
 VAL166  LYS551  ARG553  GLY616  TRP617  ASP618  TYR619  PRO620  LYS621  CYS622 
 ASP623  PHE694  ASN695  SER759  ASP760  ASP761  ALA762  ILE779  LEU786  VAL792 
 PHE793  MET794  SER795  GLU796  ALA797  LYS798  CYS799  TRP800  GLU811  SER814 

> <Gold.Protein.RotatedAtoms>
  151.5252  133.3459  159.2908 H   0  0  0  0  0  0  0  0  0  0  0  0  # atno 6907 bound_to 6896
  150.8627  134.7986  159.7106 H   0  0  0  0  0  0  0  0  0  0  0  0  # atno 6908 bound_to 6896
  152.4642  134.5124  159.9809 H   0  0  0  0  0  0  0  0  0  0  0  0  # atno 6909 bound_to 6896
  144.7979  140.5089  143.5727 H   0  0  0  0  0  0  0  0  0  0  0  0  # atno 7974 bound_to 7965
  154.9501  140.0401  157.2139 H   0  0  0  0  0  0  0  0  0  0  0  0  # atno 8008 bound_to 7997
  154.7987  140.2848  155.5915 H   0  0  0  0  0  0  0  0  0  0  0  0  # atno 8009 bound_to 7997
  156.2959  140.2559  156.2850 H   0  0  0  0  0  0  0  0  0  0  0  0  # atno 8010 bound_to 7997
  139.4882  144.5716  151.7045 H   0  0  0  0  0  0  0  0  0  0  0  0  # atno 10167 bound_to 10162
  157.2679  130.7193  149.6489 H   0  0  0  0  0  0  0  0  0  0  0  0  # atno 10718 bound_to 10713
  154.6765  135.5266  153.8206 H   0  0  0  0  0  0  0  0  0  0  0  0  # atno 10763 bound_to 10752
  153.0536  135.6542  154.0643 H   0  0  0  0  0  0  0  0  0  0  0  0  # atno 10764 bound_to 10752
  154.0535  135.2967  155.3316 H   0  0  0  0  0  0  0  0  0  0  0  0  # atno 10765 bound_to 10752
  139.9077  134.9611  156.7361 H   0  0  0  0  0  0  0  0  0  0  0  0  # atno 11005 bound_to 11000
  145.5627  139.1480  143.3332 LP  0  0  0  0  0  0  0  0  0  0  0  0  # atno 17320 bound_to 7965
  146.2252  140.5763  142.8999 LP  0  0  0  0  0  0  0  0  0  0  0  0  # atno 17321 bound_to 7965
  140.5304  144.0739  150.6051 LP  0  0  0  0  0  0  0  0  0  0  0  0  # atno 17342 bound_to 10162
  140.3728  143.2845  152.0259 LP  0  0  0  0  0  0  0  0  0  0  0  0  # atno 17343 bound_to 10162
  155.9663  130.4377  150.5185 LP  0  0  0  0  0  0  0  0  0  0  0  0  # atno 17370 bound_to 10713
  157.3103  131.0662  151.2005 LP  0  0  0  0  0  0  0  0  0  0  0  0  # atno 17371 bound_to 10713
  140.6886  133.9410  155.7953 LP  0  0  0  0  0  0  0  0  0  0  0  0  # atno 17394 bound_to 11000
  141.0458  134.0556  157.3846 LP  0  0  0  0  0  0  0  0  0  0  0  0  # atno 17395 bound_to 11000

$$$$
