AV-unprocessed.smi:2862|AV-procd|sdf|11009|dock2
  -GOLD-   2272015463D 1   1.00000     0.00000
 Structure written by MMmdl.
 52 54  0  0  0  0  0  0  0  0  1 V2000
  146.8917  133.6938  159.4410 C   0  0  0  0  0  0  0  0  0  0  0  0
  147.3033  135.1025  159.9022 C   0  0  1  0  0  0  0  0  0  0  0  0
  147.4538  136.0074  158.7637 N   0  0  0  0  0  0  0  0  0  0  0  0
  148.5702  136.6475  158.3689 C   0  0  0  0  0  0  0  0  0  0  0  0
  149.6489  136.5363  158.9497 O   0  0  0  0  0  0  0  0  0  0  0  0
  148.4855  137.5620  157.1337 C   0  0  0  0  0  0  0  0  0  0  0  0
  149.7328  138.2742  156.7975 N   0  0  0  0  0  0  0  0  0  0  0  0
  150.2559  138.0598  155.5067 C   0  0  0  0  0  0  0  0  0  0  0  0
  151.3806  138.6563  155.0839 C   0  0  0  0  0  0  0  0  0  0  0  0
  152.0669  139.5430  155.9906 C   0  0  0  0  0  0  0  0  0  0  0  0
  151.5588  139.7829  157.2210 C   0  0  0  0  0  0  0  0  0  0  0  0
  152.2481  140.6326  158.2015 C   0  0  0  0  0  0  0  0  0  0  0  0
  153.2868  140.2820  158.7653 O   0  0  0  0  0  0  0  0  0  0  0  0
  151.6890  141.8569  158.4277 N   0  0  0  0  0  0  0  0  0  0  0  0
  150.2775  142.1694  158.1449 C   0  0  0  0  0  0  0  0  0  0  0  0
  152.3975  142.9423  159.1414 C   0  0  2  0  0  0  0  0  0  0  0  0
  152.6274  142.5979  160.6268 C   0  0  0  0  0  0  0  0  0  0  0  0
  151.7710  144.3221  158.9860 C   0  0  0  0  0  0  0  0  0  0  0  0
  151.8967  145.3652  160.0703 C   0  0  0  0  0  0  0  0  0  0  0  0
  150.5580  144.7187  159.7930 C   0  0  0  0  0  0  0  0  0  0  0  0
  150.3288  139.1129  157.7024 C   0  0  0  0  0  0  0  0  0  0  0  0
  149.8343  139.2913  158.8191 O   0  0  0  0  0  0  0  0  0  0  0  0
  146.4011  135.6183  161.0130 C   0  0  0  0  0  0  0  0  0  0  0  0
  146.9471  136.4906  162.1173 C   0  0  0  0  0  0  0  0  0  0  0  0
  146.5090  135.0741  162.4171 C   0  0  0  0  0  0  0  0  0  0  0  0
  146.9175  132.9895  160.2730 H   0  0  0  0  0  0  0  0  0  0  0  0
  147.5679  133.3176  158.6726 H   0  0  0  0  0  0  0  0  0  0  0  0
  145.8811  133.6803  159.0324 H   0  0  0  0  0  0  0  0  0  0  0  0
  148.3061  135.0150  160.3220 H   0  0  0  0  0  0  0  0  0  0  0  0
  146.6200  136.1666  158.2170 H   0  0  0  0  0  0  0  0  0  0  0  0
  148.1499  136.9649  156.2838 H   0  0  0  0  0  0  0  0  0  0  0  0
  147.6797  138.2772  157.3036 H   0  0  0  0  0  0  0  0  0  0  0  0
  149.6824  137.3882  154.8842 H   0  0  0  0  0  0  0  0  0  0  0  0
  151.7607  138.4800  154.0885 H   0  0  0  0  0  0  0  0  0  0  0  0
  152.9947  139.9999  155.6772 H   0  0  0  0  0  0  0  0  0  0  0  0
  149.6402  141.2843  158.1347 H   0  0  0  0  0  0  0  0  0  0  0  0
  150.1854  142.6728  157.1822 H   0  0  0  0  0  0  0  0  0  0  0  0
  149.8508  142.8261  158.9036 H   0  0  0  0  0  0  0  0  0  0  0  0
  153.4030  143.0149  158.7231 H   0  0  0  0  0  0  0  0  0  0  0  0
  153.2976  143.3219  161.0910 H   0  0  0  0  0  0  0  0  0  0  0  0
  153.0857  141.6144  160.7354 H   0  0  0  0  0  0  0  0  0  0  0  0
  151.7032  142.6025  161.2039 H   0  0  0  0  0  0  0  0  0  0  0  0
  151.7816  144.7007  157.9661 H   0  0  0  0  0  0  0  0  0  0  0  0
  152.4068  145.0855  160.9896 H   0  0  0  0  0  0  0  0  0  0  0  0
  152.0327  146.3984  159.7575 H   0  0  0  0  0  0  0  0  0  0  0  0
  149.8005  145.3211  159.2959 H   0  0  0  0  0  0  0  0  0  0  0  0
  150.1819  144.0101  160.5282 H   0  0  0  0  0  0  0  0  0  0  0  0
  145.3888  135.8485  160.6861 H   0  0  0  0  0  0  0  0  0  0  0  0
  148.0156  136.6971  162.1191 H   0  0  0  0  0  0  0  0  0  0  0  0
  146.3146  137.3009  162.4746 H   0  0  0  0  0  0  0  0  0  0  0  0
  145.5855  134.9414  162.9771 H   0  0  0  0  0  0  0  0  0  0  0  0
  147.2869  134.3403  162.6193 H   0  0  0  0  0  0  0  0  0  0  0  0
  1  2  1  0  0  0  0
  1 26  1  0  0  0  0
  1 27  1  0  0  0  0
  1 28  1  0  0  0  0
  2  3  1  0  0  0  0
  2 23  1  0  0  0  0
  2 29  1  0  0  0  0
  3  4  1  0  0  0  0
  3 30  1  0  0  0  0
  4  5  2  0  0  0  0
  4  6  1  0  0  0  0
  6  7  1  0  0  0  0
  6 31  1  0  0  0  0
  6 32  1  0  0  0  0
  7 21  1  0  0  0  0
  7  8  1  0  0  0  0
  8  9  2  0  0  0  0
  8 33  1  0  0  0  0
  9 10  1  0  0  0  0
  9 34  1  0  0  0  0
 10 11  2  0  0  0  0
 10 35  1  0  0  0  0
 11 12  1  0  0  0  0
 11 21  1  0  0  0  0
 12 13  2  0  0  0  0
 12 14  1  0  0  0  0
 14 15  1  0  0  0  0
 14 16  1  0  0  0  0
 15 36  1  0  0  0  0
 15 37  1  0  0  0  0
 15 38  1  0  0  0  0
 16 17  1  0  0  0  0
 16 18  1  0  0  0  0
 16 39  1  0  0  0  0
 17 40  1  0  0  0  0
 17 41  1  0  0  0  0
 17 42  1  0  0  0  0
 18 20  1  0  0  0  0
 18 19  1  0  0  0  0
 18 43  1  0  0  0  0
 19 20  1  0  0  0  0
 19 44  1  0  0  0  0
 19 45  1  0  0  0  0
 20 46  1  0  0  0  0
 20 47  1  0  0  0  0
 21 22  2  0  0  0  0
 23 25  1  0  0  0  0
 23 24  1  0  0  0  0
 23 48  1  0  0  0  0
 24 25  1  0  0  0  0
 24 49  1  0  0  0  0
 24 50  1  0  0  0  0
 25 51  1  0  0  0  0
 25 52  1  0  0  0  0
M  END
> <s_m_source_file>
AV-unprocessed.smi

> <i_m_source_file_index>
2862

> <i_lp_mmshare_version>
43012

> <i_f3d_flags>
0

> <s_epik_input>
W0NIMl0xW0NIMl1bQ0hdMVtDQEhdKFtDSDNdKVtOSF1DKD1PKVtDSDJdbjJbY0hdW2NIXVtjSF1jKGMyPU8pQyg9TylOKFtDSDNdKVtDQEhdKFtDSDNdKVtDSF0zW0NIMl1bQ0gyXTM=

> <s_epik_cmdline>
J2VwaWtfcHl0aG9uJywgJy1waCcsICc3LjAnLCAnLXRuJywgJzgnLCAnLW1hJywgJzIwMCcsICctbWV0YWxfYmluZGluZycsICctaW1hZScsICc8aW5maWxlLm1hZT4nLCAnLW9tYWUnLCAnPG91dGZpbGUubWFlPic=

> <r_lp_tautomer_probability>
1

> <r_epik_Ionization_Penalty>
4.00841e-08

> <r_epik_Ionization_Penalty_Charging>
2.07773e-08

> <r_epik_Ionization_Penalty_Neutral>
1.93069e-08

> <r_epik_State_Penalty>
-0

> <r_epik_Charging_Adjusted_Penalty>
2.07773e-08

> <i_epik_Tot_Q>
0

> <i_epik_Tot_abs_Q>
0

> <r_epik_Metal_State_Penalty>
-0

> <b_epik_Metal_Only>
0

> <s_lp_Force_Field>
OPLS_2005

> <r_lp_Energy>
60.0482

> <b_lp_Chiralities_Consistent>
1

> <s_lp_Variant>
AV-unprocessed.smi:2862-2

> <Gold.Version>
5.8.1

> <Gold.Id.Protein>
6NUR|6NUR_protein|mol2

> <Gold.PLP.Fitness>
55.0298

> <Gold.PLP.PLP>
-51.1102

> <Gold.PLP.part.hbond>
-3.0671

> <Gold.PLP.part.metal>
0.0000

> <Gold.PLP.part.buried>
-3.2564

> <Gold.PLP.part.nonpolar>
-44.4078

> <Gold.PLP.part.repulsive>
0.1092

> <Gold.PLP.ligand.clash>
0.0000

> <Gold.PLP.ligand.torsion>
3.0202

> <Gold.PLP.Chemscore.Hbond>
1.7520

> <Gold.PLP.Chemscore.CHOScore>
0.0000

> <Gold.PLP.Chemscore.Metal>
0.0000

> <Gold.Chemscore.Hbonds>
donor molecule, donor type, donor heavy atom, donor atom, acceptor molecule, acceptor atom, score
      P1  H  6896  6907       L1     5  0.62
      P1  H  7997  8008       L1    13  0.57

> <Gold.PLP.Chemscore.Internal.Correction>
4.7041

> <Gold.Rescore>
     Score         DG    S(hbond)    S(metal)    S(lipo)     H(rot)  DE(clash)    DE(int)     intcor
     16.85     -21.07       1.37        0.00     132.09       1.73       0.27       3.94       ----

> <Gold.Chemscore.Fitness>
16.8528

> <Gold.Chemscore.DG>
-21.0651

> <Gold.Chemscore.ZeroCoef>
-5.4800

> <Gold.Chemscore.Hbond>
1.3688

> <Gold.Chemscore.Metal>
0.0000

> <Gold.Chemscore.Lipo>
132.0894

> <Gold.Chemscore.Internal_Hbond>
0.0000

> <Gold.Chemscore.DEClash>
0.2735

> <Gold.Chemscore.DEInternal>
3.9387

> <Gold.Chemscore.Rot>
1.7348

> <Gold.Chemscore.Internal.Correction>
   9.000000E+99

> <Gold.Chemscore.Hbonds>
donor molecule, donor type, donor heavy atom, donor atom, acceptor molecule, acceptor atom, score
      P1  H  6896  6907       L1     5  0.63
      P1  H  7997  8008       L1    13  0.31

> <Gold.Chemscore.Hbond.Weighted>
-4.5718

> <Gold.Chemscore.Metal.Weighted>
-0.0000

> <Gold.Chemscore.Lipo.Weighted>
-15.4545

> <Gold.Chemscore.Internal_Hbond.Weighted>
0.0000

> <Gold.Chemscore.DEClash.Weighted>
0.2735

> <Gold.Chemscore.DEInternal.Weighted>
3.9387

> <Gold.Chemscore.Rot.Weighted>
4.4412

> <Gold.Chemscore.Internal.Correction.Weighted>
   9.000000E+99

> <Gold.Protein.RotatedTorsions>
[ 6907 6896 6895 6894 ] final  -50.18 input  -60.11 | X-H torsion
[ 7974 7965 7964 7962 ] final   -8.60 input  175.53 | X-H torsion
[ 8008 7997 7996 7995 ] final  -99.17 input   59.86 | X-H torsion
[ 10167 10162 10161 10158 ] final  178.93 input  -65.29 | X-H torsion
[ 10718 10713 10712 10709 ] final  158.88 input   66.30 | X-H torsion
[ 10763 10752 10751 10750 ] final   50.23 input  -60.55 | X-H torsion
[ 11005 11000 10999 10996 ] final   63.33 input  -57.11 | X-H torsion

> <Gold.Protein.ActiveResidues>
 VAL166  LYS551  ARG553  GLY616  TRP617  ASP618  TYR619  PRO620  LYS621  CYS622 
 ASP623  PHE694  ASN695  SER759  ASP760  ASP761  ALA762  ILE779  LEU786  VAL792 
 PHE793  MET794  SER795  GLU796  ALA797  LYS798  CYS799  TRP800  GLU811  SER814 

> <Gold.Protein.RotatedAtoms>
  150.8732  134.8110  159.7169 H   0  0  0  0  0  0  0  0  0  0  0  0  # atno 6907 bound_to 6896
  152.4729  134.4914  159.9706 H   0  0  0  0  0  0  0  0  0  0  0  0  # atno 6908 bound_to 6896
  151.4999  133.3468  159.2903 H   0  0  0  0  0  0  0  0  0  0  0  0  # atno 6909 bound_to 6896
  146.2276  140.2492  142.8346 H   0  0  0  0  0  0  0  0  0  0  0  0  # atno 7974 bound_to 7965
  154.8112  140.0450  157.1344 H   0  0  0  0  0  0  0  0  0  0  0  0  # atno 8008 bound_to 7997
  154.9366  140.3047  155.5121 H   0  0  0  0  0  0  0  0  0  0  0  0  # atno 8009 bound_to 7997
  156.2972  140.2313  156.4431 H   0  0  0  0  0  0  0  0  0  0  0  0  # atno 8010 bound_to 7997
  139.5315  144.2621  152.0698 H   0  0  0  0  0  0  0  0  0  0  0  0  # atno 10167 bound_to 10162
  157.1719  131.0612  151.2178 H   0  0  0  0  0  0  0  0  0  0  0  0  # atno 10718 bound_to 10713
  152.9785  135.5886  154.4218 H   0  0  0  0  0  0  0  0  0  0  0  0  # atno 10763 bound_to 10752
  154.3841  135.2767  155.2196 H   0  0  0  0  0  0  0  0  0  0  0  0  # atno 10764 bound_to 10752
  154.4096  135.6084  153.5999 H   0  0  0  0  0  0  0  0  0  0  0  0  # atno 10765 bound_to 10752
  140.0032  134.6411  155.9898 H   0  0  0  0  0  0  0  0  0  0  0  0  # atno 11005 bound_to 11000
  144.9425  140.8093  143.5622 LP  0  0  0  0  0  0  0  0  0  0  0  0  # atno 17320 bound_to 7965
  145.2445  139.2058  143.4975 LP  0  0  0  0  0  0  0  0  0  0  0  0  # atno 17321 bound_to 7965
  140.2085  144.4586  150.6397 LP  0  0  0  0  0  0  0  0  0  0  0  0  # atno 17342 bound_to 10162
  140.6495  143.2221  151.6109 LP  0  0  0  0  0  0  0  0  0  0  0  0  # atno 17343 bound_to 10162
  157.4035  130.7346  149.6785 LP  0  0  0  0  0  0  0  0  0  0  0  0  # atno 17370 bound_to 10713
  155.9737  130.4114  150.3980 LP  0  0  0  0  0  0  0  0  0  0  0  0  # atno 17371 bound_to 10713
  141.1657  133.6537  156.4472 LP  0  0  0  0  0  0  0  0  0  0  0  0  # atno 17394 bound_to 11000
  140.4690  134.6771  157.5120 LP  0  0  0  0  0  0  0  0  0  0  0  0  # atno 17395 bound_to 11000

$$$$
