AV-unprocessed.smi:1673|AV-procd|sdf|6711|dock10
  -GOLD-   22720 7453D 1   1.00000     0.00000
 Structure written by MMmdl.
 39 40  0  0  0  0  0  0  0  0  1 V2000
  147.1257  141.0436  153.6069 C   0  0  0  0  0  0  0  0  0  0  0  0
  148.4633  140.5033  154.0309 C   0  0  0  0  0  0  0  0  0  0  0  0
  149.4064  141.3511  154.4150 N   0  0  0  0  0  0  0  0  0  0  0  0
  150.5520  140.5861  154.6834 O   0  0  0  0  0  0  0  0  0  0  0  0
  150.2704  139.2771  154.4538 C   0  0  0  0  0  0  0  0  0  0  0  0
  151.3746  138.2977  154.6676 C   0  0  0  0  0  0  0  0  0  0  0  0
  148.9664  139.1694  154.0701 C   0  0  0  0  0  0  0  0  0  0  0  0
  148.3291  137.9538  153.7175 N   0  0  0  0  0  0  0  0  0  0  0  0
  147.1881  137.4654  154.2264 C   0  0  0  0  0  0  0  0  0  0  0  0
  146.5476  137.9838  155.1404 O   0  0  0  0  0  0  0  0  0  0  0  0
  146.8368  136.3222  153.6206 N   0  0  0  0  0  0  0  0  0  0  0  0
  145.6471  135.5204  153.9138 C   0  0  2  0  0  0  0  0  0  0  0  0
  146.0436  134.0387  154.0708 C   0  0  0  0  0  0  0  0  0  0  0  0
  146.4667  133.4041  152.7344 C   0  0  0  0  0  0  0  0  0  0  0  0
  145.3755  133.5750  151.6669 C   0  0  0  0  0  0  0  0  0  0  0  0
  144.9899  135.0524  151.4903 C   0  0  0  0  0  0  0  0  0  0  0  0
  144.5539  135.6887  152.8265 C   0  0  2  0  0  0  0  0  0  0  0  0
  144.1040  137.1477  152.6378 C   0  0  0  0  0  0  0  0  0  0  0  0
  146.6826  140.4320  152.8211 H   0  0  0  0  0  0  0  0  0  0  0  0
  147.2106  142.0586  153.2174 H   0  0  0  0  0  0  0  0  0  0  0  0
  146.4306  141.0696  154.4462 H   0  0  0  0  0  0  0  0  0  0  0  0
  151.0844  137.3005  154.3370 H   0  0  0  0  0  0  0  0  0  0  0  0
  151.6383  138.2396  155.7233 H   0  0  0  0  0  0  0  0  0  0  0  0
  152.2648  138.5915  154.1115 H   0  0  0  0  0  0  0  0  0  0  0  0
  148.8258  137.3660  153.0642 H   0  0  0  0  0  0  0  0  0  0  0  0
  147.4351  135.9791  152.8836 H   0  0  0  0  0  0  0  0  0  0  0  0
  145.2271  135.8418  154.8687 H   0  0  0  0  0  0  0  0  0  0  0  0
  146.8455  133.9377  154.8031 H   0  0  0  0  0  0  0  0  0  0  0  0
  145.1958  133.4832  154.4739 H   0  0  0  0  0  0  0  0  0  0  0  0
  147.3946  133.8585  152.3854 H   0  0  0  0  0  0  0  0  0  0  0  0
  146.6803  132.3447  152.8792 H   0  0  0  0  0  0  0  0  0  0  0  0
  145.7181  133.1638  150.7171 H   0  0  0  0  0  0  0  0  0  0  0  0
  144.4934  132.9999  151.9513 H   0  0  0  0  0  0  0  0  0  0  0  0
  145.8340  135.6033  151.0731 H   0  0  0  0  0  0  0  0  0  0  0  0
  144.1835  135.1310  150.7606 H   0  0  0  0  0  0  0  0  0  0  0  0
  143.6775  135.1379  153.1720 H   0  0  0  0  0  0  0  0  0  0  0  0
  144.8990  137.7667  152.2217 H   0  0  0  0  0  0  0  0  0  0  0  0
  143.7989  137.5897  153.5867 H   0  0  0  0  0  0  0  0  0  0  0  0
  143.2534  137.2084  151.9586 H   0  0  0  0  0  0  0  0  0  0  0  0
  1  2  1  0  0  0  0
  1 19  1  0  0  0  0
  1 20  1  0  0  0  0
  1 21  1  0  0  0  0
  2  7  1  0  0  0  0
  2  3  2  0  0  0  0
  3  4  1  0  0  0  0
  4  5  1  0  0  0  0
  5  6  1  0  0  0  0
  5  7  2  0  0  0  0
  6 22  1  0  0  0  0
  6 23  1  0  0  0  0
  6 24  1  0  0  0  0
  7  8  1  0  0  0  0
  8  9  1  0  0  0  0
  8 25  1  0  0  0  0
  9 10  2  0  0  0  0
  9 11  1  0  0  0  0
 11 12  1  0  0  0  0
 11 26  1  0  0  0  0
 12 17  1  0  0  0  0
 12 13  1  0  0  0  0
 12 27  1  0  0  0  0
 13 14  1  0  0  0  0
 13 28  1  0  0  0  0
 13 29  1  0  0  0  0
 14 15  1  0  0  0  0
 14 30  1  0  0  0  0
 14 31  1  0  0  0  0
 15 16  1  0  0  0  0
 15 32  1  0  0  0  0
 15 33  1  0  0  0  0
 16 17  1  0  0  0  0
 16 34  1  0  0  0  0
 16 35  1  0  0  0  0
 17 18  1  0  0  0  0
 17 36  1  0  0  0  0
 18 37  1  0  0  0  0
 18 38  1  0  0  0  0
 18 39  1  0  0  0  0
M  END
> <s_m_source_file>
AV-unprocessed.smi

> <i_m_source_file_index>
1673

> <i_lp_mmshare_version>
43012

> <i_f3d_flags>
0

> <s_epik_input>
W0NIM11jMW5vYyhbQ0gzXSljMVtOSF1DKD1PKVtOSF1bQ0BASF0yW0NIMl1bQ0gyXVtDSDJdW0NIMl1bQ0BIXTJbQ0gzXQ==

> <s_epik_cmdline>
J2VwaWtfcHl0aG9uJywgJy1waCcsICc3LjAnLCAnLXRuJywgJzgnLCAnLW1hJywgJzIwMCcsICctbWV0YWxfYmluZGluZycsICctaW1hZScsICc8aW5maWxlLm1hZT4nLCAnLW9tYWUnLCAnPG91dGZpbGUubWFlPic=

> <r_lp_tautomer_probability>
1

> <r_epik_Ionization_Penalty>
4.01865e-05

> <r_epik_Ionization_Penalty_Charging>
0

> <r_epik_Ionization_Penalty_Neutral>
4.01865e-05

> <r_epik_State_Penalty>
-0

> <r_epik_Charging_Adjusted_Penalty>
0

> <i_epik_Tot_Q>
0

> <i_epik_Tot_abs_Q>
0

> <r_epik_Metal_State_Penalty>
-0

> <b_epik_Metal_Only>
0

> <s_lp_Force_Field>
OPLS_2005

> <r_lp_Energy>
11.4641

> <b_lp_Chiralities_Consistent>
1

> <s_lp_Variant>
AV-unprocessed.smi:1673-3

> <Gold.Version>
5.8.1

> <Gold.Id.Protein>
6NUR|6NUR_protein|mol2

> <Gold.PLP.Fitness>
34.9788

> <Gold.PLP.PLP>
-26.7729

> <Gold.PLP.part.hbond>
-4.7575

> <Gold.PLP.part.metal>
0.0000

> <Gold.PLP.part.buried>
0.2453

> <Gold.PLP.part.nonpolar>
-21.4250

> <Gold.PLP.part.repulsive>
0.3323

> <Gold.PLP.ligand.clash>
0.0000

> <Gold.PLP.ligand.torsion>
0.6682

> <Gold.PLP.Chemscore.Hbond>
3.1002

> <Gold.PLP.Chemscore.CHOScore>
0.0000

> <Gold.PLP.Chemscore.Metal>
0.0000

> <Gold.Chemscore.Hbonds>
donor molecule, donor type, donor heavy atom, donor atom, acceptor molecule, acceptor atom, score
      L1  H     8    25       P1  7948  1.00
      L1  H    11    26       P1  7948  0.98
      P1  H  7989  7998       L1     4  0.98
      P1  H  8011  8017       L1     3  0.10

> <Gold.PLP.Chemscore.Internal.Correction>
0.2416

> <Gold.Rescore>
     Score         DG    S(hbond)    S(metal)    S(lipo)     H(rot)  DE(clash)    DE(int)     intcor
     15.97     -16.65       1.94        0.00      61.85       1.00       0.04       0.64       ----

> <Gold.Chemscore.Fitness>
15.9741

> <Gold.Chemscore.DG>
-16.6460

> <Gold.Chemscore.ZeroCoef>
-5.4800

> <Gold.Chemscore.Hbond>
1.9429

> <Gold.Chemscore.Metal>
0.0000

> <Gold.Chemscore.Lipo>
61.8511

> <Gold.Chemscore.Internal_Hbond>
0.0000

> <Gold.Chemscore.DEClash>
0.0368

> <Gold.Chemscore.DEInternal>
0.6352

> <Gold.Chemscore.Rot>
1.0000

> <Gold.Chemscore.Internal.Correction>
   9.000000E+99

> <Gold.Chemscore.Hbonds>
donor molecule, donor type, donor heavy atom, donor atom, acceptor molecule, acceptor atom, score
      L1  H     8    25       P1  7948  0.98
      L1  H    11    26       P1  7948  0.93
      P1  H  7989  7998       L1     4  0.17
      P1  H  8011  8017       L1     3  0.01

> <Gold.Chemscore.Hbond.Weighted>
-6.4894

> <Gold.Chemscore.Metal.Weighted>
-0.0000

> <Gold.Chemscore.Lipo.Weighted>
-7.2366

> <Gold.Chemscore.Internal_Hbond.Weighted>
0.0000

> <Gold.Chemscore.DEClash.Weighted>
0.0368

> <Gold.Chemscore.DEInternal.Weighted>
0.6352

> <Gold.Chemscore.Rot.Weighted>
2.5600

> <Gold.Chemscore.Internal.Correction.Weighted>
   9.000000E+99

> <Gold.Protein.RotatedTorsions>
[ 6907 6896 6895 6894 ] final -115.89 input  -60.11 | X-H torsion
[ 7974 7965 7964 7962 ] final    1.13 input  175.53 | X-H torsion
[ 8008 7997 7996 7995 ] final -118.84 input   59.86 | X-H torsion
[ 10167 10162 10161 10158 ] final -122.06 input  -65.29 | X-H torsion
[ 10718 10713 10712 10709 ] final -163.40 input   66.30 | X-H torsion
[ 10763 10752 10751 10750 ] final -123.20 input  -60.55 | X-H torsion
[ 11005 11000 10999 10996 ] final -110.71 input  -57.11 | X-H torsion

> <Gold.Protein.ActiveResidues>
 VAL166  LYS551  ARG553  GLY616  TRP617  ASP618  TYR619  PRO620  LYS621  CYS622 
 ASP623  PHE694  ASN695  SER759  ASP760  ASP761  ALA762  ILE779  LEU786  VAL792 
 PHE793  MET794  SER795  GLU796  ALA797  LYS798  CYS799  TRP800  GLU811  SER814 

> <Gold.Protein.RotatedAtoms>
  150.8013  133.8594  159.3227 H   0  0  0  0  0  0  0  0  0  0  0  0  # atno 6907 bound_to 6896
  151.6405  135.1011  160.0150 H   0  0  0  0  0  0  0  0  0  0  0  0  # atno 6908 bound_to 6896
  152.4100  133.6909  159.6425 H   0  0  0  0  0  0  0  0  0  0  0  0  # atno 6909 bound_to 6896
  146.2438  140.1034  142.8347 H   0  0  0  0  0  0  0  0  0  0  0  0  # atno 7974 bound_to 7965
  155.1062  140.0396  157.2711 H   0  0  0  0  0  0  0  0  0  0  0  0  # atno 8008 bound_to 7997
  154.6720  140.2614  155.6971 H   0  0  0  0  0  0  0  0  0  0  0  0  # atno 8009 bound_to 7997
  156.2662  140.2795  156.1233 H   0  0  0  0  0  0  0  0  0  0  0  0  # atno 8010 bound_to 7997
  140.0184  143.5370  152.2232 H   0  0  0  0  0  0  0  0  0  0  0  0  # atno 10167 bound_to 10162
  156.6241  130.8902  151.2964 H   0  0  0  0  0  0  0  0  0  0  0  0  # atno 10718 bound_to 10713
  154.8703  135.4106  154.2904 H   0  0  0  0  0  0  0  0  0  0  0  0  # atno 10763 bound_to 10752
  153.3781  135.7010  153.6592 H   0  0  0  0  0  0  0  0  0  0  0  0  # atno 10764 bound_to 10752
  153.5425  135.3645  155.2696 H   0  0  0  0  0  0  0  0  0  0  0  0  # atno 10765 bound_to 10752
  141.0776  133.9275  157.2357 H   0  0  0  0  0  0  0  0  0  0  0  0  # atno 11005 bound_to 11000
  145.0549  140.9045  143.4973 LP  0  0  0  0  0  0  0  0  0  0  0  0  # atno 17320 bound_to 7965
  145.1138  139.2739  143.5623 LP  0  0  0  0  0  0  0  0  0  0  0  0  # atno 17321 bound_to 7965
  139.6157  144.7619  151.2852 LP  0  0  0  0  0  0  0  0  0  0  0  0  # atno 17342 bound_to 10162
  140.7353  143.6741  150.8056 LP  0  0  0  0  0  0  0  0  0  0  0  0  # atno 17343 bound_to 10162
  157.7219  130.9570  150.1473 LP  0  0  0  0  0  0  0  0  0  0  0  0  # atno 17370 bound_to 10713
  156.2287  130.3680  149.8470 LP  0  0  0  0  0  0  0  0  0  0  0  0  # atno 17371 bound_to 10713
  139.9589  135.0159  156.9205 LP  0  0  0  0  0  0  0  0  0  0  0  0  # atno 17394 bound_to 11000
  140.5539  134.0600  155.7377 LP  0  0  0  0  0  0  0  0  0  0  0  0  # atno 17395 bound_to 11000

$$$$
