AV-unprocessed.smi:157|AV-procd|sdf|1298|dock7
  -GOLD-   2262018583D 1   1.00000     0.00000
 Structure written by MMmdl.
 35 37  0  0  0  0  0  0  0  0  1 V2000
  152.6038  137.2722  155.2496 O   0  0  0  0  0  0  0  0  0  0  0  0
  151.1986  137.3316  155.1217 C   0  0  0  0  0  0  0  0  0  0  0  0
  150.7658  138.6319  154.4123 C   0  0  2  0  0  0  0  0  0  0  0  0
  151.4721  139.7097  155.0296 O   0  0  0  0  0  0  0  0  0  0  0  0
  150.6050  140.5040  155.7864 C   0  0  2  0  0  0  0  0  0  0  0  0
  151.1833  140.6877  157.1550 N   0  0  0  0  0  0  0  0  0  0  0  0
  151.5058  139.7185  158.0223 C   0  0  0  0  0  0  0  0  0  0  0  0
  151.9875  140.1507  159.1752 N   0  0  0  0  0  0  0  0  0  0  0  0
  151.9777  141.5381  159.0442 C   0  0  0  0  0  0  0  0  0  0  0  0
  151.4821  141.8923  157.7976 C   0  0  0  0  0  0  0  0  0  0  0  0
  151.2283  143.0727  157.1255 N   0  0  0  0  0  0  0  0  0  0  0  0
  151.8089  144.1508  157.5493 C   0  0  0  0  0  0  0  0  0  0  0  0
  152.6084  144.3588  158.6642 N   0  0  0  0  0  0  0  0  0  0  0  0
  152.2533  143.9012  159.9968 C   0  0  0  0  0  0  0  0  0  0  0  0
  152.4313  142.3907  160.1938 C   0  0  2  0  0  0  0  0  0  0  0  0
  153.7990  142.1055  160.4046 O   0  0  0  0  0  0  0  0  0  0  0  0
  149.2727  139.7647  155.8715 C   0  0  0  0  0  0  0  0  0  0  0  0
  149.2833  139.0187  154.5564 C   0  0  2  0  0  0  0  0  0  0  0  0
  148.3835  137.9290  154.5671 O   0  0  0  0  0  0  0  0  0  0  0  0
  151.0527  138.5856  153.3609 H   0  0  0  0  0  0  0  0  0  0  0  0
  150.5331  141.5001  155.3483 H   0  0  0  0  0  0  0  0  0  0  0  0
  151.9045  142.0972  161.1024 H   0  0  0  0  0  0  0  0  0  0  0  0
  149.0061  139.7005  153.7510 H   0  0  0  0  0  0  0  0  0  0  0  0
  152.8591  137.7847  156.0017 H   0  0  0  0  0  0  0  0  0  0  0  0
  150.8315  136.4467  154.6018 H   0  0  0  0  0  0  0  0  0  0  0  0
  150.7808  137.3043  156.1284 H   0  0  0  0  0  0  0  0  0  0  0  0
  151.3805  138.6678  157.8075 H   0  0  0  0  0  0  0  0  0  0  0  0
  151.6736  145.0702  156.9780 H   0  0  0  0  0  0  0  0  0  0  0  0
  153.1701  145.1970  158.7038 H   0  0  0  0  0  0  0  0  0  0  0  0
  152.8183  144.4594  160.7438 H   0  0  0  0  0  0  0  0  0  0  0  0
  151.2044  144.1551  160.1567 H   0  0  0  0  0  0  0  0  0  0  0  0
  154.3079  142.6767  159.8494 H   0  0  0  0  0  0  0  0  0  0  0  0
  149.2833  139.0749  156.7174 H   0  0  0  0  0  0  0  0  0  0  0  0
  148.4394  140.4591  155.9838 H   0  0  0  0  0  0  0  0  0  0  0  0
  148.5349  137.4076  153.7934 H   0  0  0  0  0  0  0  0  0  0  0  0
  1  2  1  0  0  0  0
  1 24  1  0  0  0  0
  2  3  1  0  0  0  0
  2 25  1  0  0  0  0
  2 26  1  0  0  0  0
  3 20  1  0  0  0  0
  3 18  1  0  0  0  0
  3  4  1  0  0  0  0
  4  5  1  0  0  0  0
  5 21  1  0  0  0  0
  5  6  1  0  0  0  0
  5 17  1  0  0  0  0
  6 10  1  0  0  0  0
  6  7  1  0  0  0  0
  7  8  2  0  0  0  0
  7 27  1  0  0  0  0
  8  9  1  0  0  0  0
  9 15  1  0  0  0  0
  9 10  2  0  0  0  0
 10 11  1  0  0  0  0
 11 12  2  0  0  0  0
 12 13  1  0  0  0  0
 12 28  1  0  0  0  0
 13 14  1  0  0  0  0
 13 29  1  0  0  0  0
 14 15  1  0  0  0  0
 14 30  1  0  0  0  0
 14 31  1  0  0  0  0
 15 22  1  0  0  0  0
 15 16  1  0  0  0  0
 16 32  1  0  0  0  0
 17 18  1  0  0  0  0
 17 33  1  0  0  0  0
 17 34  1  0  0  0  0
 18 23  1  0  0  0  0
 18 19  1  0  0  0  0
 19 35  1  0  0  0  0
M  END
> <s_m_source_file>
AV-unprocessed.smi

> <i_m_source_file_index>
157

> <i_lp_mmshare_version>
43012

> <i_f3d_flags>
0

> <s_epik_input>
W09IXVtDSDJdW0NASF0xT1tDQEhdKFtDSDJdW0NAQEhdMVtPSF0pbihbY0hdbjIpYyhjMjMpTj1bQ0hdW05IXVtDSDJdW0NASF0zW09IXQ==

> <s_epik_cmdline>
J2VwaWtfcHl0aG9uJywgJy1waCcsICc3LjAnLCAnLXRuJywgJzgnLCAnLW1hJywgJzIwMCcsICctbWV0YWxfYmluZGluZycsICctaW1hZScsICc8aW5maWxlLm1hZT4nLCAnLW9tYWUnLCAnPG91dGZpbGUubWFlPic=

> <r_lp_tautomer_probability>
1

> <r_epik_Ionization_Penalty>
0.0357149

> <r_epik_Ionization_Penalty_Charging>
0.0355056

> <r_epik_Ionization_Penalty_Neutral>
0.000209255

> <r_epik_State_Penalty>
0.0296046

> <r_epik_Charging_Adjusted_Penalty>
0.0651102

> <i_epik_Tot_Q>
0

> <i_epik_Tot_abs_Q>
0

> <r_epik_Metal_State_Penalty>
3.03559e-05

> <b_epik_Metal_Only>
0

> <s_epik_Chemistry_Notes>
This compound has an imine and may undergo hydrolysis. This compound contains an acetal/aminal-like group ( X-CH(R)-Y where X, Y are N, S, or O) that may be acid/base labile, releasing an aldehyde.

> <s_lp_Force_Field>
OPLS_2005

> <r_lp_Energy>
46.5194

> <b_lp_Chiralities_Consistent>
1

> <s_lp_Variant>
AV-unprocessed.smi:157-8

> <Gold.Version>
5.8.1

> <Gold.Id.Protein>
6NUR|6NUR_protein|mol2

> <Gold.PLP.Fitness>
42.6306

> <Gold.PLP.PLP>
-36.1635

> <Gold.PLP.part.hbond>
-2.8681

> <Gold.PLP.part.metal>
0.0000

> <Gold.PLP.part.buried>
-6.8255

> <Gold.PLP.part.nonpolar>
-26.8056

> <Gold.PLP.part.repulsive>
0.2127

> <Gold.PLP.ligand.clash>
0.0000

> <Gold.PLP.ligand.torsion>
0.1142

> <Gold.PLP.Chemscore.Hbond>
2.2280

> <Gold.PLP.Chemscore.CHOScore>
0.0000

> <Gold.PLP.Chemscore.Metal>
0.0000

> <Gold.Chemscore.Hbonds>
donor molecule, donor type, donor heavy atom, donor atom, acceptor molecule, acceptor atom, score
      L1  H    19    35       P1  7948  0.36
      P1  H  7989  7998       L1     4  0.90
      P1  H 10752 10763       L1     1  0.58

> <Gold.PLP.Chemscore.Internal.Correction>
0.0117

> <Gold.Rescore>
     Score         DG    S(hbond)    S(metal)    S(lipo)     H(rot)  DE(clash)    DE(int)     intcor
      6.37      -6.42       1.04        0.00      57.89       3.64       0.04       0.01       ----

> <Gold.Chemscore.Fitness>
6.3683

> <Gold.Chemscore.DG>
-6.4206

> <Gold.Chemscore.ZeroCoef>
-5.4800

> <Gold.Chemscore.Hbond>
1.0406

> <Gold.Chemscore.Metal>
0.0000

> <Gold.Chemscore.Lipo>
57.8944

> <Gold.Chemscore.Internal_Hbond>
0.0000

> <Gold.Chemscore.DEClash>
0.0382

> <Gold.Chemscore.DEInternal>
0.0141

> <Gold.Chemscore.Rot>
3.6362

> <Gold.Chemscore.Internal.Correction>
   9.000000E+99

> <Gold.Chemscore.Hbonds>
donor molecule, donor type, donor heavy atom, donor atom, acceptor molecule, acceptor atom, score
      L1  H    19    35       P1  7948  0.35
      P1  H  7989  7998       L1     4  0.05
      P1  H 10752 10763       L1     1  0.29

> <Gold.Chemscore.Hbond.Weighted>
-3.4757

> <Gold.Chemscore.Metal.Weighted>
-0.0000

> <Gold.Chemscore.Lipo.Weighted>
-6.7736

> <Gold.Chemscore.Internal_Hbond.Weighted>
0.0000

> <Gold.Chemscore.DEClash.Weighted>
0.0382

> <Gold.Chemscore.DEInternal.Weighted>
0.0141

> <Gold.Chemscore.Rot.Weighted>
9.3087

> <Gold.Chemscore.Internal.Correction.Weighted>
   9.000000E+99

> <Gold.Protein.RotatedTorsions>
[ 6907 6896 6895 6894 ] final  -16.21 input  -60.11 | X-H torsion
[ 7974 7965 7964 7962 ] final -113.35 input  175.53 | X-H torsion
[ 8008 7997 7996 7995 ] final -162.00 input   59.86 | X-H torsion
[ 10167 10162 10161 10158 ] final  -12.35 input  -65.29 | X-H torsion
[ 10718 10713 10712 10709 ] final  147.11 input   66.30 | X-H torsion
[ 10763 10752 10751 10750 ] final   74.22 input  -60.55 | X-H torsion
[ 11005 11000 10999 10996 ] final  -20.28 input  -57.11 | X-H torsion

> <Gold.Protein.ActiveResidues>
 VAL166  LYS551  ARG553  GLY616  TRP617  ASP618  TYR619  PRO620  LYS621  CYS622 
 ASP623  PHE694  ASN695  SER759  ASP760  ASP761  ALA762  ILE779  LEU786  VAL792 
 PHE793  MET794  SER795  GLU796  ALA797  LYS798  CYS799  TRP800  GLU811  SER814 

> <Gold.Protein.RotatedAtoms>
  151.3121  135.0797  159.9275 H   0  0  0  0  0  0  0  0  0  0  0  0  # atno 6907 bound_to 6896
  152.5275  133.9725  159.7779 H   0  0  0  0  0  0  0  0  0  0  0  0  # atno 6908 bound_to 6896
  151.0031  133.5985  159.2722 H   0  0  0  0  0  0  0  0  0  0  0  0  # atno 6909 bound_to 6896
  145.1331  140.8736  143.3746 H   0  0  0  0  0  0  0  0  0  0  0  0  # atno 7974 bound_to 7965
  155.8005  140.0891  157.1960 H   0  0  0  0  0  0  0  0  0  0  0  0  # atno 8008 bound_to 7997
  154.3982  140.1473  156.3327 H   0  0  0  0  0  0  0  0  0  0  0  0  # atno 8009 bound_to 7997
  155.8468  140.3436  155.5670 H   0  0  0  0  0  0  0  0  0  0  0  0  # atno 8010 bound_to 7997
  140.7159  143.5542  150.9267 H   0  0  0  0  0  0  0  0  0  0  0  0  # atno 10167 bound_to 10162
  157.3250  131.0910  151.1210 H   0  0  0  0  0  0  0  0  0  0  0  0  # atno 10718 bound_to 10713
  153.0572  135.5034  154.8010 H   0  0  0  0  0  0  0  0  0  0  0  0  # atno 10763 bound_to 10752
  154.6826  135.2971  154.9594 H   0  0  0  0  0  0  0  0  0  0  0  0  # atno 10764 bound_to 10752
  154.0375  135.6721  153.4839 H   0  0  0  0  0  0  0  0  0  0  0  0  # atno 10765 bound_to 10752
  140.8449  133.7899  155.9901 H   0  0  0  0  0  0  0  0  0  0  0  0  # atno 11005 bound_to 11000
  145.0613  139.3103  143.5879 LP  0  0  0  0  0  0  0  0  0  0  0  0  # atno 17320 bound_to 7965
  146.3512  140.0056  142.8672 LP  0  0  0  0  0  0  0  0  0  0  0  0  # atno 17321 bound_to 7965
  139.9267  143.6542  152.3085 LP  0  0  0  0  0  0  0  0  0  0  0  0  # atno 17342 bound_to 10162
  139.6978  144.7639  151.1326 LP  0  0  0  0  0  0  0  0  0  0  0  0  # atno 17343 bound_to 10162
  157.2480  130.6600  149.5919 LP  0  0  0  0  0  0  0  0  0  0  0  0  # atno 17370 bound_to 10713
  155.9689  130.4547  150.5861 LP  0  0  0  0  0  0  0  0  0  0  0  0  # atno 17371 bound_to 10713
  140.8854  134.2560  157.5122 LP  0  0  0  0  0  0  0  0  0  0  0  0  # atno 17394 bound_to 11000
  139.8703  134.9636  156.4466 LP  0  0  0  0  0  0  0  0  0  0  0  0  # atno 17395 bound_to 11000

$$$$
