AV-unprocessed.smi:3028|AV-procd|sdf|11517|dock2
  -GOLD-   2272016453D 1   1.00000     0.00000
 Structure written by MMmdl.
 48 49  0  0  0  0  0  0  0  0  2 V2000
  151.2317  142.5495  157.8400 C   0  0  0  0  0  0  0  0  0  0  0  0
  150.1682  141.8953  157.0061 C   0  0  0  0  0  0  0  0  0  0  0  0
  148.9120  141.3810  157.4351 C   0  0  0  0  0  0  0  0  0  0  0  0
  148.2017  140.8674  156.4443 N   0  0  0  0  0  0  0  0  0  0  0  0
  148.9758  141.0298  155.3501 N   0  0  0  0  0  0  0  0  0  0  0  0
  148.4972  140.5721  154.0518 C   0  0  2  0  0  0  0  0  0  0  0  0
  147.2244  141.3479  153.6666 C   0  0  0  0  0  0  0  0  0  0  0  0
  148.3093  139.0316  154.0167 C   0  0  2  0  0  0  0  0  0  0  0  0
  149.5128  138.2628  154.5919 C   0  0  0  0  0  0  0  0  0  0  0  0
  148.0704  138.5704  152.6307 N   0  3  0  0  0  0  0  0  0  0  0  0
  146.6840  138.7406  152.1444 C   0  0  0  0  0  0  0  0  0  0  0  0
  145.8649  137.4477  152.2522 C   0  0  0  0  0  0  0  0  0  0  0  0
  144.7198  137.4812  152.7000 O   0  0  0  0  0  0  0  0  0  0  0  0
  146.4123  136.2861  151.8562 N   0  0  0  0  0  0  0  0  0  0  0  0
  145.8141  134.9516  151.8725 C   0  0  0  0  0  0  0  0  0  0  0  0
  146.8583  133.9054  151.4536 C   0  0  0  0  0  0  0  0  0  0  0  0
  146.2072  132.5230  151.2851 C   0  0  0  0  0  0  0  0  0  0  0  0
  145.1380  132.5981  150.3485 O   0  0  0  0  0  0  0  0  0  0  0  0
  144.0909  133.4659  150.7691 C   0  0  0  0  0  0  0  0  0  0  0  0
  144.6222  134.9022  150.9044 C   0  0  0  0  0  0  0  0  0  0  0  0
  150.1696  141.6491  155.6625 C   0  0  0  0  0  0  0  0  0  0  0  0
  150.9141  142.6763  158.8752 H   0  0  0  0  0  0  0  0  0  0  0  0
  151.4895  143.5383  157.4602 H   0  0  0  0  0  0  0  0  0  0  0  0
  152.1491  141.9607  157.8555 H   0  0  0  0  0  0  0  0  0  0  0  0
  148.4970  141.3669  158.4323 H   0  0  0  0  0  0  0  0  0  0  0  0
  149.2641  140.8279  153.3176 H   0  0  0  0  0  0  0  0  0  0  0  0
  146.9236  141.1393  152.6401 H   0  0  0  0  0  0  0  0  0  0  0  0
  147.3873  142.4240  153.7386 H   0  0  0  0  0  0  0  0  0  0  0  0
  146.3875  141.0950  154.3183 H   0  0  0  0  0  0  0  0  0  0  0  0
  147.4457  138.7726  154.6317 H   0  0  0  0  0  0  0  0  0  0  0  0
  149.6676  138.4808  155.6488 H   0  0  0  0  0  0  0  0  0  0  0  0
  150.4329  138.5134  154.0628 H   0  0  0  0  0  0  0  0  0  0  0  0
  149.3645  137.1857  154.5085 H   0  0  0  0  0  0  0  0  0  0  0  0
  148.6957  139.0676  152.0125 H   0  0  0  0  0  0  0  0  0  0  0  0
  146.1994  139.5237  152.7290 H   0  0  0  0  0  0  0  0  0  0  0  0
  146.7027  139.0632  151.1031 H   0  0  0  0  0  0  0  0  0  0  0  0
  147.3588  136.3326  151.5060 H   0  0  0  0  0  0  0  0  0  0  0  0
  145.4479  134.6845  152.8635 H   0  0  0  0  0  0  0  0  0  0  0  0
  147.3206  134.1985  150.5097 H   0  0  0  0  0  0  0  0  0  0  0  0
  147.6602  133.8540  152.1910 H   0  0  0  0  0  0  0  0  0  0  0  0
  146.9428  131.8049  150.9223 H   0  0  0  0  0  0  0  0  0  0  0  0
  145.8408  132.1468  152.2415 H   0  0  0  0  0  0  0  0  0  0  0  0
  143.2878  133.4314  150.0326 H   0  0  0  0  0  0  0  0  0  0  0  0
  143.6710  133.1155  151.7133 H   0  0  0  0  0  0  0  0  0  0  0  0
  143.8268  135.5642  151.2488 H   0  0  0  0  0  0  0  0  0  0  0  0
  144.9255  135.2633  149.9205 H   0  0  0  0  0  0  0  0  0  0  0  0
  150.9146  141.8632  154.9102 H   0  0  0  0  0  0  0  0  0  0  0  0
  148.2936  137.5866  152.5798 H   0  0  0  0  0  0  0  0  0  0  0  0
  1  2  1  0  0  0  0
  1 22  1  0  0  0  0
  1 23  1  0  0  0  0
  1 24  1  0  0  0  0
  2 21  2  0  0  0  0
  2  3  1  0  0  0  0
  3  4  2  0  0  0  0
  3 25  1  0  0  0  0
  4  5  1  0  0  0  0
  5  6  1  0  0  0  0
  5 21  1  0  0  0  0
  6  7  1  0  0  0  0
  6  8  1  0  0  0  0
  6 26  1  0  0  0  0
  7 27  1  0  0  0  0
  7 28  1  0  0  0  0
  7 29  1  0  0  0  0
  8  9  1  0  0  0  0
  8 10  1  0  0  0  0
  8 30  1  0  0  0  0
  9 31  1  0  0  0  0
  9 32  1  0  0  0  0
  9 33  1  0  0  0  0
 10 11  1  0  0  0  0
 10 34  1  0  0  0  0
 10 48  1  0  0  0  0
 11 12  1  0  0  0  0
 11 35  1  0  0  0  0
 11 36  1  0  0  0  0
 12 13  2  0  0  0  0
 12 14  1  0  0  0  0
 14 15  1  0  0  0  0
 14 37  1  0  0  0  0
 15 20  1  0  0  0  0
 15 16  1  0  0  0  0
 15 38  1  0  0  0  0
 16 17  1  0  0  0  0
 16 39  1  0  0  0  0
 16 40  1  0  0  0  0
 17 18  1  0  0  0  0
 17 41  1  0  0  0  0
 17 42  1  0  0  0  0
 18 19  1  0  0  0  0
 19 20  1  0  0  0  0
 19 43  1  0  0  0  0
 19 44  1  0  0  0  0
 20 45  1  0  0  0  0
 20 46  1  0  0  0  0
 21 47  1  0  0  0  0
M  CHG  1  10   1
M  END
> <s_m_source_file>
AV-unprocessed.smi

> <i_m_source_file_index>
3028

> <i_lp_mmshare_version>
43012

> <i_f3d_flags>
0

> <s_epik_input>
W0NIM11jMVtjSF1ubihbY0hdMSlbQ0BIXShbQ0gzXSlbQ0BIXShbQ0gzXSlbTkhdW0NIMl1DKD1PKVtOSF1bQ0hdMltDSDJdW0NIMl1PW0NIMl1bQ0gyXTI=

> <s_epik_cmdline>
J2VwaWtfcHl0aG9uJywgJy1waCcsICc3LjAnLCAnLXRuJywgJzgnLCAnLW1hJywgJzIwMCcsICctbWV0YWxfYmluZGluZycsICctaW1hZScsICc8aW5maWxlLm1hZT4nLCAnLW9tYWUnLCAnPG91dGZpbGUubWFlPic=

> <r_lp_tautomer_probability>
1

> <r_epik_Ionization_Penalty>
0.151514

> <r_epik_Ionization_Penalty_Charging>
0.151494

> <r_epik_Ionization_Penalty_Neutral>
1.95502e-05

> <r_epik_State_Penalty>
0.141395

> <r_epik_Charging_Adjusted_Penalty>
0.292889

> <i_epik_Tot_Q>
1

> <i_epik_Tot_abs_Q>
1

> <r_epik_Metal_State_Penalty>
0.141632

> <b_epik_Metal_Only>
0

> <s_lp_Force_Field>
OPLS_2005

> <r_lp_Energy>
18.1204

> <b_lp_Chiralities_Consistent>
1

> <s_lp_Variant>
AV-unprocessed.smi:3028-1

> <Gold.Version>
5.8.1

> <Gold.Id.Protein>
6NUR|6NUR_protein|mol2

> <Gold.PLP.Fitness>
50.0429

> <Gold.PLP.PLP>
-39.4647

> <Gold.PLP.part.hbond>
-3.0000

> <Gold.PLP.part.metal>
0.0000

> <Gold.PLP.part.buried>
-5.5963

> <Gold.PLP.part.nonpolar>
-32.3468

> <Gold.PLP.part.repulsive>
0.5360

> <Gold.PLP.ligand.clash>
0.0000

> <Gold.PLP.ligand.torsion>
0.8329

> <Gold.PLP.Chemscore.Hbond>
3.9760

> <Gold.PLP.Chemscore.CHOScore>
0.0000

> <Gold.PLP.Chemscore.Metal>
0.0000

> <Gold.Chemscore.Hbonds>
donor molecule, donor type, donor heavy atom, donor atom, acceptor molecule, acceptor atom, score
      L1  H    10    34       P1  7957  1.00
      L1  H    10    48       P1  7948  2.00
      L1  H    14    37       P1  7948  0.98

> <Gold.PLP.Chemscore.Internal.Correction>
0.3161

> <Gold.Rescore>
     Score         DG    S(hbond)    S(metal)    S(lipo)     H(rot)  DE(clash)    DE(int)     intcor
     19.50     -20.59       2.89        0.00      90.31       1.99       0.11       0.98       ----

> <Gold.Chemscore.Fitness>
19.5016

> <Gold.Chemscore.DG>
-20.5911

> <Gold.Chemscore.ZeroCoef>
-5.4800

> <Gold.Chemscore.Hbond>
2.8857

> <Gold.Chemscore.Metal>
0.0000

> <Gold.Chemscore.Lipo>
90.3117

> <Gold.Chemscore.Internal_Hbond>
0.0000

> <Gold.Chemscore.DEClash>
0.1101

> <Gold.Chemscore.DEInternal>
0.9794

> <Gold.Chemscore.Rot>
1.9897

> <Gold.Chemscore.Internal.Correction>
   9.000000E+99

> <Gold.Chemscore.Hbonds>
donor molecule, donor type, donor heavy atom, donor atom, acceptor molecule, acceptor atom, score
      L1  H    10    34       P1  7957  0.93
      L1  H    10    48       P1  7948  0.97
      L1  H    14    37       P1  7948  0.92

> <Gold.Chemscore.Hbond.Weighted>
-9.6382

> <Gold.Chemscore.Metal.Weighted>
-0.0000

> <Gold.Chemscore.Lipo.Weighted>
-10.5665

> <Gold.Chemscore.Internal_Hbond.Weighted>
0.0000

> <Gold.Chemscore.DEClash.Weighted>
0.1101

> <Gold.Chemscore.DEInternal.Weighted>
0.9794

> <Gold.Chemscore.Rot.Weighted>
5.0936

> <Gold.Chemscore.Internal.Correction.Weighted>
   9.000000E+99

> <Gold.Protein.RotatedTorsions>
[ 6907 6896 6895 6894 ] final    6.55 input  -60.11 | X-H torsion
[ 7974 7965 7964 7962 ] final   82.97 input  175.53 | X-H torsion
[ 8008 7997 7996 7995 ] final  -54.61 input   59.86 | X-H torsion
[ 10167 10162 10161 10158 ] final   62.57 input  -65.29 | X-H torsion
[ 10718 10713 10712 10709 ] final  -47.26 input   66.30 | X-H torsion
[ 10763 10752 10751 10750 ] final -122.29 input  -60.55 | X-H torsion
[ 11005 11000 10999 10996 ] final  -14.32 input  -57.11 | X-H torsion

> <Gold.Protein.ActiveResidues>
 VAL166  LYS551  ARG553  GLY616  TRP617  ASP618  TYR619  PRO620  LYS621  CYS622 
 ASP623  PHE694  ASN695  SER759  ASP760  ASP761  ALA762  ILE779  LEU786  VAL792 
 PHE793  MET794  SER795  GLU796  ALA797  LYS798  CYS799  TRP800  GLU811  SER814 

> <Gold.Protein.RotatedAtoms>
  151.6754  135.0970  160.0205 H   0  0  0  0  0  0  0  0  0  0  0  0  # atno 6907 bound_to 6896
  152.3867  133.6616  159.6212 H   0  0  0  0  0  0  0  0  0  0  0  0  # atno 6908 bound_to 6896
  150.7791  133.8940  159.3363 H   0  0  0  0  0  0  0  0  0  0  0  0  # atno 6909 bound_to 6896
  145.6180  139.2380  143.2154 H   0  0  0  0  0  0  0  0  0  0  0  0  # atno 7974 bound_to 7965
  154.4168  140.1172  156.5342 H   0  0  0  0  0  0  0  0  0  0  0  0  # atno 8008 bound_to 7997
  155.6574  140.3496  155.4751 H   0  0  0  0  0  0  0  0  0  0  0  0  # atno 8009 bound_to 7997
  155.9742  140.1147  157.0775 H   0  0  0  0  0  0  0  0  0  0  0  0  # atno 8010 bound_to 7997
  140.1425  144.4540  150.6803 H   0  0  0  0  0  0  0  0  0  0  0  0  # atno 10167 bound_to 10162
  156.2102  130.4160  149.9125 H   0  0  0  0  0  0  0  0  0  0  0  0  # atno 10718 bound_to 10713
  154.8686  135.4138  154.2758 H   0  0  0  0  0  0  0  0  0  0  0  0  # atno 10763 bound_to 10752
  153.3660  135.7005  153.6680 H   0  0  0  0  0  0  0  0  0  0  0  0  # atno 10764 bound_to 10752
  153.5562  135.3619  155.2752 H   0  0  0  0  0  0  0  0  0  0  0  0  # atno 10765 bound_to 10752
  140.7852  133.8331  155.9328 H   0  0  0  0  0  0  0  0  0  0  0  0  # atno 11005 bound_to 11000
  146.1453  140.7001  142.9348 LP  0  0  0  0  0  0  0  0  0  0  0  0  # atno 17320 bound_to 7965
  144.7242  140.4473  143.6985 LP  0  0  0  0  0  0  0  0  0  0  0  0  # atno 17321 bound_to 7965
  140.6752  143.2302  151.5526 LP  0  0  0  0  0  0  0  0  0  0  0  0  # atno 17342 bound_to 10162
  139.5465  144.2508  152.1451 LP  0  0  0  0  0  0  0  0  0  0  0  0  # atno 17343 bound_to 10162
  156.6806  130.8856  151.3575 LP  0  0  0  0  0  0  0  0  0  0  0  0  # atno 17370 bound_to 10713
  157.7034  130.9358  150.0855 LP  0  0  0  0  0  0  0  0  0  0  0  0  # atno 17371 bound_to 10713
  140.9444  134.1860  157.4774 LP  0  0  0  0  0  0  0  0  0  0  0  0  # atno 17394 bound_to 11000
  139.8737  134.9884  156.5413 LP  0  0  0  0  0  0  0  0  0  0  0  0  # atno 17395 bound_to 11000

$$$$
