AV-unprocessed.smi:1560|AV-procd|sdf|6282|dock3
  -GOLD-   22720 6483D 1   1.00000     0.00000
 Structure written by MMmdl.
 47 48  0  0  0  0  0  0  0  0  3 V2000
  149.4018  132.1217  154.1289 C   0  0  0  0  0  0  0  0  0  0  0  0
  149.5513  133.6260  154.4181 C   0  0  0  0  0  0  0  0  0  0  0  0
  148.2292  134.3832  154.7535 C   0  0  2  0  0  0  0  0  0  0  0  0
  148.6285  135.7574  155.3551 C   0  0  0  0  0  0  0  0  0  0  0  0
  147.4229  133.5597  155.8077 C   0  0  0  0  0  0  0  0  0  0  0  0
  148.0488  133.5417  157.1279 N   0  0  0  0  0  0  0  0  0  0  0  0
  147.4000  133.5594  158.3017 C   0  0  0  0  0  0  0  0  0  0  0  0
  146.1736  133.5169  158.4016 O   0  0  0  0  0  0  0  0  0  0  0  0
  148.2741  133.6425  159.5569 C   0  0  0  0  0  0  0  0  0  0  0  0
  147.8862  134.7786  160.4064 N   0  0  0  0  0  0  0  0  0  0  0  0
  146.8898  134.5650  161.3750 C   0  0  0  0  0  0  0  0  0  0  0  0
  146.4628  135.5531  162.1841 C   0  0  0  0  0  0  0  0  0  0  0  0
  147.0621  136.8738  162.0369 C   0  0  0  0  0  0  0  0  0  0  0  0
  146.6864  137.7874  162.7689 O   0  0  0  0  0  0  0  0  0  0  0  0
  148.0228  137.0319  161.0798 N   0  5  0  0  0  0  0  0  0  0  0  0
  148.4451  136.0187  160.2619 C   0  0  0  0  0  0  0  0  0  0  0  0
  149.3080  136.1852  159.3982 O   0  0  0  0  0  0  0  0  0  0  0  0
  147.4133  134.5874  153.5010 N   0  3  0  0  0  0  0  0  0  0  0  0
  147.0200  133.3490  152.7710 C   0  0  0  0  0  0  0  0  0  0  0  0
  146.3858  133.7017  151.4159 C   0  0  0  0  0  0  0  0  0  0  0  0
  145.2532  134.5329  151.6247 O   0  0  0  0  0  0  0  0  0  0  0  0
  145.6087  135.7589  152.2480 C   0  0  0  0  0  0  0  0  0  0  0  0
  146.2295  135.4848  153.6286 C   0  0  0  0  0  0  0  0  0  0  0  0
  150.3732  131.6799  153.9058 H   0  0  0  0  0  0  0  0  0  0  0  0
  148.7601  131.9366  153.2678 H   0  0  0  0  0  0  0  0  0  0  0  0
  148.9889  131.5819  154.9809 H   0  0  0  0  0  0  0  0  0  0  0  0
  150.2823  133.7614  155.2148 H   0  0  0  0  0  0  0  0  0  0  0  0
  150.0197  134.0802  153.5437 H   0  0  0  0  0  0  0  0  0  0  0  0
  149.4107  135.6586  156.1083 H   0  0  0  0  0  0  0  0  0  0  0  0
  147.7897  136.2474  155.8495 H   0  0  0  0  0  0  0  0  0  0  0  0
  149.0066  136.4401  154.5939 H   0  0  0  0  0  0  0  0  0  0  0  0
  146.3979  133.9224  155.8888 H   0  0  0  0  0  0  0  0  0  0  0  0
  147.3454  132.5171  155.5014 H   0  0  0  0  0  0  0  0  0  0  0  0
  149.0577  133.5808  157.1531 H   0  0  0  0  0  0  0  0  0  0  0  0
  148.1817  132.7026  160.1022 H   0  0  0  0  0  0  0  0  0  0  0  0
  149.3291  133.7158  159.2857 H   0  0  0  0  0  0  0  0  0  0  0  0
  146.4929  133.5612  161.4136 H   0  0  0  0  0  0  0  0  0  0  0  0
  145.6934  135.3740  162.9206 H   0  0  0  0  0  0  0  0  0  0  0  0
  147.8761  132.7032  152.5863 H   0  0  0  0  0  0  0  0  0  0  0  0
  146.3035  132.7746  153.3584 H   0  0  0  0  0  0  0  0  0  0  0  0
  147.1062  134.1976  150.7631 H   0  0  0  0  0  0  0  0  0  0  0  0
  146.0649  132.7940  150.9045 H   0  0  0  0  0  0  0  0  0  0  0  0
  146.3009  136.3159  151.6142 H   0  0  0  0  0  0  0  0  0  0  0  0
  144.7136  136.3721  152.3550 H   0  0  0  0  0  0  0  0  0  0  0  0
  145.4820  135.0334  154.2812 H   0  0  0  0  0  0  0  0  0  0  0  0
  146.4964  136.4464  154.0628 H   0  0  0  0  0  0  0  0  0  0  0  0
  148.0394  135.0746  152.8758 H   0  0  0  0  0  0  0  0  0  0  0  0
  1  2  1  0  0  0  0
  1 24  1  0  0  0  0
  1 25  1  0  0  0  0
  1 26  1  0  0  0  0
  2  3  1  0  0  0  0
  2 27  1  0  0  0  0
  2 28  1  0  0  0  0
  3  4  1  0  0  0  0
  3  5  1  0  0  0  0
  3 18  1  0  0  0  0
  4 29  1  0  0  0  0
  4 30  1  0  0  0  0
  4 31  1  0  0  0  0
  5  6  1  0  0  0  0
  5 32  1  0  0  0  0
  5 33  1  0  0  0  0
  6  7  1  0  0  0  0
  6 34  1  0  0  0  0
  7  8  2  0  0  0  0
  7  9  1  0  0  0  0
  9 10  1  0  0  0  0
  9 35  1  0  0  0  0
  9 36  1  0  0  0  0
 10 16  1  0  0  0  0
 10 11  1  0  0  0  0
 11 12  2  0  0  0  0
 11 37  1  0  0  0  0
 12 13  1  0  0  0  0
 12 38  1  0  0  0  0
 13 14  2  0  0  0  0
 13 15  1  0  0  0  0
 15 16  1  0  0  0  0
 16 17  2  0  0  0  0
 18 23  1  0  0  0  0
 18 19  1  0  0  0  0
 18 47  1  0  0  0  0
 19 20  1  0  0  0  0
 19 39  1  0  0  0  0
 19 40  1  0  0  0  0
 20 21  1  0  0  0  0
 20 41  1  0  0  0  0
 20 42  1  0  0  0  0
 21 22  1  0  0  0  0
 22 23  1  0  0  0  0
 22 43  1  0  0  0  0
 22 44  1  0  0  0  0
 23 45  1  0  0  0  0
 23 46  1  0  0  0  0
M  CHG  1  15  -1
M  CHG  1  18   1
M  END
> <s_m_source_file>
AV-unprocessed.smi

> <i_m_source_file_index>
1560

> <i_lp_mmshare_version>
43012

> <i_f3d_flags>
0

> <s_epik_input>
W0NIMl0xW0NIMl1PW0NIMl1bQ0gyXU4xW0NAQF0oW0NIM10pKFtDSDJdW0NIM10pW0NIMl1bTkhdQyg9TylbQ0gyXW4yW2NIXVtjSF1jKD1PKVtuSF1jMj1P

> <s_epik_cmdline>
J2VwaWtfcHl0aG9uJywgJy1waCcsICc3LjAnLCAnLXRuJywgJzgnLCAnLW1hJywgJzIwMCcsICctbWV0YWxfYmluZGluZycsICctaW1hZScsICc8aW5maWxlLm1hZT4nLCAnLW9tYWUnLCAnPG91dGZpbGUubWFlPic=

> <r_lp_tautomer_probability>
0.999537

> <r_epik_Ionization_Penalty>
3.51944

> <r_epik_Ionization_Penalty_Charging>
0.588852

> <r_epik_Ionization_Penalty_Neutral>
2.93059

> <r_epik_State_Penalty>
3.4987

> <r_epik_Charging_Adjusted_Penalty>
4.08755

> <i_epik_Tot_Q>
0

> <i_epik_Tot_abs_Q>
2

> <r_epik_Metal_State_Penalty>
1.01204

> <b_epik_Metal_Only>
1

> <s_lp_Force_Field>
OPLS_2005

> <r_lp_Energy>
35.7671

> <b_lp_Chiralities_Consistent>
1

> <s_lp_Variant>
AV-unprocessed.smi:1560-8

> <Gold.Version>
5.8.1

> <Gold.Id.Protein>
6NUR|6NUR_protein|mol2

> <Gold.PLP.Fitness>
46.2230

> <Gold.PLP.PLP>
-32.0566

> <Gold.PLP.part.hbond>
-5.5103

> <Gold.PLP.part.metal>
0.0000

> <Gold.PLP.part.buried>
-5.1998

> <Gold.PLP.part.nonpolar>
-23.1856

> <Gold.PLP.part.repulsive>
0.1500

> <Gold.PLP.ligand.clash>
0.0000

> <Gold.PLP.ligand.torsion>
0.8601

> <Gold.PLP.Chemscore.Hbond>
5.2138

> <Gold.PLP.Chemscore.CHOScore>
0.0000

> <Gold.PLP.Chemscore.Metal>
0.0000

> <Gold.Chemscore.Hbonds>
donor molecule, donor type, donor heavy atom, donor atom, acceptor molecule, acceptor atom, score
      L1  H    18    47       P1  7948  2.00
      P1  H  6896  6907       L1    17  0.98
      P1  H  6931  6943       L1    15  1.90
      P1  H  6934  6947       L1    15  0.21

> <Gold.PLP.Chemscore.Internal.Correction>
0.2452

> <Gold.Rescore>
     Score         DG    S(hbond)    S(metal)    S(lipo)     H(rot)  DE(clash)    DE(int)     intcor
     13.59     -14.79       2.86        0.00      52.72       2.50       0.18       1.03       ----

> <Gold.Chemscore.Fitness>
13.5855

> <Gold.Chemscore.DG>
-14.7920

> <Gold.Chemscore.ZeroCoef>
-5.4800

> <Gold.Chemscore.Hbond>
2.8555

> <Gold.Chemscore.Metal>
0.0000

> <Gold.Chemscore.Lipo>
52.7155

> <Gold.Chemscore.Internal_Hbond>
0.0000

> <Gold.Chemscore.DEClash>
0.1768

> <Gold.Chemscore.DEInternal>
1.0297

> <Gold.Chemscore.Rot>
2.4973

> <Gold.Chemscore.Internal.Correction>
   9.000000E+99

> <Gold.Chemscore.Hbonds>
donor molecule, donor type, donor heavy atom, donor atom, acceptor molecule, acceptor atom, score
      L1  H    18    47       P1  7948  0.97
      P1  H  6896  6907       L1    17  0.65
      P1  H  6931  6943       L1    15  0.21

> <Gold.Chemscore.Hbond.Weighted>
-9.5373

> <Gold.Chemscore.Metal.Weighted>
-0.0000

> <Gold.Chemscore.Lipo.Weighted>
-6.1677

> <Gold.Chemscore.Internal_Hbond.Weighted>
0.0000

> <Gold.Chemscore.DEClash.Weighted>
0.1768

> <Gold.Chemscore.DEInternal.Weighted>
1.0297

> <Gold.Chemscore.Rot.Weighted>
6.3930

> <Gold.Chemscore.Internal.Correction.Weighted>
   9.000000E+99

> <Gold.Protein.RotatedTorsions>
[ 6907 6896 6895 6894 ] final  -50.12 input  -60.11 | X-H torsion
[ 7974 7965 7964 7962 ] final  171.02 input  175.53 | X-H torsion
[ 8008 7997 7996 7995 ] final  -73.57 input   59.86 | X-H torsion
[ 10167 10162 10161 10158 ] final -158.74 input  -65.29 | X-H torsion
[ 10718 10713 10712 10709 ] final   56.11 input   66.30 | X-H torsion
[ 10763 10752 10751 10750 ] final  -62.77 input  -60.55 | X-H torsion
[ 11005 11000 10999 10996 ] final  -12.60 input  -57.11 | X-H torsion

> <Gold.Protein.ActiveResidues>
 VAL166  LYS551  ARG553  GLY616  TRP617  ASP618  TYR619  PRO620  LYS621  CYS622 
 ASP623  PHE694  ASN695  SER759  ASP760  ASP761  ALA762  ILE779  LEU786  VAL792 
 PHE793  MET794  SER795  GLU796  ALA797  LYS798  CYS799  TRP800  GLU811  SER814 

> <Gold.Protein.RotatedAtoms>
  150.8738  134.8117  159.7174 H   0  0  0  0  0  0  0  0  0  0  0  0  # atno 6907 bound_to 6896
  152.4733  134.4904  159.9703 H   0  0  0  0  0  0  0  0  0  0  0  0  # atno 6908 bound_to 6896
  151.4988  133.3470  159.2901 H   0  0  0  0  0  0  0  0  0  0  0  0  # atno 6909 bound_to 6896
  144.7307  139.9288  143.6423 H   0  0  0  0  0  0  0  0  0  0  0  0  # atno 7974 bound_to 7965
  154.5258  140.0777  156.8256 H   0  0  0  0  0  0  0  0  0  0  0  0  # atno 8008 bound_to 7997
  155.3479  140.3411  155.4221 H   0  0  0  0  0  0  0  0  0  0  0  0  # atno 8009 bound_to 7997
  156.1730  140.1626  156.8400 H   0  0  0  0  0  0  0  0  0  0  0  0  # atno 8010 bound_to 7997
  139.6669  143.9814  152.2260 H   0  0  0  0  0  0  0  0  0  0  0  0  # atno 10167 bound_to 10162
  157.5403  130.8692  149.8813 H   0  0  0  0  0  0  0  0  0  0  0  0  # atno 10718 bound_to 10713
  154.3050  135.6227  153.5441 H   0  0  0  0  0  0  0  0  0  0  0  0  # atno 10763 bound_to 10752
  152.9836  135.5687  154.5242 H   0  0  0  0  0  0  0  0  0  0  0  0  # atno 10764 bound_to 10752
  154.4880  135.2866  155.1495 H   0  0  0  0  0  0  0  0  0  0  0  0  # atno 10765 bound_to 10752
  140.7674  133.8466  155.9177 H   0  0  0  0  0  0  0  0  0  0  0  0  # atno 11005 bound_to 11000
  146.0873  139.3862  143.0427 LP  0  0  0  0  0  0  0  0  0  0  0  0  # atno 17320 bound_to 7965
  145.7759  140.9877  143.1125 LP  0  0  0  0  0  0  0  0  0  0  0  0  # atno 17321 bound_to 7965
  139.9568  144.6584  150.8118 LP  0  0  0  0  0  0  0  0  0  0  0  0  # atno 17342 bound_to 10162
  140.7603  143.3147  151.2761 LP  0  0  0  0  0  0  0  0  0  0  0  0  # atno 17343 bound_to 10162
  156.0491  130.3721  150.1244 LP  0  0  0  0  0  0  0  0  0  0  0  0  # atno 17370 bound_to 10713
  156.9424  130.9748  151.3513 LP  0  0  0  0  0  0  0  0  0  0  0  0  # atno 17371 bound_to 10713
  140.9606  134.1660  157.4657 LP  0  0  0  0  0  0  0  0  0  0  0  0  # atno 17394 bound_to 11000
  139.8761  134.9943  156.5688 LP  0  0  0  0  0  0  0  0  0  0  0  0  # atno 17395 bound_to 11000

$$$$
