AV-unprocessed.smi:21|AV-procd|sdf|129|dock8
  -GOLD-   2262015313D 1   1.00000     0.00000
 Structure written by MMmdl.
 62 65  0  0  0  0  0  0  0  0  2 V2000
  148.3568  129.2659  153.0020 C   0  0  0  0  0  0  0  0  0  0  0  0
  149.1850  130.1528  153.7362 O   0  0  0  0  0  0  0  0  0  0  0  0
  148.5484  131.3782  154.0658 C   0  0  1  0  0  0  0  0  0  0  0  0
  149.5220  132.3125  154.7709 C   0  0  0  0  0  0  0  0  0  0  0  0
  148.8999  133.6911  154.5377 C   0  0  1  0  0  0  0  0  0  0  0  0
  149.9162  134.8485  154.6518 C   0  0  0  0  0  0  0  0  0  0  0  0
  149.4746  135.9299  155.5316 N   0  0  0  0  0  0  0  0  0  0  0  0
  149.1538  135.5812  156.9088 C   0  0  0  0  0  0  0  0  0  0  0  0
  150.0725  137.1417  155.4268 C   0  0  0  0  0  0  0  0  0  0  0  0
  151.0899  137.2489  154.5355 N   0  0  0  0  0  0  0  0  0  0  0  0
  151.7441  138.4056  154.3965 C   0  0  0  0  0  0  0  0  0  0  0  0
  151.5464  139.5582  155.0390 N   0  0  0  0  0  0  0  0  0  0  0  0
  150.5152  139.4600  155.9257 C   0  0  0  0  0  0  0  0  0  0  0  0
  149.7243  138.3034  156.1773 C   0  0  0  0  0  0  0  0  0  0  0  0
  148.7619  138.5942  157.1389 N   0  0  0  0  0  0  0  0  0  0  0  0
  148.9793  139.8436  157.4454 C   0  0  0  0  0  0  0  0  0  0  0  0
  150.0232  140.4358  156.7730 N   0  0  0  0  0  0  0  0  0  0  0  0
  150.4985  141.7984  156.9257 C   0  0  0  0  0  0  0  0  0  0  0  0
  149.9465  142.5038  158.1889 C   0  0  2  0  0  0  0  0  0  0  0  0
  148.4133  142.7341  158.1355 C   0  0  0  0  0  0  0  0  0  0  0  0
  147.8838  143.0578  159.4057 O   0  0  0  0  0  0  0  0  0  0  0  0
  150.7516  143.8001  158.4631 C   0  0  1  0  0  0  0  0  0  0  0  0
  150.7650  144.2851  159.9095 C   0  0  0  0  0  0  0  0  0  0  0  0
  152.0969  145.0165  159.9957 C   0  0  0  0  0  0  0  0  0  0  0  0
  152.9556  144.1857  159.2334 O   0  0  0  0  0  0  0  0  0  0  0  0
  152.2423  143.7461  158.0831 C   0  0  0  0  0  0  0  0  0  0  0  0
  148.3041  133.6204  153.1834 N   0  3  2  0  0  0  0  0  0  0  0  0
  147.0816  134.4373  153.0197 C   0  0  0  0  0  0  0  0  0  0  0  0
  148.1220  132.1908  152.8356 C   0  0  0  0  0  0  0  0  0  0  0  0
  147.6912  131.2083  154.7204 H   0  0  0  0  0  0  0  0  0  0  0  0
  148.0833  133.8128  155.2510 H   0  0  0  0  0  0  0  0  0  0  0  0
  148.9014  128.3439  152.7989 H   0  0  0  0  0  0  0  0  0  0  0  0
  148.0581  129.6945  152.0448 H   0  0  0  0  0  0  0  0  0  0  0  0
  147.4591  129.0073  153.5650 H   0  0  0  0  0  0  0  0  0  0  0  0
  149.6447  132.0761  155.8285 H   0  0  0  0  0  0  0  0  0  0  0  0
  150.5035  132.2548  154.2974 H   0  0  0  0  0  0  0  0  0  0  0  0
  150.8593  134.4556  155.0336 H   0  0  0  0  0  0  0  0  0  0  0  0
  150.1472  135.2575  153.6687 H   0  0  0  0  0  0  0  0  0  0  0  0
  148.4454  136.2917  157.3358 H   0  0  0  0  0  0  0  0  0  0  0  0
  150.0532  135.5784  157.5257 H   0  0  0  0  0  0  0  0  0  0  0  0
  148.7021  134.5904  156.9636 H   0  0  0  0  0  0  0  0  0  0  0  0
  152.5433  138.4067  153.6699 H   0  0  0  0  0  0  0  0  0  0  0  0
  148.3899  140.3669  158.1841 H   0  0  0  0  0  0  0  0  0  0  0  0
  151.5883  141.7662  156.9558 H   0  0  0  0  0  0  0  0  0  0  0  0
  150.2317  142.3602  156.0299 H   0  0  0  0  0  0  0  0  0  0  0  0
  150.1479  141.8503  159.0397 H   0  0  0  0  0  0  0  0  0  0  0  0
  148.1609  143.5571  157.4680 H   0  0  0  0  0  0  0  0  0  0  0  0
  147.8999  141.8530  157.7503 H   0  0  0  0  0  0  0  0  0  0  0  0
  147.1940  143.6929  159.2879 H   0  0  0  0  0  0  0  0  0  0  0  0
  150.3148  144.5979  157.8596 H   0  0  0  0  0  0  0  0  0  0  0  0
  149.9161  144.9251  160.1516 H   0  0  0  0  0  0  0  0  0  0  0  0
  150.7692  143.4531  160.6127 H   0  0  0  0  0  0  0  0  0  0  0  0
  152.0346  146.0037  159.5357 H   0  0  0  0  0  0  0  0  0  0  0  0
  152.4507  145.1319  161.0204 H   0  0  0  0  0  0  0  0  0  0  0  0
  152.5823  142.7540  157.7870 H   0  0  0  0  0  0  0  0  0  0  0  0
  152.4474  144.4214  157.2514 H   0  0  0  0  0  0  0  0  0  0  0  0
  146.2842  134.0897  153.6780 H   0  0  0  0  0  0  0  0  0  0  0  0
  146.7240  134.3855  151.9909 H   0  0  0  0  0  0  0  0  0  0  0  0
  147.2840  135.4834  153.2509 H   0  0  0  0  0  0  0  0  0  0  0  0
  148.7746  131.9720  151.9896 H   0  0  0  0  0  0  0  0  0  0  0  0
  147.1014  131.9525  152.5320 H   0  0  0  0  0  0  0  0  0  0  0  0
  148.9955  133.9803  152.5409 H   0  0  0  0  0  0  0  0  0  0  0  0
  1  2  1  0  0  0  0
  1 32  1  0  0  0  0
  1 33  1  0  0  0  0
  1 34  1  0  0  0  0
  2  3  1  0  0  0  0
  3 30  1  0  0  0  0
  3 29  1  0  0  0  0
  3  4  1  0  0  0  0
  4  5  1  0  0  0  0
  4 35  1  0  0  0  0
  4 36  1  0  0  0  0
  5 31  1  0  0  0  0
  5  6  1  0  0  0  0
  5 27  1  0  0  0  0
  6  7  1  0  0  0  0
  6 37  1  0  0  0  0
  6 38  1  0  0  0  0
  7  8  1  0  0  0  0
  7  9  1  0  0  0  0
  8 39  1  0  0  0  0
  8 40  1  0  0  0  0
  8 41  1  0  0  0  0
  9 14  1  0  0  0  0
  9 10  2  0  0  0  0
 10 11  1  0  0  0  0
 11 12  2  0  0  0  0
 11 42  1  0  0  0  0
 12 13  1  0  0  0  0
 13 17  1  0  0  0  0
 13 14  2  0  0  0  0
 14 15  1  0  0  0  0
 15 16  2  0  0  0  0
 16 17  1  0  0  0  0
 16 43  1  0  0  0  0
 17 18  1  0  0  0  0
 18 19  1  0  0  0  0
 18 44  1  0  0  0  0
 18 45  1  0  0  0  0
 19 20  1  0  0  0  0
 19 22  1  0  0  0  0
 19 46  1  0  0  0  0
 20 21  1  0  0  0  0
 20 47  1  0  0  0  0
 20 48  1  0  0  0  0
 21 49  1  0  0  0  0
 22 26  1  0  0  0  0
 22 23  1  0  0  0  0
 22 50  1  0  0  0  0
 23 24  1  0  0  0  0
 23 51  1  0  0  0  0
 23 52  1  0  0  0  0
 24 25  1  0  0  0  0
 24 53  1  0  0  0  0
 24 54  1  0  0  0  0
 25 26  1  0  0  0  0
 26 55  1  0  0  0  0
 26 56  1  0  0  0  0
 27 28  1  0  0  0  0
 27 29  1  0  0  0  0
 27 62  1  0  0  0  0
 28 57  1  0  0  0  0
 28 58  1  0  0  0  0
 28 59  1  0  0  0  0
 29 60  1  0  0  0  0
 29 61  1  0  0  0  0
M  CHG  1  27   1
M  END
> <s_m_source_file>
AV-unprocessed.smi

> <i_m_source_file_index>
21

> <i_lp_mmshare_version>
43012

> <i_f3d_flags>
0

> <s_epik_input>
W0NIM11PW0NASF0xW0NIMl1bQ0BIXShOKFtDSDNdKVtDSDJdMSlbQ0gyXU4oW0NIM10pYyhuW2NIXW4yKWMoYzIzKW5bY0hdbjNbQ0gyXVtDQEhdKFtDSDJdW09IXSlbQ0BASF00W0NIMl1bQ0gyXU9bQ0gyXTQ=

> <s_epik_cmdline>
J2VwaWtfcHl0aG9uJywgJy1waCcsICc3LjAnLCAnLXRuJywgJzgnLCAnLW1hJywgJzIwMCcsICctbWV0YWxfYmluZGluZycsICctaW1hZScsICc8aW5maWxlLm1hZT4nLCAnLW9tYWUnLCAnPG91dGZpbGUubWFlPic=

> <r_lp_tautomer_probability>
1

> <r_epik_Ionization_Penalty>
0.0157465

> <r_epik_Ionization_Penalty_Charging>
0.015354

> <r_epik_Ionization_Penalty_Neutral>
0.000392529

> <r_epik_State_Penalty>
0.0120612

> <r_epik_Charging_Adjusted_Penalty>
0.0274152

> <i_epik_Tot_Q>
1

> <i_epik_Tot_abs_Q>
1

> <r_epik_Metal_State_Penalty>
0.0121253

> <b_epik_Metal_Only>
0

> <s_lp_Force_Field>
OPLS_2005

> <r_lp_Energy>
59.3761

> <b_lp_Chiralities_Consistent>
1

> <s_lp_Variant>
AV-unprocessed.smi:21-9

> <Gold.Version>
5.8.1

> <Gold.Id.Protein>
6NUR|6NUR_protein|mol2

> <Gold.PLP.Fitness>
49.3858

> <Gold.PLP.PLP>
-45.2408

> <Gold.PLP.part.hbond>
-3.1792

> <Gold.PLP.part.metal>
0.0000

> <Gold.PLP.part.buried>
-7.1909

> <Gold.PLP.part.nonpolar>
-33.9058

> <Gold.PLP.part.repulsive>
0.3091

> <Gold.PLP.ligand.clash>
0.0000

> <Gold.PLP.ligand.torsion>
1.8351

> <Gold.PLP.Chemscore.Hbond>
2.2890

> <Gold.PLP.Chemscore.CHOScore>
0.0000

> <Gold.PLP.Chemscore.Metal>
0.0000

> <Gold.Chemscore.Hbonds>
donor molecule, donor type, donor heavy atom, donor atom, acceptor molecule, acceptor atom, score
      P1  H  6933  6944       L1    21  0.35
      P1  H  7989  7998       L1    12  1.00

> <Gold.PLP.Chemscore.Internal.Correction>
0.9483

> <Gold.Rescore>
     Score         DG    S(hbond)    S(metal)    S(lipo)     H(rot)  DE(clash)    DE(int)     intcor
     11.06     -13.10       1.39        0.00      98.64       3.35       0.07       1.96       ----

> <Gold.Chemscore.Fitness>
11.0630

> <Gold.Chemscore.DG>
-13.0982

> <Gold.Chemscore.ZeroCoef>
-5.4800

> <Gold.Chemscore.Hbond>
1.3893

> <Gold.Chemscore.Metal>
0.0000

> <Gold.Chemscore.Lipo>
98.6448

> <Gold.Chemscore.Internal_Hbond>
0.0000

> <Gold.Chemscore.DEClash>
0.0711

> <Gold.Chemscore.DEInternal>
1.9641

> <Gold.Chemscore.Rot>
3.3452

> <Gold.Chemscore.Internal.Correction>
   9.000000E+99

> <Gold.Chemscore.Hbonds>
donor molecule, donor type, donor heavy atom, donor atom, acceptor molecule, acceptor atom, score
      P1  H  6933  6944       L1    21  0.35
      P1  H  7989  7998       L1    12  0.24
      P1  H 10752 10765       L1    10  0.02

> <Gold.Chemscore.Hbond.Weighted>
-4.6404

> <Gold.Chemscore.Metal.Weighted>
-0.0000

> <Gold.Chemscore.Lipo.Weighted>
-11.5414

> <Gold.Chemscore.Internal_Hbond.Weighted>
0.0000

> <Gold.Chemscore.DEClash.Weighted>
0.0711

> <Gold.Chemscore.DEInternal.Weighted>
1.9641

> <Gold.Chemscore.Rot.Weighted>
8.5636

> <Gold.Chemscore.Internal.Correction.Weighted>
   9.000000E+99

> <Gold.Protein.RotatedTorsions>
[ 6907 6896 6895 6894 ] final  -72.36 input  -60.11 | X-H torsion
[ 7974 7965 7964 7962 ] final   80.12 input  175.53 | X-H torsion
[ 8008 7997 7996 7995 ] final  132.97 input   59.86 | X-H torsion
[ 10167 10162 10161 10158 ] final   16.94 input  -65.29 | X-H torsion
[ 10718 10713 10712 10709 ] final   45.05 input   66.30 | X-H torsion
[ 10763 10752 10751 10750 ] final  165.84 input  -60.55 | X-H torsion
[ 11005 11000 10999 10996 ] final  165.87 input  -57.11 | X-H torsion

> <Gold.Protein.ActiveResidues>
 VAL166  LYS551  ARG553  GLY616  TRP617  ASP618  TYR619  PRO620  LYS621  CYS622 
 ASP623  PHE694  ASN695  SER759  ASP760  ASP761  ALA762  ILE779  LEU786  VAL792 
 PHE793  MET794  SER795  GLU796  ALA797  LYS798  CYS799  TRP800  GLU811  SER814 

> <Gold.Protein.RotatedAtoms>
  150.7173  134.5174  159.5636 H   0  0  0  0  0  0  0  0  0  0  0  0  # atno 6907 bound_to 6896
  152.2736  134.7902  160.0418 H   0  0  0  0  0  0  0  0  0  0  0  0  # atno 6908 bound_to 6896
  151.8573  133.3415  159.3729 H   0  0  0  0  0  0  0  0  0  0  0  0  # atno 6909 bound_to 6896
  145.6553  139.2457  143.1953 H   0  0  0  0  0  0  0  0  0  0  0  0  # atno 7974 bound_to 7965
  156.2988  140.2533  156.3176 H   0  0  0  0  0  0  0  0  0  0  0  0  # atno 8008 bound_to 7997
  154.9266  140.0399  157.2045 H   0  0  0  0  0  0  0  0  0  0  0  0  # atno 8009 bound_to 7997
  154.8259  140.2867  155.5759 H   0  0  0  0  0  0  0  0  0  0  0  0  # atno 8010 bound_to 7997
  140.5761  143.9069  150.6751 H   0  0  0  0  0  0  0  0  0  0  0  0  # atno 10167 bound_to 10162
  157.4334  130.8038  149.7624 H   0  0  0  0  0  0  0  0  0  0  0  0  # atno 10718 bound_to 10713
  154.3300  135.2755  155.2476 H   0  0  0  0  0  0  0  0  0  0  0  0  # atno 10763 bound_to 10752
  154.4792  135.5863  153.6381 H   0  0  0  0  0  0  0  0  0  0  0  0  # atno 10764 bound_to 10752
  152.9867  135.6107  154.3492 H   0  0  0  0  0  0  0  0  0  0  0  0  # atno 10765 bound_to 10752
  140.2605  134.7905  157.3586 H   0  0  0  0  0  0  0  0  0  0  0  0  # atno 11005 bound_to 11000
  146.1170  140.7357  142.9476 LP  0  0  0  0  0  0  0  0  0  0  0  0  # atno 17320 bound_to 7965
  144.7108  140.4031  143.7082 LP  0  0  0  0  0  0  0  0  0  0  0  0  # atno 17321 bound_to 7965
  140.2557  143.3561  152.1367 LP  0  0  0  0  0  0  0  0  0  0  0  0  # atno 17342 bound_to 10162
  139.5144  144.6947  151.5664 LP  0  0  0  0  0  0  0  0  0  0  0  0  # atno 17343 bound_to 10162
  155.9921  130.3933  150.2955 LP  0  0  0  0  0  0  0  0  0  0  0  0  # atno 17370 bound_to 10713
  157.1114  131.0222  151.3046 LP  0  0  0  0  0  0  0  0  0  0  0  0  # atno 17371 bound_to 10713
  140.1469  134.4900  155.7990 LP  0  0  0  0  0  0  0  0  0  0  0  0  # atno 17394 bound_to 11000
  141.2191  133.6847  156.7309 LP  0  0  0  0  0  0  0  0  0  0  0  0  # atno 17395 bound_to 11000

$$$$
