AV-unprocessed.smi:1133|AV-procd|sdf|4855|dock4
  -GOLD-   22720 3423D 1   1.00000     0.00000
 Structure written by MMmdl.
 42 43  0  0  0  0  0  0  0  0  2 V2000
  153.3009  137.8189  156.3148 C   0  0  0  0  0  0  0  0  0  0  0  0
  152.4923  138.9393  155.6572 C   0  0  0  0  0  0  0  0  0  0  0  0
  153.0884  139.7291  154.9247 O   0  0  0  0  0  0  0  0  0  0  0  0
  151.1609  139.0225  155.8937 N   0  0  0  0  0  0  0  0  0  0  0  0
  150.2973  140.0071  155.2323 C   0  0  0  0  0  0  0  0  0  0  0  0
  149.4022  139.2764  154.2151 C   0  0  0  0  0  0  0  0  0  0  0  0
  148.5885  138.1500  154.8881 C   0  0  0  0  0  0  0  0  0  0  0  0
  147.9037  137.3619  153.8679 N   0  0  0  0  0  0  0  0  0  0  0  0
  146.5978  137.0606  153.8750 C   0  0  0  0  0  0  0  0  0  0  0  0
  145.8072  137.4301  154.7440 O   0  0  0  0  0  0  0  0  0  0  0  0
  146.2547  136.2983  152.8271 N   0  0  0  0  0  0  0  0  0  0  0  0
  144.9086  135.8022  152.5686 C   0  0  0  0  0  0  0  0  0  0  0  0
  144.6852  135.5208  151.0730 C   0  0  0  0  0  0  0  0  0  0  0  0
  145.1974  134.2058  150.6866 N   0  0  0  0  0  0  0  0  0  0  0  0
  144.4844  133.1488  150.1826 C   0  0  0  0  0  0  0  0  0  0  0  0
  145.3848  132.1360  149.9728 C   0  0  0  0  0  0  0  0  0  0  0  0
  146.6074  132.6172  150.3593 N   0  3  0  0  0  0  0  0  0  0  0  0
  146.4911  133.8764  150.7934 C   0  0  0  0  0  0  0  0  0  0  0  0
  149.4901  137.2433  155.7582 C   0  0  0  0  0  0  0  0  0  0  0  0
  150.3797  138.0754  156.6983 C   0  0  0  0  0  0  0  0  0  0  0  0
  152.9075  136.8412  156.0346 H   0  0  0  0  0  0  0  0  0  0  0  0
  153.2794  137.9130  157.4007 H   0  0  0  0  0  0  0  0  0  0  0  0
  154.3435  137.8605  155.9981 H   0  0  0  0  0  0  0  0  0  0  0  0
  149.6829  140.5112  155.9797 H   0  0  0  0  0  0  0  0  0  0  0  0
  150.8610  140.7955  154.7318 H   0  0  0  0  0  0  0  0  0  0  0  0
  148.7302  139.9877  153.7334 H   0  0  0  0  0  0  0  0  0  0  0  0
  150.0297  138.8599  153.4254 H   0  0  0  0  0  0  0  0  0  0  0  0
  147.8466  138.6216  155.5356 H   0  0  0  0  0  0  0  0  0  0  0  0
  148.4700  137.0115  153.1088 H   0  0  0  0  0  0  0  0  0  0  0  0
  146.9727  136.0454  152.1638 H   0  0  0  0  0  0  0  0  0  0  0  0
  144.7281  134.9035  153.1610 H   0  0  0  0  0  0  0  0  0  0  0  0
  144.1969  136.5514  152.9165 H   0  0  0  0  0  0  0  0  0  0  0  0
  143.6229  135.5541  150.8280 H   0  0  0  0  0  0  0  0  0  0  0  0
  145.1810  136.2683  150.4516 H   0  0  0  0  0  0  0  0  0  0  0  0
  143.4180  133.1944  150.0147 H   0  0  0  0  0  0  0  0  0  0  0  0
  145.2504  131.1355  149.5879 H   0  0  0  0  0  0  0  0  0  0  0  0
  147.2850  134.5035  151.1591 H   0  0  0  0  0  0  0  0  0  0  0  0
  148.8801  136.5533  156.3423 H   0  0  0  0  0  0  0  0  0  0  0  0
  150.1248  136.6283  155.1181 H   0  0  0  0  0  0  0  0  0  0  0  0
  150.9911  137.4155  157.3122 H   0  0  0  0  0  0  0  0  0  0  0  0
  149.7582  138.6308  157.4022 H   0  0  0  0  0  0  0  0  0  0  0  0
  147.4753  132.0976  150.3229 H   0  0  0  0  0  0  0  0  0  0  0  0
  1  2  1  0  0  0  0
  1 21  1  0  0  0  0
  1 22  1  0  0  0  0
  1 23  1  0  0  0  0
  2  3  2  0  0  0  0
  2  4  1  0  0  0  0
  4 20  1  0  0  0  0
  4  5  1  0  0  0  0
  5  6  1  0  0  0  0
  5 24  1  0  0  0  0
  5 25  1  0  0  0  0
  6  7  1  0  0  0  0
  6 26  1  0  0  0  0
  6 27  1  0  0  0  0
  7  8  1  0  0  0  0
  7 19  1  0  0  0  0
  7 28  1  0  0  0  0
  8  9  1  0  0  0  0
  8 29  1  0  0  0  0
  9 10  2  0  0  0  0
  9 11  1  0  0  0  0
 11 12  1  0  0  0  0
 11 30  1  0  0  0  0
 12 13  1  0  0  0  0
 12 31  1  0  0  0  0
 12 32  1  0  0  0  0
 13 14  1  0  0  0  0
 13 33  1  0  0  0  0
 13 34  1  0  0  0  0
 14 18  1  0  0  0  0
 14 15  1  0  0  0  0
 15 16  2  0  0  0  0
 15 35  1  0  0  0  0
 16 17  1  0  0  0  0
 16 36  1  0  0  0  0
 17 18  2  0  0  0  0
 17 42  1  0  0  0  0
 18 37  1  0  0  0  0
 19 20  1  0  0  0  0
 19 38  1  0  0  0  0
 19 39  1  0  0  0  0
 20 40  1  0  0  0  0
 20 41  1  0  0  0  0
M  CHG  1  17   1
M  END
> <s_m_source_file>
AV-unprocessed.smi

> <i_m_source_file_index>
1133

> <i_lp_mmshare_version>
43012

> <i_f3d_flags>
0

> <s_epik_input>
W0NIM11DKD1PKU4xW0NIMl1bQ0gyXVtDSF0oW0NIMl1bQ0gyXTEpW05IXUMoPU8pW05IXVtDSDJdW0NIMl1uMltjSF1bY0hdbltjSF0y

> <s_epik_cmdline>
J2VwaWtfcHl0aG9uJywgJy1waCcsICc3LjAnLCAnLXRuJywgJzgnLCAnLW1hJywgJzIwMCcsICctbWV0YWxfYmluZGluZycsICctaW1hZScsICc8aW5maWxlLm1hZT4nLCAnLW9tYWUnLCAnPG91dGZpbGUubWFlPic=

> <r_lp_tautomer_probability>
1

> <r_epik_Ionization_Penalty>
0.255167

> <r_epik_Ionization_Penalty_Charging>
0

> <r_epik_Ionization_Penalty_Neutral>
0.255167

> <r_epik_State_Penalty>
0.246616

> <r_epik_Charging_Adjusted_Penalty>
0.246616

> <i_epik_Tot_Q>
1

> <i_epik_Tot_abs_Q>
1

> <r_epik_Metal_State_Penalty>
0.536415

> <b_epik_Metal_Only>
0

> <s_lp_Force_Field>
OPLS_2005

> <r_lp_Energy>
22.8295

> <b_lp_Chiralities_Consistent>
1

> <s_lp_Variant>
AV-unprocessed.smi:1133-1

> <Gold.Version>
5.8.1

> <Gold.Id.Protein>
6NUR|6NUR_protein|mol2

> <Gold.PLP.Fitness>
47.1831

> <Gold.PLP.PLP>
-31.0273

> <Gold.PLP.part.hbond>
-4.9031

> <Gold.PLP.part.metal>
0.0000

> <Gold.PLP.part.buried>
-2.0513

> <Gold.PLP.part.nonpolar>
-24.0408

> <Gold.PLP.part.repulsive>
0.1999

> <Gold.PLP.ligand.clash>
0.0000

> <Gold.PLP.ligand.torsion>
0.4124

> <Gold.PLP.Chemscore.Hbond>
3.8600

> <Gold.PLP.Chemscore.CHOScore>
1.7920

> <Gold.PLP.Chemscore.Metal>
0.0000

> <Gold.Chemscore.Hbonds>
donor molecule, donor type, donor heavy atom, donor atom, acceptor molecule, acceptor atom, score
      L1  H     8    29       P1  7948  1.00
      L1  H    11    30       P1  7948  0.85
      L1  H    17    42       P1 10747  1.00
      P1  H  7989  7998       L1     3  0.13
      P1  H  7997  8009       L1     3  1.00
      L1  C    15    35       P1 10186  0.46
      L1  C    18    37       P1  7948  0.92

> <Gold.PLP.Chemscore.Internal.Correction>
0.0246

> <Gold.Rescore>
     Score         DG    S(hbond)    S(metal)    S(lipo)     H(rot)  DE(clash)    DE(int)     intcor
     19.15     -19.76       3.94        0.00      55.08       2.08       0.15       0.46       ----

> <Gold.Chemscore.Fitness>
19.1509

> <Gold.Chemscore.DG>
-19.7600

> <Gold.Chemscore.ZeroCoef>
-5.4800

> <Gold.Chemscore.Hbond>
3.9396

> <Gold.Chemscore.Metal>
0.0000

> <Gold.Chemscore.Lipo>
55.0845

> <Gold.Chemscore.Internal_Hbond>
0.0000

> <Gold.Chemscore.DEClash>
0.1477

> <Gold.Chemscore.DEInternal>
0.4615

> <Gold.Chemscore.Rot>
2.0794

> <Gold.Chemscore.Internal.Correction>
   9.000000E+99

> <Gold.Chemscore.Hbonds>
donor molecule, donor type, donor heavy atom, donor atom, acceptor molecule, acceptor atom, score
      L1  H     8    29       P1  7948  0.94
      L1  H    11    30       P1  7948  0.80
      L1  H    17    42       P1 10747  0.99
      P1  H  7989  7998       L1     3  0.10
      P1  H  7997  8009       L1     3  0.65

> <Gold.Chemscore.Hbond.Weighted>
-13.1583

> <Gold.Chemscore.Metal.Weighted>
-0.0000

> <Gold.Chemscore.Lipo.Weighted>
-6.4449

> <Gold.Chemscore.Internal_Hbond.Weighted>
0.0000

> <Gold.Chemscore.DEClash.Weighted>
0.1477

> <Gold.Chemscore.DEInternal.Weighted>
0.4615

> <Gold.Chemscore.Rot.Weighted>
5.3232

> <Gold.Chemscore.Internal.Correction.Weighted>
   9.000000E+99

> <Gold.Protein.RotatedTorsions>
[ 6907 6896 6895 6894 ] final -108.98 input  -60.11 | X-H torsion
[ 7974 7965 7964 7962 ] final   91.23 input  175.53 | X-H torsion
[ 8008 7997 7996 7995 ] final -124.26 input   59.86 | X-H torsion
[ 10167 10162 10161 10158 ] final  105.50 input  -65.29 | X-H torsion
[ 10718 10713 10712 10709 ] final -105.08 input   66.30 | X-H torsion
[ 10763 10752 10751 10750 ] final  136.54 input  -60.55 | X-H torsion
[ 11005 11000 10999 10996 ] final  -94.04 input  -57.11 | X-H torsion

> <Gold.Protein.ActiveResidues>
 VAL166  LYS551  ARG553  GLY616  TRP617  ASP618  TYR619  PRO620  LYS621  CYS622 
 ASP623  PHE694  ASN695  SER759  ASP760  ASP761  ALA762  ILE779  LEU786  VAL792 
 PHE793  MET794  SER795  GLU796  ALA797  LYS798  CYS799  TRP800  GLU811  SER814 

> <Gold.Protein.RotatedAtoms>
  150.7534  133.9597  159.3511 H   0  0  0  0  0  0  0  0  0  0  0  0  # atno 6907 bound_to 6896
  151.7521  135.0828  160.0342 H   0  0  0  0  0  0  0  0  0  0  0  0  # atno 6908 bound_to 6896
  152.3459  133.6084  159.5946 H   0  0  0  0  0  0  0  0  0  0  0  0  # atno 6909 bound_to 6896
  145.5084  139.2276  143.2738 H   0  0  0  0  0  0  0  0  0  0  0  0  # atno 7974 bound_to 7965
  155.1940  140.0414  157.2905 H   0  0  0  0  0  0  0  0  0  0  0  0  # atno 8008 bound_to 7997
  154.6119  140.2479  155.7629 H   0  0  0  0  0  0  0  0  0  0  0  0  # atno 8009 bound_to 7997
  156.2384  140.2913  156.0386 H   0  0  0  0  0  0  0  0  0  0  0  0  # atno 8010 bound_to 7997
  139.7087  144.7081  151.1063 H   0  0  0  0  0  0  0  0  0  0  0  0  # atno 10167 bound_to 10162
  156.0331  130.5546  150.7488 H   0  0  0  0  0  0  0  0  0  0  0  0  # atno 10718 bound_to 10713
  153.8582  135.3071  155.3436 H   0  0  0  0  0  0  0  0  0  0  0  0  # atno 10763 bound_to 10752
  154.7861  135.4809  153.9952 H   0  0  0  0  0  0  0  0  0  0  0  0  # atno 10764 bound_to 10752
  153.1478  135.6837  153.9022 H   0  0  0  0  0  0  0  0  0  0  0  0  # atno 10765 bound_to 10752
  141.1481  133.7929  157.0244 H   0  0  0  0  0  0  0  0  0  0  0  0  # atno 11005 bound_to 11000
  146.2182  140.5889  142.9029 LP  0  0  0  0  0  0  0  0  0  0  0  0  # atno 17320 bound_to 7965
  144.7741  140.5701  143.6650 LP  0  0  0  0  0  0  0  0  0  0  0  0  # atno 17321 bound_to 7965
  140.7728  143.5323  150.9409 LP  0  0  0  0  0  0  0  0  0  0  0  0  # atno 17342 bound_to 10162
  139.9007  143.6839  152.3131 LP  0  0  0  0  0  0  0  0  0  0  0  0  # atno 17343 bound_to 10162
  157.5038  131.0920  151.0282 LP  0  0  0  0  0  0  0  0  0  0  0  0  # atno 17370 bound_to 10713
  157.0656  130.5843  149.5393 LP  0  0  0  0  0  0  0  0  0  0  0  0  # atno 17371 bound_to 10713
  140.0795  134.9656  157.1601 LP  0  0  0  0  0  0  0  0  0  0  0  0  # atno 17394 bound_to 11000
  140.3597  134.2508  155.7188 LP  0  0  0  0  0  0  0  0  0  0  0  0  # atno 17395 bound_to 11000

$$$$
