AV-unprocessed.smi:112|AV-procd|sdf|1084|dock5
  -GOLD-   2262018173D 1   1.00000     0.00000
 Structure written by MMmdl.
 54 57  0  0  0  0  0  0  0  0  3 V2000
  147.8596  139.2478  154.2314 C   0  0  0  0  0  0  0  0  0  0  0  0
  148.1710  140.2215  155.3569 C   0  0  0  0  0  0  0  0  0  0  0  0
  147.2372  140.5994  156.2592 C   0  0  0  0  0  0  0  0  0  0  0  0
  147.4811  141.4840  157.2924 N   0  0  0  0  0  0  0  0  0  0  0  0
  146.3905  141.8058  158.2896 C   0  0  1  0  0  0  0  0  0  0  0  0
  145.1515  142.4088  157.6393 C   0  0  0  0  0  0  0  0  0  0  0  0
  144.1138  142.0224  158.6705 C   0  0  1  0  0  0  0  0  0  0  0  0
  142.8054  142.0688  158.1366 O   0  0  0  0  0  0  0  0  0  0  0  0
  144.5836  140.6298  159.1469 C   0  0  1  0  0  0  0  0  0  0  0  0
  143.9829  139.4345  158.3778 C   0  0  0  0  0  0  0  0  0  0  0  0
  144.2719  139.5556  157.0014 O   0  0  0  0  0  0  0  0  0  0  0  0
  145.9963  140.6230  158.9109 O   0  0  0  0  0  0  0  0  0  0  0  0
  148.7812  142.0033  157.4702 C   0  0  0  0  0  0  0  0  0  0  0  0
  149.0384  142.7799  158.3927 O   0  0  0  0  0  0  0  0  0  0  0  0
  149.7832  141.6234  156.5477 N   0  0  0  0  0  0  0  0  0  0  0  0
  151.1440  142.1863  156.7072 C   0  0  0  0  0  0  0  0  0  0  0  0
  152.0559  141.3574  157.6385 C   0  0  0  0  0  0  0  0  0  0  0  0
  152.4523  140.2558  157.2561 O   0  0  0  0  0  0  0  0  0  0  0  0
  152.3804  141.8873  158.8443 N   0  0  0  0  0  0  0  0  0  0  0  0
  151.9369  143.2186  159.2931 C   0  0  0  0  0  0  0  0  0  0  0  0
  152.5375  143.4240  160.7011 C   0  0  0  0  0  0  0  0  0  0  0  0
  153.2846  142.1457  160.9412 C   0  0  0  0  0  0  0  0  0  0  0  0
  154.0158  141.8049  162.0917 C   0  0  0  0  0  0  0  0  0  0  0  0
  154.6574  140.5427  162.1462 C   0  0  0  0  0  0  0  0  0  0  0  0
  155.4336  140.1501  163.3391 N   0  3  0  0  0  0  0  0  0  0  0  0
  155.6452  138.9567  163.5286 O   0  0  0  0  0  0  0  0  0  0  0  0
  155.8332  141.0348  164.0891 O   0  5  0  0  0  0  0  0  0  0  0  0
  154.5422  139.6616  161.0383 C   0  0  0  0  0  0  0  0  0  0  0  0
  153.8041  140.0211  159.8893 C   0  0  0  0  0  0  0  0  0  0  0  0
  153.1743  141.2843  159.8560 C   0  0  0  0  0  0  0  0  0  0  0  0
  149.5333  140.7481  155.4619 C   0  0  0  0  0  0  0  0  0  0  0  0
  150.4293  140.4644  154.6643 O   0  0  0  0  0  0  0  0  0  0  0  0
  146.8178  138.9262  154.2507 H   0  0  0  0  0  0  0  0  0  0  0  0
  148.4851  138.3581  154.3124 H   0  0  0  0  0  0  0  0  0  0  0  0
  148.0468  139.7113  153.2621 H   0  0  0  0  0  0  0  0  0  0  0  0
  146.2467  140.1804  156.1693 H   0  0  0  0  0  0  0  0  0  0  0  0
  146.7986  142.4648  159.0557 H   0  0  0  0  0  0  0  0  0  0  0  0
  145.2618  143.4841  157.4966 H   0  0  0  0  0  0  0  0  0  0  0  0
  144.9449  141.9350  156.6797 H   0  0  0  0  0  0  0  0  0  0  0  0
  144.1700  142.7209  159.5069 H   0  0  0  0  0  0  0  0  0  0  0  0
  142.6864  142.9006  157.7040 H   0  0  0  0  0  0  0  0  0  0  0  0
  144.3775  140.5250  160.2131 H   0  0  0  0  0  0  0  0  0  0  0  0
  144.4291  138.4956  158.7045 H   0  0  0  0  0  0  0  0  0  0  0  0
  142.9079  139.3504  158.5329 H   0  0  0  0  0  0  0  0  0  0  0  0
  144.3075  140.4740  156.7817 H   0  0  0  0  0  0  0  0  0  0  0  0
  151.6259  142.2896  155.7342 H   0  0  0  0  0  0  0  0  0  0  0  0
  151.0910  143.2074  157.0872 H   0  0  0  0  0  0  0  0  0  0  0  0
  152.2924  143.9952  158.6147 H   0  0  0  0  0  0  0  0  0  0  0  0
  150.8480  143.2705  159.3340 H   0  0  0  0  0  0  0  0  0  0  0  0
  153.2188  144.2748  160.7313 H   0  0  0  0  0  0  0  0  0  0  0  0
  151.7642  143.5622  161.4571 H   0  0  0  0  0  0  0  0  0  0  0  0
  154.0777  142.5031  162.9133 H   0  0  0  0  0  0  0  0  0  0  0  0
  155.0214  138.6939  161.0590 H   0  0  0  0  0  0  0  0  0  0  0  0
  153.7402  139.3214  159.0712 H   0  0  0  0  0  0  0  0  0  0  0  0
  1  2  1  0  0  0  0
  1 33  1  0  0  0  0
  1 34  1  0  0  0  0
  1 35  1  0  0  0  0
  2 31  1  0  0  0  0
  2  3  2  0  0  0  0
  3  4  1  0  0  0  0
  3 36  1  0  0  0  0
  4  5  1  0  0  0  0
  4 13  1  0  0  0  0
  5 12  1  0  0  0  0
  5  6  1  0  0  0  0
  5 37  1  0  0  0  0
  6  7  1  0  0  0  0
  6 38  1  0  0  0  0
  6 39  1  0  0  0  0
  7  8  1  0  0  0  0
  7  9  1  0  0  0  0
  7 40  1  0  0  0  0
  8 41  1  0  0  0  0
  9 10  1  0  0  0  0
  9 12  1  0  0  0  0
  9 42  1  0  0  0  0
 10 11  1  0  0  0  0
 10 43  1  0  0  0  0
 10 44  1  0  0  0  0
 11 45  1  0  0  0  0
 13 14  2  0  0  0  0
 13 15  1  0  0  0  0
 15 16  1  0  0  0  0
 15 31  1  0  0  0  0
 16 17  1  0  0  0  0
 16 46  1  0  0  0  0
 16 47  1  0  0  0  0
 17 18  2  0  0  0  0
 17 19  1  0  0  0  0
 19 30  1  0  0  0  0
 19 20  1  0  0  0  0
 20 21  1  0  0  0  0
 20 48  1  0  0  0  0
 20 49  1  0  0  0  0
 21 22  1  0  0  0  0
 21 50  1  0  0  0  0
 21 51  1  0  0  0  0
 22 30  2  0  0  0  0
 22 23  1  0  0  0  0
 23 24  2  0  0  0  0
 23 52  1  0  0  0  0
 24 25  1  0  0  0  0
 24 28  1  0  0  0  0
 25 26  2  0  0  0  0
 25 27  1  0  0  0  0
 28 29  2  0  0  0  0
 28 53  1  0  0  0  0
 29 30  1  0  0  0  0
 29 54  1  0  0  0  0
 31 32  2  0  0  0  0
M  CHG  1  25   1
M  CHG  1  27  -1
M  END
> <s_m_source_file>
AV-unprocessed.smi

> <i_m_source_file_index>
112

> <i_lp_mmshare_version>
43012

> <i_f3d_flags>
0

> <s_epik_input>
W09IXVtDSDJdW0NAQEhdKE8xKVtDQEhdKFtPSF0pW0NIMl1bQ0BIXTFuKFtjSF1jMltDSDNdKWMoPU8pbihjMj1PKVtDSDJdQyg9TylOKFtDSDJdW0NIMl0zKWMoYzM0KVtjSF1bY0hdYyhbY0hdNClbTitdKD1PKVtPLV0=

> <s_epik_cmdline>
J2VwaWtfcHl0aG9uJywgJy1waCcsICc3LjAnLCAnLXRuJywgJzgnLCAnLW1hJywgJzIwMCcsICctbWV0YWxfYmluZGluZycsICctaW1hZScsICc8aW5maWxlLm1hZT4nLCAnLW9tYWUnLCAnPG91dGZpbGUubWFlPic=

> <r_lp_tautomer_probability>
1

> <r_epik_Ionization_Penalty>
2.5696e-07

> <r_epik_Ionization_Penalty_Charging>
1.04886e-08

> <r_epik_Ionization_Penalty_Neutral>
2.46472e-07

> <r_epik_State_Penalty>
-0

> <r_epik_Charging_Adjusted_Penalty>
1.04886e-08

> <i_epik_Tot_Q>
0

> <i_epik_Tot_abs_Q>
2

> <r_epik_Metal_State_Penalty>
-0

> <b_epik_Metal_Only>
0

> <s_epik_Chemistry_Notes>
This compound contains an acetal/aminal-like group ( X-CH(R)-Y where X, Y are N, S, or O) that may be acid/base labile, releasing an aldehyde.

> <s_lp_Force_Field>
OPLS_2005

> <r_lp_Energy>
61.1797

> <b_lp_Chiralities_Consistent>
1

> <s_lp_Variant>
AV-unprocessed.smi:112-2

> <Gold.Version>
5.8.1

> <Gold.Id.Protein>
6NUR|6NUR_protein|mol2

> <Gold.PLP.Fitness>
49.6648

> <Gold.PLP.PLP>
-43.8082

> <Gold.PLP.part.hbond>
-4.0000

> <Gold.PLP.part.metal>
0.0000

> <Gold.PLP.part.buried>
-4.6515

> <Gold.PLP.part.nonpolar>
-34.2633

> <Gold.PLP.part.repulsive>
0.2658

> <Gold.PLP.ligand.clash>
0.0000

> <Gold.PLP.ligand.torsion>
0.6760

> <Gold.PLP.Chemscore.Hbond>
2.3913

> <Gold.PLP.Chemscore.CHOScore>
0.0000

> <Gold.PLP.Chemscore.Metal>
0.0000

> <Gold.Chemscore.Hbonds>
donor molecule, donor type, donor heavy atom, donor atom, acceptor molecule, acceptor atom, score
      P1  H  6934  6946       L1    12  0.37
      P1  H  7989  7998       L1    32  1.00
      P1  H  7997  8008       L1    18  1.00

> <Gold.PLP.Chemscore.Internal.Correction>
0.0349

> <Gold.Rescore>
     Score         DG    S(hbond)    S(metal)    S(lipo)     H(rot)  DE(clash)    DE(int)     intcor
     12.41     -14.94       1.99        0.00      95.91       3.29       0.17       2.35       ----

> <Gold.Chemscore.Fitness>
12.4116

> <Gold.Chemscore.DG>
-14.9352

> <Gold.Chemscore.ZeroCoef>
-5.4800

> <Gold.Chemscore.Hbond>
1.9942

> <Gold.Chemscore.Metal>
0.0000

> <Gold.Chemscore.Lipo>
95.9055

> <Gold.Chemscore.Internal_Hbond>
0.0000

> <Gold.Chemscore.DEClash>
0.1749

> <Gold.Chemscore.DEInternal>
2.3487

> <Gold.Chemscore.Rot>
3.2916

> <Gold.Chemscore.Internal.Correction>
   9.000000E+99

> <Gold.Chemscore.Hbonds>
donor molecule, donor type, donor heavy atom, donor atom, acceptor molecule, acceptor atom, score
      P1  H  6934  6946       L1    12  0.07
      P1  H  7989  7998       L1    32  0.95
      P1  H  7997  8008       L1    18  0.86

> <Gold.Chemscore.Hbond.Weighted>
-6.6607

> <Gold.Chemscore.Metal.Weighted>
-0.0000

> <Gold.Chemscore.Lipo.Weighted>
-11.2209

> <Gold.Chemscore.Internal_Hbond.Weighted>
0.0000

> <Gold.Chemscore.DEClash.Weighted>
0.1749

> <Gold.Chemscore.DEInternal.Weighted>
2.3487

> <Gold.Chemscore.Rot.Weighted>
8.4265

> <Gold.Chemscore.Internal.Correction.Weighted>
   9.000000E+99

> <Gold.Protein.RotatedTorsions>
[ 6907 6896 6895 6894 ] final   77.40 input  -60.11 | X-H torsion
[ 7974 7965 7964 7962 ] final    8.63 input  175.53 | X-H torsion
[ 8008 7997 7996 7995 ] final  -59.76 input   59.86 | X-H torsion
[ 10167 10162 10161 10158 ] final   30.76 input  -65.29 | X-H torsion
[ 10718 10713 10712 10709 ] final  115.86 input   66.30 | X-H torsion
[ 10763 10752 10751 10750 ] final  -25.44 input  -60.55 | X-H torsion
[ 11005 11000 10999 10996 ] final -117.98 input  -57.11 | X-H torsion

> <Gold.Protein.ActiveResidues>
 VAL166  LYS551  ARG553  GLY616  TRP617  ASP618  TYR619  PRO620  LYS621  CYS622 
 ASP623  PHE694  ASN695  SER759  ASP760  ASP761  ALA762  ILE779  LEU786  VAL792 
 PHE793  MET794  SER795  GLU796  ALA797  LYS798  CYS799  TRP800  GLU811  SER814 

> <Gold.Protein.RotatedAtoms>
  152.5116  134.3822  159.9354 H   0  0  0  0  0  0  0  0  0  0  0  0  # atno 6907 bound_to 6896
  151.3779  133.3825  159.2714 H   0  0  0  0  0  0  0  0  0  0  0  0  # atno 6908 bound_to 6896
  150.9527  134.8945  159.7740 H   0  0  0  0  0  0  0  0  0  0  0  0  # atno 6909 bound_to 6896
  146.2414  139.9904  142.8426 H   0  0  0  0  0  0  0  0  0  0  0  0  # atno 7974 bound_to 7965
  154.4367  140.1054  156.6166 H   0  0  0  0  0  0  0  0  0  0  0  0  # atno 8008 bound_to 7997
  155.5752  140.3490  155.4507 H   0  0  0  0  0  0  0  0  0  0  0  0  # atno 8009 bound_to 7997
  156.0360  140.1271  157.0197 H   0  0  0  0  0  0  0  0  0  0  0  0  # atno 8010 bound_to 7997
  140.4649  144.0850  150.6222 H   0  0  0  0  0  0  0  0  0  0  0  0  # atno 10167 bound_to 10162
  157.6196  131.1018  150.7391 H   0  0  0  0  0  0  0  0  0  0  0  0  # atno 10718 bound_to 10713
  153.6999  135.6957  153.5066 H   0  0  0  0  0  0  0  0  0  0  0  0  # atno 10763 bound_to 10752
  153.2350  135.4325  155.0636 H   0  0  0  0  0  0  0  0  0  0  0  0  # atno 10764 bound_to 10752
  154.8347  135.3493  154.6538 H   0  0  0  0  0  0  0  0  0  0  0  0  # atno 10765 bound_to 10752
  141.0318  133.9970  157.3132 H   0  0  0  0  0  0  0  0  0  0  0  0  # atno 11005 bound_to 11000
  145.1508  140.9622  143.4434 LP  0  0  0  0  0  0  0  0  0  0  0  0  # atno 17320 bound_to 7965
  145.0207  139.3427  143.6074 LP  0  0  0  0  0  0  0  0  0  0  0  0  # atno 17321 bound_to 7965
  140.4048  143.2686  151.9904 LP  0  0  0  0  0  0  0  0  0  0  0  0  # atno 17342 bound_to 10162
  139.4811  144.5966  151.7679 LP  0  0  0  0  0  0  0  0  0  0  0  0  # atno 17343 bound_to 10162
  156.7751  130.4841  149.5411 LP  0  0  0  0  0  0  0  0  0  0  0  0  # atno 17370 bound_to 10713
  156.1334  130.6194  151.0366 LP  0  0  0  0  0  0  0  0  0  0  0  0  # atno 17371 bound_to 10713
  139.9213  135.0200  156.8073 LP  0  0  0  0  0  0  0  0  0  0  0  0  # atno 17394 bound_to 11000
  140.6394  133.9832  155.7700 LP  0  0  0  0  0  0  0  0  0  0  0  0  # atno 17395 bound_to 11000

$$$$
