AV-unprocessed.smi:111|AV-procd|sdf|1080|dock1
  -GOLD-   2262018173D 1   1.00000     0.00000
 Structure written by MMmdl.
 46 48  0  0  0  0  0  0  0  0  1 V2000
  153.7895  136.2519  160.9104 O   0  0  0  0  0  0  0  0  0  0  0  0
  154.1155  135.8684  162.0352 C   0  0  0  0  0  0  0  0  0  0  0  0
  154.3918  134.4726  162.3550 C   0  0  0  0  0  0  0  0  0  0  0  0
  154.2774  133.5360  161.3982 F   0  0  0  0  0  0  0  0  0  0  0  0
  154.7556  134.1024  163.6012 C   0  0  0  0  0  0  0  0  0  0  0  0
  154.8940  135.0002  164.6455 N   0  0  0  0  0  0  0  0  0  0  0  0
  155.3101  134.5349  166.0226 C   0  0  1  0  0  0  0  0  0  0  0  0
  154.2993  133.5218  166.5717 C   0  0  0  0  0  0  0  0  0  0  0  0
  154.9666  132.2024  166.2477 C   0  0  0  0  0  0  0  0  0  0  0  0
  156.4396  132.5571  166.4077 C   0  0  0  0  0  0  0  0  0  0  0  0
  156.5498  133.8939  165.9288 O   0  0  0  0  0  0  0  0  0  0  0  0
  154.6201  136.3695  164.4352 C   0  0  0  0  0  0  0  0  0  0  0  0
  154.6995  137.1752  165.3653 O   0  0  0  0  0  0  0  0  0  0  0  0
  154.2436  136.7631  163.1272 N   0  0  0  0  0  0  0  0  0  0  0  0
  153.9505  138.1686  162.8748 C   0  0  0  0  0  0  0  0  0  0  0  0
  154.9415  138.8602  161.9092 C   0  0  2  0  0  0  0  0  0  0  0  0
  156.2404  138.7540  162.4547 O   0  0  0  0  0  0  0  0  0  0  0  0
  154.6334  140.3491  161.6212 C   0  0  0  0  0  0  0  0  0  0  0  0
  153.2748  140.5769  160.9363 C   0  0  0  0  0  0  0  0  0  0  0  0
  152.8481  142.0355  160.9544 C   0  0  0  0  0  0  0  0  0  0  0  0
  152.3032  142.6364  159.7997 C   0  0  0  0  0  0  0  0  0  0  0  0
  151.8888  143.9822  159.8303 C   0  0  0  0  0  0  0  0  0  0  0  0
  152.0238  144.7347  161.0128 C   0  0  0  0  0  0  0  0  0  0  0  0
  152.5746  144.1410  162.1645 C   0  0  0  0  0  0  0  0  0  0  0  0
  152.9846  142.7943  162.1358 C   0  0  0  0  0  0  0  0  0  0  0  0
  154.9401  133.0535  163.7793 H   0  0  0  0  0  0  0  0  0  0  0  0
  155.4136  135.4304  166.6371 H   0  0  0  0  0  0  0  0  0  0  0  0
  154.2249  133.6561  167.6515 H   0  0  0  0  0  0  0  0  0  0  0  0
  153.3087  133.6424  166.1329 H   0  0  0  0  0  0  0  0  0  0  0  0
  154.6487  131.3898  166.9013 H   0  0  0  0  0  0  0  0  0  0  0  0
  154.7592  131.9144  165.2171 H   0  0  0  0  0  0  0  0  0  0  0  0
  156.7245  132.5354  167.4604 H   0  0  0  0  0  0  0  0  0  0  0  0
  157.0977  131.8811  165.8615 H   0  0  0  0  0  0  0  0  0  0  0  0
  152.9218  138.2660  162.5273 H   0  0  0  0  0  0  0  0  0  0  0  0
  153.9583  138.6513  163.8544 H   0  0  0  0  0  0  0  0  0  0  0  0
  154.9724  138.3000  160.9764 H   0  0  0  0  0  0  0  0  0  0  0  0
  156.5295  139.6159  162.7124 H   0  0  0  0  0  0  0  0  0  0  0  0
  154.6530  140.9344  162.5381 H   0  0  0  0  0  0  0  0  0  0  0  0
  155.4236  140.7789  161.0035 H   0  0  0  0  0  0  0  0  0  0  0  0
  153.3329  140.2520  159.8970 H   0  0  0  0  0  0  0  0  0  0  0  0
  152.5092  139.9580  161.4058 H   0  0  0  0  0  0  0  0  0  0  0  0
  152.1906  142.0646  158.8903 H   0  0  0  0  0  0  0  0  0  0  0  0
  151.4654  144.4365  158.9466 H   0  0  0  0  0  0  0  0  0  0  0  0
  151.7047  145.7662  161.0362 H   0  0  0  0  0  0  0  0  0  0  0  0
  152.6809  144.7177  163.0706 H   0  0  0  0  0  0  0  0  0  0  0  0
  153.4000  142.3423  163.0245 H   0  0  0  0  0  0  0  0  0  0  0  0
  1  2  2  0  0  0  0
  2 14  1  0  0  0  0
  2  3  1  0  0  0  0
  3  4  1  0  0  0  0
  3  5  2  0  0  0  0
  5  6  1  0  0  0  0
  5 26  1  0  0  0  0
  6  7  1  0  0  0  0
  6 12  1  0  0  0  0
  7 11  1  0  0  0  0
  7  8  1  0  0  0  0
  7 27  1  0  0  0  0
  8  9  1  0  0  0  0
  8 28  1  0  0  0  0
  8 29  1  0  0  0  0
  9 10  1  0  0  0  0
  9 30  1  0  0  0  0
  9 31  1  0  0  0  0
 10 11  1  0  0  0  0
 10 32  1  0  0  0  0
 10 33  1  0  0  0  0
 12 13  2  0  0  0  0
 12 14  1  0  0  0  0
 14 15  1  0  0  0  0
 15 16  1  0  0  0  0
 15 34  1  0  0  0  0
 15 35  1  0  0  0  0
 16 17  1  0  0  0  0
 16 18  1  0  0  0  0
 16 36  1  0  0  0  0
 17 37  1  0  0  0  0
 18 19  1  0  0  0  0
 18 38  1  0  0  0  0
 18 39  1  0  0  0  0
 19 20  1  0  0  0  0
 19 40  1  0  0  0  0
 19 41  1  0  0  0  0
 20 25  1  0  0  0  0
 20 21  2  0  0  0  0
 21 22  1  0  0  0  0
 21 42  1  0  0  0  0
 22 23  2  0  0  0  0
 22 43  1  0  0  0  0
 23 24  1  0  0  0  0
 23 44  1  0  0  0  0
 24 25  2  0  0  0  0
 24 45  1  0  0  0  0
 25 46  1  0  0  0  0
M  END
> <s_m_source_file>
AV-unprocessed.smi

> <i_m_source_file_index>
111

> <i_lp_mmshare_version>
43012

> <i_f3d_flags>
0

> <s_epik_input>
TzFbQ0gyXVtDSDJdW0NIMl1bQ0BIXTFuKFtjSF1jKEYpYzI9TyljKD1PKW4yW0NIMl1bQ0BIXShbT0hdKVtDSDJdW0NIMl1jM1tjSF1bY0hdW2NIXVtjSF1bY0hdMw==

> <s_epik_cmdline>
J2VwaWtfcHl0aG9uJywgJy1waCcsICc3LjAnLCAnLXRuJywgJzgnLCAnLW1hJywgJzIwMCcsICctbWV0YWxfYmluZGluZycsICctaW1hZScsICc8aW5maWxlLm1hZT4nLCAnLW9tYWUnLCAnPG91dGZpbGUubWFlPic=

> <r_lp_tautomer_probability>
1

> <r_epik_Ionization_Penalty>
1.88248e-07

> <r_epik_Ionization_Penalty_Charging>
4.03974e-08

> <r_epik_Ionization_Penalty_Neutral>
1.47851e-07

> <r_epik_State_Penalty>
-0

> <r_epik_Charging_Adjusted_Penalty>
4.03974e-08

> <i_epik_Tot_Q>
0

> <i_epik_Tot_abs_Q>
0

> <r_epik_Metal_State_Penalty>
-0

> <b_epik_Metal_Only>
0

> <s_epik_Chemistry_Notes>
This compound contains an acetal/aminal-like group ( X-CH(R)-Y where X, Y are N, S, or O) that may be acid/base labile, releasing an aldehyde.

> <s_lp_Force_Field>
OPLS_2005

> <r_lp_Energy>
34.7798

> <b_lp_Chiralities_Consistent>
1

> <s_lp_Variant>
AV-unprocessed.smi:111-2

> <Gold.Version>
5.8.1

> <Gold.Id.Protein>
6NUR|6NUR_protein|mol2

> <Gold.PLP.Fitness>
54.8069

> <Gold.PLP.PLP>
-55.2468

> <Gold.PLP.part.hbond>
0.0000

> <Gold.PLP.part.metal>
0.0000

> <Gold.PLP.part.buried>
-4.4415

> <Gold.PLP.part.nonpolar>
-50.7651

> <Gold.PLP.part.repulsive>
0.1828

> <Gold.PLP.ligand.clash>
0.0000

> <Gold.PLP.ligand.torsion>
0.2923

> <Gold.PLP.Chemscore.Hbond>
0.0000

> <Gold.PLP.Chemscore.CHOScore>
0.0000

> <Gold.PLP.Chemscore.Metal>
0.0000

> <Gold.PLP.Chemscore.Internal.Correction>
0.1447

> <Gold.Rescore>
     Score         DG    S(hbond)    S(metal)    S(lipo)     H(rot)  DE(clash)    DE(int)     intcor
     13.22     -13.76       0.00        0.00     129.28       2.67       0.05       0.49       ----

> <Gold.Chemscore.Fitness>
13.2213

> <Gold.Chemscore.DG>
-13.7596

> <Gold.Chemscore.ZeroCoef>
-5.4800

> <Gold.Chemscore.Hbond>
0.0000

> <Gold.Chemscore.Metal>
0.0000

> <Gold.Chemscore.Lipo>
129.2804

> <Gold.Chemscore.Internal_Hbond>
0.0000

> <Gold.Chemscore.DEClash>
0.0504

> <Gold.Chemscore.DEInternal>
0.4878

> <Gold.Chemscore.Rot>
2.6743

> <Gold.Chemscore.Internal.Correction>
   9.000000E+99

> <Gold.Chemscore.Hbond.Weighted>
-0.0000

> <Gold.Chemscore.Metal.Weighted>
-0.0000

> <Gold.Chemscore.Lipo.Weighted>
-15.1258

> <Gold.Chemscore.Internal_Hbond.Weighted>
0.0000

> <Gold.Chemscore.DEClash.Weighted>
0.0504

> <Gold.Chemscore.DEInternal.Weighted>
0.4878

> <Gold.Chemscore.Rot.Weighted>
6.8463

> <Gold.Chemscore.Internal.Correction.Weighted>
   9.000000E+99

> <Gold.Protein.RotatedTorsions>
[ 6907 6896 6895 6894 ] final  -22.61 input  -60.11 | X-H torsion
[ 7974 7965 7964 7962 ] final  106.29 input  175.53 | X-H torsion
[ 8008 7997 7996 7995 ] final  125.97 input   59.86 | X-H torsion
[ 10167 10162 10161 10158 ] final   80.77 input  -65.29 | X-H torsion
[ 10718 10713 10712 10709 ] final   82.63 input   66.30 | X-H torsion
[ 10763 10752 10751 10750 ] final  -70.59 input  -60.55 | X-H torsion
[ 11005 11000 10999 10996 ] final -169.59 input  -57.11 | X-H torsion

> <Gold.Protein.ActiveResidues>
 VAL166  LYS551  ARG553  GLY616  TRP617  ASP618  TYR619  PRO620  LYS621  CYS622 
 ASP623  PHE694  ASN695  SER759  ASP760  ASP761  ALA762  ILE779  LEU786  VAL792 
 PHE793  MET794  SER795  GLU796  ALA797  LYS798  CYS799  TRP800  GLU811  SER814 

> <Gold.Protein.RotatedAtoms>
  151.2161  135.0500  159.8930 H   0  0  0  0  0  0  0  0  0  0  0  0  # atno 6907 bound_to 6896
  152.5420  134.0692  159.8196 H   0  0  0  0  0  0  0  0  0  0  0  0  # atno 6908 bound_to 6896
  151.0852  133.5311  159.2650 H   0  0  0  0  0  0  0  0  0  0  0  0  # atno 6909 bound_to 6896
  145.3086  139.2547  143.3775 H   0  0  0  0  0  0  0  0  0  0  0  0  # atno 7974 bound_to 7965
  156.2850  140.2704  156.2035 H   0  0  0  0  0  0  0  0  0  0  0  0  # atno 8008 bound_to 7997
  155.0337  140.0386  157.2501 H   0  0  0  0  0  0  0  0  0  0  0  0  # atno 8009 bound_to 7997
  154.7333  140.2711  155.6442 H   0  0  0  0  0  0  0  0  0  0  0  0  # atno 8010 bound_to 7997
  139.9463  144.6056  150.8203 H   0  0  0  0  0  0  0  0  0  0  0  0  # atno 10167 bound_to 10162
  157.6861  131.0056  150.2404 H   0  0  0  0  0  0  0  0  0  0  0  0  # atno 10718 bound_to 10713
  154.4197  135.5989  153.6002 H   0  0  0  0  0  0  0  0  0  0  0  0  # atno 10763 bound_to 10752
  152.9793  135.5949  154.3969 H   0  0  0  0  0  0  0  0  0  0  0  0  # atno 10764 bound_to 10752
  154.3793  135.2841  155.2199 H   0  0  0  0  0  0  0  0  0  0  0  0  # atno 10765 bound_to 10752
  140.5290  134.5635  157.5069 H   0  0  0  0  0  0  0  0  0  0  0  0  # atno 11005 bound_to 11000
  146.3126  140.3617  142.8665 LP  0  0  0  0  0  0  0  0  0  0  0  0  # atno 17320 bound_to 7965
  144.9034  140.7671  143.5852 LP  0  0  0  0  0  0  0  0  0  0  0  0  # atno 17321 bound_to 7965
  140.7596  143.3133  151.2794 LP  0  0  0  0  0  0  0  0  0  0  0  0  # atno 17342 bound_to 10162
  139.6664  144.0098  152.2725 LP  0  0  0  0  0  0  0  0  0  0  0  0  # atno 17343 bound_to 10162
  156.3019  130.3759  149.7742 LP  0  0  0  0  0  0  0  0  0  0  0  0  # atno 17370 bound_to 10713
  156.5369  130.8283  151.3256 LP  0  0  0  0  0  0  0  0  0  0  0  0  # atno 17371 bound_to 10713
  139.9564  134.7527  156.0331 LP  0  0  0  0  0  0  0  0  0  0  0  0  # atno 17394 bound_to 11000
  141.1292  133.6591  156.3418 LP  0  0  0  0  0  0  0  0  0  0  0  0  # atno 17395 bound_to 11000

$$$$
