AV-unprocessed.smi:751|AV-procd|sdf|3594|dock1
  -GOLD-   22720 0583D 1   1.00000     0.00000
 Structure written by MMmdl.
 32 33  0  0  0  0  0  0  0  0  1 V2000
  149.1618  141.9522  154.1482 N   0  0  0  0  0  0  0  0  0  0  0  0
  149.8398  141.7781  155.0695 C   0  0  0  0  0  0  0  0  0  0  0  0
  150.6935  141.5586  156.2298 C   0  0  0  0  0  0  0  0  0  0  0  0
  150.5581  142.4190  157.3386 C   0  0  0  0  0  0  0  0  0  0  0  0
  151.3740  142.2218  158.4644 C   0  0  0  0  0  0  0  0  0  0  0  0
  152.3005  141.1622  158.4325 C   0  0  0  0  0  0  0  0  0  0  0  0
  153.2249  140.8716  159.6065 C   0  0  0  0  0  0  0  0  0  0  0  0
  154.0569  141.8866  159.8433 F   0  0  0  0  0  0  0  0  0  0  0  0
  152.5002  140.6549  160.7046 F   0  0  0  0  0  0  0  0  0  0  0  0
  153.9502  139.7830  159.3487 F   0  0  0  0  0  0  0  0  0  0  0  0
  152.4264  140.3412  157.3673 N   0  0  0  0  0  0  0  0  0  0  0  0
  151.6497  140.5065  156.2642 C   0  0  0  0  0  0  0  0  0  0  0  0
  151.8260  139.6139  155.1645 N   0  0  0  0  0  0  0  0  0  0  0  0
  152.7014  138.4775  155.4332 C   0  0  0  0  0  0  0  0  0  0  0  0
  151.7326  137.6515  154.5904 C   0  0  0  0  0  0  0  0  0  0  0  0
  151.4343  136.4031  155.1915 O   0  0  0  0  0  0  0  0  0  0  0  0
  150.0531  136.0816  155.1364 C   0  0  0  0  0  0  0  0  0  0  0  0
  149.8948  134.5622  155.0998 C   0  0  0  0  0  0  0  0  0  0  0  0
  149.2173  134.0437  154.0717 N   0  0  0  0  0  0  0  0  0  0  0  0
  150.3909  133.8627  155.9801 O   0  0  0  0  0  0  0  0  0  0  0  0
  150.6945  138.7394  154.8684 C   0  0  0  0  0  0  0  0  0  0  0  0
  149.8370  143.2240  157.3312 H   0  0  0  0  0  0  0  0  0  0  0  0
  151.2845  142.8704  159.3231 H   0  0  0  0  0  0  0  0  0  0  0  0
  153.6965  138.5794  154.9999 H   0  0  0  0  0  0  0  0  0  0  0  0
  152.7341  138.1693  156.4793 H   0  0  0  0  0  0  0  0  0  0  0  0
  152.0348  137.5859  153.5426 H   0  0  0  0  0  0  0  0  0  0  0  0
  149.5280  136.4702  156.0102 H   0  0  0  0  0  0  0  0  0  0  0  0
  149.5989  136.5235  154.2482 H   0  0  0  0  0  0  0  0  0  0  0  0
  149.0950  133.0433  154.0056 H   0  0  0  0  0  0  0  0  0  0  0  0
  148.8363  134.6526  153.3623 H   0  0  0  0  0  0  0  0  0  0  0  0
  150.0521  138.5113  155.7201 H   0  0  0  0  0  0  0  0  0  0  0  0
  150.1239  139.0446  153.9910 H   0  0  0  0  0  0  0  0  0  0  0  0
  1  2  3  0  0  0  0
  2  3  1  0  0  0  0
  3 12  1  0  0  0  0
  3  4  2  0  0  0  0
  4  5  1  0  0  0  0
  4 22  1  0  0  0  0
  5  6  2  0  0  0  0
  5 23  1  0  0  0  0
  6  7  1  0  0  0  0
  6 11  1  0  0  0  0
  7  8  1  0  0  0  0
  7  9  1  0  0  0  0
  7 10  1  0  0  0  0
 11 12  2  0  0  0  0
 12 13  1  0  0  0  0
 13 21  1  0  0  0  0
 13 14  1  0  0  0  0
 14 15  1  0  0  0  0
 14 24  1  0  0  0  0
 14 25  1  0  0  0  0
 15 16  1  0  0  0  0
 15 21  1  0  0  0  0
 15 26  1  0  0  0  0
 16 17  1  0  0  0  0
 17 18  1  0  0  0  0
 17 27  1  0  0  0  0
 17 28  1  0  0  0  0
 18 19  1  0  0  0  0
 18 20  2  0  0  0  0
 19 29  1  0  0  0  0
 19 30  1  0  0  0  0
 21 31  1  0  0  0  0
 21 32  1  0  0  0  0
M  END
> <s_m_source_file>
AV-unprocessed.smi

> <i_m_source_file_index>
751

> <i_lp_mmshare_version>
43012

> <i_f3d_flags>
0

> <s_epik_input>
TiNDYzFbY0hdW2NIXWMoQyhGKShGKUYpbmMxTjJbQ0gyXVtDSF0oW0NIMl0yKU9bQ0gyXUMoPU8pW05IMl0=

> <s_epik_cmdline>
J2VwaWtfcHl0aG9uJywgJy1waCcsICc3LjAnLCAnLXRuJywgJzgnLCAnLW1hJywgJzIwMCcsICctbWV0YWxfYmluZGluZycsICctaW1hZScsICc8aW5maWxlLm1hZT4nLCAnLW9tYWUnLCAnPG91dGZpbGUubWFlPic=

> <r_lp_tautomer_probability>
1

> <r_epik_Ionization_Penalty>
6.47511e-08

> <r_epik_Ionization_Penalty_Charging>
0

> <r_epik_Ionization_Penalty_Neutral>
6.47511e-08

> <r_epik_State_Penalty>
-0

> <r_epik_Charging_Adjusted_Penalty>
0

> <i_epik_Tot_Q>
0

> <i_epik_Tot_abs_Q>
0

> <r_epik_Metal_State_Penalty>
-0

> <b_epik_Metal_Only>
0

> <s_lp_Force_Field>
OPLS_2005

> <r_lp_Energy>
25.0077

> <b_lp_Chiralities_Consistent>
1

> <s_lp_Variant>
AV-unprocessed.smi:751-1

> <Gold.Version>
5.8.1

> <Gold.Id.Protein>
6NUR|6NUR_protein|mol2

> <Gold.PLP.Fitness>
47.3274

> <Gold.PLP.PLP>
-35.6167

> <Gold.PLP.part.hbond>
-5.0830

> <Gold.PLP.part.metal>
0.0000

> <Gold.PLP.part.buried>
-1.0823

> <Gold.PLP.part.nonpolar>
-28.2007

> <Gold.PLP.part.repulsive>
0.6646

> <Gold.PLP.ligand.clash>
0.1008

> <Gold.PLP.ligand.torsion>
0.7369

> <Gold.PLP.Chemscore.Hbond>
4.2870

> <Gold.PLP.Chemscore.CHOScore>
0.0000

> <Gold.PLP.Chemscore.Metal>
0.0000

> <Gold.Chemscore.Hbonds>
donor molecule, donor type, donor heavy atom, donor atom, acceptor molecule, acceptor atom, score
      L1  H    19    30       P1  7948  0.69
      P1  H  7989  7998       L1    13  0.78
      P1  H  7997  8010       L1    11  0.81
      P1  H  8011  8017       L1     1  0.42
      P1  H 10752 10763       L1    16  0.65

> <Gold.PLP.Chemscore.Internal.Correction>
0.4242

> <Gold.Rescore>
     Score         DG    S(hbond)    S(metal)    S(lipo)     H(rot)  DE(clash)    DE(int)     intcor
     11.72     -13.67       1.97        0.00      70.44       2.59       1.38       0.57       ----

> <Gold.Chemscore.Fitness>
11.7187

> <Gold.Chemscore.DG>
-13.6719

> <Gold.Chemscore.ZeroCoef>
-5.4800

> <Gold.Chemscore.Hbond>
1.9695

> <Gold.Chemscore.Metal>
0.0000

> <Gold.Chemscore.Lipo>
70.4351

> <Gold.Chemscore.Internal_Hbond>
0.0000

> <Gold.Chemscore.DEClash>
1.3835

> <Gold.Chemscore.DEInternal>
0.5697

> <Gold.Chemscore.Rot>
2.5888

> <Gold.Chemscore.Internal.Correction>
   9.000000E+99

> <Gold.Chemscore.Hbonds>
donor molecule, donor type, donor heavy atom, donor atom, acceptor molecule, acceptor atom, score
      L1  H    19    30       P1  7948  0.15
      P1  H  7989  7998       L1    13  0.06
      P1  H  7997  8010       L1    11  0.39
      P1  H  8011  8017       L1     1  0.41
      P1  H 10752 10763       L1    16  0.06

> <Gold.Chemscore.Hbond.Weighted>
-6.5782

> <Gold.Chemscore.Metal.Weighted>
-0.0000

> <Gold.Chemscore.Lipo.Weighted>
-8.2409

> <Gold.Chemscore.Internal_Hbond.Weighted>
0.0000

> <Gold.Chemscore.DEClash.Weighted>
1.3835

> <Gold.Chemscore.DEInternal.Weighted>
0.5697

> <Gold.Chemscore.Rot.Weighted>
6.6272

> <Gold.Chemscore.Internal.Correction.Weighted>
   9.000000E+99

> <Gold.Protein.RotatedTorsions>
[ 6907 6896 6895 6894 ] final  121.92 input  -60.11 | X-H torsion
[ 7974 7965 7964 7962 ] final  -36.22 input  175.53 | X-H torsion
[ 8008 7997 7996 7995 ] final   58.74 input   59.86 | X-H torsion
[ 10167 10162 10161 10158 ] final -146.54 input  -65.29 | X-H torsion
[ 10718 10713 10712 10709 ] final -115.11 input   66.30 | X-H torsion
[ 10763 10752 10751 10750 ] final   52.64 input  -60.55 | X-H torsion
[ 11005 11000 10999 10996 ] final -130.33 input  -57.11 | X-H torsion

> <Gold.Protein.ActiveResidues>
 VAL166  LYS551  ARG553  GLY616  TRP617  ASP618  TYR619  PRO620  LYS621  CYS622 
 ASP623  PHE694  ASN695  SER759  ASP760  ASP761  ALA762  ILE779  LEU786  VAL792 
 PHE793  MET794  SER795  GLU796  ALA797  LYS798  CYS799  TRP800  GLU811  SER814 

> <Gold.Protein.RotatedAtoms>
  152.4284  133.7235  159.6546 H   0  0  0  0  0  0  0  0  0  0  0  0  # atno 6907 bound_to 6896
  150.8161  133.8323  159.3165 H   0  0  0  0  0  0  0  0  0  0  0  0  # atno 6908 bound_to 6896
  151.6019  135.1049  160.0114 H   0  0  0  0  0  0  0  0  0  0  0  0  # atno 6909 bound_to 6896
  146.0680  140.6252  142.8966 H   0  0  0  0  0  0  0  0  0  0  0  0  # atno 7974 bound_to 7965
  155.5549  140.3487  155.4477 H   0  0  0  0  0  0  0  0  0  0  0  0  # atno 8008 bound_to 7997
  156.0556  140.1328  157.0026 H   0  0  0  0  0  0  0  0  0  0  0  0  # atno 8009 bound_to 7997
  154.4455  140.0996  156.6426 H   0  0  0  0  0  0  0  0  0  0  0  0  # atno 8010 bound_to 7997
  139.7704  143.8246  152.2623 H   0  0  0  0  0  0  0  0  0  0  0  0  # atno 10167 bound_to 10162
  156.0874  130.6063  150.8863 H   0  0  0  0  0  0  0  0  0  0  0  0  # atno 10718 bound_to 10713
  152.9790  135.5806  154.4611 H   0  0  0  0  0  0  0  0  0  0  0  0  # atno 10763 bound_to 10752
  154.4187  135.2771  155.1992 H   0  0  0  0  0  0  0  0  0  0  0  0  # atno 10764 bound_to 10752
  154.3750  135.6159  153.5814 H   0  0  0  0  0  0  0  0  0  0  0  0  # atno 10765 bound_to 10752
  140.9354  134.1263  157.4198 H   0  0  0  0  0  0  0  0  0  0  0  0  # atno 11005 bound_to 11000
  144.7214  140.4386  143.7005 LP  0  0  0  0  0  0  0  0  0  0  0  0  # atno 17320 bound_to 7965
  145.6442  139.1554  143.2898 LP  0  0  0  0  0  0  0  0  0  0  0  0  # atno 17321 bound_to 7965
  139.8279  144.7267  150.9488 LP  0  0  0  0  0  0  0  0  0  0  0  0  # atno 17342 bound_to 10162
  140.7813  143.4097  151.1012 LP  0  0  0  0  0  0  0  0  0  0  0  0  # atno 17343 bound_to 10162
  157.6012  131.0941  150.8956 LP  0  0  0  0  0  0  0  0  0  0  0  0  # atno 17370 bound_to 10713
  156.9113  130.5282  149.5280 LP  0  0  0  0  0  0  0  0  0  0  0  0  # atno 17371 bound_to 10713
  139.8806  135.0019  156.6096 LP  0  0  0  0  0  0  0  0  0  0  0  0  # atno 17394 bound_to 11000
  140.7806  133.8663  155.8564 LP  0  0  0  0  0  0  0  0  0  0  0  0  # atno 17395 bound_to 11000

$$$$
