AV-unprocessed.smi:745|AV-procd|sdf|3572|dock5
  -GOLD-   22720 0563D 1   1.00000     0.00000
 Structure written by MMmdl.
 42 43  0  0  0  0  0  0  0  0  2 V2000
  145.6633  138.3681  154.4778 C   0  0  0  0  0  0  0  0  0  0  0  0
  146.4931  138.6889  153.2224 C   0  0  2  0  0  0  0  0  0  0  0  0
  146.7163  137.4330  152.5043 N   0  0  0  0  0  0  0  0  0  0  0  0
  145.7648  136.5791  152.0958 C   0  0  0  0  0  0  0  0  0  0  0  0
  144.5595  136.7807  152.2469 O   0  0  0  0  0  0  0  0  0  0  0  0
  146.3044  135.4990  151.5039 N   0  0  0  0  0  0  0  0  0  0  0  0
  145.6344  134.3823  150.9367 C   0  0  0  0  0  0  0  0  0  0  0  0
  146.4688  133.2943  150.5946 C   0  0  0  0  0  0  0  0  0  0  0  0
  145.9012  132.1382  150.0247 C   0  0  0  0  0  0  0  0  0  0  0  0
  144.5119  132.0998  149.8110 C   0  0  0  0  0  0  0  0  0  0  0  0
  143.7533  133.2261  150.1792 C   0  0  0  0  0  0  0  0  0  0  0  0
  144.2952  134.3355  150.7249 N   0  0  0  0  0  0  0  0  0  0  0  0
  147.8392  139.4000  153.5362 C   0  0  2  0  0  0  0  0  0  0  0  0
  148.7937  138.5069  154.3603 C   0  0  0  0  0  0  0  0  0  0  0  0
  150.1059  139.2287  154.7083 C   0  0  0  0  0  0  0  0  0  0  0  0
  149.8404  140.4914  155.4366 N   0  3  1  0  0  0  0  0  0  0  0  0
  151.0811  141.1459  155.9038 C   0  0  0  0  0  0  0  0  0  0  0  0
  148.9807  141.4046  154.6478 C   0  0  0  0  0  0  0  0  0  0  0  0
  147.6432  140.7339  154.2952 C   0  0  0  0  0  0  0  0  0  0  0  0
  145.3256  139.2716  154.9840 H   0  0  0  0  0  0  0  0  0  0  0  0
  146.2338  137.7741  155.1924 H   0  0  0  0  0  0  0  0  0  0  0  0
  144.7673  137.8026  154.2185 H   0  0  0  0  0  0  0  0  0  0  0  0
  145.8910  139.3577  152.6045 H   0  0  0  0  0  0  0  0  0  0  0  0
  147.6782  137.1819  152.3283 H   0  0  0  0  0  0  0  0  0  0  0  0
  147.3120  135.4696  151.4558 H   0  0  0  0  0  0  0  0  0  0  0  0
  147.5346  133.3405  150.7657 H   0  0  0  0  0  0  0  0  0  0  0  0
  146.5221  131.2961  149.7569 H   0  0  0  0  0  0  0  0  0  0  0  0
  144.0402  131.2309  149.3763 H   0  0  0  0  0  0  0  0  0  0  0  0
  142.6835  133.2379  150.0313 H   0  0  0  0  0  0  0  0  0  0  0  0
  148.3289  139.6269  152.5876 H   0  0  0  0  0  0  0  0  0  0  0  0
  148.2990  138.1885  155.2791 H   0  0  0  0  0  0  0  0  0  0  0  0
  149.0398  137.5986  153.8112 H   0  0  0  0  0  0  0  0  0  0  0  0
  150.7266  138.5759  155.3234 H   0  0  0  0  0  0  0  0  0  0  0  0
  150.6719  139.4406  153.7996 H   0  0  0  0  0  0  0  0  0  0  0  0
  151.7060  141.4467  155.0618 H   0  0  0  0  0  0  0  0  0  0  0  0
  151.6587  140.4695  156.5347 H   0  0  0  0  0  0  0  0  0  0  0  0
  150.8493  142.0335  156.4932 H   0  0  0  0  0  0  0  0  0  0  0  0
  148.7903  142.3129  155.2211 H   0  0  0  0  0  0  0  0  0  0  0  0
  149.5023  141.7062  153.7380 H   0  0  0  0  0  0  0  0  0  0  0  0
  147.0577  141.4336  153.6992 H   0  0  0  0  0  0  0  0  0  0  0  0
  147.0734  140.5567  155.2087 H   0  0  0  0  0  0  0  0  0  0  0  0
  149.3168  140.2441  156.2642 H   0  0  0  0  0  0  0  0  0  0  0  0
  1  2  1  0  0  0  0
  1 20  1  0  0  0  0
  1 21  1  0  0  0  0
  1 22  1  0  0  0  0
  2  3  1  0  0  0  0
  2 13  1  0  0  0  0
  2 23  1  0  0  0  0
  3  4  1  0  0  0  0
  3 24  1  0  0  0  0
  4  5  2  0  0  0  0
  4  6  1  0  0  0  0
  6  7  1  0  0  0  0
  6 25  1  0  0  0  0
  7 12  1  0  0  0  0
  7  8  2  0  0  0  0
  8  9  1  0  0  0  0
  8 26  1  0  0  0  0
  9 10  2  0  0  0  0
  9 27  1  0  0  0  0
 10 11  1  0  0  0  0
 10 28  1  0  0  0  0
 11 12  2  0  0  0  0
 11 29  1  0  0  0  0
 13 19  1  0  0  0  0
 13 14  1  0  0  0  0
 13 30  1  0  0  0  0
 14 15  1  0  0  0  0
 14 31  1  0  0  0  0
 14 32  1  0  0  0  0
 15 16  1  0  0  0  0
 15 33  1  0  0  0  0
 15 34  1  0  0  0  0
 16 17  1  0  0  0  0
 16 18  1  0  0  0  0
 16 42  1  0  0  0  0
 17 35  1  0  0  0  0
 17 36  1  0  0  0  0
 17 37  1  0  0  0  0
 18 19  1  0  0  0  0
 18 38  1  0  0  0  0
 18 39  1  0  0  0  0
 19 40  1  0  0  0  0
 19 41  1  0  0  0  0
M  CHG  1  16   1
M  END
> <s_m_source_file>
AV-unprocessed.smi

> <i_m_source_file_index>
745

> <i_lp_mmshare_version>
43012

> <i_f3d_flags>
0

> <s_epik_input>
W0NIMl0xW0NIMl1OKFtDSDNdKVtDSDJdW0NIMl1bQ0hdMVtDQEhdKFtDSDNdKVtOSF1DKD1PKVtOSF1jMltjSF1bY0hdW2NIXVtjSF1uMg==

> <s_epik_cmdline>
J2VwaWtfcHl0aG9uJywgJy1waCcsICc3LjAnLCAnLXRuJywgJzgnLCAnLW1hJywgJzIwMCcsICctbWV0YWxfYmluZGluZycsICctaW1hZScsICc8aW5maWxlLm1hZT4nLCAnLW9tYWUnLCAnPG91dGZpbGUubWFlPic=

> <r_epik_Ionization_Penalty>
0.0011087

> <r_epik_Ionization_Penalty_Charging>
0.00106265

> <r_epik_Ionization_Penalty_Neutral>
4.60506e-05

> <r_epik_State_Penalty>
0.000695551

> <r_epik_Charging_Adjusted_Penalty>
0.0017582

> <i_epik_Tot_Q>
1

> <i_epik_Tot_abs_Q>
1

> <r_epik_Metal_State_Penalty>
-0

> <b_epik_Metal_Only>
0

> <s_lp_Force_Field>
OPLS_2005

> <r_lp_Energy>
20.1287

> <b_lp_Chiralities_Consistent>
1

> <s_lp_Variant>
AV-unprocessed.smi:745-1

> <Gold.Version>
5.8.1

> <Gold.Id.Protein>
6NUR|6NUR_protein|mol2

> <Gold.PLP.Fitness>
41.8747

> <Gold.PLP.PLP>
-32.9474

> <Gold.PLP.part.hbond>
-2.0000

> <Gold.PLP.part.metal>
0.0000

> <Gold.PLP.part.buried>
-3.2396

> <Gold.PLP.part.nonpolar>
-28.7182

> <Gold.PLP.part.repulsive>
0.7220

> <Gold.PLP.ligand.clash>
0.0000

> <Gold.PLP.ligand.torsion>
0.0450

> <Gold.PLP.Chemscore.Hbond>
2.0000

> <Gold.PLP.Chemscore.CHOScore>
1.0000

> <Gold.PLP.Chemscore.Metal>
0.0000

> <Gold.Chemscore.Hbonds>
donor molecule, donor type, donor heavy atom, donor atom, acceptor molecule, acceptor atom, score
      L1  H     3    24       P1  7948  1.00
      L1  H     6    25       P1  7948  1.00
      L1  C    11    29       P1 10186  1.00

> <Gold.PLP.Chemscore.Internal.Correction>
0.0172

> <Gold.Rescore>
     Score         DG    S(hbond)    S(metal)    S(lipo)     H(rot)  DE(clash)    DE(int)     intcor
     16.38     -18.74       1.89        0.00      86.90       1.26       0.11       2.24       ----

> <Gold.Chemscore.Fitness>
16.3823

> <Gold.Chemscore.DG>
-18.7392

> <Gold.Chemscore.ZeroCoef>
-5.4800

> <Gold.Chemscore.Hbond>
1.8917

> <Gold.Chemscore.Metal>
0.0000

> <Gold.Chemscore.Lipo>
86.8959

> <Gold.Chemscore.Internal_Hbond>
0.0000

> <Gold.Chemscore.DEClash>
0.1149

> <Gold.Chemscore.DEInternal>
2.2420

> <Gold.Chemscore.Rot>
1.2601

> <Gold.Chemscore.Internal.Correction>
   9.000000E+99

> <Gold.Chemscore.Hbonds>
donor molecule, donor type, donor heavy atom, donor atom, acceptor molecule, acceptor atom, score
      L1  H     3    24       P1  7948  0.99
      L1  H     6    25       P1  7948  0.90

> <Gold.Chemscore.Hbond.Weighted>
-6.3183

> <Gold.Chemscore.Metal.Weighted>
-0.0000

> <Gold.Chemscore.Lipo.Weighted>
-10.1668

> <Gold.Chemscore.Internal_Hbond.Weighted>
0.0000

> <Gold.Chemscore.DEClash.Weighted>
0.1149

> <Gold.Chemscore.DEInternal.Weighted>
2.2420

> <Gold.Chemscore.Rot.Weighted>
3.2260

> <Gold.Chemscore.Internal.Correction.Weighted>
   9.000000E+99

> <Gold.Protein.RotatedTorsions>
[ 6907 6896 6895 6894 ] final  -48.02 input  -60.11 | X-H torsion
[ 7974 7965 7964 7962 ] final  101.61 input  175.53 | X-H torsion
[ 8008 7997 7996 7995 ] final  146.02 input   59.86 | X-H torsion
[ 10167 10162 10161 10158 ] final -169.07 input  -65.29 | X-H torsion
[ 10718 10713 10712 10709 ] final   73.09 input   66.30 | X-H torsion
[ 10763 10752 10751 10750 ] final  -24.25 input  -60.55 | X-H torsion
[ 11005 11000 10999 10996 ] final -162.57 input  -57.11 | X-H torsion

> <Gold.Protein.ActiveResidues>
 VAL166  LYS551  ARG553  GLY616  TRP617  ASP618  TYR619  PRO620  LYS621  CYS622 
 ASP623  PHE694  ASN695  SER759  ASP760  ASP761  ALA762  ILE779  LEU786  VAL792 
 PHE793  MET794  SER795  GLU796  ALA797  LYS798  CYS799  TRP800  GLU811  SER814 

> <Gold.Protein.RotatedAtoms>
  150.8948  134.8355  159.7318 H   0  0  0  0  0  0  0  0  0  0  0  0  # atno 6907 bound_to 6896
  152.4858  134.4592  159.9609 H   0  0  0  0  0  0  0  0  0  0  0  0  # atno 6908 bound_to 6896
  151.4651  133.3544  159.2850 H   0  0  0  0  0  0  0  0  0  0  0  0  # atno 6909 bound_to 6896
  145.3700  139.2400  143.3460 H   0  0  0  0  0  0  0  0  0  0  0  0  # atno 7974 bound_to 7965
  156.2867  140.2193  156.5310 H   0  0  0  0  0  0  0  0  0  0  0  0  # atno 8008 bound_to 7997
  154.7449  140.0485  157.0865 H   0  0  0  0  0  0  0  0  0  0  0  0  # atno 8009 bound_to 7997
  155.0183  140.3121  155.4806 H   0  0  0  0  0  0  0  0  0  0  0  0  # atno 8010 bound_to 7997
  139.5945  144.1141  152.1673 H   0  0  0  0  0  0  0  0  0  0  0  0  # atno 10167 bound_to 10162
  157.6531  130.9611  150.1020 H   0  0  0  0  0  0  0  0  0  0  0  0  # atno 10718 bound_to 10713
  153.6808  135.6967  153.5118 H   0  0  0  0  0  0  0  0  0  0  0  0  # atno 10763 bound_to 10752
  153.2486  135.4282  155.0773 H   0  0  0  0  0  0  0  0  0  0  0  0  # atno 10764 bound_to 10752
  154.8400  135.3526  154.6351 H   0  0  0  0  0  0  0  0  0  0  0  0  # atno 10765 bound_to 10752
  140.6077  134.4881  157.5212 H   0  0  0  0  0  0  0  0  0  0  0  0  # atno 11005 bound_to 11000
  146.2889  140.4349  142.8747 LP  0  0  0  0  0  0  0  0  0  0  0  0  # atno 17320 bound_to 7965
  144.8583  140.7103  143.6123 LP  0  0  0  0  0  0  0  0  0  0  0  0  # atno 17321 bound_to 7965
  140.0723  144.5769  150.7182 LP  0  0  0  0  0  0  0  0  0  0  0  0  # atno 17342 bound_to 10162
  140.7201  143.2580  151.4308 LP  0  0  0  0  0  0  0  0  0  0  0  0  # atno 17343 bound_to 10162
  156.1940  130.3656  149.8873 LP  0  0  0  0  0  0  0  0  0  0  0  0  # atno 17370 bound_to 10713
  156.6794  130.8852  151.3573 LP  0  0  0  0  0  0  0  0  0  0  0  0  # atno 17371 bound_to 10713
  139.9205  134.8158  156.1226 LP  0  0  0  0  0  0  0  0  0  0  0  0  # atno 17394 bound_to 11000
  141.0829  133.6746  156.2374 LP  0  0  0  0  0  0  0  0  0  0  0  0  # atno 17395 bound_to 11000

$$$$
