AV-unprocessed.smi:1782|AV-procd|sdf|7191|dock8
  -GOLD-   22720 8433D 1   1.00000     0.00000
 Structure written by MMmdl.
 42 44  0  0  0  0  0  0  0  0  2 V2000
  144.2652  135.3486  151.4692 O   0  0  0  0  0  0  0  0  0  0  0  0
  145.4942  135.2818  151.4259 C   0  0  0  0  0  0  0  0  0  0  0  0
  146.1903  134.0768  150.7780 C   0  0  0  0  0  0  0  0  0  0  0  0
  146.5789  133.0463  151.7564 N   0  0  0  0  0  0  0  0  0  0  0  0
  147.2519  133.4830  152.9116 C   0  0  0  0  0  0  0  0  0  0  0  0
  147.6553  132.6259  153.8589 C   0  0  0  0  0  0  0  0  0  0  0  0
  147.3851  131.2216  153.6688 C   0  0  0  0  0  0  0  0  0  0  0  0
  146.7390  130.7712  152.5683 C   0  0  0  0  0  0  0  0  0  0  0  0
  146.4559  129.2873  152.3454 C   0  0  0  0  0  0  0  0  0  0  0  0
  147.2549  128.7977  151.3967 F   0  0  0  0  0  0  0  0  0  0  0  0
  146.6657  128.5942  153.4653 F   0  0  0  0  0  0  0  0  0  0  0  0
  145.1946  129.0753  151.9663 F   0  0  0  0  0  0  0  0  0  0  0  0
  146.2951  131.7255  151.5317 C   0  0  0  0  0  0  0  0  0  0  0  0
  145.7012  131.3652  150.5135 O   0  0  0  0  0  0  0  0  0  0  0  0
  146.2968  136.2380  151.9162 N   0  0  0  0  0  0  0  0  0  0  0  0
  145.8305  137.4436  152.5919 C   0  0  1  0  0  0  0  0  0  0  0  0
  146.1427  137.4874  154.0912 C   0  0  0  0  0  0  0  0  0  0  0  0
  146.3170  138.9821  154.4089 C   0  0  0  0  0  0  0  0  0  0  0  0
  146.2836  139.7019  153.1145 N   0  3  1  0  0  0  0  0  0  0  0  0
  147.1796  140.8755  153.0476 C   0  0  0  0  0  0  0  0  0  0  0  0
  148.3361  140.8065  154.0158 C   0  0  0  0  0  0  0  0  0  0  0  0
  147.1632  141.7201  154.2989 C   0  0  0  0  0  0  0  0  0  0  0  0
  146.5286  138.6947  152.0678 C   0  0  0  0  0  0  0  0  0  0  0  0
  145.5182  133.6633  150.0249 H   0  0  0  0  0  0  0  0  0  0  0  0
  147.0688  134.4114  150.2227 H   0  0  0  0  0  0  0  0  0  0  0  0
  147.4222  134.5481  152.9744 H   0  0  0  0  0  0  0  0  0  0  0  0
  148.1737  132.9767  154.7392 H   0  0  0  0  0  0  0  0  0  0  0  0
  147.7156  130.5288  154.4281 H   0  0  0  0  0  0  0  0  0  0  0  0
  147.2954  136.1103  151.8328 H   0  0  0  0  0  0  0  0  0  0  0  0
  144.7545  137.5556  152.4423 H   0  0  0  0  0  0  0  0  0  0  0  0
  145.3571  137.0233  154.6884 H   0  0  0  0  0  0  0  0  0  0  0  0
  147.0736  136.9591  154.3035 H   0  0  0  0  0  0  0  0  0  0  0  0
  145.5182  139.3536  155.0515 H   0  0  0  0  0  0  0  0  0  0  0  0
  147.2632  139.1463  154.9271 H   0  0  0  0  0  0  0  0  0  0  0  0
  147.3053  141.3371  152.0696 H   0  0  0  0  0  0  0  0  0  0  0  0
  148.4400  139.9149  154.6319 H   0  0  0  0  0  0  0  0  0  0  0  0
  149.2714  141.2747  153.7153 H   0  0  0  0  0  0  0  0  0  0  0  0
  147.3266  142.7900  154.1849 H   0  0  0  0  0  0  0  0  0  0  0  0
  146.4877  141.4363  155.1041 H   0  0  0  0  0  0  0  0  0  0  0  0
  147.6021  138.5220  151.9665 H   0  0  0  0  0  0  0  0  0  0  0  0
  146.1409  139.0181  151.1011 H   0  0  0  0  0  0  0  0  0  0  0  0
  145.3352  140.0254  152.9873 H   0  0  0  0  0  0  0  0  0  0  0  0
  1  2  2  0  0  0  0
  2  3  1  0  0  0  0
  2 15  1  0  0  0  0
  3  4  1  0  0  0  0
  3 24  1  0  0  0  0
  3 25  1  0  0  0  0
  4 13  1  0  0  0  0
  4  5  1  0  0  0  0
  5  6  2  0  0  0  0
  5 26  1  0  0  0  0
  6  7  1  0  0  0  0
  6 27  1  0  0  0  0
  7  8  2  0  0  0  0
  7 28  1  0  0  0  0
  8  9  1  0  0  0  0
  8 13  1  0  0  0  0
  9 10  1  0  0  0  0
  9 11  1  0  0  0  0
  9 12  1  0  0  0  0
 13 14  2  0  0  0  0
 15 16  1  0  0  0  0
 15 29  1  0  0  0  0
 16 23  1  0  0  0  0
 16 17  1  0  0  0  0
 16 30  1  0  0  0  0
 17 18  1  0  0  0  0
 17 31  1  0  0  0  0
 17 32  1  0  0  0  0
 18 19  1  0  0  0  0
 18 33  1  0  0  0  0
 18 34  1  0  0  0  0
 19 20  1  0  0  0  0
 19 23  1  0  0  0  0
 19 42  1  0  0  0  0
 20 22  1  0  0  0  0
 20 21  1  0  0  0  0
 20 35  1  0  0  0  0
 21 22  1  0  0  0  0
 21 36  1  0  0  0  0
 21 37  1  0  0  0  0
 22 38  1  0  0  0  0
 22 39  1  0  0  0  0
 23 40  1  0  0  0  0
 23 41  1  0  0  0  0
M  CHG  1  19   1
M  END
> <s_m_source_file>
AV-unprocessed.smi

> <i_m_source_file_index>
1782

> <i_lp_mmshare_version>
43012

> <i_f3d_flags>
0

> <s_epik_input>
W0NIMl0xW0NIMl1bQ0hdMU4oW0NIMl0yKVtDSDJdW0NIMl1bQ0BIXTJbTkhdQyg9TylbQ0gyXW4zW2NIXVtjSF1bY0hdYyhDKEYpKEYpRiljMz1P

> <s_epik_cmdline>
J2VwaWtfcHl0aG9uJywgJy1waCcsICc3LjAnLCAnLXRuJywgJzgnLCAnLW1hJywgJzIwMCcsICctbWV0YWxfYmluZGluZycsICctaW1hZScsICc8aW5maWxlLm1hZT4nLCAnLW9tYWUnLCAnPG91dGZpbGUubWFlPic=

> <r_lp_tautomer_probability>
1

> <r_epik_Ionization_Penalty>
0.00106789

> <r_epik_Ionization_Penalty_Charging>
0.00106781

> <r_epik_Ionization_Penalty_Neutral>
8.2288e-08

> <r_epik_State_Penalty>
0.000699156

> <r_epik_Charging_Adjusted_Penalty>
0.00176697

> <i_epik_Tot_Q>
1

> <i_epik_Tot_abs_Q>
1

> <r_epik_Metal_State_Penalty>
-0

> <b_epik_Metal_Only>
0

> <s_lp_Force_Field>
OPLS_2005

> <r_lp_Energy>
45.6714

> <b_lp_Chiralities_Consistent>
1

> <s_lp_Variant>
AV-unprocessed.smi:1782-4

> <Gold.Version>
5.8.1

> <Gold.Id.Protein>
6NUR|6NUR_protein|mol2

> <Gold.PLP.Fitness>
50.4950

> <Gold.PLP.PLP>
-40.9313

> <Gold.PLP.part.hbond>
-2.0000

> <Gold.PLP.part.metal>
0.0000

> <Gold.PLP.part.buried>
-2.0329

> <Gold.PLP.part.nonpolar>
-36.7919

> <Gold.PLP.part.repulsive>
0.3391

> <Gold.PLP.ligand.clash>
0.6812

> <Gold.PLP.ligand.torsion>
1.6731

> <Gold.PLP.Chemscore.Hbond>
3.0000

> <Gold.PLP.Chemscore.CHOScore>
1.0000

> <Gold.PLP.Chemscore.Metal>
0.0000

> <Gold.Chemscore.Hbonds>
donor molecule, donor type, donor heavy atom, donor atom, acceptor molecule, acceptor atom, score
      L1  H    15    29       P1  7948  1.00
      L1  H    19    42       P1 10175  2.00
      L1  C     5    26       P1  7948  1.00

> <Gold.PLP.Chemscore.Internal.Correction>
1.5912

> <Gold.Rescore>
     Score         DG    S(hbond)    S(metal)    S(lipo)     H(rot)  DE(clash)    DE(int)     intcor
     12.98     -16.39       1.97        0.00      76.62       1.81       0.42       2.99       ----

> <Gold.Chemscore.Fitness>
12.9843

> <Gold.Chemscore.DG>
-16.3943

> <Gold.Chemscore.ZeroCoef>
-5.4800

> <Gold.Chemscore.Hbond>
1.9711

> <Gold.Chemscore.Metal>
0.0000

> <Gold.Chemscore.Lipo>
76.6213

> <Gold.Chemscore.Internal_Hbond>
0.0000

> <Gold.Chemscore.DEClash>
0.4247

> <Gold.Chemscore.DEInternal>
2.9853

> <Gold.Chemscore.Rot>
1.8101

> <Gold.Chemscore.Internal.Correction>
   9.000000E+99

> <Gold.Chemscore.Hbonds>
donor molecule, donor type, donor heavy atom, donor atom, acceptor molecule, acceptor atom, score
      L1  H    15    29       P1  7948  1.00
      L1  H    19    42       P1 10175  1.00

> <Gold.Chemscore.Hbond.Weighted>
-6.5834

> <Gold.Chemscore.Metal.Weighted>
-0.0000

> <Gold.Chemscore.Lipo.Weighted>
-8.9647

> <Gold.Chemscore.Internal_Hbond.Weighted>
0.0000

> <Gold.Chemscore.DEClash.Weighted>
0.4247

> <Gold.Chemscore.DEInternal.Weighted>
2.9853

> <Gold.Chemscore.Rot.Weighted>
4.6338

> <Gold.Chemscore.Internal.Correction.Weighted>
   9.000000E+99

> <Gold.Protein.RotatedTorsions>
[ 6907 6896 6895 6894 ] final  116.55 input  -60.11 | X-H torsion
[ 7974 7965 7964 7962 ] final  -12.18 input  175.53 | X-H torsion
[ 8008 7997 7996 7995 ] final  110.27 input   59.86 | X-H torsion
[ 10167 10162 10161 10158 ] final -118.78 input  -65.29 | X-H torsion
[ 10718 10713 10712 10709 ] final  -22.98 input   66.30 | X-H torsion
[ 10763 10752 10751 10750 ] final  103.81 input  -60.55 | X-H torsion
[ 11005 11000 10999 10996 ] final  -90.43 input  -57.11 | X-H torsion

> <Gold.Protein.ActiveResidues>
 VAL166  LYS551  ARG553  GLY616  TRP617  ASP618  TYR619  PRO620  LYS621  CYS622 
 ASP623  PHE694  ASN695  SER759  ASP760  ASP761  ALA762  ILE779  LEU786  VAL792 
 PHE793  MET794  SER795  GLU796  ALA797  LYS798  CYS799  TRP800  GLU811  SER814 

> <Gold.Protein.RotatedAtoms>
  152.4670  133.7945  159.6919 H   0  0  0  0  0  0  0  0  0  0  0  0  # atno 6907 bound_to 6896
  150.8640  133.7592  159.2989 H   0  0  0  0  0  0  0  0  0  0  0  0  # atno 6908 bound_to 6896
  151.5149  135.1069  159.9915 H   0  0  0  0  0  0  0  0  0  0  0  0  # atno 6909 bound_to 6896
  146.2161  140.3019  142.8376 H   0  0  0  0  0  0  0  0  0  0  0  0  # atno 7974 bound_to 7965
  156.2040  140.3042  155.9588 H   0  0  0  0  0  0  0  0  0  0  0  0  # atno 8008 bound_to 7997
  155.2885  140.0441  157.3038 H   0  0  0  0  0  0  0  0  0  0  0  0  # atno 8009 bound_to 7997
  154.5609  140.2320  155.8346 H   0  0  0  0  0  0  0  0  0  0  0  0  # atno 8010 bound_to 7997
  140.0537  143.5035  152.2068 H   0  0  0  0  0  0  0  0  0  0  0  0  # atno 10167 bound_to 10162
  156.4972  130.4579  149.6722 H   0  0  0  0  0  0  0  0  0  0  0  0  # atno 10718 bound_to 10713
  153.3576  135.3964  155.1693 H   0  0  0  0  0  0  0  0  0  0  0  0  # atno 10763 bound_to 10752
  154.8673  135.3671  154.5141 H   0  0  0  0  0  0  0  0  0  0  0  0  # atno 10764 bound_to 10752
  153.5598  135.7081  153.5613 H   0  0  0  0  0  0  0  0  0  0  0  0  # atno 10765 bound_to 10752
  141.1566  133.7692  156.9737 H   0  0  0  0  0  0  0  0  0  0  0  0  # atno 11005 bound_to 11000
  144.9051  140.7690  143.5843 LP  0  0  0  0  0  0  0  0  0  0  0  0  # atno 17320 bound_to 7965
  145.2947  139.1871  143.4721 LP  0  0  0  0  0  0  0  0  0  0  0  0  # atno 17321 bound_to 7965
  139.5937  144.7559  151.3339 LP  0  0  0  0  0  0  0  0  0  0  0  0  # atno 17342 bound_to 10162
  140.7204  143.7150  150.7740 LP  0  0  0  0  0  0  0  0  0  0  0  0  # atno 17343 bound_to 10162
  156.3368  130.7361  151.2300 LP  0  0  0  0  0  0  0  0  0  0  0  0  # atno 17370 bound_to 10713
  157.7467  131.0414  150.4647 LP  0  0  0  0  0  0  0  0  0  0  0  0  # atno 17371 bound_to 10713
  140.1112  134.9475  157.2068 LP  0  0  0  0  0  0  0  0  0  0  0  0  # atno 17394 bound_to 11000
  140.3191  134.2937  155.7250 LP  0  0  0  0  0  0  0  0  0  0  0  0  # atno 17395 bound_to 11000

$$$$
