AV-unprocessed.smi:3030|AV-procd|sdf|11534|dock4
  -GOLD-   2272016483D 1   1.00000     0.00000
 Structure written by MMmdl.
 52 53  0  0  0  0  0  0  0  0  1 V2000
  144.1704  132.7332  149.9961 C   0  0  0  0  0  0  0  0  0  0  0  0
  143.6875  132.6950  151.4503 C   0  0  0  0  0  0  0  0  0  0  0  0
  143.9066  133.9660  152.1256 N   0  0  0  0  0  0  0  0  0  0  0  0
  142.8399  134.7402  152.5703 C   0  0  0  0  0  0  0  0  0  0  0  0
  142.9739  135.9499  153.1476 C   0  0  0  0  0  0  0  0  0  0  0  0
  144.3242  136.5195  153.3297 C   0  0  0  0  0  0  0  0  0  0  0  0
  144.4831  137.6238  153.8499 O   0  0  0  0  0  0  0  0  0  0  0  0
  145.4645  135.6930  152.8533 C   0  0  0  0  0  0  0  0  0  0  0  0
  146.7450  136.2465  153.0138 N   0  0  0  0  0  0  0  0  0  0  0  0
  147.2483  136.9312  154.0567 C   0  0  0  0  0  0  0  0  0  0  0  0
  146.6339  137.2478  155.0751 O   0  0  0  0  0  0  0  0  0  0  0  0
  148.5318  137.2535  153.8407 N   0  0  0  0  0  0  0  0  0  0  0  0
  149.3802  138.0162  154.7515 C   0  0  1  0  0  0  0  0  0  0  0  0
  150.7909  138.2088  154.1638 C   0  0  0  0  0  0  0  0  0  0  0  0
  151.7441  138.8248  155.2083 C   0  0  1  0  0  0  0  0  0  0  0  0
  153.1409  139.0697  154.6205 C   0  0  0  0  0  0  0  0  0  0  0  0
  151.1499  140.1140  155.8121 C   0  0  0  0  0  0  0  0  0  0  0  0
  149.7167  139.8946  156.3350 C   0  0  0  0  0  0  0  0  0  0  0  0
  148.7668  139.3675  155.2296 C   0  0  1  0  0  0  0  0  0  0  0  0
  148.4608  140.4348  154.1196 C   0  0  0  0  0  0  0  0  0  0  0  0
  148.1382  141.8227  154.7099 C   0  0  0  0  0  0  0  0  0  0  0  0
  147.3111  140.0443  153.1699 C   0  0  0  0  0  0  0  0  0  0  0  0
  145.1873  134.4921  152.2839 C   0  0  0  0  0  0  0  0  0  0  0  0
  144.0006  131.7742  149.5066 H   0  0  0  0  0  0  0  0  0  0  0  0
  145.2374  132.9507  149.9406 H   0  0  0  0  0  0  0  0  0  0  0  0
  143.6417  133.4973  149.4254 H   0  0  0  0  0  0  0  0  0  0  0  0
  142.6266  132.4432  151.4814 H   0  0  0  0  0  0  0  0  0  0  0  0
  144.2050  131.9018  151.9915 H   0  0  0  0  0  0  0  0  0  0  0  0
  141.8695  134.2887  152.4216 H   0  0  0  0  0  0  0  0  0  0  0  0
  142.1155  136.5139  153.4813 H   0  0  0  0  0  0  0  0  0  0  0  0
  147.3577  136.1211  152.2212 H   0  0  0  0  0  0  0  0  0  0  0  0
  148.9542  136.9566  152.9734 H   0  0  0  0  0  0  0  0  0  0  0  0
  149.5055  137.3833  155.6329 H   0  0  0  0  0  0  0  0  0  0  0  0
  151.1880  137.2452  153.8411 H   0  0  0  0  0  0  0  0  0  0  0  0
  150.7493  138.8330  153.2709 H   0  0  0  0  0  0  0  0  0  0  0  0
  151.8545  138.1036  156.0195 H   0  0  0  0  0  0  0  0  0  0  0  0
  153.1044  139.7818  153.7955 H   0  0  0  0  0  0  0  0  0  0  0  0
  153.5757  138.1442  154.2422 H   0  0  0  0  0  0  0  0  0  0  0  0
  153.8198  139.4682  155.3748 H   0  0  0  0  0  0  0  0  0  0  0  0
  151.7833  140.4618  156.6286 H   0  0  0  0  0  0  0  0  0  0  0  0
  151.1540  140.9110  155.0682 H   0  0  0  0  0  0  0  0  0  0  0  0
  149.7508  139.1698  157.1498 H   0  0  0  0  0  0  0  0  0  0  0  0
  149.3365  140.8041  156.7968 H   0  0  0  0  0  0  0  0  0  0  0  0
  147.8173  139.1430  155.7181 H   0  0  0  0  0  0  0  0  0  0  0  0
  149.3471  140.5644  153.4997 H   0  0  0  0  0  0  0  0  0  0  0  0
  147.3225  141.7676  155.4314 H   0  0  0  0  0  0  0  0  0  0  0  0
  147.8415  142.5258  153.9311 H   0  0  0  0  0  0  0  0  0  0  0  0
  149.0004  142.2695  155.2033 H   0  0  0  0  0  0  0  0  0  0  0  0
  146.4256  139.7293  153.7228 H   0  0  0  0  0  0  0  0  0  0  0  0
  147.5973  139.2439  152.4903 H   0  0  0  0  0  0  0  0  0  0  0  0
  147.0198  140.8803  152.5336 H   0  0  0  0  0  0  0  0  0  0  0  0
  145.9509  133.8391  151.8918 H   0  0  0  0  0  0  0  0  0  0  0  0
  1  2  1  0  0  0  0
  1 24  1  0  0  0  0
  1 25  1  0  0  0  0
  1 26  1  0  0  0  0
  2  3  1  0  0  0  0
  2 27  1  0  0  0  0
  2 28  1  0  0  0  0
  3 23  1  0  0  0  0
  3  4  1  0  0  0  0
  4  5  2  0  0  0  0
  4 29  1  0  0  0  0
  5  6  1  0  0  0  0
  5 30  1  0  0  0  0
  6  7  2  0  0  0  0
  6  8  1  0  0  0  0
  8  9  1  0  0  0  0
  8 23  2  0  0  0  0
  9 10  1  0  0  0  0
  9 31  1  0  0  0  0
 10 11  2  0  0  0  0
 10 12  1  0  0  0  0
 12 13  1  0  0  0  0
 12 32  1  0  0  0  0
 13 19  1  0  0  0  0
 13 14  1  0  0  0  0
 13 33  1  0  0  0  0
 14 15  1  0  0  0  0
 14 34  1  0  0  0  0
 14 35  1  0  0  0  0
 15 16  1  0  0  0  0
 15 17  1  0  0  0  0
 15 36  1  0  0  0  0
 16 37  1  0  0  0  0
 16 38  1  0  0  0  0
 16 39  1  0  0  0  0
 17 18  1  0  0  0  0
 17 40  1  0  0  0  0
 17 41  1  0  0  0  0
 18 19  1  0  0  0  0
 18 42  1  0  0  0  0
 18 43  1  0  0  0  0
 19 20  1  0  0  0  0
 19 44  1  0  0  0  0
 20 21  1  0  0  0  0
 20 22  1  0  0  0  0
 20 45  1  0  0  0  0
 21 46  1  0  0  0  0
 21 47  1  0  0  0  0
 21 48  1  0  0  0  0
 22 49  1  0  0  0  0
 22 50  1  0  0  0  0
 22 51  1  0  0  0  0
 23 52  1  0  0  0  0
M  END
> <s_m_source_file>
AV-unprocessed.smi

> <i_m_source_file_index>
3030

> <i_lp_mmshare_version>
43012

> <i_f3d_flags>
0

> <s_epik_input>
W0NIM11bQ0gyXW4xW2NIXVtjSF1jKD1PKWMoW2NIXTEpW05IXUMoPU8pW05IXVtDQEBIXTJbQ0gyXVtDQEBIXShbQ0gzXSlbQ0gyXVtDSDJdW0NASF0yW0NIXShbQ0gzXSlbQ0gzXQ==

> <s_epik_cmdline>
J2VwaWtfcHl0aG9uJywgJy1waCcsICc3LjAnLCAnLXRuJywgJzgnLCAnLW1hJywgJzIwMCcsICctbWV0YWxfYmluZGluZycsICctaW1hZScsICc8aW5maWxlLm1hZT4nLCAnLW9tYWUnLCAnPG91dGZpbGUubWFlPic=

> <r_lp_tautomer_probability>
1

> <r_epik_Ionization_Penalty>
0.00147933

> <r_epik_Ionization_Penalty_Charging>
0.00145753

> <r_epik_Ionization_Penalty_Neutral>
2.17987e-05

> <r_epik_State_Penalty>
0.00097457

> <r_epik_Charging_Adjusted_Penalty>
0.0024321

> <i_epik_Tot_Q>
0

> <i_epik_Tot_abs_Q>
0

> <r_epik_Metal_State_Penalty>
-0

> <b_epik_Metal_Only>
0

> <s_lp_Force_Field>
OPLS_2005

> <r_lp_Energy>
13.818

> <b_lp_Chiralities_Consistent>
1

> <s_lp_Variant>
AV-unprocessed.smi:3030-2

> <Gold.Version>
5.8.1

> <Gold.Id.Protein>
6NUR|6NUR_protein|mol2

> <Gold.PLP.Fitness>
38.0505

> <Gold.PLP.PLP>
-34.9340

> <Gold.PLP.part.hbond>
-1.1707

> <Gold.PLP.part.metal>
0.0000

> <Gold.PLP.part.buried>
-0.3482

> <Gold.PLP.part.nonpolar>
-33.3912

> <Gold.PLP.part.repulsive>
0.2042

> <Gold.PLP.ligand.clash>
0.0000

> <Gold.PLP.ligand.torsion>
0.5028

> <Gold.PLP.Chemscore.Hbond>
1.3520

> <Gold.PLP.Chemscore.CHOScore>
0.0000

> <Gold.PLP.Chemscore.Metal>
0.0000

> <Gold.Chemscore.Hbonds>
donor molecule, donor type, donor heavy atom, donor atom, acceptor molecule, acceptor atom, score
      L1  H     9    31       P1  7948  0.82
      L1  H    12    32       P1  7948  0.46

> <Gold.PLP.Chemscore.Internal.Correction>
0.0661

> <Gold.Rescore>
     Score         DG    S(hbond)    S(metal)    S(lipo)     H(rot)  DE(clash)    DE(int)     intcor
     13.98     -18.65       1.86        0.00      87.32       1.27       0.43       4.24       ----

> <Gold.Chemscore.Fitness>
13.9782

> <Gold.Chemscore.DG>
-18.6504

> <Gold.Chemscore.ZeroCoef>
-5.4800

> <Gold.Chemscore.Hbond>
1.8566

> <Gold.Chemscore.Metal>
0.0000

> <Gold.Chemscore.Lipo>
87.3239

> <Gold.Chemscore.Internal_Hbond>
0.0000

> <Gold.Chemscore.DEClash>
0.4332

> <Gold.Chemscore.DEInternal>
4.2390

> <Gold.Chemscore.Rot>
1.2685

> <Gold.Chemscore.Internal.Correction>
   9.000000E+99

> <Gold.Chemscore.Hbonds>
donor molecule, donor type, donor heavy atom, donor atom, acceptor molecule, acceptor atom, score
      L1  H     9    31       P1  7948  0.81
      L1  H    12    32       P1  7948  0.45

> <Gold.Chemscore.Hbond.Weighted>
-6.2009

> <Gold.Chemscore.Metal.Weighted>
-0.0000

> <Gold.Chemscore.Lipo.Weighted>
-10.2169

> <Gold.Chemscore.Internal_Hbond.Weighted>
0.0000

> <Gold.Chemscore.DEClash.Weighted>
0.4332

> <Gold.Chemscore.DEInternal.Weighted>
4.2390

> <Gold.Chemscore.Rot.Weighted>
3.2474

> <Gold.Chemscore.Internal.Correction.Weighted>
   9.000000E+99

> <Gold.Protein.RotatedTorsions>
[ 6907 6896 6895 6894 ] final -103.09 input  -60.11 | X-H torsion
[ 7974 7965 7964 7962 ] final   64.57 input  175.53 | X-H torsion
[ 8008 7997 7996 7995 ] final -121.85 input   59.86 | X-H torsion
[ 10167 10162 10161 10158 ] final -132.66 input  -65.29 | X-H torsion
[ 10718 10713 10712 10709 ] final -146.49 input   66.30 | X-H torsion
[ 10763 10752 10751 10750 ] final   84.45 input  -60.55 | X-H torsion
[ 11005 11000 10999 10996 ] final  157.16 input  -57.11 | X-H torsion

> <Gold.Protein.ActiveResidues>
 VAL166  LYS551  ARG553  GLY616  TRP617  ASP618  TYR619  PRO620  LYS621  CYS622 
 ASP623  PHE694  ASN695  SER759  ASP760  ASP761  ALA762  ILE779  LEU786  VAL792 
 PHE793  MET794  SER795  GLU796  ALA797  LYS798  CYS799  TRP800  GLU811  SER814 

> <Gold.Protein.RotatedAtoms>
  150.7225  134.0481  159.3788 H   0  0  0  0  0  0  0  0  0  0  0  0  # atno 6907 bound_to 6896
  151.8457  135.0573  160.0462 H   0  0  0  0  0  0  0  0  0  0  0  0  # atno 6908 bound_to 6896
  152.2828  133.5451  159.5545 H   0  0  0  0  0  0  0  0  0  0  0  0  # atno 6909 bound_to 6896
  145.8486  139.3240  143.0888 H   0  0  0  0  0  0  0  0  0  0  0  0  # atno 7974 bound_to 7965
  155.1546  140.0404  157.2829 H   0  0  0  0  0  0  0  0  0  0  0  0  # atno 8008 bound_to 7997
  154.6379  140.2540  155.7329 H   0  0  0  0  0  0  0  0  0  0  0  0  # atno 8009 bound_to 7997
  156.2518  140.2861  156.0760 H   0  0  0  0  0  0  0  0  0  0  0  0  # atno 8010 bound_to 7997
  139.9062  143.6548  152.2585 H   0  0  0  0  0  0  0  0  0  0  0  0  # atno 10167 bound_to 10162
  156.3956  130.7908  151.2114 H   0  0  0  0  0  0  0  0  0  0  0  0  # atno 10718 bound_to 10713
  153.1383  135.4654  154.9456 H   0  0  0  0  0  0  0  0  0  0  0  0  # atno 10763 bound_to 10752
  154.7725  135.3163  154.8163 H   0  0  0  0  0  0  0  0  0  0  0  0  # atno 10764 bound_to 10752
  153.8691  135.6905  153.4830 H   0  0  0  0  0  0  0  0  0  0  0  0  # atno 10765 bound_to 10752
  140.1743  134.8521  157.2728 H   0  0  0  0  0  0  0  0  0  0  0  0  # atno 11005 bound_to 11000
  145.9383  140.8998  143.0321 LP  0  0  0  0  0  0  0  0  0  0  0  0  # atno 17320 bound_to 7965
  144.6730  140.1513  143.7430 LP  0  0  0  0  0  0  0  0  0  0  0  0  # atno 17321 bound_to 7965
  139.6982  144.7638  151.1320 LP  0  0  0  0  0  0  0  0  0  0  0  0  # atno 17342 bound_to 10162
  140.7696  143.5495  150.9221 LP  0  0  0  0  0  0  0  0  0  0  0  0  # atno 17343 bound_to 10162
  157.7501  131.0302  150.4128 LP  0  0  0  0  0  0  0  0  0  0  0  0  # atno 17370 bound_to 10713
  156.4398  130.3989  149.6705 LP  0  0  0  0  0  0  0  0  0  0  0  0  # atno 17371 bound_to 10713
  140.2341  134.3874  155.7509 LP  0  0  0  0  0  0  0  0  0  0  0  0  # atno 17394 bound_to 11000
  141.2219  133.7230  156.8686 LP  0  0  0  0  0  0  0  0  0  0  0  0  # atno 17395 bound_to 11000

$$$$
