AV-unprocessed.smi:2124|AV-procd|sdf|8662|dock3
  -GOLD-   2272011413D 1   1.00000     0.00000
 Structure written by MMmdl.
 47 49  0  0  0  0  0  0  0  0  1 V2000
  149.9618  134.0894  154.9448 C   0  0  0  0  0  0  0  0  0  0  0  0
  150.1220  135.4362  155.6160 C   0  0  0  0  0  0  0  0  0  0  0  0
  149.7766  136.5060  154.8066 N   0  0  0  0  0  0  0  0  0  0  0  0
  149.9042  137.7810  155.3288 C   0  0  0  0  0  0  0  0  0  0  0  0
  149.5152  138.8954  154.3728 C   0  0  0  0  0  0  0  0  0  0  0  0
  150.3445  137.9789  156.5974 C   0  0  0  0  0  0  0  0  0  0  0  0
  150.4984  139.3648  157.2212 C   0  0  0  0  0  0  0  0  0  0  0  0
  151.9096  139.7381  157.6825 C   0  0  0  0  0  0  0  0  0  0  0  0
  152.8964  139.2315  157.1486 O   0  0  0  0  0  0  0  0  0  0  0  0
  151.9863  140.6333  158.6787 N   0  0  0  0  0  0  0  0  0  0  0  0
  153.2206  141.1583  159.2599 C   0  0  2  0  0  0  0  0  0  0  0  0
  153.4424  140.5018  160.6347 C   0  0  0  0  0  0  0  0  0  0  0  0
  153.1358  142.7031  159.3374 C   0  0  2  0  0  0  0  0  0  0  0  0
  152.4983  143.2269  160.6497 C   0  0  0  0  0  0  0  0  0  0  0  0
  151.3802  144.1606  160.1547 C   0  0  1  0  0  0  0  0  0  0  0  0
  152.0005  145.4126  159.5086 C   0  0  0  0  0  0  0  0  0  0  0  0
  152.5635  144.8648  158.1842 C   0  0  0  0  0  0  0  0  0  0  0  0
  152.2289  143.3628  158.2670 C   0  0  2  0  0  0  0  0  0  0  0  0
  150.8621  143.3971  158.9437 C   0  0  0  0  0  0  0  0  0  0  0  0
  150.6803  136.7943  157.4216 C   0  0  0  0  0  0  0  0  0  0  0  0
  151.0602  136.9088  158.5864 O   0  0  0  0  0  0  0  0  0  0  0  0
  150.5481  135.5232  156.8393 N   0  0  0  0  0  0  0  0  0  0  0  0
  149.4445  136.4034  153.8585 H   0  0  0  0  0  0  0  0  0  0  0  0
  150.2592  133.2815  155.6147 H   0  0  0  0  0  0  0  0  0  0  0  0
  150.5817  134.0346  154.0493 H   0  0  0  0  0  0  0  0  0  0  0  0
  148.9219  133.9288  154.6585 H   0  0  0  0  0  0  0  0  0  0  0  0
  150.3761  139.5278  154.1555 H   0  0  0  0  0  0  0  0  0  0  0  0
  148.7314  139.5161  154.8073 H   0  0  0  0  0  0  0  0  0  0  0  0
  149.1425  138.5019  153.4262 H   0  0  0  0  0  0  0  0  0  0  0  0
  149.8436  139.4421  158.0889 H   0  0  0  0  0  0  0  0  0  0  0  0
  150.1283  140.1221  156.5281 H   0  0  0  0  0  0  0  0  0  0  0  0
  151.1214  140.9952  159.0533 H   0  0  0  0  0  0  0  0  0  0  0  0
  154.0579  140.8922  158.6127 H   0  0  0  0  0  0  0  0  0  0  0  0
  154.3903  140.8005  161.0800 H   0  0  0  0  0  0  0  0  0  0  0  0
  153.4605  139.4147  160.5516 H   0  0  0  0  0  0  0  0  0  0  0  0
  152.6479  140.7665  161.3332 H   0  0  0  0  0  0  0  0  0  0  0  0
  154.1493  143.0977  159.2463 H   0  0  0  0  0  0  0  0  0  0  0  0
  152.0638  142.4169  161.2373 H   0  0  0  0  0  0  0  0  0  0  0  0
  153.2201  143.7426  161.2842 H   0  0  0  0  0  0  0  0  0  0  0  0
  150.6304  144.3847  160.9140 H   0  0  0  0  0  0  0  0  0  0  0  0
  151.2405  146.1716  159.3181 H   0  0  0  0  0  0  0  0  0  0  0  0
  152.7725  145.8601  160.1358 H   0  0  0  0  0  0  0  0  0  0  0  0
  152.0573  145.3258  157.3352 H   0  0  0  0  0  0  0  0  0  0  0  0
  153.6323  145.0516  158.0744 H   0  0  0  0  0  0  0  0  0  0  0  0
  152.2405  142.8760  157.2929 H   0  0  0  0  0  0  0  0  0  0  0  0
  150.4698  142.4090  159.1891 H   0  0  0  0  0  0  0  0  0  0  0  0
  150.1108  143.9478  158.3744 H   0  0  0  0  0  0  0  0  0  0  0  0
  1 24  1  0  0  0  0
  1 25  1  0  0  0  0
  1 26  1  0  0  0  0
  1  2  1  0  0  0  0
  2  3  1  0  0  0  0
  2 22  2  0  0  0  0
  3  4  1  0  0  0  0
  3 23  1  0  0  0  0
  4  6  2  0  0  0  0
  4  5  1  0  0  0  0
  5 27  1  0  0  0  0
  5 28  1  0  0  0  0
  5 29  1  0  0  0  0
  6 20  1  0  0  0  0
  6  7  1  0  0  0  0
  7  8  1  0  0  0  0
  7 30  1  0  0  0  0
  7 31  1  0  0  0  0
  8  9  2  0  0  0  0
  8 10  1  0  0  0  0
 10 11  1  0  0  0  0
 10 32  1  0  0  0  0
 11 12  1  0  0  0  0
 11 13  1  0  0  0  0
 11 33  1  0  0  0  0
 12 34  1  0  0  0  0
 12 35  1  0  0  0  0
 12 36  1  0  0  0  0
 13 18  1  0  0  0  0
 13 14  1  0  0  0  0
 13 37  1  0  0  0  0
 14 15  1  0  0  0  0
 14 38  1  0  0  0  0
 14 39  1  0  0  0  0
 15 19  1  0  0  0  0
 15 16  1  0  0  0  0
 15 40  1  0  0  0  0
 16 17  1  0  0  0  0
 16 41  1  0  0  0  0
 16 42  1  0  0  0  0
 17 18  1  0  0  0  0
 17 43  1  0  0  0  0
 17 44  1  0  0  0  0
 18 19  1  0  0  0  0
 18 45  1  0  0  0  0
 19 46  1  0  0  0  0
 19 47  1  0  0  0  0
 20 21  2  0  0  0  0
 20 22  1  0  0  0  0
M  END
> <s_m_source_file>
AV-unprocessed.smi

> <i_m_source_file_index>
2124

> <i_lp_mmshare_version>
43012

> <i_f3d_flags>
0

> <s_epik_input>
W0NIM11jMW5jKFtDSDNdKWMoYyg9TylbbkhdMSlbQ0gyXUMoPU8pW05IXVtDQEhdKFtDSDNdKVtDQEhdKFtDSDJdW0NASF0yMylbQ0BIXShbQ0gyXTMpW0NIMl1bQ0gyXTI=

> <s_epik_cmdline>
J2VwaWtfcHl0aG9uJywgJy1waCcsICc3LjAnLCAnLXRuJywgJzgnLCAnLW1hJywgJzIwMCcsICctbWV0YWxfYmluZGluZycsICctaW1hZScsICc8aW5maWxlLm1hZT4nLCAnLW9tYWUnLCAnPG91dGZpbGUubWFlPic=

> <r_lp_tautomer_probability>
0.156392

> <r_epik_Ionization_Penalty>
0.0139374

> <r_epik_Ionization_Penalty_Charging>
0.0138122

> <r_epik_Ionization_Penalty_Neutral>
0.000125146

> <r_epik_State_Penalty>
1.15342

> <r_epik_Charging_Adjusted_Penalty>
1.16723

> <i_epik_Tot_Q>
0

> <i_epik_Tot_abs_Q>
0

> <r_epik_Metal_State_Penalty>
1.3173

> <b_epik_Metal_Only>
0

> <s_lp_Force_Field>
OPLS_2005

> <r_lp_Energy>
56.0301

> <b_lp_Chiralities_Consistent>
1

> <s_lp_Variant>
AV-unprocessed.smi:2124-13

> <Gold.Version>
5.8.1

> <Gold.Id.Protein>
6NUR|6NUR_protein|mol2

> <Gold.PLP.Fitness>
48.5108

> <Gold.PLP.PLP>
-43.7874

> <Gold.PLP.part.hbond>
-2.7950

> <Gold.PLP.part.metal>
0.0000

> <Gold.PLP.part.buried>
-7.1799

> <Gold.PLP.part.nonpolar>
-34.6360

> <Gold.PLP.part.repulsive>
0.1606

> <Gold.PLP.ligand.clash>
0.1502

> <Gold.PLP.ligand.torsion>
1.2474

> <Gold.PLP.Chemscore.Hbond>
2.4493

> <Gold.PLP.Chemscore.CHOScore>
0.0000

> <Gold.PLP.Chemscore.Metal>
0.0000

> <Gold.Chemscore.Hbonds>
donor molecule, donor type, donor heavy atom, donor atom, acceptor molecule, acceptor atom, score
      L1  H     3    23       P1  7948  0.99
      P1  H  6896  6908       L1    21  0.51
      P1  H  7997  8009       L1     9  1.00

> <Gold.PLP.Chemscore.Internal.Correction>
0.0205

> <Gold.Rescore>
     Score         DG    S(hbond)    S(metal)    S(lipo)     H(rot)  DE(clash)    DE(int)     intcor
     22.04     -24.31       2.70        0.00     120.05       1.65       0.02       2.26       ----

> <Gold.Chemscore.Fitness>
22.0423

> <Gold.Chemscore.DG>
-24.3134

> <Gold.Chemscore.ZeroCoef>
-5.4800

> <Gold.Chemscore.Hbond>
2.7008

> <Gold.Chemscore.Metal>
0.0000

> <Gold.Chemscore.Lipo>
120.0467

> <Gold.Chemscore.Internal_Hbond>
0.0000

> <Gold.Chemscore.DEClash>
0.0153

> <Gold.Chemscore.DEInternal>
2.2558

> <Gold.Chemscore.Rot>
1.6534

> <Gold.Chemscore.Internal.Correction>
   9.000000E+99

> <Gold.Chemscore.Hbonds>
donor molecule, donor type, donor heavy atom, donor atom, acceptor molecule, acceptor atom, score
      L1  H     3    23       P1  7948  0.76
      P1  H  6896  6908       L1    21  0.49
      P1  H  7997  8009       L1     9  1.00

> <Gold.Chemscore.Hbond.Weighted>
-9.0206

> <Gold.Chemscore.Metal.Weighted>
-0.0000

> <Gold.Chemscore.Lipo.Weighted>
-14.0455

> <Gold.Chemscore.Internal_Hbond.Weighted>
0.0000

> <Gold.Chemscore.DEClash.Weighted>
0.0153

> <Gold.Chemscore.DEInternal.Weighted>
2.2558

> <Gold.Chemscore.Rot.Weighted>
4.2326

> <Gold.Chemscore.Internal.Correction.Weighted>
   9.000000E+99

> <Gold.Protein.RotatedTorsions>
[ 6907 6896 6895 6894 ] final -143.98 input  -60.11 | X-H torsion
[ 7974 7965 7964 7962 ] final  -87.44 input  175.53 | X-H torsion
[ 8008 7997 7996 7995 ] final -170.47 input   59.86 | X-H torsion
[ 10167 10162 10161 10158 ] final  169.82 input  -65.29 | X-H torsion
[ 10718 10713 10712 10709 ] final   -7.00 input   66.30 | X-H torsion
[ 10763 10752 10751 10750 ] final -162.24 input  -60.55 | X-H torsion
[ 11005 11000 10999 10996 ] final  145.49 input  -57.11 | X-H torsion

> <Gold.Protein.ActiveResidues>
 VAL166  LYS551  ARG553  GLY616  TRP617  ASP618  TYR619  PRO620  LYS621  CYS622 
 ASP623  PHE694  ASN695  SER759  ASP760  ASP761  ALA762  ILE779  LEU786  VAL792 
 PHE793  MET794  SER795  GLU796  ALA797  LYS798  CYS799  TRP800  GLU811  SER814 

> <Gold.Protein.RotatedAtoms>
  151.1078  133.5195  159.2606 H   0  0  0  0  0  0  0  0  0  0  0  0  # atno 6907 bound_to 6896
  151.2001  135.0438  159.8878 H   0  0  0  0  0  0  0  0  0  0  0  0  # atno 6908 bound_to 6896
  152.5448  134.0907  159.8329 H   0  0  0  0  0  0  0  0  0  0  0  0  # atno 6909 bound_to 6896
  145.4665  140.9560  143.1941 H   0  0  0  0  0  0  0  0  0  0  0  0  # atno 7974 bound_to 7965
  155.9188  140.1070  157.1223 H   0  0  0  0  0  0  0  0  0  0  0  0  # atno 8008 bound_to 7997
  154.4051  140.1260  156.4717 H   0  0  0  0  0  0  0  0  0  0  0  0  # atno 8009 bound_to 7997
  155.7221  140.3469  155.5023 H   0  0  0  0  0  0  0  0  0  0  0  0  # atno 8010 bound_to 7997
  139.5002  144.3664  151.9771 H   0  0  0  0  0  0  0  0  0  0  0  0  # atno 10167 bound_to 10162
  156.7237  130.5158  149.5862 H   0  0  0  0  0  0  0  0  0  0  0  0  # atno 10718 bound_to 10713
  154.7231  135.3030  154.9014 H   0  0  0  0  0  0  0  0  0  0  0  0  # atno 10763 bound_to 10752
  153.9880  135.6722  153.4757 H   0  0  0  0  0  0  0  0  0  0  0  0  # atno 10764 bound_to 10752
  153.0852  135.4988  154.8500 H   0  0  0  0  0  0  0  0  0  0  0  0  # atno 10765 bound_to 10752
  140.0716  134.9148  157.1354 H   0  0  0  0  0  0  0  0  0  0  0  0  # atno 11005 bound_to 11000
  144.7971  139.6213  143.7088 LP  0  0  0  0  0  0  0  0  0  0  0  0  # atno 17320 bound_to 7965
  146.2421  139.6023  142.9484 LP  0  0  0  0  0  0  0  0  0  0  0  0  # atno 17321 bound_to 7965
  140.3100  144.3549  150.6036 LP  0  0  0  0  0  0  0  0  0  0  0  0  # atno 17342 bound_to 10162
  140.5806  143.2173  151.7435 LP  0  0  0  0  0  0  0  0  0  0  0  0  # atno 17343 bound_to 10162
  156.1577  130.6353  151.0678 LP  0  0  0  0  0  0  0  0  0  0  0  0  # atno 17370 bound_to 10713
  157.6887  131.0817  150.7168 LP  0  0  0  0  0  0  0  0  0  0  0  0  # atno 17371 bound_to 10713
  140.3619  134.2485  155.7186 LP  0  0  0  0  0  0  0  0  0  0  0  0  # atno 17394 bound_to 11000
  141.2014  133.7964  157.0443 LP  0  0  0  0  0  0  0  0  0  0  0  0  # atno 17395 bound_to 11000

$$$$
