AV-unprocessed.smi:1752|AV-procd|sdf|7058|dock9
  -GOLD-   22720 8273D 1   1.00000     0.00000
 Structure written by MMmdl.
 43 44  0  0  0  0  0  0  0  0  2 V2000
  149.1915  130.7926  153.8529 C   0  0  0  0  0  0  0  0  0  0  0  0
  147.7433  130.3120  154.0444 C   0  0  2  0  0  0  0  0  0  0  0  0
  147.6042  128.7769  154.0876 C   0  0  0  0  0  0  0  0  0  0  0  0
  147.9343  128.1449  152.8227 N   0  0  0  0  0  0  0  0  0  0  0  0
  147.2059  128.1431  151.6517 C   0  0  0  0  0  0  0  0  0  0  0  0
  147.9133  127.4204  150.7343 C   0  0  0  0  0  0  0  0  0  0  0  0
  149.0777  127.0179  151.4465 C   0  0  0  0  0  0  0  0  0  0  0  0
  149.0885  127.4551  152.6955 N   0  0  0  0  0  0  0  0  0  0  0  0
  146.9150  130.8343  152.9606 N   0  0  0  0  0  0  0  0  0  0  0  0
  146.8800  132.1057  152.5231 C   0  0  0  0  0  0  0  0  0  0  0  0
  147.5994  132.9896  152.9901 O   0  0  0  0  0  0  0  0  0  0  0  0
  146.0337  132.3161  151.4833 N   0  0  0  0  0  0  0  0  0  0  0  0
  144.8554  131.4675  151.1946 C   0  0  0  0  0  0  0  0  0  0  0  0
  143.6714  132.2240  150.5472 C   0  0  0  0  0  0  0  0  0  0  0  0
  143.1274  133.4158  151.3647 C   0  0  0  0  0  0  0  0  0  0  0  0
  144.1659  134.2817  151.9861 N   0  3  2  0  0  0  0  0  0  0  0  0
  143.5665  135.4373  152.6891 C   0  0  0  0  0  0  0  0  0  0  0  0
  145.2829  134.6867  151.0904 C   0  0  0  0  0  0  0  0  0  0  0  0
  146.1804  133.5112  150.6348 C   0  0  0  0  0  0  0  0  0  0  0  0
  149.8322  130.4732  154.6752 H   0  0  0  0  0  0  0  0  0  0  0  0
  149.2402  131.8813  153.8112 H   0  0  0  0  0  0  0  0  0  0  0  0
  149.6191  130.4040  152.9281 H   0  0  0  0  0  0  0  0  0  0  0  0
  147.3948  130.7023  155.0021 H   0  0  0  0  0  0  0  0  0  0  0  0
  148.2624  128.3623  154.8523 H   0  0  0  0  0  0  0  0  0  0  0  0
  146.5872  128.4959  154.3682 H   0  0  0  0  0  0  0  0  0  0  0  0
  146.2547  128.6481  151.5710 H   0  0  0  0  0  0  0  0  0  0  0  0
  147.6409  127.2107  149.7104 H   0  0  0  0  0  0  0  0  0  0  0  0
  149.9094  126.4252  151.0951 H   0  0  0  0  0  0  0  0  0  0  0  0
  146.3129  130.1678  152.4994 H   0  0  0  0  0  0  0  0  0  0  0  0
  145.1694  130.6515  150.5426 H   0  0  0  0  0  0  0  0  0  0  0  0
  144.4760  131.0067  152.1084 H   0  0  0  0  0  0  0  0  0  0  0  0
  143.9280  132.5547  149.5414 H   0  0  0  0  0  0  0  0  0  0  0  0
  142.8551  131.5177  150.3917 H   0  0  0  0  0  0  0  0  0  0  0  0
  142.4812  134.0203  150.7265 H   0  0  0  0  0  0  0  0  0  0  0  0
  142.4963  133.0312  152.1670 H   0  0  0  0  0  0  0  0  0  0  0  0
  143.1017  136.1257  151.9819 H   0  0  0  0  0  0  0  0  0  0  0  0
  144.3231  135.9843  153.2528 H   0  0  0  0  0  0  0  0  0  0  0  0
  142.8049  135.1067  153.3963 H   0  0  0  0  0  0  0  0  0  0  0  0
  144.8975  135.2336  150.2287 H   0  0  0  0  0  0  0  0  0  0  0  0
  145.9137  135.3872  151.6395 H   0  0  0  0  0  0  0  0  0  0  0  0
  147.2193  133.8436  150.5944 H   0  0  0  0  0  0  0  0  0  0  0  0
  145.9667  133.2473  149.5993 H   0  0  0  0  0  0  0  0  0  0  0  0
  144.5965  133.7185  152.7057 H   0  0  0  0  0  0  0  0  0  0  0  0
  1  2  1  0  0  0  0
  1 20  1  0  0  0  0
  1 21  1  0  0  0  0
  1 22  1  0  0  0  0
  2  3  1  0  0  0  0
  2  9  1  0  0  0  0
  2 23  1  0  0  0  0
  3  4  1  0  0  0  0
  3 24  1  0  0  0  0
  3 25  1  0  0  0  0
  4  8  1  0  0  0  0
  4  5  1  0  0  0  0
  5  6  2  0  0  0  0
  5 26  1  0  0  0  0
  6  7  1  0  0  0  0
  6 27  1  0  0  0  0
  7  8  2  0  0  0  0
  7 28  1  0  0  0  0
  9 10  1  0  0  0  0
  9 29  1  0  0  0  0
 10 11  2  0  0  0  0
 10 12  1  0  0  0  0
 12 19  1  0  0  0  0
 12 13  1  0  0  0  0
 13 14  1  0  0  0  0
 13 30  1  0  0  0  0
 13 31  1  0  0  0  0
 14 15  1  0  0  0  0
 14 32  1  0  0  0  0
 14 33  1  0  0  0  0
 15 16  1  0  0  0  0
 15 34  1  0  0  0  0
 15 35  1  0  0  0  0
 16 17  1  0  0  0  0
 16 18  1  0  0  0  0
 16 43  1  0  0  0  0
 17 36  1  0  0  0  0
 17 37  1  0  0  0  0
 17 38  1  0  0  0  0
 18 19  1  0  0  0  0
 18 39  1  0  0  0  0
 18 40  1  0  0  0  0
 19 41  1  0  0  0  0
 19 42  1  0  0  0  0
M  CHG  1  16   1
M  END
> <s_m_source_file>
AV-unprocessed.smi

> <i_m_source_file_index>
1752

> <i_lp_mmshare_version>
43012

> <i_f3d_flags>
0

> <s_epik_input>
bjFbY0hdW2NIXVtjSF1uMVtDSDJdW0NAQEhdKFtDSDNdKVtOSF1DKD1PKU4yW0NIMl1bQ0gyXVtDSDJdTihbQ0gzXSlbQ0gyXVtDSDJdMg==

> <s_epik_cmdline>
J2VwaWtfcHl0aG9uJywgJy1waCcsICc3LjAnLCAnLXRuJywgJzgnLCAnLW1hJywgJzIwMCcsICctbWV0YWxfYmluZGluZycsICctaW1hZScsICc8aW5maWxlLm1hZT4nLCAnLW9tYWUnLCAnPG91dGZpbGUubWFlPic=

> <r_lp_tautomer_probability>
1

> <r_epik_Ionization_Penalty>
0.00208423

> <r_epik_Ionization_Penalty_Charging>
0.00203643

> <r_epik_Ionization_Penalty_Neutral>
4.77939e-05

> <r_epik_State_Penalty>
0.00139278

> <r_epik_Charging_Adjusted_Penalty>
0.00342922

> <i_epik_Tot_Q>
1

> <i_epik_Tot_abs_Q>
1

> <r_epik_Metal_State_Penalty>
-0

> <b_epik_Metal_Only>
0

> <s_lp_Force_Field>
OPLS_2005

> <r_lp_Energy>
46.8375

> <b_lp_Chiralities_Consistent>
1

> <s_lp_Variant>
AV-unprocessed.smi:1752-1

> <Gold.Version>
5.8.1

> <Gold.Id.Protein>
6NUR|6NUR_protein|mol2

> <Gold.PLP.Fitness>
36.1660

> <Gold.PLP.PLP>
-35.2861

> <Gold.PLP.part.hbond>
0.0000

> <Gold.PLP.part.metal>
0.0000

> <Gold.PLP.part.buried>
-3.6560

> <Gold.PLP.part.nonpolar>
-32.2690

> <Gold.PLP.part.repulsive>
0.4105

> <Gold.PLP.ligand.clash>
0.0000

> <Gold.PLP.ligand.torsion>
0.4341

> <Gold.PLP.Chemscore.Hbond>
0.0000

> <Gold.PLP.Chemscore.CHOScore>
0.5500

> <Gold.PLP.Chemscore.Metal>
0.0000

> <Gold.Chemscore.Hbonds>
donor molecule, donor type, donor heavy atom, donor atom, acceptor molecule, acceptor atom, score
      L1  C     7    28       P1 10737  0.54

> <Gold.PLP.Chemscore.Internal.Correction>
0.0982

> <Gold.Rescore>
     Score         DG    S(hbond)    S(metal)    S(lipo)     H(rot)  DE(clash)    DE(int)     intcor
     10.14     -11.32       0.00        0.00      80.86       1.41       0.05       1.13       ----

> <Gold.Chemscore.Fitness>
10.1446

> <Gold.Chemscore.DG>
-11.3243

> <Gold.Chemscore.ZeroCoef>
-5.4800

> <Gold.Chemscore.Hbond>
0.0000

> <Gold.Chemscore.Metal>
0.0000

> <Gold.Chemscore.Lipo>
80.8571

> <Gold.Chemscore.Internal_Hbond>
0.0000

> <Gold.Chemscore.DEClash>
0.0473

> <Gold.Chemscore.DEInternal>
1.1325

> <Gold.Chemscore.Rot>
1.4125

> <Gold.Chemscore.Internal.Correction>
   9.000000E+99

> <Gold.Chemscore.Hbond.Weighted>
-0.0000

> <Gold.Chemscore.Metal.Weighted>
-0.0000

> <Gold.Chemscore.Lipo.Weighted>
-9.4603

> <Gold.Chemscore.Internal_Hbond.Weighted>
0.0000

> <Gold.Chemscore.DEClash.Weighted>
0.0473

> <Gold.Chemscore.DEInternal.Weighted>
1.1325

> <Gold.Chemscore.Rot.Weighted>
3.6160

> <Gold.Chemscore.Internal.Correction.Weighted>
   9.000000E+99

> <Gold.Protein.RotatedTorsions>
[ 6907 6896 6895 6894 ] final -113.90 input  -60.11 | X-H torsion
[ 7974 7965 7964 7962 ] final  -57.32 input  175.53 | X-H torsion
[ 8008 7997 7996 7995 ] final  136.88 input   59.86 | X-H torsion
[ 10167 10162 10161 10158 ] final -114.22 input  -65.29 | X-H torsion
[ 10718 10713 10712 10709 ] final  -49.64 input   66.30 | X-H torsion
[ 10763 10752 10751 10750 ] final  159.02 input  -60.55 | X-H torsion
[ 11005 11000 10999 10996 ] final    5.39 input  -57.11 | X-H torsion

> <Gold.Protein.ActiveResidues>
 VAL166  LYS551  ARG553  GLY616  TRP617  ASP618  TYR619  PRO620  LYS621  CYS622 
 ASP623  PHE694  ASN695  SER759  ASP760  ASP761  ALA762  ILE779  LEU786  VAL792 
 PHE793  MET794  SER795  GLU796  ALA797  LYS798  CYS799  TRP800  GLU811  SER814 

> <Gold.Protein.RotatedAtoms>
  150.7863  133.8878  159.3304 H   0  0  0  0  0  0  0  0  0  0  0  0  # atno 6907 bound_to 6896
  151.6728  135.0971  160.0210 H   0  0  0  0  0  0  0  0  0  0  0  0  # atno 6908 bound_to 6896
  152.3927  133.6663  159.6286 H   0  0  0  0  0  0  0  0  0  0  0  0  # atno 6909 bound_to 6896
  145.8524  140.8343  142.9979 H   0  0  0  0  0  0  0  0  0  0  0  0  # atno 7974 bound_to 7965
  156.3003  140.2434  156.3817 H   0  0  0  0  0  0  0  0  0  0  0  0  # atno 8008 bound_to 7997
  154.8695  140.0417  157.1735 H   0  0  0  0  0  0  0  0  0  0  0  0  # atno 8009 bound_to 7997
  154.8811  140.2949  155.5428 H   0  0  0  0  0  0  0  0  0  0  0  0  # atno 8010 bound_to 7997
  140.1033  143.4593  152.1798 H   0  0  0  0  0  0  0  0  0  0  0  0  # atno 10167 bound_to 10162
  156.1875  130.4152  149.9419 H   0  0  0  0  0  0  0  0  0  0  0  0  # atno 10718 bound_to 10713
  154.2253  135.2780  155.2910 H   0  0  0  0  0  0  0  0  0  0  0  0  # atno 10763 bound_to 10752
  154.5669  135.5630  153.7062 H   0  0  0  0  0  0  0  0  0  0  0  0  # atno 10764 bound_to 10752
  153.0032  135.6311  154.2393 H   0  0  0  0  0  0  0  0  0  0  0  0  # atno 10765 bound_to 10752
  140.5713  134.0100  155.8010 H   0  0  0  0  0  0  0  0  0  0  0  0  # atno 11005 bound_to 11000
  144.6729  140.0973  143.7462 LP  0  0  0  0  0  0  0  0  0  0  0  0  # atno 17320 bound_to 7965
  145.9342  139.2626  143.1307 LP  0  0  0  0  0  0  0  0  0  0  0  0  # atno 17321 bound_to 7965
  139.5659  144.7435  151.4024 LP  0  0  0  0  0  0  0  0  0  0  0  0  # atno 17342 bound_to 10162
  140.6966  143.7735  150.7336 LP  0  0  0  0  0  0  0  0  0  0  0  0  # atno 17343 bound_to 10162
  156.7170  130.8992  151.3615 LP  0  0  0  0  0  0  0  0  0  0  0  0  # atno 17370 bound_to 10713
  157.6908  130.9231  150.0508 LP  0  0  0  0  0  0  0  0  0  0  0  0  # atno 17371 bound_to 10713
  141.1054  133.9701  157.3005 LP  0  0  0  0  0  0  0  0  0  0  0  0  # atno 17394 bound_to 11000
  139.9361  135.0196  156.8558 LP  0  0  0  0  0  0  0  0  0  0  0  0  # atno 17395 bound_to 11000

$$$$
