AV-unprocessed.smi:110|AV-procd|sdf|1076|dock4
  -GOLD-   2262018163D 1   1.00000     0.00000
 Structure written by MMmdl.
 46 50  0  0  0  0  0  0  0  0  1 V2000
  144.9676  134.8559  151.7680 O   0  0  0  0  0  0  0  0  0  0  0  0
  144.9654  135.5642  152.9899 C   0  0  0  0  0  0  0  0  0  0  0  0
  146.0227  136.6825  153.0139 C   0  0  2  0  0  0  0  0  0  0  0  0
  145.9645  137.4071  154.2354 O   0  0  0  0  0  0  0  0  0  0  0  0
  146.5690  138.6569  154.0658 C   0  0  1  0  0  0  0  0  0  0  0  0
  147.8519  138.6644  154.8383 N   0  0  0  0  0  0  0  0  0  0  0  0
  148.8434  137.7092  154.8927 C   0  0  0  0  0  0  0  0  0  0  0  0
  149.8546  138.0026  155.6647 N   0  0  0  0  0  0  0  0  0  0  0  0
  149.5357  139.2493  156.1917 C   0  0  0  0  0  0  0  0  0  0  0  0
  150.1753  140.1522  157.0887 C   0  0  0  0  0  0  0  0  0  0  0  0
  151.3689  139.9277  157.6864 N   0  0  0  0  0  0  0  0  0  0  0  0
  152.0220  138.6203  157.5301 C   0  0  0  0  0  0  0  0  0  0  0  0
  153.0777  138.4924  158.6446 C   0  0  0  0  0  0  0  0  0  0  0  0
  153.0000  139.8486  159.2680 C   0  0  0  0  0  0  0  0  0  0  0  0
  153.8001  140.3558  160.3066 C   0  0  0  0  0  0  0  0  0  0  0  0
  153.5738  141.6819  160.7333 C   0  0  0  0  0  0  0  0  0  0  0  0
  152.5739  142.4701  160.1174 C   0  0  0  0  0  0  0  0  0  0  0  0
  151.7839  141.9400  159.0737 C   0  0  0  0  0  0  0  0  0  0  0  0
  152.0001  140.6070  158.6672 C   0  0  0  0  0  0  0  0  0  0  0  0
  149.5655  141.3427  157.3214 N   0  0  0  0  0  0  0  0  0  0  0  0
  148.3882  141.6186  156.7532 C   0  0  0  0  0  0  0  0  0  0  0  0
  147.6653  140.8642  155.9231 N   0  0  0  0  0  0  0  0  0  0  0  0
  148.2865  139.6785  155.6617 C   0  0  0  0  0  0  0  0  0  0  0  0
  146.7893  138.8723  152.5471 C   0  0  1  0  0  0  0  0  0  0  0  0
  148.1479  138.7586  152.1469 O   0  0  0  0  0  0  0  0  0  0  0  0
  145.9134  137.7752  151.9492 C   0  0  1  0  0  0  0  0  0  0  0  0
  146.3288  137.3490  150.6649 O   0  0  0  0  0  0  0  0  0  0  0  0
  147.0127  136.2251  152.9613 H   0  0  0  0  0  0  0  0  0  0  0  0
  145.9559  139.4289  154.5330 H   0  0  0  0  0  0  0  0  0  0  0  0
  146.4326  139.8634  152.2655 H   0  0  0  0  0  0  0  0  0  0  0  0
  144.8892  138.1442  151.8849 H   0  0  0  0  0  0  0  0  0  0  0  0
  145.2959  135.4269  151.0903 H   0  0  0  0  0  0  0  0  0  0  0  0
  143.9718  135.9730  153.1750 H   0  0  0  0  0  0  0  0  0  0  0  0
  145.1693  134.8499  153.7880 H   0  0  0  0  0  0  0  0  0  0  0  0
  148.7979  136.7825  154.3398 H   0  0  0  0  0  0  0  0  0  0  0  0
  151.2927  137.8111  157.5870 H   0  0  0  0  0  0  0  0  0  0  0  0
  152.4970  138.5735  156.5494 H   0  0  0  0  0  0  0  0  0  0  0  0
  152.8123  137.7252  159.3726 H   0  0  0  0  0  0  0  0  0  0  0  0
  154.0745  138.2914  158.2511 H   0  0  0  0  0  0  0  0  0  0  0  0
  154.5692  139.7500  160.7626 H   0  0  0  0  0  0  0  0  0  0  0  0
  154.1733  142.0996  161.5288 H   0  0  0  0  0  0  0  0  0  0  0  0
  152.4158  143.4871  160.4443 H   0  0  0  0  0  0  0  0  0  0  0  0
  151.0333  142.5536  158.5979 H   0  0  0  0  0  0  0  0  0  0  0  0
  147.9655  142.5815  156.9988 H   0  0  0  0  0  0  0  0  0  0  0  0
  148.3447  137.8434  152.0171 H   0  0  0  0  0  0  0  0  0  0  0  0
  145.6847  137.6299  150.0332 H   0  0  0  0  0  0  0  0  0  0  0  0
  1  2  1  0  0  0  0
  1 32  1  0  0  0  0
  2  3  1  0  0  0  0
  2 33  1  0  0  0  0
  2 34  1  0  0  0  0
  3 28  1  0  0  0  0
  3 26  1  0  0  0  0
  3  4  1  0  0  0  0
  4  5  1  0  0  0  0
  5 29  1  0  0  0  0
  5  6  1  0  0  0  0
  5 24  1  0  0  0  0
  6 23  1  0  0  0  0
  6  7  1  0  0  0  0
  7  8  2  0  0  0  0
  7 35  1  0  0  0  0
  8  9  1  0  0  0  0
  9 23  2  0  0  0  0
  9 10  1  0  0  0  0
 10 11  1  0  0  0  0
 10 20  2  0  0  0  0
 11 19  1  0  0  0  0
 11 12  1  0  0  0  0
 12 13  1  0  0  0  0
 12 36  1  0  0  0  0
 12 37  1  0  0  0  0
 13 14  1  0  0  0  0
 13 38  1  0  0  0  0
 13 39  1  0  0  0  0
 14 19  2  0  0  0  0
 14 15  1  0  0  0  0
 15 16  2  0  0  0  0
 15 40  1  0  0  0  0
 16 17  1  0  0  0  0
 16 41  1  0  0  0  0
 17 18  2  0  0  0  0
 17 42  1  0  0  0  0
 18 19  1  0  0  0  0
 18 43  1  0  0  0  0
 20 21  1  0  0  0  0
 21 22  2  0  0  0  0
 21 44  1  0  0  0  0
 22 23  1  0  0  0  0
 24 30  1  0  0  0  0
 24 25  1  0  0  0  0
 24 26  1  0  0  0  0
 25 45  1  0  0  0  0
 26 31  1  0  0  0  0
 26 27  1  0  0  0  0
 27 46  1  0  0  0  0
M  END
> <s_m_source_file>
AV-unprocessed.smi

> <i_m_source_file_index>
110

> <i_lp_mmshare_version>
43012

> <i_f3d_flags>
0

> <s_epik_input>
W09IXVtDSDJdW0NASF0xT1tDQEhdKFtDQEhdKFtPSF0pW0NAQEhdMVtPSF0pbihbY0hdbjIpYyhjMjMpbltjSF1uYzNOKFtDSDJdW0NIMl00KWMoYzQ1KVtjSF1bY0hdW2NIXVtjSF01

> <s_epik_cmdline>
J2VwaWtfcHl0aG9uJywgJy1waCcsICc3LjAnLCAnLXRuJywgJzgnLCAnLW1hJywgJzIwMCcsICctbWV0YWxfYmluZGluZycsICctaW1hZScsICc8aW5maWxlLm1hZT4nLCAnLW9tYWUnLCAnPG91dGZpbGUubWFlPic=

> <r_lp_tautomer_probability>
1

> <r_epik_Ionization_Penalty>
0.00068475

> <r_epik_Ionization_Penalty_Charging>
0

> <r_epik_Ionization_Penalty_Neutral>
0.00068475

> <r_epik_State_Penalty>
0.000417442

> <r_epik_Charging_Adjusted_Penalty>
0.000417442

> <i_epik_Tot_Q>
0

> <i_epik_Tot_abs_Q>
0

> <r_epik_Metal_State_Penalty>
-0

> <b_epik_Metal_Only>
0

> <s_epik_Chemistry_Notes>
This compound contains an acetal/aminal-like group ( X-CH(R)-Y where X, Y are N, S, or O) that may be acid/base labile, releasing an aldehyde.

> <s_lp_Force_Field>
OPLS_2005

> <r_lp_Energy>
66.8802

> <b_lp_Chiralities_Consistent>
1

> <s_lp_Variant>
AV-unprocessed.smi:110-14

> <Gold.Version>
5.8.1

> <Gold.Id.Protein>
6NUR|6NUR_protein|mol2

> <Gold.PLP.Fitness>
47.0089

> <Gold.PLP.PLP>
-33.7463

> <Gold.PLP.part.hbond>
-3.4077

> <Gold.PLP.part.metal>
0.0000

> <Gold.PLP.part.buried>
-2.3717

> <Gold.PLP.part.nonpolar>
-27.8182

> <Gold.PLP.part.repulsive>
0.2697

> <Gold.PLP.ligand.clash>
0.0000

> <Gold.PLP.ligand.torsion>
0.3551

> <Gold.PLP.Chemscore.Hbond>
2.8319

> <Gold.PLP.Chemscore.CHOScore>
1.8009

> <Gold.PLP.Chemscore.Metal>
0.0000

> <Gold.Chemscore.Hbonds>
donor molecule, donor type, donor heavy atom, donor atom, acceptor molecule, acceptor atom, score
      L1  H    25    45       P1  7948  1.00
      L1  H    27    46       P1 10171  0.86
      P1  H  7954  7966       L1    27  0.94
      L1  C     7    35       P1  7948  1.00
      L1  C    21    44       P1  8028  0.50

> <Gold.PLP.Chemscore.Internal.Correction>
0.0744

> <Gold.Rescore>
     Score         DG    S(hbond)    S(metal)    S(lipo)     H(rot)  DE(clash)    DE(int)     intcor
     10.89     -15.95       2.69        0.00      86.71       3.38       1.36       3.70       ----

> <Gold.Chemscore.Fitness>
10.8886

> <Gold.Chemscore.DG>
-15.9485

> <Gold.Chemscore.ZeroCoef>
-5.4800

> <Gold.Chemscore.Hbond>
2.6903

> <Gold.Chemscore.Metal>
0.0000

> <Gold.Chemscore.Lipo>
86.7095

> <Gold.Chemscore.Internal_Hbond>
0.0000

> <Gold.Chemscore.DEClash>
1.3586

> <Gold.Chemscore.DEInternal>
3.7013

> <Gold.Chemscore.Rot>
3.3837

> <Gold.Chemscore.Internal.Correction>
   9.000000E+99

> <Gold.Chemscore.Hbonds>
donor molecule, donor type, donor heavy atom, donor atom, acceptor molecule, acceptor atom, score
      L1  H    25    45       P1  7948  1.00
      L1  H    27    46       P1 10171  0.80
      P1  H  7954  7966       L1    27  0.46

> <Gold.Chemscore.Hbond.Weighted>
-8.9857

> <Gold.Chemscore.Metal.Weighted>
-0.0000

> <Gold.Chemscore.Lipo.Weighted>
-10.1450

> <Gold.Chemscore.Internal_Hbond.Weighted>
0.0000

> <Gold.Chemscore.DEClash.Weighted>
1.3586

> <Gold.Chemscore.DEInternal.Weighted>
3.7013

> <Gold.Chemscore.Rot.Weighted>
8.6622

> <Gold.Chemscore.Internal.Correction.Weighted>
   9.000000E+99

> <Gold.Protein.RotatedTorsions>
[ 6907 6896 6895 6894 ] final -170.15 input  -60.11 | X-H torsion
[ 7974 7965 7964 7962 ] final  102.21 input  175.53 | X-H torsion
[ 8008 7997 7996 7995 ] final -136.00 input   59.86 | X-H torsion
[ 10167 10162 10161 10158 ] final  -44.96 input  -65.29 | X-H torsion
[ 10718 10713 10712 10709 ] final -106.15 input   66.30 | X-H torsion
[ 10763 10752 10751 10750 ] final -163.80 input  -60.55 | X-H torsion
[ 11005 11000 10999 10996 ] final  -17.68 input  -57.11 | X-H torsion

> <Gold.Protein.ActiveResidues>
 VAL166  LYS551  ARG553  GLY616  TRP617  ASP618  TYR619  PRO620  LYS621  CYS622 
 ASP623  PHE694  ASN695  SER759  ASP760  ASP761  ALA762  ILE779  LEU786  VAL792 
 PHE793  MET794  SER795  GLU796  ALA797  LYS798  CYS799  TRP800  GLU811  SER814 

> <Gold.Protein.RotatedAtoms>
  151.5031  133.3500  159.2872 H   0  0  0  0  0  0  0  0  0  0  0  0  # atno 6907 bound_to 6896
  150.8760  134.8145  159.7201 H   0  0  0  0  0  0  0  0  0  0  0  0  # atno 6908 bound_to 6896
  152.4731  134.4922  159.9750 H   0  0  0  0  0  0  0  0  0  0  0  0  # atno 6909 bound_to 6896
  145.3621  139.2416  143.3501 H   0  0  0  0  0  0  0  0  0  0  0  0  # atno 7974 bound_to 7965
  155.3880  140.0498  157.3041 H   0  0  0  0  0  0  0  0  0  0  0  0  # atno 8008 bound_to 7997
  154.5050  140.2171  155.9231 H   0  0  0  0  0  0  0  0  0  0  0  0  # atno 8009 bound_to 7997
  156.1514  140.3135  155.8660 H   0  0  0  0  0  0  0  0  0  0  0  0  # atno 8010 bound_to 7997
  140.6876  143.2903  151.3571 H   0  0  0  0  0  0  0  0  0  0  0  0  # atno 10167 bound_to 10162
  156.0377  130.5598  150.7640 H   0  0  0  0  0  0  0  0  0  0  0  0  # atno 10718 bound_to 10713
  154.7088  135.3002  154.9229 H   0  0  0  0  0  0  0  0  0  0  0  0  # atno 10763 bound_to 10752
  154.0137  135.6691  153.4771 H   0  0  0  0  0  0  0  0  0  0  0  0  # atno 10764 bound_to 10752
  153.0738  135.5046  154.8274 H   0  0  0  0  0  0  0  0  0  0  0  0  # atno 10765 bound_to 10752
  140.8192  133.8081  155.9642 H   0  0  0  0  0  0  0  0  0  0  0  0  # atno 11005 bound_to 11000
  146.2923  140.4257  142.8735 LP  0  0  0  0  0  0  0  0  0  0  0  0  # atno 17320 bound_to 7965
  144.8639  140.7178  143.6090 LP  0  0  0  0  0  0  0  0  0  0  0  0  # atno 17321 bound_to 7965
  139.6249  144.0834  152.2425 LP  0  0  0  0  0  0  0  0  0  0  0  0  # atno 17342 bound_to 10162
  140.0290  144.6095  150.7504 LP  0  0  0  0  0  0  0  0  0  0  0  0  # atno 17343 bound_to 10162
  157.5152  131.0928  151.0149 LP  0  0  0  0  0  0  0  0  0  0  0  0  # atno 17370 bound_to 10713
  157.0494  130.5781  149.5368 LP  0  0  0  0  0  0  0  0  0  0  0  0  # atno 17371 bound_to 10713
  140.9117  134.2253  157.4982 LP  0  0  0  0  0  0  0  0  0  0  0  0  # atno 17394 bound_to 11000
  139.8709  134.9753  156.4877 LP  0  0  0  0  0  0  0  0  0  0  0  0  # atno 17395 bound_to 11000

$$$$
