AV-unprocessed.smi:1242|AV-procd|sdf|5217|dock4
  -GOLD-   22720 4313D 1   1.00000     0.00000
 Structure written by MMmdl.
 39 40  0  0  0  0  0  0  0  0  1 V2000
  149.1323  139.9135  155.7603 O   0  0  0  0  0  0  0  0  0  0  0  0
  149.3823  141.1036  155.9555 C   0  0  0  0  0  0  0  0  0  0  0  0
  150.8253  141.6222  155.8925 C   0  0  0  0  0  0  0  0  0  0  0  0
  151.4300  141.8032  157.2226 N   0  0  0  0  0  0  0  0  0  0  0  0
  151.1639  143.0144  157.8913 C   0  0  0  0  0  0  0  0  0  0  0  0
  151.6423  143.2943  159.1189 C   0  0  0  0  0  0  0  0  0  0  0  0
  151.3792  144.6305  159.7956 C   0  0  0  0  0  0  0  0  0  0  0  0
  150.0714  144.8462  159.9391 F   0  0  0  0  0  0  0  0  0  0  0  0
  151.9464  144.6806  161.0016 F   0  0  0  0  0  0  0  0  0  0  0  0
  151.8843  145.6185  159.0584 F   0  0  0  0  0  0  0  0  0  0  0  0
  152.4918  142.2880  159.7249 C   0  0  0  0  0  0  0  0  0  0  0  0
  152.7606  141.1268  159.0968 C   0  0  0  0  0  0  0  0  0  0  0  0
  152.2118  140.8263  157.7726 C   0  0  0  0  0  0  0  0  0  0  0  0
  152.4426  139.7647  157.1932 O   0  0  0  0  0  0  0  0  0  0  0  0
  148.4405  142.0147  156.2484 N   0  0  0  0  0  0  0  0  0  0  0  0
  147.0024  141.7517  156.3393 C   0  0  1  0  0  0  0  0  0  0  0  0
  146.3601  142.9295  157.1076 C   0  0  0  0  0  0  0  0  0  0  0  0
  145.0065  142.5853  157.7532 C   0  0  0  0  0  0  0  0  0  0  0  0
  143.8796  142.2557  156.7626 C   0  0  0  0  0  0  0  0  0  0  0  0
  144.1565  141.0111  155.9027 C   0  0  0  0  0  0  0  0  0  0  0  0
  145.0861  141.2910  154.8164 N   0  0  0  0  0  0  0  0  0  0  0  0
  146.3714  141.6588  154.9299 C   0  0  0  0  0  0  0  0  0  0  0  0
  147.0332  141.9213  153.9257 O   0  0  0  0  0  0  0  0  0  0  0  0
  151.4342  140.9410  155.2946 H   0  0  0  0  0  0  0  0  0  0  0  0
  150.8231  142.5620  155.3388 H   0  0  0  0  0  0  0  0  0  0  0  0
  150.5376  143.7027  157.3423 H   0  0  0  0  0  0  0  0  0  0  0  0
  152.9157  142.4653  160.7022 H   0  0  0  0  0  0  0  0  0  0  0  0
  153.3950  140.3983  159.5801 H   0  0  0  0  0  0  0  0  0  0  0  0
  148.7357  142.9695  156.3907 H   0  0  0  0  0  0  0  0  0  0  0  0
  146.8456  140.8182  156.8828 H   0  0  0  0  0  0  0  0  0  0  0  0
  147.0285  143.2335  157.9149 H   0  0  0  0  0  0  0  0  0  0  0  0
  146.2611  143.8073  156.4667 H   0  0  0  0  0  0  0  0  0  0  0  0
  145.1370  141.7517  158.4440 H   0  0  0  0  0  0  0  0  0  0  0  0
  144.6904  143.4301  158.3659 H   0  0  0  0  0  0  0  0  0  0  0  0
  142.9672  142.0833  157.3344 H   0  0  0  0  0  0  0  0  0  0  0  0
  143.6736  143.1165  156.1251 H   0  0  0  0  0  0  0  0  0  0  0  0
  144.5165  140.1809  156.5120 H   0  0  0  0  0  0  0  0  0  0  0  0
  143.2243  140.6753  155.4477 H   0  0  0  0  0  0  0  0  0  0  0  0
  144.7095  141.2283  153.8816 H   0  0  0  0  0  0  0  0  0  0  0  0
  1  2  2  0  0  0  0
  2  3  1  0  0  0  0
  2 15  1  0  0  0  0
  3  4  1  0  0  0  0
  3 24  1  0  0  0  0
  3 25  1  0  0  0  0
  4 13  1  0  0  0  0
  4  5  1  0  0  0  0
  5  6  2  0  0  0  0
  5 26  1  0  0  0  0
  6  7  1  0  0  0  0
  6 11  1  0  0  0  0
  7  8  1  0  0  0  0
  7  9  1  0  0  0  0
  7 10  1  0  0  0  0
 11 12  2  0  0  0  0
 11 27  1  0  0  0  0
 12 13  1  0  0  0  0
 12 28  1  0  0  0  0
 13 14  2  0  0  0  0
 15 16  1  0  0  0  0
 15 29  1  0  0  0  0
 16 22  1  0  0  0  0
 16 17  1  0  0  0  0
 16 30  1  0  0  0  0
 17 18  1  0  0  0  0
 17 31  1  0  0  0  0
 17 32  1  0  0  0  0
 18 19  1  0  0  0  0
 18 33  1  0  0  0  0
 18 34  1  0  0  0  0
 19 20  1  0  0  0  0
 19 35  1  0  0  0  0
 19 36  1  0  0  0  0
 20 21  1  0  0  0  0
 20 37  1  0  0  0  0
 20 38  1  0  0  0  0
 21 22  1  0  0  0  0
 21 39  1  0  0  0  0
 22 23  2  0  0  0  0
M  END
> <s_m_source_file>
AV-unprocessed.smi

> <i_m_source_file_index>
1242

> <i_lp_mmshare_version>
43012

> <i_f3d_flags>
0

> <s_epik_input>
Tz1jMVtjSF1bY0hdYyhDKEYpKEYpRilbY0hdbjFbQ0gyXUMoPU8pW05IXVtDQEBIXTJbQ0gyXVtDSDJdW0NIMl1bQ0gyXVtOSF1DMj1P

> <s_epik_cmdline>
J2VwaWtfcHl0aG9uJywgJy1waCcsICc3LjAnLCAnLXRuJywgJzgnLCAnLW1hJywgJzIwMCcsICctbWV0YWxfYmluZGluZycsICctaW1hZScsICc8aW5maWxlLm1hZT4nLCAnLW9tYWUnLCAnPG91dGZpbGUubWFlPic=

> <r_lp_tautomer_probability>
1

> <r_epik_Ionization_Penalty>
6.92876e-08

> <r_epik_Ionization_Penalty_Charging>
1.59659e-08

> <r_epik_Ionization_Penalty_Neutral>
5.33217e-08

> <r_epik_State_Penalty>
-0

> <r_epik_Charging_Adjusted_Penalty>
1.59659e-08

> <i_epik_Tot_Q>
0

> <i_epik_Tot_abs_Q>
0

> <r_epik_Metal_State_Penalty>
-0

> <b_epik_Metal_Only>
0

> <s_lp_Force_Field>
OPLS_2005

> <r_lp_Energy>
23.3592

> <b_lp_Chiralities_Consistent>
1

> <s_lp_Variant>
AV-unprocessed.smi:1242-2

> <Gold.Version>
5.8.1

> <Gold.Id.Protein>
6NUR|6NUR_protein|mol2

> <Gold.PLP.Fitness>
49.1867

> <Gold.PLP.PLP>
-39.1180

> <Gold.PLP.part.hbond>
-3.0000

> <Gold.PLP.part.metal>
0.0000

> <Gold.PLP.part.buried>
-5.0986

> <Gold.PLP.part.nonpolar>
-30.2322

> <Gold.PLP.part.repulsive>
0.2191

> <Gold.PLP.ligand.clash>
0.0000

> <Gold.PLP.ligand.torsion>
0.8715

> <Gold.PLP.Chemscore.Hbond>
2.9600

> <Gold.PLP.Chemscore.CHOScore>
0.9657

> <Gold.PLP.Chemscore.Metal>
0.0000

> <Gold.Chemscore.Hbonds>
donor molecule, donor type, donor heavy atom, donor atom, acceptor molecule, acceptor atom, score
      L1  H    15    29       P1  8028  0.94
      L1  H    21    39       P1 10175  1.00
      P1  H  7997  8009       L1    14  0.94
      L1  C     5    26       P1  8028  0.95

> <Gold.PLP.Chemscore.Internal.Correction>
0.0345

> <Gold.Rescore>
     Score         DG    S(hbond)    S(metal)    S(lipo)     H(rot)  DE(clash)    DE(int)     intcor
     15.97     -17.33       2.56        0.00      65.86       1.72       0.59       0.78       ----

> <Gold.Chemscore.Fitness>
15.9668

> <Gold.Chemscore.DG>
-17.3341

> <Gold.Chemscore.ZeroCoef>
-5.4800

> <Gold.Chemscore.Hbond>
2.5612

> <Gold.Chemscore.Metal>
0.0000

> <Gold.Chemscore.Lipo>
65.8622

> <Gold.Chemscore.Internal_Hbond>
0.0000

> <Gold.Chemscore.DEClash>
0.5914

> <Gold.Chemscore.DEInternal>
0.7759

> <Gold.Chemscore.Rot>
1.7212

> <Gold.Chemscore.Internal.Correction>
   9.000000E+99

> <Gold.Chemscore.Hbonds>
donor molecule, donor type, donor heavy atom, donor atom, acceptor molecule, acceptor atom, score
      L1  H    15    29       P1  8028  0.88
      L1  H    21    39       P1 10175  0.54
      P1  H  7997  8009       L1    14  0.20

> <Gold.Chemscore.Hbond.Weighted>
-8.5545

> <Gold.Chemscore.Metal.Weighted>
-0.0000

> <Gold.Chemscore.Lipo.Weighted>
-7.7059

> <Gold.Chemscore.Internal_Hbond.Weighted>
0.0000

> <Gold.Chemscore.DEClash.Weighted>
0.5914

> <Gold.Chemscore.DEInternal.Weighted>
0.7759

> <Gold.Chemscore.Rot.Weighted>
4.4062

> <Gold.Chemscore.Internal.Correction.Weighted>
   9.000000E+99

> <Gold.Protein.RotatedTorsions>
[ 6907 6896 6895 6894 ] final  165.92 input  -60.11 | X-H torsion
[ 7974 7965 7964 7962 ] final  -36.83 input  175.53 | X-H torsion
[ 8008 7997 7996 7995 ] final  175.78 input   59.86 | X-H torsion
[ 10167 10162 10161 10158 ] final  178.75 input  -65.29 | X-H torsion
[ 10718 10713 10712 10709 ] final -102.17 input   66.30 | X-H torsion
[ 10763 10752 10751 10750 ] final  -96.96 input  -60.55 | X-H torsion
[ 11005 11000 10999 10996 ] final    6.31 input  -57.11 | X-H torsion

> <Gold.Protein.ActiveResidues>
 VAL166  LYS551  ARG553  GLY616  TRP617  ASP618  TYR619  PRO620  LYS621  CYS622 
 ASP623  PHE694  ASN695  SER759  ASP760  ASP761  ALA762  ILE779  LEU786  VAL792 
 PHE793  MET794  SER795  GLU796  ALA797  LYS798  CYS799  TRP800  GLU811  SER814 

> <Gold.Protein.RotatedAtoms>
  151.8869  133.3507  159.3784 H   0  0  0  0  0  0  0  0  0  0  0  0  # atno 6907 bound_to 6896
  150.7113  134.4963  159.5549 H   0  0  0  0  0  0  0  0  0  0  0  0  # atno 6908 bound_to 6896
  152.2525  134.8118  160.0494 H   0  0  0  0  0  0  0  0  0  0  0  0  # atno 6909 bound_to 6896
  146.0627  140.6325  142.8989 H   0  0  0  0  0  0  0  0  0  0  0  0  # atno 7974 bound_to 7965
  156.0835  140.1400  156.9683 H   0  0  0  0  0  0  0  0  0  0  0  0  # atno 8008 bound_to 7997
  154.4599  140.0947  156.6911 H   0  0  0  0  0  0  0  0  0  0  0  0  # atno 8009 bound_to 7997
  155.5037  140.3451  155.4378 H   0  0  0  0  0  0  0  0  0  0  0  0  # atno 8010 bound_to 7997
  139.5307  144.2643  152.0681 H   0  0  0  0  0  0  0  0  0  0  0  0  # atno 10167 bound_to 10162
  156.0219  130.5407  150.7069 H   0  0  0  0  0  0  0  0  0  0  0  0  # atno 10718 bound_to 10713
  154.7286  135.5064  153.8927 H   0  0  0  0  0  0  0  0  0  0  0  0  # atno 10763 bound_to 10752
  153.0928  135.6664  153.9829 H   0  0  0  0  0  0  0  0  0  0  0  0  # atno 10764 bound_to 10752
  153.9635  135.3045  155.3411 H   0  0  0  0  0  0  0  0  0  0  0  0  # atno 10765 bound_to 10752
  140.5609  134.0193  155.7971 H   0  0  0  0  0  0  0  0  0  0  0  0  # atno 11005 bound_to 11000
  144.7184  140.4291  143.7026 LP  0  0  0  0  0  0  0  0  0  0  0  0  # atno 17320 bound_to 7965
  145.6531  139.1568  143.2850 LP  0  0  0  0  0  0  0  0  0  0  0  0  # atno 17321 bound_to 7965
  140.2105  144.4567  150.6388 LP  0  0  0  0  0  0  0  0  0  0  0  0  # atno 17342 bound_to 10162
  140.6483  143.2218  151.6135 LP  0  0  0  0  0  0  0  0  0  0  0  0  # atno 17343 bound_to 10162
  157.4717  131.0894  151.0635 LP  0  0  0  0  0  0  0  0  0  0  0  0  # atno 17370 bound_to 10713
  157.1094  130.6015  149.5478 LP  0  0  0  0  0  0  0  0  0  0  0  0  # atno 17371 bound_to 10713
  141.1115  133.9609  157.2901 LP  0  0  0  0  0  0  0  0  0  0  0  0  # atno 17394 bound_to 11000
  139.9408  135.0191  156.8702 LP  0  0  0  0  0  0  0  0  0  0  0  0  # atno 17395 bound_to 11000

$$$$
