AV-unprocessed.smi:557|AV-procd|sdf|2916|dock5
  -GOLD-   2262023413D 1   1.00000     0.00000
 Structure written by MMmdl.
 47 49  0  0  0  0  0  0  0  0  2 V2000
  151.8791  141.6799  157.2601 C   0  0  0  0  0  0  0  0  0  0  0  0
  151.5094  140.8348  156.1451 N   0  0  0  0  0  0  0  0  0  0  0  0
  150.3794  140.8954  155.3587 C   0  0  0  0  0  0  0  0  0  0  0  0
  150.4698  139.8938  154.4334 C   0  0  0  0  0  0  0  0  0  0  0  0
  149.5014  139.5327  153.3422 C   0  0  0  0  0  0  0  0  0  0  0  0
  148.1622  139.0523  153.9164 C   0  0  0  0  0  0  0  0  0  0  0  0
  147.6102  137.9743  153.1004 N   0  0  0  0  0  0  0  0  0  0  0  0
  146.3157  137.6415  152.9629 C   0  0  0  0  0  0  0  0  0  0  0  0
  145.4197  138.2511  153.5434 O   0  0  0  0  0  0  0  0  0  0  0  0
  146.0896  136.6007  152.1438 N   0  0  0  0  0  0  0  0  0  0  0  0
  144.7705  136.0564  151.8359 C   0  0  2  0  0  0  0  0  0  0  0  0
  143.9638  135.6881  153.0740 C   0  0  0  0  0  0  0  0  0  0  0  0
  142.8932  134.7430  152.5185 C   0  0  0  0  0  0  0  0  0  0  0  0
  143.4619  134.1180  151.2985 N   0  3  2  0  0  0  0  0  0  0  0  0
  143.4511  132.6304  151.3198 C   0  0  0  0  0  0  0  0  0  0  0  0
  144.3969  132.0577  150.2539 C   0  0  0  0  0  0  0  0  0  0  0  0
  145.8561  132.4795  150.5109 C   0  0  0  0  0  0  0  0  0  0  0  0
  145.9583  133.7793  151.3322 C   0  0  0  0  0  0  0  0  0  0  0  0
  144.7868  134.7453  151.0270 C   0  0  2  0  0  0  0  0  0  0  0  0
  151.7092  139.2660  154.7460 C   0  0  0  0  0  0  0  0  0  0  0  0
  152.3284  139.8307  155.7697 N   0  0  0  0  0  0  0  0  0  0  0  0
  151.2562  142.5746  157.2725 H   0  0  0  0  0  0  0  0  0  0  0  0
  152.9241  141.9789  157.1712 H   0  0  0  0  0  0  0  0  0  0  0  0
  151.7395  141.1361  158.1946 H   0  0  0  0  0  0  0  0  0  0  0  0
  149.6125  141.6389  155.5190 H   0  0  0  0  0  0  0  0  0  0  0  0
  149.3270  140.3891  152.6897 H   0  0  0  0  0  0  0  0  0  0  0  0
  149.9211  138.7542  152.7039 H   0  0  0  0  0  0  0  0  0  0  0  0
  148.3018  138.6984  154.9393 H   0  0  0  0  0  0  0  0  0  0  0  0
  147.4544  139.8823  153.9508 H   0  0  0  0  0  0  0  0  0  0  0  0
  148.2810  137.4136  152.5946 H   0  0  0  0  0  0  0  0  0  0  0  0
  146.8851  136.1554  151.7096 H   0  0  0  0  0  0  0  0  0  0  0  0
  144.2008  136.8044  151.2800 H   0  0  0  0  0  0  0  0  0  0  0  0
  144.5910  135.1557  153.7910 H   0  0  0  0  0  0  0  0  0  0  0  0
  143.5386  136.5562  153.5789 H   0  0  0  0  0  0  0  0  0  0  0  0
  142.5743  134.0159  153.2666 H   0  0  0  0  0  0  0  0  0  0  0  0
  142.0106  135.3111  152.2226 H   0  0  0  0  0  0  0  0  0  0  0  0
  143.7575  132.2654  152.3015 H   0  0  0  0  0  0  0  0  0  0  0  0
  142.4312  132.2808  151.1573 H   0  0  0  0  0  0  0  0  0  0  0  0
  144.3239  130.9702  150.2207 H   0  0  0  0  0  0  0  0  0  0  0  0
  144.0810  132.4140  149.2723 H   0  0  0  0  0  0  0  0  0  0  0  0
  146.3880  131.6861  151.0370 H   0  0  0  0  0  0  0  0  0  0  0  0
  146.3638  132.6006  149.5532 H   0  0  0  0  0  0  0  0  0  0  0  0
  145.9556  133.5347  152.3954 H   0  0  0  0  0  0  0  0  0  0  0  0
  146.9217  134.2490  151.1328 H   0  0  0  0  0  0  0  0  0  0  0  0
  144.8324  134.9896  149.9645 H   0  0  0  0  0  0  0  0  0  0  0  0
  152.1753  138.4214  154.2601 H   0  0  0  0  0  0  0  0  0  0  0  0
  142.8658  134.3995  150.5331 H   0  0  0  0  0  0  0  0  0  0  0  0
  1  2  1  0  0  0  0
  1 22  1  0  0  0  0
  1 23  1  0  0  0  0
  1 24  1  0  0  0  0
  2 21  1  0  0  0  0
  2  3  1  0  0  0  0
  3  4  2  0  0  0  0
  3 25  1  0  0  0  0
  4  5  1  0  0  0  0
  4 20  1  0  0  0  0
  5  6  1  0  0  0  0
  5 26  1  0  0  0  0
  5 27  1  0  0  0  0
  6  7  1  0  0  0  0
  6 28  1  0  0  0  0
  6 29  1  0  0  0  0
  7  8  1  0  0  0  0
  7 30  1  0  0  0  0
  8  9  2  0  0  0  0
  8 10  1  0  0  0  0
 10 11  1  0  0  0  0
 10 31  1  0  0  0  0
 11 19  1  0  0  0  0
 11 12  1  0  0  0  0
 11 32  1  0  0  0  0
 12 13  1  0  0  0  0
 12 33  1  0  0  0  0
 12 34  1  0  0  0  0
 13 14  1  0  0  0  0
 13 35  1  0  0  0  0
 13 36  1  0  0  0  0
 14 19  1  0  0  0  0
 14 15  1  0  0  0  0
 14 47  1  0  0  0  0
 15 16  1  0  0  0  0
 15 37  1  0  0  0  0
 15 38  1  0  0  0  0
 16 17  1  0  0  0  0
 16 39  1  0  0  0  0
 16 40  1  0  0  0  0
 17 18  1  0  0  0  0
 17 41  1  0  0  0  0
 17 42  1  0  0  0  0
 18 19  1  0  0  0  0
 18 43  1  0  0  0  0
 18 44  1  0  0  0  0
 19 45  1  0  0  0  0
 20 21  2  0  0  0  0
 20 46  1  0  0  0  0
M  CHG  1  14   1
M  END
> <s_m_source_file>
AV-unprocessed.smi

> <i_m_source_file_index>
557

> <i_lp_mmshare_version>
43012

> <i_f3d_flags>
0

> <s_epik_input>
W0NIM11uMVtjSF1jKFtjSF1uMSlbQ0gyXVtDSDJdW05IXUMoPU8pW05IXVtDQEhdKFtDSDJdW0NIMl0yKVtDQEhdKE4yMylbQ0gyXVtDSDJdW0NIMl1bQ0gyXTM=

> <s_epik_cmdline>
J2VwaWtfcHl0aG9uJywgJy1waCcsICc3LjAnLCAnLXRuJywgJzgnLCAnLW1hJywgJzIwMCcsICctbWV0YWxfYmluZGluZycsICctaW1hZScsICc8aW5maWxlLm1hZT4nLCAnLW9tYWUnLCAnPG91dGZpbGUubWFlPic=

> <r_lp_tautomer_probability>
1

> <r_epik_Ionization_Penalty>
0.000956547

> <r_epik_Ionization_Penalty_Charging>
0.000435796

> <r_epik_Ionization_Penalty_Neutral>
0.000520752

> <r_epik_State_Penalty>
-0

> <r_epik_Charging_Adjusted_Penalty>
0.000435796

> <i_epik_Tot_Q>
1

> <i_epik_Tot_abs_Q>
1

> <r_epik_Metal_State_Penalty>
-0

> <b_epik_Metal_Only>
0

> <s_lp_Force_Field>
OPLS_2005

> <r_lp_Energy>
46.1315

> <b_lp_Chiralities_Consistent>
1

> <s_lp_Variant>
AV-unprocessed.smi:557-3

> <Gold.Version>
5.8.1

> <Gold.Id.Protein>
6NUR|6NUR_protein|mol2

> <Gold.PLP.Fitness>
51.0330

> <Gold.PLP.PLP>
-38.7135

> <Gold.PLP.part.hbond>
-3.7366

> <Gold.PLP.part.metal>
0.0000

> <Gold.PLP.part.buried>
-1.6577

> <Gold.PLP.part.nonpolar>
-34.4272

> <Gold.PLP.part.repulsive>
0.2273

> <Gold.PLP.ligand.clash>
0.0000

> <Gold.PLP.ligand.torsion>
0.5064

> <Gold.PLP.Chemscore.Hbond>
4.4409

> <Gold.PLP.Chemscore.CHOScore>
0.0000

> <Gold.PLP.Chemscore.Metal>
0.0000

> <Gold.Chemscore.Hbonds>
donor molecule, donor type, donor heavy atom, donor atom, acceptor molecule, acceptor atom, score
      L1  H     7    30       P1  7948  1.00
      L1  H    10    31       P1  7948  0.75
      L1  H    14    47       P1 10186  1.69
      P1  H  7997  8008       L1    21  0.84

> <Gold.PLP.Chemscore.Internal.Correction>
0.0095

> <Gold.Rescore>
     Score         DG    S(hbond)    S(metal)    S(lipo)     H(rot)  DE(clash)    DE(int)     intcor
     19.53     -22.90       3.06        0.00      96.49       1.60       1.72       1.66       ----

> <Gold.Chemscore.Fitness>
19.5288

> <Gold.Chemscore.DG>
-22.9033

> <Gold.Chemscore.ZeroCoef>
-5.4800

> <Gold.Chemscore.Hbond>
3.0643

> <Gold.Chemscore.Metal>
0.0000

> <Gold.Chemscore.Lipo>
96.4896

> <Gold.Chemscore.Internal_Hbond>
0.0000

> <Gold.Chemscore.DEClash>
1.7176

> <Gold.Chemscore.DEInternal>
1.6570

> <Gold.Chemscore.Rot>
1.6018

> <Gold.Chemscore.Internal.Correction>
   9.000000E+99

> <Gold.Chemscore.Hbonds>
donor molecule, donor type, donor heavy atom, donor atom, acceptor molecule, acceptor atom, score
      L1  H     7    30       P1  7948  0.93
      L1  H    10    31       P1  7948  0.71
      L1  H    14    47       P1 10186  0.48
      P1  H  7997  8008       L1    21  0.72

> <Gold.Chemscore.Hbond.Weighted>
-10.2346

> <Gold.Chemscore.Metal.Weighted>
-0.0000

> <Gold.Chemscore.Lipo.Weighted>
-11.2893

> <Gold.Chemscore.Internal_Hbond.Weighted>
0.0000

> <Gold.Chemscore.DEClash.Weighted>
1.7176

> <Gold.Chemscore.DEInternal.Weighted>
1.6570

> <Gold.Chemscore.Rot.Weighted>
4.1006

> <Gold.Chemscore.Internal.Correction.Weighted>
   9.000000E+99

> <Gold.Protein.RotatedTorsions>
[ 6907 6896 6895 6894 ] final   97.34 input  -60.11 | X-H torsion
[ 7974 7965 7964 7962 ] final   25.45 input  175.53 | X-H torsion
[ 8008 7997 7996 7995 ] final  -40.67 input   59.86 | X-H torsion
[ 10167 10162 10161 10158 ] final   90.27 input  -65.29 | X-H torsion
[ 10718 10713 10712 10709 ] final  153.80 input   66.30 | X-H torsion
[ 10763 10752 10751 10750 ] final   61.00 input  -60.55 | X-H torsion
[ 11005 11000 10999 10996 ] final -161.43 input  -57.11 | X-H torsion

> <Gold.Protein.ActiveResidues>
 VAL166  LYS551  ARG553  GLY616  TRP617  ASP618  TYR619  PRO620  LYS621  CYS622 
 ASP623  PHE694  ASN695  SER759  ASP760  ASP761  ALA762  ILE779  LEU786  VAL792 
 PHE793  MET794  SER795  GLU796  ALA797  LYS798  CYS799  TRP800  GLU811  SER814 

> <Gold.Protein.RotatedAtoms>
  152.5424  134.0749  159.8209 H   0  0  0  0  0  0  0  0  0  0  0  0  # atno 6907 bound_to 6896
  151.0858  133.5346  159.2625 H   0  0  0  0  0  0  0  0  0  0  0  0  # atno 6908 bound_to 6896
  151.2156  135.0507  159.8983 H   0  0  0  0  0  0  0  0  0  0  0  0  # atno 6909 bound_to 6896
  146.1888  139.7465  142.8847 H   0  0  0  0  0  0  0  0  0  0  0  0  # atno 7974 bound_to 7965
  154.4010  140.1519  156.3065 H   0  0  0  0  0  0  0  0  0  0  0  0  # atno 8008 bound_to 7997
  155.8653  140.3451  155.5763 H   0  0  0  0  0  0  0  0  0  0  0  0  # atno 8009 bound_to 7997
  155.7834  140.0846  157.2037 H   0  0  0  0  0  0  0  0  0  0  0  0  # atno 8010 bound_to 7997
  139.8490  144.6603  150.9192 H   0  0  0  0  0  0  0  0  0  0  0  0  # atno 10167 bound_to 10162
  157.2400  131.0757  151.1798 H   0  0  0  0  0  0  0  0  0  0  0  0  # atno 10718 bound_to 10713
  152.9937  135.5516  154.5963 H   0  0  0  0  0  0  0  0  0  0  0  0  # atno 10763 bound_to 10752
  154.5314  135.2814  155.1179 H   0  0  0  0  0  0  0  0  0  0  0  0  # atno 10764 bound_to 10752
  154.2492  135.6402  153.5287 H   0  0  0  0  0  0  0  0  0  0  0  0  # atno 10765 bound_to 10752
  140.6205  134.4755  157.5223 H   0  0  0  0  0  0  0  0  0  0  0  0  # atno 11005 bound_to 11000
  145.3857  141.0365  143.3152 LP  0  0  0  0  0  0  0  0  0  0  0  0  # atno 17320 bound_to 7965
  144.8447  139.5416  143.6884 LP  0  0  0  0  0  0  0  0  0  0  0  0  # atno 17321 bound_to 7965
  140.7790  143.3844  151.1419 LP  0  0  0  0  0  0  0  0  0  0  0  0  # atno 17342 bound_to 10162
  139.7484  143.8816  152.3070 LP  0  0  0  0  0  0  0  0  0  0  0  0  # atno 17343 bound_to 10162
  157.3389  130.7023  149.6369 LP  0  0  0  0  0  0  0  0  0  0  0  0  # atno 17370 bound_to 10713
  155.9670  130.4286  150.4794 LP  0  0  0  0  0  0  0  0  0  0  0  0  # atno 17371 bound_to 10713
  139.9155  134.8255  156.1380 LP  0  0  0  0  0  0  0  0  0  0  0  0  # atno 17394 bound_to 11000
  141.0746  133.6781  156.2209 LP  0  0  0  0  0  0  0  0  0  0  0  0  # atno 17395 bound_to 11000

$$$$
