AV-unprocessed.smi:72|AV-procd|sdf|677|dock5
  -GOLD-   2262016583D 1   1.00000     0.00000
 Structure written by MMmdl.
 29 30  0  0  0  0  0  0  0  0  1 V2000
  154.1165  138.3307  154.9764 N   0  0  0  0  0  0  0  0  0  0  0  0
  152.8413  138.4803  154.9139 C   0  0  0  0  0  0  0  0  0  0  0  0
  151.9433  137.5576  154.3566 N   0  0  0  0  0  0  0  0  0  0  0  0
  150.6765  137.8383  154.3625 C   0  0  0  0  0  0  0  0  0  0  0  0
  150.1593  139.0765  154.9288 N   0  0  0  0  0  0  0  0  0  0  0  0
  148.6774  139.4089  154.9434 C   0  0  2  0  0  0  0  0  0  0  0  0
  147.9411  138.3338  154.4322 O   0  0  0  0  0  0  0  0  0  0  0  0
  147.4130  138.6632  153.1500 C   0  0  1  0  0  0  0  0  0  0  0  0
  146.1717  137.8050  152.8635 C   0  0  0  0  0  0  0  0  0  0  0  0
  145.5115  138.2802  151.7098 O   0  0  0  0  0  0  0  0  0  0  0  0
  147.1078  140.1511  153.3161 C   0  0  2  0  0  0  0  0  0  0  0  0
  146.9113  140.8208  152.0847 O   0  0  0  0  0  0  0  0  0  0  0  0
  148.3175  140.6547  154.0984 C   0  0  2  0  0  0  0  0  0  0  0  0
  149.3654  141.0875  153.2433 O   0  0  0  0  0  0  0  0  0  0  0  0
  151.0541  140.0204  155.4884 C   0  0  0  0  0  0  0  0  0  0  0  0
  150.6705  141.0889  155.9639 O   0  0  0  0  0  0  0  0  0  0  0  0
  152.3602  139.6785  155.4584 N   0  0  0  0  0  0  0  0  0  0  0  0
  148.4117  139.5135  155.9968 H   0  0  0  0  0  0  0  0  0  0  0  0
  148.1750  138.5283  152.3800 H   0  0  0  0  0  0  0  0  0  0  0  0
  146.2131  140.2717  153.9294 H   0  0  0  0  0  0  0  0  0  0  0  0
  148.0495  141.4797  154.7592 H   0  0  0  0  0  0  0  0  0  0  0  0
  154.3913  137.4497  154.5675 H   0  0  0  0  0  0  0  0  0  0  0  0
  149.9290  137.1647  153.9440 H   0  0  0  0  0  0  0  0  0  0  0  0
  146.4342  136.7532  152.7462 H   0  0  0  0  0  0  0  0  0  0  0  0
  145.4678  137.8731  153.6934 H   0  0  0  0  0  0  0  0  0  0  0  0
  145.0482  139.0728  151.9340 H   0  0  0  0  0  0  0  0  0  0  0  0
  147.7168  140.7839  151.5918 H   0  0  0  0  0  0  0  0  0  0  0  0
  149.5911  140.3768  152.6630 H   0  0  0  0  0  0  0  0  0  0  0  0
  153.0214  140.3327  155.8502 H   0  0  0  0  0  0  0  0  0  0  0  0
  1  2  2  0  0  0  0
  1 22  1  0  0  0  0
  2 17  1  0  0  0  0
  2  3  1  0  0  0  0
  3  4  2  0  0  0  0
  4  5  1  0  0  0  0
  4 23  1  0  0  0  0
  5  6  1  0  0  0  0
  5 15  1  0  0  0  0
  6 18  1  0  0  0  0
  6 13  1  0  0  0  0
  6  7  1  0  0  0  0
  7  8  1  0  0  0  0
  8 19  1  0  0  0  0
  8  9  1  0  0  0  0
  8 11  1  0  0  0  0
  9 10  1  0  0  0  0
  9 24  1  0  0  0  0
  9 25  1  0  0  0  0
 10 26  1  0  0  0  0
 11 20  1  0  0  0  0
 11 12  1  0  0  0  0
 11 13  1  0  0  0  0
 12 27  1  0  0  0  0
 13 21  1  0  0  0  0
 13 14  1  0  0  0  0
 14 28  1  0  0  0  0
 15 16  2  0  0  0  0
 15 17  1  0  0  0  0
 17 29  1  0  0  0  0
M  END
> <s_m_source_file>
AV-unprocessed.smi

> <i_m_source_file_index>
72

> <i_lp_mmshare_version>
43012

> <i_f3d_flags>
0

> <s_epik_input>
W05IMl1jMW5bY0hdbihjKD1PKW4xKVtDQEBIXTJPW0NASF0oW0NIMl1bT0hdKVtDQEBIXShbT0hdKVtDQEhdMltPSF0=

> <s_epik_cmdline>
J2VwaWtfcHl0aG9uJywgJy1waCcsICc3LjAnLCAnLXRuJywgJzgnLCAnLW1hJywgJzIwMCcsICctbWV0YWxfYmluZGluZycsICctaW1hZScsICc8aW5maWxlLm1hZT4nLCAnLW9tYWUnLCAnPG91dGZpbGUubWFlPic=

> <r_lp_tautomer_probability>
7.17554e-07

> <r_epik_Ionization_Penalty>
0.0066451

> <r_epik_Ionization_Penalty_Charging>
0.00663793

> <r_epik_Ionization_Penalty_Neutral>
7.17052e-06

> <r_epik_State_Penalty>
0.419231

> <r_epik_Charging_Adjusted_Penalty>
0.425868

> <i_epik_Tot_Q>
0

> <i_epik_Tot_abs_Q>
0

> <r_epik_Metal_State_Penalty>
1.44144

> <b_epik_Metal_Only>
0

> <s_epik_Chemistry_Notes>
This compound contains an acetal/aminal-like group ( X-CH(R)-Y where X, Y are N, S, or O) that may be acid/base labile, releasing an aldehyde.

> <s_lp_Force_Field>
OPLS_2005

> <r_lp_Energy>
48.3326

> <b_lp_Chiralities_Consistent>
1

> <s_lp_Variant>
AV-unprocessed.smi:72-15

> <Gold.Version>
5.8.1

> <Gold.Id.Protein>
6NUR|6NUR_protein|mol2

> <Gold.PLP.Fitness>
47.0151

> <Gold.PLP.PLP>
-29.2000

> <Gold.PLP.part.hbond>
-8.1321

> <Gold.PLP.part.metal>
0.0000

> <Gold.PLP.part.buried>
-2.3723

> <Gold.PLP.part.nonpolar>
-19.7139

> <Gold.PLP.part.repulsive>
0.5318

> <Gold.PLP.ligand.clash>
0.0000

> <Gold.PLP.ligand.torsion>
0.0583

> <Gold.PLP.Chemscore.Hbond>
4.9533

> <Gold.PLP.Chemscore.CHOScore>
1.0000

> <Gold.PLP.Chemscore.Metal>
0.0000

> <Gold.Chemscore.Hbonds>
donor molecule, donor type, donor heavy atom, donor atom, acceptor molecule, acceptor atom, score
      L1  H    10    26       P1 10175  1.00
      L1  H    12    27       P1  7957  0.99
      L1  H    14    28       P1  7957  0.80
      P1  H  7997  8009       L1     1  0.51
      P1  H  8011  8017       L1    14  1.00
      P1  H 10752 10763       L1     3  0.66
      L1  C     4    23       P1  7948  1.00

> <Gold.PLP.Chemscore.Internal.Correction>
0.0718

> <Gold.Rescore>
     Score         DG    S(hbond)    S(metal)    S(lipo)     H(rot)  DE(clash)    DE(int)     intcor
     10.06     -11.06       3.87        0.00      26.07       4.06       0.47       0.53       ----

> <Gold.Chemscore.Fitness>
10.0611

> <Gold.Chemscore.DG>
-11.0584

> <Gold.Chemscore.ZeroCoef>
-5.4800

> <Gold.Chemscore.Hbond>
3.8688

> <Gold.Chemscore.Metal>
0.0000

> <Gold.Chemscore.Lipo>
26.0694

> <Gold.Chemscore.Internal_Hbond>
0.0000

> <Gold.Chemscore.DEClash>
0.4681

> <Gold.Chemscore.DEInternal>
0.5292

> <Gold.Chemscore.Rot>
4.0600

> <Gold.Chemscore.Internal.Correction>
   9.000000E+99

> <Gold.Chemscore.Hbonds>
donor molecule, donor type, donor heavy atom, donor atom, acceptor molecule, acceptor atom, score
      L1  H    10    26       P1 10175  0.95
      L1  H    12    27       P1  7957  0.91
      L1  H    14    28       P1  7957  0.74
      P1  H  7997  8009       L1     1  0.10
      P1  H  8011  8017       L1    14  0.30
      P1  H 10752 10763       L1     3  0.39

> <Gold.Chemscore.Hbond.Weighted>
-12.9218

> <Gold.Chemscore.Metal.Weighted>
-0.0000

> <Gold.Chemscore.Lipo.Weighted>
-3.0501

> <Gold.Chemscore.Internal_Hbond.Weighted>
0.0000

> <Gold.Chemscore.DEClash.Weighted>
0.4681

> <Gold.Chemscore.DEInternal.Weighted>
0.5292

> <Gold.Chemscore.Rot.Weighted>
10.3936

> <Gold.Chemscore.Internal.Correction.Weighted>
   9.000000E+99

> <Gold.Protein.RotatedTorsions>
[ 6907 6896 6895 6894 ] final   14.01 input  -60.11 | X-H torsion
[ 7974 7965 7964 7962 ] final   75.74 input  175.53 | X-H torsion
[ 8008 7997 7996 7995 ] final -127.11 input   59.86 | X-H torsion
[ 10167 10162 10161 10158 ] final  119.54 input  -65.29 | X-H torsion
[ 10718 10713 10712 10709 ] final  101.41 input   66.30 | X-H torsion
[ 10763 10752 10751 10750 ] final   38.63 input  -60.55 | X-H torsion
[ 11005 11000 10999 10996 ] final -160.74 input  -57.11 | X-H torsion

> <Gold.Protein.ActiveResidues>
 VAL166  LYS551  ARG553  GLY616  TRP617  ASP618  TYR619  PRO620  LYS621  CYS622 
 ASP623  PHE694  ASN695  SER759  ASP760  ASP761  ALA762  ILE779  LEU786  VAL792 
 PHE793  MET794  SER795  GLU796  ALA797  LYS798  CYS799  TRP800  GLU811  SER814 

> <Gold.Protein.RotatedAtoms>
  151.7955  135.0724  160.0392 H   0  0  0  0  0  0  0  0  0  0  0  0  # atno 6907 bound_to 6896
  152.3126  133.5764  159.5699 H   0  0  0  0  0  0  0  0  0  0  0  0  # atno 6908 bound_to 6896
  150.7328  134.0046  159.3691 H   0  0  0  0  0  0  0  0  0  0  0  0  # atno 6909 bound_to 6896
  145.7117  139.2617  143.1647 H   0  0  0  0  0  0  0  0  0  0  0  0  # atno 7974 bound_to 7965
  155.2407  140.0428  157.2974 H   0  0  0  0  0  0  0  0  0  0  0  0  # atno 8008 bound_to 7997
  154.5830  140.2406  155.7997 H   0  0  0  0  0  0  0  0  0  0  0  0  # atno 8009 bound_to 7997
  156.2206  140.2971  155.9952 H   0  0  0  0  0  0  0  0  0  0  0  0  # atno 8010 bound_to 7997
  139.6040  144.7065  151.2997 H   0  0  0  0  0  0  0  0  0  0  0  0  # atno 10167 bound_to 10162
  157.6830  131.0725  150.5248 H   0  0  0  0  0  0  0  0  0  0  0  0  # atno 10718 bound_to 10713
  152.9994  135.6244  154.2336 H   0  0  0  0  0  0  0  0  0  0  0  0  # atno 10763 bound_to 10752
  154.2078  135.2801  155.2970 H   0  0  0  0  0  0  0  0  0  0  0  0  # atno 10764 bound_to 10752
  154.5631  135.5699  153.7084 H   0  0  0  0  0  0  0  0  0  0  0  0  # atno 10765 bound_to 10752
  140.6282  134.4679  157.5228 H   0  0  0  0  0  0  0  0  0  0  0  0  # atno 11005 bound_to 11000
  146.0706  140.7873  142.9690 LP  0  0  0  0  0  0  0  0  0  0  0  0  # atno 17320 bound_to 7965
  144.6940  140.3336  143.7211 LP  0  0  0  0  0  0  0  0  0  0  0  0  # atno 17321 bound_to 7965
  140.7271  143.6973  150.7873 LP  0  0  0  0  0  0  0  0  0  0  0  0  # atno 17342 bound_to 10162
  140.0555  143.5207  152.2653 LP  0  0  0  0  0  0  0  0  0  0  0  0  # atno 17343 bound_to 10162
  156.5560  130.4243  149.6085 LP  0  0  0  0  0  0  0  0  0  0  0  0  # atno 17370 bound_to 10713
  156.2861  130.7098  151.1935 LP  0  0  0  0  0  0  0  0  0  0  0  0  # atno 17371 bound_to 10713
  139.9126  134.8312  156.1474 LP  0  0  0  0  0  0  0  0  0  0  0  0  # atno 17394 bound_to 11000
  141.0694  133.6804  156.2110 LP  0  0  0  0  0  0  0  0  0  0  0  0  # atno 17395 bound_to 11000

$$$$
