AV-unprocessed.smi:2320|AV-procd|sdf|9280|dock4
  -GOLD-   2272012503D 1   1.00000     0.00000
 Structure written by MMmdl.
 41 42  0  0  0  0  0  0  0  0  1 V2000
  153.5896  131.9634  164.6605 C   0  0  0  0  0  0  0  0  0  0  0  0
  154.0231  133.2477  163.9844 C   0  0  0  0  0  0  0  0  0  0  0  0
  153.8852  134.4854  164.6436 C   0  0  0  0  0  0  0  0  0  0  0  0
  154.2910  135.6735  164.0063 C   0  0  0  0  0  0  0  0  0  0  0  0
  154.8374  135.6463  162.7069 C   0  0  0  0  0  0  0  0  0  0  0  0
  155.2067  136.8561  162.1595 O   0  0  0  0  0  0  0  0  0  0  0  0
  155.3776  136.9348  160.7504 C   0  0  0  0  0  0  0  0  0  0  0  0
  154.6288  138.1713  160.2296 C   0  0  1  0  0  0  0  0  0  0  0  0
  153.2666  138.0037  160.5672 O   0  0  0  0  0  0  0  0  0  0  0  0
  155.1501  139.4798  160.8664 C   0  0  0  0  0  0  0  0  0  0  0  0
  154.2516  140.6180  160.6105 N   0  0  0  0  0  0  0  0  0  0  0  0
  153.7000  140.6983  159.3207 C   0  0  0  0  0  0  0  0  0  0  0  0
  152.9012  141.6567  158.9816 N   0  0  0  0  0  0  0  0  0  0  0  0
  152.5653  142.6452  159.9109 C   0  0  0  0  0  0  0  0  0  0  0  0
  151.6293  143.7288  159.4058 C   0  0  0  0  0  0  0  0  0  0  0  0
  153.0576  142.6199  161.1796 C   0  0  0  0  0  0  0  0  0  0  0  0
  152.7285  143.6712  162.2327 C   0  0  0  0  0  0  0  0  0  0  0  0
  153.9656  141.5330  161.5811 C   0  0  0  0  0  0  0  0  0  0  0  0
  154.4436  141.4473  162.7139 O   0  0  0  0  0  0  0  0  0  0  0  0
  154.9741  134.3977  162.0495 C   0  0  0  0  0  0  0  0  0  0  0  0
  154.5684  133.2086  162.6863 C   0  0  0  0  0  0  0  0  0  0  0  0
  153.2159  132.1500  165.6678 H   0  0  0  0  0  0  0  0  0  0  0  0
  154.4297  131.2719  164.7320 H   0  0  0  0  0  0  0  0  0  0  0  0
  152.7964  131.4837  164.0866 H   0  0  0  0  0  0  0  0  0  0  0  0
  153.4688  134.5299  165.6394 H   0  0  0  0  0  0  0  0  0  0  0  0
  154.1809  136.6170  164.5202 H   0  0  0  0  0  0  0  0  0  0  0  0
  156.4414  137.0243  160.5224 H   0  0  0  0  0  0  0  0  0  0  0  0
  155.0001  136.0342  160.2627 H   0  0  0  0  0  0  0  0  0  0  0  0
  154.7145  138.2032  159.1427 H   0  0  0  0  0  0  0  0  0  0  0  0
  152.7381  138.2808  159.8344 H   0  0  0  0  0  0  0  0  0  0  0  0
  155.3395  139.3405  161.9326 H   0  0  0  0  0  0  0  0  0  0  0  0
  156.1338  139.7173  160.4563 H   0  0  0  0  0  0  0  0  0  0  0  0
  153.9894  139.8987  158.6363 H   0  0  0  0  0  0  0  0  0  0  0  0
  152.1050  144.7072  159.4771 H   0  0  0  0  0  0  0  0  0  0  0  0
  150.7097  143.7433  159.9912 H   0  0  0  0  0  0  0  0  0  0  0  0
  151.3576  143.5650  158.3621 H   0  0  0  0  0  0  0  0  0  0  0  0
  152.2796  143.2006  163.1079 H   0  0  0  0  0  0  0  0  0  0  0  0
  152.0332  144.4307  161.8787 H   0  0  0  0  0  0  0  0  0  0  0  0
  153.6384  144.1807  162.5513 H   0  0  0  0  0  0  0  0  0  0  0  0
  155.3888  134.3240  161.0558 H   0  0  0  0  0  0  0  0  0  0  0  0
  154.6781  132.2635  162.1745 H   0  0  0  0  0  0  0  0  0  0  0  0
  1  2  1  0  0  0  0
  1 22  1  0  0  0  0
  1 23  1  0  0  0  0
  1 24  1  0  0  0  0
  2 21  1  0  0  0  0
  2  3  2  0  0  0  0
  3  4  1  0  0  0  0
  3 25  1  0  0  0  0
  4  5  2  0  0  0  0
  4 26  1  0  0  0  0
  5  6  1  0  0  0  0
  5 20  1  0  0  0  0
  6  7  1  0  0  0  0
  7  8  1  0  0  0  0
  7 27  1  0  0  0  0
  7 28  1  0  0  0  0
  8  9  1  0  0  0  0
  8 10  1  0  0  0  0
  8 29  1  0  0  0  0
  9 30  1  0  0  0  0
 10 11  1  0  0  0  0
 10 31  1  0  0  0  0
 10 32  1  0  0  0  0
 11 18  1  0  0  0  0
 11 12  1  0  0  0  0
 12 13  2  0  0  0  0
 12 33  1  0  0  0  0
 13 14  1  0  0  0  0
 14 15  1  0  0  0  0
 14 16  2  0  0  0  0
 15 34  1  0  0  0  0
 15 35  1  0  0  0  0
 15 36  1  0  0  0  0
 16 17  1  0  0  0  0
 16 18  1  0  0  0  0
 17 37  1  0  0  0  0
 17 38  1  0  0  0  0
 17 39  1  0  0  0  0
 18 19  2  0  0  0  0
 20 21  2  0  0  0  0
 20 40  1  0  0  0  0
 21 41  1  0  0  0  0
M  END
> <s_m_source_file>
AV-unprocessed.smi

> <i_m_source_file_index>
2320

> <i_lp_mmshare_version>
43012

> <i_f3d_flags>
0

> <s_epik_input>
W0NIM11jMVtjSF1bY0hdYyhbY0hdW2NIXTEpT1tDSDJdW0NASF0oW09IXSlbQ0gyXW4yW2NIXW5jKFtDSDNdKWMoW0NIM10pYzI9Tw==

> <s_epik_cmdline>
J2VwaWtfcHl0aG9uJywgJy1waCcsICc3LjAnLCAnLXRuJywgJzgnLCAnLW1hJywgJzIwMCcsICctbWV0YWxfYmluZGluZycsICctaW1hZScsICc8aW5maWxlLm1hZT4nLCAnLW9tYWUnLCAnPG91dGZpbGUubWFlPic=

> <r_lp_tautomer_probability>
1

> <r_epik_Ionization_Penalty>
3.74127e-05

> <r_epik_Ionization_Penalty_Charging>
8.43242e-08

> <r_epik_Ionization_Penalty_Neutral>
3.73284e-05

> <r_epik_State_Penalty>
-0

> <r_epik_Charging_Adjusted_Penalty>
8.43242e-08

> <i_epik_Tot_Q>
0

> <i_epik_Tot_abs_Q>
0

> <r_epik_Metal_State_Penalty>
-0

> <b_epik_Metal_Only>
0

> <s_lp_Force_Field>
OPLS_2005

> <r_lp_Energy>
22.1305

> <b_lp_Chiralities_Consistent>
1

> <s_lp_Variant>
AV-unprocessed.smi:2320-2

> <Gold.Version>
5.8.1

> <Gold.Id.Protein>
6NUR|6NUR_protein|mol2

> <Gold.PLP.Fitness>
39.8538

> <Gold.PLP.PLP>
-41.6104

> <Gold.PLP.part.hbond>
-1.0000

> <Gold.PLP.part.metal>
0.0000

> <Gold.PLP.part.buried>
-3.6380

> <Gold.PLP.part.nonpolar>
-36.4432

> <Gold.PLP.part.repulsive>
0.0000

> <Gold.PLP.ligand.clash>
0.0000

> <Gold.PLP.ligand.torsion>
0.9306

> <Gold.PLP.Chemscore.Hbond>
0.0000

> <Gold.PLP.Chemscore.CHOScore>
0.0000

> <Gold.PLP.Chemscore.Metal>
0.0000

> <Gold.PLP.Chemscore.Internal.Correction>
0.1047

> <Gold.Rescore>
     Score         DG    S(hbond)    S(metal)    S(lipo)     H(rot)  DE(clash)    DE(int)     intcor
     11.20     -12.41       0.00        0.00     110.60       2.35       0.43       0.78       ----

> <Gold.Chemscore.Fitness>
11.1961

> <Gold.Chemscore.DG>
-12.4066

> <Gold.Chemscore.ZeroCoef>
-5.4800

> <Gold.Chemscore.Hbond>
0.0000

> <Gold.Chemscore.Metal>
0.0000

> <Gold.Chemscore.Lipo>
110.5996

> <Gold.Chemscore.Internal_Hbond>
0.0000

> <Gold.Chemscore.DEClash>
0.4292

> <Gold.Chemscore.DEInternal>
0.7813

> <Gold.Chemscore.Rot>
2.3490

> <Gold.Chemscore.Internal.Correction>
   9.000000E+99

> <Gold.Chemscore.Hbond.Weighted>
-0.0000

> <Gold.Chemscore.Metal.Weighted>
-0.0000

> <Gold.Chemscore.Lipo.Weighted>
-12.9401

> <Gold.Chemscore.Internal_Hbond.Weighted>
0.0000

> <Gold.Chemscore.DEClash.Weighted>
0.4292

> <Gold.Chemscore.DEInternal.Weighted>
0.7813

> <Gold.Chemscore.Rot.Weighted>
6.0136

> <Gold.Chemscore.Internal.Correction.Weighted>
   9.000000E+99

> <Gold.Protein.RotatedTorsions>
[ 6907 6896 6895 6894 ] final   23.90 input  -60.11 | X-H torsion
[ 7974 7965 7964 7962 ] final  163.93 input  175.53 | X-H torsion
[ 8008 7997 7996 7995 ] final -140.92 input   59.86 | X-H torsion
[ 10167 10162 10161 10158 ] final  150.22 input  -65.29 | X-H torsion
[ 10718 10713 10712 10709 ] final -137.49 input   66.30 | X-H torsion
[ 10763 10752 10751 10750 ] final  -36.16 input  -60.55 | X-H torsion
[ 11005 11000 10999 10996 ] final  127.67 input  -57.11 | X-H torsion

> <Gold.Protein.ActiveResidues>
 VAL166  LYS551  ARG553  GLY616  TRP617  ASP618  TYR619  PRO620  LYS621  CYS622 
 ASP623  PHE694  ASN695  SER759  ASP760  ASP761  ALA762  ILE779  LEU786  VAL792 
 PHE793  MET794  SER795  GLU796  ALA797  LYS798  CYS799  TRP800  GLU811  SER814 

> <Gold.Protein.RotatedAtoms>
  151.9494  135.0176  160.0540 H   0  0  0  0  0  0  0  0  0  0  0  0  # atno 6907 bound_to 6896
  152.1966  133.4806  159.5045 H   0  0  0  0  0  0  0  0  0  0  0  0  # atno 6908 bound_to 6896
  150.6946  134.1561  159.4201 H   0  0  0  0  0  0  0  0  0  0  0  0  # atno 6909 bound_to 6896
  144.7567  139.8253  143.6347 H   0  0  0  0  0  0  0  0  0  0  0  0  # atno 7974 bound_to 7965
  155.4692  140.0551  157.2981 H   0  0  0  0  0  0  0  0  0  0  0  0  # atno 8008 bound_to 7997
  154.4705  140.2038  155.9961 H   0  0  0  0  0  0  0  0  0  0  0  0  # atno 8009 bound_to 7997
  156.1048  140.3213  155.7995 H   0  0  0  0  0  0  0  0  0  0  0  0  # atno 8010 bound_to 7997
  139.4852  144.5539  151.7351 H   0  0  0  0  0  0  0  0  0  0  0  0  # atno 10167 bound_to 10162
  156.2887  130.7362  151.1382 H   0  0  0  0  0  0  0  0  0  0  0  0  # atno 10718 bound_to 10713
  153.8751  135.6827  153.4771 H   0  0  0  0  0  0  0  0  0  0  0  0  # atno 10763 bound_to 10752
  153.1265  135.4716  154.9278 H   0  0  0  0  0  0  0  0  0  0  0  0  # atno 10764 bound_to 10752
  154.7695  135.3234  154.8169 H   0  0  0  0  0  0  0  0  0  0  0  0  # atno 10765 bound_to 10752
  139.9519  134.9620  156.8888 H   0  0  0  0  0  0  0  0  0  0  0  0  # atno 11005 bound_to 11000
  146.1586  139.4692  143.0003 LP  0  0  0  0  0  0  0  0  0  0  0  0  # atno 17320 bound_to 7965
  145.6754  141.0205  143.1635 LP  0  0  0  0  0  0  0  0  0  0  0  0  # atno 17321 bound_to 7965
  140.5098  144.1043  150.5992 LP  0  0  0  0  0  0  0  0  0  0  0  0  # atno 17342 bound_to 10162
  140.3964  143.2726  151.9999 LP  0  0  0  0  0  0  0  0  0  0  0  0  # atno 17343 bound_to 10162
  157.7336  131.0589  150.5568 LP  0  0  0  0  0  0  0  0  0  0  0  0  # atno 17370 bound_to 10713
  156.5682  130.4273  149.6031 LP  0  0  0  0  0  0  0  0  0  0  0  0  # atno 17371 bound_to 10713
  140.5698  134.0454  155.7426 LP  0  0  0  0  0  0  0  0  0  0  0  0  # atno 17394 bound_to 11000
  141.1184  133.9502  157.2778 LP  0  0  0  0  0  0  0  0  0  0  0  0  # atno 17395 bound_to 11000

$$$$
