AV-unprocessed.smi:2008|AV-procd|sdf|8143|dock6
  -GOLD-   2272010383D 1   1.00000     0.00000
 Structure written by MMmdl.
 46 47  0  0  0  0  0  0  0  0  2 V2000
  152.4828  140.2338  158.2792 C   0  0  0  0  0  0  0  0  0  0  0  0
  152.4901  140.2030  156.8559 O   0  0  0  0  0  0  0  0  0  0  0  0
  151.7129  139.2583  156.2175 C   0  0  0  0  0  0  0  0  0  0  0  0
  151.3789  138.0785  156.9103 C   0  0  0  0  0  0  0  0  0  0  0  0
  150.5873  137.1127  156.2611 C   0  0  0  0  0  0  0  0  0  0  0  0
  150.1511  137.3485  154.9411 C   0  0  0  0  0  0  0  0  0  0  0  0
  149.3561  136.3417  154.3243 N   0  0  0  0  0  0  0  0  0  0  0  0
  148.9031  135.1795  154.8269 C   0  0  0  0  0  0  0  0  0  0  0  0
  149.1327  134.7438  155.9541 O   0  0  0  0  0  0  0  0  0  0  0  0
  148.1519  134.5250  153.9297 N   0  0  0  0  0  0  0  0  0  0  0  0
  147.4936  133.2457  154.1691 C   0  0  0  0  0  0  0  0  0  0  0  0
  145.9953  133.4287  154.4836 C   0  0  0  0  0  0  0  0  0  0  0  0
  145.0997  132.9694  153.3870 N   0  3  2  0  0  0  0  0  0  0  0  0
  145.7076  131.8622  152.5998 C   0  0  0  0  0  0  0  0  0  0  0  0
  144.6961  131.2474  151.6196 C   0  0  0  0  0  0  0  0  0  0  0  0
  144.1091  132.3162  150.6916 C   0  0  0  0  0  0  0  0  0  0  0  0
  143.5047  133.4541  151.5256 C   0  0  0  0  0  0  0  0  0  0  0  0
  144.5189  134.0488  152.5267 C   0  0  2  0  0  0  0  0  0  0  0  0
  145.5818  134.9245  151.8292 C   0  0  0  0  0  0  0  0  0  0  0  0
  150.5416  138.5669  154.3309 C   0  0  0  0  0  0  0  0  0  0  0  0
  151.3002  139.4972  154.9487 N   0  0  0  0  0  0  0  0  0  0  0  0
  153.1394  141.0316  158.6260 H   0  0  0  0  0  0  0  0  0  0  0  0
  152.8496  139.2970  158.7011 H   0  0  0  0  0  0  0  0  0  0  0  0
  151.4839  140.4351  158.6688 H   0  0  0  0  0  0  0  0  0  0  0  0
  151.7245  137.9169  157.9207 H   0  0  0  0  0  0  0  0  0  0  0  0
  150.3209  136.2003  156.7747 H   0  0  0  0  0  0  0  0  0  0  0  0
  149.0837  136.5410  153.3730 H   0  0  0  0  0  0  0  0  0  0  0  0
  148.0114  134.9503  153.0246 H   0  0  0  0  0  0  0  0  0  0  0  0
  147.6294  132.5883  153.3084 H   0  0  0  0  0  0  0  0  0  0  0  0
  148.0111  132.7787  155.0062 H   0  0  0  0  0  0  0  0  0  0  0  0
  145.7350  132.9337  155.4195 H   0  0  0  0  0  0  0  0  0  0  0  0
  145.8066  134.4906  154.6463 H   0  0  0  0  0  0  0  0  0  0  0  0
  146.5863  132.2221  152.0636 H   0  0  0  0  0  0  0  0  0  0  0  0
  146.0574  131.0812  153.2760 H   0  0  0  0  0  0  0  0  0  0  0  0
  145.1758  130.4650  151.0304 H   0  0  0  0  0  0  0  0  0  0  0  0
  143.8925  130.7650  152.1776 H   0  0  0  0  0  0  0  0  0  0  0  0
  144.8854  132.7037  150.0311 H   0  0  0  0  0  0  0  0  0  0  0  0
  143.3463  131.8766  150.0480 H   0  0  0  0  0  0  0  0  0  0  0  0
  143.1173  134.2342  150.8690 H   0  0  0  0  0  0  0  0  0  0  0  0
  142.6441  133.0702  152.0753 H   0  0  0  0  0  0  0  0  0  0  0  0
  143.9385  134.7091  153.1698 H   0  0  0  0  0  0  0  0  0  0  0  0
  145.1057  135.6785  151.2015 H   0  0  0  0  0  0  0  0  0  0  0  0
  146.2446  134.3429  151.1892 H   0  0  0  0  0  0  0  0  0  0  0  0
  146.1992  135.4628  152.5477 H   0  0  0  0  0  0  0  0  0  0  0  0
  150.2578  138.8320  153.3260 H   0  0  0  0  0  0  0  0  0  0  0  0
  144.3084  132.5498  153.8543 H   0  0  0  0  0  0  0  0  0  0  0  0
  1  2  1  0  0  0  0
  1 22  1  0  0  0  0
  1 23  1  0  0  0  0
  1 24  1  0  0  0  0
  2  3  1  0  0  0  0
  3 21  1  0  0  0  0
  3  4  2  0  0  0  0
  4  5  1  0  0  0  0
  4 25  1  0  0  0  0
  5  6  2  0  0  0  0
  5 26  1  0  0  0  0
  6  7  1  0  0  0  0
  6 20  1  0  0  0  0
  7  8  1  0  0  0  0
  7 27  1  0  0  0  0
  8  9  2  0  0  0  0
  8 10  1  0  0  0  0
 10 11  1  0  0  0  0
 10 28  1  0  0  0  0
 11 12  1  0  0  0  0
 11 29  1  0  0  0  0
 11 30  1  0  0  0  0
 12 13  1  0  0  0  0
 12 31  1  0  0  0  0
 12 32  1  0  0  0  0
 13 18  1  0  0  0  0
 13 14  1  0  0  0  0
 13 46  1  0  0  0  0
 14 15  1  0  0  0  0
 14 33  1  0  0  0  0
 14 34  1  0  0  0  0
 15 16  1  0  0  0  0
 15 35  1  0  0  0  0
 15 36  1  0  0  0  0
 16 17  1  0  0  0  0
 16 37  1  0  0  0  0
 16 38  1  0  0  0  0
 17 18  1  0  0  0  0
 17 39  1  0  0  0  0
 17 40  1  0  0  0  0
 18 19  1  0  0  0  0
 18 41  1  0  0  0  0
 19 42  1  0  0  0  0
 19 43  1  0  0  0  0
 19 44  1  0  0  0  0
 20 21  2  0  0  0  0
 20 45  1  0  0  0  0
M  CHG  1  13   1
M  END
> <s_m_source_file>
AV-unprocessed.smi

> <i_m_source_file_index>
2008

> <i_lp_mmshare_version>
43012

> <i_f3d_flags>
0

> <s_epik_input>
W0NIM11PYzFbY0hdW2NIXWMoW2NIXW4xKVtOSF1DKD1PKVtOSF1bQ0gyXVtDSDJdTjJbQ0gyXVtDSDJdW0NIMl1bQ0gyXVtDQEhdMltDSDNd

> <s_epik_cmdline>
J2VwaWtfcHl0aG9uJywgJy1waCcsICc3LjAnLCAnLXRuJywgJzgnLCAnLW1hJywgJzIwMCcsICctbWV0YWxfYmluZGluZycsICctaW1hZScsICc8aW5maWxlLm1hZT4nLCAnLW9tYWUnLCAnPG91dGZpbGUubWFlPic=

> <r_lp_tautomer_probability>
1

> <r_epik_Ionization_Penalty>
0.00219526

> <r_epik_Ionization_Penalty_Charging>
0.00211816

> <r_epik_Ionization_Penalty_Neutral>
7.71003e-05

> <r_epik_State_Penalty>
0.00145254

> <r_epik_Charging_Adjusted_Penalty>
0.0035707

> <i_epik_Tot_Q>
1

> <i_epik_Tot_abs_Q>
1

> <r_epik_Metal_State_Penalty>
-0

> <b_epik_Metal_Only>
0

> <s_lp_Force_Field>
OPLS_2005

> <r_lp_Energy>
23.262

> <b_lp_Chiralities_Consistent>
1

> <s_lp_Variant>
AV-unprocessed.smi:2008-3

> <Gold.Version>
5.8.1

> <Gold.Id.Protein>
6NUR|6NUR_protein|mol2

> <Gold.PLP.Fitness>
45.5714

> <Gold.PLP.PLP>
-28.0738

> <Gold.PLP.part.hbond>
-4.7499

> <Gold.PLP.part.metal>
0.0000

> <Gold.PLP.part.buried>
-3.1155

> <Gold.PLP.part.nonpolar>
-20.8108

> <Gold.PLP.part.repulsive>
0.0933

> <Gold.PLP.ligand.clash>
0.0000

> <Gold.PLP.ligand.torsion>
1.3161

> <Gold.PLP.Chemscore.Hbond>
5.7345

> <Gold.PLP.Chemscore.CHOScore>
0.9565

> <Gold.PLP.Chemscore.Metal>
0.0000

> <Gold.Chemscore.Hbonds>
donor molecule, donor type, donor heavy atom, donor atom, acceptor molecule, acceptor atom, score
      L1  H     7    27       P1  7948  1.00
      L1  H    10    28       P1  7948  0.75
      L1  H    13    46       P1 10957  1.98
      P1  H  7989  7998       L1    21  1.00
      P1  H  7997  8008       L1     2  1.00
      L1  C    20    45       P1  7957  0.95

> <Gold.PLP.Chemscore.Internal.Correction>
0.0568

> <Gold.Rescore>
     Score         DG    S(hbond)    S(metal)    S(lipo)     H(rot)  DE(clash)    DE(int)     intcor
     17.85     -20.57       3.56        0.00      64.64       1.71       0.04       2.68       ----

> <Gold.Chemscore.Fitness>
17.8531

> <Gold.Chemscore.DG>
-20.5673

> <Gold.Chemscore.ZeroCoef>
-5.4800

> <Gold.Chemscore.Hbond>
3.5640

> <Gold.Chemscore.Metal>
0.0000

> <Gold.Chemscore.Lipo>
64.6413

> <Gold.Chemscore.Internal_Hbond>
0.0000

> <Gold.Chemscore.DEClash>
0.0358

> <Gold.Chemscore.DEInternal>
2.6784

> <Gold.Chemscore.Rot>
1.7107

> <Gold.Chemscore.Internal.Correction>
   9.000000E+99

> <Gold.Chemscore.Hbonds>
donor molecule, donor type, donor heavy atom, donor atom, acceptor molecule, acceptor atom, score
      L1  H     7    27       P1  7948  0.91
      L1  H    10    28       P1  7948  0.72
      L1  H    13    46       P1 10957  0.51
      P1  H  7989  7998       L1    21  0.37
      P1  H  7997  8008       L1     2  0.30

> <Gold.Chemscore.Hbond.Weighted>
-11.9037

> <Gold.Chemscore.Metal.Weighted>
-0.0000

> <Gold.Chemscore.Lipo.Weighted>
-7.5630

> <Gold.Chemscore.Internal_Hbond.Weighted>
0.0000

> <Gold.Chemscore.DEClash.Weighted>
0.0358

> <Gold.Chemscore.DEInternal.Weighted>
2.6784

> <Gold.Chemscore.Rot.Weighted>
4.3794

> <Gold.Chemscore.Internal.Correction.Weighted>
   9.000000E+99

> <Gold.Protein.RotatedTorsions>
[ 6907 6896 6895 6894 ] final -138.80 input  -60.11 | X-H torsion
[ 7974 7965 7964 7962 ] final -151.15 input  175.53 | X-H torsion
[ 8008 7997 7996 7995 ] final  -49.58 input   59.86 | X-H torsion
[ 10167 10162 10161 10158 ] final  169.48 input  -65.29 | X-H torsion
[ 10718 10713 10712 10709 ] final   42.93 input   66.30 | X-H torsion
[ 10763 10752 10751 10750 ] final  149.50 input  -60.55 | X-H torsion
[ 11005 11000 10999 10996 ] final  -60.16 input  -57.11 | X-H torsion

> <Gold.Protein.ActiveResidues>
 VAL166  LYS551  ARG553  GLY616  TRP617  ASP618  TYR619  PRO620  LYS621  CYS622 
 ASP623  PHE694  ASN695  SER759  ASP760  ASP761  ALA762  ILE779  LEU786  VAL792 
 PHE793  MET794  SER795  GLU796  ALA797  LYS798  CYS799  TRP800  GLU811  SER814 

> <Gold.Protein.RotatedAtoms>
  151.0396  133.5718  159.2652 H   0  0  0  0  0  0  0  0  0  0  0  0  # atno 6907 bound_to 6896
  151.2769  135.0701  159.9165 H   0  0  0  0  0  0  0  0  0  0  0  0  # atno 6908 bound_to 6896
  152.5361  134.0117  159.7995 H   0  0  0  0  0  0  0  0  0  0  0  0  # atno 6909 bound_to 6896
  144.7866  140.4836  143.5802 H   0  0  0  0  0  0  0  0  0  0  0  0  # atno 7974 bound_to 7965
  154.4046  140.1293  156.4527 H   0  0  0  0  0  0  0  0  0  0  0  0  # atno 8008 bound_to 7997
  155.7351  140.3491  155.5057 H   0  0  0  0  0  0  0  0  0  0  0  0  # atno 8009 bound_to 7997
  155.9091  140.1033  157.1283 H   0  0  0  0  0  0  0  0  0  0  0  0  # atno 8010 bound_to 7997
  139.4993  144.3701  151.9734 H   0  0  0  0  0  0  0  0  0  0  0  0  # atno 10167 bound_to 10162
  157.4103  130.7910  149.7424 H   0  0  0  0  0  0  0  0  0  0  0  0  # atno 10718 bound_to 10713
  154.0722  135.2866  155.3306 H   0  0  0  0  0  0  0  0  0  0  0  0  # atno 10763 bound_to 10752
  154.6739  135.5289  153.8177 H   0  0  0  0  0  0  0  0  0  0  0  0  # atno 10764 bound_to 10752
  153.0481  135.6564  154.0902 H   0  0  0  0  0  0  0  0  0  0  0  0  # atno 10765 bound_to 10752
  141.1276  133.6620  156.5180 H   0  0  0  0  0  0  0  0  0  0  0  0  # atno 11005 bound_to 11000
  145.5905  139.1495  143.3185 LP  0  0  0  0  0  0  0  0  0  0  0  0  # atno 17320 bound_to 7965
  146.2101  140.6031  142.9063 LP  0  0  0  0  0  0  0  0  0  0  0  0  # atno 17321 bound_to 7965
  140.3137  144.3508  150.6027 LP  0  0  0  0  0  0  0  0  0  0  0  0  # atno 17342 bound_to 10162
  140.5778  143.2175  151.7483 LP  0  0  0  0  0  0  0  0  0  0  0  0  # atno 17343 bound_to 10162
  155.9848  130.3988  150.3290 LP  0  0  0  0  0  0  0  0  0  0  0  0  # atno 17370 bound_to 10713
  157.1428  131.0301  151.2920 LP  0  0  0  0  0  0  0  0  0  0  0  0  # atno 17371 bound_to 10713
  140.4315  134.7097  157.4944 LP  0  0  0  0  0  0  0  0  0  0  0  0  # atno 17394 bound_to 11000
  140.0291  134.6433  155.9132 LP  0  0  0  0  0  0  0  0  0  0  0  0  # atno 17395 bound_to 11000

$$$$
