AV-unprocessed.smi:670|AV-procd|sdf|3269|dock6
  -GOLD-   22720 0223D 1   1.00000     0.00000
 Structure written by MMmdl.
 45 46  0  0  0  0  0  0  0  0  1 V2000
  153.3229  141.4970  160.9256 C   0  0  0  0  0  0  0  0  0  0  0  0
  152.9100  142.2520  159.6516 C   0  0  2  0  0  0  0  0  0  0  0  0
  152.7800  143.7625  159.9331 C   0  0  0  0  0  0  0  0  0  0  0  0
  152.3676  144.5427  158.6759 C   0  0  0  0  0  0  0  0  0  0  0  0
  151.0618  143.9892  158.0898 C   0  0  0  0  0  0  0  0  0  0  0  0
  151.1830  142.4868  157.7952 C   0  0  0  0  0  0  0  0  0  0  0  0
  151.5997  141.6922  159.0519 C   0  0  1  0  0  0  0  0  0  0  0  0
  151.8324  140.3329  158.7060 O   0  0  0  0  0  0  0  0  0  0  0  0
  150.8229  139.4266  159.1260 C   0  0  0  0  0  0  0  0  0  0  0  0
  149.7556  139.3154  158.0284 C   0  0  0  0  0  0  0  0  0  0  0  0
  148.6274  138.4980  158.4620 N   0  0  0  0  0  0  0  0  0  0  0  0
  148.7069  137.2200  158.8627 C   0  0  0  0  0  0  0  0  0  0  0  0
  149.7656  136.5920  158.9120 O   0  0  0  0  0  0  0  0  0  0  0  0
  147.3781  136.5499  159.2413 C   0  0  0  0  0  0  0  0  0  0  0  0
  147.3200  136.1277  160.6483 N   0  0  0  0  0  0  0  0  0  0  0  0
  147.3420  137.1756  161.5565 N   0  0  0  0  0  0  0  0  0  0  0  0
  147.2782  136.9334  162.8221 C   0  0  0  0  0  0  0  0  0  0  0  0
  147.2991  138.0000  163.6873 O   0  0  0  0  0  0  0  0  0  0  0  0
  147.1881  135.5787  163.3216 C   0  0  0  0  0  0  0  0  0  0  0  0
  147.1742  134.5643  162.4293 C   0  0  0  0  0  0  0  0  0  0  0  0
  147.2443  134.8037  160.9866 C   0  0  0  0  0  0  0  0  0  0  0  0
  147.2355  133.8989  160.1521 O   0  0  0  0  0  0  0  0  0  0  0  0
  146.4880  137.9493  164.1689 H   0  0  0  0  0  0  0  0  0  0  0  0
  152.5582  141.5759  161.6986 H   0  0  0  0  0  0  0  0  0  0  0  0
  154.2521  141.8955  161.3340 H   0  0  0  0  0  0  0  0  0  0  0  0
  153.4850  140.4376  160.7247 H   0  0  0  0  0  0  0  0  0  0  0  0
  153.7040  142.1165  158.9153 H   0  0  0  0  0  0  0  0  0  0  0  0
  152.0432  143.9287  160.7202 H   0  0  0  0  0  0  0  0  0  0  0  0
  153.7257  144.1546  160.3090 H   0  0  0  0  0  0  0  0  0  0  0  0
  152.2496  145.5997  158.9157 H   0  0  0  0  0  0  0  0  0  0  0  0
  153.1603  144.4810  157.9293 H   0  0  0  0  0  0  0  0  0  0  0  0
  150.2436  144.1602  158.7905 H   0  0  0  0  0  0  0  0  0  0  0  0
  150.8061  144.5278  157.1771 H   0  0  0  0  0  0  0  0  0  0  0  0
  150.2321  142.1239  157.4065 H   0  0  0  0  0  0  0  0  0  0  0  0
  151.9182  142.3303  157.0048 H   0  0  0  0  0  0  0  0  0  0  0  0
  150.8147  141.7587  159.8078 H   0  0  0  0  0  0  0  0  0  0  0  0
  151.2667  138.4457  159.3012 H   0  0  0  0  0  0  0  0  0  0  0  0
  150.3637  139.7477  160.0610 H   0  0  0  0  0  0  0  0  0  0  0  0
  149.4263  140.3060  157.7099 H   0  0  0  0  0  0  0  0  0  0  0  0
  150.1891  138.8385  157.1493 H   0  0  0  0  0  0  0  0  0  0  0  0
  147.7169  138.9340  158.4476 H   0  0  0  0  0  0  0  0  0  0  0  0
  146.5498  137.2259  159.0206 H   0  0  0  0  0  0  0  0  0  0  0  0
  147.2364  135.6901  158.5839 H   0  0  0  0  0  0  0  0  0  0  0  0
  147.1347  135.3916  164.3840 H   0  0  0  0  0  0  0  0  0  0  0  0
  147.1081  133.5477  162.7880 H   0  0  0  0  0  0  0  0  0  0  0  0
  1  2  1  0  0  0  0
  1 24  1  0  0  0  0
  1 25  1  0  0  0  0
  1 26  1  0  0  0  0
  2  7  1  0  0  0  0
  2  3  1  0  0  0  0
  2 27  1  0  0  0  0
  3  4  1  0  0  0  0
  3 28  1  0  0  0  0
  3 29  1  0  0  0  0
  4  5  1  0  0  0  0
  4 30  1  0  0  0  0
  4 31  1  0  0  0  0
  5  6  1  0  0  0  0
  5 32  1  0  0  0  0
  5 33  1  0  0  0  0
  6  7  1  0  0  0  0
  6 34  1  0  0  0  0
  6 35  1  0  0  0  0
  7  8  1  0  0  0  0
  7 36  1  0  0  0  0
  8  9  1  0  0  0  0
  9 10  1  0  0  0  0
  9 37  1  0  0  0  0
  9 38  1  0  0  0  0
 10 11  1  0  0  0  0
 10 39  1  0  0  0  0
 10 40  1  0  0  0  0
 11 12  1  0  0  0  0
 11 41  1  0  0  0  0
 12 13  2  0  0  0  0
 12 14  1  0  0  0  0
 14 42  1  0  0  0  0
 14 43  1  0  0  0  0
 14 15  1  0  0  0  0
 15 16  1  0  0  0  0
 15 21  1  0  0  0  0
 16 17  2  0  0  0  0
 17 18  1  0  0  0  0
 17 19  1  0  0  0  0
 18 23  1  0  0  0  0
 19 44  1  0  0  0  0
 19 20  2  0  0  0  0
 20 45  1  0  0  0  0
 20 21  1  0  0  0  0
 21 22  2  0  0  0  0
M  END
> <s_m_source_file>
AV-unprocessed.smi

> <i_m_source_file_index>
670

> <i_lp_mmshare_version>
43012

> <i_f3d_flags>
0

> <s_epik_input>
W0NIM11bQ0BASF0xW0NIMl1bQ0gyXVtDSDJdW0NIMl1bQ0BIXTFPW0NIMl1bQ0gyXVtOSF1DKD1PKVtDSDJdbjJbbkhdYyg9TylbY0hdW2NIXWMyPU8=

> <s_epik_cmdline>
J2VwaWtfcHl0aG9uJywgJy1waCcsICc3LjAnLCAnLXRuJywgJzgnLCAnLW1hJywgJzIwMCcsICctbWV0YWxfYmluZGluZycsICctaW1hZScsICc8aW5maWxlLm1hZT4nLCAnLW9tYWUnLCAnPG91dGZpbGUubWFlPic=

> <r_lp_tautomer_probability>
0.9996

> <r_epik_Ionization_Penalty>
2.12726

> <r_epik_Ionization_Penalty_Charging>
3.83395e-08

> <r_epik_Ionization_Penalty_Neutral>
2.12726

> <r_epik_State_Penalty>
1.70432

> <r_epik_Charging_Adjusted_Penalty>
1.70432

> <i_epik_Tot_Q>
0

> <i_epik_Tot_abs_Q>
0

> <r_epik_Metal_State_Penalty>
1.70432

> <b_epik_Metal_Only>
0

> <s_lp_Force_Field>
OPLS_2005

> <r_lp_Energy>
21.1157

> <b_lp_Chiralities_Consistent>
1

> <s_lp_Variant>
AV-unprocessed.smi:670-5

> <Gold.Version>
5.8.1

> <Gold.Id.Protein>
6NUR|6NUR_protein|mol2

> <Gold.PLP.Fitness>
52.6358

> <Gold.PLP.PLP>
-48.5053

> <Gold.PLP.part.hbond>
-5.0000

> <Gold.PLP.part.metal>
0.0000

> <Gold.PLP.part.buried>
-3.6176

> <Gold.PLP.part.nonpolar>
-40.2805

> <Gold.PLP.part.repulsive>
0.1385

> <Gold.PLP.ligand.clash>
0.0000

> <Gold.PLP.ligand.torsion>
0.8878

> <Gold.PLP.Chemscore.Hbond>
1.9616

> <Gold.PLP.Chemscore.CHOScore>
0.0000

> <Gold.PLP.Chemscore.Metal>
0.0000

> <Gold.Chemscore.Hbonds>
donor molecule, donor type, donor heavy atom, donor atom, acceptor molecule, acceptor atom, score
      P1  H  6896  6909       L1    13  0.59
      P1  H  6931  6943       L1    16  0.36
      P1  H  6934  6947       L1    16  0.90

> <Gold.PLP.Chemscore.Internal.Correction>
0.0212

> <Gold.Rescore>
     Score         DG    S(hbond)    S(metal)    S(lipo)     H(rot)  DE(clash)    DE(int)     intcor
     13.80     -14.78       1.48        0.00     104.89       3.09       0.03       0.95       ----

> <Gold.Chemscore.Fitness>
13.7987

> <Gold.Chemscore.DG>
-14.7765

> <Gold.Chemscore.ZeroCoef>
-5.4800

> <Gold.Chemscore.Hbond>
1.4774

> <Gold.Chemscore.Metal>
0.0000

> <Gold.Chemscore.Lipo>
104.8939

> <Gold.Chemscore.Internal_Hbond>
0.0000

> <Gold.Chemscore.DEClash>
0.0294

> <Gold.Chemscore.DEInternal>
0.9483

> <Gold.Chemscore.Rot>
3.0901

> <Gold.Chemscore.Internal.Correction>
   9.000000E+99

> <Gold.Chemscore.Hbonds>
donor molecule, donor type, donor heavy atom, donor atom, acceptor molecule, acceptor atom, score
      P1  H  6896  6909       L1    13  0.58
      P1  H  6931  6943       L1    16  0.01
      P1  H  6934  6947       L1    16  0.82

> <Gold.Chemscore.Hbond.Weighted>
-4.9345

> <Gold.Chemscore.Metal.Weighted>
-0.0000

> <Gold.Chemscore.Lipo.Weighted>
-12.2726

> <Gold.Chemscore.Internal_Hbond.Weighted>
0.0000

> <Gold.Chemscore.DEClash.Weighted>
0.0294

> <Gold.Chemscore.DEInternal.Weighted>
0.9483

> <Gold.Chemscore.Rot.Weighted>
7.9106

> <Gold.Chemscore.Internal.Correction.Weighted>
   9.000000E+99

> <Gold.Protein.RotatedTorsions>
[ 6907 6896 6895 6894 ] final   63.83 input  -60.11 | X-H torsion
[ 7974 7965 7964 7962 ] final    8.64 input  175.53 | X-H torsion
[ 8008 7997 7996 7995 ] final  165.85 input   59.86 | X-H torsion
[ 10167 10162 10161 10158 ] final  151.12 input  -65.29 | X-H torsion
[ 10718 10713 10712 10709 ] final -126.44 input   66.30 | X-H torsion
[ 10763 10752 10751 10750 ] final  173.83 input  -60.55 | X-H torsion
[ 11005 11000 10999 10996 ] final  -60.10 input  -57.11 | X-H torsion

> <Gold.Protein.ActiveResidues>
 VAL166  LYS551  ARG553  GLY616  TRP617  ASP618  TYR619  PRO620  LYS621  CYS622 
 ASP623  PHE694  ASN695  SER759  ASP760  ASP761  ALA762  ILE779  LEU786  VAL792 
 PHE793  MET794  SER795  GLU796  ALA797  LYS798  CYS799  TRP800  GLU811  SER814 

> <Gold.Protein.RotatedAtoms>
  152.4284  134.5824  159.9951 H   0  0  0  0  0  0  0  0  0  0  0  0  # atno 6907 bound_to 6896
  151.5954  133.3356  159.3044 H   0  0  0  0  0  0  0  0  0  0  0  0  # atno 6908 bound_to 6896
  150.8175  134.7401  159.6808 H   0  0  0  0  0  0  0  0  0  0  0  0  # atno 6909 bound_to 6896
  146.2414  139.9903  142.8426 H   0  0  0  0  0  0  0  0  0  0  0  0  # atno 7974 bound_to 7965
  156.1767  140.1659  156.8350 H   0  0  0  0  0  0  0  0  0  0  0  0  # atno 8008 bound_to 7997
  154.5314  140.0756  156.8385 H   0  0  0  0  0  0  0  0  0  0  0  0  # atno 8009 bound_to 7997
  155.3399  140.3384  155.4241 H   0  0  0  0  0  0  0  0  0  0  0  0  # atno 8010 bound_to 7997
  139.4843  144.5467  151.7472 H   0  0  0  0  0  0  0  0  0  0  0  0  # atno 10167 bound_to 10162
  156.1765  130.6703  151.0249 H   0  0  0  0  0  0  0  0  0  0  0  0  # atno 10718 bound_to 10713
  154.4455  135.2763  155.1817 H   0  0  0  0  0  0  0  0  0  0  0  0  # atno 10763 bound_to 10752
  154.3666  135.6118  153.5722 H   0  0  0  0  0  0  0  0  0  0  0  0  # atno 10764 bound_to 10752
  152.9843  135.5847  154.4790 H   0  0  0  0  0  0  0  0  0  0  0  0  # atno 10765 bound_to 10752
  141.1274  133.6620  156.5172 H   0  0  0  0  0  0  0  0  0  0  0  0  # atno 11005 bound_to 11000
  145.1509  140.9622  143.4433 LP  0  0  0  0  0  0  0  0  0  0  0  0  # atno 17320 bound_to 7965
  145.0206  139.3427  143.6074 LP  0  0  0  0  0  0  0  0  0  0  0  0  # atno 17321 bound_to 7965
  140.5015  144.1162  150.5972 LP  0  0  0  0  0  0  0  0  0  0  0  0  # atno 17342 bound_to 10162
  140.4057  143.2681  151.9894 LP  0  0  0  0  0  0  0  0  0  0  0  0  # atno 17343 bound_to 10162
  157.6839  131.0830  150.7295 LP  0  0  0  0  0  0  0  0  0  0  0  0  # atno 17370 bound_to 10713
  156.7353  130.4722  149.5490 LP  0  0  0  0  0  0  0  0  0  0  0  0  # atno 17371 bound_to 10713
  140.4321  134.7092  157.4947 LP  0  0  0  0  0  0  0  0  0  0  0  0  # atno 17394 bound_to 11000
  140.0286  134.6439  155.9137 LP  0  0  0  0  0  0  0  0  0  0  0  0  # atno 17395 bound_to 11000

$$$$
