AV-unprocessed.smi:199|AV-procd|sdf|1566|dock7
  -GOLD-   2262019443D 1   1.00000     0.00000
 Structure written by MMmdl.
 51 55  0  0  0  0  0  0  0  0  1 V2000
  146.1485  129.4073  152.8811 C   0  0  0  0  0  0  0  0  0  0  0  0
  145.8885  130.9204  152.7982 C   0  0  2  0  0  0  0  0  0  0  0  0
  145.4093  131.2799  151.5026 O   0  0  0  0  0  0  0  0  0  0  0  0
  146.2618  132.2548  150.9192 C   0  0  0  0  0  0  0  0  0  0  0  0
  146.8764  132.9776  152.1100 C   0  0  0  0  0  0  0  0  0  0  0  0
  147.0873  131.8477  153.1088 C   0  0  2  0  0  0  0  0  0  0  0  0
  148.3165  131.2080  152.8029 O   0  0  0  0  0  0  0  0  0  0  0  0
  147.1298  132.3110  154.5844 C   0  0  0  0  0  0  0  0  0  0  0  0
  148.0824  133.3842  154.8239 N   0  0  0  0  0  0  0  0  0  0  0  0
  149.4445  133.3316  154.6413 C   0  0  0  0  0  0  0  0  0  0  0  0
  150.0856  134.4273  154.9390 N   0  0  0  0  0  0  0  0  0  0  0  0
  149.0937  135.3141  155.3449 C   0  0  0  0  0  0  0  0  0  0  0  0
  149.0781  136.6679  155.7980 C   0  0  0  0  0  0  0  0  0  0  0  0
  150.1765  137.4594  155.9510 N   0  0  0  0  0  0  0  0  0  0  0  0
  151.1676  137.6260  154.8981 C   0  0  2  0  0  0  0  0  0  0  0  0
  152.2698  138.4307  155.6089 C   0  0  0  0  0  0  0  0  0  0  0  0
  151.4397  139.3107  156.5540 C   0  0  0  0  0  0  0  0  0  0  0  0
  150.0071  138.8888  156.1787 C   0  0  1  0  0  0  0  0  0  0  0  0
  149.5981  139.4194  154.7781 C   0  0  1  0  0  0  0  0  0  0  0  0
  149.7297  140.9334  154.5275 C   0  0  0  0  0  0  0  0  0  0  0  0
  149.4198  141.2369  153.1844 O   0  0  0  0  0  0  0  0  0  0  0  0
  150.4729  138.5387  153.8665 C   0  0  0  0  0  0  0  0  0  0  0  0
  147.8697  137.1970  156.1255 N   0  0  0  0  0  0  0  0  0  0  0  0
  146.7535  136.4735  156.0076 C   0  0  0  0  0  0  0  0  0  0  0  0
  146.6181  135.2133  155.5948 N   0  0  0  0  0  0  0  0  0  0  0  0
  147.8250  134.6671  155.2741 C   0  0  0  0  0  0  0  0  0  0  0  0
  146.5240  129.1277  153.8658 H   0  0  0  0  0  0  0  0  0  0  0  0
  146.8756  129.0819  152.1364 H   0  0  0  0  0  0  0  0  0  0  0  0
  145.2295  128.8481  152.7056 H   0  0  0  0  0  0  0  0  0  0  0  0
  145.0732  131.1591  153.4822 H   0  0  0  0  0  0  0  0  0  0  0  0
  147.0323  131.7511  150.3340 H   0  0  0  0  0  0  0  0  0  0  0  0
  145.7123  132.9241  150.2569 H   0  0  0  0  0  0  0  0  0  0  0  0
  147.7889  133.5196  151.8573 H   0  0  0  0  0  0  0  0  0  0  0  0
  146.1559  133.6975  152.5014 H   0  0  0  0  0  0  0  0  0  0  0  0
  148.3225  130.9929  151.8826 H   0  0  0  0  0  0  0  0  0  0  0  0
  146.1459  132.6629  154.8978 H   0  0  0  0  0  0  0  0  0  0  0  0
  147.3759  131.4727  155.2378 H   0  0  0  0  0  0  0  0  0  0  0  0
  149.9525  132.4468  154.2860 H   0  0  0  0  0  0  0  0  0  0  0  0
  151.5630  136.7057  154.4720 H   0  0  0  0  0  0  0  0  0  0  0  0
  152.9294  137.7743  156.1780 H   0  0  0  0  0  0  0  0  0  0  0  0
  152.8823  139.0098  154.9170 H   0  0  0  0  0  0  0  0  0  0  0  0
  151.6495  139.0483  157.5919 H   0  0  0  0  0  0  0  0  0  0  0  0
  151.6352  140.3760  156.4428 H   0  0  0  0  0  0  0  0  0  0  0  0
  149.2882  139.1437  156.9581 H   0  0  0  0  0  0  0  0  0  0  0  0
  148.5545  139.1495  154.6054 H   0  0  0  0  0  0  0  0  0  0  0  0
  149.0943  141.5172  155.1925 H   0  0  0  0  0  0  0  0  0  0  0  0
  150.7545  141.2511  154.7220 H   0  0  0  0  0  0  0  0  0  0  0  0
  149.4575  140.4386  152.6798 H   0  0  0  0  0  0  0  0  0  0  0  0
  151.1872  139.1070  153.2695 H   0  0  0  0  0  0  0  0  0  0  0  0
  149.8513  137.9604  153.1817 H   0  0  0  0  0  0  0  0  0  0  0  0
  145.8390  136.9761  156.2862 H   0  0  0  0  0  0  0  0  0  0  0  0
  1  2  1  0  0  0  0
  1 27  1  0  0  0  0
  1 28  1  0  0  0  0
  1 29  1  0  0  0  0
  2  6  1  0  0  0  0
  2  3  1  0  0  0  0
  2 30  1  0  0  0  0
  3  4  1  0  0  0  0
  4  5  1  0  0  0  0
  4 31  1  0  0  0  0
  4 32  1  0  0  0  0
  5  6  1  0  0  0  0
  5 33  1  0  0  0  0
  5 34  1  0  0  0  0
  6  7  1  0  0  0  0
  6  8  1  0  0  0  0
  7 35  1  0  0  0  0
  8  9  1  0  0  0  0
  8 36  1  0  0  0  0
  8 37  1  0  0  0  0
  9 26  1  0  0  0  0
  9 10  1  0  0  0  0
 10 11  2  0  0  0  0
 10 38  1  0  0  0  0
 11 12  1  0  0  0  0
 12 26  2  0  0  0  0
 12 13  1  0  0  0  0
 13 14  1  0  0  0  0
 13 23  2  0  0  0  0
 14 18  1  0  0  0  0
 14 15  1  0  0  0  0
 15 22  1  0  0  0  0
 15 16  1  0  0  0  0
 15 39  1  0  0  0  0
 16 17  1  0  0  0  0
 16 40  1  0  0  0  0
 16 41  1  0  0  0  0
 17 18  1  0  0  0  0
 17 42  1  0  0  0  0
 17 43  1  0  0  0  0
 18 19  1  0  0  0  0
 18 44  1  0  0  0  0
 19 20  1  0  0  0  0
 19 22  1  0  0  0  0
 19 45  1  0  0  0  0
 20 21  1  0  0  0  0
 20 46  1  0  0  0  0
 20 47  1  0  0  0  0
 21 48  1  0  0  0  0
 22 49  1  0  0  0  0
 22 50  1  0  0  0  0
 23 24  1  0  0  0  0
 24 25  2  0  0  0  0
 24 51  1  0  0  0  0
 25 26  1  0  0  0  0
M  END
> <s_m_source_file>
AV-unprocessed.smi

> <i_m_source_file_index>
199

> <i_lp_mmshare_version>
43012

> <i_f3d_flags>
0

> <s_epik_input>
W0NIMl0xW0NIMl1PW0NAQEhdKFtDSDNdKVtDQEBdMShbT0hdKVtDSDJdbihbY0hdbjIpYyhjMjMpbltjSF1uYzNOKFtDQEBIXTQ1KVtDQEhdKFtDSDJdW0NIMl00KVtDQEhdKFtDSDJdNSlbQ0gyXVtPSF0=

> <s_epik_cmdline>
J2VwaWtfcHl0aG9uJywgJy1waCcsICc3LjAnLCAnLXRuJywgJzgnLCAnLW1hJywgJzIwMCcsICctbWV0YWxfYmluZGluZycsICctaW1hZScsICc8aW5maWxlLm1hZT4nLCAnLW9tYWUnLCAnPG91dGZpbGUubWFlPic=

> <r_lp_tautomer_probability>
1

> <r_epik_Ionization_Penalty>
0.00583903

> <r_epik_Ionization_Penalty_Charging>
0

> <r_epik_Ionization_Penalty_Neutral>
0.00583903

> <r_epik_State_Penalty>
-0

> <r_epik_Charging_Adjusted_Penalty>
0

> <i_epik_Tot_Q>
0

> <i_epik_Tot_abs_Q>
0

> <r_epik_Metal_State_Penalty>
-0

> <b_epik_Metal_Only>
0

> <s_lp_Force_Field>
OPLS_2005

> <r_lp_Energy>
84.6661

> <b_lp_Chiralities_Consistent>
1

> <s_lp_Variant>
AV-unprocessed.smi:199-7

> <Gold.Version>
5.8.1

> <Gold.Id.Protein>
6NUR|6NUR_protein|mol2

> <Gold.PLP.Fitness>
42.8889

> <Gold.PLP.PLP>
-34.9502

> <Gold.PLP.part.hbond>
-3.4440

> <Gold.PLP.part.metal>
0.0000

> <Gold.PLP.part.buried>
-0.5159

> <Gold.PLP.part.nonpolar>
-29.2068

> <Gold.PLP.part.repulsive>
0.3802

> <Gold.PLP.ligand.clash>
0.0000

> <Gold.PLP.ligand.torsion>
0.3029

> <Gold.PLP.Chemscore.Hbond>
2.8400

> <Gold.PLP.Chemscore.CHOScore>
0.0000

> <Gold.PLP.Chemscore.Metal>
0.0000

> <Gold.Chemscore.Hbonds>
donor molecule, donor type, donor heavy atom, donor atom, acceptor molecule, acceptor atom, score
      L1  H     7    35       P1 10747  1.00
      L1  H    21    48       P1  7957  0.72
      P1  H  8011  8017       L1    21  0.93

> <Gold.PLP.Chemscore.Internal.Correction>
0.0245

> <Gold.Rescore>
     Score         DG    S(hbond)    S(metal)    S(lipo)     H(rot)  DE(clash)    DE(int)     intcor
     13.80     -15.69       2.35        0.00      87.36       3.07       0.68       1.21       ----

> <Gold.Chemscore.Fitness>
13.8009

> <Gold.Chemscore.DG>
-15.6919

> <Gold.Chemscore.ZeroCoef>
-5.4800

> <Gold.Chemscore.Hbond>
2.3527

> <Gold.Chemscore.Metal>
0.0000

> <Gold.Chemscore.Lipo>
87.3557

> <Gold.Chemscore.Internal_Hbond>
0.0000

> <Gold.Chemscore.DEClash>
0.6764

> <Gold.Chemscore.DEInternal>
1.2146

> <Gold.Chemscore.Rot>
3.0729

> <Gold.Chemscore.Internal.Correction>
   9.000000E+99

> <Gold.Chemscore.Hbonds>
donor molecule, donor type, donor heavy atom, donor atom, acceptor molecule, acceptor atom, score
      L1  H     7    35       P1 10747  0.98
      L1  H    21    48       P1  7957  0.70
      P1  H  8011  8017       L1    21  0.65

> <Gold.Chemscore.Hbond.Weighted>
-7.8580

> <Gold.Chemscore.Metal.Weighted>
-0.0000

> <Gold.Chemscore.Lipo.Weighted>
-10.2206

> <Gold.Chemscore.Internal_Hbond.Weighted>
0.0000

> <Gold.Chemscore.DEClash.Weighted>
0.6764

> <Gold.Chemscore.DEInternal.Weighted>
1.2146

> <Gold.Chemscore.Rot.Weighted>
7.8667

> <Gold.Chemscore.Internal.Correction.Weighted>
   9.000000E+99

> <Gold.Protein.RotatedTorsions>
[ 6907 6896 6895 6894 ] final   70.33 input  -60.11 | X-H torsion
[ 7974 7965 7964 7962 ] final  119.94 input  175.53 | X-H torsion
[ 8008 7997 7996 7995 ] final  -96.41 input   59.86 | X-H torsion
[ 10167 10162 10161 10158 ] final   43.17 input  -65.29 | X-H torsion
[ 10718 10713 10712 10709 ] final  -61.13 input   66.30 | X-H torsion
[ 10763 10752 10751 10750 ] final  -31.23 input  -60.55 | X-H torsion
[ 11005 11000 10999 10996 ] final   29.52 input  -57.11 | X-H torsion

> <Gold.Protein.ActiveResidues>
 VAL166  LYS551  ARG553  GLY616  TRP617  ASP618  TYR619  PRO620  LYS621  CYS622 
 ASP623  PHE694  ASN695  SER759  ASP760  ASP761  ALA762  ILE779  LEU786  VAL792 
 PHE793  MET794  SER795  GLU796  ALA797  LYS798  CYS799  TRP800  GLU811  SER814 

> <Gold.Protein.RotatedAtoms>
  152.4742  134.4884  159.9687 H   0  0  0  0  0  0  0  0  0  0  0  0  # atno 6907 bound_to 6896
  151.4904  133.3520  159.2860 H   0  0  0  0  0  0  0  0  0  0  0  0  # atno 6908 bound_to 6896
  150.8771  134.8182  159.7259 H   0  0  0  0  0  0  0  0  0  0  0  0  # atno 6909 bound_to 6896
  145.1371  139.3291  143.4635 H   0  0  0  0  0  0  0  0  0  0  0  0  # atno 7974 bound_to 7965
  154.7741  140.0471  157.1075 H   0  0  0  0  0  0  0  0  0  0  0  0  # atno 8008 bound_to 7997
  154.9785  140.3098  155.4937 H   0  0  0  0  0  0  0  0  0  0  0  0  # atno 8009 bound_to 7997
  156.2926  140.2240  156.4882 H   0  0  0  0  0  0  0  0  0  0  0  0  # atno 8010 bound_to 7997
  140.3471  144.2397  150.6149 H   0  0  0  0  0  0  0  0  0  0  0  0  # atno 10167 bound_to 10162
  156.0942  130.4195  150.0952 H   0  0  0  0  0  0  0  0  0  0  0  0  # atno 10718 bound_to 10713
  153.7939  135.6895  153.4867 H   0  0  0  0  0  0  0  0  0  0  0  0  # atno 10763 bound_to 10752
  153.1732  135.4535  154.9928 H   0  0  0  0  0  0  0  0  0  0  0  0  # atno 10764 bound_to 10752
  154.8033  135.3347  154.7433 H   0  0  0  0  0  0  0  0  0  0  0  0  # atno 10765 bound_to 10752
  140.3041  134.2724  155.7747 H   0  0  0  0  0  0  0  0  0  0  0  0  # atno 11005 bound_to 11000
  146.3509  140.1393  142.8595 LP  0  0  0  0  0  0  0  0  0  0  0  0  # atno 17320 bound_to 7965
  145.0573  140.9062  143.4960 LP  0  0  0  0  0  0  0  0  0  0  0  0  # atno 17321 bound_to 7965
  140.5254  143.2255  151.8322 LP  0  0  0  0  0  0  0  0  0  0  0  0  # atno 17342 bound_to 10162
  139.4832  144.4785  151.9336 LP  0  0  0  0  0  0  0  0  0  0  0  0  # atno 17343 bound_to 10162
  156.8954  130.9602  151.3583 LP  0  0  0  0  0  0  0  0  0  0  0  0  # atno 17370 bound_to 10713
  157.6099  130.8575  149.8935 LP  0  0  0  0  0  0  0  0  0  0  0  0  # atno 17371 bound_to 10713
  141.2122  133.7665  156.9810 LP  0  0  0  0  0  0  0  0  0  0  0  0  # atno 17394 bound_to 11000
  140.1083  134.9493  157.2027 LP  0  0  0  0  0  0  0  0  0  0  0  0  # atno 17395 bound_to 11000

$$$$
