AV-unprocessed.smi:1435|AV-procd|sdf|5857|dock1
  -GOLD-   22720 5533D 1   1.00000     0.00000
 Structure written by MMmdl.
 43 44  0  0  0  0  0  0  0  0  1 V2000
  149.2580  135.6167  156.6119 O   0  0  0  0  0  0  0  0  0  0  0  0
  149.4439  135.9130  155.4316 C   0  0  0  0  0  0  0  0  0  0  0  0
  150.5509  136.8988  155.0541 C   0  0  0  0  0  0  0  0  0  0  0  0
  151.4654  137.2417  156.2436 C   0  0  0  0  0  0  0  0  0  0  0  0
  151.9773  139.0182  156.2245 S   0  0  0  0  0  0  0  0  0  0  0  0
  152.8111  139.2705  157.4094 O   0  0  0  0  0  0  0  0  0  0  0  0
  152.5147  139.3280  154.8905 O   0  0  0  0  0  0  0  0  0  0  0  0
  150.3565  139.8933  156.4422 C   0  0  0  0  0  0  0  0  0  0  0  0
  150.1266  140.9479  155.3520 C   0  0  0  0  0  0  0  0  0  0  0  0
  150.7533  142.2499  155.8738 C   0  0  0  0  0  0  0  0  0  0  0  0
  151.0111  142.0425  157.3736 C   0  0  0  0  0  0  0  0  0  0  0  0
  150.3435  140.7135  157.7349 C   0  0  0  0  0  0  0  0  0  0  0  0
  148.7047  135.4281  154.4225 N   0  0  0  0  0  0  0  0  0  0  0  0
  147.5533  134.5489  154.5810 C   0  0  0  0  0  0  0  0  0  0  0  0
  147.7803  133.2019  153.8758 C   0  0  0  0  0  0  0  0  0  0  0  0
  146.6869  132.8909  152.8736 C   0  0  0  0  0  0  0  0  0  0  0  0
  145.8905  131.7349  153.0055 C   0  0  0  0  0  0  0  0  0  0  0  0
  144.8837  131.4928  152.0510 C   0  0  0  0  0  0  0  0  0  0  0  0
  144.7168  132.4198  151.0026 C   0  0  0  0  0  0  0  0  0  0  0  0
  145.4739  133.5299  150.8667 N   0  0  0  0  0  0  0  0  0  0  0  0
  146.4370  133.7547  151.7863 C   0  0  0  0  0  0  0  0  0  0  0  0
  151.1452  136.4385  154.2644 H   0  0  0  0  0  0  0  0  0  0  0  0
  150.1276  137.8093  154.6275 H   0  0  0  0  0  0  0  0  0  0  0  0
  150.9791  137.0238  157.1943 H   0  0  0  0  0  0  0  0  0  0  0  0
  152.3710  136.6370  156.1992 H   0  0  0  0  0  0  0  0  0  0  0  0
  149.5730  139.1352  156.4476 H   0  0  0  0  0  0  0  0  0  0  0  0
  150.5291  140.6579  154.3818 H   0  0  0  0  0  0  0  0  0  0  0  0
  149.0540  141.0961  155.2209 H   0  0  0  0  0  0  0  0  0  0  0  0
  151.6896  142.4646  155.3575 H   0  0  0  0  0  0  0  0  0  0  0  0
  150.0859  143.0944  155.6984 H   0  0  0  0  0  0  0  0  0  0  0  0
  152.0844  141.9780  157.5561 H   0  0  0  0  0  0  0  0  0  0  0  0
  150.6286  142.8668  157.9763 H   0  0  0  0  0  0  0  0  0  0  0  0
  149.3106  140.8990  158.0319 H   0  0  0  0  0  0  0  0  0  0  0  0
  150.8355  140.2102  158.5674 H   0  0  0  0  0  0  0  0  0  0  0  0
  148.9274  135.7256  153.4837 H   0  0  0  0  0  0  0  0  0  0  0  0
  147.3927  134.3886  155.6473 H   0  0  0  0  0  0  0  0  0  0  0  0
  146.6536  135.0355  154.2001 H   0  0  0  0  0  0  0  0  0  0  0  0
  148.7409  133.2014  153.3588 H   0  0  0  0  0  0  0  0  0  0  0  0
  147.8285  132.3976  154.6111 H   0  0  0  0  0  0  0  0  0  0  0  0
  146.0456  131.0469  153.8237 H   0  0  0  0  0  0  0  0  0  0  0  0
  144.2540  130.6183  152.1207 H   0  0  0  0  0  0  0  0  0  0  0  0
  143.9542  132.2657  150.2536 H   0  0  0  0  0  0  0  0  0  0  0  0
  147.0230  134.6519  151.6514 H   0  0  0  0  0  0  0  0  0  0  0  0
  1  2  2  0  0  0  0
  2  3  1  0  0  0  0
  2 13  1  0  0  0  0
  3  4  1  0  0  0  0
  3 22  1  0  0  0  0
  3 23  1  0  0  0  0
  4  5  1  0  0  0  0
  4 24  1  0  0  0  0
  4 25  1  0  0  0  0
  5  6  2  0  0  0  0
  5  7  2  0  0  0  0
  5  8  1  0  0  0  0
  8 12  1  0  0  0  0
  8  9  1  0  0  0  0
  8 26  1  0  0  0  0
  9 10  1  0  0  0  0
  9 27  1  0  0  0  0
  9 28  1  0  0  0  0
 10 11  1  0  0  0  0
 10 29  1  0  0  0  0
 10 30  1  0  0  0  0
 11 12  1  0  0  0  0
 11 31  1  0  0  0  0
 11 32  1  0  0  0  0
 12 33  1  0  0  0  0
 12 34  1  0  0  0  0
 13 14  1  0  0  0  0
 13 35  1  0  0  0  0
 14 15  1  0  0  0  0
 14 36  1  0  0  0  0
 14 37  1  0  0  0  0
 15 16  1  0  0  0  0
 15 38  1  0  0  0  0
 15 39  1  0  0  0  0
 16 21  1  0  0  0  0
 16 17  2  0  0  0  0
 17 18  1  0  0  0  0
 17 40  1  0  0  0  0
 18 19  2  0  0  0  0
 18 41  1  0  0  0  0
 19 20  1  0  0  0  0
 19 42  1  0  0  0  0
 20 21  2  0  0  0  0
 21 43  1  0  0  0  0
M  END
> <s_m_source_file>
AV-unprocessed.smi

> <i_m_source_file_index>
1435

> <i_lp_mmshare_version>
43012

> <i_f3d_flags>
0

> <s_epik_input>
W0NIMl0xW0NIMl1bQ0gyXVtDSDJdW0NIXTFTKD1PKSg9TylbQ0gyXVtDSDJdQyg9TylbTkhdW0NIMl1bQ0gyXWMyW2NIXVtjSF1bY0hdbltjSF0y

> <s_epik_cmdline>
J2VwaWtfcHl0aG9uJywgJy1waCcsICc3LjAnLCAnLXRuJywgJzgnLCAnLW1hJywgJzIwMCcsICctbWV0YWxfYmluZGluZycsICctaW1hZScsICc8aW5maWxlLm1hZT4nLCAnLW9tYWUnLCAnPG91dGZpbGUubWFlPic=

> <r_epik_Ionization_Penalty>
0.0127849

> <r_epik_Ionization_Penalty_Charging>
0

> <r_epik_Ionization_Penalty_Neutral>
0.0127849

> <r_epik_State_Penalty>
0.00991539

> <r_epik_Charging_Adjusted_Penalty>
0.00991539

> <i_epik_Tot_Q>
0

> <i_epik_Tot_abs_Q>
0

> <r_epik_Metal_State_Penalty>
0.0097046

> <b_epik_Metal_Only>
0

> <s_lp_Force_Field>
OPLS_2005

> <r_lp_Energy>
9.74061

> <b_lp_Chiralities_Consistent>
1

> <s_lp_Variant>
AV-unprocessed.smi:1435-1

> <Gold.Version>
5.8.1

> <Gold.Id.Protein>
6NUR|6NUR_protein|mol2

> <Gold.PLP.Fitness>
44.2215

> <Gold.PLP.PLP>
-34.8245

> <Gold.PLP.part.hbond>
-3.2033

> <Gold.PLP.part.metal>
0.0000

> <Gold.PLP.part.buried>
-2.7207

> <Gold.PLP.part.nonpolar>
-29.0100

> <Gold.PLP.part.repulsive>
0.2410

> <Gold.PLP.ligand.clash>
0.0000

> <Gold.PLP.ligand.torsion>
0.8827

> <Gold.PLP.Chemscore.Hbond>
2.5772

> <Gold.PLP.Chemscore.CHOScore>
1.0000

> <Gold.PLP.Chemscore.Metal>
0.0000

> <Gold.Chemscore.Hbonds>
donor molecule, donor type, donor heavy atom, donor atom, acceptor molecule, acceptor atom, score
      L1  H    13    35       P1  7948  1.00
      P1  H  7989  7998       L1     7  0.35
      P1  H  7997  8009       L1     6  1.00
      L1  C    21    43       P1  7948  1.00

> <Gold.PLP.Chemscore.Internal.Correction>
0.4307

> <Gold.Rescore>
     Score         DG    S(hbond)    S(metal)    S(lipo)     H(rot)  DE(clash)    DE(int)     intcor
     17.47     -18.41       2.79        0.00      74.52       2.00       0.03       0.91       ----

> <Gold.Chemscore.Fitness>
17.4662

> <Gold.Chemscore.DG>
-18.4091

> <Gold.Chemscore.ZeroCoef>
-5.4800

> <Gold.Chemscore.Hbond>
2.7945

> <Gold.Chemscore.Metal>
0.0000

> <Gold.Chemscore.Lipo>
74.5219

> <Gold.Chemscore.Internal_Hbond>
0.0000

> <Gold.Chemscore.DEClash>
0.0308

> <Gold.Chemscore.DEInternal>
0.9122

> <Gold.Chemscore.Rot>
2.0014

> <Gold.Chemscore.Internal.Correction>
   9.000000E+99

> <Gold.Chemscore.Hbonds>
donor molecule, donor type, donor heavy atom, donor atom, acceptor molecule, acceptor atom, score
      L1  H    13    35       P1  7948  0.91
      P1  H  7989  7998       L1     7  0.34
      P1  H  7997  8009       L1     6  0.55

> <Gold.Chemscore.Hbond.Weighted>
-9.3336

> <Gold.Chemscore.Metal.Weighted>
-0.0000

> <Gold.Chemscore.Lipo.Weighted>
-8.7191

> <Gold.Chemscore.Internal_Hbond.Weighted>
0.0000

> <Gold.Chemscore.DEClash.Weighted>
0.0308

> <Gold.Chemscore.DEInternal.Weighted>
0.9122

> <Gold.Chemscore.Rot.Weighted>
5.1236

> <Gold.Chemscore.Internal.Correction.Weighted>
   9.000000E+99

> <Gold.Protein.RotatedTorsions>
[ 6907 6896 6895 6894 ] final   38.56 input  -60.11 | X-H torsion
[ 7974 7965 7964 7962 ] final  -30.25 input  175.53 | X-H torsion
[ 8008 7997 7996 7995 ] final  173.38 input   59.86 | X-H torsion
[ 10167 10162 10161 10158 ] final  137.87 input  -65.29 | X-H torsion
[ 10718 10713 10712 10709 ] final -167.95 input   66.30 | X-H torsion
[ 10763 10752 10751 10750 ] final   54.97 input  -60.55 | X-H torsion
[ 11005 11000 10999 10996 ] final  -78.66 input  -57.11 | X-H torsion

> <Gold.Protein.ActiveResidues>
 VAL166  LYS551  ARG553  GLY616  TRP617  ASP618  TYR619  PRO620  LYS621  CYS622 
 ASP623  PHE694  ASN695  SER759  ASP760  ASP761  ALA762  ILE779  LEU786  VAL792 
 PHE793  MET794  SER795  GLU796  ALA797  LYS798  CYS799  TRP800  GLU811  SER814 

> <Gold.Protein.RotatedAtoms>
  152.1580  134.8935  160.0543 H   0  0  0  0  0  0  0  0  0  0  0  0  # atno 6907 bound_to 6896
  151.9942  133.3797  159.4164 H   0  0  0  0  0  0  0  0  0  0  0  0  # atno 6908 bound_to 6896
  150.6884  134.3826  159.5085 H   0  0  0  0  0  0  0  0  0  0  0  0  # atno 6909 bound_to 6896
  146.1156  140.5517  142.8758 H   0  0  0  0  0  0  0  0  0  0  0  0  # atno 7974 bound_to 7965
  156.1081  140.1461  156.9376 H   0  0  0  0  0  0  0  0  0  0  0  0  # atno 8008 bound_to 7997
  154.4748  140.0898  156.7278 H   0  0  0  0  0  0  0  0  0  0  0  0  # atno 8009 bound_to 7997
  155.4644  140.3439  155.4319 H   0  0  0  0  0  0  0  0  0  0  0  0  # atno 8010 bound_to 7997
  139.5129  144.6385  151.5631 H   0  0  0  0  0  0  0  0  0  0  0  0  # atno 10167 bound_to 10162
  156.6898  130.9155  151.3067 H   0  0  0  0  0  0  0  0  0  0  0  0  # atno 10718 bound_to 10713
  152.9811  135.5726  154.4991 H   0  0  0  0  0  0  0  0  0  0  0  0  # atno 10763 bound_to 10752
  154.4513  135.2778  155.1781 H   0  0  0  0  0  0  0  0  0  0  0  0  # atno 10764 bound_to 10752
  154.3407  135.6230  153.5648 H   0  0  0  0  0  0  0  0  0  0  0  0  # atno 10765 bound_to 10752
  141.1665  133.7073  156.8006 H   0  0  0  0  0  0  0  0  0  0  0  0  # atno 11005 bound_to 11000
  144.7550  140.5286  143.6775 LP  0  0  0  0  0  0  0  0  0  0  0  0  # atno 17320 bound_to 7965
  145.5573  139.1478  143.3361 LP  0  0  0  0  0  0  0  0  0  0  0  0  # atno 17321 bound_to 7965
  140.6143  143.9377  150.6477 LP  0  0  0  0  0  0  0  0  0  0  0  0  # atno 17342 bound_to 10162
  140.2630  143.3510  152.1306 LP  0  0  0  0  0  0  0  0  0  0  0  0  # atno 17343 bound_to 10162
  157.7013  130.9336  150.0793 LP  0  0  0  0  0  0  0  0  0  0  0  0  # atno 17370 bound_to 10713
  156.1806  130.3650  149.9041 LP  0  0  0  0  0  0  0  0  0  0  0  0  # atno 17371 bound_to 10713
  140.2259  134.8722  157.3426 LP  0  0  0  0  0  0  0  0  0  0  0  0  # atno 17394 bound_to 11000
  140.1940  134.4336  155.7699 LP  0  0  0  0  0  0  0  0  0  0  0  0  # atno 17395 bound_to 11000

$$$$
