AV-unprocessed.smi:168|AV-procd|sdf|1397|dock1
  -GOLD-   2262019143D 1   1.00000     0.00000
 Structure written by MMmdl.
 62 66  0  0  0  0  0  0  0  0  1 V2000
  147.7772  141.3848  157.1350 C   0  0  0  0  0  0  0  0  0  0  0  0
  148.3922  140.0192  157.4725 C   0  0  0  0  0  0  0  0  0  0  0  0
  149.7781  140.2200  158.1252 C   0  0  0  0  0  0  0  0  0  0  0  0
  148.3373  139.0569  156.2554 C   0  0  1  0  0  0  0  0  0  0  0  0
  147.0199  139.0763  155.6145 N   0  0  0  0  0  0  0  0  0  0  0  0
  146.4044  137.8069  155.3552 C   0  0  0  0  0  0  0  0  0  0  0  0
  146.2169  136.9444  156.3914 N   0  0  0  0  0  0  0  0  0  0  0  0
  145.6674  135.7409  156.2116 C   0  0  0  0  0  0  0  0  0  0  0  0
  145.2419  135.1823  155.0801 N   0  0  0  0  0  0  0  0  0  0  0  0
  145.4408  136.0163  154.0218 C   0  0  0  0  0  0  0  0  0  0  0  0
  146.0158  137.3208  154.0691 C   0  0  0  0  0  0  0  0  0  0  0  0
  146.0800  137.8402  152.7814 N   0  0  0  0  0  0  0  0  0  0  0  0
  145.5752  136.9068  152.0240 C   0  0  0  0  0  0  0  0  0  0  0  0
  145.1363  135.7873  152.6907 N   0  0  0  0  0  0  0  0  0  0  0  0
  144.5864  134.6009  152.1016 C   0  0  0  0  0  0  0  0  0  0  0  0
  145.3225  133.2604  152.1918 C   0  0  0  0  0  0  0  0  0  0  0  0
  144.8524  132.8906  150.7673 C   0  0  0  0  0  0  0  0  0  0  0  0
  145.9446  132.3305  149.8430 C   0  0  0  0  0  0  0  0  0  0  0  0
  146.5315  131.1645  150.3848 O   0  0  0  0  0  0  0  0  0  0  0  0
  143.6312  131.9515  150.6478 C   0  0  0  0  0  0  0  0  0  0  0  0
  143.0507  131.9499  149.3595 O   0  0  0  0  0  0  0  0  0  0  0  0
  144.5747  134.3997  150.5830 C   0  0  0  0  0  0  0  0  0  0  0  0
  147.5282  139.8032  154.4523 C   0  0  0  0  0  0  0  0  0  0  0  0
  148.9478  139.3940  154.8678 C   0  0  0  0  0  0  0  0  0  0  0  0
  149.5147  138.1924  154.0791 C   0  0  0  0  0  0  0  0  0  0  0  0
  150.8640  137.6910  154.6196 C   0  0  0  0  0  0  0  0  0  0  0  0
  151.9120  138.8086  154.6026 C   0  0  0  0  0  0  0  0  0  0  0  0
  151.3958  140.0537  155.3320 C   0  0  0  0  0  0  0  0  0  0  0  0
  150.0256  140.4950  154.7858 C   0  0  0  0  0  0  0  0  0  0  0  0
  148.3713  141.9115  156.3876 H   0  0  0  0  0  0  0  0  0  0  0  0
  147.7199  142.0203  158.0191 H   0  0  0  0  0  0  0  0  0  0  0  0
  146.7646  141.2766  156.7459 H   0  0  0  0  0  0  0  0  0  0  0  0
  147.7512  139.6018  158.2476 H   0  0  0  0  0  0  0  0  0  0  0  0
  150.4760  140.7085  157.4447 H   0  0  0  0  0  0  0  0  0  0  0  0
  150.2316  139.2867  158.4503 H   0  0  0  0  0  0  0  0  0  0  0  0
  149.6975  140.8542  159.0083 H   0  0  0  0  0  0  0  0  0  0  0  0
  148.6598  138.0543  156.5326 H   0  0  0  0  0  0  0  0  0  0  0  0
  145.5533  135.1407  157.1021 H   0  0  0  0  0  0  0  0  0  0  0  0
  145.5074  137.0140  150.9510 H   0  0  0  0  0  0  0  0  0  0  0  0
  143.5779  134.5122  152.5072 H   0  0  0  0  0  0  0  0  0  0  0  0
  146.4048  133.3839  152.2580 H   0  0  0  0  0  0  0  0  0  0  0  0
  144.9580  132.6004  152.9796 H   0  0  0  0  0  0  0  0  0  0  0  0
  145.5455  132.0986  148.8551 H   0  0  0  0  0  0  0  0  0  0  0  0
  146.7394  133.0612  149.6899 H   0  0  0  0  0  0  0  0  0  0  0  0
  147.3871  131.0526  149.9998 H   0  0  0  0  0  0  0  0  0  0  0  0
  143.9105  130.9247  150.8855 H   0  0  0  0  0  0  0  0  0  0  0  0
  142.8497  132.2321  151.3542 H   0  0  0  0  0  0  0  0  0  0  0  0
  142.4292  132.6600  149.3098 H   0  0  0  0  0  0  0  0  0  0  0  0
  143.6222  134.6368  150.1078 H   0  0  0  0  0  0  0  0  0  0  0  0
  145.3934  134.9276  150.0912 H   0  0  0  0  0  0  0  0  0  0  0  0
  147.2365  139.4399  153.4670 H   0  0  0  0  0  0  0  0  0  0  0  0
  147.3443  140.8739  154.5380 H   0  0  0  0  0  0  0  0  0  0  0  0
  148.8113  137.3600  154.0864 H   0  0  0  0  0  0  0  0  0  0  0  0
  149.6297  138.4599  153.0279 H   0  0  0  0  0  0  0  0  0  0  0  0
  150.7391  137.3193  155.6373 H   0  0  0  0  0  0  0  0  0  0  0  0
  151.2129  136.8473  154.0238 H   0  0  0  0  0  0  0  0  0  0  0  0
  152.8401  138.4624  155.0579 H   0  0  0  0  0  0  0  0  0  0  0  0
  152.1499  139.0665  153.5699 H   0  0  0  0  0  0  0  0  0  0  0  0
  151.3232  139.8430  156.3986 H   0  0  0  0  0  0  0  0  0  0  0  0
  152.1155  140.8663  155.2285 H   0  0  0  0  0  0  0  0  0  0  0  0
  150.1474  140.8096  153.7484 H   0  0  0  0  0  0  0  0  0  0  0  0
  149.7148  141.3929  155.3144 H   0  0  0  0  0  0  0  0  0  0  0  0
  1  2  1  0  0  0  0
  1 30  1  0  0  0  0
  1 31  1  0  0  0  0
  1 32  1  0  0  0  0
  2  3  1  0  0  0  0
  2  4  1  0  0  0  0
  2 33  1  0  0  0  0
  3 34  1  0  0  0  0
  3 35  1  0  0  0  0
  3 36  1  0  0  0  0
  4 24  1  0  0  0  0
  4  5  1  0  0  0  0
  4 37  1  0  0  0  0
  5  6  1  0  0  0  0
  5 23  1  0  0  0  0
  6 11  1  0  0  0  0
  6  7  2  0  0  0  0
  7  8  1  0  0  0  0
  8  9  2  0  0  0  0
  8 38  1  0  0  0  0
  9 10  1  0  0  0  0
 10 14  1  0  0  0  0
 10 11  2  0  0  0  0
 11 12  1  0  0  0  0
 12 13  2  0  0  0  0
 13 14  1  0  0  0  0
 13 39  1  0  0  0  0
 14 15  1  0  0  0  0
 15 22  1  0  0  0  0
 15 16  1  0  0  0  0
 15 40  1  0  0  0  0
 16 17  1  0  0  0  0
 16 41  1  0  0  0  0
 16 42  1  0  0  0  0
 17 18  1  0  0  0  0
 17 20  1  0  0  0  0
 17 22  1  0  0  0  0
 18 19  1  0  0  0  0
 18 43  1  0  0  0  0
 18 44  1  0  0  0  0
 19 45  1  0  0  0  0
 20 21  1  0  0  0  0
 20 46  1  0  0  0  0
 20 47  1  0  0  0  0
 21 48  1  0  0  0  0
 22 49  1  0  0  0  0
 22 50  1  0  0  0  0
 23 24  1  0  0  0  0
 23 51  1  0  0  0  0
 23 52  1  0  0  0  0
 24 29  1  0  0  0  0
 24 25  1  0  0  0  0
 25 26  1  0  0  0  0
 25 53  1  0  0  0  0
 25 54  1  0  0  0  0
 26 27  1  0  0  0  0
 26 55  1  0  0  0  0
 26 56  1  0  0  0  0
 27 28  1  0  0  0  0
 27 57  1  0  0  0  0
 27 58  1  0  0  0  0
 28 29  1  0  0  0  0
 28 59  1  0  0  0  0
 28 60  1  0  0  0  0
 29 61  1  0  0  0  0
 29 62  1  0  0  0  0
M  END
> <s_m_source_file>
AV-unprocessed.smi

> <i_m_source_file_index>
168

> <i_lp_mmshare_version>
43012

> <i_f3d_flags>
0

> <s_epik_input>
W0NIMl0xW0NIMl1bQ0gyXVtDSDJdW0NIMl1DMTJbQ0BIXShbQ0hdKFtDSDNdKVtDSDNdKU4oW0NIMl0yKWMobltjSF1uMyljKGMzNCluW2NIXW40W0NIXShbQ0gyXTUpW0NIMl1DNShbQ0gyXVtPSF0pW0NIMl1bT0hd

> <s_epik_cmdline>
J2VwaWtfcHl0aG9uJywgJy1waCcsICc3LjAnLCAnLXRuJywgJzgnLCAnLW1hJywgJzIwMCcsICctbWV0YWxfYmluZGluZycsICctaW1hZScsICc8aW5maWxlLm1hZT4nLCAnLW9tYWUnLCAnPG91dGZpbGUubWFlPic=

> <r_lp_tautomer_probability>
1

> <r_epik_Ionization_Penalty>
0.00324652

> <r_epik_Ionization_Penalty_Charging>
0

> <r_epik_Ionization_Penalty_Neutral>
0.00324652

> <r_epik_State_Penalty>
0.00223464

> <r_epik_Charging_Adjusted_Penalty>
0.00223464

> <i_epik_Tot_Q>
0

> <i_epik_Tot_abs_Q>
0

> <r_epik_Metal_State_Penalty>
-0

> <b_epik_Metal_Only>
0

> <s_lp_Force_Field>
OPLS_2005

> <r_lp_Energy>
69.202

> <b_lp_Chiralities_Consistent>
1

> <s_lp_Variant>
AV-unprocessed.smi:168-2

> <Gold.Version>
5.8.1

> <Gold.Id.Protein>
6NUR|6NUR_protein|mol2

> <Gold.PLP.Fitness>
49.3226

> <Gold.PLP.PLP>
-38.9336

> <Gold.PLP.part.hbond>
-3.9525

> <Gold.PLP.part.metal>
0.0000

> <Gold.PLP.part.buried>
-3.8048

> <Gold.PLP.part.nonpolar>
-32.5145

> <Gold.PLP.part.repulsive>
0.2993

> <Gold.PLP.ligand.clash>
0.0000

> <Gold.PLP.ligand.torsion>
0.6418

> <Gold.PLP.Chemscore.Hbond>
2.7875

> <Gold.PLP.Chemscore.CHOScore>
0.8406

> <Gold.PLP.Chemscore.Metal>
0.0000

> <Gold.Chemscore.Hbonds>
donor molecule, donor type, donor heavy atom, donor atom, acceptor molecule, acceptor atom, score
      L1  H    19    45       P1 10747  0.96
      L1  H    21    48       P1 10186  0.41
      P1  H 10785 10796       L1    21  1.00
      L1  C    13    39       P1 10171  0.86

> <Gold.PLP.Chemscore.Internal.Correction>
0.7883

> <Gold.Rescore>
     Score         DG    S(hbond)    S(metal)    S(lipo)     H(rot)  DE(clash)    DE(int)     intcor
     12.82     -14.75       1.94        0.00      92.06       3.12       0.03       1.90       ----

> <Gold.Chemscore.Fitness>
12.8186

> <Gold.Chemscore.DG>
-14.7535

> <Gold.Chemscore.ZeroCoef>
-5.4800

> <Gold.Chemscore.Hbond>
1.9415

> <Gold.Chemscore.Metal>
0.0000

> <Gold.Chemscore.Lipo>
92.0631

> <Gold.Chemscore.Internal_Hbond>
0.0000

> <Gold.Chemscore.DEClash>
0.0311

> <Gold.Chemscore.DEInternal>
1.9038

> <Gold.Chemscore.Rot>
3.1181

> <Gold.Chemscore.Internal.Correction>
   9.000000E+99

> <Gold.Chemscore.Hbonds>
donor molecule, donor type, donor heavy atom, donor atom, acceptor molecule, acceptor atom, score
      L1  H    19    45       P1 10747  0.91
      L1  H    21    48       P1 10186  0.41
      P1  H 10785 10796       L1    21  0.50

> <Gold.Chemscore.Hbond.Weighted>
-6.4845

> <Gold.Chemscore.Metal.Weighted>
-0.0000

> <Gold.Chemscore.Lipo.Weighted>
-10.7714

> <Gold.Chemscore.Internal_Hbond.Weighted>
0.0000

> <Gold.Chemscore.DEClash.Weighted>
0.0311

> <Gold.Chemscore.DEInternal.Weighted>
1.9038

> <Gold.Chemscore.Rot.Weighted>
7.9823

> <Gold.Chemscore.Internal.Correction.Weighted>
   9.000000E+99

> <Gold.Protein.RotatedTorsions>
[ 6907 6896 6895 6894 ] final -177.29 input  -60.11 | X-H torsion
[ 7974 7965 7964 7962 ] final -176.77 input  175.53 | X-H torsion
[ 8008 7997 7996 7995 ] final -155.64 input   59.86 | X-H torsion
[ 10167 10162 10161 10158 ] final -154.89 input  -65.29 | X-H torsion
[ 10718 10713 10712 10709 ] final  -53.17 input   66.30 | X-H torsion
[ 10763 10752 10751 10750 ] final -142.73 input  -60.55 | X-H torsion
[ 11005 11000 10999 10996 ] final -142.58 input  -57.11 | X-H torsion

> <Gold.Protein.ActiveResidues>
 VAL166  LYS551  ARG553  GLY616  TRP617  ASP618  TYR619  PRO620  LYS621  CYS622 
 ASP623  PHE694  ASN695  SER759  ASP760  ASP761  ALA762  ILE779  LEU786  VAL792 
 PHE793  MET794  SER795  GLU796  ALA797  LYS798  CYS799  TRP800  GLU811  SER814 

> <Gold.Protein.RotatedAtoms>
  151.6187  133.3341  159.3082 H   0  0  0  0  0  0  0  0  0  0  0  0  # atno 6907 bound_to 6896
  150.8118  134.7280  159.6706 H   0  0  0  0  0  0  0  0  0  0  0  0  # atno 6908 bound_to 6896
  152.4214  134.5953  160.0037 H   0  0  0  0  0  0  0  0  0  0  0  0  # atno 6909 bound_to 6896
  144.7127  140.1119  143.6410 H   0  0  0  0  0  0  0  0  0  0  0  0  # atno 7974 bound_to 7965
  155.7049  140.0771  157.2395 H   0  0  0  0  0  0  0  0  0  0  0  0  # atno 8008 bound_to 7997
  154.4067  140.1640  156.2285 H   0  0  0  0  0  0  0  0  0  0  0  0  # atno 8009 bound_to 7997
  155.9335  140.3389  155.6271 H   0  0  0  0  0  0  0  0  0  0  0  0  # atno 8010 bound_to 7997
  139.6976  143.9316  152.2414 H   0  0  0  0  0  0  0  0  0  0  0  0  # atno 10167 bound_to 10162
  156.1558  130.4150  149.9871 H   0  0  0  0  0  0  0  0  0  0  0  0  # atno 10718 bound_to 10713
  154.8497  135.3487  154.6075 H   0  0  0  0  0  0  0  0  0  0  0  0  # atno 10763 bound_to 10752
  153.6684  135.6986  153.5159 H   0  0  0  0  0  0  0  0  0  0  0  0  # atno 10764 bound_to 10752
  153.2762  135.4277  155.0992 H   0  0  0  0  0  0  0  0  0  0  0  0  # atno 10765 bound_to 10752
  140.8211  134.2630  157.4900 H   0  0  0  0  0  0  0  0  0  0  0  0  # atno 11005 bound_to 11000
  145.9447  139.2692  143.1248 LP  0  0  0  0  0  0  0  0  0  0  0  0  # atno 17320 bound_to 7965
  145.9387  140.8996  143.0319 LP  0  0  0  0  0  0  0  0  0  0  0  0  # atno 17321 bound_to 7965
  139.9149  144.6834  150.8522 LP  0  0  0  0  0  0  0  0  0  0  0  0  # atno 17342 bound_to 10162
  140.7701  143.3416  151.2196 LP  0  0  0  0  0  0  0  0  0  0  0  0  # atno 17343 bound_to 10162
  156.7715  130.9188  151.3644 LP  0  0  0  0  0  0  0  0  0  0  0  0  # atno 17370 bound_to 10713
  157.6694  130.9037  150.0005 LP  0  0  0  0  0  0  0  0  0  0  0  0  # atno 17371 bound_to 10713
  139.8708  134.9536  156.4149 LP  0  0  0  0  0  0  0  0  0  0  0  0  # atno 17394 bound_to 11000
  140.9098  133.7720  155.9778 LP  0  0  0  0  0  0  0  0  0  0  0  0  # atno 17395 bound_to 11000

$$$$
