AV-unprocessed.smi:303|AV-procd|sdf|2275|dock6
  -GOLD-   2262022173D 1   1.00000     0.00000
 Structure written by MMmdl.
 46 47  0  0  0  0  0  0  0  0  2 V2000
  149.6031  140.4582  157.4939 C   0  0  0  0  0  0  0  0  0  0  0  0
  151.0529  140.5338  157.9869 C   0  0  0  0  0  0  0  0  0  0  0  0
  152.0451  139.0686  157.4503 S   0  0  0  0  0  0  0  0  0  0  0  0
  153.4598  139.3369  157.7513 O   0  0  0  0  0  0  0  0  0  0  0  0
  151.4078  137.8471  157.9669 O   0  0  0  0  0  0  0  0  0  0  0  0
  151.8780  139.0527  155.7167 N   0  0  0  0  0  0  0  0  0  0  0  0
  151.4788  137.8103  155.0288 C   0  0  0  0  0  0  0  0  0  0  0  0
  149.9979  137.8506  154.6151 C   0  0  0  0  0  0  0  0  0  0  0  0
  149.6895  139.0898  153.7559 C   0  0  0  0  0  0  0  0  0  0  0  0
  148.2056  139.1296  153.3679 C   0  0  0  0  0  0  0  0  0  0  0  0
  147.5249  140.1260  153.6147 O   0  0  0  0  0  0  0  0  0  0  0  0
  147.7115  138.0347  152.7691 N   0  0  0  0  0  0  0  0  0  0  0  0
  146.3245  137.8665  152.3516 C   0  0  0  0  0  0  0  0  0  0  0  0
  146.2276  137.1386  150.9998 C   0  0  0  0  0  0  0  0  0  0  0  0
  145.7991  135.6923  151.1520 C   0  0  0  0  0  0  0  0  0  0  0  0
  144.5807  135.2120  150.6245 C   0  0  0  0  0  0  0  0  0  0  0  0
  144.2410  133.8542  150.8010 C   0  0  0  0  0  0  0  0  0  0  0  0
  145.1262  133.0065  151.4986 C   0  0  0  0  0  0  0  0  0  0  0  0
  146.3310  133.5383  152.0020 C   0  0  0  0  0  0  0  0  0  0  0  0
  146.6207  134.8447  151.8127 N   0  3  0  0  0  0  0  0  0  0  0  0
  150.0971  140.3545  154.5342 C   0  0  0  0  0  0  0  0  0  0  0  0
  151.5697  140.2956  154.9783 C   0  0  0  0  0  0  0  0  0  0  0  0
  149.0454  141.3447  157.7957 H   0  0  0  0  0  0  0  0  0  0  0  0
  149.0918  139.5891  157.9084 H   0  0  0  0  0  0  0  0  0  0  0  0
  149.5545  140.3875  156.4077 H   0  0  0  0  0  0  0  0  0  0  0  0
  151.5417  141.4453  157.6531 H   0  0  0  0  0  0  0  0  0  0  0  0
  151.0592  140.5506  159.0767 H   0  0  0  0  0  0  0  0  0  0  0  0
  152.1046  137.6879  154.1440 H   0  0  0  0  0  0  0  0  0  0  0  0
  151.6724  136.9468  155.6647 H   0  0  0  0  0  0  0  0  0  0  0  0
  149.7550  136.9423  154.0620 H   0  0  0  0  0  0  0  0  0  0  0  0
  149.3676  137.8419  155.5045 H   0  0  0  0  0  0  0  0  0  0  0  0
  150.2889  139.0368  152.8451 H   0  0  0  0  0  0  0  0  0  0  0  0
  148.3392  137.2617  152.5994 H   0  0  0  0  0  0  0  0  0  0  0  0
  145.7677  137.3252  153.1188 H   0  0  0  0  0  0  0  0  0  0  0  0
  145.8706  138.8552  152.2781 H   0  0  0  0  0  0  0  0  0  0  0  0
  145.5175  137.6514  150.3492 H   0  0  0  0  0  0  0  0  0  0  0  0
  147.1890  137.1663  150.4852 H   0  0  0  0  0  0  0  0  0  0  0  0
  143.9135  135.8739  150.0913 H   0  0  0  0  0  0  0  0  0  0  0  0
  143.3123  133.4681  150.4062 H   0  0  0  0  0  0  0  0  0  0  0  0
  144.8840  131.9639  151.6455 H   0  0  0  0  0  0  0  0  0  0  0  0
  147.0654  132.9634  152.5470 H   0  0  0  0  0  0  0  0  0  0  0  0
  149.9491  141.2365  153.9096 H   0  0  0  0  0  0  0  0  0  0  0  0
  149.4547  140.4957  155.4024 H   0  0  0  0  0  0  0  0  0  0  0  0
  151.8183  141.1695  155.5792 H   0  0  0  0  0  0  0  0  0  0  0  0
  152.2139  140.3372  154.0992 H   0  0  0  0  0  0  0  0  0  0  0  0
  147.4976  135.2080  152.1868 H   0  0  0  0  0  0  0  0  0  0  0  0
  1  2  1  0  0  0  0
  1 23  1  0  0  0  0
  1 24  1  0  0  0  0
  1 25  1  0  0  0  0
  2  3  1  0  0  0  0
  2 26  1  0  0  0  0
  2 27  1  0  0  0  0
  3  4  2  0  0  0  0
  3  5  2  0  0  0  0
  3  6  1  0  0  0  0
  6 22  1  0  0  0  0
  6  7  1  0  0  0  0
  7  8  1  0  0  0  0
  7 28  1  0  0  0  0
  7 29  1  0  0  0  0
  8  9  1  0  0  0  0
  8 30  1  0  0  0  0
  8 31  1  0  0  0  0
  9 10  1  0  0  0  0
  9 21  1  0  0  0  0
  9 32  1  0  0  0  0
 10 11  2  0  0  0  0
 10 12  1  0  0  0  0
 12 13  1  0  0  0  0
 12 33  1  0  0  0  0
 13 14  1  0  0  0  0
 13 34  1  0  0  0  0
 13 35  1  0  0  0  0
 14 15  1  0  0  0  0
 14 36  1  0  0  0  0
 14 37  1  0  0  0  0
 15 20  1  0  0  0  0
 15 16  2  0  0  0  0
 16 17  1  0  0  0  0
 16 38  1  0  0  0  0
 17 18  2  0  0  0  0
 17 39  1  0  0  0  0
 18 19  1  0  0  0  0
 18 40  1  0  0  0  0
 19 20  2  0  0  0  0
 19 41  1  0  0  0  0
 20 46  1  0  0  0  0
 21 22  1  0  0  0  0
 21 42  1  0  0  0  0
 21 43  1  0  0  0  0
 22 44  1  0  0  0  0
 22 45  1  0  0  0  0
M  CHG  1  20   1
M  END
> <s_m_source_file>
AV-unprocessed.smi

> <i_m_source_file_index>
303

> <i_lp_mmshare_version>
43012

> <i_f3d_flags>
0

> <s_epik_input>
W0NIM11bQ0gyXVMoPU8pKD1PKU4xW0NIMl1bQ0gyXVtDSF0oW0NIMl1bQ0gyXTEpQyg9TylbTkhdW0NIMl1bQ0gyXWMyW2NIXVtjSF1bY0hdW2NIXW4y

> <s_epik_cmdline>
J2VwaWtfcHl0aG9uJywgJy1waCcsICc3LjAnLCAnLXRuJywgJzgnLCAnLW1hJywgJzIwMCcsICctbWV0YWxfYmluZGluZycsICctaW1hZScsICc8aW5maWxlLm1hZT4nLCAnLW9tYWUnLCAnPG91dGZpbGUubWFlPic=

> <r_epik_Ionization_Penalty>
1.82741

> <r_epik_Ionization_Penalty_Charging>
1.82741

> <r_epik_Ionization_Penalty_Neutral>
1.89562e-08

> <r_epik_State_Penalty>
1.94311

> <r_epik_Charging_Adjusted_Penalty>
3.77052

> <i_epik_Tot_Q>
1

> <i_epik_Tot_abs_Q>
1

> <r_epik_Metal_State_Penalty>
1.96983

> <b_epik_Metal_Only>
0

> <s_lp_Force_Field>
OPLS_2005

> <r_lp_Energy>
6.79825

> <b_lp_Chiralities_Consistent>
1

> <s_lp_Variant>
AV-unprocessed.smi:303-2

> <Gold.Version>
5.8.1

> <Gold.Id.Protein>
6NUR|6NUR_protein|mol2

> <Gold.PLP.Fitness>
46.9157

> <Gold.PLP.PLP>
-36.2016

> <Gold.PLP.part.hbond>
-2.8369

> <Gold.PLP.part.metal>
0.0000

> <Gold.PLP.part.buried>
-0.7520

> <Gold.PLP.part.nonpolar>
-34.0358

> <Gold.PLP.part.repulsive>
0.2056

> <Gold.PLP.ligand.clash>
0.0000

> <Gold.PLP.ligand.torsion>
1.7332

> <Gold.PLP.Chemscore.Hbond>
4.0000

> <Gold.PLP.Chemscore.CHOScore>
0.0000

> <Gold.PLP.Chemscore.Metal>
0.0000

> <Gold.Chemscore.Hbonds>
donor molecule, donor type, donor heavy atom, donor atom, acceptor molecule, acceptor atom, score
      L1  H    12    33       P1  7948  0.67
      L1  H    20    46       P1  7948  1.79
      P1  H  7997  8008       L1     4  1.00

> <Gold.PLP.Chemscore.Internal.Correction>
2.1806

> <Gold.Rescore>
     Score         DG    S(hbond)    S(metal)    S(lipo)     H(rot)  DE(clash)    DE(int)     intcor
     17.86     -20.74       2.97        0.00      84.10       1.76       1.16       1.72       ----

> <Gold.Chemscore.Fitness>
17.8568

> <Gold.Chemscore.DG>
-20.7423

> <Gold.Chemscore.ZeroCoef>
-5.4800

> <Gold.Chemscore.Hbond>
2.9722

> <Gold.Chemscore.Metal>
0.0000

> <Gold.Chemscore.Lipo>
84.1002

> <Gold.Chemscore.Internal_Hbond>
0.0000

> <Gold.Chemscore.DEClash>
1.1607

> <Gold.Chemscore.DEInternal>
1.7248

> <Gold.Chemscore.Rot>
1.7596

> <Gold.Chemscore.Internal.Correction>
   9.000000E+99

> <Gold.Chemscore.Hbonds>
donor molecule, donor type, donor heavy atom, donor atom, acceptor molecule, acceptor atom, score
      L1  H    12    33       P1  7948  0.66
      L1  H    20    46       P1  7948  0.87
      P1  H  7997  8008       L1     4  0.94

> <Gold.Chemscore.Hbond.Weighted>
-9.9271

> <Gold.Chemscore.Metal.Weighted>
-0.0000

> <Gold.Chemscore.Lipo.Weighted>
-9.8397

> <Gold.Chemscore.Internal_Hbond.Weighted>
0.0000

> <Gold.Chemscore.DEClash.Weighted>
1.1607

> <Gold.Chemscore.DEInternal.Weighted>
1.7248

> <Gold.Chemscore.Rot.Weighted>
4.5045

> <Gold.Chemscore.Internal.Correction.Weighted>
   9.000000E+99

> <Gold.Protein.RotatedTorsions>
[ 6907 6896 6895 6894 ] final -167.12 input  -60.11 | X-H torsion
[ 7974 7965 7964 7962 ] final  151.25 input  175.53 | X-H torsion
[ 8008 7997 7996 7995 ] final  -99.49 input   59.86 | X-H torsion
[ 10167 10162 10161 10158 ] final   57.60 input  -65.29 | X-H torsion
[ 10718 10713 10712 10709 ] final -120.51 input   66.30 | X-H torsion
[ 10763 10752 10751 10750 ] final    7.48 input  -60.55 | X-H torsion
[ 11005 11000 10999 10996 ] final -164.31 input  -57.11 | X-H torsion

> <Gold.Protein.ActiveResidues>
 VAL166  LYS551  ARG553  GLY616  TRP617  ASP618  TYR619  PRO620  LYS621  CYS622 
 ASP623  PHE694  ASN695  SER759  ASP760  ASP761  ALA762  ILE779  LEU786  VAL792 
 PHE793  MET794  SER795  GLU796  ALA797  LYS798  CYS799  TRP800  GLU811  SER814 

> <Gold.Protein.RotatedAtoms>
  151.4545  133.3609  159.2799 H   0  0  0  0  0  0  0  0  0  0  0  0  # atno 6907 bound_to 6896
  150.9068  134.8485  159.7409 H   0  0  0  0  0  0  0  0  0  0  0  0  # atno 6908 bound_to 6896
  152.4910  134.4470  159.9614 H   0  0  0  0  0  0  0  0  0  0  0  0  # atno 6909 bound_to 6896
  144.8306  139.6513  143.6060 H   0  0  0  0  0  0  0  0  0  0  0  0  # atno 7974 bound_to 7965
  154.8155  140.0447  157.1373 H   0  0  0  0  0  0  0  0  0  0  0  0  # atno 8008 bound_to 7997
  154.9319  140.3041  155.5143 H   0  0  0  0  0  0  0  0  0  0  0  0  # atno 8009 bound_to 7997
  156.2975  140.2321  156.4380 H   0  0  0  0  0  0  0  0  0  0  0  0  # atno 8010 bound_to 7997
  140.1962  144.4035  150.6549 H   0  0  0  0  0  0  0  0  0  0  0  0  # atno 10167 bound_to 10162
  156.1264  130.6362  150.9549 H   0  0  0  0  0  0  0  0  0  0  0  0  # atno 10718 bound_to 10713
  153.2359  135.6898  153.7838 H   0  0  0  0  0  0  0  0  0  0  0  0  # atno 10763 bound_to 10752
  153.6985  135.3301  155.3220 H   0  0  0  0  0  0  0  0  0  0  0  0  # atno 10764 bound_to 10752
  154.8334  135.4562  154.1262 H   0  0  0  0  0  0  0  0  0  0  0  0  # atno 10765 bound_to 10752
  140.5883  134.5071  157.5189 H   0  0  0  0  0  0  0  0  0  0  0  0  # atno 11005 bound_to 11000
  146.2609  139.6408  142.9363 LP  0  0  0  0  0  0  0  0  0  0  0  0  # atno 17320 bound_to 7965
  145.4905  141.0438  143.2596 LP  0  0  0  0  0  0  0  0  0  0  0  0  # atno 17321 bound_to 7965
  140.6422  143.2206  151.6265 LP  0  0  0  0  0  0  0  0  0  0  0  0  # atno 17342 bound_to 10162
  139.5235  144.3130  152.0977 LP  0  0  0  0  0  0  0  0  0  0  0  0  # atno 17343 bound_to 10162
  157.6445  131.0906  150.8182 LP  0  0  0  0  0  0  0  0  0  0  0  0  # atno 17370 bound_to 10713
  156.8272  130.5004  149.5336 LP  0  0  0  0  0  0  0  0  0  0  0  0  # atno 17371 bound_to 10713
  139.9285  134.8008  156.0997 LP  0  0  0  0  0  0  0  0  0  0  0  0  # atno 17394 bound_to 11000
  141.0951  133.6699  156.2628 LP  0  0  0  0  0  0  0  0  0  0  0  0  # atno 17395 bound_to 11000

$$$$
