AV-unprocessed.smi:206|AV-procd|sdf|1601|dock8
  -GOLD-   2262019513D 1   1.00000     0.00000
 Structure written by MMmdl.
 47 50  0  0  0  0  0  0  0  0  1 V2000
  152.9086  132.2866  157.9803 O   0  0  0  0  0  0  0  0  0  0  0  0
  152.5163  131.6161  157.0266 C   0  0  0  0  0  0  0  0  0  0  0  0
  151.1612  131.8177  156.3736 C   0  0  0  0  0  0  0  0  0  0  0  0
  151.2075  130.8289  155.3033 N   0  0  0  0  0  0  0  0  0  0  0  0
  150.1564  130.5751  154.4815 C   0  0  0  0  0  0  0  0  0  0  0  0
  149.8874  129.2806  154.1673 N   0  0  0  0  0  0  0  0  0  0  0  0
  148.8658  128.9740  153.3637 C   0  0  0  0  0  0  0  0  0  0  0  0
  147.9970  129.7937  152.7713 N   0  0  0  0  0  0  0  0  0  0  0  0
  148.2556  131.0964  153.0798 C   0  0  0  0  0  0  0  0  0  0  0  0
  149.3025  131.5726  153.9223 C   0  0  0  0  0  0  0  0  0  0  0  0
  149.2338  132.9589  154.0068 N   0  0  0  0  0  0  0  0  0  0  0  0
  148.2106  133.2806  153.2646 C   0  0  0  0  0  0  0  0  0  0  0  0
  147.5732  132.2241  152.6541 N   0  0  0  0  0  0  0  0  0  0  0  0
  146.4139  132.2815  151.8077 C   0  0  0  0  0  0  0  0  0  0  0  0
  146.2474  133.3569  150.7285 C   0  0  0  0  0  0  0  0  0  0  0  0
  144.7354  133.4470  151.0379 C   0  0  0  0  0  0  0  0  0  0  0  0
  144.1849  134.8724  151.2008 C   0  0  0  0  0  0  0  0  0  0  0  0
  144.1999  135.5762  149.9755 O   0  0  0  0  0  0  0  0  0  0  0  0
  143.7753  132.6948  150.0894 C   0  0  0  0  0  0  0  0  0  0  0  0
  142.4910  132.4905  150.6432 O   0  0  0  0  0  0  0  0  0  0  0  0
  145.0680  132.7393  152.3714 C   0  0  0  0  0  0  0  0  0  0  0  0
  152.4486  130.0669  155.3005 C   0  0  0  0  0  0  0  0  0  0  0  0
  153.1888  130.6345  156.4154 N   0  0  0  0  0  0  0  0  0  0  0  0
  154.5288  130.1549  156.7460 C   0  0  0  0  0  0  0  0  0  0  0  0
  155.6156  130.8002  155.8676 C   0  0  0  0  0  0  0  0  0  0  0  0
  156.7692  130.1651  156.0693 F   0  0  0  0  0  0  0  0  0  0  0  0
  155.3058  130.7124  154.5744 F   0  0  0  0  0  0  0  0  0  0  0  0
  155.7746  132.0829  156.1942 F   0  0  0  0  0  0  0  0  0  0  0  0
  150.3576  131.6123  157.0819 H   0  0  0  0  0  0  0  0  0  0  0  0
  151.0621  132.8303  155.9811 H   0  0  0  0  0  0  0  0  0  0  0  0
  148.7260  127.9215  153.1653 H   0  0  0  0  0  0  0  0  0  0  0  0
  147.8943  134.3065  153.1476 H   0  0  0  0  0  0  0  0  0  0  0  0
  146.3167  131.2947  151.3535 H   0  0  0  0  0  0  0  0  0  0  0  0
  146.7768  134.2827  150.9555 H   0  0  0  0  0  0  0  0  0  0  0  0
  146.4843  133.0163  149.7200 H   0  0  0  0  0  0  0  0  0  0  0  0
  143.1660  134.8601  151.5895 H   0  0  0  0  0  0  0  0  0  0  0  0
  144.7796  135.4406  151.9169 H   0  0  0  0  0  0  0  0  0  0  0  0
  144.8999  135.2342  149.4403 H   0  0  0  0  0  0  0  0  0  0  0  0
  143.6489  133.2431  149.1553 H   0  0  0  0  0  0  0  0  0  0  0  0
  144.1735  131.7152  149.8240 H   0  0  0  0  0  0  0  0  0  0  0  0
  141.9754  133.2699  150.5023 H   0  0  0  0  0  0  0  0  0  0  0  0
  144.3958  131.9234  152.6390 H   0  0  0  0  0  0  0  0  0  0  0  0
  145.1851  133.4326  153.2059 H   0  0  0  0  0  0  0  0  0  0  0  0
  152.2631  129.0047  155.4657 H   0  0  0  0  0  0  0  0  0  0  0  0
  152.9939  130.2038  154.3657 H   0  0  0  0  0  0  0  0  0  0  0  0
  154.7321  130.3685  157.7963 H   0  0  0  0  0  0  0  0  0  0  0  0
  154.5628  129.0689  156.6449 H   0  0  0  0  0  0  0  0  0  0  0  0
  1  2  2  0  0  0  0
  2 23  1  0  0  0  0
  2  3  1  0  0  0  0
  3  4  1  0  0  0  0
  3 29  1  0  0  0  0
  3 30  1  0  0  0  0
  4  5  1  0  0  0  0
  4 22  1  0  0  0  0
  5 10  1  0  0  0  0
  5  6  2  0  0  0  0
  6  7  1  0  0  0  0
  7  8  2  0  0  0  0
  7 31  1  0  0  0  0
  8  9  1  0  0  0  0
  9 13  1  0  0  0  0
  9 10  2  0  0  0  0
 10 11  1  0  0  0  0
 11 12  2  0  0  0  0
 12 13  1  0  0  0  0
 12 32  1  0  0  0  0
 13 14  1  0  0  0  0
 14 21  1  0  0  0  0
 14 15  1  0  0  0  0
 14 33  1  0  0  0  0
 15 16  1  0  0  0  0
 15 34  1  0  0  0  0
 15 35  1  0  0  0  0
 16 17  1  0  0  0  0
 16 19  1  0  0  0  0
 16 21  1  0  0  0  0
 17 18  1  0  0  0  0
 17 36  1  0  0  0  0
 17 37  1  0  0  0  0
 18 38  1  0  0  0  0
 19 20  1  0  0  0  0
 19 39  1  0  0  0  0
 19 40  1  0  0  0  0
 20 41  1  0  0  0  0
 21 42  1  0  0  0  0
 21 43  1  0  0  0  0
 22 23  1  0  0  0  0
 22 44  1  0  0  0  0
 22 45  1  0  0  0  0
 23 24  1  0  0  0  0
 24 25  1  0  0  0  0
 24 46  1  0  0  0  0
 24 47  1  0  0  0  0
 25 26  1  0  0  0  0
 25 27  1  0  0  0  0
 25 28  1  0  0  0  0
M  END
> <s_m_source_file>
AV-unprocessed.smi

> <i_m_source_file_index>
206

> <i_lp_mmshare_version>
43012

> <i_f3d_flags>
0

> <s_epik_input>
RkMoRikoRilbQ0gyXU4xW0NIMl1OKFtDSDJdQzE9TyljKG5bY0hdbjIpYyhjMjMpbltjSF1uM1tDSF0oW0NIMl00KVtDSDJdQzQoW0NIMl1bT0hdKVtDSDJdW09IXQ==

> <s_epik_cmdline>
J2VwaWtfcHl0aG9uJywgJy1waCcsICc3LjAnLCAnLXRuJywgJzgnLCAnLW1hJywgJzIwMCcsICctbWV0YWxfYmluZGluZycsICctaW1hZScsICc8aW5maWxlLm1hZT4nLCAnLW9tYWUnLCAnPG91dGZpbGUubWFlPic=

> <r_lp_tautomer_probability>
1

> <r_epik_Ionization_Penalty>
0.000251167

> <r_epik_Ionization_Penalty_Charging>
0

> <r_epik_Ionization_Penalty_Neutral>
0.000251167

> <r_epik_State_Penalty>
-0

> <r_epik_Charging_Adjusted_Penalty>
0

> <i_epik_Tot_Q>
0

> <i_epik_Tot_abs_Q>
0

> <r_epik_Metal_State_Penalty>
-0

> <b_epik_Metal_Only>
0

> <s_epik_Chemistry_Notes>
This compound contains an acetal/aminal-like group ( X-CH(R)-Y where X, Y are N, S, or O) that may be acid/base labile, releasing an aldehyde.

> <s_lp_Force_Field>
OPLS_2005

> <r_lp_Energy>
40.1188

> <b_lp_Chiralities_Consistent>
1

> <s_lp_Variant>
AV-unprocessed.smi:206-1

> <Gold.Version>
5.8.1

> <Gold.Id.Protein>
6NUR|6NUR_protein|mol2

> <Gold.PLP.Fitness>
55.4115

> <Gold.PLP.PLP>
-45.8141

> <Gold.PLP.part.hbond>
-4.4683

> <Gold.PLP.part.metal>
0.0000

> <Gold.PLP.part.buried>
-4.0291

> <Gold.PLP.part.nonpolar>
-38.3498

> <Gold.PLP.part.repulsive>
0.3262

> <Gold.PLP.ligand.clash>
0.0000

> <Gold.PLP.ligand.torsion>
1.4489

> <Gold.PLP.Chemscore.Hbond>
3.0000

> <Gold.PLP.Chemscore.CHOScore>
1.0000

> <Gold.PLP.Chemscore.Metal>
0.0000

> <Gold.Chemscore.Hbonds>
donor molecule, donor type, donor heavy atom, donor atom, acceptor molecule, acceptor atom, score
      L1  H    18    38       P1  7921  0.52
      L1  H    20    41       P1 10186  1.00
      P1  H  6896  6909       L1     1  1.00
      L1  C    12    32       P1  7948  0.99

> <Gold.PLP.Chemscore.Internal.Correction>
0.4953

> <Gold.Rescore>
     Score         DG    S(hbond)    S(metal)    S(lipo)     H(rot)  DE(clash)    DE(int)     intcor
     10.58     -12.42       2.93        0.00      58.52       3.79       0.03       1.81       ----

> <Gold.Chemscore.Fitness>
10.5816

> <Gold.Chemscore.DG>
-12.4156

> <Gold.Chemscore.ZeroCoef>
-5.4800

> <Gold.Chemscore.Hbond>
2.9339

> <Gold.Chemscore.Metal>
0.0000

> <Gold.Chemscore.Lipo>
58.5226

> <Gold.Chemscore.Internal_Hbond>
0.0000

> <Gold.Chemscore.DEClash>
0.0287

> <Gold.Chemscore.DEInternal>
1.8053

> <Gold.Chemscore.Rot>
3.7932

> <Gold.Chemscore.Internal.Correction>
   9.000000E+99

> <Gold.Chemscore.Hbonds>
donor molecule, donor type, donor heavy atom, donor atom, acceptor molecule, acceptor atom, score
      L1  H    18    38       P1  7921  0.52
      L1  H    20    41       P1 10186  0.98
      P1  H  6896  6909       L1     1  0.94

> <Gold.Chemscore.Hbond.Weighted>
-9.7992

> <Gold.Chemscore.Metal.Weighted>
-0.0000

> <Gold.Chemscore.Lipo.Weighted>
-6.8471

> <Gold.Chemscore.Internal_Hbond.Weighted>
0.0000

> <Gold.Chemscore.DEClash.Weighted>
0.0287

> <Gold.Chemscore.DEInternal.Weighted>
1.8053

> <Gold.Chemscore.Rot.Weighted>
9.7107

> <Gold.Chemscore.Internal.Correction.Weighted>
   9.000000E+99

> <Gold.Protein.RotatedTorsions>
[ 6907 6896 6895 6894 ] final  -96.80 input  -60.11 | X-H torsion
[ 7974 7965 7964 7962 ] final   78.72 input  175.53 | X-H torsion
[ 8008 7997 7996 7995 ] final  131.59 input   59.86 | X-H torsion
[ 10167 10162 10161 10158 ] final   -8.27 input  -65.29 | X-H torsion
[ 10718 10713 10712 10709 ] final   -9.06 input   66.30 | X-H torsion
[ 10763 10752 10751 10750 ] final  -55.18 input  -60.55 | X-H torsion
[ 11005 11000 10999 10996 ] final  117.24 input  -57.11 | X-H torsion

> <Gold.Protein.ActiveResidues>
 VAL166  LYS551  ARG553  GLY616  TRP617  ASP618  TYR619  PRO620  LYS621  CYS622 
 ASP623  PHE694  ASN695  SER759  ASP760  ASP761  ALA762  ILE779  LEU786  VAL792 
 PHE793  MET794  SER795  GLU796  ALA797  LYS798  CYS799  TRP800  GLU811  SER814 

> <Gold.Protein.RotatedAtoms>
  150.6998  134.1447  159.4117 H   0  0  0  0  0  0  0  0  0  0  0  0  # atno 6907 bound_to 6896
  151.9431  135.0202  160.0546 H   0  0  0  0  0  0  0  0  0  0  0  0  # atno 6908 bound_to 6896
  152.2076  133.4852  159.5129 H   0  0  0  0  0  0  0  0  0  0  0  0  # atno 6909 bound_to 6896
  145.6735  139.2503  143.1855 H   0  0  0  0  0  0  0  0  0  0  0  0  # atno 7974 bound_to 7965
  156.2972  140.2567  156.2951 H   0  0  0  0  0  0  0  0  0  0  0  0  # atno 8008 bound_to 7997
  154.9472  140.0395  157.2145 H   0  0  0  0  0  0  0  0  0  0  0  0  # atno 8009 bound_to 7997
  154.8070  140.2838  155.5885 H   0  0  0  0  0  0  0  0  0  0  0  0  # atno 8010 bound_to 7997
  140.7054  143.5987  150.8819 H   0  0  0  0  0  0  0  0  0  0  0  0  # atno 10167 bound_to 10162
  156.6935  130.5072  149.5937 H   0  0  0  0  0  0  0  0  0  0  0  0  # atno 10718 bound_to 10713
  154.1867  135.6434  153.5049 H   0  0  0  0  0  0  0  0  0  0  0  0  # atno 10763 bound_to 10752
  153.0045  135.5419  154.6458 H   0  0  0  0  0  0  0  0  0  0  0  0  # atno 10764 bound_to 10752
  154.5836  135.2927  155.0680 H   0  0  0  0  0  0  0  0  0  0  0  0  # atno 10765 bound_to 10752
  139.9067  134.9608  156.7320 H   0  0  0  0  0  0  0  0  0  0  0  0  # atno 11005 bound_to 11000
  146.1025  140.7526  142.9542 LP  0  0  0  0  0  0  0  0  0  0  0  0  # atno 17320 bound_to 7965
  144.7049  140.3810  143.7126 LP  0  0  0  0  0  0  0  0  0  0  0  0  # atno 17321 bound_to 7965
  139.9712  143.6055  152.2973 LP  0  0  0  0  0  0  0  0  0  0  0  0  # atno 17342 bound_to 10162
  139.6642  144.7662  151.1905 LP  0  0  0  0  0  0  0  0  0  0  0  0  # atno 17343 bound_to 10162
  156.1780  130.6480  151.0917 LP  0  0  0  0  0  0  0  0  0  0  0  0  # atno 17370 bound_to 10713
  157.7000  131.0779  150.6851 LP  0  0  0  0  0  0  0  0  0  0  0  0  # atno 17371 bound_to 10713
  140.6918  133.9384  155.7970 LP  0  0  0  0  0  0  0  0  0  0  0  0  # atno 17394 bound_to 11000
  141.0436  134.0586  157.3871 LP  0  0  0  0  0  0  0  0  0  0  0  0  # atno 17395 bound_to 11000

$$$$
