AV-unprocessed.smi:2372|AV-procd|sdf|9438|dock1
  -GOLD-   2272013 63D 1   1.00000     0.00000
 Structure written by MMmdl.
 34 35  0  0  0  0  0  0  0  0  1 V2000
  150.6722  140.5099  156.1466 O   0  0  0  0  0  0  0  0  0  0  0  0
  150.1667  141.6319  156.1566 C   0  0  0  0  0  0  0  0  0  0  0  0
  149.2136  142.0180  155.2965 N   0  0  0  0  0  0  0  0  0  0  0  0
  148.6408  141.1746  154.2544 C   0  0  0  0  0  0  0  0  0  0  0  0
  147.5387  141.9109  153.4716 C   0  0  0  0  0  0  0  0  0  0  0  0
  146.4450  142.3130  154.3473 N   0  0  0  0  0  0  0  0  0  0  0  0
  145.6027  143.3300  154.1089 C   0  0  0  0  0  0  0  0  0  0  0  0
  145.6825  144.0478  153.1109 O   0  0  0  0  0  0  0  0  0  0  0  0
  144.5552  143.5085  155.1587 C   0  0  0  0  0  0  0  0  0  0  0  0
  144.4324  144.8763  155.7991 C   0  0  0  0  0  0  0  0  0  0  0  0
  145.0162  143.7296  156.5851 C   0  0  0  0  0  0  0  0  0  0  0  0
  150.4964  142.6280  156.9966 N   0  0  0  0  0  0  0  0  0  0  0  0
  151.4540  142.6257  158.0478 C   0  0  0  0  0  0  0  0  0  0  0  0
  152.1228  141.4668  158.5115 C   0  0  0  0  0  0  0  0  0  0  0  0
  153.0395  141.5963  159.5741 C   0  0  0  0  0  0  0  0  0  0  0  0
  153.3108  142.7693  160.1843 N   0  0  0  0  0  0  0  0  0  0  0  0
  152.6609  143.8695  159.7494 C   0  0  0  0  0  0  0  0  0  0  0  0
  151.7262  143.8499  158.6947 C   0  0  0  0  0  0  0  0  0  0  0  0
  151.1056  144.9915  158.3099 F   0  0  0  0  0  0  0  0  0  0  0  0
  148.8566  142.9596  155.3687 H   0  0  0  0  0  0  0  0  0  0  0  0
  149.4288  140.8285  153.5831 H   0  0  0  0  0  0  0  0  0  0  0  0
  148.2269  140.2852  154.7304 H   0  0  0  0  0  0  0  0  0  0  0  0
  147.9482  142.8090  153.0086 H   0  0  0  0  0  0  0  0  0  0  0  0
  147.1558  141.2903  152.6595 H   0  0  0  0  0  0  0  0  0  0  0  0
  146.3127  141.7740  155.1906 H   0  0  0  0  0  0  0  0  0  0  0  0
  143.6314  142.9473  155.0253 H   0  0  0  0  0  0  0  0  0  0  0  0
  145.1147  145.6632  155.4814 H   0  0  0  0  0  0  0  0  0  0  0  0
  143.4300  145.2136  156.0542 H   0  0  0  0  0  0  0  0  0  0  0  0
  144.4092  143.2904  157.3740 H   0  0  0  0  0  0  0  0  0  0  0  0
  146.0854  143.7554  156.7888 H   0  0  0  0  0  0  0  0  0  0  0  0
  150.0486  143.5167  156.8278 H   0  0  0  0  0  0  0  0  0  0  0  0
  151.9467  140.4900  158.0888 H   0  0  0  0  0  0  0  0  0  0  0  0
  153.5648  140.7301  159.9484 H   0  0  0  0  0  0  0  0  0  0  0  0
  152.8912  144.7936  160.2585 H   0  0  0  0  0  0  0  0  0  0  0  0
  1  2  2  0  0  0  0
  2  3  1  0  0  0  0
  2 12  1  0  0  0  0
  3  4  1  0  0  0  0
  3 20  1  0  0  0  0
  4  5  1  0  0  0  0
  4 21  1  0  0  0  0
  4 22  1  0  0  0  0
  5  6  1  0  0  0  0
  5 23  1  0  0  0  0
  5 24  1  0  0  0  0
  6  7  1  0  0  0  0
  6 25  1  0  0  0  0
  7  8  2  0  0  0  0
  7  9  1  0  0  0  0
  9 11  1  0  0  0  0
  9 10  1  0  0  0  0
  9 26  1  0  0  0  0
 10 11  1  0  0  0  0
 10 27  1  0  0  0  0
 10 28  1  0  0  0  0
 11 29  1  0  0  0  0
 11 30  1  0  0  0  0
 12 13  1  0  0  0  0
 12 31  1  0  0  0  0
 13 18  1  0  0  0  0
 13 14  2  0  0  0  0
 14 15  1  0  0  0  0
 14 32  1  0  0  0  0
 15 16  2  0  0  0  0
 15 33  1  0  0  0  0
 16 17  1  0  0  0  0
 17 18  2  0  0  0  0
 17 34  1  0  0  0  0
 18 19  1  0  0  0  0
M  END
> <s_m_source_file>
AV-unprocessed.smi

> <i_m_source_file_index>
2372

> <i_lp_mmshare_version>
43012

> <i_f3d_flags>
0

> <s_epik_input>
RmMxW2NIXW5bY0hdW2NIXWMxW05IXUMoPU8pW05IXVtDSDJdW0NIMl1bTkhdQyg9TylbQ0hdMltDSDJdW0NIMl0y

> <s_epik_cmdline>
J2VwaWtfcHl0aG9uJywgJy1waCcsICc3LjAnLCAnLXRuJywgJzgnLCAnLW1hJywgJzIwMCcsICctbWV0YWxfYmluZGluZycsICctaW1hZScsICc8aW5maWxlLm1hZT4nLCAnLW9tYWUnLCAnPG91dGZpbGUubWFlPic=

> <r_epik_Ionization_Penalty>
0.00312497

> <r_epik_Ionization_Penalty_Charging>
0

> <r_epik_Ionization_Penalty_Neutral>
0.00312497

> <r_epik_State_Penalty>
0.00217604

> <r_epik_Charging_Adjusted_Penalty>
0.00217604

> <i_epik_Tot_Q>
0

> <i_epik_Tot_abs_Q>
0

> <r_epik_Metal_State_Penalty>
-0

> <b_epik_Metal_Only>
0

> <s_lp_Force_Field>
OPLS_2005

> <r_lp_Energy>
8.30989

> <b_lp_Chiralities_Consistent>
1

> <s_lp_Variant>
AV-unprocessed.smi:2372-1

> <Gold.Version>
5.8.1

> <Gold.Id.Protein>
6NUR|6NUR_protein|mol2

> <Gold.PLP.Fitness>
44.0146

> <Gold.PLP.PLP>
-38.3549

> <Gold.PLP.part.hbond>
-2.5105

> <Gold.PLP.part.metal>
0.0000

> <Gold.PLP.part.buried>
-7.9148

> <Gold.PLP.part.nonpolar>
-28.1237

> <Gold.PLP.part.repulsive>
0.5113

> <Gold.PLP.ligand.clash>
0.0000

> <Gold.PLP.ligand.torsion>
0.2283

> <Gold.PLP.Chemscore.Hbond>
2.0000

> <Gold.PLP.Chemscore.CHOScore>
0.0000

> <Gold.PLP.Chemscore.Metal>
0.0000

> <Gold.Chemscore.Hbonds>
donor molecule, donor type, donor heavy atom, donor atom, acceptor molecule, acceptor atom, score
      L1  H     3    20       P1  8028  1.00
      L1  H    12    31       P1  8028  0.99

> <Gold.PLP.Chemscore.Internal.Correction>
0.1163

> <Gold.Rescore>
     Score         DG    S(hbond)    S(metal)    S(lipo)     H(rot)  DE(clash)    DE(int)     intcor
     14.57     -16.29       1.95        0.00      79.64       1.96       0.28       1.43       ----

> <Gold.Chemscore.Fitness>
14.5746

> <Gold.Chemscore.DG>
-16.2868

> <Gold.Chemscore.ZeroCoef>
-5.4800

> <Gold.Chemscore.Hbond>
1.9506

> <Gold.Chemscore.Metal>
0.0000

> <Gold.Chemscore.Lipo>
79.6377

> <Gold.Chemscore.Internal_Hbond>
0.0000

> <Gold.Chemscore.DEClash>
0.2772

> <Gold.Chemscore.DEInternal>
1.4350

> <Gold.Chemscore.Rot>
1.9632

> <Gold.Chemscore.Internal.Correction>
   9.000000E+99

> <Gold.Chemscore.Hbonds>
donor molecule, donor type, donor heavy atom, donor atom, acceptor molecule, acceptor atom, score
      L1  H     3    20       P1  8028  0.99
      L1  H    12    31       P1  8028  0.88

> <Gold.Chemscore.Hbond.Weighted>
-6.5149

> <Gold.Chemscore.Metal.Weighted>
-0.0000

> <Gold.Chemscore.Lipo.Weighted>
-9.3176

> <Gold.Chemscore.Internal_Hbond.Weighted>
0.0000

> <Gold.Chemscore.DEClash.Weighted>
0.2772

> <Gold.Chemscore.DEInternal.Weighted>
1.4350

> <Gold.Chemscore.Rot.Weighted>
5.0257

> <Gold.Chemscore.Internal.Correction.Weighted>
   9.000000E+99

> <Gold.Protein.RotatedTorsions>
[ 6907 6896 6895 6894 ] final  112.55 input  -60.11 | X-H torsion
[ 7974 7965 7964 7962 ] final   21.83 input  175.53 | X-H torsion
[ 8008 7997 7996 7995 ] final -148.64 input   59.86 | X-H torsion
[ 10167 10162 10161 10158 ] final  -96.40 input  -65.29 | X-H torsion
[ 10718 10713 10712 10709 ] final -167.41 input   66.30 | X-H torsion
[ 10763 10752 10751 10750 ] final  100.52 input  -60.55 | X-H torsion
[ 11005 11000 10999 10996 ] final  -95.12 input  -57.11 | X-H torsion

> <Gold.Protein.ActiveResidues>
 VAL166  LYS551  ARG553  GLY616  TRP617  ASP618  TYR619  PRO620  LYS621  CYS622 
 ASP623  PHE694  ASN695  SER759  ASP760  ASP761  ALA762  ILE779  LEU786  VAL792 
 PHE793  MET794  SER795  GLU796  ALA797  LYS798  CYS799  TRP800  GLU811  SER814 

> <Gold.Protein.RotatedAtoms>
  152.4910  133.8500  159.7196 H   0  0  0  0  0  0  0  0  0  0  0  0  # atno 6907 bound_to 6896
  150.9040  133.7073  159.2878 H   0  0  0  0  0  0  0  0  0  0  0  0  # atno 6908 bound_to 6896
  151.4505  135.1033  159.9748 H   0  0  0  0  0  0  0  0  0  0  0  0  # atno 6909 bound_to 6896
  146.2055  139.7971  142.8729 H   0  0  0  0  0  0  0  0  0  0  0  0  # atno 7974 bound_to 7965
  155.5948  140.0656  157.2749 H   0  0  0  0  0  0  0  0  0  0  0  0  # atno 8008 bound_to 7997
  154.4295  140.1829  156.1159 H   0  0  0  0  0  0  0  0  0  0  0  0  # atno 8009 bound_to 7997
  156.0205  140.3317  155.7037 H   0  0  0  0  0  0  0  0  0  0  0  0  # atno 8010 bound_to 7997
  140.2942  143.3202  152.0315 H   0  0  0  0  0  0  0  0  0  0  0  0  # atno 10167 bound_to 10162
  156.6820  130.9126  151.3058 H   0  0  0  0  0  0  0  0  0  0  0  0  # atno 10718 bound_to 10713
  153.3150  135.4076  155.1369 H   0  0  0  0  0  0  0  0  0  0  0  0  # atno 10763 bound_to 10752
  154.8586  135.3574  154.5672 H   0  0  0  0  0  0  0  0  0  0  0  0  # atno 10764 bound_to 10752
  153.6103  135.7068  153.5408 H   0  0  0  0  0  0  0  0  0  0  0  0  # atno 10765 bound_to 10752
  141.1451  133.8004  157.0392 H   0  0  0  0  0  0  0  0  0  0  0  0  # atno 11005 bound_to 11000
  145.3336  141.0272  143.3432 LP  0  0  0  0  0  0  0  0  0  0  0  0  # atno 17320 bound_to 7965
  144.8782  139.4942  143.6736 LP  0  0  0  0  0  0  0  0  0  0  0  0  # atno 17321 bound_to 7965
  139.4930  144.6503  151.6690 LP  0  0  0  0  0  0  0  0  0  0  0  0  # atno 17342 bound_to 10162
  140.5706  144.0115  150.6215 LP  0  0  0  0  0  0  0  0  0  0  0  0  # atno 17343 bound_to 10162
  157.7040  130.9364  150.0872 LP  0  0  0  0  0  0  0  0  0  0  0  0  # atno 17370 bound_to 10713
  156.1860  130.3652  149.8972 LP  0  0  0  0  0  0  0  0  0  0  0  0  # atno 17371 bound_to 10713
  140.0704  134.9705  157.1457 LP  0  0  0  0  0  0  0  0  0  0  0  0  # atno 17394 bound_to 11000
  140.3719  134.2381  155.7177 LP  0  0  0  0  0  0  0  0  0  0  0  0  # atno 17395 bound_to 11000

$$$$
