AV-unprocessed.smi:1959|AV-procd|sdf|7914|dock5
  -GOLD-   2272010 83D 1   1.00000     0.00000
 Structure written by MMmdl.
 45 46  0  0  0  0  0  0  0  0  2 V2000
  154.3207  140.6557  160.4574 C   0  0  0  0  0  0  0  0  0  0  0  0
  153.4376  141.7948  160.0415 C   0  0  0  0  0  0  0  0  0  0  0  0
  153.1298  142.9809  160.7651 C   0  0  0  0  0  0  0  0  0  0  0  0
  152.2944  143.6747  159.9360 C   0  0  0  0  0  0  0  0  0  0  0  0
  151.6309  144.9991  160.1244 C   0  0  0  0  0  0  0  0  0  0  0  0
  152.1362  142.9098  158.7942 N   0  0  0  0  0  0  0  0  0  0  0  0
  151.3523  143.1941  157.6012 C   0  0  0  0  0  0  0  0  0  0  0  0
  150.7599  141.9291  156.9692 C   0  0  0  0  0  0  0  0  0  0  0  0
  151.0425  140.8108  157.4013 O   0  0  0  0  0  0  0  0  0  0  0  0
  149.9118  142.1274  155.9476 N   0  0  0  0  0  0  0  0  0  0  0  0
  149.2154  141.0851  155.1923 C   0  0  2  0  0  0  0  0  0  0  0  0
  150.2515  140.1364  154.5750 C   0  0  0  0  0  0  0  0  0  0  0  0
  148.2993  141.6989  154.1087 C   0  0  0  0  0  0  0  0  0  0  0  0
  147.1882  142.5046  154.6756 N   0  3  0  0  0  0  0  0  0  0  0  0
  146.0921  142.7463  153.7087 C   0  0  0  0  0  0  0  0  0  0  0  0
  145.0169  143.6486  154.3379 C   0  0  0  0  0  0  0  0  0  0  0  0
  144.5320  143.0524  155.5348 O   0  0  0  0  0  0  0  0  0  0  0  0
  145.5608  142.8885  156.5038 C   0  0  0  0  0  0  0  0  0  0  0  0
  146.6497  141.9578  155.9448 C   0  0  0  0  0  0  0  0  0  0  0  0
  152.8379  141.7572  158.8626 N   0  0  0  0  0  0  0  0  0  0  0  0
  154.7017  140.8012  161.4683 H   0  0  0  0  0  0  0  0  0  0  0  0
  155.1778  140.5608  159.7906 H   0  0  0  0  0  0  0  0  0  0  0  0
  153.7776  139.7105  160.4409 H   0  0  0  0  0  0  0  0  0  0  0  0
  153.4723  143.2784  161.7452 H   0  0  0  0  0  0  0  0  0  0  0  0
  151.9403  145.4600  161.0625 H   0  0  0  0  0  0  0  0  0  0  0  0
  150.5464  144.8904  160.1460 H   0  0  0  0  0  0  0  0  0  0  0  0
  151.8892  145.6823  159.3151 H   0  0  0  0  0  0  0  0  0  0  0  0
  150.5427  143.8792  157.8580 H   0  0  0  0  0  0  0  0  0  0  0  0
  151.9870  143.7105  156.8801 H   0  0  0  0  0  0  0  0  0  0  0  0
  149.7411  143.0810  155.6615 H   0  0  0  0  0  0  0  0  0  0  0  0
  148.6114  140.4873  155.8764 H   0  0  0  0  0  0  0  0  0  0  0  0
  149.7653  139.3238  154.0344 H   0  0  0  0  0  0  0  0  0  0  0  0
  150.8805  139.6874  155.3446 H   0  0  0  0  0  0  0  0  0  0  0  0
  150.9036  140.6585  153.8740 H   0  0  0  0  0  0  0  0  0  0  0  0
  148.9129  142.3378  153.4714 H   0  0  0  0  0  0  0  0  0  0  0  0
  147.8944  140.9226  153.4573 H   0  0  0  0  0  0  0  0  0  0  0  0
  146.4873  143.2222  152.8105 H   0  0  0  0  0  0  0  0  0  0  0  0
  145.6541  141.7944  153.4038 H   0  0  0  0  0  0  0  0  0  0  0  0
  145.4165  144.6422  154.5483 H   0  0  0  0  0  0  0  0  0  0  0  0
  144.1848  143.7802  153.6462 H   0  0  0  0  0  0  0  0  0  0  0  0
  145.9797  143.8586  156.7768 H   0  0  0  0  0  0  0  0  0  0  0  0
  145.1296  142.4612  157.4091 H   0  0  0  0  0  0  0  0  0  0  0  0
  146.2365  140.9629  155.7715 H   0  0  0  0  0  0  0  0  0  0  0  0
  147.4467  141.8487  156.6799 H   0  0  0  0  0  0  0  0  0  0  0  0
  147.5779  143.4118  154.8905 H   0  0  0  0  0  0  0  0  0  0  0  0
  1  2  1  0  0  0  0
  1 21  1  0  0  0  0
  1 22  1  0  0  0  0
  1 23  1  0  0  0  0
  2 20  2  0  0  0  0
  2  3  1  0  0  0  0
  3  4  2  0  0  0  0
  3 24  1  0  0  0  0
  4  5  1  0  0  0  0
  4  6  1  0  0  0  0
  5 25  1  0  0  0  0
  5 26  1  0  0  0  0
  5 27  1  0  0  0  0
  6  7  1  0  0  0  0
  6 20  1  0  0  0  0
  7  8  1  0  0  0  0
  7 28  1  0  0  0  0
  7 29  1  0  0  0  0
  8  9  2  0  0  0  0
  8 10  1  0  0  0  0
 10 11  1  0  0  0  0
 10 30  1  0  0  0  0
 11 12  1  0  0  0  0
 11 13  1  0  0  0  0
 11 31  1  0  0  0  0
 12 32  1  0  0  0  0
 12 33  1  0  0  0  0
 12 34  1  0  0  0  0
 13 14  1  0  0  0  0
 13 35  1  0  0  0  0
 13 36  1  0  0  0  0
 14 19  1  0  0  0  0
 14 15  1  0  0  0  0
 14 45  1  0  0  0  0
 15 16  1  0  0  0  0
 15 37  1  0  0  0  0
 15 38  1  0  0  0  0
 16 17  1  0  0  0  0
 16 39  1  0  0  0  0
 16 40  1  0  0  0  0
 17 18  1  0  0  0  0
 18 19  1  0  0  0  0
 18 41  1  0  0  0  0
 18 42  1  0  0  0  0
 19 43  1  0  0  0  0
 19 44  1  0  0  0  0
M  CHG  1  14   1
M  END
> <s_m_source_file>
AV-unprocessed.smi

> <i_m_source_file_index>
1959

> <i_lp_mmshare_version>
43012

> <i_f3d_flags>
0

> <s_epik_input>
W0NIM11jMVtjSF1jKFtDSDNdKW4objEpW0NIMl1DKD1PKVtOSF1bQ0BIXShbQ0gzXSlbQ0gyXU4yW0NIMl1bQ0gyXU9bQ0gyXVtDSDJdMg==

> <s_epik_cmdline>
J2VwaWtfcHl0aG9uJywgJy1waCcsICc3LjAnLCAnLXRuJywgJzgnLCAnLW1hJywgJzIwMCcsICctbWV0YWxfYmluZGluZycsICctaW1hZScsICc8aW5maWxlLm1hZT4nLCAnLW9tYWUnLCAnPG91dGZpbGUubWFlPic=

> <r_lp_tautomer_probability>
1

> <r_epik_Ionization_Penalty>
0.748605

> <r_epik_Ionization_Penalty_Charging>
0.748396

> <r_epik_Ionization_Penalty_Neutral>
0.000208859

> <r_epik_State_Penalty>
0.775162

> <r_epik_Charging_Adjusted_Penalty>
1.52356

> <i_epik_Tot_Q>
1

> <i_epik_Tot_abs_Q>
1

> <r_epik_Metal_State_Penalty>
0.775281

> <b_epik_Metal_Only>
0

> <s_lp_Force_Field>
OPLS_2005

> <r_lp_Energy>
20.8934

> <b_lp_Chiralities_Consistent>
1

> <s_lp_Variant>
AV-unprocessed.smi:1959-3

> <Gold.Version>
5.8.1

> <Gold.Id.Protein>
6NUR|6NUR_protein|mol2

> <Gold.PLP.Fitness>
54.5369

> <Gold.PLP.PLP>
-46.6981

> <Gold.PLP.part.hbond>
-2.0000

> <Gold.PLP.part.metal>
0.0000

> <Gold.PLP.part.buried>
-5.9870

> <Gold.PLP.part.nonpolar>
-39.1439

> <Gold.PLP.part.repulsive>
0.4131

> <Gold.PLP.ligand.clash>
0.0000

> <Gold.PLP.ligand.torsion>
0.6236

> <Gold.PLP.Chemscore.Hbond>
3.0000

> <Gold.PLP.Chemscore.CHOScore>
0.0000

> <Gold.PLP.Chemscore.Metal>
0.0000

> <Gold.Chemscore.Hbonds>
donor molecule, donor type, donor heavy atom, donor atom, acceptor molecule, acceptor atom, score
      L1  H    10    30       P1  8028  1.00
      L1  H    14    45       P1  8028  2.00

> <Gold.PLP.Chemscore.Internal.Correction>
0.0859

> <Gold.Rescore>
     Score         DG    S(hbond)    S(metal)    S(lipo)     H(rot)  DE(clash)    DE(int)     intcor
     14.36     -18.20       1.74        0.00      98.05       1.77       1.41       2.43       ----

> <Gold.Chemscore.Fitness>
14.3646

> <Gold.Chemscore.DG>
-18.2048

> <Gold.Chemscore.ZeroCoef>
-5.4800

> <Gold.Chemscore.Hbond>
1.7351

> <Gold.Chemscore.Metal>
0.0000

> <Gold.Chemscore.Lipo>
98.0492

> <Gold.Chemscore.Internal_Hbond>
0.0000

> <Gold.Chemscore.DEClash>
1.4129

> <Gold.Chemscore.DEInternal>
2.4273

> <Gold.Chemscore.Rot>
1.7744

> <Gold.Chemscore.Internal.Correction>
   9.000000E+99

> <Gold.Chemscore.Hbonds>
donor molecule, donor type, donor heavy atom, donor atom, acceptor molecule, acceptor atom, score
      L1  H    10    30       P1  8028  0.99
      L1  H    14    45       P1  8028  0.29

> <Gold.Chemscore.Hbond.Weighted>
-5.7954

> <Gold.Chemscore.Metal.Weighted>
-0.0000

> <Gold.Chemscore.Lipo.Weighted>
-11.4718

> <Gold.Chemscore.Internal_Hbond.Weighted>
0.0000

> <Gold.Chemscore.DEClash.Weighted>
1.4129

> <Gold.Chemscore.DEInternal.Weighted>
2.4273

> <Gold.Chemscore.Rot.Weighted>
4.5424

> <Gold.Chemscore.Internal.Correction.Weighted>
   9.000000E+99

> <Gold.Protein.RotatedTorsions>
[ 6907 6896 6895 6894 ] final   -8.96 input  -60.11 | X-H torsion
[ 7974 7965 7964 7962 ] final    9.06 input  175.53 | X-H torsion
[ 8008 7997 7996 7995 ] final  144.07 input   59.86 | X-H torsion
[ 10167 10162 10161 10158 ] final -154.16 input  -65.29 | X-H torsion
[ 10718 10713 10712 10709 ] final    4.23 input   66.30 | X-H torsion
[ 10763 10752 10751 10750 ] final   92.51 input  -60.55 | X-H torsion
[ 11005 11000 10999 10996 ] final   89.14 input  -57.11 | X-H torsion

> <Gold.Protein.ActiveResidues>
 VAL166  LYS551  ARG553  GLY616  TRP617  ASP618  TYR619  PRO620  LYS621  CYS622 
 ASP623  PHE694  ASN695  SER759  ASP760  ASP761  ALA762  ILE779  LEU786  VAL792 
 PHE793  MET794  SER795  GLU796  ALA797  LYS798  CYS799  TRP800  GLU811  SER814 

> <Gold.Protein.RotatedAtoms>
  151.4254  135.1003  159.9626 H   0  0  0  0  0  0  0  0  0  0  0  0  # atno 6907 bound_to 6896
  152.4974  133.8667  159.7288 H   0  0  0  0  0  0  0  0  0  0  0  0  # atno 6908 bound_to 6896
  150.9193  133.6842  159.2864 H   0  0  0  0  0  0  0  0  0  0  0  0  # atno 6909 bound_to 6896
  146.2408  139.9840  142.8433 H   0  0  0  0  0  0  0  0  0  0  0  0  # atno 7974 bound_to 7965
  156.2916  140.2245  156.4994 H   0  0  0  0  0  0  0  0  0  0  0  0  # atno 8008 bound_to 7997
  154.7702  140.0467  157.1067 H   0  0  0  0  0  0  0  0  0  0  0  0  # atno 8009 bound_to 7997
  154.9883  140.3087  155.4920 H   0  0  0  0  0  0  0  0  0  0  0  0  # atno 8010 bound_to 7997
  139.7037  143.9222  152.2439 H   0  0  0  0  0  0  0  0  0  0  0  0  # atno 10167 bound_to 10162
  156.8895  130.5682  149.5650 H   0  0  0  0  0  0  0  0  0  0  0  0  # atno 10718 bound_to 10713
  153.2200  135.4359  155.0478 H   0  0  0  0  0  0  0  0  0  0  0  0  # atno 10763 bound_to 10752
  154.8245  135.3354  154.6941 H   0  0  0  0  0  0  0  0  0  0  0  0  # atno 10764 bound_to 10752
  153.7374  135.7007  153.5031 H   0  0  0  0  0  0  0  0  0  0  0  0  # atno 10765 bound_to 10752
  139.8881  134.8533  156.3100 H   0  0  0  0  0  0  0  0  0  0  0  0  # atno 11005 bound_to 11000
  145.1565  140.9650  143.4402 LP  0  0  0  0  0  0  0  0  0  0  0  0  # atno 17320 bound_to 7965
  145.0156  139.3470  143.6098 LP  0  0  0  0  0  0  0  0  0  0  0  0  # atno 17321 bound_to 7965
  139.9071  144.6878  150.8602 LP  0  0  0  0  0  0  0  0  0  0  0  0  # atno 17342 bound_to 10162
  140.7716  143.3470  151.2090 LP  0  0  0  0  0  0  0  0  0  0  0  0  # atno 17343 bound_to 10162
  156.0636  130.5684  150.9243 LP  0  0  0  0  0  0  0  0  0  0  0  0  # atno 17370 bound_to 10713
  157.6092  131.0937  150.8825 LP  0  0  0  0  0  0  0  0  0  0  0  0  # atno 17371 bound_to 10713
  140.9856  133.7240  156.0737 LP  0  0  0  0  0  0  0  0  0  0  0  0  # atno 17394 bound_to 11000
  140.7692  134.3852  157.5511 LP  0  0  0  0  0  0  0  0  0  0  0  0  # atno 17395 bound_to 11000

$$$$
