AV-unprocessed.smi:158|AV-procd|sdf|1338|dock6
  -GOLD-   2262019 33D 1   1.00000     0.00000
 Structure written by MMmdl.
 31 33  0  0  0  0  0  0  0  0  1 V2000
  144.9271  138.7159  154.5797 N   0  0  0  0  0  0  0  0  0  0  0  0
  145.0719  137.3837  154.5348 C   0  0  0  0  0  0  0  0  0  0  0  0
  145.6021  136.7566  155.6107 N   0  0  0  0  0  0  0  0  0  0  0  0
  145.7646  135.4279  155.6058 C   0  0  0  0  0  0  0  0  0  0  0  0
  146.4512  134.7308  157.0256 Cl  0  0  0  0  0  0  0  0  0  0  0  0
  145.4554  134.5774  154.6220 N   0  0  0  0  0  0  0  0  0  0  0  0
  144.9194  135.2040  153.5352 C   0  0  0  0  0  0  0  0  0  0  0  0
  144.6970  136.6020  153.4144 C   0  0  0  0  0  0  0  0  0  0  0  0
  144.1417  136.8882  152.1748 N   0  0  0  0  0  0  0  0  0  0  0  0
  144.0433  135.7199  151.5986 C   0  0  0  0  0  0  0  0  0  0  0  0
  144.4862  134.6505  152.3465 N   0  0  0  0  0  0  0  0  0  0  0  0
  144.4964  133.2053  151.9513 C   0  0  1  0  0  0  0  0  0  0  0  0
  143.6497  133.0552  150.8522 O   0  0  0  0  0  0  0  0  0  0  0  0
  144.2992  132.3064  149.8303 C   0  0  1  0  0  0  0  0  0  0  0  0
  143.7237  132.7019  148.4608 C   0  0  0  0  0  0  0  0  0  0  0  0
  142.4970  132.0418  148.2299 O   0  0  0  0  0  0  0  0  0  0  0  0
  145.7866  132.6208  150.0209 C   0  0  2  0  0  0  0  0  0  0  0  0
  146.6124  131.5828  149.5313 O   0  0  0  0  0  0  0  0  0  0  0  0
  145.8979  132.7281  151.5314 C   0  0  1  0  0  0  0  0  0  0  0  0
  146.8535  133.5787  151.9137 F   0  0  0  0  0  0  0  0  0  0  0  0
  144.1065  132.6776  152.8224 H   0  0  0  0  0  0  0  0  0  0  0  0
  144.1040  131.2524  150.0379 H   0  0  0  0  0  0  0  0  0  0  0  0
  146.0508  133.5670  149.5485 H   0  0  0  0  0  0  0  0  0  0  0  0
  146.0878  131.7598  151.9966 H   0  0  0  0  0  0  0  0  0  0  0  0
  144.5343  139.2052  153.7883 H   0  0  0  0  0  0  0  0  0  0  0  0
  145.2091  139.2273  155.4034 H   0  0  0  0  0  0  0  0  0  0  0  0
  143.6382  135.6054  150.6036 H   0  0  0  0  0  0  0  0  0  0  0  0
  143.5381  133.7757  148.4305 H   0  0  0  0  0  0  0  0  0  0  0  0
  144.4239  132.4742  147.6567 H   0  0  0  0  0  0  0  0  0  0  0  0
  142.1528  132.3301  147.3983 H   0  0  0  0  0  0  0  0  0  0  0  0
  147.4700  131.6709  149.9179 H   0  0  0  0  0  0  0  0  0  0  0  0
  1  2  1  0  0  0  0
  1 25  1  0  0  0  0
  1 26  1  0  0  0  0
  2  8  1  0  0  0  0
  2  3  2  0  0  0  0
  3  4  1  0  0  0  0
  4  5  1  0  0  0  0
  4  6  2  0  0  0  0
  6  7  1  0  0  0  0
  7 11  1  0  0  0  0
  7  8  2  0  0  0  0
  8  9  1  0  0  0  0
  9 10  2  0  0  0  0
 10 11  1  0  0  0  0
 10 27  1  0  0  0  0
 11 12  1  0  0  0  0
 12 21  1  0  0  0  0
 12 19  1  0  0  0  0
 12 13  1  0  0  0  0
 13 14  1  0  0  0  0
 14 22  1  0  0  0  0
 14 15  1  0  0  0  0
 14 17  1  0  0  0  0
 15 16  1  0  0  0  0
 15 28  1  0  0  0  0
 15 29  1  0  0  0  0
 16 30  1  0  0  0  0
 17 23  1  0  0  0  0
 17 18  1  0  0  0  0
 17 19  1  0  0  0  0
 18 31  1  0  0  0  0
 19 24  1  0  0  0  0
 19 20  1  0  0  0  0
M  END
> <s_m_source_file>
AV-unprocessed.smi

> <i_m_source_file_index>
158

> <i_lp_mmshare_version>
43012

> <i_f3d_flags>
0

> <s_epik_input>
Q2xjKG4xKW5jKFtOSDJdKWMoYzEyKW5bY0hdbjJbQ0BASF0zT1tDQEhdKFtDSDJdW09IXSlbQ0BASF0oW09IXSlbQ0BASF0zRg==

> <s_epik_cmdline>
J2VwaWtfcHl0aG9uJywgJy1waCcsICc3LjAnLCAnLXRuJywgJzgnLCAnLW1hJywgJzIwMCcsICctbWV0YWxfYmluZGluZycsICctaW1hZScsICc8aW5maWxlLm1hZT4nLCAnLW9tYWUnLCAnPG91dGZpbGUubWFlPic=

> <r_lp_tautomer_probability>
1

> <r_epik_Ionization_Penalty>
6.51543e-05

> <r_epik_Ionization_Penalty_Charging>
0

> <r_epik_Ionization_Penalty_Neutral>
6.51543e-05

> <r_epik_State_Penalty>
-0

> <r_epik_Charging_Adjusted_Penalty>
0

> <i_epik_Tot_Q>
0

> <i_epik_Tot_abs_Q>
0

> <r_epik_Metal_State_Penalty>
-0

> <b_epik_Metal_Only>
0

> <s_epik_Chemistry_Notes>
This compound contains an acetal/aminal-like group ( X-CH(R)-Y where X, Y are N, S, or O) that may be acid/base labile, releasing an aldehyde.

> <s_lp_Force_Field>
OPLS_2005

> <r_lp_Energy>
35.9184

> <b_lp_Chiralities_Consistent>
1

> <s_lp_Variant>
AV-unprocessed.smi:158-16

> <Gold.Version>
5.8.1

> <Gold.Id.Protein>
6NUR|6NUR_protein|mol2

> <Gold.PLP.Fitness>
38.8018

> <Gold.PLP.PLP>
-29.8902

> <Gold.PLP.part.hbond>
-5.6483

> <Gold.PLP.part.metal>
0.0000

> <Gold.PLP.part.buried>
-8.0281

> <Gold.PLP.part.nonpolar>
-18.1138

> <Gold.PLP.part.repulsive>
1.6396

> <Gold.PLP.ligand.clash>
0.0000

> <Gold.PLP.ligand.torsion>
0.6140

> <Gold.PLP.Chemscore.Hbond>
3.3688

> <Gold.PLP.Chemscore.CHOScore>
0.0000

> <Gold.PLP.Chemscore.Metal>
0.0000

> <Gold.Chemscore.Hbonds>
donor molecule, donor type, donor heavy atom, donor atom, acceptor molecule, acceptor atom, score
      L1  H     1    25       P1 10175  1.00
      L1  H    16    30       P1 10195  0.89
      L1  H    18    31       P1 10747  0.90
      P1  H 10785 10796       L1    16  0.57

> <Gold.PLP.Chemscore.Internal.Correction>
0.0331

> <Gold.Rescore>
     Score         DG    S(hbond)    S(metal)    S(lipo)     H(rot)  DE(clash)    DE(int)     intcor
     10.97     -12.68       2.95        0.00      45.66       3.12       0.71       1.01       ----

> <Gold.Chemscore.Fitness>
10.9664

> <Gold.Chemscore.DG>
-12.6835

> <Gold.Chemscore.ZeroCoef>
-5.4800

> <Gold.Chemscore.Hbond>
2.9511

> <Gold.Chemscore.Metal>
0.0000

> <Gold.Chemscore.Lipo>
45.6559

> <Gold.Chemscore.Internal_Hbond>
0.0000

> <Gold.Chemscore.DEClash>
0.7112

> <Gold.Chemscore.DEInternal>
1.0059

> <Gold.Chemscore.Rot>
3.1230

> <Gold.Chemscore.Internal.Correction>
   9.000000E+99

> <Gold.Chemscore.Hbonds>
donor molecule, donor type, donor heavy atom, donor atom, acceptor molecule, acceptor atom, score
      L1  H     1    25       P1 10175  0.95
      L1  H    16    30       P1 10195  0.87
      L1  H    18    31       P1 10747  0.88
      P1  H 10785 10796       L1    16  0.08

> <Gold.Chemscore.Hbond.Weighted>
-9.8568

> <Gold.Chemscore.Metal.Weighted>
-0.0000

> <Gold.Chemscore.Lipo.Weighted>
-5.3417

> <Gold.Chemscore.Internal_Hbond.Weighted>
0.0000

> <Gold.Chemscore.DEClash.Weighted>
0.7112

> <Gold.Chemscore.DEInternal.Weighted>
1.0059

> <Gold.Chemscore.Rot.Weighted>
7.9950

> <Gold.Chemscore.Internal.Correction.Weighted>
   9.000000E+99

> <Gold.Protein.RotatedTorsions>
[ 6907 6896 6895 6894 ] final  -10.97 input  -60.11 | X-H torsion
[ 7974 7965 7964 7962 ] final  -81.97 input  175.53 | X-H torsion
[ 8008 7997 7996 7995 ] final  139.19 input   59.86 | X-H torsion
[ 10167 10162 10161 10158 ] final -145.92 input  -65.29 | X-H torsion
[ 10718 10713 10712 10709 ] final  -41.27 input   66.30 | X-H torsion
[ 10763 10752 10751 10750 ] final  -50.39 input  -60.55 | X-H torsion
[ 11005 11000 10999 10996 ] final  159.24 input  -57.11 | X-H torsion

> <Gold.Protein.ActiveResidues>
 VAL166  LYS551  ARG553  GLY616  TRP617  ASP618  TYR619  PRO620  LYS621  CYS622 
 ASP623  PHE694  ASN695  SER759  ASP760  ASP761  ALA762  ILE779  LEU786  VAL792 
 PHE793  MET794  SER795  GLU796  ALA797  LYS798  CYS799  TRP800  GLU811  SER814 

> <Gold.Protein.RotatedAtoms>
  151.3935  135.0960  159.9533 H   0  0  0  0  0  0  0  0  0  0  0  0  # atno 6907 bound_to 6896
  152.5072  133.8957  159.7426 H   0  0  0  0  0  0  0  0  0  0  0  0  # atno 6908 bound_to 6896
  150.9415  133.6595  159.2818 H   0  0  0  0  0  0  0  0  0  0  0  0  # atno 6909 bound_to 6896
  145.5395  140.9511  143.1559 H   0  0  0  0  0  0  0  0  0  0  0  0  # atno 7974 bound_to 7965
  156.2992  140.2374  156.4197 H   0  0  0  0  0  0  0  0  0  0  0  0  # atno 8008 bound_to 7997
  154.8367  140.0430  157.1534 H   0  0  0  0  0  0  0  0  0  0  0  0  # atno 8009 bound_to 7997
  154.9148  140.2995  155.5251 H   0  0  0  0  0  0  0  0  0  0  0  0  # atno 8010 bound_to 7997
  139.7761  143.8168  152.2632 H   0  0  0  0  0  0  0  0  0  0  0  0  # atno 10167 bound_to 10162
  156.2721  130.4208  149.8426 H   0  0  0  0  0  0  0  0  0  0  0  0  # atno 10718 bound_to 10713
  154.1096  135.6551  153.4883 H   0  0  0  0  0  0  0  0  0  0  0  0  # atno 10763 bound_to 10752
  153.0261  135.5244  154.7205 H   0  0  0  0  0  0  0  0  0  0  0  0  # atno 10764 bound_to 10752
  154.6381  135.2985  155.0106 H   0  0  0  0  0  0  0  0  0  0  0  0  # atno 10765 bound_to 10752
  140.1943  134.8384  157.2947 H   0  0  0  0  0  0  0  0  0  0  0  0  # atno 11005 bound_to 11000
  144.7584  139.7017  143.7244 LP  0  0  0  0  0  0  0  0  0  0  0  0  # atno 17320 bound_to 7965
  146.1990  139.5274  142.9755 LP  0  0  0  0  0  0  0  0  0  0  0  0  # atno 17321 bound_to 7965
  139.8216  144.7293  150.9565 LP  0  0  0  0  0  0  0  0  0  0  0  0  # atno 17342 bound_to 10162
  140.7816  143.4153  151.0927 LP  0  0  0  0  0  0  0  0  0  0  0  0  # atno 17343 bound_to 10162
  156.5904  130.8504  151.3406 LP  0  0  0  0  0  0  0  0  0  0  0  0  # atno 17370 bound_to 10713
  157.7287  130.9661  150.1756 LP  0  0  0  0  0  0  0  0  0  0  0  0  # atno 17371 bound_to 10713
  140.2125  134.4121  155.7606 LP  0  0  0  0  0  0  0  0  0  0  0  0  # atno 17394 bound_to 11000
  141.2227  133.7125  156.8361 LP  0  0  0  0  0  0  0  0  0  0  0  0  # atno 17395 bound_to 11000

$$$$
