AV-unprocessed.smi:454|AV-procd|sdf|2612|dock10
  -GOLD-   2262023 13D 1   1.00000     0.00000
 Structure written by MMmdl.
 43 44  0  0  0  0  0  0  0  0  1 V2000
  147.7726  130.8799  153.9748 C   0  0  0  0  0  0  0  0  0  0  0  0
  147.9526  132.1505  153.3746 O   0  0  0  0  0  0  0  0  0  0  0  0
  148.1412  133.1809  154.3305 C   0  0  0  0  0  0  0  0  0  0  0  0
  149.3013  132.8012  155.2565 C   0  0  0  0  0  0  0  0  0  0  0  0
  149.3773  133.6880  156.4088 N   0  0  0  0  0  0  0  0  0  0  0  0
  149.8986  134.9821  156.2795 C   0  0  0  0  0  0  0  0  0  0  0  0
  149.7602  135.6443  155.0403 C   0  0  0  0  0  0  0  0  0  0  0  0
  150.2871  136.9430  154.9001 C   0  0  0  0  0  0  0  0  0  0  0  0
  150.9396  137.5216  156.0050 C   0  0  0  0  0  0  0  0  0  0  0  0
  151.6361  139.1637  155.8906 S   0  0  0  0  0  0  0  0  0  0  0  0
  153.0913  139.0626  156.0844 O   0  0  0  0  0  0  0  0  0  0  0  0
  151.0998  139.8097  154.6824 O   0  0  0  0  0  0  0  0  0  0  0  0
  150.9691  139.9819  157.2736 N   0  0  0  0  0  0  0  0  0  0  0  0
  150.4344  141.3470  157.1206 C   0  0  0  0  0  0  0  0  0  0  0  0
  151.4409  142.4061  157.6107 C   0  0  0  0  0  0  0  0  0  0  0  0
  151.8421  142.1335  158.9881 N   0  0  0  0  0  0  0  0  0  0  0  0
  152.7721  143.1617  159.4328 C   0  0  0  0  0  0  0  0  0  0  0  0
  152.4968  140.8293  159.0517 C   0  0  0  0  0  0  0  0  0  0  0  0
  151.5273  139.7150  158.6116 C   0  0  0  0  0  0  0  0  0  0  0  0
  151.0216  136.7935  157.2079 C   0  0  0  0  0  0  0  0  0  0  0  0
  150.5190  135.5476  157.3438 N   0  0  0  0  0  0  0  0  0  0  0  0
  147.6365  130.1251  153.2004 H   0  0  0  0  0  0  0  0  0  0  0  0
  146.8896  130.8676  154.6154 H   0  0  0  0  0  0  0  0  0  0  0  0
  148.6418  130.5982  154.5705 H   0  0  0  0  0  0  0  0  0  0  0  0
  148.3801  134.1123  153.8148 H   0  0  0  0  0  0  0  0  0  0  0  0
  147.2292  133.3510  154.9054 H   0  0  0  0  0  0  0  0  0  0  0  0
  149.1954  131.7674  155.5872 H   0  0  0  0  0  0  0  0  0  0  0  0
  150.2394  132.8696  154.7046 H   0  0  0  0  0  0  0  0  0  0  0  0
  149.2238  133.3000  157.3284 H   0  0  0  0  0  0  0  0  0  0  0  0
  149.2604  135.1683  154.2094 H   0  0  0  0  0  0  0  0  0  0  0  0
  150.2008  137.4722  153.9626 H   0  0  0  0  0  0  0  0  0  0  0  0
  150.1608  141.5349  156.0828 H   0  0  0  0  0  0  0  0  0  0  0  0
  149.5136  141.4231  157.7003 H   0  0  0  0  0  0  0  0  0  0  0  0
  152.3181  142.4299  156.9643 H   0  0  0  0  0  0  0  0  0  0  0  0
  150.9818  143.3939  157.5555 H   0  0  0  0  0  0  0  0  0  0  0  0
  153.0781  142.9803  160.4639 H   0  0  0  0  0  0  0  0  0  0  0  0
  152.3027  144.1451  159.3946 H   0  0  0  0  0  0  0  0  0  0  0  0
  153.6677  143.1863  158.8099 H   0  0  0  0  0  0  0  0  0  0  0  0
  153.3902  140.8303  158.4276 H   0  0  0  0  0  0  0  0  0  0  0  0
  152.8266  140.6382  160.0735 H   0  0  0  0  0  0  0  0  0  0  0  0
  150.7026  139.6474  159.3219 H   0  0  0  0  0  0  0  0  0  0  0  0
  152.0286  138.7478  158.6290 H   0  0  0  0  0  0  0  0  0  0  0  0
  151.5129  137.2075  158.0759 H   0  0  0  0  0  0  0  0  0  0  0  0
  1  2  1  0  0  0  0
  1 22  1  0  0  0  0
  1 23  1  0  0  0  0
  1 24  1  0  0  0  0
  2  3  1  0  0  0  0
  3  4  1  0  0  0  0
  3 25  1  0  0  0  0
  3 26  1  0  0  0  0
  4  5  1  0  0  0  0
  4 27  1  0  0  0  0
  4 28  1  0  0  0  0
  5  6  1  0  0  0  0
  5 29  1  0  0  0  0
  6 21  1  0  0  0  0
  6  7  2  0  0  0  0
  7  8  1  0  0  0  0
  7 30  1  0  0  0  0
  8  9  2  0  0  0  0
  8 31  1  0  0  0  0
  9 10  1  0  0  0  0
  9 20  1  0  0  0  0
 10 11  2  0  0  0  0
 10 12  2  0  0  0  0
 10 13  1  0  0  0  0
 13 19  1  0  0  0  0
 13 14  1  0  0  0  0
 14 15  1  0  0  0  0
 14 32  1  0  0  0  0
 14 33  1  0  0  0  0
 15 16  1  0  0  0  0
 15 34  1  0  0  0  0
 15 35  1  0  0  0  0
 16 17  1  0  0  0  0
 16 18  1  0  0  0  0
 17 36  1  0  0  0  0
 17 37  1  0  0  0  0
 17 38  1  0  0  0  0
 18 19  1  0  0  0  0
 18 39  1  0  0  0  0
 18 40  1  0  0  0  0
 19 41  1  0  0  0  0
 19 42  1  0  0  0  0
 20 21  2  0  0  0  0
 20 43  1  0  0  0  0
M  END
> <s_m_source_file>
AV-unprocessed.smi

> <i_m_source_file_index>
454

> <i_lp_mmshare_version>
43012

> <i_f3d_flags>
0

> <s_epik_input>
W0NIM11PW0NIMl1bQ0gyXVtOSF1jMVtjSF1bY0hdYyhbY0hdbjEpUyg9TykoPU8pTjJbQ0gyXVtDSDJdTihbQ0gzXSlbQ0gyXVtDSDJdMg==

> <s_epik_cmdline>
J2VwaWtfcHl0aG9uJywgJy1waCcsICc3LjAnLCAnLXRuJywgJzgnLCAnLW1hJywgJzIwMCcsICctbWV0YWxfYmluZGluZycsICctaW1hZScsICc8aW5maWxlLm1hZT4nLCAnLW9tYWUnLCAnPG91dGZpbGUubWFlPic=

> <r_lp_tautomer_probability>
1

> <r_epik_Ionization_Penalty>
0.0786276

> <r_epik_Ionization_Penalty_Charging>
0

> <r_epik_Ionization_Penalty_Neutral>
0.0786276

> <r_epik_State_Penalty>
0.0691961

> <r_epik_Charging_Adjusted_Penalty>
0.0691961

> <i_epik_Tot_Q>
0

> <i_epik_Tot_abs_Q>
0

> <r_epik_Metal_State_Penalty>
0.0691754

> <b_epik_Metal_Only>
0

> <s_lp_Force_Field>
OPLS_2005

> <r_lp_Energy>
0.101834

> <b_lp_Chiralities_Consistent>
1

> <s_lp_Variant>
AV-unprocessed.smi:454-1

> <Gold.Version>
5.8.1

> <Gold.Id.Protein>
6NUR|6NUR_protein|mol2

> <Gold.PLP.Fitness>
39.5455

> <Gold.PLP.PLP>
-34.4427

> <Gold.PLP.part.hbond>
-2.5819

> <Gold.PLP.part.metal>
0.0000

> <Gold.PLP.part.buried>
-6.8709

> <Gold.PLP.part.nonpolar>
-25.2419

> <Gold.PLP.part.repulsive>
0.3847

> <Gold.PLP.ligand.clash>
0.0000

> <Gold.PLP.ligand.torsion>
2.5026

> <Gold.PLP.Chemscore.Hbond>
2.0000

> <Gold.PLP.Chemscore.CHOScore>
0.0000

> <Gold.PLP.Chemscore.Metal>
0.0000

> <Gold.Chemscore.Hbonds>
donor molecule, donor type, donor heavy atom, donor atom, acceptor molecule, acceptor atom, score
      P1  H  6896  6909       L1    21  0.05
      P1  H  7989  7998       L1    12  1.00
      P1  H  7997  8009       L1    11  1.00

> <Gold.PLP.Chemscore.Internal.Correction>
4.1080

> <Gold.Rescore>
     Score         DG    S(hbond)    S(metal)    S(lipo)     H(rot)  DE(clash)    DE(int)     intcor
     14.63     -17.15       1.97        0.00      73.98       1.40       0.01       2.51       ----

> <Gold.Chemscore.Fitness>
14.6267

> <Gold.Chemscore.DG>
-17.1470

> <Gold.Chemscore.ZeroCoef>
-5.4800

> <Gold.Chemscore.Hbond>
1.9725

> <Gold.Chemscore.Metal>
0.0000

> <Gold.Chemscore.Lipo>
73.9757

> <Gold.Chemscore.Internal_Hbond>
0.0000

> <Gold.Chemscore.DEClash>
0.0126

> <Gold.Chemscore.DEInternal>
2.5077

> <Gold.Chemscore.Rot>
1.3970

> <Gold.Chemscore.Internal.Correction>
   9.000000E+99

> <Gold.Chemscore.Hbonds>
donor molecule, donor type, donor heavy atom, donor atom, acceptor molecule, acceptor atom, score
      P1  H  6896  6909       L1    21  0.06
      P1  H  7989  7998       L1    12  1.00
      P1  H  7997  8009       L1    11  0.99

> <Gold.Chemscore.Hbond.Weighted>
-6.5883

> <Gold.Chemscore.Metal.Weighted>
-0.0000

> <Gold.Chemscore.Lipo.Weighted>
-8.6552

> <Gold.Chemscore.Internal_Hbond.Weighted>
0.0000

> <Gold.Chemscore.DEClash.Weighted>
0.0126

> <Gold.Chemscore.DEInternal.Weighted>
2.5077

> <Gold.Chemscore.Rot.Weighted>
3.5764

> <Gold.Chemscore.Internal.Correction.Weighted>
   9.000000E+99

> <Gold.Protein.RotatedTorsions>
[ 6907 6896 6895 6894 ] final   39.89 input  -60.11 | X-H torsion
[ 7974 7965 7964 7962 ] final  -77.43 input  175.53 | X-H torsion
[ 8008 7997 7996 7995 ] final -165.38 input   59.86 | X-H torsion
[ 10167 10162 10161 10158 ] final  163.72 input  -65.29 | X-H torsion
[ 10718 10713 10712 10709 ] final  -30.83 input   66.30 | X-H torsion
[ 10763 10752 10751 10750 ] final  -27.36 input  -60.55 | X-H torsion
[ 11005 11000 10999 10996 ] final -118.23 input  -57.11 | X-H torsion

> <Gold.Protein.ActiveResidues>
 VAL166  LYS551  ARG553  GLY616  TRP617  ASP618  TYR619  PRO620  LYS621  CYS622 
 ASP623  PHE694  ASN695  SER759  ASP760  ASP761  ALA762  ILE779  LEU786  VAL792 
 PHE793  MET794  SER795  GLU796  ALA797  LYS798  CYS799  TRP800  GLU811  SER814 

> <Gold.Protein.RotatedAtoms>
  152.1754  134.8799  160.0530 H   0  0  0  0  0  0  0  0  0  0  0  0  # atno 6907 bound_to 6896
  151.9743  133.3731  159.4091 H   0  0  0  0  0  0  0  0  0  0  0  0  # atno 6908 bound_to 6896
  150.6908  134.4030  159.5171 H   0  0  0  0  0  0  0  0  0  0  0  0  # atno 6909 bound_to 6896
  145.5998  140.9411  143.1247 H   0  0  0  0  0  0  0  0  0  0  0  0  # atno 7974 bound_to 7965
  155.8490  140.0960  157.1687 H   0  0  0  0  0  0  0  0  0  0  0  0  # atno 8008 bound_to 7997
  154.3984  140.1387  156.3882 H   0  0  0  0  0  0  0  0  0  0  0  0  # atno 8009 bound_to 7997
  155.7982  140.3453  155.5390 H   0  0  0  0  0  0  0  0  0  0  0  0  # atno 8010 bound_to 7997
  139.4878  144.4308  151.9073 H   0  0  0  0  0  0  0  0  0  0  0  0  # atno 10167 bound_to 10162
  156.3949  130.4379  149.7367 H   0  0  0  0  0  0  0  0  0  0  0  0  # atno 10718 bound_to 10713
  153.7308  135.6939  153.4990 H   0  0  0  0  0  0  0  0  0  0  0  0  # atno 10763 bound_to 10752
  153.2137  135.4394  155.0408 H   0  0  0  0  0  0  0  0  0  0  0  0  # atno 10764 bound_to 10752
  154.8253  135.3443  154.6838 H   0  0  0  0  0  0  0  0  0  0  0  0  # atno 10765 bound_to 10752
  141.0300  133.9996  157.3157 H   0  0  0  0  0  0  0  0  0  0  0  0  # atno 11005 bound_to 11000
  144.7315  139.7712  143.7345 LP  0  0  0  0  0  0  0  0  0  0  0  0  # atno 17320 bound_to 7965
  146.1585  139.4691  143.0003 LP  0  0  0  0  0  0  0  0  0  0  0  0  # atno 17321 bound_to 7965
  140.3756  144.2801  150.5914 LP  0  0  0  0  0  0  0  0  0  0  0  0  # atno 17342 bound_to 10162
  140.5280  143.2250  151.8284 LP  0  0  0  0  0  0  0  0  0  0  0  0  # atno 17343 bound_to 10162
  156.4406  130.7859  151.2880 LP  0  0  0  0  0  0  0  0  0  0  0  0  # atno 17370 bound_to 10713
  157.7501  131.0126  150.3391 LP  0  0  0  0  0  0  0  0  0  0  0  0  # atno 17371 bound_to 10713
  139.9201  135.0200  156.8033 LP  0  0  0  0  0  0  0  0  0  0  0  0  # atno 17394 bound_to 11000
  140.6423  133.9806  155.7714 LP  0  0  0  0  0  0  0  0  0  0  0  0  # atno 17395 bound_to 11000

$$$$
