AV-unprocessed.smi:2496|AV-procd|sdf|9825|dock10
  -GOLD-   2272013453D 1   1.00000     0.00000
 Structure written by MMmdl.
 40 40  0  0  0  0  0  0  0  0  1 V2000
  151.0670  139.5090  155.4014 C   0  0  0  0  0  0  0  0  0  0  0  0
  149.9511  140.4822  155.1488 C   0  0  0  0  0  0  0  0  0  0  0  0
  150.0363  141.7052  155.6481 N   0  0  0  0  0  0  0  0  0  0  0  0
  148.8956  142.2940  155.2536 N   0  0  0  0  0  0  0  0  0  0  0  0
  148.0850  141.4656  154.5141 C   0  0  0  0  0  0  0  0  0  0  0  0
  146.7653  141.9301  153.9925 C   0  0  0  0  0  0  0  0  0  0  0  0
  148.7422  140.2650  154.4171 C   0  0  0  0  0  0  0  0  0  0  0  0
  148.3208  138.9829  153.7283 C   0  0  2  0  0  0  0  0  0  0  0  0
  147.0862  139.1840  152.8292 C   0  0  0  0  0  0  0  0  0  0  0  0
  148.1255  137.8827  154.7825 C   0  0  0  0  0  0  0  0  0  0  0  0
  148.0616  138.1621  155.9802 O   0  0  0  0  0  0  0  0  0  0  0  0
  148.0468  136.6263  154.3086 N   0  0  0  0  0  0  0  0  0  0  0  0
  147.9347  135.3858  155.0811 C   0  0  2  0  0  0  0  0  0  0  0  0
  149.2344  134.5612  154.9796 C   0  0  0  0  0  0  0  0  0  0  0  0
  146.6464  134.5856  154.7347 C   0  0  0  0  0  0  0  0  0  0  0  0
  146.4357  133.3782  155.6696 C   0  0  0  0  0  0  0  0  0  0  0  0
  146.6346  134.1093  153.2712 C   0  0  0  0  0  0  0  0  0  0  0  0
  148.6824  143.2511  155.4962 H   0  0  0  0  0  0  0  0  0  0  0  0
  150.7193  138.6682  156.0018 H   0  0  0  0  0  0  0  0  0  0  0  0
  151.8990  139.9732  155.9323 H   0  0  0  0  0  0  0  0  0  0  0  0
  151.4558  139.1104  154.4643 H   0  0  0  0  0  0  0  0  0  0  0  0
  146.0043  141.1593  154.1122 H   0  0  0  0  0  0  0  0  0  0  0  0
  146.8345  142.1773  152.9333 H   0  0  0  0  0  0  0  0  0  0  0  0
  146.4229  142.8191  154.5226 H   0  0  0  0  0  0  0  0  0  0  0  0
  149.1216  138.6352  153.0747 H   0  0  0  0  0  0  0  0  0  0  0  0
  146.2112  139.5026  153.3956 H   0  0  0  0  0  0  0  0  0  0  0  0
  146.8235  138.2616  152.3100 H   0  0  0  0  0  0  0  0  0  0  0  0
  147.2801  139.9412  152.0691 H   0  0  0  0  0  0  0  0  0  0  0  0
  148.1115  136.5146  153.3073 H   0  0  0  0  0  0  0  0  0  0  0  0
  147.8481  135.7114  156.1184 H   0  0  0  0  0  0  0  0  0  0  0  0
  149.2667  133.7720  155.7301 H   0  0  0  0  0  0  0  0  0  0  0  0
  150.1109  135.1890  155.1438 H   0  0  0  0  0  0  0  0  0  0  0  0
  149.3406  134.0904  154.0020 H   0  0  0  0  0  0  0  0  0  0  0  0
  145.7866  135.2442  154.8607 H   0  0  0  0  0  0  0  0  0  0  0  0
  147.2827  132.6930  155.6266 H   0  0  0  0  0  0  0  0  0  0  0  0
  145.5423  132.8181  155.3925 H   0  0  0  0  0  0  0  0  0  0  0  0
  146.3069  133.6830  156.7080 H   0  0  0  0  0  0  0  0  0  0  0  0
  147.5044  133.4906  153.0485 H   0  0  0  0  0  0  0  0  0  0  0  0
  146.6301  134.9464  152.5736 H   0  0  0  0  0  0  0  0  0  0  0  0
  145.7443  133.5169  153.0582 H   0  0  0  0  0  0  0  0  0  0  0  0
  1  2  1  0  0  0  0
  1 19  1  0  0  0  0
  1 20  1  0  0  0  0
  1 21  1  0  0  0  0
  2  7  1  0  0  0  0
  2  3  2  0  0  0  0
  3  4  1  0  0  0  0
  4 18  1  0  0  0  0
  4  5  1  0  0  0  0
  5  6  1  0  0  0  0
  5  7  2  0  0  0  0
  6 22  1  0  0  0  0
  6 23  1  0  0  0  0
  6 24  1  0  0  0  0
  7  8  1  0  0  0  0
  8  9  1  0  0  0  0
  8 10  1  0  0  0  0
  8 25  1  0  0  0  0
  9 26  1  0  0  0  0
  9 27  1  0  0  0  0
  9 28  1  0  0  0  0
 10 11  2  0  0  0  0
 10 12  1  0  0  0  0
 12 13  1  0  0  0  0
 12 29  1  0  0  0  0
 13 14  1  0  0  0  0
 13 15  1  0  0  0  0
 13 30  1  0  0  0  0
 14 31  1  0  0  0  0
 14 32  1  0  0  0  0
 14 33  1  0  0  0  0
 15 16  1  0  0  0  0
 15 17  1  0  0  0  0
 15 34  1  0  0  0  0
 16 35  1  0  0  0  0
 16 36  1  0  0  0  0
 16 37  1  0  0  0  0
 17 38  1  0  0  0  0
 17 39  1  0  0  0  0
 17 40  1  0  0  0  0
M  END
> <s_m_source_file>
AV-unprocessed.smi

> <i_m_source_file_index>
2496

> <i_lp_mmshare_version>
43012

> <i_f3d_flags>
0

> <s_epik_input>
W0NIM11jMW5bbkhdYyhbQ0gzXSljMVtDQEhdKFtDSDNdKUMoPU8pW05IXVtDQEhdKFtDSDNdKVtDSF0oW0NIM10pW0NIM10=

> <s_epik_cmdline>
J2VwaWtfcHl0aG9uJywgJy1waCcsICc3LjAnLCAnLXRuJywgJzgnLCAnLW1hJywgJzIwMCcsICctbWV0YWxfYmluZGluZycsICctaW1hZScsICc8aW5maWxlLm1hZT4nLCAnLW9tYWUnLCAnPG91dGZpbGUubWFlPic=

> <r_lp_tautomer_probability>
1

> <r_epik_Ionization_Penalty>
0.000456212

> <r_epik_Ionization_Penalty_Charging>
0

> <r_epik_Ionization_Penalty_Neutral>
0.000456212

> <r_epik_State_Penalty>
-0

> <r_epik_Charging_Adjusted_Penalty>
0

> <i_epik_Tot_Q>
0

> <i_epik_Tot_abs_Q>
0

> <r_epik_Metal_State_Penalty>
-0

> <b_epik_Metal_Only>
0

> <s_lp_Force_Field>
OPLS_2005

> <r_lp_Energy>
1.67244

> <b_lp_Chiralities_Consistent>
1

> <s_lp_Variant>
AV-unprocessed.smi:2496-1

> <Gold.Version>
5.8.1

> <Gold.Id.Protein>
6NUR|6NUR_protein|mol2

> <Gold.PLP.Fitness>
30.4026

> <Gold.PLP.PLP>
-25.1947

> <Gold.PLP.part.hbond>
-2.4676

> <Gold.PLP.part.metal>
0.0000

> <Gold.PLP.part.buried>
0.0224

> <Gold.PLP.part.nonpolar>
-22.7750

> <Gold.PLP.part.repulsive>
0.3103

> <Gold.PLP.ligand.clash>
0.0146

> <Gold.PLP.ligand.torsion>
0.4323

> <Gold.PLP.Chemscore.Hbond>
1.9760

> <Gold.PLP.Chemscore.CHOScore>
0.0000

> <Gold.PLP.Chemscore.Metal>
0.0000

> <Gold.Chemscore.Hbonds>
donor molecule, donor type, donor heavy atom, donor atom, acceptor molecule, acceptor atom, score
      L1  H     4    18       P1  8028  0.88
      L1  H    12    29       P1  7948  1.00

> <Gold.PLP.Chemscore.Internal.Correction>
0.1590

> <Gold.Rescore>
     Score         DG    S(hbond)    S(metal)    S(lipo)     H(rot)  DE(clash)    DE(int)     intcor
     13.50     -15.22       1.93        0.00      60.09       1.47       0.32       1.40       ----

> <Gold.Chemscore.Fitness>
13.5038

> <Gold.Chemscore.DG>
-15.2187

> <Gold.Chemscore.ZeroCoef>
-5.4800

> <Gold.Chemscore.Hbond>
1.9346

> <Gold.Chemscore.Metal>
0.0000

> <Gold.Chemscore.Lipo>
60.0907

> <Gold.Chemscore.Internal_Hbond>
0.0000

> <Gold.Chemscore.DEClash>
0.3155

> <Gold.Chemscore.DEInternal>
1.3994

> <Gold.Chemscore.Rot>
1.4662

> <Gold.Chemscore.Internal.Correction>
   9.000000E+99

> <Gold.Chemscore.Hbonds>
donor molecule, donor type, donor heavy atom, donor atom, acceptor molecule, acceptor atom, score
      L1  H     4    18       P1  8028  0.85
      L1  H    12    29       P1  7948  0.97

> <Gold.Chemscore.Hbond.Weighted>
-6.4615

> <Gold.Chemscore.Metal.Weighted>
-0.0000

> <Gold.Chemscore.Lipo.Weighted>
-7.0306

> <Gold.Chemscore.Internal_Hbond.Weighted>
0.0000

> <Gold.Chemscore.DEClash.Weighted>
0.3155

> <Gold.Chemscore.DEInternal.Weighted>
1.3994

> <Gold.Chemscore.Rot.Weighted>
3.7534

> <Gold.Chemscore.Internal.Correction.Weighted>
   9.000000E+99

> <Gold.Protein.RotatedTorsions>
[ 6907 6896 6895 6894 ] final -179.72 input  -60.11 | X-H torsion
[ 7974 7965 7964 7962 ] final   84.96 input  175.53 | X-H torsion
[ 8008 7997 7996 7995 ] final  -55.45 input   59.86 | X-H torsion
[ 10167 10162 10161 10158 ] final -131.73 input  -65.29 | X-H torsion
[ 10718 10713 10712 10709 ] final    5.03 input   66.30 | X-H torsion
[ 10763 10752 10751 10750 ] final    4.48 input  -60.55 | X-H torsion
[ 11005 11000 10999 10996 ] final  138.26 input  -57.11 | X-H torsion

> <Gold.Protein.ActiveResidues>
 VAL166  LYS551  ARG553  GLY616  TRP617  ASP618  TYR619  PRO620  LYS621  CYS622 
 ASP623  PHE694  ASN695  SER759  ASP760  ASP761  ALA762  ILE779  LEU786  VAL792 
 PHE793  MET794  SER795  GLU796  ALA797  LYS798  CYS799  TRP800  GLU811  SER814 

> <Gold.Protein.RotatedAtoms>
  151.6579  133.3318  159.3166 H   0  0  0  0  0  0  0  0  0  0  0  0  # atno 6907 bound_to 6896
  150.7928  134.6968  159.6537 H   0  0  0  0  0  0  0  0  0  0  0  0  # atno 6908 bound_to 6896
  152.4010  134.6290  160.0122 H   0  0  0  0  0  0  0  0  0  0  0  0  # atno 6909 bound_to 6896
  145.5918  139.2339  143.2295 H   0  0  0  0  0  0  0  0  0  0  0  0  # atno 7974 bound_to 7965
  154.4195  140.1152  156.5479 H   0  0  0  0  0  0  0  0  0  0  0  0  # atno 8008 bound_to 7997
  155.6441  140.3496  155.4706 H   0  0  0  0  0  0  0  0  0  0  0  0  # atno 8009 bound_to 7997
  155.9847  140.1167  157.0684 H   0  0  0  0  0  0  0  0  0  0  0  0  # atno 8010 bound_to 7997
  139.9159  143.6439  152.2565 H   0  0  0  0  0  0  0  0  0  0  0  0  # atno 10167 bound_to 10162
  156.9014  130.5723  149.5648 H   0  0  0  0  0  0  0  0  0  0  0  0  # atno 10718 bound_to 10713
  153.2707  135.6932  153.7483 H   0  0  0  0  0  0  0  0  0  0  0  0  # atno 10763 bound_to 10752
  153.6508  135.3377  155.3100 H   0  0  0  0  0  0  0  0  0  0  0  0  # atno 10764 bound_to 10752
  154.8463  135.4454  154.1728 H   0  0  0  0  0  0  0  0  0  0  0  0  # atno 10765 bound_to 10752
  140.0171  134.9413  157.0399 H   0  0  0  0  0  0  0  0  0  0  0  0  # atno 11005 bound_to 11000
  146.1641  140.6744  142.9263 LP  0  0  0  0  0  0  0  0  0  0  0  0  # atno 17320 bound_to 7965
  144.7348  140.4777  143.6911 LP  0  0  0  0  0  0  0  0  0  0  0  0  # atno 17321 bound_to 7965
  139.6903  144.7647  151.1451 LP  0  0  0  0  0  0  0  0  0  0  0  0  # atno 17342 bound_to 10162
  140.7674  143.5599  150.9111 LP  0  0  0  0  0  0  0  0  0  0  0  0  # atno 17343 bound_to 10162
  156.0580  130.5638  150.9132 LP  0  0  0  0  0  0  0  0  0  0  0  0  # atno 17370 bound_to 10713
  157.6024  131.0940  150.8938 LP  0  0  0  0  0  0  0  0  0  0  0  0  # atno 17371 bound_to 10713
  140.4451  134.1640  155.7177 LP  0  0  0  0  0  0  0  0  0  0  0  0  # atno 17394 bound_to 11000
  141.1750  133.8532  157.1450 LP  0  0  0  0  0  0  0  0  0  0  0  0  # atno 17395 bound_to 11000

$$$$
