AV-unprocessed.smi:275|AV-procd|sdf|2064|dock6
  -GOLD-   2262021313D 1   1.00000     0.00000
 Structure written by MMmdl.
 65 69  0  0  0  0  0  0  0  0  1 V2000
  148.4302  141.4591  157.1130 C   0  0  0  0  0  0  0  0  0  0  0  0
  149.6858  141.5823  156.2333 C   0  0  0  0  0  0  0  0  0  0  0  0
  149.7630  140.3672  155.2938 C   0  0  0  0  0  0  0  0  0  0  0  0
  150.9772  141.7289  157.0593 C   0  0  2  0  0  0  0  0  0  0  0  0
  151.0319  140.8514  158.2268 N   0  0  0  0  0  0  0  0  0  0  0  0
  151.7145  139.6054  158.1285 C   0  0  0  0  0  0  0  0  0  0  0  0
  151.3448  138.6571  157.2258 N   0  0  0  0  0  0  0  0  0  0  0  0
  151.9947  137.4925  157.1461 C   0  0  0  0  0  0  0  0  0  0  0  0
  153.0357  137.0682  157.8634 N   0  0  0  0  0  0  0  0  0  0  0  0
  153.4175  138.0090  158.7725 C   0  0  0  0  0  0  0  0  0  0  0  0
  152.8171  139.2849  158.9673 C   0  0  0  0  0  0  0  0  0  0  0  0
  153.4725  139.9668  159.9850 N   0  0  0  0  0  0  0  0  0  0  0  0
  154.4074  139.1419  160.3702 C   0  0  0  0  0  0  0  0  0  0  0  0
  154.4589  137.9499  159.6826 N   0  0  0  0  0  0  0  0  0  0  0  0
  155.3870  136.8555  159.9096 C   0  0  0  0  0  0  0  0  0  0  0  0
  154.8545  135.7422  160.8498 C   0  0  1  0  0  0  0  0  0  0  0  0
  155.3839  134.3828  160.3302 C   0  0  0  0  0  0  0  0  0  0  0  0
  154.6537  133.9237  159.2114 O   0  0  0  0  0  0  0  0  0  0  0  0
  155.2248  135.9839  162.3456 C   0  0  2  0  0  0  0  0  0  0  0  0
  154.8240  134.8753  163.3064 C   0  0  0  0  0  0  0  0  0  0  0  0
  154.9021  135.5716  164.6568 C   0  0  0  0  0  0  0  0  0  0  0  0
  154.4165  136.8814  164.4074 O   0  0  0  0  0  0  0  0  0  0  0  0
  154.5475  137.1875  163.0222 C   0  0  0  0  0  0  0  0  0  0  0  0
  151.7849  141.8343  158.9847 C   0  0  0  0  0  0  0  0  0  0  0  0
  151.1824  142.9001  158.0548 C   0  0  0  0  0  0  0  0  0  0  0  0
  149.9259  143.6072  158.6121 C   0  0  0  0  0  0  0  0  0  0  0  0
  150.2489  144.5915  159.7496 C   0  0  0  0  0  0  0  0  0  0  0  0
  151.2669  145.6465  159.2982 C   0  0  0  0  0  0  0  0  0  0  0  0
  152.5177  144.9893  158.7010 C   0  0  0  0  0  0  0  0  0  0  0  0
  152.1464  144.0007  157.5830 C   0  0  0  0  0  0  0  0  0  0  0  0
  148.5033  140.6105  157.7938 H   0  0  0  0  0  0  0  0  0  0  0  0
  147.5356  141.3209  156.5054 H   0  0  0  0  0  0  0  0  0  0  0  0
  148.2731  142.3564  157.7111 H   0  0  0  0  0  0  0  0  0  0  0  0
  149.5555  142.4669  155.6092 H   0  0  0  0  0  0  0  0  0  0  0  0
  149.8605  139.4403  155.8599 H   0  0  0  0  0  0  0  0  0  0  0  0
  150.6125  140.4250  154.6159 H   0  0  0  0  0  0  0  0  0  0  0  0
  148.8655  140.2873  154.6801 H   0  0  0  0  0  0  0  0  0  0  0  0
  151.8721  141.6248  156.4433 H   0  0  0  0  0  0  0  0  0  0  0  0
  151.6284  136.8033  156.3996 H   0  0  0  0  0  0  0  0  0  0  0  0
  155.0950  139.3858  161.1668 H   0  0  0  0  0  0  0  0  0  0  0  0
  155.6202  136.4403  158.9284 H   0  0  0  0  0  0  0  0  0  0  0  0
  156.3237  137.2561  160.2989 H   0  0  0  0  0  0  0  0  0  0  0  0
  153.7674  135.7248  160.7578 H   0  0  0  0  0  0  0  0  0  0  0  0
  156.4211  134.4674  160.0047 H   0  0  0  0  0  0  0  0  0  0  0  0
  155.3640  133.6299  161.1187 H   0  0  0  0  0  0  0  0  0  0  0  0
  155.2495  133.4864  158.6221 H   0  0  0  0  0  0  0  0  0  0  0  0
  156.3058  136.1121  162.4234 H   0  0  0  0  0  0  0  0  0  0  0  0
  153.7993  134.5535  163.1149 H   0  0  0  0  0  0  0  0  0  0  0  0
  155.4755  134.0025  163.2546 H   0  0  0  0  0  0  0  0  0  0  0  0
  154.3188  135.0667  165.4270 H   0  0  0  0  0  0  0  0  0  0  0  0
  155.9364  135.6359  164.9970 H   0  0  0  0  0  0  0  0  0  0  0  0
  155.1218  138.1049  162.8997 H   0  0  0  0  0  0  0  0  0  0  0  0
  153.5480  137.3558  162.6204 H   0  0  0  0  0  0  0  0  0  0  0  0
  151.4817  141.9049  160.0293 H   0  0  0  0  0  0  0  0  0  0  0  0
  152.8657  141.7220  158.8756 H   0  0  0  0  0  0  0  0  0  0  0  0
  149.4103  144.1520  157.8227 H   0  0  0  0  0  0  0  0  0  0  0  0
  149.2068  142.8745  158.9801 H   0  0  0  0  0  0  0  0  0  0  0  0
  149.3352  145.0796  160.0901 H   0  0  0  0  0  0  0  0  0  0  0  0
  150.6433  144.0472  160.6082 H   0  0  0  0  0  0  0  0  0  0  0  0
  150.8086  146.2961  158.5516 H   0  0  0  0  0  0  0  0  0  0  0  0
  151.5424  146.2856  160.1375 H   0  0  0  0  0  0  0  0  0  0  0  0
  153.1898  145.7551  158.3130 H   0  0  0  0  0  0  0  0  0  0  0  0
  153.0663  144.4655  159.4847 H   0  0  0  0  0  0  0  0  0  0  0  0
  153.0616  143.5569  157.1893 H   0  0  0  0  0  0  0  0  0  0  0  0
  151.7064  144.5506  156.7502 H   0  0  0  0  0  0  0  0  0  0  0  0
  1  2  1  0  0  0  0
  1 31  1  0  0  0  0
  1 32  1  0  0  0  0
  1 33  1  0  0  0  0
  2  3  1  0  0  0  0
  2  4  1  0  0  0  0
  2 34  1  0  0  0  0
  3 35  1  0  0  0  0
  3 36  1  0  0  0  0
  3 37  1  0  0  0  0
  4 25  1  0  0  0  0
  4  5  1  0  0  0  0
  4 38  1  0  0  0  0
  5  6  1  0  0  0  0
  5 24  1  0  0  0  0
  6 11  1  0  0  0  0
  6  7  2  0  0  0  0
  7  8  1  0  0  0  0
  8  9  2  0  0  0  0
  8 39  1  0  0  0  0
  9 10  1  0  0  0  0
 10 14  1  0  0  0  0
 10 11  2  0  0  0  0
 11 12  1  0  0  0  0
 12 13  2  0  0  0  0
 13 14  1  0  0  0  0
 13 40  1  0  0  0  0
 14 15  1  0  0  0  0
 15 16  1  0  0  0  0
 15 41  1  0  0  0  0
 15 42  1  0  0  0  0
 16 17  1  0  0  0  0
 16 19  1  0  0  0  0
 16 43  1  0  0  0  0
 17 18  1  0  0  0  0
 17 44  1  0  0  0  0
 17 45  1  0  0  0  0
 18 46  1  0  0  0  0
 19 23  1  0  0  0  0
 19 20  1  0  0  0  0
 19 47  1  0  0  0  0
 20 21  1  0  0  0  0
 20 48  1  0  0  0  0
 20 49  1  0  0  0  0
 21 22  1  0  0  0  0
 21 50  1  0  0  0  0
 21 51  1  0  0  0  0
 22 23  1  0  0  0  0
 23 52  1  0  0  0  0
 23 53  1  0  0  0  0
 24 25  1  0  0  0  0
 24 54  1  0  0  0  0
 24 55  1  0  0  0  0
 25 30  1  0  0  0  0
 25 26  1  0  0  0  0
 26 27  1  0  0  0  0
 26 56  1  0  0  0  0
 26 57  1  0  0  0  0
 27 28  1  0  0  0  0
 27 58  1  0  0  0  0
 27 59  1  0  0  0  0
 28 29  1  0  0  0  0
 28 60  1  0  0  0  0
 28 61  1  0  0  0  0
 29 30  1  0  0  0  0
 29 62  1  0  0  0  0
 29 63  1  0  0  0  0
 30 64  1  0  0  0  0
 30 65  1  0  0  0  0
M  END
> <s_m_source_file>
AV-unprocessed.smi

> <i_m_source_file_index>
275

> <i_lp_mmshare_version>
43012

> <i_f3d_flags>
0

> <s_epik_input>
W0NIMl0xW0NIMl1bQ0gyXVtDSDJdW0NIMl1DMTJbQ0BIXShbQ0hdKFtDSDNdKVtDSDNdKU4oW0NIMl0yKWMobltjSF1uMyljKGMzNCluW2NIXW40W0NIMl1bQ0BIXShbQ0gyXVtPSF0pW0NAQEhdNVtDSDJdW0NIMl1PW0NIMl01

> <s_epik_cmdline>
J2VwaWtfcHl0aG9uJywgJy1waCcsICc3LjAnLCAnLXRuJywgJzgnLCAnLW1hJywgJzIwMCcsICctbWV0YWxfYmluZGluZycsICctaW1hZScsICc8aW5maWxlLm1hZT4nLCAnLW9tYWUnLCAnPG91dGZpbGUubWFlPic=

> <r_lp_tautomer_probability>
1

> <r_epik_Ionization_Penalty>
0.00375122

> <r_epik_Ionization_Penalty_Charging>
0

> <r_epik_Ionization_Penalty_Neutral>
0.00375122

> <r_epik_State_Penalty>
0.00260593

> <r_epik_Charging_Adjusted_Penalty>
0.00260593

> <i_epik_Tot_Q>
0

> <i_epik_Tot_abs_Q>
0

> <r_epik_Metal_State_Penalty>
-0

> <b_epik_Metal_Only>
0

> <s_lp_Force_Field>
OPLS_2005

> <r_lp_Energy>
64.5971

> <b_lp_Chiralities_Consistent>
1

> <s_lp_Variant>
AV-unprocessed.smi:275-3

> <Gold.Version>
5.8.1

> <Gold.Id.Protein>
6NUR|6NUR_protein|mol2

> <Gold.PLP.Fitness>
45.7253

> <Gold.PLP.PLP>
-46.4385

> <Gold.PLP.part.hbond>
-1.0000

> <Gold.PLP.part.metal>
0.0000

> <Gold.PLP.part.buried>
-5.0063

> <Gold.PLP.part.nonpolar>
-39.9079

> <Gold.PLP.part.repulsive>
0.0869

> <Gold.PLP.ligand.clash>
1.4974

> <Gold.PLP.ligand.torsion>
1.4190

> <Gold.PLP.Chemscore.Hbond>
1.0000

> <Gold.PLP.Chemscore.CHOScore>
0.0000

> <Gold.PLP.Chemscore.Metal>
0.0000

> <Gold.Chemscore.Hbonds>
donor molecule, donor type, donor heavy atom, donor atom, acceptor molecule, acceptor atom, score
      P1  H  6896  6909       L1    18  0.71

> <Gold.PLP.Chemscore.Internal.Correction>
0.6222

> <Gold.Rescore>
     Score         DG    S(hbond)    S(metal)    S(lipo)     H(rot)  DE(clash)    DE(int)     intcor
     13.03     -17.29       0.88        0.00     131.28       2.54       1.15       3.12       ----

> <Gold.Chemscore.Fitness>
13.0277

> <Gold.Chemscore.DG>
-17.2883

> <Gold.Chemscore.ZeroCoef>
-5.4800

> <Gold.Chemscore.Hbond>
0.8818

> <Gold.Chemscore.Metal>
0.0000

> <Gold.Chemscore.Lipo>
131.2790

> <Gold.Chemscore.Internal_Hbond>
0.0000

> <Gold.Chemscore.DEClash>
1.1455

> <Gold.Chemscore.DEInternal>
3.1152

> <Gold.Chemscore.Rot>
2.5377

> <Gold.Chemscore.Internal.Correction>
   9.000000E+99

> <Gold.Chemscore.Hbonds>
donor molecule, donor type, donor heavy atom, donor atom, acceptor molecule, acceptor atom, score
      P1  H  6896  6909       L1    18  0.46

> <Gold.Chemscore.Hbond.Weighted>
-2.9453

> <Gold.Chemscore.Metal.Weighted>
-0.0000

> <Gold.Chemscore.Lipo.Weighted>
-15.3596

> <Gold.Chemscore.Internal_Hbond.Weighted>
0.0000

> <Gold.Chemscore.DEClash.Weighted>
1.1455

> <Gold.Chemscore.DEInternal.Weighted>
3.1152

> <Gold.Chemscore.Rot.Weighted>
6.4966

> <Gold.Chemscore.Internal.Correction.Weighted>
   9.000000E+99

> <Gold.Protein.RotatedTorsions>
[ 6907 6896 6895 6894 ] final -130.71 input  -60.11 | X-H torsion
[ 7974 7965 7964 7962 ] final  -95.08 input  175.53 | X-H torsion
[ 8008 7997 7996 7995 ] final   49.46 input   59.86 | X-H torsion
[ 10167 10162 10161 10158 ] final  -96.67 input  -65.29 | X-H torsion
[ 10718 10713 10712 10709 ] final -118.41 input   66.30 | X-H torsion
[ 10763 10752 10751 10750 ] final  -14.67 input  -60.55 | X-H torsion
[ 11005 11000 10999 10996 ] final  147.99 input  -57.11 | X-H torsion

> <Gold.Protein.ActiveResidues>
 VAL166  LYS551  ARG553  GLY616  TRP617  ASP618  TYR619  PRO620  LYS621  CYS622 
 ASP623  PHE694  ASN695  SER759  ASP760  ASP761  ALA762  ILE779  LEU786  VAL792 
 PHE793  MET794  SER795  GLU796  ALA797  LYS798  CYS799  TRP800  GLU811  SER814 

> <Gold.Protein.RotatedAtoms>
  150.9428  133.6637  159.2787 H   0  0  0  0  0  0  0  0  0  0  0  0  # atno 6907 bound_to 6896
  151.4020  135.0971  159.9568 H   0  0  0  0  0  0  0  0  0  0  0  0  # atno 6908 bound_to 6896
  152.5077  133.8920  159.7453 H   0  0  0  0  0  0  0  0  0  0  0  0  # atno 6909 bound_to 6896
  145.3648  140.9497  143.2480 H   0  0  0  0  0  0  0  0  0  0  0  0  # atno 7974 bound_to 7965
  155.4026  140.3438  155.4258 H   0  0  0  0  0  0  0  0  0  0  0  0  # atno 8008 bound_to 7997
  156.1495  140.1566  156.8825 H   0  0  0  0  0  0  0  0  0  0  0  0  # atno 8009 bound_to 7997
  154.5040  140.0807  156.7837 H   0  0  0  0  0  0  0  0  0  0  0  0  # atno 8010 bound_to 7997
  140.2914  143.3219  152.0342 H   0  0  0  0  0  0  0  0  0  0  0  0  # atno 10167 bound_to 10162
  156.1104  130.6244  150.9287 H   0  0  0  0  0  0  0  0  0  0  0  0  # atno 10718 bound_to 10713
  153.5318  135.7014  153.5679 H   0  0  0  0  0  0  0  0  0  0  0  0  # atno 10763 bound_to 10752
  153.3683  135.3951  155.1770 H   0  0  0  0  0  0  0  0  0  0  0  0  # atno 10764 bound_to 10752
  154.8684  135.3805  154.4816 H   0  0  0  0  0  0  0  0  0  0  0  0  # atno 10765 bound_to 10752
  140.0922  134.9034  157.1668 H   0  0  0  0  0  0  0  0  0  0  0  0  # atno 11005 bound_to 11000
  144.8620  139.5164  143.6808 LP  0  0  0  0  0  0  0  0  0  0  0  0  # atno 17320 bound_to 7965
  146.2911  139.7143  142.9160 LP  0  0  0  0  0  0  0  0  0  0  0  0  # atno 17321 bound_to 7965
  139.4937  144.6522  151.6651 LP  0  0  0  0  0  0  0  0  0  0  0  0  # atno 17342 bound_to 10162
  140.5729  144.0078  150.6226 LP  0  0  0  0  0  0  0  0  0  0  0  0  # atno 17343 bound_to 10162
  157.6285  131.0923  150.8487 LP  0  0  0  0  0  0  0  0  0  0  0  0  # atno 17370 bound_to 10713
  156.8599  130.5109  149.5304 LP  0  0  0  0  0  0  0  0  0  0  0  0  # atno 17371 bound_to 10713
  140.3336  134.2782  155.7224 LP  0  0  0  0  0  0  0  0  0  0  0  0  # atno 17394 bound_to 11000
  141.2081  133.7786  157.0078 LP  0  0  0  0  0  0  0  0  0  0  0  0  # atno 17395 bound_to 11000

$$$$
