AV-unprocessed.smi:3308|AV-procd|sdf|12713|dock3
  -GOLD-   2272019 53D 1   1.00000     0.00000
 Structure written by MMmdl.
 40 41  0  0  0  0  0  0  0  0  1 V2000
  148.6254  140.5193  157.3939 C   0  0  0  0  0  0  0  0  0  0  0  0
  149.5013  141.7028  156.9275 C   0  0  1  0  0  0  0  0  0  0  0  0
  150.7348  141.7067  157.7085 N   0  0  0  0  0  0  0  0  0  0  0  0
  151.4244  143.0022  157.6597 C   0  0  0  0  0  0  0  0  0  0  0  0
  151.5715  143.6076  159.0592 C   0  0  0  0  0  0  0  0  0  0  0  0
  150.9469  144.6341  159.3271 O   0  0  0  0  0  0  0  0  0  0  0  0
  152.3813  143.0004  159.9528 N   0  0  0  0  0  0  0  0  0  0  0  0
  152.6270  143.4397  161.3266 C   0  0  0  0  0  0  0  0  0  0  0  0
  153.4080  142.3060  161.9915 C   0  0  0  0  0  0  0  0  0  0  0  0
  154.0981  141.5991  160.8332 C   0  0  0  0  0  0  0  0  0  0  0  0
  153.1397  141.7865  159.6571 C   0  0  0  0  0  0  0  0  0  0  0  0
  149.8750  141.6281  155.4226 C   0  0  2  0  0  0  0  0  0  0  0  0
  148.6426  141.6845  154.5003 C   0  0  0  0  0  0  0  0  0  0  0  0
  150.6558  140.4355  155.1168 N   0  0  0  0  0  0  0  0  0  0  0  0
  150.4671  139.5175  154.1025 C   0  0  0  0  0  0  0  0  0  0  0  0
  151.4492  138.5758  154.2152 C   0  0  0  0  0  0  0  0  0  0  0  0
  152.2062  139.0105  155.3386 C   0  0  0  0  0  0  0  0  0  0  0  0
  151.7313  140.1235  155.8737 N   0  0  0  0  0  0  0  0  0  0  0  0
  147.6637  140.5034  156.8815 H   0  0  0  0  0  0  0  0  0  0  0  0
  148.4062  140.5637  158.4601 H   0  0  0  0  0  0  0  0  0  0  0  0
  149.1179  139.5658  157.1995 H   0  0  0  0  0  0  0  0  0  0  0  0
  148.9575  142.6345  157.0952 H   0  0  0  0  0  0  0  0  0  0  0  0
  151.3381  140.9717  157.3678 H   0  0  0  0  0  0  0  0  0  0  0  0
  152.4172  142.8637  157.2286 H   0  0  0  0  0  0  0  0  0  0  0  0
  150.9025  143.7024  157.0084 H   0  0  0  0  0  0  0  0  0  0  0  0
  153.2243  144.3524  161.3079 H   0  0  0  0  0  0  0  0  0  0  0  0
  151.7039  143.6472  161.8691 H   0  0  0  0  0  0  0  0  0  0  0  0
  154.1081  142.6615  162.7479 H   0  0  0  0  0  0  0  0  0  0  0  0
  152.7133  141.6185  162.4763 H   0  0  0  0  0  0  0  0  0  0  0  0
  155.0451  142.0951  160.6159 H   0  0  0  0  0  0  0  0  0  0  0  0
  154.3106  140.5503  161.0426 H   0  0  0  0  0  0  0  0  0  0  0  0
  152.4482  140.9455  159.5890 H   0  0  0  0  0  0  0  0  0  0  0  0
  153.6807  141.8585  158.7123 H   0  0  0  0  0  0  0  0  0  0  0  0
  150.5009  142.4920  155.1880 H   0  0  0  0  0  0  0  0  0  0  0  0
  148.0915  142.6171  154.6225 H   0  0  0  0  0  0  0  0  0  0  0  0
  147.9537  140.8642  154.7037 H   0  0  0  0  0  0  0  0  0  0  0  0
  148.9368  141.6189  153.4522 H   0  0  0  0  0  0  0  0  0  0  0  0
  149.6555  139.6086  153.3952 H   0  0  0  0  0  0  0  0  0  0  0  0
  151.6040  137.7092  153.5898 H   0  0  0  0  0  0  0  0  0  0  0  0
  153.0809  138.5542  155.7780 H   0  0  0  0  0  0  0  0  0  0  0  0
  1  2  1  0  0  0  0
  1 19  1  0  0  0  0
  1 20  1  0  0  0  0
  1 21  1  0  0  0  0
  2  3  1  0  0  0  0
  2 12  1  0  0  0  0
  2 22  1  0  0  0  0
  3  4  1  0  0  0  0
  3 23  1  0  0  0  0
  4  5  1  0  0  0  0
  4 24  1  0  0  0  0
  4 25  1  0  0  0  0
  5  6  2  0  0  0  0
  5  7  1  0  0  0  0
  7 11  1  0  0  0  0
  7  8  1  0  0  0  0
  8  9  1  0  0  0  0
  8 26  1  0  0  0  0
  8 27  1  0  0  0  0
  9 10  1  0  0  0  0
  9 28  1  0  0  0  0
  9 29  1  0  0  0  0
 10 11  1  0  0  0  0
 10 30  1  0  0  0  0
 10 31  1  0  0  0  0
 11 32  1  0  0  0  0
 11 33  1  0  0  0  0
 12 13  1  0  0  0  0
 12 14  1  0  0  0  0
 12 34  1  0  0  0  0
 13 35  1  0  0  0  0
 13 36  1  0  0  0  0
 13 37  1  0  0  0  0
 14 18  1  0  0  0  0
 14 15  1  0  0  0  0
 15 16  2  0  0  0  0
 15 38  1  0  0  0  0
 16 17  1  0  0  0  0
 16 39  1  0  0  0  0
 17 18  2  0  0  0  0
 17 40  1  0  0  0  0
M  END
> <s_m_source_file>
AV-unprocessed.smi

> <i_m_source_file_index>
3308

> <i_lp_mmshare_version>
43012

> <i_f3d_flags>
0

> <s_epik_input>
bjFbY0hdW2NIXVtjSF1uMVtDQEBIXShbQ0gzXSlbQ0BIXShbQ0gzXSlbTkhdW0NIMl1DKD1PKU4yW0NIMl1bQ0gyXVtDSDJdW0NIMl0y

> <s_epik_cmdline>
J2VwaWtfcHl0aG9uJywgJy1waCcsICc3LjAnLCAnLXRuJywgJzgnLCAnLW1hJywgJzIwMCcsICctbWV0YWxfYmluZGluZycsICctaW1hZScsICc8aW5maWxlLm1hZT4nLCAnLW9tYWUnLCAnPG91dGZpbGUubWFlPic=

> <r_lp_tautomer_probability>
1

> <r_epik_Ionization_Penalty>
0.918676

> <r_epik_Ionization_Penalty_Charging>
0

> <r_epik_Ionization_Penalty_Neutral>
0.918676

> <r_epik_State_Penalty>
0.958258

> <r_epik_Charging_Adjusted_Penalty>
0.958258

> <i_epik_Tot_Q>
0

> <i_epik_Tot_abs_Q>
0

> <r_epik_Metal_State_Penalty>
0.956879

> <b_epik_Metal_Only>
0

> <s_lp_Force_Field>
OPLS_2005

> <r_lp_Energy>
35.768

> <b_lp_Chiralities_Consistent>
1

> <s_lp_Variant>
AV-unprocessed.smi:3308-6

> <Gold.Version>
5.8.1

> <Gold.Id.Protein>
6NUR|6NUR_protein|mol2

> <Gold.PLP.Fitness>
47.3351

> <Gold.PLP.PLP>
-45.6816

> <Gold.PLP.part.hbond>
0.0000

> <Gold.PLP.part.metal>
0.0000

> <Gold.PLP.part.buried>
-3.3841

> <Gold.PLP.part.nonpolar>
-42.0430

> <Gold.PLP.part.repulsive>
0.1568

> <Gold.PLP.ligand.clash>
0.0000

> <Gold.PLP.ligand.torsion>
0.7106

> <Gold.PLP.Chemscore.Hbond>
0.0000

> <Gold.PLP.Chemscore.CHOScore>
0.9973

> <Gold.PLP.Chemscore.Metal>
0.0000

> <Gold.Chemscore.Hbonds>
donor molecule, donor type, donor heavy atom, donor atom, acceptor molecule, acceptor atom, score
      L1  C    15    38       P1  7957  1.00

> <Gold.PLP.Chemscore.Internal.Correction>
0.0827

> <Gold.Rescore>
     Score         DG    S(hbond)    S(metal)    S(lipo)     H(rot)  DE(clash)    DE(int)     intcor
     10.74     -12.87       0.00        0.00     100.78       1.72       0.04       2.08       ----

> <Gold.Chemscore.Fitness>
10.7436

> <Gold.Chemscore.DG>
-12.8682

> <Gold.Chemscore.ZeroCoef>
-5.4800

> <Gold.Chemscore.Hbond>
0.0000

> <Gold.Chemscore.Metal>
0.0000

> <Gold.Chemscore.Lipo>
100.7806

> <Gold.Chemscore.Internal_Hbond>
0.0000

> <Gold.Chemscore.DEClash>
0.0402

> <Gold.Chemscore.DEInternal>
2.0844

> <Gold.Chemscore.Rot>
1.7200

> <Gold.Chemscore.Internal.Correction>
   9.000000E+99

> <Gold.Chemscore.Hbond.Weighted>
-0.0000

> <Gold.Chemscore.Metal.Weighted>
-0.0000

> <Gold.Chemscore.Lipo.Weighted>
-11.7913

> <Gold.Chemscore.Internal_Hbond.Weighted>
0.0000

> <Gold.Chemscore.DEClash.Weighted>
0.0402

> <Gold.Chemscore.DEInternal.Weighted>
2.0844

> <Gold.Chemscore.Rot.Weighted>
4.4031

> <Gold.Chemscore.Internal.Correction.Weighted>
   9.000000E+99

> <Gold.Protein.RotatedTorsions>
[ 6907 6896 6895 6894 ] final   87.21 input  -60.11 | X-H torsion
[ 7974 7965 7964 7962 ] final   34.55 input  175.53 | X-H torsion
[ 8008 7997 7996 7995 ] final   88.90 input   59.86 | X-H torsion
[ 10167 10162 10161 10158 ] final  -24.11 input  -65.29 | X-H torsion
[ 10718 10713 10712 10709 ] final    8.00 input   66.30 | X-H torsion
[ 10763 10752 10751 10750 ] final  -35.85 input  -60.55 | X-H torsion
[ 11005 11000 10999 10996 ] final  120.88 input  -57.11 | X-H torsion

> <Gold.Protein.ActiveResidues>
 VAL166  LYS551  ARG553  GLY616  TRP617  ASP618  TYR619  PRO620  LYS621  CYS622 
 ASP623  PHE694  ASN695  SER759  ASP760  ASP761  ALA762  ILE779  LEU786  VAL792 
 PHE793  MET794  SER795  GLU796  ALA797  LYS798  CYS799  TRP800  GLU811  SER814 

> <Gold.Protein.RotatedAtoms>
  152.5407  134.2311  159.8825 H   0  0  0  0  0  0  0  0  0  0  0  0  # atno 6907 bound_to 6896
  151.2283  133.4457  159.2610 H   0  0  0  0  0  0  0  0  0  0  0  0  # atno 6908 bound_to 6896
  151.0740  134.9829  159.8378 H   0  0  0  0  0  0  0  0  0  0  0  0  # atno 6909 bound_to 6896
  146.1345  139.6255  142.9204 H   0  0  0  0  0  0  0  0  0  0  0  0  # atno 7974 bound_to 7965
  155.9934  140.3366  155.6775 H   0  0  0  0  0  0  0  0  0  0  0  0  # atno 8008 bound_to 7997
  155.6389  140.0693  157.2643 H   0  0  0  0  0  0  0  0  0  0  0  0  # atno 8009 bound_to 7997
  154.4226  140.1746  156.1540 H   0  0  0  0  0  0  0  0  0  0  0  0  # atno 8010 bound_to 7997
  140.7288  143.4383  151.0696 H   0  0  0  0  0  0  0  0  0  0  0  0  # atno 10167 bound_to 10162
  156.9452  130.5876  149.5654 H   0  0  0  0  0  0  0  0  0  0  0  0  # atno 10718 bound_to 10713
  153.8700  135.6832  153.4775 H   0  0  0  0  0  0  0  0  0  0  0  0  # atno 10763 bound_to 10752
  153.1292  135.4705  154.9320 H   0  0  0  0  0  0  0  0  0  0  0  0  # atno 10764 bound_to 10752
  154.7718  135.3241  154.8124 H   0  0  0  0  0  0  0  0  0  0  0  0  # atno 10765 bound_to 10752
  139.9203  134.9636  156.7874 H   0  0  0  0  0  0  0  0  0  0  0  0  # atno 11005 bound_to 11000
  145.5187  141.0433  143.2447 LP  0  0  0  0  0  0  0  0  0  0  0  0  # atno 17320 bound_to 7965
  144.7725  139.6703  143.7189 LP  0  0  0  0  0  0  0  0  0  0  0  0  # atno 17321 bound_to 7965
  139.8047  143.8034  152.3166 LP  0  0  0  0  0  0  0  0  0  0  0  0  # atno 17342 bound_to 10162
  139.8063  144.7354  150.9757 LP  0  0  0  0  0  0  0  0  0  0  0  0  # atno 17343 bound_to 10162
  156.0387  130.5472  150.8717 LP  0  0  0  0  0  0  0  0  0  0  0  0  # atno 17370 bound_to 10713
  157.5758  131.0946  150.9347 LP  0  0  0  0  0  0  0  0  0  0  0  0  # atno 17371 bound_to 10713
  140.6495  133.9745  155.7748 LP  0  0  0  0  0  0  0  0  0  0  0  0  # atno 17394 bound_to 11000
  141.0718  134.0194  157.3515 LP  0  0  0  0  0  0  0  0  0  0  0  0  # atno 17395 bound_to 11000

$$$$
