AV-unprocessed.smi:2729|AV-procd|sdf|10527|dock10
  -GOLD-   2272014573D 1   1.00000     0.00000
 Structure written by MMmdl.
 33 34  0  0  0  0  0  0  0  0  1 V2000
  150.2171  132.0198  154.6390 C   0  0  0  0  0  0  0  0  0  0  0  0
  149.6121  133.4000  154.9709 C   0  0  2  0  0  0  0  0  0  0  0  0
  148.7550  133.8638  153.8706 N   0  0  0  0  0  0  0  0  0  0  0  0
  147.7219  133.2288  153.2932 C   0  0  0  0  0  0  0  0  0  0  0  0
  147.3173  132.1191  153.6374 O   0  0  0  0  0  0  0  0  0  0  0  0
  147.1900  133.9760  152.3110 N   0  0  0  0  0  0  0  0  0  0  0  0
  146.1065  133.6605  151.4476 C   0  0  0  0  0  0  0  0  0  0  0  0
  145.7891  132.3504  151.0135 C   0  0  0  0  0  0  0  0  0  0  0  0
  144.7009  132.1699  150.1382 C   0  0  0  0  0  0  0  0  0  0  0  0
  143.9755  133.3036  149.7241 C   0  0  0  0  0  0  0  0  0  0  0  0
  144.2749  134.5589  150.1190 N   0  0  0  0  0  0  0  0  0  0  0  0
  145.3200  134.7245  150.9574 C   0  0  0  0  0  0  0  0  0  0  0  0
  150.7129  134.4439  155.2994 C   0  0  0  0  0  0  0  0  0  0  0  0
  150.0807  135.6547  155.9960 C   0  0  0  0  0  0  0  0  0  0  0  0
  148.6769  134.9888  156.9627 S   0  0  0  0  0  0  0  0  0  0  0  0
  149.0479  134.9070  158.3835 O   0  0  0  0  0  0  0  0  0  0  0  0
  147.4427  135.6678  156.5393 O   0  0  0  0  0  0  0  0  0  0  0  0
  148.7290  133.3067  156.2317 C   0  0  0  0  0  0  0  0  0  0  0  0
  150.7955  131.6304  155.4774 H   0  0  0  0  0  0  0  0  0  0  0  0
  150.8901  132.0628  153.7828 H   0  0  0  0  0  0  0  0  0  0  0  0
  149.4378  131.2911  154.4131 H   0  0  0  0  0  0  0  0  0  0  0  0
  148.9870  134.7730  153.4983 H   0  0  0  0  0  0  0  0  0  0  0  0
  147.5747  134.9028  152.1998 H   0  0  0  0  0  0  0  0  0  0  0  0
  146.3619  131.4887  151.3186 H   0  0  0  0  0  0  0  0  0  0  0  0
  144.4318  131.1845  149.7880 H   0  0  0  0  0  0  0  0  0  0  0  0
  143.1359  133.2001  149.0528 H   0  0  0  0  0  0  0  0  0  0  0  0
  145.5317  135.7428  151.2496 H   0  0  0  0  0  0  0  0  0  0  0  0
  151.4234  133.9919  155.9929 H   0  0  0  0  0  0  0  0  0  0  0  0
  151.2961  134.7453  154.4297 H   0  0  0  0  0  0  0  0  0  0  0  0
  150.7758  136.1811  156.6504 H   0  0  0  0  0  0  0  0  0  0  0  0
  149.6854  136.3604  155.2651 H   0  0  0  0  0  0  0  0  0  0  0  0
  147.7175  132.9479  156.0375 H   0  0  0  0  0  0  0  0  0  0  0  0
  149.1810  132.6486  156.9749 H   0  0  0  0  0  0  0  0  0  0  0  0
  1  2  1  0  0  0  0
  1 19  1  0  0  0  0
  1 20  1  0  0  0  0
  1 21  1  0  0  0  0
  2 18  1  0  0  0  0
  2  3  1  0  0  0  0
  2 13  1  0  0  0  0
  3  4  1  0  0  0  0
  3 22  1  0  0  0  0
  4  5  2  0  0  0  0
  4  6  1  0  0  0  0
  6  7  1  0  0  0  0
  6 23  1  0  0  0  0
  7 12  1  0  0  0  0
  7  8  2  0  0  0  0
  8  9  1  0  0  0  0
  8 24  1  0  0  0  0
  9 10  2  0  0  0  0
  9 25  1  0  0  0  0
 10 11  1  0  0  0  0
 10 26  1  0  0  0  0
 11 12  2  0  0  0  0
 12 27  1  0  0  0  0
 13 14  1  0  0  0  0
 13 28  1  0  0  0  0
 13 29  1  0  0  0  0
 14 15  1  0  0  0  0
 14 30  1  0  0  0  0
 14 31  1  0  0  0  0
 15 16  2  0  0  0  0
 15 17  2  0  0  0  0
 15 18  1  0  0  0  0
 18 32  1  0  0  0  0
 18 33  1  0  0  0  0
M  END
> <s_m_source_file>
AV-unprocessed.smi

> <i_m_source_file_index>
2729

> <i_lp_mmshare_version>
43012

> <i_f3d_flags>
0

> <s_epik_input>
Tz1TKD1PKShbQ0gyXTEpW0NIMl1bQ0gyXVtDQEBdMShbQ0gzXSlbTkhdQyg9TylbTkhdYzJbY0hdW2NIXVtjSF1uW2NIXTI=

> <s_epik_cmdline>
J2VwaWtfcHl0aG9uJywgJy1waCcsICc3LjAnLCAnLXRuJywgJzgnLCAnLW1hJywgJzIwMCcsICctbWV0YWxfYmluZGluZycsICctaW1hZScsICc8aW5maWxlLm1hZT4nLCAnLW9tYWUnLCAnPG91dGZpbGUubWFlPic=

> <r_epik_Ionization_Penalty>
0.00438887

> <r_epik_Ionization_Penalty_Charging>
0

> <r_epik_Ionization_Penalty_Neutral>
0.00438887

> <r_epik_State_Penalty>
0.00314315

> <r_epik_Charging_Adjusted_Penalty>
0.00314315

> <i_epik_Tot_Q>
0

> <i_epik_Tot_abs_Q>
0

> <r_epik_Metal_State_Penalty>
-0

> <b_epik_Metal_Only>
0

> <s_lp_Force_Field>
OPLS_2005

> <r_lp_Energy>
5.04322

> <b_lp_Chiralities_Consistent>
1

> <s_lp_Variant>
AV-unprocessed.smi:2729-2

> <Gold.Version>
5.8.1

> <Gold.Id.Protein>
6NUR|6NUR_protein|mol2

> <Gold.PLP.Fitness>
35.6886

> <Gold.PLP.PLP>
-25.2453

> <Gold.PLP.part.hbond>
-2.9426

> <Gold.PLP.part.metal>
0.0000

> <Gold.PLP.part.buried>
-5.2458

> <Gold.PLP.part.nonpolar>
-17.6443

> <Gold.PLP.part.repulsive>
0.4805

> <Gold.PLP.ligand.clash>
0.0000

> <Gold.PLP.ligand.torsion>
0.2306

> <Gold.PLP.Chemscore.Hbond>
2.8294

> <Gold.PLP.Chemscore.CHOScore>
0.8004

> <Gold.PLP.Chemscore.Metal>
0.0000

> <Gold.Chemscore.Hbonds>
donor molecule, donor type, donor heavy atom, donor atom, acceptor molecule, acceptor atom, score
      L1  H     3    22       P1  7948  0.66
      L1  H     6    23       P1  7948  1.00
      P1  H  6896  6908       L1    16  1.00
      L1  C    10    26       P1 10186  0.80

> <Gold.PLP.Chemscore.Internal.Correction>
0.0150

> <Gold.Rescore>
     Score         DG    S(hbond)    S(metal)    S(lipo)     H(rot)  DE(clash)    DE(int)     intcor
     16.75     -17.28       2.24        0.00      58.88       1.00       0.24       0.29       ----

> <Gold.Chemscore.Fitness>
16.7494

> <Gold.Chemscore.DG>
-17.2759

> <Gold.Chemscore.ZeroCoef>
-5.4800

> <Gold.Chemscore.Hbond>
2.2356

> <Gold.Chemscore.Metal>
0.0000

> <Gold.Chemscore.Lipo>
58.8814

> <Gold.Chemscore.Internal_Hbond>
0.0000

> <Gold.Chemscore.DEClash>
0.2367

> <Gold.Chemscore.DEInternal>
0.2898

> <Gold.Chemscore.Rot>
1.0000

> <Gold.Chemscore.Internal.Correction>
   9.000000E+99

> <Gold.Chemscore.Hbonds>
donor molecule, donor type, donor heavy atom, donor atom, acceptor molecule, acceptor atom, score
      L1  H     3    22       P1  7948  0.14
      L1  H     6    23       P1  7948  0.89
      P1  H  6896  6908       L1    16  0.97

> <Gold.Chemscore.Hbond.Weighted>
-7.4668

> <Gold.Chemscore.Metal.Weighted>
-0.0000

> <Gold.Chemscore.Lipo.Weighted>
-6.8891

> <Gold.Chemscore.Internal_Hbond.Weighted>
0.0000

> <Gold.Chemscore.DEClash.Weighted>
0.2367

> <Gold.Chemscore.DEInternal.Weighted>
0.2898

> <Gold.Chemscore.Rot.Weighted>
2.5600

> <Gold.Chemscore.Internal.Correction.Weighted>
   9.000000E+99

> <Gold.Protein.RotatedTorsions>
[ 6907 6896 6895 6894 ] final  159.63 input  -60.11 | X-H torsion
[ 7974 7965 7964 7962 ] final   91.46 input  175.53 | X-H torsion
[ 8008 7997 7996 7995 ] final -106.74 input   59.86 | X-H torsion
[ 10167 10162 10161 10158 ] final -178.63 input  -65.29 | X-H torsion
[ 10718 10713 10712 10709 ] final   59.65 input   66.30 | X-H torsion
[ 10763 10752 10751 10750 ] final -119.35 input  -60.55 | X-H torsion
[ 11005 11000 10999 10996 ] final   39.61 input  -57.11 | X-H torsion

> <Gold.Protein.ActiveResidues>
 VAL166  LYS551  ARG553  GLY616  TRP617  ASP618  TYR619  PRO620  LYS621  CYS622 
 ASP623  PHE694  ASN695  SER759  ASP760  ASP761  ALA762  ILE779  LEU786  VAL792 
 PHE793  MET794  SER795  GLU796  ALA797  LYS798  CYS799  TRP800  GLU811  SER814 

> <Gold.Protein.RotatedAtoms>
  151.9827  133.3763  159.4113 H   0  0  0  0  0  0  0  0  0  0  0  0  # atno 6907 bound_to 6896
  150.6932  134.4021  159.5133 H   0  0  0  0  0  0  0  0  0  0  0  0  # atno 6908 bound_to 6896
  152.1743  134.8808  160.0582 H   0  0  0  0  0  0  0  0  0  0  0  0  # atno 6909 bound_to 6896
  145.5054  139.2276  143.2754 H   0  0  0  0  0  0  0  0  0  0  0  0  # atno 7974 bound_to 7965
  154.9190  140.0408  157.1988 H   0  0  0  0  0  0  0  0  0  0  0  0  # atno 8008 bound_to 7997
  154.8272  140.2893  155.5725 H   0  0  0  0  0  0  0  0  0  0  0  0  # atno 8009 bound_to 7997
  156.2984  140.2507  156.3191 H   0  0  0  0  0  0  0  0  0  0  0  0  # atno 8010 bound_to 7997
  139.5423  144.2328  152.0920 H   0  0  0  0  0  0  0  0  0  0  0  0  # atno 10167 bound_to 10162
  157.5692  130.8894  149.9238 H   0  0  0  0  0  0  0  0  0  0  0  0  # atno 10718 bound_to 10713
  154.8614  135.4241  154.2284 H   0  0  0  0  0  0  0  0  0  0  0  0  # atno 10763 bound_to 10752
  153.3274  135.6986  153.6983 H   0  0  0  0  0  0  0  0  0  0  0  0  # atno 10764 bound_to 10752
  153.6013  135.3536  155.2920 H   0  0  0  0  0  0  0  0  0  0  0  0  # atno 10765 bound_to 10752
  140.2011  134.3870  155.8096 H   0  0  0  0  0  0  0  0  0  0  0  0  # atno 11005 bound_to 11000
  146.2200  140.5857  142.9021 LP  0  0  0  0  0  0  0  0  0  0  0  0  # atno 17320 bound_to 7965
  144.7757  140.5734  143.6640 LP  0  0  0  0  0  0  0  0  0  0  0  0  # atno 17321 bound_to 7965
  140.1809  144.4845  150.6529 LP  0  0  0  0  0  0  0  0  0  0  0  0  # atno 17342 bound_to 10162
  140.6658  143.2267  151.5745 LP  0  0  0  0  0  0  0  0  0  0  0  0  # atno 17343 bound_to 10162
  156.0738  130.3681  150.0720 LP  0  0  0  0  0  0  0  0  0  0  0  0  # atno 17370 bound_to 10713
  156.8875  130.9577  151.3592 LP  0  0  0  0  0  0  0  0  0  0  0  0  # atno 17371 bound_to 10713
  141.2227  133.7094  156.8259 LP  0  0  0  0  0  0  0  0  0  0  0  0  # atno 17394 bound_to 11000
  140.2053  134.8867  157.3215 LP  0  0  0  0  0  0  0  0  0  0  0  0  # atno 17395 bound_to 11000

$$$$
