AV-unprocessed.smi:3150|AV-procd|sdf|12013|dock7
  -GOLD-   2272017423D 1   1.00000     0.00000
 Structure written by MMmdl.
 32 33  0  0  0  0  0  0  0  0  2 V2000
  149.5098  138.8439  156.8343 C   0  0  0  0  0  0  0  0  0  0  0  0
  149.4444  138.9241  158.3666 C   0  0  2  0  0  0  0  0  0  0  0  0
  150.5937  139.6427  158.8087 O   0  0  0  0  0  0  0  0  0  0  0  0
  150.7948  140.9088  158.1922 C   0  0  0  0  0  0  0  0  0  0  0  0
  151.4835  141.8257  159.1800 C   0  0  0  0  0  0  0  0  0  0  0  0
  152.2239  143.0560  158.7065 C   0  0  0  0  0  0  0  0  0  0  0  0
  152.9929  141.8779  159.2476 C   0  0  0  0  0  0  0  0  0  0  0  0
  149.4094  137.5224  158.9970 C   0  0  0  0  0  0  0  0  0  0  0  0
  150.4014  136.7957  158.9235 O   0  0  0  0  0  0  0  0  0  0  0  0
  148.2607  137.1936  159.6161 N   0  0  0  0  0  0  0  0  0  0  0  0
  147.9203  135.9836  160.2814 C   0  0  0  0  0  0  0  0  0  0  0  0
  148.0502  134.7629  159.7032 N   0  0  0  0  0  0  0  0  0  0  0  0
  147.7026  133.6613  160.3995 C   0  0  0  0  0  0  0  0  0  0  0  0
  147.2040  133.7049  161.7133 C   0  0  0  0  0  0  0  0  0  0  0  0
  147.0648  134.9619  162.3262 C   0  0  0  0  0  0  0  0  0  0  0  0
  147.4265  136.1182  161.6061 C   0  0  0  0  0  0  0  0  0  0  0  0
  147.2911  137.3420  162.2040 O   0  5  0  0  0  0  0  0  0  0  0  0
  148.6585  138.2946  156.4303 H   0  0  0  0  0  0  0  0  0  0  0  0
  150.4208  138.3486  156.4963 H   0  0  0  0  0  0  0  0  0  0  0  0
  149.4954  139.8415  156.3951 H   0  0  0  0  0  0  0  0  0  0  0  0
  148.5451  139.4787  158.6419 H   0  0  0  0  0  0  0  0  0  0  0  0
  151.4282  140.8049  157.3103 H   0  0  0  0  0  0  0  0  0  0  0  0
  149.8512  141.3556  157.8762 H   0  0  0  0  0  0  0  0  0  0  0  0
  150.9660  141.9120  160.1337 H   0  0  0  0  0  0  0  0  0  0  0  0
  152.2714  143.2381  157.6345 H   0  0  0  0  0  0  0  0  0  0  0  0
  152.1640  143.9470  159.3282 H   0  0  0  0  0  0  0  0  0  0  0  0
  153.4472  141.9815  160.2309 H   0  0  0  0  0  0  0  0  0  0  0  0
  153.5542  141.2758  158.5357 H   0  0  0  0  0  0  0  0  0  0  0  0
  147.5288  137.8896  159.6080 H   0  0  0  0  0  0  0  0  0  0  0  0
  147.8261  132.7155  159.8929 H   0  0  0  0  0  0  0  0  0  0  0  0
  146.9362  132.7994  162.2367 H   0  0  0  0  0  0  0  0  0  0  0  0
  146.6851  135.0358  163.3350 H   0  0  0  0  0  0  0  0  0  0  0  0
  1  2  1  0  0  0  0
  1 18  1  0  0  0  0
  1 19  1  0  0  0  0
  1 20  1  0  0  0  0
  2  3  1  0  0  0  0
  2  8  1  0  0  0  0
  2 21  1  0  0  0  0
  3  4  1  0  0  0  0
  4  5  1  0  0  0  0
  4 22  1  0  0  0  0
  4 23  1  0  0  0  0
  5  7  1  0  0  0  0
  5  6  1  0  0  0  0
  5 24  1  0  0  0  0
  6  7  1  0  0  0  0
  6 25  1  0  0  0  0
  6 26  1  0  0  0  0
  7 27  1  0  0  0  0
  7 28  1  0  0  0  0
  8  9  2  0  0  0  0
  8 10  1  0  0  0  0
 10 29  1  0  0  0  0
 10 11  1  0  0  0  0
 11 16  2  0  0  0  0
 11 12  1  0  0  0  0
 12 13  2  0  0  0  0
 13 30  1  0  0  0  0
 13 14  1  0  0  0  0
 14 31  1  0  0  0  0
 14 15  2  0  0  0  0
 15 16  1  0  0  0  0
 15 32  1  0  0  0  0
 16 17  1  0  0  0  0
M  CHG  1  17  -1
M  END
> <s_m_source_file>
AV-unprocessed.smi

> <i_m_source_file_index>
3150

> <i_lp_mmshare_version>
43012

> <i_f3d_flags>
0

> <s_epik_input>
W0NIMl0xW0NIMl1bQ0hdMVtDSDJdT1tDQEBIXShbQ0gzXSlDKD1PKVtOSF1jMm5bY0hdW2NIXVtjSF1jMltPSF0=

> <s_epik_cmdline>
J2VwaWtfcHl0aG9uJywgJy1waCcsICc3LjAnLCAnLXRuJywgJzgnLCAnLW1hJywgJzIwMCcsICctbWV0YWxfYmluZGluZycsICctaW1hZScsICc8aW5maWxlLm1hZT4nLCAnLW9tYWUnLCAnPG91dGZpbGUubWFlPic=

> <r_epik_Ionization_Penalty>
4.12024

> <r_epik_Ionization_Penalty_Charging>
2.08551

> <r_epik_Ionization_Penalty_Neutral>
2.03473

> <r_epik_State_Penalty>
2.65726

> <r_epik_Charging_Adjusted_Penalty>
4.74277

> <i_epik_Tot_Q>
-1

> <i_epik_Tot_abs_Q>
1

> <r_epik_Metal_State_Penalty>
0.600747

> <b_epik_Metal_Only>
0

> <s_lp_Force_Field>
OPLS_2005

> <r_lp_Energy>
13.9624

> <b_lp_Chiralities_Consistent>
1

> <s_lp_Variant>
AV-unprocessed.smi:3150-7

> <Gold.Version>
5.8.1

> <Gold.Id.Protein>
6NUR|6NUR_protein|mol2

> <Gold.PLP.Fitness>
41.1863

> <Gold.PLP.PLP>
-30.8243

> <Gold.PLP.part.hbond>
-3.4721

> <Gold.PLP.part.metal>
0.0000

> <Gold.PLP.part.buried>
-4.2333

> <Gold.PLP.part.nonpolar>
-23.2277

> <Gold.PLP.part.repulsive>
0.2128

> <Gold.PLP.ligand.clash>
0.0000

> <Gold.PLP.ligand.torsion>
1.0771

> <Gold.PLP.Chemscore.Hbond>
3.9760

> <Gold.PLP.Chemscore.CHOScore>
0.0000

> <Gold.PLP.Chemscore.Metal>
0.0000

> <Gold.Chemscore.Hbonds>
donor molecule, donor type, donor heavy atom, donor atom, acceptor molecule, acceptor atom, score
      P1  H  6896  6907       L1     9  0.91
      P1  H  6931  6943       L1    17  1.54
      P1  H  6934  6947       L1    17  1.05

> <Gold.PLP.Chemscore.Internal.Correction>
0.5883

> <Gold.Rescore>
     Score         DG    S(hbond)    S(metal)    S(lipo)     H(rot)  DE(clash)    DE(int)     intcor
     16.97     -18.25       2.71        0.00      67.50       1.64       0.00       1.28       ----

> <Gold.Chemscore.Fitness>
16.9691

> <Gold.Chemscore.DG>
-18.2462

> <Gold.Chemscore.ZeroCoef>
-5.4800

> <Gold.Chemscore.Hbond>
2.7136

> <Gold.Chemscore.Metal>
0.0000

> <Gold.Chemscore.Lipo>
67.5039

> <Gold.Chemscore.Internal_Hbond>
0.0000

> <Gold.Chemscore.DEClash>
0.0000

> <Gold.Chemscore.DEInternal>
1.2771

> <Gold.Chemscore.Rot>
1.6387

> <Gold.Chemscore.Internal.Correction>
   9.000000E+99

> <Gold.Chemscore.Hbonds>
donor molecule, donor type, donor heavy atom, donor atom, acceptor molecule, acceptor atom, score
      P1  H  6896  6907       L1     9  0.87
      P1  H  6931  6943       L1    17  0.41
      P1  H  6934  6947       L1    17  0.49

> <Gold.Chemscore.Hbond.Weighted>
-9.0633

> <Gold.Chemscore.Metal.Weighted>
-0.0000

> <Gold.Chemscore.Lipo.Weighted>
-7.8980

> <Gold.Chemscore.Internal_Hbond.Weighted>
0.0000

> <Gold.Chemscore.DEClash.Weighted>
0.0000

> <Gold.Chemscore.DEInternal.Weighted>
1.2771

> <Gold.Chemscore.Rot.Weighted>
4.1950

> <Gold.Chemscore.Internal.Correction.Weighted>
   9.000000E+99

> <Gold.Protein.RotatedTorsions>
[ 6907 6896 6895 6894 ] final  -29.98 input  -60.11 | X-H torsion
[ 7974 7965 7964 7962 ] final   82.39 input  175.53 | X-H torsion
[ 8008 7997 7996 7995 ] final -138.47 input   59.86 | X-H torsion
[ 10167 10162 10161 10158 ] final   15.11 input  -65.29 | X-H torsion
[ 10718 10713 10712 10709 ] final    8.37 input   66.30 | X-H torsion
[ 10763 10752 10751 10750 ] final   84.57 input  -60.55 | X-H torsion
[ 11005 11000 10999 10996 ] final  152.93 input  -57.11 | X-H torsion

> <Gold.Protein.ActiveResidues>
 VAL166  LYS551  ARG553  GLY616  TRP617  ASP618  TYR619  PRO620  LYS621  CYS622 
 ASP623  PHE694  ASN695  SER759  ASP760  ASP761  ALA762  ILE779  LEU786  VAL792 
 PHE793  MET794  SER795  GLU796  ALA797  LYS798  CYS799  TRP800  GLU811  SER814 

> <Gold.Protein.RotatedAtoms>
  151.1118  135.0031  159.8497 H   0  0  0  0  0  0  0  0  0  0  0  0  # atno 6907 bound_to 6896
  152.5443  134.1826  159.8652 H   0  0  0  0  0  0  0  0  0  0  0  0  # atno 6908 bound_to 6896
  151.1877  133.4641  159.2627 H   0  0  0  0  0  0  0  0  0  0  0  0  # atno 6909 bound_to 6896
  145.6257  139.2394  143.2113 H   0  0  0  0  0  0  0  0  0  0  0  0  # atno 7974 bound_to 7965
  155.4288  140.0523  157.3020 H   0  0  0  0  0  0  0  0  0  0  0  0  # atno 8008 bound_to 7997
  154.4869  140.2104  155.9593 H   0  0  0  0  0  0  0  0  0  0  0  0  # atno 8009 bound_to 7997
  156.1287  140.3175  155.8321 H   0  0  0  0  0  0  0  0  0  0  0  0  # atno 8010 bound_to 7997
  140.5889  143.8834  150.6856 H   0  0  0  0  0  0  0  0  0  0  0  0  # atno 10167 bound_to 10162
  156.9506  130.5895  149.5656 H   0  0  0  0  0  0  0  0  0  0  0  0  # atno 10718 bound_to 10713
  153.1394  135.4649  154.9473 H   0  0  0  0  0  0  0  0  0  0  0  0  # atno 10763 bound_to 10752
  154.7734  135.3166  154.8145 H   0  0  0  0  0  0  0  0  0  0  0  0  # atno 10764 bound_to 10752
  153.8670  135.6907  153.4832 H   0  0  0  0  0  0  0  0  0  0  0  0  # atno 10765 bound_to 10752
  140.1352  134.8776  157.2257 H   0  0  0  0  0  0  0  0  0  0  0  0  # atno 11005 bound_to 11000
  146.1396  140.7076  142.9373 LP  0  0  0  0  0  0  0  0  0  0  0  0  # atno 17320 bound_to 7965
  144.7213  140.4383  143.7006 LP  0  0  0  0  0  0  0  0  0  0  0  0  # atno 17321 bound_to 7965
  140.2352  143.3705  152.1533 LP  0  0  0  0  0  0  0  0  0  0  0  0  # atno 17342 bound_to 10162
  139.5215  144.7047  151.5390 LP  0  0  0  0  0  0  0  0  0  0  0  0  # atno 17343 bound_to 10162
  156.0364  130.5451  150.8665 LP  0  0  0  0  0  0  0  0  0  0  0  0  # atno 17370 bound_to 10713
  157.5724  131.0946  150.9397 LP  0  0  0  0  0  0  0  0  0  0  0  0  # atno 17371 bound_to 10713
  140.2792  134.3370  155.7348 LP  0  0  0  0  0  0  0  0  0  0  0  0  # atno 17394 bound_to 11000
  141.2177  133.7468  156.9338 LP  0  0  0  0  0  0  0  0  0  0  0  0  # atno 17395 bound_to 11000

$$$$
