AV-unprocessed.smi:3021|AV-procd|sdf|11499|dock4
  -GOLD-   2272016433D 1   1.00000     0.00000
 Structure written by MMmdl.
 35 37  0  0  0  0  0  0  0  0  1 V2000
  150.2286  138.7626  156.6218 O   0  0  0  0  0  0  0  0  0  0  0  0
  150.8626  139.3087  155.4818 C   0  0  1  0  0  0  0  0  0  0  0  0
  149.8101  139.4745  154.3751 C   0  0  0  0  0  0  0  0  0  0  0  0
  148.7205  140.2233  154.8867 O   0  0  0  0  0  0  0  0  0  0  0  0
  147.7160  140.4667  153.9144 C   0  0  0  0  0  0  0  0  0  0  0  0
  146.8398  141.5694  154.4196 C   0  0  0  0  0  0  0  0  0  0  0  0
  146.4286  142.7531  153.8711 C   0  0  0  0  0  0  0  0  0  0  0  0
  145.5929  143.3782  154.8376 C   0  0  0  0  0  0  0  0  0  0  0  0
  145.5544  142.5295  155.9068 C   0  0  0  0  0  0  0  0  0  0  0  0
  146.3072  141.4215  155.6681 O   0  0  0  0  0  0  0  0  0  0  0  0
  151.5150  140.6522  155.8623 C   0  0  0  0  0  0  0  0  0  0  0  0
  152.0733  140.6390  157.2034 N   0  0  0  0  0  0  0  0  0  0  0  0
  152.7758  139.5519  157.6314 N   0  0  0  0  0  0  0  0  0  0  0  0
  153.1737  139.7670  158.8499 N   0  0  0  0  0  0  0  0  0  0  0  0
  152.7249  141.0200  159.2323 C   0  0  0  0  0  0  0  0  0  0  0  0
  152.8701  141.7468  160.4351 C   0  0  0  0  0  0  0  0  0  0  0  0
  152.3016  143.0330  160.5654 C   0  0  0  0  0  0  0  0  0  0  0  0
  152.5012  143.8909  162.0519 Cl  0  0  0  0  0  0  0  0  0  0  0  0
  151.5795  143.6072  159.4912 C   0  0  0  0  0  0  0  0  0  0  0  0
  150.8780  145.1797  159.6333 Cl  0  0  0  0  0  0  0  0  0  0  0  0
  151.4263  142.8934  158.2860 C   0  0  0  0  0  0  0  0  0  0  0  0
  152.0003  141.6155  158.1773 C   0  0  0  0  0  0  0  0  0  0  0  0
  149.5865  138.1322  156.3323 H   0  0  0  0  0  0  0  0  0  0  0  0
  151.6392  138.6204  155.1453 H   0  0  0  0  0  0  0  0  0  0  0  0
  150.2390  139.9457  153.4888 H   0  0  0  0  0  0  0  0  0  0  0  0
  149.4375  138.4945  154.0722 H   0  0  0  0  0  0  0  0  0  0  0  0
  148.1681  140.7542  152.9642 H   0  0  0  0  0  0  0  0  0  0  0  0
  147.1223  139.5673  153.7451 H   0  0  0  0  0  0  0  0  0  0  0  0
  146.6967  143.1238  152.8928 H   0  0  0  0  0  0  0  0  0  0  0  0
  145.0846  144.3278  154.7603 H   0  0  0  0  0  0  0  0  0  0  0  0
  145.0653  142.5564  156.8693 H   0  0  0  0  0  0  0  0  0  0  0  0
  152.3228  140.8860  155.1679 H   0  0  0  0  0  0  0  0  0  0  0  0
  150.7915  141.4654  155.7818 H   0  0  0  0  0  0  0  0  0  0  0  0
  153.4201  141.3145  161.2582 H   0  0  0  0  0  0  0  0  0  0  0  0
  150.8788  143.3199  157.4584 H   0  0  0  0  0  0  0  0  0  0  0  0
  1  2  1  0  0  0  0
  1 23  1  0  0  0  0
  2  3  1  0  0  0  0
  2 11  1  0  0  0  0
  2 24  1  0  0  0  0
  3  4  1  0  0  0  0
  3 25  1  0  0  0  0
  3 26  1  0  0  0  0
  4  5  1  0  0  0  0
  5  6  1  0  0  0  0
  5 27  1  0  0  0  0
  5 28  1  0  0  0  0
  6 10  1  0  0  0  0
  6  7  2  0  0  0  0
  7  8  1  0  0  0  0
  7 29  1  0  0  0  0
  8  9  2  0  0  0  0
  8 30  1  0  0  0  0
  9 10  1  0  0  0  0
  9 31  1  0  0  0  0
 11 12  1  0  0  0  0
 11 32  1  0  0  0  0
 11 33  1  0  0  0  0
 12 22  1  0  0  0  0
 12 13  1  0  0  0  0
 13 14  2  0  0  0  0
 14 15  1  0  0  0  0
 15 22  2  0  0  0  0
 15 16  1  0  0  0  0
 16 17  2  0  0  0  0
 16 34  1  0  0  0  0
 17 18  1  0  0  0  0
 17 19  1  0  0  0  0
 19 20  1  0  0  0  0
 19 21  2  0  0  0  0
 21 22  1  0  0  0  0
 21 35  1  0  0  0  0
M  END
> <s_m_source_file>
AV-unprocessed.smi

> <i_m_source_file_index>
3021

> <i_lp_mmshare_version>
43012

> <i_f3d_flags>
0

> <s_epik_input>
W2NIXTFjKENsKWMoQ2wpW2NIXWMoYzEyKW4obm4yKVtDSDJdW0NASF0oW09IXSlbQ0gyXU9bQ0gyXWMzW2NIXVtjSF1bY0hdbzM=

> <s_epik_cmdline>
J2VwaWtfcHl0aG9uJywgJy1waCcsICc3LjAnLCAnLXRuJywgJzgnLCAnLW1hJywgJzIwMCcsICctbWV0YWxfYmluZGluZycsICctaW1hZScsICc8aW5maWxlLm1hZT4nLCAnLW9tYWUnLCAnPG91dGZpbGUubWFlPic=

> <r_lp_tautomer_probability>
1

> <r_epik_Ionization_Penalty>
6.1367e-06

> <r_epik_Ionization_Penalty_Charging>
0

> <r_epik_Ionization_Penalty_Neutral>
6.1367e-06

> <r_epik_State_Penalty>
-0

> <r_epik_Charging_Adjusted_Penalty>
0

> <i_epik_Tot_Q>
0

> <i_epik_Tot_abs_Q>
0

> <r_epik_Metal_State_Penalty>
-0

> <b_epik_Metal_Only>
0

> <s_lp_Force_Field>
OPLS_2005

> <r_lp_Energy>
8.01921

> <b_lp_Chiralities_Consistent>
1

> <s_lp_Variant>
AV-unprocessed.smi:3021-2

> <Gold.Version>
5.8.1

> <Gold.Id.Protein>
6NUR|6NUR_protein|mol2

> <Gold.PLP.Fitness>
46.3046

> <Gold.PLP.PLP>
-45.6081

> <Gold.PLP.part.hbond>
-1.1514

> <Gold.PLP.part.metal>
0.0000

> <Gold.PLP.part.buried>
-6.5645

> <Gold.PLP.part.nonpolar>
-37.9725

> <Gold.PLP.part.repulsive>
0.1628

> <Gold.PLP.ligand.clash>
0.0000

> <Gold.PLP.ligand.torsion>
0.6190

> <Gold.PLP.Chemscore.Hbond>
0.5850

> <Gold.PLP.Chemscore.CHOScore>
0.0000

> <Gold.PLP.Chemscore.Metal>
0.0000

> <Gold.Chemscore.Hbonds>
donor molecule, donor type, donor heavy atom, donor atom, acceptor molecule, acceptor atom, score
      P1  H  7997  8008       L1    13  0.49

> <Gold.PLP.Chemscore.Internal.Correction>
0.1794

> <Gold.Rescore>
     Score         DG    S(hbond)    S(metal)    S(lipo)     H(rot)  DE(clash)    DE(int)     intcor
     12.17     -14.13       0.01        0.00     127.61       2.46       0.08       1.89       ----

> <Gold.Chemscore.Fitness>
12.1654

> <Gold.Chemscore.DG>
-14.1286

> <Gold.Chemscore.ZeroCoef>
-5.4800

> <Gold.Chemscore.Hbond>
0.0085

> <Gold.Chemscore.Metal>
0.0000

> <Gold.Chemscore.Lipo>
127.6058

> <Gold.Chemscore.Internal_Hbond>
0.0000

> <Gold.Chemscore.DEClash>
0.0756

> <Gold.Chemscore.DEInternal>
1.8875

> <Gold.Chemscore.Rot>
2.4647

> <Gold.Chemscore.Internal.Correction>
   9.000000E+99

> <Gold.Chemscore.Hbonds>
donor molecule, donor type, donor heavy atom, donor atom, acceptor molecule, acceptor atom, score
      P1  H  7997  8008       L1    13  0.01

> <Gold.Chemscore.Hbond.Weighted>
-0.0284

> <Gold.Chemscore.Metal.Weighted>
-0.0000

> <Gold.Chemscore.Lipo.Weighted>
-14.9299

> <Gold.Chemscore.Internal_Hbond.Weighted>
0.0000

> <Gold.Chemscore.DEClash.Weighted>
0.0756

> <Gold.Chemscore.DEInternal.Weighted>
1.8875

> <Gold.Chemscore.Rot.Weighted>
6.3097

> <Gold.Chemscore.Internal.Correction.Weighted>
   9.000000E+99

> <Gold.Protein.RotatedTorsions>
[ 6907 6896 6895 6894 ] final  128.28 input  -60.11 | X-H torsion
[ 7974 7965 7964 7962 ] final  -34.68 input  175.53 | X-H torsion
[ 8008 7997 7996 7995 ] final  -79.72 input   59.86 | X-H torsion
[ 10167 10162 10161 10158 ] final  133.80 input  -65.29 | X-H torsion
[ 10718 10713 10712 10709 ] final -154.62 input   66.30 | X-H torsion
[ 10763 10752 10751 10750 ] final -166.07 input  -60.55 | X-H torsion
[ 11005 11000 10999 10996 ] final  111.87 input  -57.11 | X-H torsion

> <Gold.Protein.ActiveResidues>
 VAL166  LYS551  ARG553  GLY616  TRP617  ASP618  TYR619  PRO620  LYS621  CYS622 
 ASP623  PHE694  ASN695  SER759  ASP760  ASP761  ALA762  ILE779  LEU786  VAL792 
 PHE793  MET794  SER795  GLU796  ALA797  LYS798  CYS799  TRP800  GLU811  SER814 

> <Gold.Protein.RotatedAtoms>
  152.3734  133.6449  159.6104 H   0  0  0  0  0  0  0  0  0  0  0  0  # atno 6907 bound_to 6896
  150.7686  133.9232  159.3413 H   0  0  0  0  0  0  0  0  0  0  0  0  # atno 6908 bound_to 6896
  151.7051  135.0924  160.0309 H   0  0  0  0  0  0  0  0  0  0  0  0  # atno 6909 bound_to 6896
  146.0810  140.6067  142.8908 H   0  0  0  0  0  0  0  0  0  0  0  0  # atno 7974 bound_to 7965
  154.5812  140.0674  156.9107 H   0  0  0  0  0  0  0  0  0  0  0  0  # atno 8008 bound_to 7997
  155.2459  140.3348  155.4269 H   0  0  0  0  0  0  0  0  0  0  0  0  # atno 8009 bound_to 7997
  156.2191  140.1791  156.7505 H   0  0  0  0  0  0  0  0  0  0  0  0  # atno 8010 bound_to 7997
  139.5282  144.6598  151.5047 H   0  0  0  0  0  0  0  0  0  0  0  0  # atno 10167 bound_to 10162
  156.5018  130.8395  151.2612 H   0  0  0  0  0  0  0  0  0  0  0  0  # atno 10718 bound_to 10713
  154.6870  135.2964  154.9534 H   0  0  0  0  0  0  0  0  0  0  0  0  # atno 10763 bound_to 10752
  154.0510  135.6644  153.4804 H   0  0  0  0  0  0  0  0  0  0  0  0  # atno 10764 bound_to 10752
  153.0585  135.5129  154.7942 H   0  0  0  0  0  0  0  0  0  0  0  0  # atno 10765 bound_to 10752
  139.8914  134.9517  156.6499 H   0  0  0  0  0  0  0  0  0  0  0  0  # atno 11005 bound_to 11000
  144.7293  140.4622  143.6950 LP  0  0  0  0  0  0  0  0  0  0  0  0  # atno 17320 bound_to 7965
  145.6218  139.1525  143.3018 LP  0  0  0  0  0  0  0  0  0  0  0  0  # atno 17321 bound_to 7965
  140.6441  143.8829  150.6720 LP  0  0  0  0  0  0  0  0  0  0  0  0  # atno 17342 bound_to 10162
  140.2173  143.3836  152.1671 LP  0  0  0  0  0  0  0  0  0  0  0  0  # atno 17343 bound_to 10162
  157.7462  130.9979  150.2833 LP  0  0  0  0  0  0  0  0  0  0  0  0  # atno 17370 bound_to 10713
  156.3325  130.3802  149.7478 LP  0  0  0  0  0  0  0  0  0  0  0  0  # atno 17371 bound_to 10713
  140.7528  133.8882  155.8360 LP  0  0  0  0  0  0  0  0  0  0  0  0  # atno 17394 bound_to 11000
  140.9986  134.1181  157.4339 LP  0  0  0  0  0  0  0  0  0  0  0  0  # atno 17395 bound_to 11000

$$$$
