AV-unprocessed.smi:1586|AV-procd|sdf|6377|dock4
  -GOLD-   22720 7 03D 1   1.00000     0.00000
 Structure written by MMmdl.
 46 47  0  0  0  0  0  0  0  0  1 V2000
  152.1385  145.0110  158.8998 C   0  0  0  0  0  0  0  0  0  0  0  0
  151.8610  143.5918  159.4168 C   0  0  0  0  0  0  0  0  0  0  0  0
  152.0512  142.5297  158.4310 N   0  0  0  0  0  0  0  0  0  0  0  0
  151.8564  141.1963  158.9975 C   0  0  0  0  0  0  0  0  0  0  0  0
  152.0628  140.0942  157.9418 C   0  0  0  0  0  0  0  0  0  0  0  0
  151.1488  140.2280  156.7962 N   0  0  0  0  0  0  0  0  0  0  0  0
  151.3602  139.1784  155.7725 C   0  0  2  0  0  0  0  0  0  0  0  0
  150.4227  139.3379  154.5486 C   0  0  0  0  0  0  0  0  0  0  0  0
  151.2111  137.7330  156.3311 C   0  0  0  0  0  0  0  0  0  0  0  0
  149.9691  137.5209  157.0701 N   0  0  0  0  0  0  0  0  0  0  0  0
  149.8830  136.9584  158.2844 C   0  0  0  0  0  0  0  0  0  0  0  0
  150.8614  136.5618  158.9173 O   0  0  0  0  0  0  0  0  0  0  0  0
  148.6067  136.8898  158.6991 N   0  0  0  0  0  0  0  0  0  0  0  0
  148.1019  136.3636  159.9162 C   0  0  0  0  0  0  0  0  0  0  0  0
  147.9522  134.9840  160.2425 C   0  0  0  0  0  0  0  0  0  0  0  0
  147.4356  135.0229  161.5066 C   0  0  0  0  0  0  0  0  0  0  0  0
  147.0308  133.9603  162.4698 C   0  0  0  0  0  0  0  0  0  0  0  0
  147.2813  136.3105  161.9164 O   0  0  0  0  0  0  0  0  0  0  0  0
  147.7105  137.1623  160.8921 N   0  0  0  0  0  0  0  0  0  0  0  0
  151.3274  141.5840  156.2534 C   0  0  0  0  0  0  0  0  0  0  0  0
  151.1204  142.6779  157.3167 C   0  0  0  0  0  0  0  0  0  0  0  0
  151.8724  145.7515  159.6542 H   0  0  0  0  0  0  0  0  0  0  0  0
  151.5531  145.2247  158.0053 H   0  0  0  0  0  0  0  0  0  0  0  0
  153.1909  145.1593  158.6595 H   0  0  0  0  0  0  0  0  0  0  0  0
  152.4750  143.3973  160.2974 H   0  0  0  0  0  0  0  0  0  0  0  0
  150.8265  143.5676  159.7621 H   0  0  0  0  0  0  0  0  0  0  0  0
  152.5595  141.0276  159.8123 H   0  0  0  0  0  0  0  0  0  0  0  0
  150.8559  141.1124  159.4252 H   0  0  0  0  0  0  0  0  0  0  0  0
  153.0985  140.1023  157.5981 H   0  0  0  0  0  0  0  0  0  0  0  0
  151.9059  139.1459  158.4507 H   0  0  0  0  0  0  0  0  0  0  0  0
  152.3821  139.2775  155.4033 H   0  0  0  0  0  0  0  0  0  0  0  0
  150.5420  138.5333  153.8244 H   0  0  0  0  0  0  0  0  0  0  0  0
  150.6237  140.2514  153.9907 H   0  0  0  0  0  0  0  0  0  0  0  0
  149.3758  139.3513  154.8532 H   0  0  0  0  0  0  0  0  0  0  0  0
  151.2350  136.9823  155.5425 H   0  0  0  0  0  0  0  0  0  0  0  0
  152.0445  137.5055  156.9963 H   0  0  0  0  0  0  0  0  0  0  0  0
  149.1162  137.8194  156.6198 H   0  0  0  0  0  0  0  0  0  0  0  0
  147.9103  137.2582  158.0682 H   0  0  0  0  0  0  0  0  0  0  0  0
  148.1802  134.1030  159.6622 H   0  0  0  0  0  0  0  0  0  0  0  0
  147.3950  132.9844  162.1485 H   0  0  0  0  0  0  0  0  0  0  0  0
  145.9452  133.9063  162.5516 H   0  0  0  0  0  0  0  0  0  0  0  0
  147.4362  134.1614  163.4615 H   0  0  0  0  0  0  0  0  0  0  0  0
  152.3204  141.6831  155.8118 H   0  0  0  0  0  0  0  0  0  0  0  0
  150.6078  141.7761  155.4598 H   0  0  0  0  0  0  0  0  0  0  0  0
  150.0917  142.6466  157.6799 H   0  0  0  0  0  0  0  0  0  0  0  0
  151.2558  143.6552  156.8521 H   0  0  0  0  0  0  0  0  0  0  0  0
  1  2  1  0  0  0  0
  1 22  1  0  0  0  0
  1 23  1  0  0  0  0
  1 24  1  0  0  0  0
  2  3  1  0  0  0  0
  2 25  1  0  0  0  0
  2 26  1  0  0  0  0
  3 21  1  0  0  0  0
  3  4  1  0  0  0  0
  4  5  1  0  0  0  0
  4 27  1  0  0  0  0
  4 28  1  0  0  0  0
  5  6  1  0  0  0  0
  5 29  1  0  0  0  0
  5 30  1  0  0  0  0
  6  7  1  0  0  0  0
  6 20  1  0  0  0  0
  7  8  1  0  0  0  0
  7  9  1  0  0  0  0
  7 31  1  0  0  0  0
  8 32  1  0  0  0  0
  8 33  1  0  0  0  0
  8 34  1  0  0  0  0
  9 10  1  0  0  0  0
  9 35  1  0  0  0  0
  9 36  1  0  0  0  0
 10 11  1  0  0  0  0
 10 37  1  0  0  0  0
 11 12  2  0  0  0  0
 11 13  1  0  0  0  0
 13 14  1  0  0  0  0
 13 38  1  0  0  0  0
 14 19  2  0  0  0  0
 14 15  1  0  0  0  0
 15 16  2  0  0  0  0
 15 39  1  0  0  0  0
 16 17  1  0  0  0  0
 16 18  1  0  0  0  0
 17 40  1  0  0  0  0
 17 41  1  0  0  0  0
 17 42  1  0  0  0  0
 18 19  1  0  0  0  0
 20 21  1  0  0  0  0
 20 43  1  0  0  0  0
 20 44  1  0  0  0  0
 21 45  1  0  0  0  0
 21 46  1  0  0  0  0
M  END
> <s_m_source_file>
AV-unprocessed.smi

> <i_m_source_file_index>
1586

> <i_lp_mmshare_version>
43012

> <i_f3d_flags>
0

> <s_epik_input>
W0NIM11bQ0gyXU4xW0NIMl1bQ0gyXU4oW0NIMl1bQ0gyXTEpW0NASF0oW0NIM10pW0NIMl1bTkhdQyg9TylbTkhdYzJbY0hdYyhbQ0gzXSlvbjI=

> <s_epik_cmdline>
J2VwaWtfcHl0aG9uJywgJy1waCcsICc3LjAnLCAnLXRuJywgJzgnLCAnLW1hJywgJzIwMCcsICctbWV0YWxfYmluZGluZycsICctaW1hZScsICc8aW5maWxlLm1hZT4nLCAnLW9tYWUnLCAnPG91dGZpbGUubWFlPic=

> <r_epik_Ionization_Penalty>
2.42597

> <r_epik_Ionization_Penalty_Charging>
0

> <r_epik_Ionization_Penalty_Neutral>
2.42597

> <r_epik_State_Penalty>
1.76326

> <r_epik_Charging_Adjusted_Penalty>
1.76326

> <i_epik_Tot_Q>
0

> <i_epik_Tot_abs_Q>
0

> <r_epik_Metal_State_Penalty>
1.7742

> <b_epik_Metal_Only>
0

> <s_lp_Force_Field>
OPLS_2005

> <r_lp_Energy>
40.1671

> <b_lp_Chiralities_Consistent>
1

> <s_lp_Variant>
AV-unprocessed.smi:1586-5

> <Gold.Version>
5.8.1

> <Gold.Id.Protein>
6NUR|6NUR_protein|mol2

> <Gold.PLP.Fitness>
45.7423

> <Gold.PLP.PLP>
-39.0215

> <Gold.PLP.part.hbond>
-3.0000

> <Gold.PLP.part.metal>
0.0000

> <Gold.PLP.part.buried>
-6.2629

> <Gold.PLP.part.nonpolar>
-29.8081

> <Gold.PLP.part.repulsive>
0.1549

> <Gold.PLP.ligand.clash>
0.0000

> <Gold.PLP.ligand.torsion>
0.8467

> <Gold.PLP.Chemscore.Hbond>
2.7920

> <Gold.PLP.Chemscore.CHOScore>
0.0000

> <Gold.PLP.Chemscore.Metal>
0.0000

> <Gold.Chemscore.Hbonds>
donor molecule, donor type, donor heavy atom, donor atom, acceptor molecule, acceptor atom, score
      P1  H  6896  6907       L1    12  0.99
      P1  H  6931  6943       L1    19  0.88
      P1  H  6934  6947       L1    19  0.90

> <Gold.PLP.Chemscore.Internal.Correction>
0.0382

> <Gold.Rescore>
     Score         DG    S(hbond)    S(metal)    S(lipo)     H(rot)  DE(clash)    DE(int)     intcor
     19.31     -20.16       2.43        0.00      93.70       1.72       0.00       0.85       ----

> <Gold.Chemscore.Fitness>
19.3080

> <Gold.Chemscore.DG>
-20.1629

> <Gold.Chemscore.ZeroCoef>
-5.4800

> <Gold.Chemscore.Hbond>
2.4305

> <Gold.Chemscore.Metal>
0.0000

> <Gold.Chemscore.Lipo>
93.6993

> <Gold.Chemscore.Internal_Hbond>
0.0000

> <Gold.Chemscore.DEClash>
0.0038

> <Gold.Chemscore.DEInternal>
0.8512

> <Gold.Chemscore.Rot>
1.7178

> <Gold.Chemscore.Internal.Correction>
   9.000000E+99

> <Gold.Chemscore.Hbonds>
donor molecule, donor type, donor heavy atom, donor atom, acceptor molecule, acceptor atom, score
      P1  H  6896  6907       L1    12  0.93
      P1  H  6931  6943       L1    19  0.21
      P1  H  6934  6947       L1    19  0.85

> <Gold.Chemscore.Hbond.Weighted>
-8.1177

> <Gold.Chemscore.Metal.Weighted>
-0.0000

> <Gold.Chemscore.Lipo.Weighted>
-10.9628

> <Gold.Chemscore.Internal_Hbond.Weighted>
0.0000

> <Gold.Chemscore.DEClash.Weighted>
0.0038

> <Gold.Chemscore.DEInternal.Weighted>
0.8512

> <Gold.Chemscore.Rot.Weighted>
4.3976

> <Gold.Chemscore.Internal.Correction.Weighted>
   9.000000E+99

> <Gold.Protein.RotatedTorsions>
[ 6907 6896 6895 6894 ] final  -36.14 input  -60.11 | X-H torsion
[ 7974 7965 7964 7962 ] final   70.89 input  175.53 | X-H torsion
[ 8008 7997 7996 7995 ] final  178.48 input   59.86 | X-H torsion
[ 10167 10162 10161 10158 ] final  -33.88 input  -65.29 | X-H torsion
[ 10718 10713 10712 10709 ] final   41.07 input   66.30 | X-H torsion
[ 10763 10752 10751 10750 ] final  145.70 input  -60.55 | X-H torsion
[ 11005 11000 10999 10996 ] final   21.54 input  -57.11 | X-H torsion

> <Gold.Protein.ActiveResidues>
 VAL166  LYS551  ARG553  GLY616  TRP617  ASP618  TYR619  PRO620  LYS621  CYS622 
 ASP623  PHE694  ASN695  SER759  ASP760  ASP761  ALA762  ILE779  LEU786  VAL792 
 PHE793  MET794  SER795  GLU796  ALA797  LYS798  CYS799  TRP800  GLU811  SER814 

> <Gold.Protein.RotatedAtoms>
  151.0309  134.9538  159.8110 H   0  0  0  0  0  0  0  0  0  0  0  0  # atno 6907 bound_to 6896
  152.5345  134.2782  159.9007 H   0  0  0  0  0  0  0  0  0  0  0  0  # atno 6908 bound_to 6896
  151.2791  133.4176  159.2660 H   0  0  0  0  0  0  0  0  0  0  0  0  # atno 6909 bound_to 6896
  145.7725  139.2850  143.1312 H   0  0  0  0  0  0  0  0  0  0  0  0  # atno 7974 bound_to 7965
  156.0541  140.1332  157.0016 H   0  0  0  0  0  0  0  0  0  0  0  0  # atno 8008 bound_to 7997
  154.4449  140.1005  156.6491 H   0  0  0  0  0  0  0  0  0  0  0  0  # atno 8009 bound_to 7997
  155.5478  140.3462  155.4463 H   0  0  0  0  0  0  0  0  0  0  0  0  # atno 8010 bound_to 7997
  140.7196  143.3588  151.2005 H   0  0  0  0  0  0  0  0  0  0  0  0  # atno 10167 bound_to 10162
  157.3894  130.7798  149.7257 H   0  0  0  0  0  0  0  0  0  0  0  0  # atno 10718 bound_to 10713
  154.0097  135.2915  155.3393 H   0  0  0  0  0  0  0  0  0  0  0  0  # atno 10763 bound_to 10752
  154.7110  135.5149  153.8670 H   0  0  0  0  0  0  0  0  0  0  0  0  # atno 10764 bound_to 10752
  153.0728  135.6653  154.0330 H   0  0  0  0  0  0  0  0  0  0  0  0  # atno 10765 bound_to 10752
  140.3904  134.1825  155.7662 H   0  0  0  0  0  0  0  0  0  0  0  0  # atno 11005 bound_to 11000
  146.0155  140.8396  142.9949 LP  0  0  0  0  0  0  0  0  0  0  0  0  # atno 17320 bound_to 7965
  144.6810  140.2552  143.7326 LP  0  0  0  0  0  0  0  0  0  0  0  0  # atno 17321 bound_to 7965
  139.7135  143.9338  152.2957 LP  0  0  0  0  0  0  0  0  0  0  0  0  # atno 17342 bound_to 10162
  139.9071  144.6878  150.8602 LP  0  0  0  0  0  0  0  0  0  0  0  0  # atno 17343 bound_to 10162
  155.9794  130.4040  150.3587 LP  0  0  0  0  0  0  0  0  0  0  0  0  # atno 17370 bound_to 10713
  157.1701  131.0366  151.2799 LP  0  0  0  0  0  0  0  0  0  0  0  0  # atno 17371 bound_to 10713
  141.1893  133.8242  157.0963 LP  0  0  0  0  0  0  0  0  0  0  0  0  # atno 17394 bound_to 11000
  140.0411  134.9854  157.0963 LP  0  0  0  0  0  0  0  0  0  0  0  0  # atno 17395 bound_to 11000

$$$$
