AV-unprocessed.smi:749|AV-procd|sdf|3587|dock9
  -GOLD-   22720 0583D 1   1.00000     0.00000
 Structure written by MMmdl.
 42 43  0  0  0  0  0  0  0  0  2 V2000
  150.3864  138.1010  154.8078 C   0  0  0  0  0  0  0  0  0  0  0  0
  149.2998  139.0408  154.5278 N   0  0  0  0  0  0  0  0  0  0  0  0
  148.0371  138.4170  154.1030 C   0  0  0  0  0  0  0  0  0  0  0  0
  146.8189  139.3542  154.1645 C   0  0  2  0  0  0  0  0  0  0  0  0
  145.7009  138.7523  153.4445 N   0  0  0  0  0  0  0  0  0  0  0  0
  145.2605  137.4840  153.5616 C   0  0  0  0  0  0  0  0  0  0  0  0
  145.8278  136.7271  154.3486 O   0  0  0  0  0  0  0  0  0  0  0  0
  144.2018  137.1067  152.7964 N   0  5  0  0  0  0  0  0  0  0  0  0
  144.0365  135.8477  152.3539 C   0  0  0  0  0  0  0  0  0  0  0  0
  144.9923  135.0883  151.6267 C   0  0  0  0  0  0  0  0  0  0  0  0
  144.3543  133.8982  151.4081 C   0  0  0  0  0  0  0  0  0  0  0  0
  144.7422  132.6322  150.6966 C   0  0  0  0  0  0  0  0  0  0  0  0
  144.6641  131.4219  151.6485 C   0  0  0  0  0  0  0  0  0  0  0  0
  146.1863  132.7459  150.1736 C   0  0  0  0  0  0  0  0  0  0  0  0
  143.7911  132.3801  149.5117 C   0  0  0  0  0  0  0  0  0  0  0  0
  143.1130  133.9302  151.9683 O   0  0  0  0  0  0  0  0  0  0  0  0
  142.9207  135.1756  152.5769 N   0  0  0  0  0  0  0  0  0  0  0  0
  147.1865  140.7148  153.5632 C   0  0  0  0  0  0  0  0  0  0  0  0
  148.3520  141.3443  154.3354 C   0  0  0  0  0  0  0  0  0  0  0  0
  149.5171  140.3768  154.5945 C   0  0  0  0  0  0  0  0  0  0  0  0
  150.6133  140.8551  154.8887 O   0  0  0  0  0  0  0  0  0  0  0  0
  150.7107  138.1908  155.8454 H   0  0  0  0  0  0  0  0  0  0  0  0
  151.2444  138.2974  154.1633 H   0  0  0  0  0  0  0  0  0  0  0  0
  150.0877  137.0649  154.6433 H   0  0  0  0  0  0  0  0  0  0  0  0
  148.1796  138.0649  153.0797 H   0  0  0  0  0  0  0  0  0  0  0  0
  147.8362  137.5328  154.7098 H   0  0  0  0  0  0  0  0  0  0  0  0
  146.5422  139.4895  155.2119 H   0  0  0  0  0  0  0  0  0  0  0  0
  145.2100  139.3495  152.7953 H   0  0  0  0  0  0  0  0  0  0  0  0
  145.9828  135.3776  151.3095 H   0  0  0  0  0  0  0  0  0  0  0  0
  144.9397  130.4970  151.1406 H   0  0  0  0  0  0  0  0  0  0  0  0
  143.6554  131.2896  152.0419 H   0  0  0  0  0  0  0  0  0  0  0  0
  145.3365  131.5394  152.4991 H   0  0  0  0  0  0  0  0  0  0  0  0
  146.8886  132.9239  150.9890 H   0  0  0  0  0  0  0  0  0  0  0  0
  146.2914  133.5691  149.4659 H   0  0  0  0  0  0  0  0  0  0  0  0
  146.4984  131.8344  149.6627 H   0  0  0  0  0  0  0  0  0  0  0  0
  144.0468  131.4607  148.9836 H   0  0  0  0  0  0  0  0  0  0  0  0
  143.8311  133.1940  148.7867 H   0  0  0  0  0  0  0  0  0  0  0  0
  142.7571  132.2908  149.8469 H   0  0  0  0  0  0  0  0  0  0  0  0
  147.4571  140.5998  152.5125 H   0  0  0  0  0  0  0  0  0  0  0  0
  146.3290  141.3883  153.5899 H   0  0  0  0  0  0  0  0  0  0  0  0
  148.7201  142.2204  153.8007 H   0  0  0  0  0  0  0  0  0  0  0  0
  147.9957  141.6973  155.3038 H   0  0  0  0  0  0  0  0  0  0  0  0
  1  2  1  0  0  0  0
  1 22  1  0  0  0  0
  1 23  1  0  0  0  0
  1 24  1  0  0  0  0
  2 20  1  0  0  0  0
  2  3  1  0  0  0  0
  3  4  1  0  0  0  0
  3 25  1  0  0  0  0
  3 26  1  0  0  0  0
  4  5  1  0  0  0  0
  4 18  1  0  0  0  0
  4 27  1  0  0  0  0
  5  6  1  0  0  0  0
  5 28  1  0  0  0  0
  6  7  2  0  0  0  0
  6  8  1  0  0  0  0
  8  9  1  0  0  0  0
  9 17  2  0  0  0  0
  9 10  1  0  0  0  0
 10 11  2  0  0  0  0
 10 29  1  0  0  0  0
 11 12  1  0  0  0  0
 11 16  1  0  0  0  0
 12 13  1  0  0  0  0
 12 14  1  0  0  0  0
 12 15  1  0  0  0  0
 13 30  1  0  0  0  0
 13 31  1  0  0  0  0
 13 32  1  0  0  0  0
 14 33  1  0  0  0  0
 14 34  1  0  0  0  0
 14 35  1  0  0  0  0
 15 36  1  0  0  0  0
 15 37  1  0  0  0  0
 15 38  1  0  0  0  0
 16 17  1  0  0  0  0
 18 19  1  0  0  0  0
 18 39  1  0  0  0  0
 18 40  1  0  0  0  0
 19 20  1  0  0  0  0
 19 41  1  0  0  0  0
 19 42  1  0  0  0  0
 20 21  2  0  0  0  0
M  CHG  1   8  -1
M  END
> <s_m_source_file>
AV-unprocessed.smi

> <i_m_source_file_index>
749

> <i_lp_mmshare_version>
43012

> <i_f3d_flags>
0

> <s_epik_input>
Tz1DMVtDSDJdW0NIMl1bQ0BASF0oW0NIMl1OMVtDSDNdKVtOSF1DKD1PKVtOSF1jMltjSF1jKG9uMilDKFtDSDNdKShbQ0gzXSlbQ0gzXQ==

> <s_epik_cmdline>
J2VwaWtfcHl0aG9uJywgJy1waCcsICc3LjAnLCAnLXRuJywgJzgnLCAnLW1hJywgJzIwMCcsICctbWV0YWxfYmluZGluZycsICctaW1hZScsICc8aW5maWxlLm1hZT4nLCAnLW9tYWUnLCAnPG91dGZpbGUubWFlPic=

> <r_lp_tautomer_probability>
1

> <r_epik_Ionization_Penalty>
6.47858

> <r_epik_Ionization_Penalty_Charging>
6.47844

> <r_epik_Ionization_Penalty_Neutral>
0.000138814

> <r_epik_State_Penalty>
6.47843

> <r_epik_Charging_Adjusted_Penalty>
12.9569

> <i_epik_Tot_Q>
-1

> <i_epik_Tot_abs_Q>
1

> <r_epik_Metal_State_Penalty>
2.40644

> <b_epik_Metal_Only>
1

> <s_lp_Force_Field>
OPLS_2005

> <r_lp_Energy>
10.0372

> <b_lp_Chiralities_Consistent>
1

> <s_lp_Variant>
AV-unprocessed.smi:749-4

> <Gold.Version>
5.8.1

> <Gold.Id.Protein>
6NUR|6NUR_protein|mol2

> <Gold.PLP.Fitness>
38.2582

> <Gold.PLP.PLP>
-34.5575

> <Gold.PLP.part.hbond>
-2.0000

> <Gold.PLP.part.metal>
0.0000

> <Gold.PLP.part.buried>
-5.3041

> <Gold.PLP.part.nonpolar>
-29.1139

> <Gold.PLP.part.repulsive>
0.7402

> <Gold.PLP.ligand.clash>
0.0000

> <Gold.PLP.ligand.torsion>
0.8249

> <Gold.PLP.Chemscore.Hbond>
1.7760

> <Gold.PLP.Chemscore.CHOScore>
0.0000

> <Gold.PLP.Chemscore.Metal>
0.0000

> <Gold.Chemscore.Hbonds>
donor molecule, donor type, donor heavy atom, donor atom, acceptor molecule, acceptor atom, score
      L1  H     5    28       P1 10175  0.94
      P1  H  7989  7998       L1    21  0.80

> <Gold.PLP.Chemscore.Internal.Correction>
0.0224

> <Gold.Rescore>
     Score         DG    S(hbond)    S(metal)    S(lipo)     H(rot)  DE(clash)    DE(int)     intcor
     14.59     -16.99       1.60        0.00      79.26       1.22       0.16       2.24       ----

> <Gold.Chemscore.Fitness>
14.5870

> <Gold.Chemscore.DG>
-16.9871

> <Gold.Chemscore.ZeroCoef>
-5.4800

> <Gold.Chemscore.Hbond>
1.6036

> <Gold.Chemscore.Metal>
0.0000

> <Gold.Chemscore.Lipo>
79.2638

> <Gold.Chemscore.Internal_Hbond>
0.0000

> <Gold.Chemscore.DEClash>
0.1649

> <Gold.Chemscore.DEInternal>
2.2352

> <Gold.Chemscore.Rot>
1.2198

> <Gold.Chemscore.Internal.Correction>
   9.000000E+99

> <Gold.Chemscore.Hbonds>
donor molecule, donor type, donor heavy atom, donor atom, acceptor molecule, acceptor atom, score
      L1  H     5    28       P1 10175  0.92
      P1  H  7989  7998       L1    21  0.59

> <Gold.Chemscore.Hbond.Weighted>
-5.3560

> <Gold.Chemscore.Metal.Weighted>
-0.0000

> <Gold.Chemscore.Lipo.Weighted>
-9.2739

> <Gold.Chemscore.Internal_Hbond.Weighted>
0.0000

> <Gold.Chemscore.DEClash.Weighted>
0.1649

> <Gold.Chemscore.DEInternal.Weighted>
2.2352

> <Gold.Chemscore.Rot.Weighted>
3.1228

> <Gold.Chemscore.Internal.Correction.Weighted>
   9.000000E+99

> <Gold.Protein.RotatedTorsions>
[ 6907 6896 6895 6894 ] final  -52.73 input  -60.11 | X-H torsion
[ 7974 7965 7964 7962 ] final  -85.20 input  175.53 | X-H torsion
[ 8008 7997 7996 7995 ] final  115.52 input   59.86 | X-H torsion
[ 10167 10162 10161 10158 ] final  178.59 input  -65.29 | X-H torsion
[ 10718 10713 10712 10709 ] final  118.26 input   66.30 | X-H torsion
[ 10763 10752 10751 10750 ] final  -19.46 input  -60.55 | X-H torsion
[ 11005 11000 10999 10996 ] final   14.59 input  -57.11 | X-H torsion

> <Gold.Protein.ActiveResidues>
 VAL166  LYS551  ARG553  GLY616  TRP617  ASP618  TYR619  PRO620  LYS621  CYS622 
 ASP623  PHE694  ASN695  SER759  ASP760  ASP761  ALA762  ILE779  LEU786  VAL792 
 PHE793  MET794  SER795  GLU796  ALA797  LYS798  CYS799  TRP800  GLU811  SER814 

> <Gold.Protein.RotatedAtoms>
  150.8491  134.7809  159.6993 H   0  0  0  0  0  0  0  0  0  0  0  0  # atno 6907 bound_to 6896
  152.4560  134.5287  159.9814 H   0  0  0  0  0  0  0  0  0  0  0  0  # atno 6908 bound_to 6896
  151.5412  133.3394  159.2971 H   0  0  0  0  0  0  0  0  0  0  0  0  # atno 6909 bound_to 6896
  145.4964  140.9550  143.1783 H   0  0  0  0  0  0  0  0  0  0  0  0  # atno 7974 bound_to 7965
  156.2386  140.2936  156.0382 H   0  0  0  0  0  0  0  0  0  0  0  0  # atno 8008 bound_to 7997
  155.2017  140.0410  157.2936 H   0  0  0  0  0  0  0  0  0  0  0  0  # atno 8009 bound_to 7997
  154.6126  140.2455  155.7657 H   0  0  0  0  0  0  0  0  0  0  0  0  # atno 8010 bound_to 7997
  139.5300  144.2661  152.0666 H   0  0  0  0  0  0  0  0  0  0  0  0  # atno 10167 bound_to 10162
  157.6042  131.1046  150.7731 H   0  0  0  0  0  0  0  0  0  0  0  0  # atno 10718 bound_to 10713
  153.6051  135.6998  153.5369 H   0  0  0  0  0  0  0  0  0  0  0  0  # atno 10763 bound_to 10752
  153.3064  135.4114  155.1297 H   0  0  0  0  0  0  0  0  0  0  0  0  # atno 10764 bound_to 10752
  154.8575  135.3661  154.5588 H   0  0  0  0  0  0  0  0  0  0  0  0  # atno 10765 bound_to 10752
  140.4678  134.1061  155.7727 H   0  0  0  0  0  0  0  0  0  0  0  0  # atno 11005 bound_to 11000
  144.7804  139.6537  143.7156 LP  0  0  0  0  0  0  0  0  0  0  0  0  # atno 17320 bound_to 7965
  146.2253  139.5710  142.9591 LP  0  0  0  0  0  0  0  0  0  0  0  0  # atno 17321 bound_to 7965
  140.2123  144.4550  150.6380 LP  0  0  0  0  0  0  0  0  0  0  0  0  # atno 17342 bound_to 10162
  140.6472  143.2216  151.6159 LP  0  0  0  0  0  0  0  0  0  0  0  0  # atno 17343 bound_to 10162
  156.8123  130.4956  149.5354 LP  0  0  0  0  0  0  0  0  0  0  0  0  # atno 17370 bound_to 10713
  156.1124  130.6050  151.0067 LP  0  0  0  0  0  0  0  0  0  0  0  0  # atno 17371 bound_to 10713
  141.1591  133.8827  157.1897 LP  0  0  0  0  0  0  0  0  0  0  0  0  # atno 17394 bound_to 11000
  139.9904  135.0066  156.9962 LP  0  0  0  0  0  0  0  0  0  0  0  0  # atno 17395 bound_to 11000

$$$$
