AV-unprocessed.smi:826|AV-procd|sdf|3852|dock9
  -GOLD-   22720 1303D 1   1.00000     0.00000
 Structure written by MMmdl.
 39 40  0  0  0  0  0  0  0  0  1 V2000
  138.3526  136.9859  156.1603 C   0  0  0  0  0  0  0  0  0  0  0  0
  139.7570  137.0457  155.6650 C   0  0  0  0  0  0  0  0  0  0  0  0
  140.7514  136.3540  156.2341 N   0  0  0  0  0  0  0  0  0  0  0  0
  141.9696  136.5696  155.6047 N   0  0  0  0  0  0  0  0  0  0  0  0
  141.8569  137.4201  154.5753 C   0  0  0  0  0  0  0  0  0  0  0  0
  142.9477  137.8234  153.7609 N   0  0  0  0  0  0  0  0  0  0  0  0
  144.0031  137.0934  153.3597 C   0  0  0  0  0  0  0  0  0  0  0  0
  144.1886  135.9042  153.6205 O   0  0  0  0  0  0  0  0  0  0  0  0
  144.8490  137.8286  152.6223 N   0  0  0  0  0  0  0  0  0  0  0  0
  146.0834  137.3345  152.0145 C   0  0  2  0  0  0  0  0  0  0  0  0
  146.6616  138.4535  151.1322 C   0  0  0  0  0  0  0  0  0  0  0  0
  145.7888  136.1209  151.1193 C   0  0  0  0  0  0  0  0  0  0  0  0
  145.0216  136.2211  150.1602 O   0  0  0  0  0  0  0  0  0  0  0  0
  146.4158  134.9800  151.4429 N   0  0  0  0  0  0  0  0  0  0  0  0
  146.2666  133.7124  150.7342 C   0  0  0  0  0  0  0  0  0  0  0  0
  144.7819  133.3394  150.5367 C   0  0  0  0  0  0  0  0  0  0  0  0
  144.6381  131.8965  151.0241 C   0  0  0  0  0  0  0  0  0  0  0  0
  145.7158  131.7519  152.0936 C   0  0  0  0  0  0  0  0  0  0  0  0
  146.8904  132.5624  151.5457 C   0  0  0  0  0  0  0  0  0  0  0  0
  140.2360  138.0285  154.2864 S   0  0  0  0  0  0  0  0  0  0  0  0
  138.3286  137.1254  157.2413 H   0  0  0  0  0  0  0  0  0  0  0  0
  137.9130  136.0177  155.9202 H   0  0  0  0  0  0  0  0  0  0  0  0
  137.7520  137.7682  155.6957 H   0  0  0  0  0  0  0  0  0  0  0  0
  142.9285  138.7858  153.4581 H   0  0  0  0  0  0  0  0  0  0  0  0
  144.6148  138.7950  152.4494 H   0  0  0  0  0  0  0  0  0  0  0  0
  146.8046  137.0702  152.7907 H   0  0  0  0  0  0  0  0  0  0  0  0
  147.5869  138.1382  150.6482 H   0  0  0  0  0  0  0  0  0  0  0  0
  146.8938  139.3368  151.7281 H   0  0  0  0  0  0  0  0  0  0  0  0
  145.9637  138.7581  150.3504 H   0  0  0  0  0  0  0  0  0  0  0  0
  147.0264  134.9852  152.2472 H   0  0  0  0  0  0  0  0  0  0  0  0
  146.7728  133.7779  149.7692 H   0  0  0  0  0  0  0  0  0  0  0  0
  144.1390  133.9825  151.1402 H   0  0  0  0  0  0  0  0  0  0  0  0
  144.4648  133.4524  149.4997 H   0  0  0  0  0  0  0  0  0  0  0  0
  143.6387  131.6781  151.4010 H   0  0  0  0  0  0  0  0  0  0  0  0
  144.8427  131.2087  150.2023 H   0  0  0  0  0  0  0  0  0  0  0  0
  145.3678  132.1927  153.0289 H   0  0  0  0  0  0  0  0  0  0  0  0
  145.9779  130.7118  152.2905 H   0  0  0  0  0  0  0  0  0  0  0  0
  147.4775  131.9304  150.8780 H   0  0  0  0  0  0  0  0  0  0  0  0
  147.5621  132.9009  152.3358 H   0  0  0  0  0  0  0  0  0  0  0  0
  1  2  1  0  0  0  0
  1 21  1  0  0  0  0
  1 22  1  0  0  0  0
  1 23  1  0  0  0  0
  2 20  1  0  0  0  0
  2  3  2  0  0  0  0
  3  4  1  0  0  0  0
  4  5  2  0  0  0  0
  5  6  1  0  0  0  0
  5 20  1  0  0  0  0
  6  7  1  0  0  0  0
  6 24  1  0  0  0  0
  7  8  2  0  0  0  0
  7  9  1  0  0  0  0
  9 10  1  0  0  0  0
  9 25  1  0  0  0  0
 10 11  1  0  0  0  0
 10 12  1  0  0  0  0
 10 26  1  0  0  0  0
 11 27  1  0  0  0  0
 11 28  1  0  0  0  0
 11 29  1  0  0  0  0
 12 13  2  0  0  0  0
 12 14  1  0  0  0  0
 14 15  1  0  0  0  0
 14 30  1  0  0  0  0
 15 19  1  0  0  0  0
 15 16  1  0  0  0  0
 15 31  1  0  0  0  0
 16 17  1  0  0  0  0
 16 32  1  0  0  0  0
 16 33  1  0  0  0  0
 17 18  1  0  0  0  0
 17 34  1  0  0  0  0
 17 35  1  0  0  0  0
 18 19  1  0  0  0  0
 18 36  1  0  0  0  0
 18 37  1  0  0  0  0
 19 38  1  0  0  0  0
 19 39  1  0  0  0  0
M  END
> <s_m_source_file>
AV-unprocessed.smi

> <i_m_source_file_index>
826

> <i_lp_mmshare_version>
43012

> <i_f3d_flags>
0

> <s_epik_input>
W0NIM11jMW5uYyhzMSlbTkhdQyg9TylbTkhdW0NASF0oW0NIM10pQyg9TylbTkhdW0NIXTJbQ0gyXVtDSDJdW0NIMl1bQ0gyXTI=

> <s_epik_cmdline>
J2VwaWtfcHl0aG9uJywgJy1waCcsICc3LjAnLCAnLXRuJywgJzgnLCAnLW1hJywgJzIwMCcsICctbWV0YWxfYmluZGluZycsICctaW1hZScsICc8aW5maWxlLm1hZT4nLCAnLW9tYWUnLCAnPG91dGZpbGUubWFlPic=

> <r_lp_tautomer_probability>
1

> <r_epik_Ionization_Penalty>
0.00368568

> <r_epik_Ionization_Penalty_Charging>
0

> <r_epik_Ionization_Penalty_Neutral>
0.00368568

> <r_epik_State_Penalty>
-0

> <r_epik_Charging_Adjusted_Penalty>
0

> <i_epik_Tot_Q>
0

> <i_epik_Tot_abs_Q>
0

> <r_epik_Metal_State_Penalty>
0.369753

> <b_epik_Metal_Only>
0

> <s_lp_Force_Field>
OPLS_2005

> <r_lp_Energy>
15.7146

> <b_lp_Chiralities_Consistent>
1

> <s_lp_Variant>
AV-unprocessed.smi:826-1

> <Gold.Version>
5.8.1

> <Gold.Id.Protein>
6NUR|6NUR_protein|mol2

> <Gold.PLP.Fitness>
44.7333

> <Gold.PLP.PLP>
-36.5141

> <Gold.PLP.part.hbond>
-5.6439

> <Gold.PLP.part.metal>
0.0000

> <Gold.PLP.part.buried>
-5.8059

> <Gold.PLP.part.nonpolar>
-30.2666

> <Gold.PLP.part.repulsive>
4.0131

> <Gold.PLP.ligand.clash>
0.0000

> <Gold.PLP.ligand.torsion>
0.4018

> <Gold.PLP.Chemscore.Hbond>
3.0000

> <Gold.PLP.Chemscore.CHOScore>
0.0000

> <Gold.PLP.Chemscore.Metal>
0.0000

> <Gold.Chemscore.Hbonds>
donor molecule, donor type, donor heavy atom, donor atom, acceptor molecule, acceptor atom, score
      L1  H     6    24       P1 10175  0.98
      L1  H     9    25       P1 10175  1.00
      L1  H    14    30       P1  7948  0.08
      P1  H 11000 11005       L1     3  0.31

> <Gold.PLP.Chemscore.Internal.Correction>
0.0229

> <Gold.Rescore>
     Score         DG    S(hbond)    S(metal)    S(lipo)     H(rot)  DE(clash)    DE(int)     intcor
     15.32     -18.56       2.63        0.00      72.70       1.65       1.68       1.56       ----

> <Gold.Chemscore.Fitness>
15.3238

> <Gold.Chemscore.DG>
-18.5649

> <Gold.Chemscore.ZeroCoef>
-5.4800

> <Gold.Chemscore.Hbond>
2.6324

> <Gold.Chemscore.Metal>
0.0000

> <Gold.Chemscore.Lipo>
72.7018

> <Gold.Chemscore.Internal_Hbond>
0.0000

> <Gold.Chemscore.DEClash>
1.6845

> <Gold.Chemscore.DEInternal>
1.5567

> <Gold.Chemscore.Rot>
1.6458

> <Gold.Chemscore.Internal.Correction>
   9.000000E+99

> <Gold.Chemscore.Hbonds>
donor molecule, donor type, donor heavy atom, donor atom, acceptor molecule, acceptor atom, score
      L1  H     6    24       P1 10175  0.90
      L1  H     9    25       P1 10175  1.00
      L1  H    14    30       P1  7948  0.08
      P1  H 11000 11005       L1     3  0.04

> <Gold.Chemscore.Hbond.Weighted>
-8.7921

> <Gold.Chemscore.Metal.Weighted>
-0.0000

> <Gold.Chemscore.Lipo.Weighted>
-8.5061

> <Gold.Chemscore.Internal_Hbond.Weighted>
0.0000

> <Gold.Chemscore.DEClash.Weighted>
1.6845

> <Gold.Chemscore.DEInternal.Weighted>
1.5567

> <Gold.Chemscore.Rot.Weighted>
4.2133

> <Gold.Chemscore.Internal.Correction.Weighted>
   9.000000E+99

> <Gold.Protein.RotatedTorsions>
[ 6907 6896 6895 6894 ] final   24.34 input  -60.11 | X-H torsion
[ 7974 7965 7964 7962 ] final  -79.79 input  175.53 | X-H torsion
[ 8008 7997 7996 7995 ] final -168.01 input   59.86 | X-H torsion
[ 10167 10162 10161 10158 ] final  -45.27 input  -65.29 | X-H torsion
[ 10718 10713 10712 10709 ] final   74.11 input   66.30 | X-H torsion
[ 10763 10752 10751 10750 ] final  -76.36 input  -60.55 | X-H torsion
[ 11005 11000 10999 10996 ] final   91.78 input  -57.11 | X-H torsion

> <Gold.Protein.ActiveResidues>
 VAL166  LYS551  ARG553  GLY616  TRP617  ASP618  TYR619  PRO620  LYS621  CYS622 
 ASP623  PHE694  ASN695  SER759  ASP760  ASP761  ALA762  ILE779  LEU786  VAL792 
 PHE793  MET794  SER795  GLU796  ALA797  LYS798  CYS799  TRP800  GLU811  SER814 

> <Gold.Protein.RotatedAtoms>
  151.9561  135.0146  160.0544 H   0  0  0  0  0  0  0  0  0  0  0  0  # atno 6907 bound_to 6896
  152.1910  133.4768  159.5016 H   0  0  0  0  0  0  0  0  0  0  0  0  # atno 6908 bound_to 6896
  150.6935  134.1629  159.4226 H   0  0  0  0  0  0  0  0  0  0  0  0  # atno 6909 bound_to 6896
  145.5685  140.9470  143.1408 H   0  0  0  0  0  0  0  0  0  0  0  0  # atno 7974 bound_to 7965
  155.8855  140.1016  157.1455 H   0  0  0  0  0  0  0  0  0  0  0  0  # atno 8008 bound_to 7997
  154.4009  140.1321  156.4314 H   0  0  0  0  0  0  0  0  0  0  0  0  # atno 8009 bound_to 7997
  155.7594  140.3463  155.5192 H   0  0  0  0  0  0  0  0  0  0  0  0  # atno 8010 bound_to 7997
  140.6864  143.2888  151.3615 H   0  0  0  0  0  0  0  0  0  0  0  0  # atno 10167 bound_to 10162
  157.6577  130.9661  150.1164 H   0  0  0  0  0  0  0  0  0  0  0  0  # atno 10718 bound_to 10713
  154.4988  135.5800  153.6515 H   0  0  0  0  0  0  0  0  0  0  0  0  # atno 10763 bound_to 10752
  152.9875  135.6130  154.3029 H   0  0  0  0  0  0  0  0  0  0  0  0  # atno 10764 bound_to 10752
  154.2935  135.2848  155.2623 H   0  0  0  0  0  0  0  0  0  0  0  0  # atno 10765 bound_to 10752
  139.8833  134.8694  156.3478 H   0  0  0  0  0  0  0  0  0  0  0  0  # atno 11005 bound_to 11000
  144.7449  139.7348  143.7296 LP  0  0  0  0  0  0  0  0  0  0  0  0  # atno 17320 bound_to 7965
  146.1801  139.4989  142.9872 LP  0  0  0  0  0  0  0  0  0  0  0  0  # atno 17321 bound_to 7965
  139.6227  144.0875  152.2406 LP  0  0  0  0  0  0  0  0  0  0  0  0  # atno 17342 bound_to 10162
  140.0325  144.6070  150.7476 LP  0  0  0  0  0  0  0  0  0  0  0  0  # atno 17343 bound_to 10162
  156.2047  130.3662  149.8744 LP  0  0  0  0  0  0  0  0  0  0  0  0  # atno 17370 bound_to 10713
  156.6639  130.8793  151.3552 LP  0  0  0  0  0  0  0  0  0  0  0  0  # atno 17371 bound_to 10713
  140.9615  133.7385  156.0408 LP  0  0  0  0  0  0  0  0  0  0  0  0  # atno 17394 bound_to 11000
  140.7984  134.3538  157.5446 LP  0  0  0  0  0  0  0  0  0  0  0  0  # atno 17395 bound_to 11000

$$$$
