AV-unprocessed.smi:3165|AV-procd|sdf|12090|dock1
  -GOLD-   2272017523D 1   1.00000     0.00000
 Structure written by MMmdl.
 37 38  0  0  0  0  0  0  0  0  1 V2000
  143.8371  136.7374  152.1175 C   0  0  0  0  0  0  0  0  0  0  0  0
  145.3030  136.3014  151.9144 C   0  0  1  0  0  0  0  0  0  0  0  0
  145.5074  135.5067  150.6083 C   0  0  0  0  0  0  0  0  0  0  0  0
  144.7231  134.2854  150.5590 N   0  0  0  0  0  0  0  0  0  0  0  0
  144.2680  133.6084  149.4474 C   0  0  0  0  0  0  0  0  0  0  0  0
  143.5700  132.5219  149.8908 C   0  0  0  0  0  0  0  0  0  0  0  0
  143.6513  132.6233  151.3077 C   0  0  0  0  0  0  0  0  0  0  0  0
  144.3398  133.6812  151.7048 N   0  0  0  0  0  0  0  0  0  0  0  0
  146.2191  137.4452  151.9233 N   0  0  0  0  0  0  0  0  0  0  0  0
  146.0421  138.3933  153.0244 C   0  0  0  0  0  0  0  0  0  0  0  0
  147.2084  139.3924  153.1094 C   0  0  2  0  0  0  0  0  0  0  0  0
  148.3653  138.9239  154.0175 C   0  0  0  0  0  0  0  0  0  0  0  0
  149.4623  139.9919  154.0809 C   0  0  0  0  0  0  0  0  0  0  0  0
  148.8464  141.3400  154.4716 C   0  0  0  0  0  0  0  0  0  0  0  0
  147.6819  141.6908  153.5311 C   0  0  0  0  0  0  0  0  0  0  0  0
  146.7059  140.6531  153.5491 O   0  0  0  0  0  0  0  0  0  0  0  0
  143.1605  135.8832  152.0982 H   0  0  0  0  0  0  0  0  0  0  0  0
  143.5184  137.4276  151.3357 H   0  0  0  0  0  0  0  0  0  0  0  0
  143.6853  137.2262  153.0793 H   0  0  0  0  0  0  0  0  0  0  0  0
  145.5689  135.6402  152.7400 H   0  0  0  0  0  0  0  0  0  0  0  0
  145.2582  136.1261  149.7444 H   0  0  0  0  0  0  0  0  0  0  0  0
  146.5570  135.2305  150.4983 H   0  0  0  0  0  0  0  0  0  0  0  0
  144.4778  133.9523  148.4453 H   0  0  0  0  0  0  0  0  0  0  0  0
  143.0755  131.7702  149.2938 H   0  0  0  0  0  0  0  0  0  0  0  0
  143.2322  131.9652  152.0543 H   0  0  0  0  0  0  0  0  0  0  0  0
  147.1781  137.1121  151.9205 H   0  0  0  0  0  0  0  0  0  0  0  0
  145.1124  138.9484  152.9024 H   0  0  0  0  0  0  0  0  0  0  0  0
  145.9645  137.8556  153.9701 H   0  0  0  0  0  0  0  0  0  0  0  0
  147.5949  139.5229  152.0970 H   0  0  0  0  0  0  0  0  0  0  0  0
  147.9994  138.7312  155.0264 H   0  0  0  0  0  0  0  0  0  0  0  0
  148.7777  137.9837  153.6506 H   0  0  0  0  0  0  0  0  0  0  0  0
  150.2332  139.7034  154.7959 H   0  0  0  0  0  0  0  0  0  0  0  0
  149.9501  140.0772  153.1093 H   0  0  0  0  0  0  0  0  0  0  0  0
  148.4827  141.2928  155.4987 H   0  0  0  0  0  0  0  0  0  0  0  0
  149.6043  142.1233  154.4435 H   0  0  0  0  0  0  0  0  0  0  0  0
  147.2113  142.6210  153.8501 H   0  0  0  0  0  0  0  0  0  0  0  0
  148.0397  141.8493  152.5127 H   0  0  0  0  0  0  0  0  0  0  0  0
  1  2  1  0  0  0  0
  1 17  1  0  0  0  0
  1 18  1  0  0  0  0
  1 19  1  0  0  0  0
  2  3  1  0  0  0  0
  2  9  1  0  0  0  0
  2 20  1  0  0  0  0
  3  4  1  0  0  0  0
  3 21  1  0  0  0  0
  3 22  1  0  0  0  0
  4  8  1  0  0  0  0
  4  5  1  0  0  0  0
  5  6  2  0  0  0  0
  5 23  1  0  0  0  0
  6  7  1  0  0  0  0
  6 24  1  0  0  0  0
  7  8  2  0  0  0  0
  7 25  1  0  0  0  0
  9 10  1  0  0  0  0
  9 26  1  0  0  0  0
 10 11  1  0  0  0  0
 10 27  1  0  0  0  0
 10 28  1  0  0  0  0
 11 16  1  0  0  0  0
 11 12  1  0  0  0  0
 11 29  1  0  0  0  0
 12 13  1  0  0  0  0
 12 30  1  0  0  0  0
 12 31  1  0  0  0  0
 13 14  1  0  0  0  0
 13 32  1  0  0  0  0
 13 33  1  0  0  0  0
 14 15  1  0  0  0  0
 14 34  1  0  0  0  0
 14 35  1  0  0  0  0
 15 16  1  0  0  0  0
 15 36  1  0  0  0  0
 15 37  1  0  0  0  0
M  END
> <s_m_source_file>
AV-unprocessed.smi

> <i_m_source_file_index>
3165

> <i_lp_mmshare_version>
43012

> <i_f3d_flags>
0

> <s_epik_input>
bjFbY0hdW2NIXVtjSF1uMVtDSDJdW0NAQEhdKFtDSDNdKVtOSF1bQ0gyXVtDQEBIXTJbQ0gyXVtDSDJdW0NIMl1bQ0gyXU8y

> <s_epik_cmdline>
J2VwaWtfcHl0aG9uJywgJy1waCcsICc3LjAnLCAnLXRuJywgJzgnLCAnLW1hJywgJzIwMCcsICctbWV0YWxfYmluZGluZycsICctaW1hZScsICc8aW5maWxlLm1hZT4nLCAnLW9tYWUnLCAnPG91dGZpbGUubWFlPic=

> <r_lp_tautomer_probability>
1

> <r_epik_Ionization_Penalty>
2.51982

> <r_epik_Ionization_Penalty_Charging>
0

> <r_epik_Ionization_Penalty_Neutral>
2.51982

> <r_epik_State_Penalty>
2.68614

> <r_epik_Charging_Adjusted_Penalty>
2.68614

> <i_epik_Tot_Q>
0

> <i_epik_Tot_abs_Q>
0

> <r_epik_Metal_State_Penalty>
2.6861

> <b_epik_Metal_Only>
0

> <s_lp_Force_Field>
OPLS_2005

> <r_lp_Energy>
15.9673

> <b_lp_Chiralities_Consistent>
1

> <s_lp_Variant>
AV-unprocessed.smi:3165-6

> <Gold.Version>
5.8.1

> <Gold.Id.Protein>
6NUR|6NUR_protein|mol2

> <Gold.PLP.Fitness>
35.7493

> <Gold.PLP.PLP>
-31.4282

> <Gold.PLP.part.hbond>
-1.0000

> <Gold.PLP.part.metal>
0.0000

> <Gold.PLP.part.buried>
-1.3014

> <Gold.PLP.part.nonpolar>
-29.0493

> <Gold.PLP.part.repulsive>
0.2541

> <Gold.PLP.ligand.clash>
0.0000

> <Gold.PLP.ligand.torsion>
0.8636

> <Gold.PLP.Chemscore.Hbond>
1.0000

> <Gold.PLP.Chemscore.CHOScore>
1.0000

> <Gold.PLP.Chemscore.Metal>
0.0000

> <Gold.Chemscore.Hbonds>
donor molecule, donor type, donor heavy atom, donor atom, acceptor molecule, acceptor atom, score
      L1  H     9    26       P1  7948  1.00
      L1  C     5    23       P1  7921  0.98

> <Gold.PLP.Chemscore.Internal.Correction>
0.0482

> <Gold.Rescore>
     Score         DG    S(hbond)    S(metal)    S(lipo)     H(rot)  DE(clash)    DE(int)     intcor
     13.21     -14.46       1.00        0.00      82.63       1.57       0.33       0.92       ----

> <Gold.Chemscore.Fitness>
13.2063

> <Gold.Chemscore.DG>
-14.4607

> <Gold.Chemscore.ZeroCoef>
-5.4800

> <Gold.Chemscore.Hbond>
1.0000

> <Gold.Chemscore.Metal>
0.0000

> <Gold.Chemscore.Lipo>
82.6321

> <Gold.Chemscore.Internal_Hbond>
0.0000

> <Gold.Chemscore.DEClash>
0.3340

> <Gold.Chemscore.DEInternal>
0.9204

> <Gold.Chemscore.Rot>
1.5731

> <Gold.Chemscore.Internal.Correction>
   9.000000E+99

> <Gold.Chemscore.Hbonds>
donor molecule, donor type, donor heavy atom, donor atom, acceptor molecule, acceptor atom, score
      L1  H     9    26       P1  7948  0.99

> <Gold.Chemscore.Hbond.Weighted>
-3.3400

> <Gold.Chemscore.Metal.Weighted>
-0.0000

> <Gold.Chemscore.Lipo.Weighted>
-9.6680

> <Gold.Chemscore.Internal_Hbond.Weighted>
0.0000

> <Gold.Chemscore.DEClash.Weighted>
0.3340

> <Gold.Chemscore.DEInternal.Weighted>
0.9204

> <Gold.Chemscore.Rot.Weighted>
4.0273

> <Gold.Chemscore.Internal.Correction.Weighted>
   9.000000E+99

> <Gold.Protein.RotatedTorsions>
[ 6907 6896 6895 6894 ] final -166.28 input  -60.11 | X-H torsion
[ 7974 7965 7964 7962 ] final  -57.90 input  175.53 | X-H torsion
[ 8008 7997 7996 7995 ] final   11.30 input   59.86 | X-H torsion
[ 10167 10162 10161 10158 ] final   71.56 input  -65.29 | X-H torsion
[ 10718 10713 10712 10709 ] final -136.51 input   66.30 | X-H torsion
[ 10763 10752 10751 10750 ] final  -57.86 input  -60.55 | X-H torsion
[ 11005 11000 10999 10996 ] final   55.53 input  -57.11 | X-H torsion

> <Gold.Protein.ActiveResidues>
 VAL166  LYS551  ARG553  GLY616  TRP617  ASP618  TYR619  PRO620  LYS621  CYS622 
 ASP623  PHE694  ASN695  SER759  ASP760  ASP761  ALA762  ILE779  LEU786  VAL792 
 PHE793  MET794  SER795  GLU796  ALA797  LYS798  CYS799  TRP800  GLU811  SER814 

> <Gold.Protein.RotatedAtoms>
  151.4411  133.3643  159.2781 H   0  0  0  0  0  0  0  0  0  0  0  0  # atno 6907 bound_to 6896
  150.9157  134.8576  159.7466 H   0  0  0  0  0  0  0  0  0  0  0  0  # atno 6908 bound_to 6896
  152.4956  134.4344  159.9575 H   0  0  0  0  0  0  0  0  0  0  0  0  # atno 6909 bound_to 6896
  145.8456  140.8387  143.0012 H   0  0  0  0  0  0  0  0  0  0  0  0  # atno 7974 bound_to 7965
  154.8050  140.2858  155.5894 H   0  0  0  0  0  0  0  0  0  0  0  0  # atno 8008 bound_to 7997
  156.2982  140.2579  156.2856 H   0  0  0  0  0  0  0  0  0  0  0  0  # atno 8009 bound_to 7997
  154.9513  140.0379  157.2135 H   0  0  0  0  0  0  0  0  0  0  0  0  # atno 8010 bound_to 7997
  140.0447  144.5360  150.7407 H   0  0  0  0  0  0  0  0  0  0  0  0  # atno 10167 bound_to 10162
  156.2779  130.7303  151.1292 H   0  0  0  0  0  0  0  0  0  0  0  0  # atno 10718 bound_to 10713
  154.2291  135.6364  153.5169 H   0  0  0  0  0  0  0  0  0  0  0  0  # atno 10763 bound_to 10752
  152.9952  135.5515  154.6031 H   0  0  0  0  0  0  0  0  0  0  0  0  # atno 10764 bound_to 10752
  154.5510  135.2901  155.0982 H   0  0  0  0  0  0  0  0  0  0  0  0  # atno 10765 bound_to 10752
  140.0600  134.5616  155.9163 H   0  0  0  0  0  0  0  0  0  0  0  0  # atno 11005 bound_to 11000
  144.6731  140.0877  143.7466 LP  0  0  0  0  0  0  0  0  0  0  0  0  # atno 17320 bound_to 7965
  145.9415  139.2672  143.1266 LP  0  0  0  0  0  0  0  0  0  0  0  0  # atno 17321 bound_to 7965
  140.7244  143.2621  151.4170 LP  0  0  0  0  0  0  0  0  0  0  0  0  # atno 17342 bound_to 10162
  139.5991  144.1334  152.2178 LP  0  0  0  0  0  0  0  0  0  0  0  0  # atno 17343 bound_to 10162
  157.7305  131.0616  150.5723 LP  0  0  0  0  0  0  0  0  0  0  0  0  # atno 17370 bound_to 10713
  156.5826  130.4308  149.5971 LP  0  0  0  0  0  0  0  0  0  0  0  0  # atno 17371 bound_to 10713
  141.1969  133.6593  156.5713 LP  0  0  0  0  0  0  0  0  0  0  0  0  # atno 17394 bound_to 11000
  140.3785  134.7544  157.4646 LP  0  0  0  0  0  0  0  0  0  0  0  0  # atno 17395 bound_to 11000

$$$$
