AV-unprocessed.smi:2217|AV-procd|sdf|8975|dock8
  -GOLD-   2272012193D 1   1.00000     0.00000
 Structure written by MMmdl.
 45 48  0  0  0  0  0  0  0  0  1 V2000
  143.0098  132.5374  150.8379 C   0  0  0  0  0  0  0  0  0  0  0  0
  143.8758  133.6868  151.3088 C   0  0  0  0  0  0  0  0  0  0  0  0
  144.5558  134.5107  150.3921 C   0  0  0  0  0  0  0  0  0  0  0  0
  145.3525  135.5614  150.8858 C   0  0  0  0  0  0  0  0  0  0  0  0
  145.4534  135.7678  152.2803 C   0  0  0  0  0  0  0  0  0  0  0  0
  146.2990  136.8532  152.6564 N   0  0  0  0  0  0  0  0  0  0  0  0
  147.1269  137.0171  153.7104 C   0  0  0  0  0  0  0  0  0  0  0  0
  147.2535  136.1385  154.5615 O   0  0  0  0  0  0  0  0  0  0  0  0
  147.7904  138.1817  153.7667 N   0  0  0  0  0  0  0  0  0  0  0  0
  148.6709  138.5940  154.8516 C   0  0  1  0  0  0  0  0  0  0  0  0
  150.1315  138.6870  154.4117 C   0  0  2  0  0  0  0  0  0  0  0  0
  151.3640  137.9202  154.7340 C   0  0  0  0  0  0  0  0  0  0  0  0
  152.3047  139.1244  155.0017 C   0  0  0  0  0  0  0  0  0  0  0  0
  151.4513  140.2936  155.0404 O   0  0  0  0  0  0  0  0  0  0  0  0
  150.1984  139.7859  155.4531 C   0  0  1  0  0  0  0  0  0  0  0  0
  148.7609  140.1573  155.0331 C   0  0  0  0  0  0  0  0  0  0  0  0
  147.8605  140.7766  156.1113 C   0  0  0  0  0  0  0  0  0  0  0  0
  147.2409  142.0581  155.5498 C   0  0  0  0  0  0  0  0  0  0  0  0
  147.2930  141.8798  154.0395 C   0  0  0  0  0  0  0  0  0  0  0  0
  148.5767  141.0873  153.8149 C   0  0  0  0  0  0  0  0  0  0  0  0
  144.7936  134.9651  153.1540 N   0  0  0  0  0  0  0  0  0  0  0  0
  144.0291  133.9584  152.6816 C   0  0  0  0  0  0  0  0  0  0  0  0
  142.7905  132.6192  149.7728 H   0  0  0  0  0  0  0  0  0  0  0  0
  142.0634  132.5252  151.3794 H   0  0  0  0  0  0  0  0  0  0  0  0
  143.5176  131.5887  151.0122 H   0  0  0  0  0  0  0  0  0  0  0  0
  144.4726  134.3428  149.3283 H   0  0  0  0  0  0  0  0  0  0  0  0
  145.8819  136.2013  150.1946 H   0  0  0  0  0  0  0  0  0  0  0  0
  146.3177  137.6131  151.9919 H   0  0  0  0  0  0  0  0  0  0  0  0
  147.6345  138.8491  153.0243 H   0  0  0  0  0  0  0  0  0  0  0  0
  148.5310  138.0361  155.7824 H   0  0  0  0  0  0  0  0  0  0  0  0
  150.1991  139.0735  153.3900 H   0  0  0  0  0  0  0  0  0  0  0  0
  151.2361  137.2961  155.6195 H   0  0  0  0  0  0  0  0  0  0  0  0
  151.7040  137.2991  153.9049 H   0  0  0  0  0  0  0  0  0  0  0  0
  152.8282  139.0043  155.9511 H   0  0  0  0  0  0  0  0  0  0  0  0
  153.0508  139.2423  154.2156 H   0  0  0  0  0  0  0  0  0  0  0  0
  150.2495  139.4203  156.4854 H   0  0  0  0  0  0  0  0  0  0  0  0
  147.0648  140.0813  156.3795 H   0  0  0  0  0  0  0  0  0  0  0  0
  148.4077  140.9876  157.0309 H   0  0  0  0  0  0  0  0  0  0  0  0
  146.2300  142.2343  155.9185 H   0  0  0  0  0  0  0  0  0  0  0  0
  147.8531  142.9148  155.8349 H   0  0  0  0  0  0  0  0  0  0  0  0
  146.4358  141.2915  153.7089 H   0  0  0  0  0  0  0  0  0  0  0  0
  147.2793  142.8268  153.4993 H   0  0  0  0  0  0  0  0  0  0  0  0
  149.4160  141.7807  153.7508 H   0  0  0  0  0  0  0  0  0  0  0  0
  148.5382  140.5600  152.8617 H   0  0  0  0  0  0  0  0  0  0  0  0
  143.5281  133.3525  153.4222 H   0  0  0  0  0  0  0  0  0  0  0  0
  1  2  1  0  0  0  0
  1 23  1  0  0  0  0
  1 24  1  0  0  0  0
  1 25  1  0  0  0  0
  2 22  1  0  0  0  0
  2  3  2  0  0  0  0
  3  4  1  0  0  0  0
  3 26  1  0  0  0  0
  4  5  2  0  0  0  0
  4 27  1  0  0  0  0
  5  6  1  0  0  0  0
  5 21  1  0  0  0  0
  6  7  1  0  0  0  0
  6 28  1  0  0  0  0
  7  8  2  0  0  0  0
  7  9  1  0  0  0  0
  9 10  1  0  0  0  0
  9 29  1  0  0  0  0
 10 16  1  0  0  0  0
 10 11  1  0  0  0  0
 10 30  1  0  0  0  0
 11 15  1  0  0  0  0
 11 12  1  0  0  0  0
 11 31  1  0  0  0  0
 12 13  1  0  0  0  0
 12 32  1  0  0  0  0
 12 33  1  0  0  0  0
 13 14  1  0  0  0  0
 13 34  1  0  0  0  0
 13 35  1  0  0  0  0
 14 15  1  0  0  0  0
 15 16  1  0  0  0  0
 15 36  1  0  0  0  0
 16 20  1  0  0  0  0
 16 17  1  0  0  0  0
 17 18  1  0  0  0  0
 17 37  1  0  0  0  0
 17 38  1  0  0  0  0
 18 19  1  0  0  0  0
 18 39  1  0  0  0  0
 18 40  1  0  0  0  0
 19 20  1  0  0  0  0
 19 41  1  0  0  0  0
 19 42  1  0  0  0  0
 20 43  1  0  0  0  0
 20 44  1  0  0  0  0
 21 22  2  0  0  0  0
 22 45  1  0  0  0  0
M  END
> <s_m_source_file>
AV-unprocessed.smi

> <i_m_source_file_index>
2217

> <i_lp_mmshare_version>
43012

> <i_f3d_flags>
0

> <s_epik_input>
W0NIM11jMVtjSF1bY0hdYyhuW2NIXTEpW05IXUMoPU8pW05IXVtDQEBIXTJbQ0BASF0oW0NIMl1bQ0gyXU8zKVtDQEhdM0MyNFtDSDJdW0NIMl1bQ0gyXVtDSDJdNA==

> <s_epik_cmdline>
J2VwaWtfcHl0aG9uJywgJy1waCcsICc3LjAnLCAnLXRuJywgJzgnLCAnLW1hJywgJzIwMCcsICctbWV0YWxfYmluZGluZycsICctaW1hZScsICc8aW5maWxlLm1hZT4nLCAnLW9tYWUnLCAnPG91dGZpbGUubWFlPic=

> <r_lp_tautomer_probability>
1

> <r_epik_Ionization_Penalty>
6.14796e-05

> <r_epik_Ionization_Penalty_Charging>
0

> <r_epik_Ionization_Penalty_Neutral>
6.14796e-05

> <r_epik_State_Penalty>
-0

> <r_epik_Charging_Adjusted_Penalty>
0

> <i_epik_Tot_Q>
0

> <i_epik_Tot_abs_Q>
0

> <r_epik_Metal_State_Penalty>
-0

> <b_epik_Metal_Only>
0

> <s_lp_Force_Field>
OPLS_2005

> <r_lp_Energy>
79.3106

> <b_lp_Chiralities_Consistent>
1

> <s_lp_Variant>
AV-unprocessed.smi:2217-8

> <Gold.Version>
5.8.1

> <Gold.Id.Protein>
6NUR|6NUR_protein|mol2

> <Gold.PLP.Fitness>
39.0884

> <Gold.PLP.PLP>
-33.7887

> <Gold.PLP.part.hbond>
-3.0000

> <Gold.PLP.part.metal>
0.0000

> <Gold.PLP.part.buried>
3.7757

> <Gold.PLP.part.nonpolar>
-34.3224

> <Gold.PLP.part.repulsive>
0.4332

> <Gold.PLP.ligand.clash>
0.0000

> <Gold.PLP.ligand.torsion>
0.4551

> <Gold.PLP.Chemscore.Hbond>
0.9760

> <Gold.PLP.Chemscore.CHOScore>
1.0000

> <Gold.PLP.Chemscore.Metal>
0.0000

> <Gold.Chemscore.Hbonds>
donor molecule, donor type, donor heavy atom, donor atom, acceptor molecule, acceptor atom, score
      P1  H  7989  7998       L1    14  1.00
      L1  C    22    45       P1 10957  1.00

> <Gold.PLP.Chemscore.Internal.Correction>
0.2821

> <Gold.Rescore>
     Score         DG    S(hbond)    S(metal)    S(lipo)     H(rot)  DE(clash)    DE(int)     intcor
     11.53     -13.74       0.09        0.00      89.83       1.00       1.71       0.49       ----

> <Gold.Chemscore.Fitness>
11.5347

> <Gold.Chemscore.DG>
-13.7386

> <Gold.Chemscore.ZeroCoef>
-5.4800

> <Gold.Chemscore.Hbond>
0.0925

> <Gold.Chemscore.Metal>
0.0000

> <Gold.Chemscore.Lipo>
89.8254

> <Gold.Chemscore.Internal_Hbond>
0.0000

> <Gold.Chemscore.DEClash>
1.7124

> <Gold.Chemscore.DEInternal>
0.4915

> <Gold.Chemscore.Rot>
1.0000

> <Gold.Chemscore.Internal.Correction>
   9.000000E+99

> <Gold.Chemscore.Hbonds>
donor molecule, donor type, donor heavy atom, donor atom, acceptor molecule, acceptor atom, score
      P1  H  7989  7998       L1    14  0.28

> <Gold.Chemscore.Hbond.Weighted>
-0.3090

> <Gold.Chemscore.Metal.Weighted>
-0.0000

> <Gold.Chemscore.Lipo.Weighted>
-10.5096

> <Gold.Chemscore.Internal_Hbond.Weighted>
0.0000

> <Gold.Chemscore.DEClash.Weighted>
1.7124

> <Gold.Chemscore.DEInternal.Weighted>
0.4915

> <Gold.Chemscore.Rot.Weighted>
2.5600

> <Gold.Chemscore.Internal.Correction.Weighted>
   9.000000E+99

> <Gold.Protein.RotatedTorsions>
[ 6907 6896 6895 6894 ] final -133.15 input  -60.11 | X-H torsion
[ 7974 7965 7964 7962 ] final -118.67 input  175.53 | X-H torsion
[ 8008 7997 7996 7995 ] final  170.12 input   59.86 | X-H torsion
[ 10167 10162 10161 10158 ] final  -78.17 input  -65.29 | X-H torsion
[ 10718 10713 10712 10709 ] final -116.30 input   66.30 | X-H torsion
[ 10763 10752 10751 10750 ] final  -49.37 input  -60.55 | X-H torsion
[ 11005 11000 10999 10996 ] final  -19.10 input  -57.11 | X-H torsion

> <Gold.Protein.ActiveResidues>
 VAL166  LYS551  ARG553  GLY616  TRP617  ASP618  TYR619  PRO620  LYS621  CYS622 
 ASP623  PHE694  ASN695  SER759  ASP760  ASP761  ALA762  ILE779  LEU786  VAL792 
 PHE793  MET794  SER795  GLU796  ALA797  LYS798  CYS799  TRP800  GLU811  SER814 

> <Gold.Protein.RotatedAtoms>
  150.9707  133.6347  159.2738 H   0  0  0  0  0  0  0  0  0  0  0  0  # atno 6907 bound_to 6896
  151.3636  135.0908  159.9452 H   0  0  0  0  0  0  0  0  0  0  0  0  # atno 6908 bound_to 6896
  152.5182  133.9276  159.7619 H   0  0  0  0  0  0  0  0  0  0  0  0  # atno 6909 bound_to 6896
  145.0712  140.8360  143.4094 H   0  0  0  0  0  0  0  0  0  0  0  0  # atno 7974 bound_to 7965
  156.1395  140.1546  156.8943 H   0  0  0  0  0  0  0  0  0  0  0  0  # atno 8008 bound_to 7997
  154.4975  140.0834  156.7766 H   0  0  0  0  0  0  0  0  0  0  0  0  # atno 8009 bound_to 7997
  155.4106  140.3418  155.4265 H   0  0  0  0  0  0  0  0  0  0  0  0  # atno 8010 bound_to 7997
  140.4705  143.2428  151.8211 H   0  0  0  0  0  0  0  0  0  0  0  0  # atno 10167 bound_to 10162
  156.0954  130.6128  150.9018 H   0  0  0  0  0  0  0  0  0  0  0  0  # atno 10718 bound_to 10713
  154.0929  135.6574  153.4855 H   0  0  0  0  0  0  0  0  0  0  0  0  # atno 10763 bound_to 10752
  153.0315  135.5207  154.7362 H   0  0  0  0  0  0  0  0  0  0  0  0  # atno 10764 bound_to 10752
  154.6491  135.2999  154.9977 H   0  0  0  0  0  0  0  0  0  0  0  0  # atno 10765 bound_to 10752
  140.8333  133.7980  155.9782 H   0  0  0  0  0  0  0  0  0  0  0  0  # atno 11005 bound_to 11000
  145.1290  139.2644  143.5549 LP  0  0  0  0  0  0  0  0  0  0  0  0  # atno 17320 bound_to 7965
  146.3528  140.0936  142.8611 LP  0  0  0  0  0  0  0  0  0  0  0  0  # atno 17321 bound_to 7965
  139.4818  144.4897  151.9201 LP  0  0  0  0  0  0  0  0  0  0  0  0  # atno 17342 bound_to 10162
  140.3982  144.2527  150.5895 LP  0  0  0  0  0  0  0  0  0  0  0  0  # atno 17343 bound_to 10162
  157.6114  131.0936  150.8789 LP  0  0  0  0  0  0  0  0  0  0  0  0  # atno 17370 bound_to 10713
  156.8928  130.5219  149.5285 LP  0  0  0  0  0  0  0  0  0  0  0  0  # atno 17371 bound_to 10713
  140.8974  134.2420  157.5061 LP  0  0  0  0  0  0  0  0  0  0  0  0  # atno 17394 bound_to 11000
  139.8704  134.9690  156.4652 LP  0  0  0  0  0  0  0  0  0  0  0  0  # atno 17395 bound_to 11000

$$$$
