AV-unprocessed.smi:677|AV-procd|sdf|3312|dock2
  -GOLD-   22720 0273D 1   1.00000     0.00000
 Structure written by MMmdl.
 44 45  0  0  0  0  0  0  0  0  2 V2000
  143.4370  132.6138  150.9740 C   0  0  0  0  0  0  0  0  0  0  0  0
  144.7695  132.8558  151.6509 C   0  0  0  0  0  0  0  0  0  0  0  0
  145.9467  133.1357  150.9242 C   0  0  0  0  0  0  0  0  0  0  0  0
  147.1529  133.3501  151.6229 C   0  0  0  0  0  0  0  0  0  0  0  0
  147.1586  133.2805  153.0339 C   0  0  0  0  0  0  0  0  0  0  0  0
  148.4420  133.4976  153.8149 C   0  0  0  0  0  0  0  0  0  0  0  0
  148.5034  132.5318  154.9983 C   0  0  0  0  0  0  0  0  0  0  0  0
  148.5950  131.3211  154.7962 O   0  0  0  0  0  0  0  0  0  0  0  0
  148.4762  133.0810  156.2226 N   0  0  0  0  0  0  0  0  0  0  0  0
  148.5633  132.3472  157.4817 C   0  0  0  0  0  0  0  0  0  0  0  0
  147.7757  133.0357  158.6157 C   0  0  0  0  0  0  0  0  0  0  0  0
  148.3168  134.4327  158.9781 C   0  0  0  0  0  0  0  0  0  0  0  0
  147.5547  135.0360  160.1714 C   0  0  0  0  0  0  0  0  0  0  0  0
  147.6518  134.1591  161.3383 N   0  0  0  0  0  0  0  0  0  0  0  0
  146.9741  134.7961  162.4627 C   0  0  0  0  0  0  0  0  0  0  0  0
  147.5908  136.0781  162.8436 C   0  0  0  0  0  0  0  0  0  0  0  0
  148.0751  137.0857  163.1422 N   0  0  0  0  0  0  0  0  0  0  0  0
  147.0268  132.8690  161.0380 C   0  0  0  0  0  0  0  0  0  0  0  0
  147.7736  132.1721  159.8878 C   0  0  0  0  0  0  0  0  0  0  0  0
  145.9502  132.9969  153.7067 C   0  0  0  0  0  0  0  0  0  0  0  0
  144.8160  132.7971  153.0007 N   0  3  0  0  0  0  0  0  0  0  0  0
  143.5267  132.6896  149.8899 H   0  0  0  0  0  0  0  0  0  0  0  0
  142.7028  133.3479  151.3070 H   0  0  0  0  0  0  0  0  0  0  0  0
  143.0639  131.6182  151.2160 H   0  0  0  0  0  0  0  0  0  0  0  0
  145.9290  133.1851  149.8452 H   0  0  0  0  0  0  0  0  0  0  0  0
  148.0628  133.5621  151.0803 H   0  0  0  0  0  0  0  0  0  0  0  0
  149.3043  133.3619  153.1600 H   0  0  0  0  0  0  0  0  0  0  0  0
  148.4838  134.5230  154.1840 H   0  0  0  0  0  0  0  0  0  0  0  0
  148.3956  134.0854  156.2895 H   0  0  0  0  0  0  0  0  0  0  0  0
  148.1537  131.3521  157.3057 H   0  0  0  0  0  0  0  0  0  0  0  0
  149.6028  132.1956  157.7778 H   0  0  0  0  0  0  0  0  0  0  0  0
  146.7412  133.1490  158.2874 H   0  0  0  0  0  0  0  0  0  0  0  0
  149.3798  134.3705  159.2159 H   0  0  0  0  0  0  0  0  0  0  0  0
  148.2299  135.1074  158.1264 H   0  0  0  0  0  0  0  0  0  0  0  0
  147.9792  136.0105  160.4152 H   0  0  0  0  0  0  0  0  0  0  0  0
  146.5077  135.1995  159.9113 H   0  0  0  0  0  0  0  0  0  0  0  0
  145.9386  135.0122  162.1976 H   0  0  0  0  0  0  0  0  0  0  0  0
  146.9598  134.1406  163.3348 H   0  0  0  0  0  0  0  0  0  0  0  0
  147.0549  132.2286  161.9198 H   0  0  0  0  0  0  0  0  0  0  0  0
  145.9761  133.0105  160.7797 H   0  0  0  0  0  0  0  0  0  0  0  0
  147.3080  131.2076  159.6827 H   0  0  0  0  0  0  0  0  0  0  0  0
  148.7986  131.9600  160.1964 H   0  0  0  0  0  0  0  0  0  0  0  0
  145.8583  132.9182  154.7803 H   0  0  0  0  0  0  0  0  0  0  0  0
  143.9561  132.5908  153.5095 H   0  0  0  0  0  0  0  0  0  0  0  0
  1  2  1  0  0  0  0
  1 22  1  0  0  0  0
  1 23  1  0  0  0  0
  1 24  1  0  0  0  0
  2 21  1  0  0  0  0
  2  3  2  0  0  0  0
  3  4  1  0  0  0  0
  3 25  1  0  0  0  0
  4  5  2  0  0  0  0
  4 26  1  0  0  0  0
  5  6  1  0  0  0  0
  5 20  1  0  0  0  0
  6  7  1  0  0  0  0
  6 27  1  0  0  0  0
  6 28  1  0  0  0  0
  7  8  2  0  0  0  0
  7  9  1  0  0  0  0
  9 10  1  0  0  0  0
  9 29  1  0  0  0  0
 10 11  1  0  0  0  0
 10 30  1  0  0  0  0
 10 31  1  0  0  0  0
 11 19  1  0  0  0  0
 11 12  1  0  0  0  0
 11 32  1  0  0  0  0
 12 13  1  0  0  0  0
 12 33  1  0  0  0  0
 12 34  1  0  0  0  0
 13 14  1  0  0  0  0
 13 35  1  0  0  0  0
 13 36  1  0  0  0  0
 14 15  1  0  0  0  0
 14 18  1  0  0  0  0
 15 16  1  0  0  0  0
 15 37  1  0  0  0  0
 15 38  1  0  0  0  0
 16 17  3  0  0  0  0
 18 19  1  0  0  0  0
 18 39  1  0  0  0  0
 18 40  1  0  0  0  0
 19 41  1  0  0  0  0
 19 42  1  0  0  0  0
 20 21  2  0  0  0  0
 20 43  1  0  0  0  0
 21 44  1  0  0  0  0
M  CHG  1  21   1
M  END
> <s_m_source_file>
AV-unprocessed.smi

> <i_m_source_file_index>
677

> <i_lp_mmshare_version>
43012

> <i_f3d_flags>
0

> <s_epik_input>
W0NIM11jMVtjSF1bY0hdYyhbY0hdbjEpW0NIMl1DKD1PKVtOSF1bQ0gyXVtDSF0yW0NIMl1bQ0gyXU4oW0NIMl1DI04pW0NIMl1bQ0gyXTI=

> <s_epik_cmdline>
J2VwaWtfcHl0aG9uJywgJy1waCcsICc3LjAnLCAnLXRuJywgJzgnLCAnLW1hJywgJzIwMCcsICctbWV0YWxfYmluZGluZycsICctaW1hZScsICc8aW5maWxlLm1hZT4nLCAnLW9tYWUnLCAnPG91dGZpbGUubWFlPic=

> <r_epik_Ionization_Penalty>
2.12868

> <r_epik_Ionization_Penalty_Charging>
2.12771

> <r_epik_Ionization_Penalty_Neutral>
0.000970756

> <r_epik_State_Penalty>
2.26584

> <r_epik_Charging_Adjusted_Penalty>
4.39355

> <i_epik_Tot_Q>
1

> <i_epik_Tot_abs_Q>
1

> <r_epik_Metal_State_Penalty>
2.28211

> <b_epik_Metal_Only>
0

> <s_lp_Force_Field>
OPLS_2005

> <r_lp_Energy>
22.0212

> <b_lp_Chiralities_Consistent>
1

> <s_lp_Variant>
AV-unprocessed.smi:677-2

> <Gold.Version>
5.8.1

> <Gold.Id.Protein>
6NUR|6NUR_protein|mol2

> <Gold.PLP.Fitness>
41.8914

> <Gold.PLP.PLP>
-34.8490

> <Gold.PLP.part.hbond>
-2.0000

> <Gold.PLP.part.metal>
0.0000

> <Gold.PLP.part.buried>
-6.0425

> <Gold.PLP.part.nonpolar>
-27.7796

> <Gold.PLP.part.repulsive>
0.0476

> <Gold.PLP.ligand.clash>
0.0000

> <Gold.PLP.ligand.torsion>
0.5318

> <Gold.PLP.Chemscore.Hbond>
2.6880

> <Gold.PLP.Chemscore.CHOScore>
0.0000

> <Gold.PLP.Chemscore.Metal>
0.0000

> <Gold.Chemscore.Hbonds>
donor molecule, donor type, donor heavy atom, donor atom, acceptor molecule, acceptor atom, score
      L1  H    21    44       P1 10957  2.00
      P1  H  6931  6943       L1    17  0.67

> <Gold.PLP.Chemscore.Internal.Correction>
0.0421

> <Gold.Rescore>
     Score         DG    S(hbond)    S(metal)    S(lipo)     H(rot)  DE(clash)    DE(int)     intcor
     13.86     -14.39       1.60        0.00      71.15       1.86       0.03       0.50       ----

> <Gold.Chemscore.Fitness>
13.8562

> <Gold.Chemscore.DG>
-14.3889

> <Gold.Chemscore.ZeroCoef>
-5.4800

> <Gold.Chemscore.Hbond>
1.6003

> <Gold.Chemscore.Metal>
0.0000

> <Gold.Chemscore.Lipo>
71.1475

> <Gold.Chemscore.Internal_Hbond>
0.0000

> <Gold.Chemscore.DEClash>
0.0310

> <Gold.Chemscore.DEInternal>
0.5017

> <Gold.Chemscore.Rot>
1.8595

> <Gold.Chemscore.Internal.Correction>
   9.000000E+99

> <Gold.Chemscore.Hbonds>
donor molecule, donor type, donor heavy atom, donor atom, acceptor molecule, acceptor atom, score
      L1  H    21    44       P1 10957  0.38
      P1  H  6931  6943       L1    17  0.68

> <Gold.Chemscore.Hbond.Weighted>
-5.3449

> <Gold.Chemscore.Metal.Weighted>
-0.0000

> <Gold.Chemscore.Lipo.Weighted>
-8.3243

> <Gold.Chemscore.Internal_Hbond.Weighted>
0.0000

> <Gold.Chemscore.DEClash.Weighted>
0.0310

> <Gold.Chemscore.DEInternal.Weighted>
0.5017

> <Gold.Chemscore.Rot.Weighted>
4.7603

> <Gold.Chemscore.Internal.Correction.Weighted>
   9.000000E+99

> <Gold.Protein.RotatedTorsions>
[ 6907 6896 6895 6894 ] final -154.44 input  -60.11 | X-H torsion
[ 7974 7965 7964 7962 ] final   53.13 input  175.53 | X-H torsion
[ 8008 7997 7996 7995 ] final   42.92 input   59.86 | X-H torsion
[ 10167 10162 10161 10158 ] final   63.01 input  -65.29 | X-H torsion
[ 10718 10713 10712 10709 ] final -151.35 input   66.30 | X-H torsion
[ 10763 10752 10751 10750 ] final -141.77 input  -60.55 | X-H torsion
[ 11005 11000 10999 10996 ] final   64.33 input  -57.11 | X-H torsion

> <Gold.Protein.ActiveResidues>
 VAL166  LYS551  ARG553  GLY616  TRP617  ASP618  TYR619  PRO620  LYS621  CYS622 
 ASP623  PHE694  ASN695  SER759  ASP760  ASP761  ALA762  ILE779  LEU786  VAL792 
 PHE793  MET794  SER795  GLU796  ALA797  LYS798  CYS799  TRP800  GLU811  SER814 

> <Gold.Protein.RotatedAtoms>
  151.2575  133.4319  159.2614 H   0  0  0  0  0  0  0  0  0  0  0  0  # atno 6907 bound_to 6896
  151.0561  134.9706  159.8247 H   0  0  0  0  0  0  0  0  0  0  0  0  # atno 6908 bound_to 6896
  152.5391  134.2527  159.8957 H   0  0  0  0  0  0  0  0  0  0  0  0  # atno 6909 bound_to 6896
  145.9743  139.4180  143.0171 H   0  0  0  0  0  0  0  0  0  0  0  0  # atno 7974 bound_to 7965
  155.2942  140.3381  155.4251 H   0  0  0  0  0  0  0  0  0  0  0  0  # atno 8008 bound_to 7997
  156.2032  140.1741  156.7896 H   0  0  0  0  0  0  0  0  0  0  0  0  # atno 8009 bound_to 7997
  154.5586  140.0692  156.8767 H   0  0  0  0  0  0  0  0  0  0  0  0  # atno 8010 bound_to 7997
  140.1377  144.4583  150.6829 H   0  0  0  0  0  0  0  0  0  0  0  0  # atno 10167 bound_to 10162
  156.4581  130.8200  151.2431 H   0  0  0  0  0  0  0  0  0  0  0  0  # atno 10718 bound_to 10713
  154.8533  135.3515  154.5921 H   0  0  0  0  0  0  0  0  0  0  0  0  # atno 10763 bound_to 10752
  153.6530  135.6993  153.5207 H   0  0  0  0  0  0  0  0  0  0  0  0  # atno 10764 bound_to 10752
  153.2878  135.4244  155.1097 H   0  0  0  0  0  0  0  0  0  0  0  0  # atno 10765 bound_to 10752
  139.9966  134.6508  156.0001 H   0  0  0  0  0  0  0  0  0  0  0  0  # atno 11005 bound_to 11000
  145.7860  140.9835  143.1074 LP  0  0  0  0  0  0  0  0  0  0  0  0  # atno 17320 bound_to 7965
  144.6845  139.9624  143.7480 LP  0  0  0  0  0  0  0  0  0  0  0  0  # atno 17321 bound_to 7965
  140.6779  143.2313  151.5459 LP  0  0  0  0  0  0  0  0  0  0  0  0  # atno 17342 bound_to 10162
  139.5488  144.2451  152.1491 LP  0  0  0  0  0  0  0  0  0  0  0  0  # atno 17343 bound_to 10162
  157.7499  131.0116  150.3351 LP  0  0  0  0  0  0  0  0  0  0  0  0  # atno 17370 bound_to 10713
  156.3745  130.3869  149.7150 LP  0  0  0  0  0  0  0  0  0  0  0  0  # atno 17371 bound_to 10713
  141.1609  133.6539  156.4315 LP  0  0  0  0  0  0  0  0  0  0  0  0  # atno 17394 bound_to 11000
  140.4807  134.6667  157.5170 LP  0  0  0  0  0  0  0  0  0  0  0  0  # atno 17395 bound_to 11000

$$$$
