AV-unprocessed.smi:1536|AV-procd|sdf|6189|dock5
  -GOLD-   22720 6353D 1   1.00000     0.00000
 Structure written by MMmdl.
 48 49  0  0  0  0  0  0  0  0  2 V2000
  152.4121  143.9377  160.4120 C   0  0  0  0  0  0  0  0  0  0  0  0
  151.6446  144.7215  159.3327 C   0  0  2  0  0  0  0  0  0  0  0  0
  150.1584  144.3246  159.2526 C   0  0  0  0  0  0  0  0  0  0  0  0
  149.9602  142.9429  158.6055 C   0  0  0  0  0  0  0  0  0  0  0  0
  150.5983  142.8949  157.2629 N   0  3  2  0  0  0  0  0  0  0  0  0
  150.2311  141.7242  156.4039 C   0  0  1  0  0  0  0  0  0  0  0  0
  150.6371  140.3437  157.0037 C   0  0  0  0  0  0  0  0  0  0  0  0
  150.8685  139.2959  156.0131 N   0  0  0  0  0  0  0  0  0  0  0  0
  151.7604  139.3644  155.0131 C   0  0  0  0  0  0  0  0  0  0  0  0
  152.5141  140.3252  154.8524 O   0  0  0  0  0  0  0  0  0  0  0  0
  151.8089  138.1500  154.0785 C   0  0  0  0  0  0  0  0  0  0  0  0
  151.4702  136.9091  154.7529 N   0  0  0  0  0  0  0  0  0  0  0  0
  150.3811  136.1408  154.6829 C   0  0  0  0  0  0  0  0  0  0  0  0
  150.4747  135.0865  155.4785 N   0  0  0  0  0  0  0  0  0  0  0  0
  151.7193  135.2447  156.0650 N   0  0  0  0  0  0  0  0  0  0  0  0
  152.3147  136.3246  155.6384 N   0  0  0  0  0  0  0  0  0  0  0  0
  148.7199  141.7933  156.0365 C   0  0  0  0  0  0  0  0  0  0  0  0
  147.7994  141.3780  157.2003 C   0  0  0  0  0  0  0  0  0  0  0  0
  148.3850  140.9267  154.8057 C   0  0  0  0  0  0  0  0  0  0  0  0
  152.0504  143.2119  157.3099 C   0  0  0  0  0  0  0  0  0  0  0  0
  152.2868  144.5967  157.9379 C   0  0  0  0  0  0  0  0  0  0  0  0
  152.4344  142.8673  160.2083 H   0  0  0  0  0  0  0  0  0  0  0  0
  151.9566  144.0766  161.3929 H   0  0  0  0  0  0  0  0  0  0  0  0
  153.4446  144.2807  160.4816 H   0  0  0  0  0  0  0  0  0  0  0  0
  151.6893  145.7718  159.6234 H   0  0  0  0  0  0  0  0  0  0  0  0
  149.7079  144.3417  160.2457 H   0  0  0  0  0  0  0  0  0  0  0  0
  149.6208  145.0701  158.6647 H   0  0  0  0  0  0  0  0  0  0  0  0
  150.3737  142.1692  159.2520 H   0  0  0  0  0  0  0  0  0  0  0  0
  148.8927  142.7416  158.5167 H   0  0  0  0  0  0  0  0  0  0  0  0
  150.7680  141.8348  155.4607 H   0  0  0  0  0  0  0  0  0  0  0  0
  151.5405  140.4431  157.6057 H   0  0  0  0  0  0  0  0  0  0  0  0
  149.8687  139.9803  157.6860 H   0  0  0  0  0  0  0  0  0  0  0  0
  150.2865  138.4727  156.0732 H   0  0  0  0  0  0  0  0  0  0  0  0
  151.1086  138.3008  153.2561 H   0  0  0  0  0  0  0  0  0  0  0  0
  152.8051  138.0559  153.6433 H   0  0  0  0  0  0  0  0  0  0  0  0
  149.5267  136.3537  154.0575 H   0  0  0  0  0  0  0  0  0  0  0  0
  148.4701  142.8244  155.7851 H   0  0  0  0  0  0  0  0  0  0  0  0
  148.0613  140.3905  157.5816 H   0  0  0  0  0  0  0  0  0  0  0  0
  146.7567  141.3418  156.8830 H   0  0  0  0  0  0  0  0  0  0  0  0
  147.8437  142.0839  158.0289 H   0  0  0  0  0  0  0  0  0  0  0  0
  148.6503  139.8821  154.9722 H   0  0  0  0  0  0  0  0  0  0  0  0
  148.9063  141.2663  153.9106 H   0  0  0  0  0  0  0  0  0  0  0  0
  147.3191  140.9625  154.5785 H   0  0  0  0  0  0  0  0  0  0  0  0
  152.5911  142.4559  157.8755 H   0  0  0  0  0  0  0  0  0  0  0  0
  152.4647  143.2072  156.3011 H   0  0  0  0  0  0  0  0  0  0  0  0
  151.8655  145.3591  157.2812 H   0  0  0  0  0  0  0  0  0  0  0  0
  153.3558  144.8049  157.9940 H   0  0  0  0  0  0  0  0  0  0  0  0
  150.2036  143.6799  156.7645 H   0  0  0  0  0  0  0  0  0  0  0  0
  1  2  1  0  0  0  0
  1 22  1  0  0  0  0
  1 23  1  0  0  0  0
  1 24  1  0  0  0  0
  2 21  1  0  0  0  0
  2  3  1  0  0  0  0
  2 25  1  0  0  0  0
  3  4  1  0  0  0  0
  3 26  1  0  0  0  0
  3 27  1  0  0  0  0
  4  5  1  0  0  0  0
  4 28  1  0  0  0  0
  4 29  1  0  0  0  0
  5  6  1  0  0  0  0
  5 20  1  0  0  0  0
  5 48  1  0  0  0  0
  6  7  1  0  0  0  0
  6 17  1  0  0  0  0
  6 30  1  0  0  0  0
  7  8  1  0  0  0  0
  7 31  1  0  0  0  0
  7 32  1  0  0  0  0
  8  9  1  0  0  0  0
  8 33  1  0  0  0  0
  9 10  2  0  0  0  0
  9 11  1  0  0  0  0
 11 12  1  0  0  0  0
 11 34  1  0  0  0  0
 11 35  1  0  0  0  0
 12 16  1  0  0  0  0
 12 13  1  0  0  0  0
 13 14  2  0  0  0  0
 13 36  1  0  0  0  0
 14 15  1  0  0  0  0
 15 16  2  0  0  0  0
 17 18  1  0  0  0  0
 17 19  1  0  0  0  0
 17 37  1  0  0  0  0
 18 38  1  0  0  0  0
 18 39  1  0  0  0  0
 18 40  1  0  0  0  0
 19 41  1  0  0  0  0
 19 42  1  0  0  0  0
 19 43  1  0  0  0  0
 20 21  1  0  0  0  0
 20 44  1  0  0  0  0
 20 45  1  0  0  0  0
 21 46  1  0  0  0  0
 21 47  1  0  0  0  0
M  CHG  1   5   1
M  END
> <s_m_source_file>
AV-unprocessed.smi

> <i_m_source_file_index>
1536

> <i_lp_mmshare_version>
43012

> <i_f3d_flags>
0

> <s_epik_input>
W0NIM11bQ0hdMVtDSDJdW0NIMl1OKFtDSDJdW0NIMl0xKVtDQEBIXShbQ0hdKFtDSDNdKVtDSDNdKVtDSDJdW05IXUMoPU8pW0NIMl1uMltjSF1ubm4y

> <s_epik_cmdline>
J2VwaWtfcHl0aG9uJywgJy1waCcsICc3LjAnLCAnLXRuJywgJzgnLCAnLW1hJywgJzIwMCcsICctbWV0YWxfYmluZGluZycsICctaW1hZScsICc8aW5maWxlLm1hZT4nLCAnLW9tYWUnLCAnPG91dGZpbGUubWFlPic=

> <r_lp_tautomer_probability>
1

> <r_epik_Ionization_Penalty>
0.00109671

> <r_epik_Ionization_Penalty_Charging>
0.00109273

> <r_epik_Ionization_Penalty_Neutral>
3.97951e-06

> <r_epik_State_Penalty>
0.000716588

> <r_epik_Charging_Adjusted_Penalty>
0.00180932

> <i_epik_Tot_Q>
1

> <i_epik_Tot_abs_Q>
1

> <r_epik_Metal_State_Penalty>
-0

> <b_epik_Metal_Only>
0

> <s_lp_Force_Field>
OPLS_2005

> <r_lp_Energy>
37.5817

> <b_lp_Chiralities_Consistent>
1

> <s_lp_Variant>
AV-unprocessed.smi:1536-4

> <Gold.Version>
5.8.1

> <Gold.Id.Protein>
6NUR|6NUR_protein|mol2

> <Gold.PLP.Fitness>
50.3731

> <Gold.PLP.PLP>
-35.9375

> <Gold.PLP.part.hbond>
-3.7546

> <Gold.PLP.part.metal>
0.0000

> <Gold.PLP.part.buried>
-2.9855

> <Gold.PLP.part.nonpolar>
-29.6489

> <Gold.PLP.part.repulsive>
0.1167

> <Gold.PLP.ligand.clash>
0.0000

> <Gold.PLP.ligand.torsion>
1.1042

> <Gold.PLP.Chemscore.Hbond>
4.3576

> <Gold.PLP.Chemscore.CHOScore>
1.0000

> <Gold.PLP.Chemscore.Metal>
0.0000

> <Gold.Chemscore.Hbonds>
donor molecule, donor type, donor heavy atom, donor atom, acceptor molecule, acceptor atom, score
      L1  H     5    48       P1  8028  2.00
      P1  H  7989  7998       L1    10  0.31
      P1  H  7997  8010       L1    10  0.59
      P1  H 10752 10763       L1    16  0.14
      L1  C    13    36       P1  7948  1.00

> <Gold.PLP.Chemscore.Internal.Correction>
0.5714

> <Gold.Rescore>
     Score         DG    S(hbond)    S(metal)    S(lipo)     H(rot)  DE(clash)    DE(int)     intcor
     11.88     -16.77       2.14        0.00      96.16       2.77       1.67       3.22       ----

> <Gold.Chemscore.Fitness>
11.8775

> <Gold.Chemscore.DG>
-16.7686

> <Gold.Chemscore.ZeroCoef>
-5.4800

> <Gold.Chemscore.Hbond>
2.1351

> <Gold.Chemscore.Metal>
0.0000

> <Gold.Chemscore.Lipo>
96.1623

> <Gold.Chemscore.Internal_Hbond>
0.0000

> <Gold.Chemscore.DEClash>
1.6667

> <Gold.Chemscore.DEInternal>
3.2244

> <Gold.Chemscore.Rot>
2.7709

> <Gold.Chemscore.Internal.Correction>
   9.000000E+99

> <Gold.Chemscore.Hbonds>
donor molecule, donor type, donor heavy atom, donor atom, acceptor molecule, acceptor atom, score
      L1  H     5    48       P1  8028  0.95
      P1  H  7989  7998       L1    10  0.03
      P1  H  7997  8010       L1    10  0.53

> <Gold.Chemscore.Hbond.Weighted>
-7.1311

> <Gold.Chemscore.Metal.Weighted>
-0.0000

> <Gold.Chemscore.Lipo.Weighted>
-11.2510

> <Gold.Chemscore.Internal_Hbond.Weighted>
0.0000

> <Gold.Chemscore.DEClash.Weighted>
1.6667

> <Gold.Chemscore.DEInternal.Weighted>
3.2244

> <Gold.Chemscore.Rot.Weighted>
7.0935

> <Gold.Chemscore.Internal.Correction.Weighted>
   9.000000E+99

> <Gold.Protein.RotatedTorsions>
[ 6907 6896 6895 6894 ] final  120.12 input  -60.11 | X-H torsion
[ 7974 7965 7964 7962 ] final  116.37 input  175.53 | X-H torsion
[ 8008 7997 7996 7995 ] final  100.89 input   59.86 | X-H torsion
[ 10167 10162 10161 10158 ] final  112.24 input  -65.29 | X-H torsion
[ 10718 10713 10712 10709 ] final  118.00 input   66.30 | X-H torsion
[ 10763 10752 10751 10750 ] final  102.84 input  -60.55 | X-H torsion
[ 11005 11000 10999 10996 ] final  -89.27 input  -57.11 | X-H torsion

> <Gold.Protein.ActiveResidues>
 VAL166  LYS551  ARG553  GLY616  TRP617  ASP618  TYR619  PRO620  LYS621  CYS622 
 ASP623  PHE694  ASN695  SER759  ASP760  ASP761  ALA762  ILE779  LEU786  VAL792 
 PHE793  MET794  SER795  GLU796  ALA797  LYS798  CYS799  TRP800  GLU811  SER814 

> <Gold.Protein.RotatedAtoms>
  152.4421  133.7468  159.6671 H   0  0  0  0  0  0  0  0  0  0  0  0  # atno 6907 bound_to 6896
  150.8314  133.8074  159.3103 H   0  0  0  0  0  0  0  0  0  0  0  0  # atno 6908 bound_to 6896
  151.5727  135.1064  160.0050 H   0  0  0  0  0  0  0  0  0  0  0  0  # atno 6909 bound_to 6896
  145.1805  139.3052  143.4420 H   0  0  0  0  0  0  0  0  0  0  0  0  # atno 7974 bound_to 7965
  156.1247  140.3206  155.8260 H   0  0  0  0  0  0  0  0  0  0  0  0  # atno 8008 bound_to 7997
  155.4441  140.0527  157.3025 H   0  0  0  0  0  0  0  0  0  0  0  0  # atno 8009 bound_to 7997
  154.4854  140.2070  155.9682 H   0  0  0  0  0  0  0  0  0  0  0  0  # atno 8010 bound_to 7997
  139.6550  144.7129  151.1974 H   0  0  0  0  0  0  0  0  0  0  0  0  # atno 10167 bound_to 10162
  157.6059  131.1043  150.7695 H   0  0  0  0  0  0  0  0  0  0  0  0  # atno 10718 bound_to 10713
  153.3449  135.3997  155.1601 H   0  0  0  0  0  0  0  0  0  0  0  0  # atno 10763 bound_to 10752
  154.8651  135.3642  154.5297 H   0  0  0  0  0  0  0  0  0  0  0  0  # atno 10764 bound_to 10752
  153.5745  135.7078  153.5550 H   0  0  0  0  0  0  0  0  0  0  0  0  # atno 10765 bound_to 10752
  141.1587  133.7620  156.9571 H   0  0  0  0  0  0  0  0  0  0  0  0  # atno 11005 bound_to 11000
  146.3454  140.1983  142.8589 LP  0  0  0  0  0  0  0  0  0  0  0  0  # atno 17320 bound_to 7965
  145.0141  140.8739  143.5206 LP  0  0  0  0  0  0  0  0  0  0  0  0  # atno 17321 bound_to 7965
  140.7555  143.6087  150.8627 LP  0  0  0  0  0  0  0  0  0  0  0  0  # atno 17342 bound_to 10162
  139.9739  143.6026  152.2965 LP  0  0  0  0  0  0  0  0  0  0  0  0  # atno 17343 bound_to 10162
  156.8083  130.4944  149.5359 LP  0  0  0  0  0  0  0  0  0  0  0  0  # atno 17370 bound_to 10713
  156.1146  130.6065  151.0100 LP  0  0  0  0  0  0  0  0  0  0  0  0  # atno 17371 bound_to 10713
  140.1218  134.9412  157.2214 LP  0  0  0  0  0  0  0  0  0  0  0  0  # atno 17394 bound_to 11000
  140.3062  134.3075  155.7277 LP  0  0  0  0  0  0  0  0  0  0  0  0  # atno 17395 bound_to 11000

$$$$
