AV-unprocessed.smi:1047|AV-procd|sdf|4575|dock10
  -GOLD-   22720 3 33D 1   1.00000     0.00000
 Structure written by MMmdl.
 56 58  0  0  0  0  0  0  0  0  2 V2000
  145.0308  134.2134  150.3978 C   0  0  0  0  0  0  0  0  0  0  0  0
  145.1838  135.7124  150.6918 C   0  0  0  0  0  0  0  0  0  0  0  0
  146.0287  135.9757  151.8832 N   0  3  2  0  0  0  0  0  0  0  0  0
  145.7848  135.0020  152.9738 C   0  0  0  0  0  0  0  0  0  0  0  0
  146.7308  135.2688  154.1563 C   0  0  0  0  0  0  0  0  0  0  0  0
  146.5589  136.6023  154.6190 O   0  0  0  0  0  0  0  0  0  0  0  0
  146.8481  137.5660  153.6112 C   0  0  2  0  0  0  0  0  0  0  0  0
  146.7653  138.9718  154.2293 C   0  0  0  0  0  0  0  0  0  0  0  0
  147.3191  139.9884  153.3400 N   0  0  0  0  0  0  0  0  0  0  0  0
  147.2693  141.3402  153.8916 C   0  0  0  0  0  0  0  0  0  0  0  0
  148.1348  141.4772  155.1574 C   0  0  2  0  0  0  0  0  0  0  0  0
  147.6065  142.5067  155.9715 O   0  0  0  0  0  0  0  0  0  0  0  0
  149.6365  141.6924  154.8745 C   0  0  0  0  0  0  0  0  0  0  0  0
  150.4800  141.0770  155.8830 N   0  0  0  0  0  0  0  0  0  0  0  0
  150.8375  139.7810  155.9615 C   0  0  0  0  0  0  0  0  0  0  0  0
  151.6157  139.4251  156.9796 N   0  0  0  0  0  0  0  0  0  0  0  0
  151.7844  140.6316  157.6374 C   0  0  0  0  0  0  0  0  0  0  0  0
  152.5069  140.9443  158.8097 C   0  0  0  0  0  0  0  0  0  0  0  0
  152.5389  142.2653  159.3110 C   0  0  0  0  0  0  0  0  0  0  0  0
  153.3253  142.5562  160.5771 C   0  0  0  0  0  0  0  0  0  0  0  0
  151.8414  143.2987  158.6351 C   0  0  0  0  0  0  0  0  0  0  0  0
  151.8631  144.7258  159.1533 C   0  0  0  0  0  0  0  0  0  0  0  0
  151.1134  143.0032  157.4637 C   0  0  0  0  0  0  0  0  0  0  0  0
  151.0886  141.6850  156.9757 C   0  0  0  0  0  0  0  0  0  0  0  0
  145.9160  137.3630  152.3972 C   0  0  0  0  0  0  0  0  0  0  0  0
  144.3292  134.0542  149.5785 H   0  0  0  0  0  0  0  0  0  0  0  0
  144.6489  133.6773  151.2672 H   0  0  0  0  0  0  0  0  0  0  0  0
  145.9753  133.7553  150.1059 H   0  0  0  0  0  0  0  0  0  0  0  0
  145.5853  136.2361  149.8229 H   0  0  0  0  0  0  0  0  0  0  0  0
  144.1874  136.1212  150.8658 H   0  0  0  0  0  0  0  0  0  0  0  0
  144.7462  135.0714  153.3019 H   0  0  0  0  0  0  0  0  0  0  0  0
  145.9387  133.9865  152.6068 H   0  0  0  0  0  0  0  0  0  0  0  0
  146.5125  134.5820  154.9741 H   0  0  0  0  0  0  0  0  0  0  0  0
  147.7701  135.1010  153.8695 H   0  0  0  0  0  0  0  0  0  0  0  0
  147.8793  137.4162  153.2863 H   0  0  0  0  0  0  0  0  0  0  0  0
  145.7234  139.2031  154.4543 H   0  0  0  0  0  0  0  0  0  0  0  0
  147.2978  138.9824  155.1811 H   0  0  0  0  0  0  0  0  0  0  0  0
  146.8237  139.9714  152.4535 H   0  0  0  0  0  0  0  0  0  0  0  0
  147.6015  142.0635  153.1456 H   0  0  0  0  0  0  0  0  0  0  0  0
  146.2373  141.5982  154.1319 H   0  0  0  0  0  0  0  0  0  0  0  0
  148.0276  140.5539  155.7279 H   0  0  0  0  0  0  0  0  0  0  0  0
  147.9173  143.3369  155.6436 H   0  0  0  0  0  0  0  0  0  0  0  0
  149.8993  141.2719  153.9030 H   0  0  0  0  0  0  0  0  0  0  0  0
  149.8785  142.7546  154.8288 H   0  0  0  0  0  0  0  0  0  0  0  0
  150.5041  139.0575  155.2320 H   0  0  0  0  0  0  0  0  0  0  0  0
  153.0378  140.1568  159.3242 H   0  0  0  0  0  0  0  0  0  0  0  0
  154.1161  143.2797  160.3780 H   0  0  0  0  0  0  0  0  0  0  0  0
  153.7905  141.6533  160.9737 H   0  0  0  0  0  0  0  0  0  0  0  0
  152.6708  142.9611  161.3491 H   0  0  0  0  0  0  0  0  0  0  0  0
  151.2892  145.3922  158.5087 H   0  0  0  0  0  0  0  0  0  0  0  0
  152.8858  145.1013  159.1956 H   0  0  0  0  0  0  0  0  0  0  0  0
  151.4331  144.7757  160.1538 H   0  0  0  0  0  0  0  0  0  0  0  0
  150.5739  143.7795  156.9417 H   0  0  0  0  0  0  0  0  0  0  0  0
  146.1796  138.0787  151.6191 H   0  0  0  0  0  0  0  0  0  0  0  0
  144.8782  137.5578  152.6721 H   0  0  0  0  0  0  0  0  0  0  0  0
  146.9874  135.8431  151.5936 H   0  0  0  0  0  0  0  0  0  0  0  0
  1  2  1  0  0  0  0
  1 26  1  0  0  0  0
  1 27  1  0  0  0  0
  1 28  1  0  0  0  0
  2  3  1  0  0  0  0
  2 29  1  0  0  0  0
  2 30  1  0  0  0  0
  3 25  1  0  0  0  0
  3  4  1  0  0  0  0
  3 56  1  0  0  0  0
  4  5  1  0  0  0  0
  4 31  1  0  0  0  0
  4 32  1  0  0  0  0
  5  6  1  0  0  0  0
  5 33  1  0  0  0  0
  5 34  1  0  0  0  0
  6  7  1  0  0  0  0
  7  8  1  0  0  0  0
  7 25  1  0  0  0  0
  7 35  1  0  0  0  0
  8  9  1  0  0  0  0
  8 36  1  0  0  0  0
  8 37  1  0  0  0  0
  9 10  1  0  0  0  0
  9 38  1  0  0  0  0
 10 11  1  0  0  0  0
 10 39  1  0  0  0  0
 10 40  1  0  0  0  0
 11 12  1  0  0  0  0
 11 13  1  0  0  0  0
 11 41  1  0  0  0  0
 12 42  1  0  0  0  0
 13 14  1  0  0  0  0
 13 43  1  0  0  0  0
 13 44  1  0  0  0  0
 14 24  1  0  0  0  0
 14 15  1  0  0  0  0
 15 16  2  0  0  0  0
 15 45  1  0  0  0  0
 16 17  1  0  0  0  0
 17 24  2  0  0  0  0
 17 18  1  0  0  0  0
 18 19  2  0  0  0  0
 18 46  1  0  0  0  0
 19 20  1  0  0  0  0
 19 21  1  0  0  0  0
 20 47  1  0  0  0  0
 20 48  1  0  0  0  0
 20 49  1  0  0  0  0
 21 22  1  0  0  0  0
 21 23  2  0  0  0  0
 22 50  1  0  0  0  0
 22 51  1  0  0  0  0
 22 52  1  0  0  0  0
 23 24  1  0  0  0  0
 23 53  1  0  0  0  0
 25 54  1  0  0  0  0
 25 55  1  0  0  0  0
M  CHG  1   3   1
M  END
> <s_m_source_file>
AV-unprocessed.smi

> <i_m_source_file_index>
1047

> <i_lp_mmshare_version>
43012

> <i_f3d_flags>
0

> <s_epik_input>
W0NIM11bQ0gyXU4xW0NIMl1bQ0gyXU9bQ0BIXShbQ0gyXTEpW0NIMl1bTkhdW0NIMl1bQ0BIXShbT0hdKVtDSDJdbihbY0hdbjIpYyhjMjMpW2NIXWMoW0NIM10pYyhbY0hdMylbQ0gzXQ==

> <s_epik_cmdline>
J2VwaWtfcHl0aG9uJywgJy1waCcsICc3LjAnLCAnLXRuJywgJzgnLCAnLW1hJywgJzIwMCcsICctbWV0YWxfYmluZGluZycsICctaW1hZScsICc8aW5maWxlLm1hZT4nLCAnLW9tYWUnLCAnPG91dGZpbGUubWFlPic=

> <r_epik_Ionization_Penalty>
1.19246

> <r_epik_Ionization_Penalty_Charging>
0.210041

> <r_epik_Ionization_Penalty_Neutral>
0.982415

> <r_epik_State_Penalty>
1.57595

> <r_epik_Charging_Adjusted_Penalty>
1.78599

> <i_epik_Tot_Q>
1

> <i_epik_Tot_abs_Q>
1

> <r_epik_Metal_State_Penalty>
1.46172

> <b_epik_Metal_Only>
0

> <s_lp_Force_Field>
OPLS_2005

> <r_lp_Energy>
33.3518

> <b_lp_Chiralities_Consistent>
1

> <s_lp_Variant>
AV-unprocessed.smi:1047-16

> <Gold.Version>
5.8.1

> <Gold.Id.Protein>
6NUR|6NUR_protein|mol2

> <Gold.PLP.Fitness>
52.9196

> <Gold.PLP.PLP>
-46.0061

> <Gold.PLP.part.hbond>
-2.4435

> <Gold.PLP.part.metal>
0.0000

> <Gold.PLP.part.buried>
-1.7507

> <Gold.PLP.part.nonpolar>
-42.0106

> <Gold.PLP.part.repulsive>
0.0970

> <Gold.PLP.ligand.clash>
0.0000

> <Gold.PLP.ligand.torsion>
1.1743

> <Gold.PLP.Chemscore.Hbond>
3.0000

> <Gold.PLP.Chemscore.CHOScore>
0.0000

> <Gold.PLP.Chemscore.Metal>
0.0000

> <Gold.Chemscore.Hbonds>
donor molecule, donor type, donor heavy atom, donor atom, acceptor molecule, acceptor atom, score
      L1  H     3    56       P1  7948  2.00
      L1  H    12    42       P1  8028  1.00

> <Gold.PLP.Chemscore.Internal.Correction>
0.2620

> <Gold.Rescore>
     Score         DG    S(hbond)    S(metal)    S(lipo)     H(rot)  DE(clash)    DE(int)     intcor
     17.66     -19.32       1.57        0.00     130.75       2.62       0.90       0.76       ----

> <Gold.Chemscore.Fitness>
17.6560

> <Gold.Chemscore.DG>
-19.3171

> <Gold.Chemscore.ZeroCoef>
-5.4800

> <Gold.Chemscore.Hbond>
1.5714

> <Gold.Chemscore.Metal>
0.0000

> <Gold.Chemscore.Lipo>
130.7549

> <Gold.Chemscore.Internal_Hbond>
0.0000

> <Gold.Chemscore.DEClash>
0.9018

> <Gold.Chemscore.DEInternal>
0.7593

> <Gold.Chemscore.Rot>
2.6209

> <Gold.Chemscore.Internal.Correction>
   9.000000E+99

> <Gold.Chemscore.Hbonds>
donor molecule, donor type, donor heavy atom, donor atom, acceptor molecule, acceptor atom, score
      L1  H     3    56       P1  7948  0.93
      L1  H    12    42       P1  8028  0.44

> <Gold.Chemscore.Hbond.Weighted>
-5.2484

> <Gold.Chemscore.Metal.Weighted>
-0.0000

> <Gold.Chemscore.Lipo.Weighted>
-15.2983

> <Gold.Chemscore.Internal_Hbond.Weighted>
0.0000

> <Gold.Chemscore.DEClash.Weighted>
0.9018

> <Gold.Chemscore.DEInternal.Weighted>
0.7593

> <Gold.Chemscore.Rot.Weighted>
6.7096

> <Gold.Chemscore.Internal.Correction.Weighted>
   9.000000E+99

> <Gold.Protein.RotatedTorsions>
[ 6907 6896 6895 6894 ] final  -20.78 input  -60.11 | X-H torsion
[ 7974 7965 7964 7962 ] final   60.12 input  175.53 | X-H torsion
[ 8008 7997 7996 7995 ] final -145.48 input   59.86 | X-H torsion
[ 10167 10162 10161 10158 ] final -108.94 input  -65.29 | X-H torsion
[ 10718 10713 10712 10709 ] final   99.05 input   66.30 | X-H torsion
[ 10763 10752 10751 10750 ] final   60.94 input  -60.55 | X-H torsion
[ 11005 11000 10999 10996 ] final   49.43 input  -57.11 | X-H torsion

> <Gold.Protein.ActiveResidues>
 VAL166  LYS551  ARG553  GLY616  TRP617  ASP618  TYR619  PRO620  LYS621  CYS622 
 ASP623  PHE694  ASN695  SER759  ASP760  ASP761  ALA762  ILE779  LEU786  VAL792 
 PHE793  MET794  SER795  GLU796  ALA797  LYS798  CYS799  TRP800  GLU811  SER814 

> <Gold.Protein.RotatedAtoms>
  151.2431  135.0596  159.9032 H   0  0  0  0  0  0  0  0  0  0  0  0  # atno 6907 bound_to 6896
  152.5390  134.0413  159.8079 H   0  0  0  0  0  0  0  0  0  0  0  0  # atno 6908 bound_to 6896
  151.0609  133.5496  159.2666 H   0  0  0  0  0  0  0  0  0  0  0  0  # atno 6909 bound_to 6896
  145.8996  139.3571  143.0600 H   0  0  0  0  0  0  0  0  0  0  0  0  # atno 7974 bound_to 7965
  155.5439  140.0610  157.2864 H   0  0  0  0  0  0  0  0  0  0  0  0  # atno 8008 bound_to 7997
  154.4443  140.1914  156.0662 H   0  0  0  0  0  0  0  0  0  0  0  0  # atno 8009 bound_to 7997
  156.0565  140.3278  155.7415 H   0  0  0  0  0  0  0  0  0  0  0  0  # atno 8010 bound_to 7997
  140.1607  143.4123  152.1428 H   0  0  0  0  0  0  0  0  0  0  0  0  # atno 10167 bound_to 10162
  157.6884  131.0658  150.4889 H   0  0  0  0  0  0  0  0  0  0  0  0  # atno 10718 bound_to 10713
  152.9935  135.5518  154.5954 H   0  0  0  0  0  0  0  0  0  0  0  0  # atno 10763 bound_to 10752
  154.5307  135.2813  155.1185 H   0  0  0  0  0  0  0  0  0  0  0  0  # atno 10764 bound_to 10752
  154.2501  135.6400  153.5290 H   0  0  0  0  0  0  0  0  0  0  0  0  # atno 10765 bound_to 10752
  140.1104  134.4962  155.8682 H   0  0  0  0  0  0  0  0  0  0  0  0  # atno 11005 bound_to 11000
  145.8808  140.9364  143.0602 LP  0  0  0  0  0  0  0  0  0  0  0  0  # atno 17320 bound_to 7965
  144.6735  140.0777  143.7470 LP  0  0  0  0  0  0  0  0  0  0  0  0  # atno 17321 bound_to 7965
  139.5383  144.7231  151.4820 LP  0  0  0  0  0  0  0  0  0  0  0  0  # atno 17342 bound_to 10162
  140.6645  143.8428  150.6926 LP  0  0  0  0  0  0  0  0  0  0  0  0  # atno 17343 bound_to 10162
  156.5217  130.4163  149.6247 LP  0  0  0  0  0  0  0  0  0  0  0  0  # atno 17370 bound_to 10713
  156.3148  130.7249  151.2149 LP  0  0  0  0  0  0  0  0  0  0  0  0  # atno 17371 bound_to 10713
  141.2129  133.6725  156.6694 LP  0  0  0  0  0  0  0  0  0  0  0  0  # atno 17394 bound_to 11000
  140.3098  134.8095  157.4167 LP  0  0  0  0  0  0  0  0  0  0  0  0  # atno 17395 bound_to 11000

$$$$
