AV-unprocessed.smi:754|AV-procd|sdf|3607|dock5
  -GOLD-   22720 1 03D 1   1.00000     0.00000
 Structure written by MMmdl.
 37 38  0  0  0  0  0  0  0  0  1 V2000
  150.7553  145.3360  159.6734 C   0  0  0  0  0  0  0  0  0  0  0  0
  152.0444  145.2130  158.8581 C   0  0  0  0  0  0  0  0  0  0  0  0
  152.9052  144.2850  159.4967 O   0  0  0  0  0  0  0  0  0  0  0  0
  152.8042  142.9766  158.9562 C   0  0  2  0  0  0  0  0  0  0  0  0
  151.3743  142.4371  158.8594 C   0  0  0  0  0  0  0  0  0  0  0  0
  151.9186  141.0980  159.3674 C   0  0  1  0  0  0  0  0  0  0  0  0
  152.2672  140.2182  158.2514 N   0  0  0  0  0  0  0  0  0  0  0  0
  151.9683  138.9117  158.1892 C   0  0  0  0  0  0  0  0  0  0  0  0
  151.3823  138.3071  159.0865 O   0  0  0  0  0  0  0  0  0  0  0  0
  152.4003  138.1712  156.9235 C   0  0  0  0  0  0  0  0  0  0  0  0
  151.6554  138.6358  155.7686 N   0  0  0  0  0  0  0  0  0  0  0  0
  150.9740  137.9658  154.8367 C   0  0  0  0  0  0  0  0  0  0  0  0
  150.4427  138.7808  153.9384 N   0  0  0  0  0  0  0  0  0  0  0  0
  150.8427  140.0330  154.3747 N   0  0  0  0  0  0  0  0  0  0  0  0
  151.5632  139.9532  155.4597 N   0  0  0  0  0  0  0  0  0  0  0  0
  153.1279  141.8618  159.9800 C   0  0  0  0  0  0  0  0  0  0  0  0
  154.5210  141.2323  159.8625 C   0  0  0  0  0  0  0  0  0  0  0  0
  152.9425  142.2352  161.4571 C   0  0  0  0  0  0  0  0  0  0  0  0
  150.0677  146.0441  159.2107 H   0  0  0  0  0  0  0  0  0  0  0  0
  150.9641  145.6842  160.6852 H   0  0  0  0  0  0  0  0  0  0  0  0
  150.2459  144.3749  159.7470 H   0  0  0  0  0  0  0  0  0  0  0  0
  151.8112  144.8810  157.8456 H   0  0  0  0  0  0  0  0  0  0  0  0
  152.5320  146.1860  158.7829 H   0  0  0  0  0  0  0  0  0  0  0  0
  153.3619  142.8543  158.0250 H   0  0  0  0  0  0  0  0  0  0  0  0
  150.6911  142.9112  159.5659 H   0  0  0  0  0  0  0  0  0  0  0  0
  150.9599  142.4240  157.8506 H   0  0  0  0  0  0  0  0  0  0  0  0
  151.2657  140.6359  160.1103 H   0  0  0  0  0  0  0  0  0  0  0  0
  152.7571  140.6361  157.4737 H   0  0  0  0  0  0  0  0  0  0  0  0
  153.4652  138.3244  156.7434 H   0  0  0  0  0  0  0  0  0  0  0  0
  152.2449  137.0981  157.0452 H   0  0  0  0  0  0  0  0  0  0  0  0
  150.8723  136.8909  154.8149 H   0  0  0  0  0  0  0  0  0  0  0  0
  154.5815  140.2925  160.4122 H   0  0  0  0  0  0  0  0  0  0  0  0
  155.2934  141.8943  160.2553 H   0  0  0  0  0  0  0  0  0  0  0  0
  154.7882  141.0206  158.8270 H   0  0  0  0  0  0  0  0  0  0  0  0
  153.0040  141.3564  162.0998 H   0  0  0  0  0  0  0  0  0  0  0  0
  151.9730  142.6985  161.6418 H   0  0  0  0  0  0  0  0  0  0  0  0
  153.7031  142.9408  161.7927 H   0  0  0  0  0  0  0  0  0  0  0  0
  1  2  1  0  0  0  0
  1 19  1  0  0  0  0
  1 20  1  0  0  0  0
  1 21  1  0  0  0  0
  2  3  1  0  0  0  0
  2 22  1  0  0  0  0
  2 23  1  0  0  0  0
  3  4  1  0  0  0  0
  4 16  1  0  0  0  0
  4  5  1  0  0  0  0
  4 24  1  0  0  0  0
  5  6  1  0  0  0  0
  5 25  1  0  0  0  0
  5 26  1  0  0  0  0
  6  7  1  0  0  0  0
  6 16  1  0  0  0  0
  6 27  1  0  0  0  0
  7  8  1  0  0  0  0
  7 28  1  0  0  0  0
  8  9  2  0  0  0  0
  8 10  1  0  0  0  0
 10 11  1  0  0  0  0
 10 29  1  0  0  0  0
 10 30  1  0  0  0  0
 11 15  1  0  0  0  0
 11 12  1  0  0  0  0
 12 13  2  0  0  0  0
 12 31  1  0  0  0  0
 13 14  1  0  0  0  0
 14 15  2  0  0  0  0
 16 17  1  0  0  0  0
 16 18  1  0  0  0  0
 17 32  1  0  0  0  0
 17 33  1  0  0  0  0
 17 34  1  0  0  0  0
 18 35  1  0  0  0  0
 18 36  1  0  0  0  0
 18 37  1  0  0  0  0
M  END
> <s_m_source_file>
AV-unprocessed.smi

> <i_m_source_file_index>
754

> <i_lp_mmshare_version>
43012

> <i_f3d_flags>
0

> <s_epik_input>
W0NIM11bQ0gyXU9bQ0BASF0oQzEoW0NIM10pW0NIM10pW0NIMl1bQ0BIXTFbTkhdQyg9TylbQ0gyXW4yW2NIXW5ubjI=

> <s_epik_cmdline>
J2VwaWtfcHl0aG9uJywgJy1waCcsICc3LjAnLCAnLXRuJywgJzgnLCAnLW1hJywgJzIwMCcsICctbWV0YWxfYmluZGluZycsICctaW1hZScsICc8aW5maWxlLm1hZT4nLCAnLW9tYWUnLCAnPG91dGZpbGUubWFlPic=

> <r_lp_tautomer_probability>
1

> <r_epik_Ionization_Penalty>
8.28422e-07

> <r_epik_Ionization_Penalty_Charging>
0

> <r_epik_Ionization_Penalty_Neutral>
8.28422e-07

> <r_epik_State_Penalty>
-0

> <r_epik_Charging_Adjusted_Penalty>
0

> <i_epik_Tot_Q>
0

> <i_epik_Tot_abs_Q>
0

> <r_epik_Metal_State_Penalty>
-0

> <b_epik_Metal_Only>
0

> <s_lp_Force_Field>
OPLS_2005

> <r_lp_Energy>
23.2797

> <b_lp_Chiralities_Consistent>
1

> <s_lp_Variant>
AV-unprocessed.smi:754-1

> <Gold.Version>
5.8.1

> <Gold.Id.Protein>
6NUR|6NUR_protein|mol2

> <Gold.PLP.Fitness>
38.3382

> <Gold.PLP.PLP>
-36.3490

> <Gold.PLP.part.hbond>
-1.7142

> <Gold.PLP.part.metal>
0.0000

> <Gold.PLP.part.buried>
-5.7198

> <Gold.PLP.part.nonpolar>
-28.5763

> <Gold.PLP.part.repulsive>
0.4425

> <Gold.PLP.ligand.clash>
0.0000

> <Gold.PLP.ligand.torsion>
0.6830

> <Gold.PLP.Chemscore.Hbond>
1.0000

> <Gold.PLP.Chemscore.CHOScore>
0.0000

> <Gold.PLP.Chemscore.Metal>
0.0000

> <Gold.Chemscore.Hbonds>
donor molecule, donor type, donor heavy atom, donor atom, acceptor molecule, acceptor atom, score
      P1  H  7989  7998       L1    14  0.78

> <Gold.PLP.Chemscore.Internal.Correction>
0.3553

> <Gold.Rescore>
     Score         DG    S(hbond)    S(metal)    S(lipo)     H(rot)  DE(clash)    DE(int)     intcor
     10.91     -12.76       0.98        0.00      88.24       2.46       0.04       1.82       ----

> <Gold.Chemscore.Fitness>
10.9080

> <Gold.Chemscore.DG>
-12.7644

> <Gold.Chemscore.ZeroCoef>
-5.4800

> <Gold.Chemscore.Hbond>
0.9765

> <Gold.Chemscore.Metal>
0.0000

> <Gold.Chemscore.Lipo>
88.2434

> <Gold.Chemscore.Internal_Hbond>
0.0000

> <Gold.Chemscore.DEClash>
0.0360

> <Gold.Chemscore.DEInternal>
1.8204

> <Gold.Chemscore.Rot>
2.4616

> <Gold.Chemscore.Internal.Correction>
   9.000000E+99

> <Gold.Chemscore.Hbonds>
donor molecule, donor type, donor heavy atom, donor atom, acceptor molecule, acceptor atom, score
      P1  H  7989  7998       L1    14  0.34

> <Gold.Chemscore.Hbond.Weighted>
-3.2615

> <Gold.Chemscore.Metal.Weighted>
-0.0000

> <Gold.Chemscore.Lipo.Weighted>
-10.3245

> <Gold.Chemscore.Internal_Hbond.Weighted>
0.0000

> <Gold.Chemscore.DEClash.Weighted>
0.0360

> <Gold.Chemscore.DEInternal.Weighted>
1.8204

> <Gold.Chemscore.Rot.Weighted>
6.3016

> <Gold.Chemscore.Internal.Correction.Weighted>
   9.000000E+99

> <Gold.Protein.RotatedTorsions>
[ 6907 6896 6895 6894 ] final  -18.71 input  -60.11 | X-H torsion
[ 7974 7965 7964 7962 ] final  -72.13 input  175.53 | X-H torsion
[ 8008 7997 7996 7995 ] final  167.82 input   59.86 | X-H torsion
[ 10167 10162 10161 10158 ] final -178.96 input  -65.29 | X-H torsion
[ 10718 10713 10712 10709 ] final  -87.33 input   66.30 | X-H torsion
[ 10763 10752 10751 10750 ] final   45.90 input  -60.55 | X-H torsion
[ 11005 11000 10999 10996 ] final  -86.93 input  -57.11 | X-H torsion

> <Gold.Protein.ActiveResidues>
 VAL166  LYS551  ARG553  GLY616  TRP617  ASP618  TYR619  PRO620  LYS621  CYS622 
 ASP623  PHE694  ASN695  SER759  ASP760  ASP761  ALA762  ILE779  LEU786  VAL792 
 PHE793  MET794  SER795  GLU796  ALA797  LYS798  CYS799  TRP800  GLU811  SER814 

> <Gold.Protein.RotatedAtoms>
  151.2740  135.0693  159.9144 H   0  0  0  0  0  0  0  0  0  0  0  0  # atno 6907 bound_to 6896
  152.5345  134.0100  159.7944 H   0  0  0  0  0  0  0  0  0  0  0  0  # atno 6908 bound_to 6896
  151.0343  133.5712  159.2688 H   0  0  0  0  0  0  0  0  0  0  0  0  # atno 6909 bound_to 6896
  145.6691  140.9227  143.0893 H   0  0  0  0  0  0  0  0  0  0  0  0  # atno 7974 bound_to 7965
  156.1600  140.1606  156.8628 H   0  0  0  0  0  0  0  0  0  0  0  0  # atno 8008 bound_to 7997
  154.5152  140.0791  156.8102 H   0  0  0  0  0  0  0  0  0  0  0  0  # atno 8009 bound_to 7997
  155.3726  140.3401  155.4246 H   0  0  0  0  0  0  0  0  0  0  0  0  # atno 8010 bound_to 7997
  139.5408  144.2369  152.0891 H   0  0  0  0  0  0  0  0  0  0  0  0  # atno 10167 bound_to 10162
  155.9986  130.4796  150.4851 H   0  0  0  0  0  0  0  0  0  0  0  0  # atno 10718 bound_to 10713
  152.9818  135.6025  154.3513 H   0  0  0  0  0  0  0  0  0  0  0  0  # atno 10763 bound_to 10752
  154.3202  135.2770  155.2525 H   0  0  0  0  0  0  0  0  0  0  0  0  # atno 10764 bound_to 10752
  154.4695  135.5945  153.6367 H   0  0  0  0  0  0  0  0  0  0  0  0  # atno 10765 bound_to 10752
  141.1624  133.7482  156.9232 H   0  0  0  0  0  0  0  0  0  0  0  0  # atno 11005 bound_to 11000
  144.7063  139.8548  143.7429 LP  0  0  0  0  0  0  0  0  0  0  0  0  # atno 17320 bound_to 7965
  146.1061  139.4061  143.0317 LP  0  0  0  0  0  0  0  0  0  0  0  0  # atno 17321 bound_to 7965
  140.1847  144.4810  150.6510 LP  0  0  0  0  0  0  0  0  0  0  0  0  # atno 17342 bound_to 10162
  140.6637  143.2260  151.5795 LP  0  0  0  0  0  0  0  0  0  0  0  0  # atno 17343 bound_to 10162
  157.2852  131.0615  151.2171 LP  0  0  0  0  0  0  0  0  0  0  0  0  # atno 17370 bound_to 10713
  157.3203  130.6934  149.6265 LP  0  0  0  0  0  0  0  0  0  0  0  0  # atno 17371 bound_to 10713
  140.1437  134.9277  157.2500 LP  0  0  0  0  0  0  0  0  0  0  0  0  # atno 17394 bound_to 11000
  140.2806  134.3354  155.7344 LP  0  0  0  0  0  0  0  0  0  0  0  0  # atno 17395 bound_to 11000

$$$$
