AV-unprocessed.smi:2685|AV-procd|sdf|10382|dock3
  -GOLD-   2272014413D 1   1.00000     0.00000
 Structure written by MMmdl.
 22 22  0  0  0  0  0  0  0  0  2 V2000
  153.5609  141.5110  160.0282 C   0  0  0  0  0  0  0  0  0  0  0  0
  152.5600  142.3448  159.2480 C   0  0  0  0  0  0  0  0  0  0  0  0
  152.5262  143.6161  159.4331 N   0  0  0  0  0  0  0  0  0  0  0  0
  151.6285  144.4292  158.7236 C   0  0  0  0  0  0  0  0  0  0  0  0
  151.5709  145.6470  158.8783 O   0  0  0  0  0  0  0  0  0  0  0  0
  150.8001  143.8312  157.8347 N   0  0  0  0  0  0  0  0  0  0  0  0
  150.7974  142.4540  157.6053 C   0  0  0  0  0  0  0  0  0  0  0  0
  149.7951  141.9965  156.5621 C   0  0  0  0  0  0  0  0  0  0  0  0
  151.6462  141.6556  158.2869 C   0  0  0  0  0  0  0  0  0  0  0  0
  151.7275  140.1397  158.1005 C   0  0  0  0  0  0  0  0  0  0  0  0
  152.1969  139.6841  156.7136 C   0  0  0  0  0  0  0  0  0  0  0  0
  153.2293  138.9802  156.6799 O   0  0  0  0  0  0  0  0  0  0  0  0
  151.5298  140.0342  155.7145 O   0  5  0  0  0  0  0  0  0  0  0  0
  150.1493  144.3926  157.3050 H   0  0  0  0  0  0  0  0  0  0  0  0
  154.1712  140.9102  159.3536 H   0  0  0  0  0  0  0  0  0  0  0  0
  153.0453  140.8495  160.7245 H   0  0  0  0  0  0  0  0  0  0  0  0
  154.2320  142.1486  160.6050 H   0  0  0  0  0  0  0  0  0  0  0  0
  150.3033  141.4548  155.7638 H   0  0  0  0  0  0  0  0  0  0  0  0
  149.2652  142.8382  156.1145 H   0  0  0  0  0  0  0  0  0  0  0  0
  149.0564  141.3330  157.0122 H   0  0  0  0  0  0  0  0  0  0  0  0
  152.3701  139.6936  158.8589 H   0  0  0  0  0  0  0  0  0  0  0  0
  150.7438  139.7047  158.2765 H   0  0  0  0  0  0  0  0  0  0  0  0
  1  2  1  0  0  0  0
  1 15  1  0  0  0  0
  1 16  1  0  0  0  0
  1 17  1  0  0  0  0
  2  9  1  0  0  0  0
  2  3  2  0  0  0  0
  3  4  1  0  0  0  0
  4  5  2  0  0  0  0
  4  6  1  0  0  0  0
  6 14  1  0  0  0  0
  6  7  1  0  0  0  0
  7  8  1  0  0  0  0
  7  9  2  0  0  0  0
  8 18  1  0  0  0  0
  8 19  1  0  0  0  0
  8 20  1  0  0  0  0
  9 10  1  0  0  0  0
 10 11  1  0  0  0  0
 10 21  1  0  0  0  0
 10 22  1  0  0  0  0
 11 12  2  0  0  0  0
 11 13  1  0  0  0  0
M  CHG  1  13  -1
M  END
> <s_m_source_file>
AV-unprocessed.smi

> <i_m_source_file_index>
2685

> <i_lp_mmshare_version>
43012

> <i_f3d_flags>
0

> <s_epik_input>
W0NIM11jMW5jKD1PKVtuSF1jKFtDSDNdKWMxW0NIMl1DKD1PKVtPSF0=

> <s_epik_cmdline>
J2VwaWtfcHl0aG9uJywgJy1waCcsICc3LjAnLCAnLXRuJywgJzgnLCAnLW1hJywgJzIwMCcsICctbWV0YWxfYmluZGluZycsICctaW1hZScsICc8aW5maWxlLm1hZT4nLCAnLW9tYWUnLCAnPG91dGZpbGUubWFlPic=

> <r_lp_tautomer_probability>
1

> <r_epik_Ionization_Penalty>
0.00220208

> <r_epik_Ionization_Penalty_Charging>
0.000649408

> <r_epik_Ionization_Penalty_Neutral>
0.00155267

> <r_epik_State_Penalty>
-0

> <r_epik_Charging_Adjusted_Penalty>
0.000649408

> <i_epik_Tot_Q>
-1

> <i_epik_Tot_abs_Q>
1

> <r_epik_Metal_State_Penalty>
0.0484136

> <b_epik_Metal_Only>
0

> <s_lp_Force_Field>
OPLS_2005

> <r_lp_Energy>
-3.03599

> <b_lp_Chiralities_Consistent>
1

> <s_lp_Variant>
AV-unprocessed.smi:2685-1

> <Gold.Version>
5.8.1

> <Gold.Id.Protein>
6NUR|6NUR_protein|mol2

> <Gold.PLP.Fitness>
37.0042

> <Gold.PLP.PLP>
-25.1324

> <Gold.PLP.part.hbond>
-3.9118

> <Gold.PLP.part.metal>
0.0000

> <Gold.PLP.part.buried>
-1.6015

> <Gold.PLP.part.nonpolar>
-19.5773

> <Gold.PLP.part.repulsive>
0.1652

> <Gold.PLP.ligand.clash>
0.0000

> <Gold.PLP.ligand.torsion>
0.0287

> <Gold.PLP.Chemscore.Hbond>
3.9760

> <Gold.PLP.Chemscore.CHOScore>
0.0000

> <Gold.PLP.Chemscore.Metal>
0.0000

> <Gold.Chemscore.Hbonds>
donor molecule, donor type, donor heavy atom, donor atom, acceptor molecule, acceptor atom, score
      L1  H     6    14       P1  8028  0.91
      P1  H  7989  7998       L1    13  0.16
      P1  H  7997  8009       L1    12  2.00

> <Gold.PLP.Chemscore.Internal.Correction>
0.0013

> <Gold.Rescore>
     Score         DG    S(hbond)    S(metal)    S(lipo)     H(rot)  DE(clash)    DE(int)     intcor
     12.75     -14.18       2.33        0.00      41.15       1.52       0.03       1.40       ----

> <Gold.Chemscore.Fitness>
12.7474

> <Gold.Chemscore.DG>
-14.1788

> <Gold.Chemscore.ZeroCoef>
-5.4800

> <Gold.Chemscore.Hbond>
2.3271

> <Gold.Chemscore.Metal>
0.0000

> <Gold.Chemscore.Lipo>
41.1526

> <Gold.Chemscore.Internal_Hbond>
0.0000

> <Gold.Chemscore.DEClash>
0.0345

> <Gold.Chemscore.DEInternal>
1.3969

> <Gold.Chemscore.Rot>
1.5189

> <Gold.Chemscore.Internal.Correction>
   9.000000E+99

> <Gold.Chemscore.Hbonds>
donor molecule, donor type, donor heavy atom, donor atom, acceptor molecule, acceptor atom, score
      L1  H     6    14       P1  8028  0.47
      P1  H  7989  7998       L1    13  0.16
      P1  H  7997  8009       L1    12  0.29

> <Gold.Chemscore.Hbond.Weighted>
-7.7724

> <Gold.Chemscore.Metal.Weighted>
-0.0000

> <Gold.Chemscore.Lipo.Weighted>
-4.8149

> <Gold.Chemscore.Internal_Hbond.Weighted>
0.0000

> <Gold.Chemscore.DEClash.Weighted>
0.0345

> <Gold.Chemscore.DEInternal.Weighted>
1.3969

> <Gold.Chemscore.Rot.Weighted>
3.8884

> <Gold.Chemscore.Internal.Correction.Weighted>
   9.000000E+99

> <Gold.Protein.RotatedTorsions>
[ 6907 6896 6895 6894 ] final   69.35 input  -60.11 | X-H torsion
[ 7974 7965 7964 7962 ] final   90.79 input  175.53 | X-H torsion
[ 8008 7997 7996 7995 ] final -168.48 input   59.86 | X-H torsion
[ 10167 10162 10161 10158 ] final -162.81 input  -65.29 | X-H torsion
[ 10718 10713 10712 10709 ] final   41.87 input   66.30 | X-H torsion
[ 10763 10752 10751 10750 ] final  158.67 input  -60.55 | X-H torsion
[ 11005 11000 10999 10996 ] final  140.32 input  -57.11 | X-H torsion

> <Gold.Protein.ActiveResidues>
 VAL166  LYS551  ARG553  GLY616  TRP617  ASP618  TYR619  PRO620  LYS621  CYS622 
 ASP623  PHE694  ASN695  SER759  ASP760  ASP761  ALA762  ILE779  LEU786  VAL792 
 PHE793  MET794  SER795  GLU796  ALA797  LYS798  CYS799  TRP800  GLU811  SER814 

> <Gold.Protein.RotatedAtoms>
  152.4680  134.5028  159.9729 H   0  0  0  0  0  0  0  0  0  0  0  0  # atno 6907 bound_to 6896
  151.5061  133.3488  159.2885 H   0  0  0  0  0  0  0  0  0  0  0  0  # atno 6908 bound_to 6896
  150.8675  134.8070  159.7192 H   0  0  0  0  0  0  0  0  0  0  0  0  # atno 6909 bound_to 6896
  145.5143  139.2277  143.2707 H   0  0  0  0  0  0  0  0  0  0  0  0  # atno 7974 bound_to 7965
  155.8920  140.1026  157.1411 H   0  0  0  0  0  0  0  0  0  0  0  0  # atno 8008 bound_to 7997
  154.4016  140.1309  156.4392 H   0  0  0  0  0  0  0  0  0  0  0  0  # atno 8009 bound_to 7997
  155.7522  140.3465  155.5158 H   0  0  0  0  0  0  0  0  0  0  0  0  # atno 8010 bound_to 7997
  139.6365  144.0340  152.2058 H   0  0  0  0  0  0  0  0  0  0  0  0  # atno 10167 bound_to 10162
  157.3985  130.7846  149.7328 H   0  0  0  0  0  0  0  0  0  0  0  0  # atno 10718 bound_to 10713
  154.2197  135.2782  155.2929 H   0  0  0  0  0  0  0  0  0  0  0  0  # atno 10763 bound_to 10752
  154.5712  135.5618  153.7100 H   0  0  0  0  0  0  0  0  0  0  0  0  # atno 10764 bound_to 10752
  153.0044  135.6321  154.2337 H   0  0  0  0  0  0  0  0  0  0  0  0  # atno 10765 bound_to 10752
  140.0318  134.9348  157.0678 H   0  0  0  0  0  0  0  0  0  0  0  0  # atno 11005 bound_to 11000
  146.2146  140.5952  142.9044 LP  0  0  0  0  0  0  0  0  0  0  0  0  # atno 17320 bound_to 7965
  144.7710  140.5637  143.6670 LP  0  0  0  0  0  0  0  0  0  0  0  0  # atno 17321 bound_to 7965
  140.0018  144.6287  150.7723 LP  0  0  0  0  0  0  0  0  0  0  0  0  # atno 17342 bound_to 10162
  140.7468  143.2896  151.3366 LP  0  0  0  0  0  0  0  0  0  0  0  0  # atno 17343 bound_to 10162
  155.9817  130.4017  150.3459 LP  0  0  0  0  0  0  0  0  0  0  0  0  # atno 17370 bound_to 10713
  157.1584  131.0338  151.2853 LP  0  0  0  0  0  0  0  0  0  0  0  0  # atno 17371 bound_to 10713
  140.4212  134.1878  155.7164 LP  0  0  0  0  0  0  0  0  0  0  0  0  # atno 17394 bound_to 11000
  141.1835  133.8362  157.1171 LP  0  0  0  0  0  0  0  0  0  0  0  0  # atno 17395 bound_to 11000

$$$$
