AV-unprocessed.smi:67|AV-procd|sdf|629|dock9
  -GOLD-   2262016523D 1   1.00000     0.00000
 Structure written by MMmdl.
 49 51  0  0  0  0  0  0  0  0  3 V2000
  149.0495  140.7543  153.7312 O   0  0  0  0  0  0  0  0  0  0  0  0
  148.0125  140.3057  154.5876 C   0  0  1  0  0  0  0  0  0  0  0  0
  148.5799  139.1964  155.5023 C   0  0  0  0  0  0  0  0  0  0  0  0
  149.7003  139.6850  156.3512 N   0  3  2  0  0  0  0  0  0  0  0  0
  151.0229  139.5826  155.6801 C   0  0  0  0  0  0  0  0  0  0  0  0
  152.1188  140.2871  156.4972 C   0  0  0  0  0  0  0  0  0  0  0  0
  152.1494  139.7525  157.9436 C   0  0  1  0  0  0  0  0  0  0  0  0
  153.2061  140.2731  158.7537 O   0  0  0  0  0  0  0  0  0  0  0  0
  153.0143  141.2225  159.7398 C   0  0  0  0  0  0  0  0  0  0  0  0
  153.5303  141.1706  161.0589 C   0  0  0  0  0  0  0  0  0  0  0  0
  153.2661  142.2096  161.9714 C   0  0  0  0  0  0  0  0  0  0  0  0
  152.4820  143.3114  161.5854 C   0  0  0  0  0  0  0  0  0  0  0  0
  151.9521  143.3780  160.2805 C   0  0  0  0  0  0  0  0  0  0  0  0
  151.1085  144.5676  159.8463 C   0  0  0  0  0  0  0  0  0  0  0  0
  149.9479  144.5435  160.5001 F   0  0  0  0  0  0  0  0  0  0  0  0
  151.7335  145.7127  160.1223 F   0  0  0  0  0  0  0  0  0  0  0  0
  150.8634  144.5326  158.5359 F   0  0  0  0  0  0  0  0  0  0  0  0
  152.2294  142.3353  159.3706 C   0  0  0  0  0  0  0  0  0  0  0  0
  150.7584  139.7545  158.6108 C   0  0  0  0  0  0  0  0  0  0  0  0
  149.7230  139.0687  157.7044 C   0  0  0  0  0  0  0  0  0  0  0  0
  147.3930  141.4999  155.3212 C   0  0  0  0  0  0  0  0  0  0  0  0
  146.4445  142.1156  154.2907 C   0  0  0  0  0  0  0  0  0  0  0  0
  146.0048  141.0051  153.4246 N   0  3  0  0  0  0  0  0  0  0  0  0
  146.8462  139.8235  153.7078 C   0  0  0  0  0  0  0  0  0  0  0  0
  148.7802  140.6344  152.8325 H   0  0  0  0  0  0  0  0  0  0  0  0
  147.7907  138.7755  156.1280 H   0  0  0  0  0  0  0  0  0  0  0  0
  148.9173  138.3708  154.8729 H   0  0  0  0  0  0  0  0  0  0  0  0
  151.2765  138.5314  155.5338 H   0  0  0  0  0  0  0  0  0  0  0  0
  150.9716  140.0387  154.6905 H   0  0  0  0  0  0  0  0  0  0  0  0
  153.0883  140.1223  156.0258 H   0  0  0  0  0  0  0  0  0  0  0  0
  151.9478  141.3598  156.4567 H   0  0  0  0  0  0  0  0  0  0  0  0
  152.4194  138.6994  157.8521 H   0  0  0  0  0  0  0  0  0  0  0  0
  154.1351  140.3539  161.4116 H   0  0  0  0  0  0  0  0  0  0  0  0
  153.6683  142.1618  162.9727 H   0  0  0  0  0  0  0  0  0  0  0  0
  152.2923  144.1032  162.2950 H   0  0  0  0  0  0  0  0  0  0  0  0
  151.8347  142.3878  158.3663 H   0  0  0  0  0  0  0  0  0  0  0  0
  150.8104  139.2315  159.5663 H   0  0  0  0  0  0  0  0  0  0  0  0
  150.4098  140.7581  158.8401 H   0  0  0  0  0  0  0  0  0  0  0  0
  148.7396  139.1414  158.1678 H   0  0  0  0  0  0  0  0  0  0  0  0
  149.9491  138.0049  157.6150 H   0  0  0  0  0  0  0  0  0  0  0  0
  146.8077  141.1490  156.1724 H   0  0  0  0  0  0  0  0  0  0  0  0
  148.1306  142.2108  155.6962 H   0  0  0  0  0  0  0  0  0  0  0  0
  145.5975  142.6240  154.7522 H   0  0  0  0  0  0  0  0  0  0  0  0
  146.9777  142.8409  153.6749 H   0  0  0  0  0  0  0  0  0  0  0  0
  145.0371  140.7814  153.6100 H   0  0  0  0  0  0  0  0  0  0  0  0
  147.1716  139.3309  152.7903 H   0  0  0  0  0  0  0  0  0  0  0  0
  146.2287  139.1117  154.2576 H   0  0  0  0  0  0  0  0  0  0  0  0
  146.1080  141.2798  152.4577 H   0  0  0  0  0  0  0  0  0  0  0  0
  149.5333  140.6730  156.4827 H   0  0  0  0  0  0  0  0  0  0  0  0
  1  2  1  0  0  0  0
  1 25  1  0  0  0  0
  2 24  1  0  0  0  0
  2  3  1  0  0  0  0
  2 21  1  0  0  0  0
  3  4  1  0  0  0  0
  3 26  1  0  0  0  0
  3 27  1  0  0  0  0
  4 20  1  0  0  0  0
  4  5  1  0  0  0  0
  4 49  1  0  0  0  0
  5  6  1  0  0  0  0
  5 28  1  0  0  0  0
  5 29  1  0  0  0  0
  6  7  1  0  0  0  0
  6 30  1  0  0  0  0
  6 31  1  0  0  0  0
  7  8  1  0  0  0  0
  7 19  1  0  0  0  0
  7 32  1  0  0  0  0
  8  9  1  0  0  0  0
  9 18  1  0  0  0  0
  9 10  2  0  0  0  0
 10 11  1  0  0  0  0
 10 33  1  0  0  0  0
 11 12  2  0  0  0  0
 11 34  1  0  0  0  0
 12 13  1  0  0  0  0
 12 35  1  0  0  0  0
 13 14  1  0  0  0  0
 13 18  2  0  0  0  0
 14 15  1  0  0  0  0
 14 16  1  0  0  0  0
 14 17  1  0  0  0  0
 18 36  1  0  0  0  0
 19 20  1  0  0  0  0
 19 37  1  0  0  0  0
 19 38  1  0  0  0  0
 20 39  1  0  0  0  0
 20 40  1  0  0  0  0
 21 22  1  0  0  0  0
 21 41  1  0  0  0  0
 21 42  1  0  0  0  0
 22 23  1  0  0  0  0
 22 43  1  0  0  0  0
 22 44  1  0  0  0  0
 23 24  1  0  0  0  0
 23 45  1  0  0  0  0
 23 48  1  0  0  0  0
 24 46  1  0  0  0  0
 24 47  1  0  0  0  0
M  CHG  1   4   1
M  CHG  1  23   1
M  END
> <s_m_source_file>
AV-unprocessed.smi

> <i_m_source_file_index>
67

> <i_lp_mmshare_version>
43012

> <i_f3d_flags>
0

> <s_epik_input>
W0NIMl0xW05IXVtDSDJdW0NIMl1bQ0BAXTEoW09IXSlbQ0gyXU4yW0NIMl1bQ0gyXVtDSF0oW0NIMl1bQ0gyXTIpT2MzW2NIXVtjSF1bY0hdYyhDKEYpKEYpRilbY0hdMw==

> <s_epik_cmdline>
J2VwaWtfcHl0aG9uJywgJy1waCcsICc3LjAnLCAnLXRuJywgJzgnLCAnLW1hJywgJzIwMCcsICctbWV0YWxfYmluZGluZycsICctaW1hZScsICc8aW5maWxlLm1hZT4nLCAnLW9tYWUnLCAnPG91dGZpbGUubWFlPic=

> <r_lp_tautomer_probability>
1

> <r_epik_Ionization_Penalty>
0.0989853

> <r_epik_Ionization_Penalty_Charging>
0.0989662

> <r_epik_Ionization_Penalty_Neutral>
1.91014e-05

> <r_epik_State_Penalty>
0.0852826

> <r_epik_Charging_Adjusted_Penalty>
0.184249

> <i_epik_Tot_Q>
2

> <i_epik_Tot_abs_Q>
2

> <r_epik_Metal_State_Penalty>
0.0849414

> <b_epik_Metal_Only>
0

> <s_lp_Force_Field>
OPLS_2005

> <r_lp_Energy>
60.8706

> <b_lp_Chiralities_Consistent>
1

> <s_lp_Variant>
AV-unprocessed.smi:67-1

> <Gold.Version>
5.8.1

> <Gold.Id.Protein>
6NUR|6NUR_protein|mol2

> <Gold.PLP.Fitness>
63.5245

> <Gold.PLP.PLP>
-55.1665

> <Gold.PLP.part.hbond>
-4.5799

> <Gold.PLP.part.metal>
0.0000

> <Gold.PLP.part.buried>
-4.9909

> <Gold.PLP.part.nonpolar>
-45.1945

> <Gold.PLP.part.repulsive>
0.0717

> <Gold.PLP.ligand.clash>
1.1355

> <Gold.PLP.ligand.torsion>
1.2735

> <Gold.PLP.Chemscore.Hbond>
3.5604

> <Gold.PLP.Chemscore.CHOScore>
0.0000

> <Gold.PLP.Chemscore.Metal>
0.0000

> <Gold.Chemscore.Hbonds>
donor molecule, donor type, donor heavy atom, donor atom, acceptor molecule, acceptor atom, score
      L1  H     1    25       P1  7957  0.75
      L1  H    23    45       P1 10175  1.22
      P1  H  7997  8010       L1     8  0.33

> <Gold.PLP.Chemscore.Internal.Correction>
1.3594

> <Gold.Rescore>
     Score         DG    S(hbond)    S(metal)    S(lipo)     H(rot)  DE(clash)    DE(int)     intcor
     18.59     -20.80       1.88        0.00     126.15       2.24       0.86       1.34       ----

> <Gold.Chemscore.Fitness>
18.5931

> <Gold.Chemscore.DG>
-20.7951

> <Gold.Chemscore.ZeroCoef>
-5.4800

> <Gold.Chemscore.Hbond>
1.8795

> <Gold.Chemscore.Metal>
0.0000

> <Gold.Chemscore.Lipo>
126.1519

> <Gold.Chemscore.Internal_Hbond>
0.0000

> <Gold.Chemscore.DEClash>
0.8574

> <Gold.Chemscore.DEInternal>
1.3446

> <Gold.Chemscore.Rot>
2.2352

> <Gold.Chemscore.Internal.Correction>
   9.000000E+99

> <Gold.Chemscore.Hbonds>
donor molecule, donor type, donor heavy atom, donor atom, acceptor molecule, acceptor atom, score
      L1  H     1    25       P1  7957  0.73
      L1  H    23    45       P1 10175  0.54
      P1  H  7997  8010       L1     8  0.03

> <Gold.Chemscore.Hbond.Weighted>
-6.2775

> <Gold.Chemscore.Metal.Weighted>
-0.0000

> <Gold.Chemscore.Lipo.Weighted>
-14.7598

> <Gold.Chemscore.Internal_Hbond.Weighted>
0.0000

> <Gold.Chemscore.DEClash.Weighted>
0.8574

> <Gold.Chemscore.DEInternal.Weighted>
1.3446

> <Gold.Chemscore.Rot.Weighted>
5.7221

> <Gold.Chemscore.Internal.Correction.Weighted>
   9.000000E+99

> <Gold.Protein.RotatedTorsions>
[ 6907 6896 6895 6894 ] final  -17.44 input  -60.11 | X-H torsion
[ 7974 7965 7964 7962 ] final  131.71 input  175.53 | X-H torsion
[ 8008 7997 7996 7995 ] final   21.65 input   59.86 | X-H torsion
[ 10167 10162 10161 10158 ] final   47.10 input  -65.29 | X-H torsion
[ 10718 10713 10712 10709 ] final  -44.50 input   66.30 | X-H torsion
[ 10763 10752 10751 10750 ] final -164.38 input  -60.55 | X-H torsion
[ 11005 11000 10999 10996 ] final   49.42 input  -57.11 | X-H torsion

> <Gold.Protein.ActiveResidues>
 VAL166  LYS551  ARG553  GLY616  TRP617  ASP618  TYR619  PRO620  LYS621  CYS622 
 ASP623  PHE694  ASN695  SER759  ASP760  ASP761  ALA762  ILE779  LEU786  VAL792 
 PHE793  MET794  SER795  GLU796  ALA797  LYS798  CYS799  TRP800  GLU811  SER814 

> <Gold.Protein.RotatedAtoms>
  151.2933  135.0748  159.9211 H   0  0  0  0  0  0  0  0  0  0  0  0  # atno 6907 bound_to 6896
  152.5312  133.9909  159.7860 H   0  0  0  0  0  0  0  0  0  0  0  0  # atno 6908 bound_to 6896
  151.0183  133.5849  159.2705 H   0  0  0  0  0  0  0  0  0  0  0  0  # atno 6909 bound_to 6896
  145.0044  139.4280  143.5276 H   0  0  0  0  0  0  0  0  0  0  0  0  # atno 7974 bound_to 7965
  154.9538  140.3069  155.5062 H   0  0  0  0  0  0  0  0  0  0  0  0  # atno 8008 bound_to 7997
  156.2984  140.2314  156.4556 H   0  0  0  0  0  0  0  0  0  0  0  0  # atno 8009 bound_to 7997
  154.8029  140.0433  157.1274 H   0  0  0  0  0  0  0  0  0  0  0  0  # atno 8010 bound_to 7997
  140.3071  144.2864  150.6207 H   0  0  0  0  0  0  0  0  0  0  0  0  # atno 10167 bound_to 10162
  156.2380  130.4177  149.8795 H   0  0  0  0  0  0  0  0  0  0  0  0  # atno 10718 bound_to 10713
  154.7034  135.2992  154.9307 H   0  0  0  0  0  0  0  0  0  0  0  0  # atno 10763 bound_to 10752
  154.0232  135.6680  153.4778 H   0  0  0  0  0  0  0  0  0  0  0  0  # atno 10764 bound_to 10752
  153.0698  135.5067  154.8191 H   0  0  0  0  0  0  0  0  0  0  0  0  # atno 10765 bound_to 10752
  140.1105  134.4962  155.8682 H   0  0  0  0  0  0  0  0  0  0  0  0  # atno 11005 bound_to 11000
  146.3458  139.9452  142.8736 LP  0  0  0  0  0  0  0  0  0  0  0  0  # atno 17320 bound_to 7965
  145.2108  140.9895  143.4101 LP  0  0  0  0  0  0  0  0  0  0  0  0  # atno 17321 bound_to 7965
  140.5600  143.2193  151.7781 LP  0  0  0  0  0  0  0  0  0  0  0  0  # atno 17342 bound_to 10162
  139.4902  144.4361  151.9817 LP  0  0  0  0  0  0  0  0  0  0  0  0  # atno 17343 bound_to 10162
  156.6386  130.8695  151.3509 LP  0  0  0  0  0  0  0  0  0  0  0  0  # atno 17370 bound_to 10713
  157.7163  130.9501  150.1267 LP  0  0  0  0  0  0  0  0  0  0  0  0  # atno 17371 bound_to 10713
  141.2129  133.6725  156.6695 LP  0  0  0  0  0  0  0  0  0  0  0  0  # atno 17394 bound_to 11000
  140.3098  134.8095  157.4167 LP  0  0  0  0  0  0  0  0  0  0  0  0  # atno 17395 bound_to 11000

$$$$
