AV-unprocessed.smi:1235|AV-procd|sdf|5177|dock9
  -GOLD-   22720 4253D 1   1.00000     0.00000
 Structure written by MMmdl.
 50 51  0  0  0  0  0  0  0  0  2 V2000
  152.0213  141.3638  158.5585 C   0  0  0  0  0  0  0  0  0  0  0  0
  150.7232  141.3835  157.9908 O   0  0  0  0  0  0  0  0  0  0  0  0
  150.6590  142.1615  156.8079 C   0  0  0  0  0  0  0  0  0  0  0  0
  151.5768  141.5312  155.7494 C   0  0  0  0  0  0  0  0  0  0  0  0
  151.0521  140.2449  155.2801 N   0  0  0  0  0  0  0  0  0  0  0  0
  149.8482  140.3407  154.6022 N   0  0  0  0  0  0  0  0  0  0  0  0
  149.2705  139.2750  154.1498 C   0  0  0  0  0  0  0  0  0  0  0  0
  147.9733  139.3348  153.4199 C   0  0  0  0  0  0  0  0  0  0  0  0
  147.1393  140.2134  153.6445 O   0  0  0  0  0  0  0  0  0  0  0  0
  147.7806  138.3681  152.5042 N   0  0  0  0  0  0  0  0  0  0  0  0
  146.6022  138.2368  151.6557 C   0  0  0  0  0  0  0  0  0  0  0  0
  145.4764  137.4522  152.3594 C   0  0  0  0  0  0  0  0  0  0  0  0
  145.9279  136.1508  152.9226 N   0  3  2  0  0  0  0  0  0  0  0  0
  145.3277  134.9942  152.2034 C   0  0  0  0  0  0  0  0  0  0  0  0
  145.9652  133.6665  152.6430 C   0  0  0  0  0  0  0  0  0  0  0  0
  145.8606  133.4798  154.1603 C   0  0  0  0  0  0  0  0  0  0  0  0
  146.4690  134.6925  154.8772 C   0  0  0  0  0  0  0  0  0  0  0  0
  145.8395  136.0231  154.4119 C   0  0  2  0  0  0  0  0  0  0  0  0
  144.4117  136.2171  154.9667 C   0  0  0  0  0  0  0  0  0  0  0  0
  149.8707  137.9653  154.3392 C   0  0  0  0  0  0  0  0  0  0  0  0
  151.0447  137.8879  155.0033 C   0  0  0  0  0  0  0  0  0  0  0  0
  151.7165  139.0766  155.5309 C   0  0  0  0  0  0  0  0  0  0  0  0
  152.7800  139.0307  156.1484 O   0  0  0  0  0  0  0  0  0  0  0  0
  152.0175  140.7490  159.4586 H   0  0  0  0  0  0  0  0  0  0  0  0
  152.3445  142.3673  158.8381 H   0  0  0  0  0  0  0  0  0  0  0  0
  152.7497  140.9413  157.8652 H   0  0  0  0  0  0  0  0  0  0  0  0
  149.6312  142.2023  156.4441 H   0  0  0  0  0  0  0  0  0  0  0  0
  150.9754  143.1844  157.0188 H   0  0  0  0  0  0  0  0  0  0  0  0
  151.6827  142.2175  154.9073 H   0  0  0  0  0  0  0  0  0  0  0  0
  152.5841  141.4097  156.1517 H   0  0  0  0  0  0  0  0  0  0  0  0
  148.5143  137.6848  152.3792 H   0  0  0  0  0  0  0  0  0  0  0  0
  146.2522  139.2244  151.3504 H   0  0  0  0  0  0  0  0  0  0  0  0
  146.9259  137.7233  150.7511 H   0  0  0  0  0  0  0  0  0  0  0  0
  145.0052  138.0603  153.1316 H   0  0  0  0  0  0  0  0  0  0  0  0
  144.6943  137.2463  151.6275 H   0  0  0  0  0  0  0  0  0  0  0  0
  144.2494  134.9709  152.3641 H   0  0  0  0  0  0  0  0  0  0  0  0
  145.4771  135.1132  151.1296 H   0  0  0  0  0  0  0  0  0  0  0  0
  145.4826  132.8337  152.1308 H   0  0  0  0  0  0  0  0  0  0  0  0
  147.0139  133.6476  152.3432 H   0  0  0  0  0  0  0  0  0  0  0  0
  144.8168  133.3548  154.4495 H   0  0  0  0  0  0  0  0  0  0  0  0
  146.3766  132.5678  154.4625 H   0  0  0  0  0  0  0  0  0  0  0  0
  146.3637  134.5794  155.9569 H   0  0  0  0  0  0  0  0  0  0  0  0
  147.5421  134.7170  154.6812 H   0  0  0  0  0  0  0  0  0  0  0  0
  146.4572  136.8058  154.8506 H   0  0  0  0  0  0  0  0  0  0  0  0
  144.3992  136.0855  156.0490 H   0  0  0  0  0  0  0  0  0  0  0  0
  143.7016  135.5053  154.5467 H   0  0  0  0  0  0  0  0  0  0  0  0
  144.0337  137.2201  154.7710 H   0  0  0  0  0  0  0  0  0  0  0  0
  149.3970  137.0710  153.9613 H   0  0  0  0  0  0  0  0  0  0  0  0
  151.5022  136.9205  155.1510 H   0  0  0  0  0  0  0  0  0  0  0  0
  146.9144  136.1018  152.7110 H   0  0  0  0  0  0  0  0  0  0  0  0
  1  2  1  0  0  0  0
  1 24  1  0  0  0  0
  1 25  1  0  0  0  0
  1 26  1  0  0  0  0
  2  3  1  0  0  0  0
  3  4  1  0  0  0  0
  3 27  1  0  0  0  0
  3 28  1  0  0  0  0
  4  5  1  0  0  0  0
  4 29  1  0  0  0  0
  4 30  1  0  0  0  0
  5 22  1  0  0  0  0
  5  6  1  0  0  0  0
  6  7  2  0  0  0  0
  7  8  1  0  0  0  0
  7 20  1  0  0  0  0
  8  9  2  0  0  0  0
  8 10  1  0  0  0  0
 10 11  1  0  0  0  0
 10 31  1  0  0  0  0
 11 12  1  0  0  0  0
 11 32  1  0  0  0  0
 11 33  1  0  0  0  0
 12 13  1  0  0  0  0
 12 34  1  0  0  0  0
 12 35  1  0  0  0  0
 13 18  1  0  0  0  0
 13 14  1  0  0  0  0
 13 50  1  0  0  0  0
 14 15  1  0  0  0  0
 14 36  1  0  0  0  0
 14 37  1  0  0  0  0
 15 16  1  0  0  0  0
 15 38  1  0  0  0  0
 15 39  1  0  0  0  0
 16 17  1  0  0  0  0
 16 40  1  0  0  0  0
 16 41  1  0  0  0  0
 17 18  1  0  0  0  0
 17 42  1  0  0  0  0
 17 43  1  0  0  0  0
 18 19  1  0  0  0  0
 18 44  1  0  0  0  0
 19 45  1  0  0  0  0
 19 46  1  0  0  0  0
 19 47  1  0  0  0  0
 20 21  2  0  0  0  0
 20 48  1  0  0  0  0
 21 22  1  0  0  0  0
 21 49  1  0  0  0  0
 22 23  2  0  0  0  0
M  CHG  1  13   1
M  END
> <s_m_source_file>
AV-unprocessed.smi

> <i_m_source_file_index>
1235

> <i_lp_mmshare_version>
43012

> <i_f3d_flags>
0

> <s_epik_input>
W0NIM11PW0NIMl1bQ0gyXW4xbmMoW2NIXVtjSF1jMT1PKUMoPU8pW05IXVtDSDJdW0NIMl1OMltDSDJdW0NIMl1bQ0gyXVtDSDJdW0NASF0yW0NIM10=

> <s_epik_cmdline>
J2VwaWtfcHl0aG9uJywgJy1waCcsICc3LjAnLCAnLXRuJywgJzgnLCAnLW1hJywgJzIwMCcsICctbWV0YWxfYmluZGluZycsICctaW1hZScsICc8aW5maWxlLm1hZT4nLCAnLW9tYWUnLCAnPG91dGZpbGUubWFlPic=

> <r_lp_tautomer_probability>
1

> <r_epik_Ionization_Penalty>
0.00271975

> <r_epik_Ionization_Penalty_Charging>
0.00271407

> <r_epik_Ionization_Penalty_Neutral>
5.6803e-06

> <r_epik_State_Penalty>
0.00189271

> <r_epik_Charging_Adjusted_Penalty>
0.00460678

> <i_epik_Tot_Q>
1

> <i_epik_Tot_abs_Q>
1

> <r_epik_Metal_State_Penalty>
-0

> <b_epik_Metal_Only>
0

> <s_lp_Force_Field>
OPLS_2005

> <r_lp_Energy>
40.192

> <b_lp_Chiralities_Consistent>
1

> <s_lp_Variant>
AV-unprocessed.smi:1235-3

> <Gold.Version>
5.8.1

> <Gold.Id.Protein>
6NUR|6NUR_protein|mol2

> <Gold.PLP.Fitness>
47.4955

> <Gold.PLP.PLP>
-38.9553

> <Gold.PLP.part.hbond>
-4.0000

> <Gold.PLP.part.metal>
0.0000

> <Gold.PLP.part.buried>
-3.2218

> <Gold.PLP.part.nonpolar>
-32.0026

> <Gold.PLP.part.repulsive>
0.2791

> <Gold.PLP.ligand.clash>
0.0000

> <Gold.PLP.ligand.torsion>
1.3463

> <Gold.PLP.Chemscore.Hbond>
3.6720

> <Gold.PLP.Chemscore.CHOScore>
0.0000

> <Gold.PLP.Chemscore.Metal>
0.0000

> <Gold.Chemscore.Hbonds>
donor molecule, donor type, donor heavy atom, donor atom, acceptor molecule, acceptor atom, score
      L1  H    10    31       P1  7948  0.98
      L1  H    13    50       P1  7948  1.14
      P1  H  7997  8010       L1    23  1.00

> <Gold.PLP.Chemscore.Internal.Correction>
0.2168

> <Gold.Rescore>
     Score         DG    S(hbond)    S(metal)    S(lipo)     H(rot)  DE(clash)    DE(int)     intcor
     16.55     -18.22       2.60        0.00      78.60       2.00       0.01       1.66       ----

> <Gold.Chemscore.Fitness>
16.5523

> <Gold.Chemscore.DG>
-18.2194

> <Gold.Chemscore.ZeroCoef>
-5.4800

> <Gold.Chemscore.Hbond>
2.5954

> <Gold.Chemscore.Metal>
0.0000

> <Gold.Chemscore.Lipo>
78.5964

> <Gold.Chemscore.Internal_Hbond>
0.0000

> <Gold.Chemscore.DEClash>
0.0096

> <Gold.Chemscore.DEInternal>
1.6575

> <Gold.Chemscore.Rot>
2.0020

> <Gold.Chemscore.Internal.Correction>
   9.000000E+99

> <Gold.Chemscore.Hbonds>
donor molecule, donor type, donor heavy atom, donor atom, acceptor molecule, acceptor atom, score
      L1  H    10    31       P1  7948  0.91
      L1  H    13    50       P1  7948  0.56
      P1  H  7997  8010       L1    23  1.00

> <Gold.Chemscore.Hbond.Weighted>
-8.6688

> <Gold.Chemscore.Metal.Weighted>
-0.0000

> <Gold.Chemscore.Lipo.Weighted>
-9.1958

> <Gold.Chemscore.Internal_Hbond.Weighted>
0.0000

> <Gold.Chemscore.DEClash.Weighted>
0.0096

> <Gold.Chemscore.DEInternal.Weighted>
1.6575

> <Gold.Chemscore.Rot.Weighted>
5.1252

> <Gold.Chemscore.Internal.Correction.Weighted>
   9.000000E+99

> <Gold.Protein.RotatedTorsions>
[ 6907 6896 6895 6894 ] final   17.29 input  -60.11 | X-H torsion
[ 7974 7965 7964 7962 ] final  101.41 input  175.53 | X-H torsion
[ 8008 7997 7996 7995 ] final   73.95 input   59.86 | X-H torsion
[ 10167 10162 10161 10158 ] final   57.30 input  -65.29 | X-H torsion
[ 10718 10713 10712 10709 ] final  -39.09 input   66.30 | X-H torsion
[ 10763 10752 10751 10750 ] final -177.32 input  -60.55 | X-H torsion
[ 11005 11000 10999 10996 ] final   93.95 input  -57.11 | X-H torsion

> <Gold.Protein.ActiveResidues>
 VAL166  LYS551  ARG553  GLY616  TRP617  ASP618  TYR619  PRO620  LYS621  CYS622 
 ASP623  PHE694  ASN695  SER759  ASP760  ASP761  ALA762  ILE779  LEU786  VAL792 
 PHE793  MET794  SER795  GLU796  ALA797  LYS798  CYS799  TRP800  GLU811  SER814 

> <Gold.Protein.RotatedAtoms>
  151.8473  135.0570  160.0454 H   0  0  0  0  0  0  0  0  0  0  0  0  # atno 6907 bound_to 6896
  152.2763  133.5424  159.5479 H   0  0  0  0  0  0  0  0  0  0  0  0  # atno 6908 bound_to 6896
  150.7171  134.0542  159.3851 H   0  0  0  0  0  0  0  0  0  0  0  0  # atno 6909 bound_to 6896
  145.3727  139.2395  143.3446 H   0  0  0  0  0  0  0  0  0  0  0  0  # atno 7974 bound_to 7965
  155.7912  140.3479  155.5350 H   0  0  0  0  0  0  0  0  0  0  0  0  # atno 8008 bound_to 7997
  155.8632  140.0974  157.1620 H   0  0  0  0  0  0  0  0  0  0  0  0  # atno 8009 bound_to 7997
  154.4013  140.1354  156.3974 H   0  0  0  0  0  0  0  0  0  0  0  0  # atno 8010 bound_to 7997
  140.1994  144.4003  150.6535 H   0  0  0  0  0  0  0  0  0  0  0  0  # atno 10167 bound_to 10162
  156.2963  130.4234  149.8187 H   0  0  0  0  0  0  0  0  0  0  0  0  # atno 10718 bound_to 10713
  154.5615  135.2820  155.0914 H   0  0  0  0  0  0  0  0  0  0  0  0  # atno 10763 bound_to 10752
  154.2321  135.6372  153.5182 H   0  0  0  0  0  0  0  0  0  0  0  0  # atno 10764 bound_to 10752
  153.0030  135.5540  154.6211 H   0  0  0  0  0  0  0  0  0  0  0  0  # atno 10765 bound_to 10752
  139.8804  134.8818  156.3793 H   0  0  0  0  0  0  0  0  0  0  0  0  # atno 11005 bound_to 11000
  146.2878  140.4381  142.8751 LP  0  0  0  0  0  0  0  0  0  0  0  0  # atno 17320 bound_to 7965
  144.8564  140.7077  143.6135 LP  0  0  0  0  0  0  0  0  0  0  0  0  # atno 17321 bound_to 7965
  140.6400  143.2202  151.6310 LP  0  0  0  0  0  0  0  0  0  0  0  0  # atno 17342 bound_to 10162
  139.5223  144.3167  152.0946 LP  0  0  0  0  0  0  0  0  0  0  0  0  # atno 17343 bound_to 10162
  156.5582  130.8371  151.3320 LP  0  0  0  0  0  0  0  0  0  0  0  0  # atno 17370 bound_to 10713
  157.7356  130.9765  150.2092 LP  0  0  0  0  0  0  0  0  0  0  0  0  # atno 17371 bound_to 10713
  140.9410  133.7514  156.0146 LP  0  0  0  0  0  0  0  0  0  0  0  0  # atno 17394 bound_to 11000
  140.8219  134.3279  157.5378 LP  0  0  0  0  0  0  0  0  0  0  0  0  # atno 17395 bound_to 11000

$$$$
