AV-unprocessed.smi:598|AV-procd|sdf|3028|dock4
  -GOLD-   2262023543D 1   1.00000     0.00000
 Structure written by MMmdl.
 43 44  0  0  0  0  0  0  0  0  3 V2000
  153.0915  142.9421  162.7549 C   0  0  0  0  0  0  0  0  0  0  0  0
  152.3982  143.2877  161.4245 C   0  0  1  0  0  0  0  0  0  0  0  0
  152.0694  144.7947  161.3866 C   0  0  0  0  0  0  0  0  0  0  0  0
  151.3649  145.2026  160.0859 C   0  0  0  0  0  0  0  0  0  0  0  0
  152.1994  144.8040  158.8598 C   0  0  0  0  0  0  0  0  0  0  0  0
  152.5361  143.3015  158.8582 C   0  0  2  0  0  0  0  0  0  0  0  0
  151.3199  142.5256  158.6026 N   0  0  0  0  0  0  0  0  0  0  0  0
  150.7314  142.3395  157.4107 C   0  0  0  0  0  0  0  0  0  0  0  0
  151.1771  142.7945  156.3562 O   0  0  0  0  0  0  0  0  0  0  0  0
  149.4492  141.4946  157.4298 C   0  0  0  0  0  0  0  0  0  0  0  0
  149.4992  140.3233  156.5380 N   0  0  0  0  0  0  0  0  0  0  0  0
  150.7618  139.9640  156.0263 C   0  0  0  0  0  0  0  0  0  0  0  0
  150.9266  138.9134  155.1987 C   0  0  0  0  0  0  0  0  0  0  0  0
  152.2305  138.5604  154.6814 N   0  3  0  0  0  0  0  0  0  0  0  0
  153.1407  139.3780  154.7718 O   0  0  0  0  0  0  0  0  0  0  0  0
  152.3881  137.4573  154.1665 O   0  5  0  0  0  0  0  0  0  0  0  0
  149.7494  138.1462  154.8402 C   0  0  0  0  0  0  0  0  0  0  0  0
  148.5384  138.4868  155.3234 C   0  0  0  0  0  0  0  0  0  0  0  0
  148.3610  139.6322  156.2220 C   0  0  0  0  0  0  0  0  0  0  0  0
  147.2568  139.9510  156.6633 O   0  0  0  0  0  0  0  0  0  0  0  0
  153.2338  142.8776  160.1795 C   0  0  2  0  0  0  0  0  0  0  0  0
  153.6129  141.3829  160.1697 C   0  0  0  0  0  0  0  0  0  0  0  0
  154.0777  143.4029  162.8200 H   0  0  0  0  0  0  0  0  0  0  0  0
  153.2136  141.8666  162.8805 H   0  0  0  0  0  0  0  0  0  0  0  0
  152.5052  143.2936  163.6047 H   0  0  0  0  0  0  0  0  0  0  0  0
  151.4548  142.7403  161.3996 H   0  0  0  0  0  0  0  0  0  0  0  0
  151.4388  145.0602  162.2360 H   0  0  0  0  0  0  0  0  0  0  0  0
  152.9878  145.3735  161.4950 H   0  0  0  0  0  0  0  0  0  0  0  0
  150.3814  144.7337  160.0372 H   0  0  0  0  0  0  0  0  0  0  0  0
  151.1915  146.2791  160.0810 H   0  0  0  0  0  0  0  0  0  0  0  0
  151.6719  145.0743  157.9441 H   0  0  0  0  0  0  0  0  0  0  0  0
  153.1260  145.3797  158.8565 H   0  0  0  0  0  0  0  0  0  0  0  0
  153.2389  143.1380  158.0393 H   0  0  0  0  0  0  0  0  0  0  0  0
  150.8823  142.1042  159.4092 H   0  0  0  0  0  0  0  0  0  0  0  0
  149.2612  141.1812  158.4582 H   0  0  0  0  0  0  0  0  0  0  0  0
  148.6023  142.1325  157.1695 H   0  0  0  0  0  0  0  0  0  0  0  0
  151.5730  140.6020  156.3470 H   0  0  0  0  0  0  0  0  0  0  0  0
  149.8303  137.2936  154.1818 H   0  0  0  0  0  0  0  0  0  0  0  0
  147.6745  137.9022  155.0428 H   0  0  0  0  0  0  0  0  0  0  0  0
  154.1725  143.4322  160.2255 H   0  0  0  0  0  0  0  0  0  0  0  0
  152.7351  140.7436  160.2654 H   0  0  0  0  0  0  0  0  0  0  0  0
  154.2944  141.1356  160.9832 H   0  0  0  0  0  0  0  0  0  0  0  0
  154.1200  141.1153  159.2423 H   0  0  0  0  0  0  0  0  0  0  0  0
  1  2  1  0  0  0  0
  1 23  1  0  0  0  0
  1 24  1  0  0  0  0
  1 25  1  0  0  0  0
  2 21  1  0  0  0  0
  2  3  1  0  0  0  0
  2 26  1  0  0  0  0
  3  4  1  0  0  0  0
  3 27  1  0  0  0  0
  3 28  1  0  0  0  0
  4  5  1  0  0  0  0
  4 29  1  0  0  0  0
  4 30  1  0  0  0  0
  5  6  1  0  0  0  0
  5 31  1  0  0  0  0
  5 32  1  0  0  0  0
  6  7  1  0  0  0  0
  6 21  1  0  0  0  0
  6 33  1  0  0  0  0
  7  8  1  0  0  0  0
  7 34  1  0  0  0  0
  8  9  2  0  0  0  0
  8 10  1  0  0  0  0
 10 11  1  0  0  0  0
 10 35  1  0  0  0  0
 10 36  1  0  0  0  0
 11 19  1  0  0  0  0
 11 12  1  0  0  0  0
 12 13  2  0  0  0  0
 12 37  1  0  0  0  0
 13 14  1  0  0  0  0
 13 17  1  0  0  0  0
 14 15  2  0  0  0  0
 14 16  1  0  0  0  0
 17 18  2  0  0  0  0
 17 38  1  0  0  0  0
 18 19  1  0  0  0  0
 18 39  1  0  0  0  0
 19 20  2  0  0  0  0
 21 22  1  0  0  0  0
 21 40  1  0  0  0  0
 22 41  1  0  0  0  0
 22 42  1  0  0  0  0
 22 43  1  0  0  0  0
M  CHG  1  14   1
M  CHG  1  16  -1
M  END
> <s_m_source_file>
AV-unprocessed.smi

> <i_m_source_file_index>
598

> <i_lp_mmshare_version>
43012

> <i_f3d_flags>
0

> <s_epik_input>
W0NIM11bQ0BASF0xW0NIMl1bQ0gyXVtDSDJdW0NASF0oW0NASF0xW0NIM10pW05IXUMoPU8pW0NIMl1uMltjSF1jKFtOK10oPU8pW08tXSlbY0hdW2NIXWMyPU8=

> <s_epik_cmdline>
J2VwaWtfcHl0aG9uJywgJy1waCcsICc3LjAnLCAnLXRuJywgJzgnLCAnLW1hJywgJzIwMCcsICctbWV0YWxfYmluZGluZycsICctaW1hZScsICc8aW5maWxlLm1hZT4nLCAnLW9tYWUnLCAnPG91dGZpbGUubWFlPic=

> <r_lp_tautomer_probability>
1

> <r_epik_Ionization_Penalty>
1.91291e-08

> <r_epik_Ionization_Penalty_Charging>
8.21931e-11

> <r_epik_Ionization_Penalty_Neutral>
1.90469e-08

> <r_epik_State_Penalty>
-0

> <r_epik_Charging_Adjusted_Penalty>
8.21931e-11

> <i_epik_Tot_Q>
0

> <i_epik_Tot_abs_Q>
2

> <r_epik_Metal_State_Penalty>
-0

> <b_epik_Metal_Only>
0

> <s_lp_Force_Field>
OPLS_2005

> <r_lp_Energy>
23.1067

> <b_lp_Chiralities_Consistent>
1

> <s_lp_Variant>
AV-unprocessed.smi:598-8

> <Gold.Version>
5.8.1

> <Gold.Id.Protein>
6NUR|6NUR_protein|mol2

> <Gold.PLP.Fitness>
52.1800

> <Gold.PLP.PLP>
-48.0927

> <Gold.PLP.part.hbond>
-3.0000

> <Gold.PLP.part.metal>
0.0000

> <Gold.PLP.part.buried>
-4.1281

> <Gold.PLP.part.nonpolar>
-42.6846

> <Gold.PLP.part.repulsive>
0.9271

> <Gold.PLP.ligand.clash>
0.0141

> <Gold.PLP.ligand.torsion>
0.5585

> <Gold.PLP.Chemscore.Hbond>
1.7340

> <Gold.PLP.Chemscore.CHOScore>
0.0000

> <Gold.PLP.Chemscore.Metal>
0.0000

> <Gold.Chemscore.Hbonds>
donor molecule, donor type, donor heavy atom, donor atom, acceptor molecule, acceptor atom, score
      P1  H  7997  8009       L1    15  1.00
      P1  H 10752 10765       L1    16  0.69

> <Gold.PLP.Chemscore.Internal.Correction>
0.0164

> <Gold.Rescore>
     Score         DG    S(hbond)    S(metal)    S(lipo)     H(rot)  DE(clash)    DE(int)     intcor
     19.04     -20.89       1.75        0.00     115.39       1.54       0.04       1.81       ----

> <Gold.Chemscore.Fitness>
19.0446

> <Gold.Chemscore.DG>
-20.8912

> <Gold.Chemscore.ZeroCoef>
-5.4800

> <Gold.Chemscore.Hbond>
1.7519

> <Gold.Chemscore.Metal>
0.0000

> <Gold.Chemscore.Lipo>
115.3894

> <Gold.Chemscore.Internal_Hbond>
0.0000

> <Gold.Chemscore.DEClash>
0.0382

> <Gold.Chemscore.DEInternal>
1.8083

> <Gold.Chemscore.Rot>
1.5393

> <Gold.Chemscore.Internal.Correction>
   9.000000E+99

> <Gold.Chemscore.Hbonds>
donor molecule, donor type, donor heavy atom, donor atom, acceptor molecule, acceptor atom, score
      P1  H  7997  8009       L1    15  1.00
      P1  H 10752 10765       L1    16  0.68

> <Gold.Chemscore.Hbond.Weighted>
-5.8513

> <Gold.Chemscore.Metal.Weighted>
-0.0000

> <Gold.Chemscore.Lipo.Weighted>
-13.5006

> <Gold.Chemscore.Internal_Hbond.Weighted>
0.0000

> <Gold.Chemscore.DEClash.Weighted>
0.0382

> <Gold.Chemscore.DEInternal.Weighted>
1.8083

> <Gold.Chemscore.Rot.Weighted>
3.9407

> <Gold.Chemscore.Internal.Correction.Weighted>
   9.000000E+99

> <Gold.Protein.RotatedTorsions>
[ 6907 6896 6895 6894 ] final  106.25 input  -60.11 | X-H torsion
[ 7974 7965 7964 7962 ] final  -65.29 input  175.53 | X-H torsion
[ 8008 7997 7996 7995 ] final -121.00 input   59.86 | X-H torsion
[ 10167 10162 10161 10158 ] final   62.65 input  -65.29 | X-H torsion
[ 10718 10713 10712 10709 ] final   38.56 input   66.30 | X-H torsion
[ 10763 10752 10751 10750 ] final  137.18 input  -60.55 | X-H torsion
[ 11005 11000 10999 10996 ] final  -85.88 input  -57.11 | X-H torsion

> <Gold.Protein.ActiveResidues>
 VAL166  LYS551  ARG553  GLY616  TRP617  ASP618  TYR619  PRO620  LYS621  CYS622 
 ASP623  PHE694  ASN695  SER759  ASP760  ASP761  ALA762  ILE779  LEU786  VAL792 
 PHE793  MET794  SER795  GLU796  ALA797  LYS798  CYS799  TRP800  GLU811  SER814 

> <Gold.Protein.RotatedAtoms>
  152.5201  133.9409  159.7625 H   0  0  0  0  0  0  0  0  0  0  0  0  # atno 6907 bound_to 6896
  150.9739  133.6307  159.2740 H   0  0  0  0  0  0  0  0  0  0  0  0  # atno 6908 bound_to 6896
  151.3508  135.0889  159.9455 H   0  0  0  0  0  0  0  0  0  0  0  0  # atno 6909 bound_to 6896
  145.7561  140.8884  143.0454 H   0  0  0  0  0  0  0  0  0  0  0  0  # atno 7974 bound_to 7965
  155.1409  140.0402  157.2798 H   0  0  0  0  0  0  0  0  0  0  0  0  # atno 8008 bound_to 7997
  154.6474  140.2561  155.7226 H   0  0  0  0  0  0  0  0  0  0  0  0  # atno 8009 bound_to 7997
  156.2561  140.2843  156.0893 H   0  0  0  0  0  0  0  0  0  0  0  0  # atno 8010 bound_to 7997
  140.1416  144.4548  150.6808 H   0  0  0  0  0  0  0  0  0  0  0  0  # atno 10167 bound_to 10162
  157.3603  130.7646  149.7042 H   0  0  0  0  0  0  0  0  0  0  0  0  # atno 10718 bound_to 10713
  153.8687  135.3058  155.3441 H   0  0  0  0  0  0  0  0  0  0  0  0  # atno 10763 bound_to 10752
  154.7815  135.4832  153.9859 H   0  0  0  0  0  0  0  0  0  0  0  0  # atno 10764 bound_to 10752
  153.1419  135.6826  153.9110 H   0  0  0  0  0  0  0  0  0  0  0  0  # atno 10765 bound_to 10752
  141.1636  133.7423  156.9079 H   0  0  0  0  0  0  0  0  0  0  0  0  # atno 11005 bound_to 11000
  144.6840  139.9659  143.7481 LP  0  0  0  0  0  0  0  0  0  0  0  0  # atno 17320 bound_to 7965
  146.0309  139.3334  143.0756 LP  0  0  0  0  0  0  0  0  0  0  0  0  # atno 17321 bound_to 7965
  140.6757  143.2304  151.5513 LP  0  0  0  0  0  0  0  0  0  0  0  0  # atno 17342 bound_to 10162
  139.5469  144.2497  152.1459 LP  0  0  0  0  0  0  0  0  0  0  0  0  # atno 17343 bound_to 10162
  155.9736  130.4116  150.3988 LP  0  0  0  0  0  0  0  0  0  0  0  0  # atno 17370 bound_to 10713
  157.2064  131.0450  151.2623 LP  0  0  0  0  0  0  0  0  0  0  0  0  # atno 17371 bound_to 10713
  140.1537  134.9213  157.2625 LP  0  0  0  0  0  0  0  0  0  0  0  0  # atno 17394 bound_to 11000
  140.2693  134.3479  155.7379 LP  0  0  0  0  0  0  0  0  0  0  0  0  # atno 17395 bound_to 11000

$$$$
