AV-unprocessed.smi:338|AV-procd|sdf|2377|dock4
  -GOLD-   2262022303D 1   1.00000     0.00000
 Structure written by MMmdl.
 42 44  0  0  0  0  0  0  0  0  2 V2000
  154.8108  139.3543  161.9448 C   0  0  0  0  0  0  0  0  0  0  0  0
  153.9272  139.2763  160.7010 C   0  0  0  0  0  0  0  0  0  0  0  0
  153.7460  138.1789  160.1743 O   0  0  0  0  0  0  0  0  0  0  0  0
  153.3267  140.5433  160.1931 C   0  0  0  0  0  0  0  0  0  0  0  0
  153.5519  141.7818  160.8379 C   0  0  0  0  0  0  0  0  0  0  0  0
  152.9735  142.9607  160.3335 C   0  0  0  0  0  0  0  0  0  0  0  0
  152.1661  142.9148  159.1829 C   0  0  0  0  0  0  0  0  0  0  0  0
  151.9263  141.6945  158.5218 C   0  0  0  0  0  0  0  0  0  0  0  0
  151.1236  141.7402  157.4020 O   0  0  0  0  0  0  0  0  0  0  0  0
  151.2385  140.6951  156.4452 C   0  0  0  0  0  0  0  0  0  0  0  0
  150.2020  140.9252  155.3363 C   0  0  1  0  0  0  0  0  0  0  0  0
  150.5351  140.1140  154.2271 O   0  0  0  0  0  0  0  0  0  0  0  0
  148.7658  140.6066  155.7977 C   0  0  0  0  0  0  0  0  0  0  0  0
  147.7447  141.1758  154.9096 N   0  0  0  0  0  0  0  0  0  0  0  0
  147.5379  140.9872  153.5781 C   0  0  0  0  0  0  0  0  0  0  0  0
  146.4637  141.7436  153.2183 N   0  3  0  0  0  0  0  0  0  0  0  0
  145.9776  142.4252  154.3365 C   0  0  0  0  0  0  0  0  0  0  0  0
  144.9116  143.3088  154.4750 C   0  0  0  0  0  0  0  0  0  0  0  0
  144.6856  143.8304  155.7659 C   0  0  0  0  0  0  0  0  0  0  0  0
  145.5026  143.4707  156.8578 C   0  0  0  0  0  0  0  0  0  0  0  0
  146.5807  142.5737  156.7063 C   0  0  0  0  0  0  0  0  0  0  0  0
  146.7964  142.0635  155.4269 C   0  0  0  0  0  0  0  0  0  0  0  0
  152.5139  140.5106  159.0355 C   0  0  0  0  0  0  0  0  0  0  0  0
  155.6821  139.9817  161.7560 H   0  0  0  0  0  0  0  0  0  0  0  0
  155.1613  138.3610  162.2268 H   0  0  0  0  0  0  0  0  0  0  0  0
  154.2534  139.7690  162.7848 H   0  0  0  0  0  0  0  0  0  0  0  0
  154.1671  141.8527  161.7224 H   0  0  0  0  0  0  0  0  0  0  0  0
  153.1498  143.9032  160.8307 H   0  0  0  0  0  0  0  0  0  0  0  0
  151.7258  143.8255  158.8040 H   0  0  0  0  0  0  0  0  0  0  0  0
  152.2421  140.7070  156.0163 H   0  0  0  0  0  0  0  0  0  0  0  0
  151.0792  139.7214  156.9119 H   0  0  0  0  0  0  0  0  0  0  0  0
  150.2623  141.9638  155.0094 H   0  0  0  0  0  0  0  0  0  0  0  0
  150.4938  139.2083  154.4948 H   0  0  0  0  0  0  0  0  0  0  0  0
  148.6080  139.5276  155.8305 H   0  0  0  0  0  0  0  0  0  0  0  0
  148.5855  140.9766  156.8079 H   0  0  0  0  0  0  0  0  0  0  0  0
  148.1227  140.3552  152.9252 H   0  0  0  0  0  0  0  0  0  0  0  0
  144.2845  143.5867  153.6406 H   0  0  0  0  0  0  0  0  0  0  0  0
  143.8693  144.5209  155.9217 H   0  0  0  0  0  0  0  0  0  0  0  0
  145.2988  143.8914  157.8318 H   0  0  0  0  0  0  0  0  0  0  0  0
  147.2024  142.3039  157.5472 H   0  0  0  0  0  0  0  0  0  0  0  0
  152.3471  139.5627  158.5470 H   0  0  0  0  0  0  0  0  0  0  0  0
  146.0930  141.7901  152.2779 H   0  0  0  0  0  0  0  0  0  0  0  0
  1  2  1  0  0  0  0
  1 24  1  0  0  0  0
  1 25  1  0  0  0  0
  1 26  1  0  0  0  0
  2  3  2  0  0  0  0
  2  4  1  0  0  0  0
  4 23  1  0  0  0  0
  4  5  2  0  0  0  0
  5  6  1  0  0  0  0
  5 27  1  0  0  0  0
  6  7  2  0  0  0  0
  6 28  1  0  0  0  0
  7  8  1  0  0  0  0
  7 29  1  0  0  0  0
  8  9  1  0  0  0  0
  8 23  2  0  0  0  0
  9 10  1  0  0  0  0
 10 11  1  0  0  0  0
 10 30  1  0  0  0  0
 10 31  1  0  0  0  0
 11 12  1  0  0  0  0
 11 13  1  0  0  0  0
 11 32  1  0  0  0  0
 12 33  1  0  0  0  0
 13 14  1  0  0  0  0
 13 34  1  0  0  0  0
 13 35  1  0  0  0  0
 14 22  1  0  0  0  0
 14 15  1  0  0  0  0
 15 16  2  0  0  0  0
 15 36  1  0  0  0  0
 16 17  1  0  0  0  0
 16 42  1  0  0  0  0
 17 22  2  0  0  0  0
 17 18  1  0  0  0  0
 18 19  2  0  0  0  0
 18 37  1  0  0  0  0
 19 20  1  0  0  0  0
 19 38  1  0  0  0  0
 20 21  2  0  0  0  0
 20 39  1  0  0  0  0
 21 22  1  0  0  0  0
 21 40  1  0  0  0  0
 23 41  1  0  0  0  0
M  CHG  1  16   1
M  END
> <s_m_source_file>
AV-unprocessed.smi

> <i_m_source_file_index>
338

> <i_lp_mmshare_version>
43012

> <i_f3d_flags>
0

> <s_epik_input>
W0NIM11DKD1PKWMxW2NIXVtjSF1bY0hdYyhbY0hdMSlPW0NIMl1bQ0BIXShbT0hdKVtDSDJdbihbY0hdbjIpYyhjMjMpW2NIXVtjSF1bY0hdW2NIXTM=

> <s_epik_cmdline>
J2VwaWtfcHl0aG9uJywgJy1waCcsICc3LjAnLCAnLXRuJywgJzgnLCAnLW1hJywgJzIwMCcsICctbWV0YWxfYmluZGluZycsICctaW1hZScsICc8aW5maWxlLm1hZT4nLCAnLW9tYWUnLCAnPG91dGZpbGUubWFlPic=

> <r_lp_tautomer_probability>
0.99995

> <r_epik_Ionization_Penalty>
1.35015

> <r_epik_Ionization_Penalty_Charging>
1.35015

> <r_epik_Ionization_Penalty_Neutral>
2.3993e-06

> <r_epik_State_Penalty>
1.42814

> <r_epik_Charging_Adjusted_Penalty>
2.77829

> <i_epik_Tot_Q>
1

> <i_epik_Tot_abs_Q>
1

> <r_epik_Metal_State_Penalty>
5.46522

> <b_epik_Metal_Only>
0

> <s_lp_Force_Field>
OPLS_2005

> <r_lp_Energy>
25.8652

> <b_lp_Chiralities_Consistent>
1

> <s_lp_Variant>
AV-unprocessed.smi:338-4

> <Gold.Version>
5.8.1

> <Gold.Id.Protein>
6NUR|6NUR_protein|mol2

> <Gold.PLP.Fitness>
48.9784

> <Gold.PLP.PLP>
-43.9804

> <Gold.PLP.part.hbond>
-2.2111

> <Gold.PLP.part.metal>
0.0000

> <Gold.PLP.part.buried>
-5.0523

> <Gold.PLP.part.nonpolar>
-37.3875

> <Gold.PLP.part.repulsive>
0.1247

> <Gold.PLP.ligand.clash>
0.0000

> <Gold.PLP.ligand.torsion>
0.5550

> <Gold.PLP.Chemscore.Hbond>
1.0000

> <Gold.PLP.Chemscore.CHOScore>
1.0000

> <Gold.PLP.Chemscore.Metal>
0.0000

> <Gold.Chemscore.Hbonds>
donor molecule, donor type, donor heavy atom, donor atom, acceptor molecule, acceptor atom, score
      P1  H  7989  7998       L1    12  0.96
      L1  C    15    36       P1  7957  1.00

> <Gold.PLP.Chemscore.Internal.Correction>
0.1079

> <Gold.Rescore>
     Score         DG    S(hbond)    S(metal)    S(lipo)     H(rot)  DE(clash)    DE(int)     intcor
     14.53     -14.95       0.94        0.00     108.57       2.48       0.05       0.36       ----

> <Gold.Chemscore.Fitness>
14.5348

> <Gold.Chemscore.DG>
-14.9473

> <Gold.Chemscore.ZeroCoef>
-5.4800

> <Gold.Chemscore.Hbond>
0.9355

> <Gold.Chemscore.Metal>
0.0000

> <Gold.Chemscore.Lipo>
108.5653

> <Gold.Chemscore.Internal_Hbond>
0.0000

> <Gold.Chemscore.DEClash>
0.0480

> <Gold.Chemscore.DEInternal>
0.3644

> <Gold.Chemscore.Rot>
2.4842

> <Gold.Chemscore.Internal.Correction>
   9.000000E+99

> <Gold.Chemscore.Hbonds>
donor molecule, donor type, donor heavy atom, donor atom, acceptor molecule, acceptor atom, score
      P1  H  7989  7998       L1    12  0.50

> <Gold.Chemscore.Hbond.Weighted>
-3.1246

> <Gold.Chemscore.Metal.Weighted>
-0.0000

> <Gold.Chemscore.Lipo.Weighted>
-12.7021

> <Gold.Chemscore.Internal_Hbond.Weighted>
0.0000

> <Gold.Chemscore.DEClash.Weighted>
0.0480

> <Gold.Chemscore.DEInternal.Weighted>
0.3644

> <Gold.Chemscore.Rot.Weighted>
6.3594

> <Gold.Chemscore.Internal.Correction.Weighted>
   9.000000E+99

> <Gold.Protein.RotatedTorsions>
[ 6907 6896 6895 6894 ] final  -31.55 input  -60.11 | X-H torsion
[ 7974 7965 7964 7962 ] final  132.68 input  175.53 | X-H torsion
[ 8008 7997 7996 7995 ] final  152.80 input   59.86 | X-H torsion
[ 10167 10162 10161 10158 ] final   62.92 input  -65.29 | X-H torsion
[ 10718 10713 10712 10709 ] final  179.48 input   66.30 | X-H torsion
[ 10763 10752 10751 10750 ] final -102.69 input  -60.55 | X-H torsion
[ 11005 11000 10999 10996 ] final  120.27 input  -57.11 | X-H torsion

> <Gold.Protein.ActiveResidues>
 VAL166  LYS551  ARG553  GLY616  TRP617  ASP618  TYR619  PRO620  LYS621  CYS622 
 ASP623  PHE694  ASN695  SER759  ASP760  ASP761  ALA762  ILE779  LEU786  VAL792 
 PHE793  MET794  SER795  GLU796  ALA797  LYS798  CYS799  TRP800  GLU811  SER814 

> <Gold.Protein.RotatedAtoms>
  151.0906  134.9913  159.8400 H   0  0  0  0  0  0  0  0  0  0  0  0  # atno 6907 bound_to 6896
  152.5428  134.2071  159.8745 H   0  0  0  0  0  0  0  0  0  0  0  0  # atno 6908 bound_to 6896
  151.2107  133.4514  159.2631 H   0  0  0  0  0  0  0  0  0  0  0  0  # atno 6909 bound_to 6896
  144.9943  139.4375  143.5324 H   0  0  0  0  0  0  0  0  0  0  0  0  # atno 7974 bound_to 7965
  156.2612  140.2011  156.6390 H   0  0  0  0  0  0  0  0  0  0  0  0  # atno 8008 bound_to 7997
  154.6624  140.0559  157.0101 H   0  0  0  0  0  0  0  0  0  0  0  0  # atno 8009 bound_to 7997
  155.1257  140.3229  155.4489 H   0  0  0  0  0  0  0  0  0  0  0  0  # atno 8010 bound_to 7997
  140.1386  144.4575  150.6823 H   0  0  0  0  0  0  0  0  0  0  0  0  # atno 10167 bound_to 10162
  156.8752  130.9797  151.3068 H   0  0  0  0  0  0  0  0  0  0  0  0  # atno 10718 bound_to 10713
  154.7753  135.4851  153.9731 H   0  0  0  0  0  0  0  0  0  0  0  0  # atno 10763 bound_to 10752
  153.1420  135.6774  153.9020 H   0  0  0  0  0  0  0  0  0  0  0  0  # atno 10764 bound_to 10752
  153.8691  135.3146  155.3419 H   0  0  0  0  0  0  0  0  0  0  0  0  # atno 10765 bound_to 10752
  139.9178  134.9633  156.7781 H   0  0  0  0  0  0  0  0  0  0  0  0  # atno 11005 bound_to 11000
  146.3438  139.9293  142.8756 LP  0  0  0  0  0  0  0  0  0  0  0  0  # atno 17320 bound_to 7965
  145.2242  140.9947  143.4028 LP  0  0  0  0  0  0  0  0  0  0  0  0  # atno 17321 bound_to 7965
  140.6774  143.2311  151.5472 LP  0  0  0  0  0  0  0  0  0  0  0  0  # atno 17342 bound_to 10162
  139.5483  144.2462  152.1484 LP  0  0  0  0  0  0  0  0  0  0  0  0  # atno 17343 bound_to 10162
  157.6172  130.8628  149.9049 LP  0  0  0  0  0  0  0  0  0  0  0  0  # atno 17370 bound_to 10713
  156.0706  130.3686  150.0785 LP  0  0  0  0  0  0  0  0  0  0  0  0  # atno 17371 bound_to 10713
  140.6566  133.9683  155.7783 LP  0  0  0  0  0  0  0  0  0  0  0  0  # atno 17394 bound_to 11000
  141.0672  134.0260  157.3578 LP  0  0  0  0  0  0  0  0  0  0  0  0  # atno 17395 bound_to 11000

$$$$
