AV-unprocessed.smi:112|AV-procd|sdf|1084|dock6
  -GOLD-   2262018173D 1   1.00000     0.00000
 Structure written by MMmdl.
 54 57  0  0  0  0  0  0  0  0  3 V2000
  146.7918  140.5528  153.8444 C   0  0  0  0  0  0  0  0  0  0  0  0
  147.8224  139.5675  154.3726 C   0  0  0  0  0  0  0  0  0  0  0  0
  147.4726  138.3607  154.8728 C   0  0  0  0  0  0  0  0  0  0  0  0
  148.3791  137.4411  155.3647 N   0  0  0  0  0  0  0  0  0  0  0  0
  147.9022  136.0913  155.8527 C   0  0  1  0  0  0  0  0  0  0  0  0
  146.4177  136.0754  156.1959 C   0  0  0  0  0  0  0  0  0  0  0  0
  146.1332  134.6009  156.0108 C   0  0  1  0  0  0  0  0  0  0  0  0
  144.7517  134.3536  155.8402 O   0  0  0  0  0  0  0  0  0  0  0  0
  147.0268  134.2114  154.8121 C   0  0  1  0  0  0  0  0  0  0  0  0
  146.3530  134.3170  153.4280 C   0  0  0  0  0  0  0  0  0  0  0  0
  147.2739  133.9643  152.4180 O   0  0  0  0  0  0  0  0  0  0  0  0
  148.1010  135.1585  154.8375 O   0  0  0  0  0  0  0  0  0  0  0  0
  149.7595  137.7297  155.3127 C   0  0  0  0  0  0  0  0  0  0  0  0
  150.5968  136.9242  155.7254 O   0  0  0  0  0  0  0  0  0  0  0  0
  150.1601  138.9808  154.7895 N   0  0  0  0  0  0  0  0  0  0  0  0
  151.6047  139.3065  154.7580 C   0  0  0  0  0  0  0  0  0  0  0  0
  152.2173  139.5579  156.1535 C   0  0  0  0  0  0  0  0  0  0  0  0
  152.9937  138.7240  156.6212 O   0  0  0  0  0  0  0  0  0  0  0  0
  151.8684  140.6962  156.8035 N   0  0  0  0  0  0  0  0  0  0  0  0
  150.9667  141.7132  156.2350 C   0  0  0  0  0  0  0  0  0  0  0  0
  150.8547  142.8333  157.2925 C   0  0  0  0  0  0  0  0  0  0  0  0
  151.7215  142.3332  158.4098 C   0  0  0  0  0  0  0  0  0  0  0  0
  151.9649  142.9766  159.6350 C   0  0  0  0  0  0  0  0  0  0  0  0
  152.8129  142.3494  160.5811 C   0  0  0  0  0  0  0  0  0  0  0  0
  153.0908  142.9954  161.8792 N   0  3  0  0  0  0  0  0  0  0  0  0
  152.5412  144.0639  162.1268 O   0  0  0  0  0  0  0  0  0  0  0  0
  153.8597  142.4353  162.6539 O   0  5  0  0  0  0  0  0  0  0  0  0
  153.3903  141.0913  160.2631 C   0  0  0  0  0  0  0  0  0  0  0  0
  153.1357  140.4596  159.0261 C   0  0  0  0  0  0  0  0  0  0  0  0
  152.2888  141.1033  158.0977 C   0  0  0  0  0  0  0  0  0  0  0  0
  149.2359  139.9463  154.3191 C   0  0  0  0  0  0  0  0  0  0  0  0
  149.6263  141.0364  153.8962 O   0  0  0  0  0  0  0  0  0  0  0  0
  145.7765  140.1659  153.9377 H   0  0  0  0  0  0  0  0  0  0  0  0
  146.9724  140.7656  152.7902 H   0  0  0  0  0  0  0  0  0  0  0  0
  146.8422  141.4916  154.3971 H   0  0  0  0  0  0  0  0  0  0  0  0
  146.4254  138.0999  154.8817 H   0  0  0  0  0  0  0  0  0  0  0  0
  148.5110  135.7911  156.7053 H   0  0  0  0  0  0  0  0  0  0  0  0
  146.2403  136.4420  157.2073 H   0  0  0  0  0  0  0  0  0  0  0  0
  145.8471  136.6759  155.4874 H   0  0  0  0  0  0  0  0  0  0  0  0
  146.4733  134.0618  156.8965 H   0  0  0  0  0  0  0  0  0  0  0  0
  144.5847  133.4413  156.0222 H   0  0  0  0  0  0  0  0  0  0  0  0
  147.4098  133.2008  154.9612 H   0  0  0  0  0  0  0  0  0  0  0  0
  145.5213  133.6180  153.3439 H   0  0  0  0  0  0  0  0  0  0  0  0
  145.9543  135.3141  153.2453 H   0  0  0  0  0  0  0  0  0  0  0  0
  147.9439  134.6295  152.3768 H   0  0  0  0  0  0  0  0  0  0  0  0
  152.1602  138.5096  154.2618 H   0  0  0  0  0  0  0  0  0  0  0  0
  151.7834  140.1832  154.1340 H   0  0  0  0  0  0  0  0  0  0  0  0
  151.3706  142.1130  155.3039 H   0  0  0  0  0  0  0  0  0  0  0  0
  149.9840  141.2872  156.0281 H   0  0  0  0  0  0  0  0  0  0  0  0
  151.2297  143.7854  156.9162 H   0  0  0  0  0  0  0  0  0  0  0  0
  149.8285  142.9674  157.6359 H   0  0  0  0  0  0  0  0  0  0  0  0
  151.5052  143.9325  159.8386 H   0  0  0  0  0  0  0  0  0  0  0  0
  154.0382  140.5944  160.9700 H   0  0  0  0  0  0  0  0  0  0  0  0
  153.5926  139.5035  158.8257 H   0  0  0  0  0  0  0  0  0  0  0  0
  1  2  1  0  0  0  0
  1 33  1  0  0  0  0
  1 34  1  0  0  0  0
  1 35  1  0  0  0  0
  2 31  1  0  0  0  0
  2  3  2  0  0  0  0
  3  4  1  0  0  0  0
  3 36  1  0  0  0  0
  4  5  1  0  0  0  0
  4 13  1  0  0  0  0
  5 12  1  0  0  0  0
  5  6  1  0  0  0  0
  5 37  1  0  0  0  0
  6  7  1  0  0  0  0
  6 38  1  0  0  0  0
  6 39  1  0  0  0  0
  7  8  1  0  0  0  0
  7  9  1  0  0  0  0
  7 40  1  0  0  0  0
  8 41  1  0  0  0  0
  9 10  1  0  0  0  0
  9 12  1  0  0  0  0
  9 42  1  0  0  0  0
 10 11  1  0  0  0  0
 10 43  1  0  0  0  0
 10 44  1  0  0  0  0
 11 45  1  0  0  0  0
 13 14  2  0  0  0  0
 13 15  1  0  0  0  0
 15 16  1  0  0  0  0
 15 31  1  0  0  0  0
 16 17  1  0  0  0  0
 16 46  1  0  0  0  0
 16 47  1  0  0  0  0
 17 18  2  0  0  0  0
 17 19  1  0  0  0  0
 19 30  1  0  0  0  0
 19 20  1  0  0  0  0
 20 21  1  0  0  0  0
 20 48  1  0  0  0  0
 20 49  1  0  0  0  0
 21 22  1  0  0  0  0
 21 50  1  0  0  0  0
 21 51  1  0  0  0  0
 22 30  2  0  0  0  0
 22 23  1  0  0  0  0
 23 24  2  0  0  0  0
 23 52  1  0  0  0  0
 24 25  1  0  0  0  0
 24 28  1  0  0  0  0
 25 26  2  0  0  0  0
 25 27  1  0  0  0  0
 28 29  2  0  0  0  0
 28 53  1  0  0  0  0
 29 30  1  0  0  0  0
 29 54  1  0  0  0  0
 31 32  2  0  0  0  0
M  CHG  1  25   1
M  CHG  1  27  -1
M  END
> <s_m_source_file>
AV-unprocessed.smi

> <i_m_source_file_index>
112

> <i_lp_mmshare_version>
43012

> <i_f3d_flags>
0

> <s_epik_input>
W09IXVtDSDJdW0NAQEhdKE8xKVtDQEhdKFtPSF0pW0NIMl1bQ0BIXTFuKFtjSF1jMltDSDNdKWMoPU8pbihjMj1PKVtDSDJdQyg9TylOKFtDSDJdW0NIMl0zKWMoYzM0KVtjSF1bY0hdYyhbY0hdNClbTitdKD1PKVtPLV0=

> <s_epik_cmdline>
J2VwaWtfcHl0aG9uJywgJy1waCcsICc3LjAnLCAnLXRuJywgJzgnLCAnLW1hJywgJzIwMCcsICctbWV0YWxfYmluZGluZycsICctaW1hZScsICc8aW5maWxlLm1hZT4nLCAnLW9tYWUnLCAnPG91dGZpbGUubWFlPic=

> <r_lp_tautomer_probability>
1

> <r_epik_Ionization_Penalty>
2.5696e-07

> <r_epik_Ionization_Penalty_Charging>
1.04886e-08

> <r_epik_Ionization_Penalty_Neutral>
2.46472e-07

> <r_epik_State_Penalty>
-0

> <r_epik_Charging_Adjusted_Penalty>
1.04886e-08

> <i_epik_Tot_Q>
0

> <i_epik_Tot_abs_Q>
2

> <r_epik_Metal_State_Penalty>
-0

> <b_epik_Metal_Only>
0

> <s_epik_Chemistry_Notes>
This compound contains an acetal/aminal-like group ( X-CH(R)-Y where X, Y are N, S, or O) that may be acid/base labile, releasing an aldehyde.

> <s_lp_Force_Field>
OPLS_2005

> <r_lp_Energy>
61.1797

> <b_lp_Chiralities_Consistent>
1

> <s_lp_Variant>
AV-unprocessed.smi:112-2

> <Gold.Version>
5.8.1

> <Gold.Id.Protein>
6NUR|6NUR_protein|mol2

> <Gold.PLP.Fitness>
53.7405

> <Gold.PLP.PLP>
-46.8781

> <Gold.PLP.part.hbond>
-4.6865

> <Gold.PLP.part.metal>
0.0000

> <Gold.PLP.part.buried>
-3.2899

> <Gold.PLP.part.nonpolar>
-37.5863

> <Gold.PLP.part.repulsive>
1.8107

> <Gold.PLP.ligand.clash>
0.0000

> <Gold.PLP.ligand.torsion>
0.7318

> <Gold.PLP.Chemscore.Hbond>
2.7637

> <Gold.PLP.Chemscore.CHOScore>
0.0000

> <Gold.PLP.Chemscore.Metal>
0.0000

> <Gold.Chemscore.Hbonds>
donor molecule, donor type, donor heavy atom, donor atom, acceptor molecule, acceptor atom, score
      L1  H    11    45       P1  7948  1.00
      P1  H  7989  7998       L1    32  0.38
      P1  H  7997  8010       L1    18  0.64
      P1  H  8011  8017       L1    32  0.77

> <Gold.PLP.Chemscore.Internal.Correction>
0.0349

> <Gold.Rescore>
     Score         DG    S(hbond)    S(metal)    S(lipo)     H(rot)  DE(clash)    DE(int)     intcor
      8.90     -14.18       1.87        0.00      93.08       3.29       1.83       3.45       ----

> <Gold.Chemscore.Fitness>
8.8950

> <Gold.Chemscore.DG>
-14.1758

> <Gold.Chemscore.ZeroCoef>
-5.4800

> <Gold.Chemscore.Hbond>
1.8660

> <Gold.Chemscore.Metal>
0.0000

> <Gold.Chemscore.Lipo>
93.0764

> <Gold.Chemscore.Internal_Hbond>
0.0000

> <Gold.Chemscore.DEClash>
1.8266

> <Gold.Chemscore.DEInternal>
3.4542

> <Gold.Chemscore.Rot>
3.2916

> <Gold.Chemscore.Internal.Correction>
   9.000000E+99

> <Gold.Chemscore.Hbonds>
donor molecule, donor type, donor heavy atom, donor atom, acceptor molecule, acceptor atom, score
      L1  H    11    45       P1  7948  0.50
      P1  H  7989  7998       L1    32  0.25
      P1  H  7997  8010       L1    18  0.05
      P1  H  8011  8017       L1    32  0.74

> <Gold.Chemscore.Hbond.Weighted>
-6.2324

> <Gold.Chemscore.Metal.Weighted>
-0.0000

> <Gold.Chemscore.Lipo.Weighted>
-10.8899

> <Gold.Chemscore.Internal_Hbond.Weighted>
0.0000

> <Gold.Chemscore.DEClash.Weighted>
1.8266

> <Gold.Chemscore.DEInternal.Weighted>
3.4542

> <Gold.Chemscore.Rot.Weighted>
8.4265

> <Gold.Chemscore.Internal.Correction.Weighted>
   9.000000E+99

> <Gold.Protein.RotatedTorsions>
[ 6907 6896 6895 6894 ] final  133.64 input  -60.11 | X-H torsion
[ 7974 7965 7964 7962 ] final   85.66 input  175.53 | X-H torsion
[ 8008 7997 7996 7995 ] final   48.43 input   59.86 | X-H torsion
[ 10167 10162 10161 10158 ] final  -77.19 input  -65.29 | X-H torsion
[ 10718 10713 10712 10709 ] final   -6.74 input   66.30 | X-H torsion
[ 10763 10752 10751 10750 ] final   51.73 input  -60.55 | X-H torsion
[ 11005 11000 10999 10996 ] final    7.46 input  -57.11 | X-H torsion

> <Gold.Protein.ActiveResidues>
 VAL166  LYS551  ARG553  GLY616  TRP617  ASP618  TYR619  PRO620  LYS621  CYS622 
 ASP623  PHE694  ASN695  SER759  ASP760  ASP761  ALA762  ILE779  LEU786  VAL792 
 PHE793  MET794  SER795  GLU796  ALA797  LYS798  CYS799  TRP800  GLU811  SER814 

> <Gold.Protein.RotatedAtoms>
  152.3198  133.5841  159.5736 H   0  0  0  0  0  0  0  0  0  0  0  0  # atno 6907 bound_to 6896
  150.7365  134.0028  159.3652 H   0  0  0  0  0  0  0  0  0  0  0  0  # atno 6908 bound_to 6896
  151.7913  135.0735  160.0438 H   0  0  0  0  0  0  0  0  0  0  0  0  # atno 6909 bound_to 6896
  145.5825  139.2327  143.2344 H   0  0  0  0  0  0  0  0  0  0  0  0  # atno 7974 bound_to 7965
  155.3855  140.3431  155.4249 H   0  0  0  0  0  0  0  0  0  0  0  0  # atno 8008 bound_to 7997
  156.1587  140.1593  156.8683 H   0  0  0  0  0  0  0  0  0  0  0  0  # atno 8009 bound_to 7997
  154.5119  140.0788  156.7987 H   0  0  0  0  0  0  0  0  0  0  0  0  # atno 8010 bound_to 7997
  140.4792  143.2406  151.8085 H   0  0  0  0  0  0  0  0  0  0  0  0  # atno 10167 bound_to 10162
  156.7275  130.5170  149.5853 H   0  0  0  0  0  0  0  0  0  0  0  0  # atno 10718 bound_to 10713
  152.9786  135.5836  154.4463 H   0  0  0  0  0  0  0  0  0  0  0  0  # atno 10763 bound_to 10752
  154.4058  135.2769  155.2070 H   0  0  0  0  0  0  0  0  0  0  0  0  # atno 10764 bound_to 10752
  154.3881  135.6131  153.5882 H   0  0  0  0  0  0  0  0  0  0  0  0  # atno 10765 bound_to 10752
  140.5480  134.0310  155.7927 H   0  0  0  0  0  0  0  0  0  0  0  0  # atno 11005 bound_to 11000
  146.1705  140.6652  142.9235 LP  0  0  0  0  0  0  0  0  0  0  0  0  # atno 17320 bound_to 7965
  144.7387  140.4882  143.6885 LP  0  0  0  0  0  0  0  0  0  0  0  0  # atno 17321 bound_to 7965
  139.4830  144.4794  151.9325 LP  0  0  0  0  0  0  0  0  0  0  0  0  # atno 17342 bound_to 10162
  140.3879  144.2652  150.5902 LP  0  0  0  0  0  0  0  0  0  0  0  0  # atno 17343 bound_to 10162
  156.1552  130.6337  151.0647 LP  0  0  0  0  0  0  0  0  0  0  0  0  # atno 17370 bound_to 10713
  157.6873  131.0821  150.7208 LP  0  0  0  0  0  0  0  0  0  0  0  0  # atno 17371 bound_to 10713
  141.1188  133.9495  157.2770 LP  0  0  0  0  0  0  0  0  0  0  0  0  # atno 17394 bound_to 11000
  139.9469  135.0182  156.8880 LP  0  0  0  0  0  0  0  0  0  0  0  0  # atno 17395 bound_to 11000

$$$$
