AV-unprocessed.smi:2753|AV-procd|sdf|10609|dock3
  -GOLD-   2272015 63D 1   1.00000     0.00000
 Structure written by MMmdl.
 28 29  0  0  0  0  0  0  0  0  2 V2000
  152.1444  144.3716  157.8359 F   0  0  0  0  0  0  0  0  0  0  0  0
  151.5645  143.3996  158.5386 C   0  0  0  0  0  0  0  0  0  0  0  0
  152.3952  143.0658  159.5269 F   0  0  0  0  0  0  0  0  0  0  0  0
  150.4618  143.9028  159.0918 F   0  0  0  0  0  0  0  0  0  0  0  0
  151.2379  142.2254  157.6625 C   0  0  0  0  0  0  0  0  0  0  0  0
  151.6351  140.9150  157.8079 C   0  0  0  0  0  0  0  0  0  0  0  0
  151.0677  140.2348  156.7450 N   0  0  0  0  0  0  0  0  0  0  0  0
  150.3718  141.1165  156.0169 C   0  0  0  0  0  0  0  0  0  0  0  0
  149.6234  140.7272  154.7794 C   0  0  2  0  0  0  0  0  0  0  0  0
  148.1467  141.1636  154.8368 C   0  0  0  0  0  0  0  0  0  0  0  0
  147.4067  140.7331  153.5609 C   0  0  0  0  0  0  0  0  0  0  0  0
  147.5682  139.2238  153.3142 C   0  0  0  0  0  0  0  0  0  0  0  0
  148.9993  138.8534  153.2597 N   0  3  0  0  0  0  0  0  0  0  0  0
  149.7382  139.2165  154.4891 C   0  0  0  0  0  0  0  0  0  0  0  0
  150.4350  142.3446  156.5240 N   0  0  0  0  0  0  0  0  0  0  0  0
  151.1643  139.2475  156.5537 H   0  0  0  0  0  0  0  0  0  0  0  0
  152.2514  140.4314  158.5513 H   0  0  0  0  0  0  0  0  0  0  0  0
  150.0868  141.2564  153.9445 H   0  0  0  0  0  0  0  0  0  0  0  0
  147.6598  140.7175  155.7054 H   0  0  0  0  0  0  0  0  0  0  0  0
  148.0759  142.2448  154.9611 H   0  0  0  0  0  0  0  0  0  0  0  0
  146.3492  140.9873  153.6392 H   0  0  0  0  0  0  0  0  0  0  0  0
  147.7960  141.2886  152.7067 H   0  0  0  0  0  0  0  0  0  0  0  0
  147.0793  138.6543  154.1059 H   0  0  0  0  0  0  0  0  0  0  0  0
  147.0910  138.9401  152.3760 H   0  0  0  0  0  0  0  0  0  0  0  0
  149.0747  137.8565  153.1147 H   0  0  0  0  0  0  0  0  0  0  0  0
  150.7837  138.9317  154.3670 H   0  0  0  0  0  0  0  0  0  0  0  0
  149.3449  138.6337  155.3233 H   0  0  0  0  0  0  0  0  0  0  0  0
  149.4244  139.3289  152.4766 H   0  0  0  0  0  0  0  0  0  0  0  0
  1  2  1  0  0  0  0
  2  3  1  0  0  0  0
  2  4  1  0  0  0  0
  2  5  1  0  0  0  0
  5 15  1  0  0  0  0
  5  6  2  0  0  0  0
  6  7  1  0  0  0  0
  6 17  1  0  0  0  0
  7 16  1  0  0  0  0
  7  8  1  0  0  0  0
  8  9  1  0  0  0  0
  8 15  2  0  0  0  0
  9 14  1  0  0  0  0
  9 10  1  0  0  0  0
  9 18  1  0  0  0  0
 10 11  1  0  0  0  0
 10 19  1  0  0  0  0
 10 20  1  0  0  0  0
 11 12  1  0  0  0  0
 11 21  1  0  0  0  0
 11 22  1  0  0  0  0
 12 13  1  0  0  0  0
 12 23  1  0  0  0  0
 12 24  1  0  0  0  0
 13 14  1  0  0  0  0
 13 25  1  0  0  0  0
 13 28  1  0  0  0  0
 14 26  1  0  0  0  0
 14 27  1  0  0  0  0
M  CHG  1  13   1
M  END
> <s_m_source_file>
AV-unprocessed.smi

> <i_m_source_file_index>
2753

> <i_lp_mmshare_version>
43012

> <i_f3d_flags>
0

> <s_epik_input>
RkMoRikoRiljMVtjSF1bbkhdYyhuMSlbQ0BASF0yW0NIMl1bQ0gyXVtDSDJdW05IXVtDSDJdMg==

> <s_epik_cmdline>
J2VwaWtfcHl0aG9uJywgJy1waCcsICc3LjAnLCAnLXRuJywgJzgnLCAnLW1hJywgJzIwMCcsICctbWV0YWxfYmluZGluZycsICctaW1hZScsICc8aW5maWxlLm1hZT4nLCAnLW9tYWUnLCAnPG91dGZpbGUubWFlPic=

> <r_lp_tautomer_probability>
0.5

> <r_epik_Ionization_Penalty>
0.00052307

> <r_epik_Ionization_Penalty_Charging>
0.000431517

> <r_epik_Ionization_Penalty_Neutral>
9.15529e-05

> <r_epik_State_Penalty>
0.103148

> <r_epik_Charging_Adjusted_Penalty>
0.103579

> <i_epik_Tot_Q>
1

> <i_epik_Tot_abs_Q>
1

> <r_epik_Metal_State_Penalty>
0.166025

> <b_epik_Metal_Only>
0

> <s_lp_Force_Field>
OPLS_2005

> <r_lp_Energy>
16.8068

> <b_lp_Chiralities_Consistent>
1

> <s_lp_Variant>
AV-unprocessed.smi:2753-1

> <Gold.Version>
5.8.1

> <Gold.Id.Protein>
6NUR|6NUR_protein|mol2

> <Gold.PLP.Fitness>
42.5305

> <Gold.PLP.PLP>
-33.9628

> <Gold.PLP.part.hbond>
-1.8252

> <Gold.PLP.part.metal>
0.0000

> <Gold.PLP.part.buried>
-4.0659

> <Gold.PLP.part.nonpolar>
-30.0463

> <Gold.PLP.part.repulsive>
1.3438

> <Gold.PLP.ligand.clash>
0.0000

> <Gold.PLP.ligand.torsion>
0.0710

> <Gold.PLP.Chemscore.Hbond>
2.8940

> <Gold.PLP.Chemscore.CHOScore>
0.0000

> <Gold.PLP.Chemscore.Metal>
0.0000

> <Gold.Chemscore.Hbonds>
donor molecule, donor type, donor heavy atom, donor atom, acceptor molecule, acceptor atom, score
      L1  H    13    25       P1  7948  1.95
      L1  H    13    28       P1  7957  0.93

> <Gold.PLP.Chemscore.Internal.Correction>
0.0276

> <Gold.Rescore>
     Score         DG    S(hbond)    S(metal)    S(lipo)     H(rot)  DE(clash)    DE(int)     intcor
     15.87     -16.07       1.89        0.00      58.44       1.00       0.17       0.03       ----

> <Gold.Chemscore.Fitness>
15.8666

> <Gold.Chemscore.DG>
-16.0668

> <Gold.Chemscore.ZeroCoef>
-5.4800

> <Gold.Chemscore.Hbond>
1.8891

> <Gold.Chemscore.Metal>
0.0000

> <Gold.Chemscore.Lipo>
58.4379

> <Gold.Chemscore.Internal_Hbond>
0.0000

> <Gold.Chemscore.DEClash>
0.1685

> <Gold.Chemscore.DEInternal>
0.0317

> <Gold.Chemscore.Rot>
1.0000

> <Gold.Chemscore.Internal.Correction>
   9.000000E+99

> <Gold.Chemscore.Hbonds>
donor molecule, donor type, donor heavy atom, donor atom, acceptor molecule, acceptor atom, score
      L1  H    13    25       P1  7948  0.87
      L1  H    13    28       P1  7957  0.88

> <Gold.Chemscore.Hbond.Weighted>
-6.3095

> <Gold.Chemscore.Metal.Weighted>
-0.0000

> <Gold.Chemscore.Lipo.Weighted>
-6.8372

> <Gold.Chemscore.Internal_Hbond.Weighted>
0.0000

> <Gold.Chemscore.DEClash.Weighted>
0.1685

> <Gold.Chemscore.DEInternal.Weighted>
0.0317

> <Gold.Chemscore.Rot.Weighted>
2.5600

> <Gold.Chemscore.Internal.Correction.Weighted>
   9.000000E+99

> <Gold.Protein.RotatedTorsions>
[ 6907 6896 6895 6894 ] final  113.24 input  -60.11 | X-H torsion
[ 7974 7965 7964 7962 ] final  -70.10 input  175.53 | X-H torsion
[ 8008 7997 7996 7995 ] final -152.22 input   59.86 | X-H torsion
[ 10167 10162 10161 10158 ] final -109.20 input  -65.29 | X-H torsion
[ 10718 10713 10712 10709 ] final   23.31 input   66.30 | X-H torsion
[ 10763 10752 10751 10750 ] final  139.99 input  -60.55 | X-H torsion
[ 11005 11000 10999 10996 ] final  155.92 input  -57.11 | X-H torsion

> <Gold.Protein.ActiveResidues>
 VAL166  LYS551  ARG553  GLY616  TRP617  ASP618  TYR619  PRO620  LYS621  CYS622 
 ASP623  PHE694  ASN695  SER759  ASP760  ASP761  ALA762  ILE779  LEU786  VAL792 
 PHE793  MET794  SER795  GLU796  ALA797  LYS798  CYS799  TRP800  GLU811  SER814 

> <Gold.Protein.RotatedAtoms>
  152.4871  133.8403  159.7148 H   0  0  0  0  0  0  0  0  0  0  0  0  # atno 6907 bound_to 6896
  150.8968  133.7161  159.2896 H   0  0  0  0  0  0  0  0  0  0  0  0  # atno 6908 bound_to 6896
  151.4616  135.1042  159.9778 H   0  0  0  0  0  0  0  0  0  0  0  0  # atno 6909 bound_to 6896
  145.6953  140.9137  143.0760 H   0  0  0  0  0  0  0  0  0  0  0  0  # atno 7974 bound_to 7965
  155.6518  140.0713  157.2584 H   0  0  0  0  0  0  0  0  0  0  0  0  # atno 8008 bound_to 7997
  154.4161  140.1732  156.1733 H   0  0  0  0  0  0  0  0  0  0  0  0  # atno 8009 bound_to 7997
  155.9770  140.3357  155.6631 H   0  0  0  0  0  0  0  0  0  0  0  0  # atno 8010 bound_to 7997
  140.1579  143.4144  152.1447 H   0  0  0  0  0  0  0  0  0  0  0  0  # atno 10167 bound_to 10162
  157.1643  130.6731  149.6055 H   0  0  0  0  0  0  0  0  0  0  0  0  # atno 10718 bound_to 10713
  153.9152  135.3006  155.3448 H   0  0  0  0  0  0  0  0  0  0  0  0  # atno 10763 bound_to 10752
  154.7603  135.4937  153.9455 H   0  0  0  0  0  0  0  0  0  0  0  0  # atno 10764 bound_to 10752
  153.1171  135.6773  153.9501 H   0  0  0  0  0  0  0  0  0  0  0  0  # atno 10765 bound_to 10752
  140.1627  134.8598  157.2594 H   0  0  0  0  0  0  0  0  0  0  0  0  # atno 11005 bound_to 11000
  144.6984  139.8876  143.7451 LP  0  0  0  0  0  0  0  0  0  0  0  0  # atno 17320 bound_to 7965
  146.0845  139.3834  143.0443 LP  0  0  0  0  0  0  0  0  0  0  0  0  # atno 17321 bound_to 7965
  139.5395  144.7242  151.4782 LP  0  0  0  0  0  0  0  0  0  0  0  0  # atno 17342 bound_to 10162
  140.6661  143.8394  150.6944 LP  0  0  0  0  0  0  0  0  0  0  0  0  # atno 17343 bound_to 10162
  155.9748  130.4701  150.6418 LP  0  0  0  0  0  0  0  0  0  0  0  0  # atno 17370 bound_to 10713
  157.4103  131.0822  151.1227 LP  0  0  0  0  0  0  0  0  0  0  0  0  # atno 17371 bound_to 10713
  140.2471  134.3727  155.7457 LP  0  0  0  0  0  0  0  0  0  0  0  0  # atno 17394 bound_to 11000
  141.2211  133.7296  156.8878 LP  0  0  0  0  0  0  0  0  0  0  0  0  # atno 17395 bound_to 11000

$$$$
