AV-unprocessed.smi:234|AV-procd|sdf|1795|dock6
  -GOLD-   2262020363D 1   1.00000     0.00000
 Structure written by MMmdl.
 59 62  0  0  0  0  0  0  0  0  1 V2000
  153.4332  142.7186  161.4429 C   0  0  0  0  0  0  0  0  0  0  0  0
  152.5731  143.4689  160.4177 C   0  0  0  0  0  0  0  0  0  0  0  0
  152.3449  142.7084  159.2387 O   0  0  0  0  0  0  0  0  0  0  0  0
  152.1473  141.3163  159.4511 C   0  0  2  0  0  0  0  0  0  0  0  0
  153.3872  140.4412  159.2444 C   0  0  0  0  0  0  0  0  0  0  0  0
  152.4284  139.4265  158.6171 C   0  0  2  0  0  0  0  0  0  0  0  0
  153.0099  138.6877  157.4938 N   0  0  0  0  0  0  0  0  0  0  0  0
  153.9346  137.6136  157.8320 C   0  0  0  0  0  0  0  0  0  0  0  0
  152.1346  138.2809  156.5452 C   0  0  0  0  0  0  0  0  0  0  0  0
  152.2829  138.6857  155.2557 N   0  0  0  0  0  0  0  0  0  0  0  0
  151.4219  138.2706  154.3221 C   0  0  0  0  0  0  0  0  0  0  0  0
  150.3649  137.4670  154.4594 N   0  0  0  0  0  0  0  0  0  0  0  0
  150.2093  137.0686  155.7549 C   0  0  0  0  0  0  0  0  0  0  0  0
  151.0362  137.4355  156.8523 C   0  0  0  0  0  0  0  0  0  0  0  0
  150.5722  136.8450  158.0203 N   0  0  0  0  0  0  0  0  0  0  0  0
  149.5309  136.1597  157.6337 C   0  0  0  0  0  0  0  0  0  0  0  0
  149.2506  136.2238  156.2865 N   0  0  0  0  0  0  0  0  0  0  0  0
  148.1726  135.5414  155.5879 C   0  0  0  0  0  0  0  0  0  0  0  0
  148.1724  134.0083  155.8071 C   0  0  1  0  0  0  0  0  0  0  0  0
  147.8038  133.7520  157.1521 O   0  0  0  0  0  0  0  0  0  0  0  0
  147.1701  133.2944  154.8939 C   0  0  0  0  0  0  0  0  0  0  0  0
  148.0445  132.4874  153.9413 C   0  0  0  0  0  0  0  0  0  0  0  0
  149.1665  132.1592  154.7403 O   0  0  0  0  0  0  0  0  0  0  0  0
  149.5241  133.3336  155.4533 C   0  0  2  0  0  0  0  0  0  0  0  0
  150.4683  132.9934  156.6187 C   0  0  0  0  0  0  0  0  0  0  0  0
  151.4996  140.6144  158.2298 C   0  0  0  0  0  0  0  0  0  0  0  0
  149.9953  140.3666  158.3449 C   0  0  0  0  0  0  0  0  0  0  0  0
  151.7400  141.2973  156.8699 C   0  0  0  0  0  0  0  0  0  0  0  0
  153.6967  143.3726  162.2741 H   0  0  0  0  0  0  0  0  0  0  0  0
  154.3601  142.3640  160.9916 H   0  0  0  0  0  0  0  0  0  0  0  0
  152.9093  141.8604  161.8609 H   0  0  0  0  0  0  0  0  0  0  0  0
  151.6314  143.7969  160.8599 H   0  0  0  0  0  0  0  0  0  0  0  0
  153.1018  144.3739  160.1178 H   0  0  0  0  0  0  0  0  0  0  0  0
  151.6160  141.0877  160.3783 H   0  0  0  0  0  0  0  0  0  0  0  0
  154.1076  140.8675  158.5442 H   0  0  0  0  0  0  0  0  0  0  0  0
  153.8654  140.0985  160.1620 H   0  0  0  0  0  0  0  0  0  0  0  0
  151.9828  138.7856  159.3811 H   0  0  0  0  0  0  0  0  0  0  0  0
  153.4337  136.8477  158.4253 H   0  0  0  0  0  0  0  0  0  0  0  0
  154.7733  137.9987  158.4119 H   0  0  0  0  0  0  0  0  0  0  0  0
  154.3426  137.1423  156.9368 H   0  0  0  0  0  0  0  0  0  0  0  0
  151.6089  138.6310  153.3213 H   0  0  0  0  0  0  0  0  0  0  0  0
  148.9425  135.5719  158.3232 H   0  0  0  0  0  0  0  0  0  0  0  0
  147.2257  135.9730  155.9152 H   0  0  0  0  0  0  0  0  0  0  0  0
  148.2580  135.7671  154.5242 H   0  0  0  0  0  0  0  0  0  0  0  0
  147.0006  133.2540  157.1503 H   0  0  0  0  0  0  0  0  0  0  0  0
  146.5382  132.6087  155.4610 H   0  0  0  0  0  0  0  0  0  0  0  0
  146.5079  133.9762  154.3593 H   0  0  0  0  0  0  0  0  0  0  0  0
  147.5441  131.5965  153.5616 H   0  0  0  0  0  0  0  0  0  0  0  0
  148.3621  133.0950  153.0924 H   0  0  0  0  0  0  0  0  0  0  0  0
  150.0642  133.9614  154.7435 H   0  0  0  0  0  0  0  0  0  0  0  0
  150.7357  133.8854  157.1856 H   0  0  0  0  0  0  0  0  0  0  0  0
  151.3928  132.5514  156.2475 H   0  0  0  0  0  0  0  0  0  0  0  0
  150.0176  132.2780  157.3067 H   0  0  0  0  0  0  0  0  0  0  0  0
  149.6134  139.7954  157.4982 H   0  0  0  0  0  0  0  0  0  0  0  0
  149.4406  141.3045  158.3844 H   0  0  0  0  0  0  0  0  0  0  0  0
  149.7507  139.8066  159.2477 H   0  0  0  0  0  0  0  0  0  0  0  0
  151.3480  140.7047  156.0433 H   0  0  0  0  0  0  0  0  0  0  0  0
  152.7992  141.4618  156.6720 H   0  0  0  0  0  0  0  0  0  0  0  0
  151.2509  142.2705  156.8225 H   0  0  0  0  0  0  0  0  0  0  0  0
  1  2  1  0  0  0  0
  1 29  1  0  0  0  0
  1 30  1  0  0  0  0
  1 31  1  0  0  0  0
  2  3  1  0  0  0  0
  2 32  1  0  0  0  0
  2 33  1  0  0  0  0
  3  4  1  0  0  0  0
  4 26  1  0  0  0  0
  4  5  1  0  0  0  0
  4 34  1  0  0  0  0
  5  6  1  0  0  0  0
  5 35  1  0  0  0  0
  5 36  1  0  0  0  0
  6  7  1  0  0  0  0
  6 26  1  0  0  0  0
  6 37  1  0  0  0  0
  7  8  1  0  0  0  0
  7  9  1  0  0  0  0
  8 38  1  0  0  0  0
  8 39  1  0  0  0  0
  8 40  1  0  0  0  0
  9 14  1  0  0  0  0
  9 10  2  0  0  0  0
 10 11  1  0  0  0  0
 11 12  2  0  0  0  0
 11 41  1  0  0  0  0
 12 13  1  0  0  0  0
 13 17  1  0  0  0  0
 13 14  2  0  0  0  0
 14 15  1  0  0  0  0
 15 16  2  0  0  0  0
 16 17  1  0  0  0  0
 16 42  1  0  0  0  0
 17 18  1  0  0  0  0
 18 19  1  0  0  0  0
 18 43  1  0  0  0  0
 18 44  1  0  0  0  0
 19 24  1  0  0  0  0
 19 20  1  0  0  0  0
 19 21  1  0  0  0  0
 20 45  1  0  0  0  0
 21 22  1  0  0  0  0
 21 46  1  0  0  0  0
 21 47  1  0  0  0  0
 22 23  1  0  0  0  0
 22 48  1  0  0  0  0
 22 49  1  0  0  0  0
 23 24  1  0  0  0  0
 24 25  1  0  0  0  0
 24 50  1  0  0  0  0
 25 51  1  0  0  0  0
 25 52  1  0  0  0  0
 25 53  1  0  0  0  0
 26 27  1  0  0  0  0
 26 28  1  0  0  0  0
 27 54  1  0  0  0  0
 27 55  1  0  0  0  0
 27 56  1  0  0  0  0
 28 57  1  0  0  0  0
 28 58  1  0  0  0  0
 28 59  1  0  0  0  0
M  END
> <s_m_source_file>
AV-unprocessed.smi

> <i_m_source_file_index>
234

> <i_lp_mmshare_version>
43012

> <i_f3d_flags>
0

> <s_epik_input>
W0NIM11bQ0gyXU9bQ0BASF0oQzEoW0NIM10pW0NIM10pW0NIMl1bQ0BIXTFOKFtDSDNdKWMobltjSF1uMiljKGMyMyluW2NIXW4zW0NIMl1bQ0BAXTQoW09IXSlbQ0gyXVtDSDJdT1tDQEhdNFtDSDNd

> <s_epik_cmdline>
J2VwaWtfcHl0aG9uJywgJy1waCcsICc3LjAnLCAnLXRuJywgJzgnLCAnLW1hJywgJzIwMCcsICctbWV0YWxfYmluZGluZycsICctaW1hZScsICc8aW5maWxlLm1hZT4nLCAnLW9tYWUnLCAnPG91dGZpbGUubWFlPic=

> <r_lp_tautomer_probability>
1

> <r_epik_Ionization_Penalty>
0.00349132

> <r_epik_Ionization_Penalty_Charging>
0

> <r_epik_Ionization_Penalty_Neutral>
0.00349132

> <r_epik_State_Penalty>
0.00242418

> <r_epik_Charging_Adjusted_Penalty>
0.00242418

> <i_epik_Tot_Q>
0

> <i_epik_Tot_abs_Q>
0

> <r_epik_Metal_State_Penalty>
-0

> <b_epik_Metal_Only>
0

> <s_lp_Force_Field>
OPLS_2005

> <r_lp_Energy>
47.8509

> <b_lp_Chiralities_Consistent>
1

> <s_lp_Variant>
AV-unprocessed.smi:234-11

> <Gold.Version>
5.8.1

> <Gold.Id.Protein>
6NUR|6NUR_protein|mol2

> <Gold.PLP.Fitness>
38.6503

> <Gold.PLP.PLP>
-36.9302

> <Gold.PLP.part.hbond>
-1.3696

> <Gold.PLP.part.metal>
0.0000

> <Gold.PLP.part.buried>
-7.5074

> <Gold.PLP.part.nonpolar>
-27.3852

> <Gold.PLP.part.repulsive>
0.2378

> <Gold.PLP.ligand.clash>
0.0000

> <Gold.PLP.ligand.torsion>
1.0127

> <Gold.PLP.Chemscore.Hbond>
1.0000

> <Gold.PLP.Chemscore.CHOScore>
0.0000

> <Gold.PLP.Chemscore.Metal>
0.0000

> <Gold.Chemscore.Hbonds>
donor molecule, donor type, donor heavy atom, donor atom, acceptor molecule, acceptor atom, score
      P1  H  7997  8009       L1     7  0.76

> <Gold.PLP.Chemscore.Internal.Correction>
0.7455

> <Gold.Rescore>
     Score         DG    S(hbond)    S(metal)    S(lipo)     H(rot)  DE(clash)    DE(int)     intcor
      7.61      -9.39       0.00        0.00      90.74       2.62       0.03       1.75       ----

> <Gold.Chemscore.Fitness>
7.6122

> <Gold.Chemscore.DG>
-9.3884

> <Gold.Chemscore.ZeroCoef>
-5.4800

> <Gold.Chemscore.Hbond>
0.0012

> <Gold.Chemscore.Metal>
0.0000

> <Gold.Chemscore.Lipo>
90.7401

> <Gold.Chemscore.Internal_Hbond>
0.0000

> <Gold.Chemscore.DEClash>
0.0291

> <Gold.Chemscore.DEInternal>
1.7470

> <Gold.Chemscore.Rot>
2.6219

> <Gold.Chemscore.Internal.Correction>
   9.000000E+99

> <Gold.Chemscore.Hbonds>
donor molecule, donor type, donor heavy atom, donor atom, acceptor molecule, acceptor atom, score
      P1  H  7997  8009       L1     7  0.05

> <Gold.Chemscore.Hbond.Weighted>
-0.0039

> <Gold.Chemscore.Metal.Weighted>
-0.0000

> <Gold.Chemscore.Lipo.Weighted>
-10.6166

> <Gold.Chemscore.Internal_Hbond.Weighted>
0.0000

> <Gold.Chemscore.DEClash.Weighted>
0.0291

> <Gold.Chemscore.DEInternal.Weighted>
1.7470

> <Gold.Chemscore.Rot.Weighted>
6.7121

> <Gold.Chemscore.Internal.Correction.Weighted>
   9.000000E+99

> <Gold.Protein.RotatedTorsions>
[ 6907 6896 6895 6894 ] final  166.16 input  -60.11 | X-H torsion
[ 7974 7965 7964 7962 ] final   13.37 input  175.53 | X-H torsion
[ 8008 7997 7996 7995 ] final  178.28 input   59.86 | X-H torsion
[ 10167 10162 10161 10158 ] final  109.53 input  -65.29 | X-H torsion
[ 10718 10713 10712 10709 ] final   73.62 input   66.30 | X-H torsion
[ 10763 10752 10751 10750 ] final  -75.29 input  -60.55 | X-H torsion
[ 11005 11000 10999 10996 ] final   25.13 input  -57.11 | X-H torsion

> <Gold.Protein.ActiveResidues>
 VAL166  LYS551  ARG553  GLY616  TRP617  ASP618  TYR619  PRO620  LYS621  CYS622 
 ASP623  PHE694  ASN695  SER759  ASP760  ASP761  ALA762  ILE779  LEU786  VAL792 
 PHE793  MET794  SER795  GLU796  ALA797  LYS798  CYS799  TRP800  GLU811  SER814 

> <Gold.Protein.RotatedAtoms>
  151.8832  133.3500  159.3773 H   0  0  0  0  0  0  0  0  0  0  0  0  # atno 6907 bound_to 6896
  150.7122  134.4997  159.5565 H   0  0  0  0  0  0  0  0  0  0  0  0  # atno 6908 bound_to 6896
  152.2553  134.8091  160.0490 H   0  0  0  0  0  0  0  0  0  0  0  0  # atno 6909 bound_to 6896
  146.2331  139.9198  142.8512 H   0  0  0  0  0  0  0  0  0  0  0  0  # atno 7974 bound_to 7965
  156.0564  140.1337  156.9991 H   0  0  0  0  0  0  0  0  0  0  0  0  # atno 8008 bound_to 7997
  154.4460  140.1000  156.6523 H   0  0  0  0  0  0  0  0  0  0  0  0  # atno 8009 bound_to 7997
  155.5444  140.3461  155.4456 H   0  0  0  0  0  0  0  0  0  0  0  0  # atno 8010 bound_to 7997
  139.6760  144.7122  151.1602 H   0  0  0  0  0  0  0  0  0  0  0  0  # atno 10167 bound_to 10162
  157.6556  130.9637  150.1095 H   0  0  0  0  0  0  0  0  0  0  0  0  # atno 10718 bound_to 10713
  154.4846  135.5836  153.6414 H   0  0  0  0  0  0  0  0  0  0  0  0  # atno 10763 bound_to 10752
  152.9853  135.6098  154.3202 H   0  0  0  0  0  0  0  0  0  0  0  0  # atno 10764 bound_to 10752
  154.3097  135.2845  155.2551 H   0  0  0  0  0  0  0  0  0  0  0  0  # atno 10765 bound_to 10752
  140.3511  134.2227  155.7680 H   0  0  0  0  0  0  0  0  0  0  0  0  # atno 11005 bound_to 11000
  145.2147  140.9910  143.4080 LP  0  0  0  0  0  0  0  0  0  0  0  0  # atno 17320 bound_to 7965
  144.9661  139.3929  143.6332 LP  0  0  0  0  0  0  0  0  0  0  0  0  # atno 17321 bound_to 7965
  140.7635  143.5772  150.8933 LP  0  0  0  0  0  0  0  0  0  0  0  0  # atno 17342 bound_to 10162
  139.9440  143.6348  152.3046 LP  0  0  0  0  0  0  0  0  0  0  0  0  # atno 17343 bound_to 10162
  156.1996  130.3659  149.8805 LP  0  0  0  0  0  0  0  0  0  0  0  0  # atno 17370 bound_to 10713
  156.6713  130.8821  151.3562 LP  0  0  0  0  0  0  0  0  0  0  0  0  # atno 17371 bound_to 10713
  141.2012  133.7969  157.0454 LP  0  0  0  0  0  0  0  0  0  0  0  0  # atno 17394 bound_to 11000
  140.0702  134.9706  157.1454 LP  0  0  0  0  0  0  0  0  0  0  0  0  # atno 17395 bound_to 11000

$$$$
