AV-unprocessed.smi:1054|AV-procd|sdf|4623|dock3
  -GOLD-   22720 3123D 1   1.00000     0.00000
 Structure written by MMmdl.
 35 36  0  0  0  0  0  0  0  0  1 V2000
  151.9969  140.6446  157.9110 O   0  0  0  0  0  0  0  0  0  0  0  0
  151.1548  141.3438  157.3475 C   0  0  0  0  0  0  0  0  0  0  0  0
  150.7942  142.5809  157.7316 N   0  0  0  0  0  0  0  0  0  0  0  0
  151.2782  143.3366  158.8327 C   0  0  0  0  0  0  0  0  0  0  0  0
  151.3818  144.7273  158.6034 C   0  0  0  0  0  0  0  0  0  0  0  0
  151.8518  145.5664  159.6321 C   0  0  0  0  0  0  0  0  0  0  0  0
  152.2068  144.9925  160.8658 C   0  0  0  0  0  0  0  0  0  0  0  0
  152.0730  143.5995  161.0119 C   0  0  0  0  0  0  0  0  0  0  0  0
  151.6231  142.7933  160.0270 N   0  0  0  0  0  0  0  0  0  0  0  0
  150.4684  140.9620  156.2567 N   0  0  0  0  0  0  0  0  0  0  0  0
  150.5382  139.6840  155.5316 C   0  0  0  0  0  0  0  0  0  0  0  0
  149.4528  139.6362  154.4190 C   0  0  0  0  0  0  0  0  0  0  0  0
  149.6010  140.6905  153.4882 O   0  0  0  0  0  0  0  0  0  0  0  0
  151.9685  139.5789  154.9463 C   0  0  0  0  0  0  0  0  0  0  0  0
  152.3036  138.1677  154.4340 C   0  0  0  0  0  0  0  0  0  0  0  0
  152.1349  137.2208  155.4797 O   0  0  0  0  0  0  0  0  0  0  0  0
  150.7931  137.1534  155.9425 C   0  0  0  0  0  0  0  0  0  0  0  0
  150.3628  138.5095  156.5303 C   0  0  0  0  0  0  0  0  0  0  0  0
  150.0874  143.0343  157.1724 H   0  0  0  0  0  0  0  0  0  0  0  0
  151.1048  145.1517  157.6491 H   0  0  0  0  0  0  0  0  0  0  0  0
  151.9385  146.6315  159.4760 H   0  0  0  0  0  0  0  0  0  0  0  0
  152.5719  145.6030  161.6784 H   0  0  0  0  0  0  0  0  0  0  0  0
  152.3341  143.1195  161.9434 H   0  0  0  0  0  0  0  0  0  0  0  0
  149.8021  141.6254  155.8899 H   0  0  0  0  0  0  0  0  0  0  0  0
  149.4990  138.6993  153.8654 H   0  0  0  0  0  0  0  0  0  0  0  0
  148.4488  139.6848  154.8400 H   0  0  0  0  0  0  0  0  0  0  0  0
  149.4300  140.3520  152.6228 H   0  0  0  0  0  0  0  0  0  0  0  0
  152.1221  140.3087  154.1509 H   0  0  0  0  0  0  0  0  0  0  0  0
  152.6943  139.8313  155.7213 H   0  0  0  0  0  0  0  0  0  0  0  0
  151.6878  137.8984  153.5751 H   0  0  0  0  0  0  0  0  0  0  0  0
  153.3400  138.1322  154.0985 H   0  0  0  0  0  0  0  0  0  0  0  0
  150.1315  136.8433  155.1331 H   0  0  0  0  0  0  0  0  0  0  0  0
  150.7284  136.3812  156.7091 H   0  0  0  0  0  0  0  0  0  0  0  0
  150.9658  138.6967  157.4203 H   0  0  0  0  0  0  0  0  0  0  0  0
  149.3306  138.4391  156.8736 H   0  0  0  0  0  0  0  0  0  0  0  0
  1  2  2  0  0  0  0
  2  3  1  0  0  0  0
  2 10  1  0  0  0  0
  3  4  1  0  0  0  0
  3 19  1  0  0  0  0
  4  9  1  0  0  0  0
  4  5  2  0  0  0  0
  5  6  1  0  0  0  0
  5 20  1  0  0  0  0
  6  7  2  0  0  0  0
  6 21  1  0  0  0  0
  7  8  1  0  0  0  0
  7 22  1  0  0  0  0
  8  9  2  0  0  0  0
  8 23  1  0  0  0  0
 10 11  1  0  0  0  0
 10 24  1  0  0  0  0
 11 18  1  0  0  0  0
 11 12  1  0  0  0  0
 11 14  1  0  0  0  0
 12 13  1  0  0  0  0
 12 25  1  0  0  0  0
 12 26  1  0  0  0  0
 13 27  1  0  0  0  0
 14 15  1  0  0  0  0
 14 28  1  0  0  0  0
 14 29  1  0  0  0  0
 15 16  1  0  0  0  0
 15 30  1  0  0  0  0
 15 31  1  0  0  0  0
 16 17  1  0  0  0  0
 17 18  1  0  0  0  0
 17 32  1  0  0  0  0
 17 33  1  0  0  0  0
 18 34  1  0  0  0  0
 18 35  1  0  0  0  0
M  END
> <s_m_source_file>
AV-unprocessed.smi

> <i_m_source_file_index>
1054

> <i_lp_mmshare_version>
43012

> <i_f3d_flags>
0

> <s_epik_input>
W0NIMl0xW0NIMl1PW0NIMl1bQ0gyXUMxKFtDSDJdW09IXSlbTkhdQyg9TylbTkhdYzJbY0hdW2NIXVtjSF1bY0hdbjI=

> <s_epik_cmdline>
J2VwaWtfcHl0aG9uJywgJy1waCcsICc3LjAnLCAnLXRuJywgJzgnLCAnLW1hJywgJzIwMCcsICctbWV0YWxfYmluZGluZycsICctaW1hZScsICc8aW5maWxlLm1hZT4nLCAnLW9tYWUnLCAnPG91dGZpbGUubWFlPic=

> <r_lp_tautomer_probability>
1

> <r_epik_Ionization_Penalty>
4.33411e-05

> <r_epik_Ionization_Penalty_Charging>
0

> <r_epik_Ionization_Penalty_Neutral>
4.33411e-05

> <r_epik_State_Penalty>
-0

> <r_epik_Charging_Adjusted_Penalty>
0

> <i_epik_Tot_Q>
0

> <i_epik_Tot_abs_Q>
0

> <r_epik_Metal_State_Penalty>
-0

> <b_epik_Metal_Only>
0

> <s_lp_Force_Field>
OPLS_2005

> <r_lp_Energy>
17.545

> <b_lp_Chiralities_Consistent>
1

> <s_lp_Variant>
AV-unprocessed.smi:1054-1

> <Gold.Version>
5.8.1

> <Gold.Id.Protein>
6NUR|6NUR_protein|mol2

> <Gold.PLP.Fitness>
42.1834

> <Gold.PLP.PLP>
-36.1563

> <Gold.PLP.part.hbond>
-3.9490

> <Gold.PLP.part.metal>
0.0000

> <Gold.PLP.part.buried>
-4.1714

> <Gold.PLP.part.nonpolar>
-28.3141

> <Gold.PLP.part.repulsive>
0.1612

> <Gold.PLP.ligand.clash>
0.0000

> <Gold.PLP.ligand.torsion>
0.3172

> <Gold.PLP.Chemscore.Hbond>
2.2162

> <Gold.PLP.Chemscore.CHOScore>
0.0000

> <Gold.PLP.Chemscore.Metal>
0.0000

> <Gold.Chemscore.Hbonds>
donor molecule, donor type, donor heavy atom, donor atom, acceptor molecule, acceptor atom, score
      L1  H    13    27       P1  7957  0.94
      P1  H  7989  7998       L1    13  0.38
      P1  H 10752 10764       L1    16  0.86

> <Gold.PLP.Chemscore.Internal.Correction>
0.0131

> <Gold.Rescore>
     Score         DG    S(hbond)    S(metal)    S(lipo)     H(rot)  DE(clash)    DE(int)     intcor
     12.22     -15.90       1.52        0.00      86.71       1.88       1.43       2.25       ----

> <Gold.Chemscore.Fitness>
12.2206

> <Gold.Chemscore.DG>
-15.9009

> <Gold.Chemscore.ZeroCoef>
-5.4800

> <Gold.Chemscore.Hbond>
1.5213

> <Gold.Chemscore.Metal>
0.0000

> <Gold.Chemscore.Lipo>
86.7064

> <Gold.Chemscore.Internal_Hbond>
0.0000

> <Gold.Chemscore.DEClash>
1.4336

> <Gold.Chemscore.DEInternal>
2.2467

> <Gold.Chemscore.Rot>
1.8769

> <Gold.Chemscore.Internal.Correction>
   9.000000E+99

> <Gold.Chemscore.Hbonds>
donor molecule, donor type, donor heavy atom, donor atom, acceptor molecule, acceptor atom, score
      L1  H    13    27       P1  7957  0.90
      P1  H  7989  7998       L1    13  0.03
      P1  H 10752 10764       L1    16  0.40

> <Gold.Chemscore.Hbond.Weighted>
-5.0811

> <Gold.Chemscore.Metal.Weighted>
-0.0000

> <Gold.Chemscore.Lipo.Weighted>
-10.1446

> <Gold.Chemscore.Internal_Hbond.Weighted>
0.0000

> <Gold.Chemscore.DEClash.Weighted>
1.4336

> <Gold.Chemscore.DEInternal.Weighted>
2.2467

> <Gold.Chemscore.Rot.Weighted>
4.8048

> <Gold.Chemscore.Internal.Correction.Weighted>
   9.000000E+99

> <Gold.Protein.RotatedTorsions>
[ 6907 6896 6895 6894 ] final  -50.87 input  -60.11 | X-H torsion
[ 7974 7965 7964 7962 ] final  104.38 input  175.53 | X-H torsion
[ 8008 7997 7996 7995 ] final -168.99 input   59.86 | X-H torsion
[ 10167 10162 10161 10158 ] final -167.83 input  -65.29 | X-H torsion
[ 10718 10713 10712 10709 ] final  -11.98 input   66.30 | X-H torsion
[ 10763 10752 10751 10750 ] final  -44.79 input  -60.55 | X-H torsion
[ 11005 11000 10999 10996 ] final  176.15 input  -57.11 | X-H torsion

> <Gold.Protein.ActiveResidues>
 VAL166  LYS551  ARG553  GLY616  TRP617  ASP618  TYR619  PRO620  LYS621  CYS622 
 ASP623  PHE694  ASN695  SER759  ASP760  ASP761  ALA762  ILE779  LEU786  VAL792 
 PHE793  MET794  SER795  GLU796  ALA797  LYS798  CYS799  TRP800  GLU811  SER814 

> <Gold.Protein.RotatedAtoms>
  150.8665  134.8030  159.7122 H   0  0  0  0  0  0  0  0  0  0  0  0  # atno 6907 bound_to 6896
  152.4685  134.5015  159.9736 H   0  0  0  0  0  0  0  0  0  0  0  0  # atno 6908 bound_to 6896
  151.5110  133.3446  159.2920 H   0  0  0  0  0  0  0  0  0  0  0  0  # atno 6909 bound_to 6896
  145.3336  139.2480  143.3647 H   0  0  0  0  0  0  0  0  0  0  0  0  # atno 7974 bound_to 7965
  155.8989  140.1037  157.1364 H   0  0  0  0  0  0  0  0  0  0  0  0  # atno 8008 bound_to 7997
  154.4024  140.1296  156.4475 H   0  0  0  0  0  0  0  0  0  0  0  0  # atno 8009 bound_to 7997
  155.7446  140.3466  155.5123 H   0  0  0  0  0  0  0  0  0  0  0  0  # atno 8010 bound_to 7997
  139.6024  144.0983  152.1757 H   0  0  0  0  0  0  0  0  0  0  0  0  # atno 10167 bound_to 10162
  156.6512  130.4955  149.6061 H   0  0  0  0  0  0  0  0  0  0  0  0  # atno 10718 bound_to 10713
  154.0178  135.6673  153.4770 H   0  0  0  0  0  0  0  0  0  0  0  0  # atno 10763 bound_to 10752
  153.0593  135.5037  154.8051 H   0  0  0  0  0  0  0  0  0  0  0  0  # atno 10764 bound_to 10752
  154.6956  135.3069  154.9381 H   0  0  0  0  0  0  0  0  0  0  0  0  # atno 10765 bound_to 10752
  140.3700  134.7038  157.4386 H   0  0  0  0  0  0  0  0  0  0  0  0  # atno 11005 bound_to 11000
  146.3036  140.3919  142.8695 LP  0  0  0  0  0  0  0  0  0  0  0  0  # atno 17320 bound_to 7965
  144.8845  140.7444  143.5966 LP  0  0  0  0  0  0  0  0  0  0  0  0  # atno 17321 bound_to 7965
  140.0582  144.5878  150.7283 LP  0  0  0  0  0  0  0  0  0  0  0  0  # atno 17342 bound_to 10162
  140.7260  143.2636  151.4119 LP  0  0  0  0  0  0  0  0  0  0  0  0  # atno 17343 bound_to 10162
  156.2083  130.6663  151.1242 LP  0  0  0  0  0  0  0  0  0  0  0  0  # atno 17370 bound_to 10713
  157.7140  131.0719  150.6396 LP  0  0  0  0  0  0  0  0  0  0  0  0  # atno 17371 bound_to 10713
  140.0559  134.6064  155.8806 LP  0  0  0  0  0  0  0  0  0  0  0  0  # atno 17394 bound_to 11000
  141.1957  133.6588  156.5658 LP  0  0  0  0  0  0  0  0  0  0  0  0  # atno 17395 bound_to 11000

$$$$
