AV-unprocessed.smi:2822|AV-procd|sdf|10882|dock10
  -GOLD-   2272015323D 1   1.00000     0.00000
 Structure written by MMmdl.
 39 41  0  0  0  0  0  0  0  0  1 V2000
  146.5418  142.8995  154.1372 Cl  0  0  0  0  0  0  0  0  0  0  0  0
  147.3497  141.3712  154.0882 C   0  0  0  0  0  0  0  0  0  0  0  0
  146.9844  140.4191  153.1146 C   0  0  0  0  0  0  0  0  0  0  0  0
  147.5624  139.2040  153.0079 N   0  0  0  0  0  0  0  0  0  0  0  0
  148.5410  138.8957  153.8839 C   0  0  0  0  0  0  0  0  0  0  0  0
  148.9837  139.7732  154.8938 C   0  0  0  0  0  0  0  0  0  0  0  0
  148.3753  141.0457  155.0058 C   0  0  0  0  0  0  0  0  0  0  0  0
  148.7537  141.9800  155.9818 N   0  0  0  0  0  0  0  0  0  0  0  0
  149.6522  141.6095  157.0643 C   0  0  0  0  0  0  0  0  0  0  0  0
  151.0923  142.0807  156.7866 C   0  0  2  0  0  0  0  0  0  0  0  0
  152.1513  141.2481  157.5345 C   0  0  0  0  0  0  0  0  0  0  0  0
  152.1672  141.5099  158.9690 N   0  0  0  0  0  0  0  0  0  0  0  0
  153.2016  140.7193  159.6352 C   0  0  0  0  0  0  0  0  0  0  0  0
  153.2298  140.9460  161.1548 C   0  0  0  0  0  0  0  0  0  0  0  0
  153.4156  142.4374  161.4675 C   0  0  0  0  0  0  0  0  0  0  0  0
  152.3563  143.2662  160.7252 C   0  0  0  0  0  0  0  0  0  0  0  0
  152.3567  142.9420  159.2166 C   0  0  2  0  0  0  0  0  0  0  0  0
  151.2850  143.7760  158.4874 C   0  0  0  0  0  0  0  0  0  0  0  0
  151.2724  143.4642  157.0966 O   0  0  0  0  0  0  0  0  0  0  0  0
  146.2047  140.6391  152.4002 H   0  0  0  0  0  0  0  0  0  0  0  0
  148.9870  137.9178  153.7777 H   0  0  0  0  0  0  0  0  0  0  0  0
  149.7749  139.4580  155.5572 H   0  0  0  0  0  0  0  0  0  0  0  0
  148.2330  142.8418  156.0650 H   0  0  0  0  0  0  0  0  0  0  0  0
  149.2859  142.0117  158.0086 H   0  0  0  0  0  0  0  0  0  0  0  0
  149.6421  140.5232  157.1598 H   0  0  0  0  0  0  0  0  0  0  0  0
  151.2780  141.9679  155.7178 H   0  0  0  0  0  0  0  0  0  0  0  0
  151.9789  140.1868  157.3516 H   0  0  0  0  0  0  0  0  0  0  0  0
  153.1331  141.4751  157.1157 H   0  0  0  0  0  0  0  0  0  0  0  0
  153.0359  139.6597  159.4379 H   0  0  0  0  0  0  0  0  0  0  0  0
  154.1797  140.9609  159.2159 H   0  0  0  0  0  0  0  0  0  0  0  0
  152.2984  140.5892  161.5963 H   0  0  0  0  0  0  0  0  0  0  0  0
  154.0335  140.3644  161.6072 H   0  0  0  0  0  0  0  0  0  0  0  0
  153.3500  142.6113  162.5418 H   0  0  0  0  0  0  0  0  0  0  0  0
  154.4120  142.7557  161.1580 H   0  0  0  0  0  0  0  0  0  0  0  0
  151.3720  143.0577  161.1469 H   0  0  0  0  0  0  0  0  0  0  0  0
  152.5429  144.3289  160.8834 H   0  0  0  0  0  0  0  0  0  0  0  0
  153.3282  143.2353  158.8145 H   0  0  0  0  0  0  0  0  0  0  0  0
  150.2977  143.6100  158.9192 H   0  0  0  0  0  0  0  0  0  0  0  0
  151.4957  144.8400  158.5983 H   0  0  0  0  0  0  0  0  0  0  0  0
  1  2  1  0  0  0  0
  2  7  1  0  0  0  0
  2  3  2  0  0  0  0
  3  4  1  0  0  0  0
  3 20  1  0  0  0  0
  4  5  2  0  0  0  0
  5  6  1  0  0  0  0
  5 21  1  0  0  0  0
  6  7  2  0  0  0  0
  6 22  1  0  0  0  0
  7  8  1  0  0  0  0
  8  9  1  0  0  0  0
  8 23  1  0  0  0  0
  9 10  1  0  0  0  0
  9 24  1  0  0  0  0
  9 25  1  0  0  0  0
 10 19  1  0  0  0  0
 10 11  1  0  0  0  0
 10 26  1  0  0  0  0
 11 12  1  0  0  0  0
 11 27  1  0  0  0  0
 11 28  1  0  0  0  0
 12 17  1  0  0  0  0
 12 13  1  0  0  0  0
 13 14  1  0  0  0  0
 13 29  1  0  0  0  0
 13 30  1  0  0  0  0
 14 15  1  0  0  0  0
 14 31  1  0  0  0  0
 14 32  1  0  0  0  0
 15 16  1  0  0  0  0
 15 33  1  0  0  0  0
 15 34  1  0  0  0  0
 16 17  1  0  0  0  0
 16 35  1  0  0  0  0
 16 36  1  0  0  0  0
 17 18  1  0  0  0  0
 17 37  1  0  0  0  0
 18 19  1  0  0  0  0
 18 38  1  0  0  0  0
 18 39  1  0  0  0  0
M  END
> <s_m_source_file>
AV-unprocessed.smi

> <i_m_source_file_index>
2822

> <i_lp_mmshare_version>
43012

> <i_f3d_flags>
0

> <s_epik_input>
Q2xjMVtjSF1uW2NIXVtjSF1jMVtOSF1bQ0gyXVtDQEhdKFtDSDJdMilPW0NIMl1bQ0BASF0oTjIzKVtDSDJdW0NIMl1bQ0gyXVtDSDJdMw==

> <s_epik_cmdline>
J2VwaWtfcHl0aG9uJywgJy1waCcsICc3LjAnLCAnLXRuJywgJzgnLCAnLW1hJywgJzIwMCcsICctbWV0YWxfYmluZGluZycsICctaW1hZScsICc8aW5maWxlLm1hZT4nLCAnLW9tYWUnLCAnPG91dGZpbGUubWFlPic=

> <r_lp_tautomer_probability>
0.999999

> <r_epik_Ionization_Penalty>
2.10064

> <r_epik_Ionization_Penalty_Charging>
0

> <r_epik_Ionization_Penalty_Neutral>
2.10064

> <r_epik_State_Penalty>
2.1757

> <r_epik_Charging_Adjusted_Penalty>
2.1757

> <i_epik_Tot_Q>
0

> <i_epik_Tot_abs_Q>
0

> <r_epik_Metal_State_Penalty>
1.25425

> <b_epik_Metal_Only>
0

> <s_lp_Force_Field>
OPLS_2005

> <r_lp_Energy>
40.8538

> <b_lp_Chiralities_Consistent>
1

> <s_lp_Variant>
AV-unprocessed.smi:2822-23

> <Gold.Version>
5.8.1

> <Gold.Id.Protein>
6NUR|6NUR_protein|mol2

> <Gold.PLP.Fitness>
41.8891

> <Gold.PLP.PLP>
-34.9506

> <Gold.PLP.part.hbond>
-1.0000

> <Gold.PLP.part.metal>
0.0000

> <Gold.PLP.part.buried>
-5.6252

> <Gold.PLP.part.nonpolar>
-30.5066

> <Gold.PLP.part.repulsive>
2.6589

> <Gold.PLP.ligand.clash>
0.0000

> <Gold.PLP.ligand.torsion>
0.3885

> <Gold.PLP.Chemscore.Hbond>
0.5760

> <Gold.PLP.Chemscore.CHOScore>
1.9943

> <Gold.PLP.Chemscore.Metal>
0.0000

> <Gold.Chemscore.Hbonds>
donor molecule, donor type, donor heavy atom, donor atom, acceptor molecule, acceptor atom, score
      L1  H     8    23       P1  8028  0.58
      L1  C     3    20       P1 10175  1.00
      L1  C     5    21       P1  7948  0.99

> <Gold.PLP.Chemscore.Internal.Correction>
0.0045

> <Gold.Rescore>
     Score         DG    S(hbond)    S(metal)    S(lipo)     H(rot)  DE(clash)    DE(int)     intcor
     17.46     -19.05       0.77        0.00     119.30       1.15       1.30       0.29       ----

> <Gold.Chemscore.Fitness>
17.4596

> <Gold.Chemscore.DG>
-19.0540

> <Gold.Chemscore.ZeroCoef>
-5.4800

> <Gold.Chemscore.Hbond>
0.7679

> <Gold.Chemscore.Metal>
0.0000

> <Gold.Chemscore.Lipo>
119.2977

> <Gold.Chemscore.Internal_Hbond>
0.0000

> <Gold.Chemscore.DEClash>
1.2997

> <Gold.Chemscore.DEInternal>
0.2947

> <Gold.Chemscore.Rot>
1.1519

> <Gold.Chemscore.Internal.Correction>
   9.000000E+99

> <Gold.Chemscore.Hbonds>
donor molecule, donor type, donor heavy atom, donor atom, acceptor molecule, acceptor atom, score
      L1  H     8    23       P1  8028  0.45

> <Gold.Chemscore.Hbond.Weighted>
-2.5649

> <Gold.Chemscore.Metal.Weighted>
-0.0000

> <Gold.Chemscore.Lipo.Weighted>
-13.9578

> <Gold.Chemscore.Internal_Hbond.Weighted>
0.0000

> <Gold.Chemscore.DEClash.Weighted>
1.2997

> <Gold.Chemscore.DEInternal.Weighted>
0.2947

> <Gold.Chemscore.Rot.Weighted>
2.9487

> <Gold.Chemscore.Internal.Correction.Weighted>
   9.000000E+99

> <Gold.Protein.RotatedTorsions>
[ 6907 6896 6895 6894 ] final   64.98 input  -60.11 | X-H torsion
[ 7974 7965 7964 7962 ] final -149.52 input  175.53 | X-H torsion
[ 8008 7997 7996 7995 ] final -143.94 input   59.86 | X-H torsion
[ 10167 10162 10161 10158 ] final  116.95 input  -65.29 | X-H torsion
[ 10718 10713 10712 10709 ] final  110.24 input   66.30 | X-H torsion
[ 10763 10752 10751 10750 ] final  -97.60 input  -60.55 | X-H torsion
[ 11005 11000 10999 10996 ] final   98.05 input  -57.11 | X-H torsion

> <Gold.Protein.ActiveResidues>
 VAL166  LYS551  ARG553  GLY616  TRP617  ASP618  TYR619  PRO620  LYS621  CYS622 
 ASP623  PHE694  ASN695  SER759  ASP760  ASP761  ALA762  ILE779  LEU786  VAL792 
 PHE793  MET794  SER795  GLU796  ALA797  LYS798  CYS799  TRP800  GLU811  SER814 

> <Gold.Protein.RotatedAtoms>
  152.4373  134.5661  159.9907 H   0  0  0  0  0  0  0  0  0  0  0  0  # atno 6907 bound_to 6896
  151.5768  133.3377  159.3008 H   0  0  0  0  0  0  0  0  0  0  0  0  # atno 6908 bound_to 6896
  150.8273  134.7545  159.6888 H   0  0  0  0  0  0  0  0  0  0  0  0  # atno 6909 bound_to 6896
  144.7963  140.5054  143.5738 H   0  0  0  0  0  0  0  0  0  0  0  0  # atno 7974 bound_to 7965
  155.5188  140.0589  157.2910 H   0  0  0  0  0  0  0  0  0  0  0  0  # atno 8008 bound_to 7997
  154.4525  140.1956  156.0423 H   0  0  0  0  0  0  0  0  0  0  0  0  # atno 8009 bound_to 7997
  156.0733  140.3257  155.7607 H   0  0  0  0  0  0  0  0  0  0  0  0  # atno 8010 bound_to 7997
  139.6212  144.7101  151.2631 H   0  0  0  0  0  0  0  0  0  0  0  0  # atno 10167 bound_to 10162
  157.6503  131.0929  150.6573 H   0  0  0  0  0  0  0  0  0  0  0  0  # atno 10718 bound_to 10713
  154.7342  135.5040  153.9014 H   0  0  0  0  0  0  0  0  0  0  0  0  # atno 10763 bound_to 10752
  153.0979  135.6677  153.9736 H   0  0  0  0  0  0  0  0  0  0  0  0  # atno 10764 bound_to 10752
  153.9530  135.3056  155.3417 H   0  0  0  0  0  0  0  0  0  0  0  0  # atno 10765 bound_to 10752
  139.8773  134.9030  156.4398 H   0  0  0  0  0  0  0  0  0  0  0  0  # atno 11005 bound_to 11000
  145.5666  139.1481  143.3312 LP  0  0  0  0  0  0  0  0  0  0  0  0  # atno 17320 bound_to 7965
  146.2232  140.5800  142.9008 LP  0  0  0  0  0  0  0  0  0  0  0  0  # atno 17321 bound_to 7965
  140.7383  143.6652  150.8129 LP  0  0  0  0  0  0  0  0  0  0  0  0  # atno 17342 bound_to 10162
  140.0263  143.5490  152.2779 LP  0  0  0  0  0  0  0  0  0  0  0  0  # atno 17343 bound_to 10162
  156.6885  130.4588  149.5607 LP  0  0  0  0  0  0  0  0  0  0  0  0  # atno 17370 bound_to 10713
  156.1878  130.6541  151.1027 LP  0  0  0  0  0  0  0  0  0  0  0  0  # atno 17371 bound_to 10713
  140.9007  133.7781  155.9677 LP  0  0  0  0  0  0  0  0  0  0  0  0  # atno 17394 bound_to 11000
  140.8654  134.2791  157.5215 LP  0  0  0  0  0  0  0  0  0  0  0  0  # atno 17395 bound_to 11000

$$$$
