AV-unprocessed.smi:3083|AV-procd|sdf|11747|dock9
  -GOLD-   2272017143D 1   1.00000     0.00000
 Structure written by MMmdl.
 28 29  0  0  0  0  0  0  0  0  2 V2000
  148.7576  142.7556  157.8210 N   0  3  0  0  0  0  0  0  0  0  0  0
  149.9149  143.2410  158.5953 C   0  0  1  0  0  0  0  0  0  0  0  0
  151.1715  143.2744  157.7052 C   0  0  0  0  0  0  0  0  0  0  0  0
  152.3941  143.7922  158.4786 C   0  0  0  0  0  0  0  0  0  0  0  0
  152.1218  145.1772  159.0844 C   0  0  0  0  0  0  0  0  0  0  0  0
  150.8695  145.1576  159.9747 C   0  0  0  0  0  0  0  0  0  0  0  0
  149.6358  144.6387  159.2072 C   0  0  2  0  0  0  0  0  0  0  0  0
  148.4582  144.6524  160.0673 N   0  0  0  0  0  0  0  0  0  0  0  0
  147.8944  145.7307  160.7178 C   0  0  0  0  0  0  0  0  0  0  0  0
  146.8266  145.2667  161.4309 C   0  0  0  0  0  0  0  0  0  0  0  0
  146.8244  143.8693  161.1657 C   0  0  0  0  0  0  0  0  0  0  0  0
  147.8042  143.5040  160.3549 N   0  0  0  0  0  0  0  0  0  0  0  0
  148.8201  141.7540  157.7087 H   0  0  0  0  0  0  0  0  0  0  0  0
  148.7574  143.1975  156.9125 H   0  0  0  0  0  0  0  0  0  0  0  0
  150.0883  142.5221  159.3975 H   0  0  0  0  0  0  0  0  0  0  0  0
  151.3821  142.2775  157.3159 H   0  0  0  0  0  0  0  0  0  0  0  0
  150.9955  143.9134  156.8384 H   0  0  0  0  0  0  0  0  0  0  0  0
  152.6499  143.0894  159.2726 H   0  0  0  0  0  0  0  0  0  0  0  0
  153.2595  143.8397  157.8169 H   0  0  0  0  0  0  0  0  0  0  0  0
  152.9849  145.5052  159.6647 H   0  0  0  0  0  0  0  0  0  0  0  0
  151.9916  145.9079  158.2851 H   0  0  0  0  0  0  0  0  0  0  0  0
  151.0575  144.5288  160.8465 H   0  0  0  0  0  0  0  0  0  0  0  0
  150.6773  146.1613  160.3560 H   0  0  0  0  0  0  0  0  0  0  0  0
  149.4382  145.3325  158.3880 H   0  0  0  0  0  0  0  0  0  0  0  0
  148.2953  146.7292  160.6213 H   0  0  0  0  0  0  0  0  0  0  0  0
  146.1543  145.8374  162.0545 H   0  0  0  0  0  0  0  0  0  0  0  0
  146.1471  143.1144  161.5374 H   0  0  0  0  0  0  0  0  0  0  0  0
  147.9042  142.9890  158.3081 H   0  0  0  0  0  0  0  0  0  0  0  0
  1  2  1  0  0  0  0
  1 13  1  0  0  0  0
  1 14  1  0  0  0  0
  1 28  1  0  0  0  0
  2  7  1  0  0  0  0
  2  3  1  0  0  0  0
  2 15  1  0  0  0  0
  3  4  1  0  0  0  0
  3 16  1  0  0  0  0
  3 17  1  0  0  0  0
  4  5  1  0  0  0  0
  4 18  1  0  0  0  0
  4 19  1  0  0  0  0
  5  6  1  0  0  0  0
  5 20  1  0  0  0  0
  5 21  1  0  0  0  0
  6  7  1  0  0  0  0
  6 22  1  0  0  0  0
  6 23  1  0  0  0  0
  7  8  1  0  0  0  0
  7 24  1  0  0  0  0
  8 12  1  0  0  0  0
  8  9  1  0  0  0  0
  9 10  2  0  0  0  0
  9 25  1  0  0  0  0
 10 11  1  0  0  0  0
 10 26  1  0  0  0  0
 11 12  2  0  0  0  0
 11 27  1  0  0  0  0
M  CHG  1   1   1
M  END
> <s_m_source_file>
AV-unprocessed.smi

> <i_m_source_file_index>
3083

> <i_lp_mmshare_version>
43012

> <i_f3d_flags>
0

> <s_epik_input>
W05IMl1bQ0BASF0xW0NIMl1bQ0gyXVtDSDJdW0NIMl1bQ0BIXTFuMltjSF1bY0hdW2NIXW4y

> <s_epik_cmdline>
J2VwaWtfcHl0aG9uJywgJy1waCcsICc3LjAnLCAnLXRuJywgJzgnLCAnLW1hJywgJzIwMCcsICctbWV0YWxfYmluZGluZycsICctaW1hZScsICc8aW5maWxlLm1hZT4nLCAnLW9tYWUnLCAnPG91dGZpbGUubWFlPic=

> <r_lp_tautomer_probability>
1

> <r_epik_Ionization_Penalty>
0.00385053

> <r_epik_Ionization_Penalty_Charging>
0.0038389

> <r_epik_Ionization_Penalty_Neutral>
1.16305e-05

> <r_epik_State_Penalty>
-0

> <r_epik_Charging_Adjusted_Penalty>
0.0038389

> <i_epik_Tot_Q>
1

> <i_epik_Tot_abs_Q>
1

> <r_epik_Metal_State_Penalty>
-0

> <b_epik_Metal_Only>
0

> <s_lp_Force_Field>
OPLS_2005

> <r_lp_Energy>
13.574

> <b_lp_Chiralities_Consistent>
1

> <s_lp_Variant>
AV-unprocessed.smi:3083-4

> <Gold.Version>
5.8.1

> <Gold.Id.Protein>
6NUR|6NUR_protein|mol2

> <Gold.PLP.Fitness>
37.4863

> <Gold.PLP.PLP>
-28.9534

> <Gold.PLP.part.hbond>
-2.3730

> <Gold.PLP.part.metal>
0.0000

> <Gold.PLP.part.buried>
-1.2936

> <Gold.PLP.part.nonpolar>
-25.4510

> <Gold.PLP.part.repulsive>
0.1440

> <Gold.PLP.ligand.clash>
0.0000

> <Gold.PLP.ligand.torsion>
0.0227

> <Gold.PLP.Chemscore.Hbond>
2.8500

> <Gold.PLP.Chemscore.CHOScore>
0.0000

> <Gold.PLP.Chemscore.Metal>
0.0000

> <Gold.Chemscore.Hbonds>
donor molecule, donor type, donor heavy atom, donor atom, acceptor molecule, acceptor atom, score
      L1  H     1    14       P1  8028  2.00
      P1  H  6933  6944       L1    12  0.80

> <Gold.PLP.Chemscore.Internal.Correction>
0.0283

> <Gold.Rescore>
     Score         DG    S(hbond)    S(metal)    S(lipo)     H(rot)  DE(clash)    DE(int)     intcor
     14.77     -16.27       1.35        0.00      75.55       1.00       0.08       1.42       ----

> <Gold.Chemscore.Fitness>
14.7739

> <Gold.Chemscore.DG>
-16.2730

> <Gold.Chemscore.ZeroCoef>
-5.4800

> <Gold.Chemscore.Hbond>
1.3515

> <Gold.Chemscore.Metal>
0.0000

> <Gold.Chemscore.Lipo>
75.5477

> <Gold.Chemscore.Internal_Hbond>
0.0000

> <Gold.Chemscore.DEClash>
0.0764

> <Gold.Chemscore.DEInternal>
1.4227

> <Gold.Chemscore.Rot>
1.0000

> <Gold.Chemscore.Internal.Correction>
   9.000000E+99

> <Gold.Chemscore.Hbonds>
donor molecule, donor type, donor heavy atom, donor atom, acceptor molecule, acceptor atom, score
      L1  H     1    14       P1  8028  0.67
      P1  H  6933  6944       L1    12  0.11

> <Gold.Chemscore.Hbond.Weighted>
-4.5140

> <Gold.Chemscore.Metal.Weighted>
-0.0000

> <Gold.Chemscore.Lipo.Weighted>
-8.8391

> <Gold.Chemscore.Internal_Hbond.Weighted>
0.0000

> <Gold.Chemscore.DEClash.Weighted>
0.0764

> <Gold.Chemscore.DEInternal.Weighted>
1.4227

> <Gold.Chemscore.Rot.Weighted>
2.5600

> <Gold.Chemscore.Internal.Correction.Weighted>
   9.000000E+99

> <Gold.Protein.RotatedTorsions>
[ 6907 6896 6895 6894 ] final   -7.65 input  -60.11 | X-H torsion
[ 7974 7965 7964 7962 ] final -179.95 input  175.53 | X-H torsion
[ 8008 7997 7996 7995 ] final   96.22 input   59.86 | X-H torsion
[ 10167 10162 10161 10158 ] final   69.19 input  -65.29 | X-H torsion
[ 10718 10713 10712 10709 ] final   89.69 input   66.30 | X-H torsion
[ 10763 10752 10751 10750 ] final   67.53 input  -60.55 | X-H torsion
[ 11005 11000 10999 10996 ] final   67.58 input  -57.11 | X-H torsion

> <Gold.Protein.ActiveResidues>
 VAL166  LYS551  ARG553  GLY616  TRP617  ASP618  TYR619  PRO620  LYS621  CYS622 
 ASP623  PHE694  ASN695  SER759  ASP760  ASP761  ALA762  ILE779  LEU786  VAL792 
 PHE793  MET794  SER795  GLU796  ALA797  LYS798  CYS799  TRP800  GLU811  SER814 

> <Gold.Protein.RotatedAtoms>
  151.4462  135.1025  159.9684 H   0  0  0  0  0  0  0  0  0  0  0  0  # atno 6907 bound_to 6896
  152.4905  133.8483  159.7199 H   0  0  0  0  0  0  0  0  0  0  0  0  # atno 6908 bound_to 6896
  150.9054  133.7006  159.2895 H   0  0  0  0  0  0  0  0  0  0  0  0  # atno 6909 bound_to 6896
  144.7140  140.0640  143.6431 H   0  0  0  0  0  0  0  0  0  0  0  0  # atno 7974 bound_to 7965
  156.0773  140.3275  155.7650 H   0  0  0  0  0  0  0  0  0  0  0  0  # atno 8008 bound_to 7997
  155.5209  140.0585  157.2924 H   0  0  0  0  0  0  0  0  0  0  0  0  # atno 8009 bound_to 7997
  154.4562  140.1944  156.0389 H   0  0  0  0  0  0  0  0  0  0  0  0  # atno 8010 bound_to 7997
  140.0705  144.5157  150.7231 H   0  0  0  0  0  0  0  0  0  0  0  0  # atno 10167 bound_to 10162
  157.6956  131.0342  150.3464 H   0  0  0  0  0  0  0  0  0  0  0  0  # atno 10718 bound_to 10713
  153.0191  135.5280  154.6994 H   0  0  0  0  0  0  0  0  0  0  0  0  # atno 10763 bound_to 10752
  154.6107  135.2878  155.0437 H   0  0  0  0  0  0  0  0  0  0  0  0  # atno 10764 bound_to 10752
  154.1460  135.6570  153.5005 H   0  0  0  0  0  0  0  0  0  0  0  0  # atno 10765 bound_to 10752
  139.9762  134.6818  156.0349 H   0  0  0  0  0  0  0  0  0  0  0  0  # atno 11005 bound_to 11000
  145.9840  139.2963  143.1025 LP  0  0  0  0  0  0  0  0  0  0  0  0  # atno 17320 bound_to 7965
  145.8978  140.9262  143.0518 LP  0  0  0  0  0  0  0  0  0  0  0  0  # atno 17321 bound_to 7965
  140.7128  143.2519  151.4528 LP  0  0  0  0  0  0  0  0  0  0  0  0  # atno 17342 bound_to 10162
  139.5839  144.1648  152.2004 LP  0  0  0  0  0  0  0  0  0  0  0  0  # atno 17343 bound_to 10162
  156.3918  130.3899  149.7024 LP  0  0  0  0  0  0  0  0  0  0  0  0  # atno 17370 bound_to 10713
  156.4371  130.7843  151.2864 LP  0  0  0  0  0  0  0  0  0  0  0  0  # atno 17371 bound_to 10713
  141.1439  133.6559  156.3810 LP  0  0  0  0  0  0  0  0  0  0  0  0  # atno 17394 bound_to 11000
  140.5189  134.6323  157.5311 LP  0  0  0  0  0  0  0  0  0  0  0  0  # atno 17395 bound_to 11000

$$$$
