AV-unprocessed.smi:104|AV-procd|sdf|994|dock4
  -GOLD-   2262017573D 1   1.00000     0.00000
 Structure written by MMmdl.
 47 49  0  0  0  0  0  0  0  0  1 V2000
  147.4168  142.0682  154.2813 C   0  0  0  0  0  0  0  0  0  0  0  0
  148.5413  141.0476  154.4030 C   0  0  0  0  0  0  0  0  0  0  0  0
  149.6184  141.2101  153.8298 O   0  0  0  0  0  0  0  0  0  0  0  0
  148.2109  140.0090  155.1854 O   0  0  0  0  0  0  0  0  0  0  0  0
  149.1358  138.9523  155.3880 C   0  0  0  0  0  0  0  0  0  0  0  0
  149.5361  138.8849  156.8729 C   0  0  1  0  0  0  0  0  0  0  0  0
  148.4137  138.3751  157.5946 O   0  0  0  0  0  0  0  0  0  0  0  0
  148.7426  137.1752  158.2265 C   0  0  1  0  0  0  0  0  0  0  0  0
  147.5792  136.2340  158.1586 N   0  0  0  0  0  0  0  0  0  0  0  0
  146.9108  135.6310  159.1986 C   0  0  0  0  0  0  0  0  0  0  0  0
  147.3973  135.9233  161.0158 Br  0  0  0  0  0  0  0  0  0  0  0  0
  145.9368  134.8206  158.8938 N   0  0  0  0  0  0  0  0  0  0  0  0
  145.9373  134.8531  157.5050 C   0  0  0  0  0  0  0  0  0  0  0  0
  145.1648  134.2085  156.5063 C   0  0  0  0  0  0  0  0  0  0  0  0
  144.1702  133.3552  156.7882 N   0  0  0  0  0  0  0  0  0  0  0  0
  145.4466  134.4612  155.2070 N   0  0  0  0  0  0  0  0  0  0  0  0
  146.4365  135.3052  154.8988 C   0  0  0  0  0  0  0  0  0  0  0  0
  147.2421  135.9833  155.7200 N   0  0  0  0  0  0  0  0  0  0  0  0
  146.9568  135.7313  157.0315 C   0  0  0  0  0  0  0  0  0  0  0  0
  149.9978  136.6264  157.5367 C   0  0  1  0  0  0  0  0  0  0  0  0
  149.6711  135.8871  156.3594 O   0  0  0  0  0  0  0  0  0  0  0  0
  149.8303  134.5524  156.3157 C   0  0  0  0  0  0  0  0  0  0  0  0
  149.5739  133.9857  154.9261 C   0  0  0  0  0  0  0  0  0  0  0  0
  150.1251  133.8243  157.2633 O   0  0  0  0  0  0  0  0  0  0  0  0
  150.6986  137.9291  157.2022 C   0  0  1  0  0  0  0  0  0  0  0  0
  151.6694  137.7562  156.1747 O   0  0  0  0  0  0  0  0  0  0  0  0
  152.3546  138.8119  155.7038 C   0  0  0  0  0  0  0  0  0  0  0  0
  152.9567  138.5458  154.3309 C   0  0  0  0  0  0  0  0  0  0  0  0
  152.4943  139.8963  156.2691 O   0  0  0  0  0  0  0  0  0  0  0  0
  146.4891  141.6797  154.7026 H   0  0  0  0  0  0  0  0  0  0  0  0
  147.2426  142.3142  153.2338 H   0  0  0  0  0  0  0  0  0  0  0  0
  147.6806  142.9827  154.8126 H   0  0  0  0  0  0  0  0  0  0  0  0
  148.6497  138.0215  155.0938 H   0  0  0  0  0  0  0  0  0  0  0  0
  150.0184  139.0660  154.7575 H   0  0  0  0  0  0  0  0  0  0  0  0
  149.7552  139.8895  157.2365 H   0  0  0  0  0  0  0  0  0  0  0  0
  148.8973  137.3693  159.2880 H   0  0  0  0  0  0  0  0  0  0  0  0
  143.9430  133.1469  157.7500 H   0  0  0  0  0  0  0  0  0  0  0  0
  143.6502  132.9216  156.0392 H   0  0  0  0  0  0  0  0  0  0  0  0
  146.6080  135.4597  153.8437 H   0  0  0  0  0  0  0  0  0  0  0  0
  150.5823  136.0330  158.2410 H   0  0  0  0  0  0  0  0  0  0  0  0
  148.7288  134.4917  154.4584 H   0  0  0  0  0  0  0  0  0  0  0  0
  149.3471  132.9208  154.9848 H   0  0  0  0  0  0  0  0  0  0  0  0
  150.4523  134.1197  154.2949 H   0  0  0  0  0  0  0  0  0  0  0  0
  151.1811  138.2756  158.1180 H   0  0  0  0  0  0  0  0  0  0  0  0
  153.4442  137.5710  154.3103 H   0  0  0  0  0  0  0  0  0  0  0  0
  153.6966  139.3072  154.0833 H   0  0  0  0  0  0  0  0  0  0  0  0
  152.1772  138.5600  153.5692 H   0  0  0  0  0  0  0  0  0  0  0  0
  1  2  1  0  0  0  0
  1 30  1  0  0  0  0
  1 31  1  0  0  0  0
  1 32  1  0  0  0  0
  2  3  2  0  0  0  0
  2  4  1  0  0  0  0
  4  5  1  0  0  0  0
  5  6  1  0  0  0  0
  5 33  1  0  0  0  0
  5 34  1  0  0  0  0
  6 25  1  0  0  0  0
  6  7  1  0  0  0  0
  6 35  1  0  0  0  0
  7  8  1  0  0  0  0
  8  9  1  0  0  0  0
  8 20  1  0  0  0  0
  8 36  1  0  0  0  0
  9 19  1  0  0  0  0
  9 10  1  0  0  0  0
 10 11  1  0  0  0  0
 10 12  2  0  0  0  0
 12 13  1  0  0  0  0
 13 19  2  0  0  0  0
 13 14  1  0  0  0  0
 14 15  1  0  0  0  0
 14 16  2  0  0  0  0
 15 37  1  0  0  0  0
 15 38  1  0  0  0  0
 16 17  1  0  0  0  0
 17 18  2  0  0  0  0
 17 39  1  0  0  0  0
 18 19  1  0  0  0  0
 20 21  1  0  0  0  0
 20 25  1  0  0  0  0
 20 40  1  0  0  0  0
 21 22  1  0  0  0  0
 22 23  1  0  0  0  0
 22 24  2  0  0  0  0
 23 41  1  0  0  0  0
 23 42  1  0  0  0  0
 23 43  1  0  0  0  0
 25 26  1  0  0  0  0
 25 44  1  0  0  0  0
 26 27  1  0  0  0  0
 27 28  1  0  0  0  0
 27 29  2  0  0  0  0
 28 45  1  0  0  0  0
 28 46  1  0  0  0  0
 28 47  1  0  0  0  0
M  END
> <s_m_source_file>
AV-unprocessed.smi

> <i_m_source_file_index>
104

> <i_lp_mmshare_version>
43012

> <i_f3d_flags>
0

> <s_epik_input>
W0NIM11DKD1PKU9bQ0gyXVtDQEBIXTFPW0NASF0oW0NAQEhdKE9DKD1PKVtDSDNdKVtDQEhdMU9DKD1PKVtDSDNdKW4oYyhCciluMiljKGMyMyluW2NIXW5jM1tOSDJd

> <s_epik_cmdline>
J2VwaWtfcHl0aG9uJywgJy1waCcsICc3LjAnLCAnLXRuJywgJzgnLCAnLW1hJywgJzIwMCcsICctbWV0YWxfYmluZGluZycsICctaW1hZScsICc8aW5maWxlLm1hZT4nLCAnLW9tYWUnLCAnPG91dGZpbGUubWFlPic=

> <r_lp_tautomer_probability>
1

> <r_epik_Ionization_Penalty>
7.36622e-05

> <r_epik_Ionization_Penalty_Charging>
0

> <r_epik_Ionization_Penalty_Neutral>
7.36622e-05

> <r_epik_State_Penalty>
-0

> <r_epik_Charging_Adjusted_Penalty>
0

> <i_epik_Tot_Q>
0

> <i_epik_Tot_abs_Q>
0

> <r_epik_Metal_State_Penalty>
-0

> <b_epik_Metal_Only>
0

> <s_epik_Chemistry_Notes>
This compound has an ester and may undergo hydrolysis at high or low pH. This compound contains an acetal/aminal-like group ( X-CH(R)-Y where X, Y are N, S, or O) that may be acid/base labile, releasing an aldehyde.

> <s_lp_Force_Field>
OPLS_2005

> <r_lp_Energy>
22.6214

> <b_lp_Chiralities_Consistent>
1

> <s_lp_Variant>
AV-unprocessed.smi:104-2

> <Gold.Version>
5.8.1

> <Gold.Id.Protein>
6NUR|6NUR_protein|mol2

> <Gold.PLP.Fitness>
36.0648

> <Gold.PLP.PLP>
-26.5144

> <Gold.PLP.part.hbond>
-5.0000

> <Gold.PLP.part.metal>
0.0000

> <Gold.PLP.part.buried>
-4.5484

> <Gold.PLP.part.nonpolar>
-17.6298

> <Gold.PLP.part.repulsive>
1.8837

> <Gold.PLP.ligand.clash>
0.0000

> <Gold.PLP.ligand.torsion>
1.4062

> <Gold.PLP.Chemscore.Hbond>
3.9840

> <Gold.PLP.Chemscore.CHOScore>
0.0000

> <Gold.PLP.Chemscore.Metal>
0.0000

> <Gold.Chemscore.Hbonds>
donor molecule, donor type, donor heavy atom, donor atom, acceptor molecule, acceptor atom, score
      L1  H    15    38       P1 10957  1.00
      P1  H  6896  6907       L1    24  0.44
      P1  H  7989  7998       L1     3  0.29
      P1  H  7997  8009       L1    29  1.00
      P1  H  8011  8017       L1     3  0.85

> <Gold.PLP.Chemscore.Internal.Correction>
0.4108

> <Gold.Rescore>
     Score         DG    S(hbond)    S(metal)    S(lipo)     H(rot)  DE(clash)    DE(int)     intcor
      5.89     -11.92       3.81        0.00      40.40       4.31       1.32       4.71       ----

> <Gold.Chemscore.Fitness>
5.8881

> <Gold.Chemscore.DG>
-11.9210

> <Gold.Chemscore.ZeroCoef>
-5.4800

> <Gold.Chemscore.Hbond>
3.8145

> <Gold.Chemscore.Metal>
0.0000

> <Gold.Chemscore.Lipo>
40.3980

> <Gold.Chemscore.Internal_Hbond>
0.0000

> <Gold.Chemscore.DEClash>
1.3239

> <Gold.Chemscore.DEInternal>
4.7089

> <Gold.Chemscore.Rot>
4.3070

> <Gold.Chemscore.Internal.Correction>
   9.000000E+99

> <Gold.Chemscore.Hbonds>
donor molecule, donor type, donor heavy atom, donor atom, acceptor molecule, acceptor atom, score
      L1  H    15    38       P1 10957  0.99
      P1  H  6896  6907       L1    24  0.43
      P1  H  7989  7998       L1     3  0.28
      P1  H  7997  8009       L1    29  0.45
      P1  H  8011  8017       L1     3  0.84

> <Gold.Chemscore.Hbond.Weighted>
-12.7403

> <Gold.Chemscore.Metal.Weighted>
-0.0000

> <Gold.Chemscore.Lipo.Weighted>
-4.7266

> <Gold.Chemscore.Internal_Hbond.Weighted>
0.0000

> <Gold.Chemscore.DEClash.Weighted>
1.3239

> <Gold.Chemscore.DEInternal.Weighted>
4.7089

> <Gold.Chemscore.Rot.Weighted>
11.0259

> <Gold.Chemscore.Internal.Correction.Weighted>
   9.000000E+99

> <Gold.Protein.RotatedTorsions>
[ 6907 6896 6895 6894 ] final -145.20 input  -60.11 | X-H torsion
[ 7974 7965 7964 7962 ] final  -92.40 input  175.53 | X-H torsion
[ 8008 7997 7996 7995 ] final -160.84 input   59.86 | X-H torsion
[ 10167 10162 10161 10158 ] final -105.81 input  -65.29 | X-H torsion
[ 10718 10713 10712 10709 ] final -108.44 input   66.30 | X-H torsion
[ 10763 10752 10751 10750 ] final -142.68 input  -60.55 | X-H torsion
[ 11005 11000 10999 10996 ] final -118.11 input  -57.11 | X-H torsion

> <Gold.Protein.ActiveResidues>
 VAL166  LYS551  ARG553  GLY616  TRP617  ASP618  TYR619  PRO620  LYS621  CYS622 
 ASP623  PHE694  ASN695  SER759  ASP760  ASP761  ALA762  ILE779  LEU786  VAL792 
 PHE793  MET794  SER795  GLU796  ALA797  LYS798  CYS799  TRP800  GLU811  SER814 

> <Gold.Protein.RotatedAtoms>
  151.1245  133.5080  159.2600 H   0  0  0  0  0  0  0  0  0  0  0  0  # atno 6907 bound_to 6896
  151.1824  135.0366  159.8808 H   0  0  0  0  0  0  0  0  0  0  0  0  # atno 6908 bound_to 6896
  152.5457  134.1096  159.8406 H   0  0  0  0  0  0  0  0  0  0  0  0  # atno 6909 bound_to 6896
  145.4004  140.9537  143.2290 H   0  0  0  0  0  0  0  0  0  0  0  0  # atno 7974 bound_to 7965
  155.7834  140.0868  157.2047 H   0  0  0  0  0  0  0  0  0  0  0  0  # atno 8008 bound_to 7997
  154.3989  140.1503  156.3136 H   0  0  0  0  0  0  0  0  0  0  0  0  # atno 8009 bound_to 7997
  155.8631  140.3429  155.5772 H   0  0  0  0  0  0  0  0  0  0  0  0  # atno 8010 bound_to 7997
  140.1946  143.3866  152.1179 H   0  0  0  0  0  0  0  0  0  0  0  0  # atno 10167 bound_to 10162
  156.0486  130.5713  150.7961 H   0  0  0  0  0  0  0  0  0  0  0  0  # atno 10718 bound_to 10713
  154.8499  135.3489  154.6067 H   0  0  0  0  0  0  0  0  0  0  0  0  # atno 10763 bound_to 10752
  153.6675  135.6986  153.5162 H   0  0  0  0  0  0  0  0  0  0  0  0  # atno 10764 bound_to 10752
  153.2768  135.4276  155.0998 H   0  0  0  0  0  0  0  0  0  0  0  0  # atno 10765 bound_to 10752
  141.0308  133.9984  157.3145 H   0  0  0  0  0  0  0  0  0  0  0  0  # atno 11005 bound_to 11000
  144.8378  139.5521  143.6914 LP  0  0  0  0  0  0  0  0  0  0  0  0  # atno 17320 bound_to 7965
  146.2755  139.6741  142.9266 LP  0  0  0  0  0  0  0  0  0  0  0  0  # atno 17321 bound_to 7965
  139.5242  144.7081  151.5292 LP  0  0  0  0  0  0  0  0  0  0  0  0  # atno 17342 bound_to 10162
  140.6433  143.8846  150.6712 LP  0  0  0  0  0  0  0  0  0  0  0  0  # atno 17343 bound_to 10162
  157.5388  131.0940  150.9856 LP  0  0  0  0  0  0  0  0  0  0  0  0  # atno 17370 bound_to 10713
  157.0144  130.5649  149.5324 LP  0  0  0  0  0  0  0  0  0  0  0  0  # atno 17371 bound_to 10713
  139.9207  135.0200  156.8052 LP  0  0  0  0  0  0  0  0  0  0  0  0  # atno 17394 bound_to 11000
  140.6410  133.9819  155.7707 LP  0  0  0  0  0  0  0  0  0  0  0  0  # atno 17395 bound_to 11000

$$$$
