AV-unprocessed.smi:3055|AV-procd|sdf|11642|dock8
  -GOLD-   2272017 33D 1   1.00000     0.00000
 Structure written by MMmdl.
 48 50  0  0  0  0  0  0  0  0  3 V2000
  148.7738  140.9570  155.9531 O   0  0  0  0  0  0  0  0  0  0  0  0
  149.9686  140.6626  155.9026 C   0  0  0  0  0  0  0  0  0  0  0  0
  150.8885  141.2899  156.6524 N   0  0  0  0  0  0  0  0  0  0  0  0
  150.5963  142.3573  157.6007 C   0  0  0  0  0  0  0  0  0  0  0  0
  151.7758  142.5922  158.5572 C   0  0  0  0  0  0  0  0  0  0  0  0
  151.5232  143.6862  159.5000 N   0  0  0  0  0  0  0  0  0  0  0  0
  151.1359  144.9667  159.1991 C   0  0  0  0  0  0  0  0  0  0  0  0
  151.0205  145.6309  160.3931 C   0  0  0  0  0  0  0  0  0  0  0  0
  151.3405  144.7281  161.3716 N   0  3  0  0  0  0  0  0  0  0  0  0
  151.6448  143.5456  160.8266 C   0  0  0  0  0  0  0  0  0  0  0  0
  150.4638  139.7052  155.0778 N   0  0  0  0  0  0  0  0  0  0  0  0
  151.8840  139.3683  154.8915 C   0  0  0  0  0  0  0  0  0  0  0  0
  152.1787  138.0749  155.6694 C   0  0  0  0  0  0  0  0  0  0  0  0
  151.2372  136.9363  155.2293 C   0  0  0  0  0  0  0  0  0  0  0  0
  149.7448  137.3621  155.2447 C   0  0  2  0  0  0  0  0  0  0  0  0
  148.8589  136.3035  154.6843 N   0  3  0  0  0  0  0  0  0  0  0  0
  149.0865  134.9392  155.2092 C   0  0  0  0  0  0  0  0  0  0  0  0
  147.7915  134.1849  154.9318 C   0  0  0  0  0  0  0  0  0  0  0  0
  146.7241  135.2447  155.1738 C   0  0  0  0  0  0  0  0  0  0  0  0
  147.4029  136.5716  154.8082 C   0  0  0  0  0  0  0  0  0  0  0  0
  149.5958  138.6923  154.4643 C   0  0  0  0  0  0  0  0  0  0  0  0
  151.8516  141.0021  156.5624 H   0  0  0  0  0  0  0  0  0  0  0  0
  150.3557  143.2760  157.0630 H   0  0  0  0  0  0  0  0  0  0  0  0
  149.7106  142.0847  158.1761 H   0  0  0  0  0  0  0  0  0  0  0  0
  151.9641  141.6934  159.1456 H   0  0  0  0  0  0  0  0  0  0  0  0
  152.6916  142.8067  158.0041 H   0  0  0  0  0  0  0  0  0  0  0  0
  150.9765  145.3013  158.1842 H   0  0  0  0  0  0  0  0  0  0  0  0
  150.7412  146.6509  160.6134 H   0  0  0  0  0  0  0  0  0  0  0  0
  151.9330  142.6545  161.3553 H   0  0  0  0  0  0  0  0  0  0  0  0
  152.0823  139.2176  153.8292 H   0  0  0  0  0  0  0  0  0  0  0  0
  152.5715  140.1551  155.2019 H   0  0  0  0  0  0  0  0  0  0  0  0
  153.2173  137.7769  155.5233 H   0  0  0  0  0  0  0  0  0  0  0  0
  152.0564  138.2573  156.7381 H   0  0  0  0  0  0  0  0  0  0  0  0
  151.5124  136.6238  154.2207 H   0  0  0  0  0  0  0  0  0  0  0  0
  151.4045  136.0746  155.8754 H   0  0  0  0  0  0  0  0  0  0  0  0
  149.4477  137.5298  156.2818 H   0  0  0  0  0  0  0  0  0  0  0  0
  149.9482  134.4605  154.7431 H   0  0  0  0  0  0  0  0  0  0  0  0
  149.2607  134.9823  156.2857 H   0  0  0  0  0  0  0  0  0  0  0  0
  147.7653  133.8598  153.8908 H   0  0  0  0  0  0  0  0  0  0  0  0
  147.6683  133.3054  155.5645 H   0  0  0  0  0  0  0  0  0  0  0  0
  145.8161  135.0635  154.5981 H   0  0  0  0  0  0  0  0  0  0  0  0
  146.4504  135.2527  156.2299 H   0  0  0  0  0  0  0  0  0  0  0  0
  147.1883  137.3182  155.5743 H   0  0  0  0  0  0  0  0  0  0  0  0
  147.0314  136.9562  153.8579 H   0  0  0  0  0  0  0  0  0  0  0  0
  148.5576  139.0237  154.4307 H   0  0  0  0  0  0  0  0  0  0  0  0
  149.8843  138.5505  153.4216 H   0  0  0  0  0  0  0  0  0  0  0  0
  149.0481  136.2513  153.6934 H   0  0  0  0  0  0  0  0  0  0  0  0
  151.3439  144.9238  162.3649 H   0  0  0  0  0  0  0  0  0  0  0  0
  1  2  2  0  0  0  0
  2  3  1  0  0  0  0
  2 11  1  0  0  0  0
  3  4  1  0  0  0  0
  3 22  1  0  0  0  0
  4  5  1  0  0  0  0
  4 23  1  0  0  0  0
  4 24  1  0  0  0  0
  5  6  1  0  0  0  0
  5 25  1  0  0  0  0
  5 26  1  0  0  0  0
  6 10  1  0  0  0  0
  6  7  1  0  0  0  0
  7  8  2  0  0  0  0
  7 27  1  0  0  0  0
  8  9  1  0  0  0  0
  8 28  1  0  0  0  0
  9 10  2  0  0  0  0
  9 48  1  0  0  0  0
 10 29  1  0  0  0  0
 11 21  1  0  0  0  0
 11 12  1  0  0  0  0
 12 13  1  0  0  0  0
 12 30  1  0  0  0  0
 12 31  1  0  0  0  0
 13 14  1  0  0  0  0
 13 32  1  0  0  0  0
 13 33  1  0  0  0  0
 14 15  1  0  0  0  0
 14 34  1  0  0  0  0
 14 35  1  0  0  0  0
 15 16  1  0  0  0  0
 15 21  1  0  0  0  0
 15 36  1  0  0  0  0
 16 20  1  0  0  0  0
 16 17  1  0  0  0  0
 16 47  1  0  0  0  0
 17 18  1  0  0  0  0
 17 37  1  0  0  0  0
 17 38  1  0  0  0  0
 18 19  1  0  0  0  0
 18 39  1  0  0  0  0
 18 40  1  0  0  0  0
 19 20  1  0  0  0  0
 19 41  1  0  0  0  0
 19 42  1  0  0  0  0
 20 43  1  0  0  0  0
 20 44  1  0  0  0  0
 21 45  1  0  0  0  0
 21 46  1  0  0  0  0
M  CHG  1   9   1
M  CHG  1  16   1
M  END
> <s_m_source_file>
AV-unprocessed.smi

> <i_m_source_file_index>
3055

> <i_lp_mmshare_version>
43012

> <i_f3d_flags>
0

> <s_epik_input>
W2NIXTFuW2NIXVtjSF1uMVtDSDJdW0NIMl1bTkhdQyg9TylOMltDSDJdW0NIMl1bQ0gyXVtDQEhdKFtDSDJdMilOM1tDSDJdW0NIMl1bQ0gyXVtDSDJdMw==

> <s_epik_cmdline>
J2VwaWtfcHl0aG9uJywgJy1waCcsICc3LjAnLCAnLXRuJywgJzgnLCAnLW1hJywgJzIwMCcsICctbWV0YWxfYmluZGluZycsICctaW1hZScsICc8aW5maWxlLm1hZT4nLCAnLW9tYWUnLCAnPG91dGZpbGUubWFlPic=

> <r_lp_tautomer_probability>
1

> <r_epik_Ionization_Penalty>
0.259176

> <r_epik_Ionization_Penalty_Charging>
0.00125522

> <r_epik_Ionization_Penalty_Neutral>
0.257921

> <r_epik_State_Penalty>
0.249312

> <r_epik_Charging_Adjusted_Penalty>
0.250567

> <i_epik_Tot_Q>
2

> <i_epik_Tot_abs_Q>
2

> <r_epik_Metal_State_Penalty>
0.53666

> <b_epik_Metal_Only>
0

> <s_lp_Force_Field>
OPLS_2005

> <r_lp_Energy>
60.4865

> <b_lp_Chiralities_Consistent>
1

> <s_lp_Variant>
AV-unprocessed.smi:3055-2

> <Gold.Version>
5.8.1

> <Gold.Id.Protein>
6NUR|6NUR_protein|mol2

> <Gold.PLP.Fitness>
46.5724

> <Gold.PLP.PLP>
-41.0808

> <Gold.PLP.part.hbond>
-2.0000

> <Gold.PLP.part.metal>
0.0000

> <Gold.PLP.part.buried>
-4.1309

> <Gold.PLP.part.nonpolar>
-35.3812

> <Gold.PLP.part.repulsive>
0.3043

> <Gold.PLP.ligand.clash>
0.0000

> <Gold.PLP.ligand.torsion>
0.2878

> <Gold.PLP.Chemscore.Hbond>
2.0000

> <Gold.PLP.Chemscore.CHOScore>
0.0000

> <Gold.PLP.Chemscore.Metal>
0.0000

> <Gold.Chemscore.Hbonds>
donor molecule, donor type, donor heavy atom, donor atom, acceptor molecule, acceptor atom, score
      L1  H    16    47       P1  7948  2.00

> <Gold.PLP.Chemscore.Internal.Correction>
0.0671

> <Gold.Rescore>
     Score         DG    S(hbond)    S(metal)    S(lipo)     H(rot)  DE(clash)    DE(int)     intcor
     12.98     -13.37       1.00        0.00      79.92       1.87       0.17       0.22       ----

> <Gold.Chemscore.Fitness>
12.9769

> <Gold.Chemscore.DG>
-13.3651

> <Gold.Chemscore.ZeroCoef>
-5.4800

> <Gold.Chemscore.Hbond>
0.9968

> <Gold.Chemscore.Metal>
0.0000

> <Gold.Chemscore.Lipo>
79.9242

> <Gold.Chemscore.Internal_Hbond>
0.0000

> <Gold.Chemscore.DEClash>
0.1673

> <Gold.Chemscore.DEInternal>
0.2209

> <Gold.Chemscore.Rot>
1.8732

> <Gold.Chemscore.Internal.Correction>
   9.000000E+99

> <Gold.Chemscore.Hbonds>
donor molecule, donor type, donor heavy atom, donor atom, acceptor molecule, acceptor atom, score
      L1  H    16    47       P1  7948  0.98

> <Gold.Chemscore.Hbond.Weighted>
-3.3294

> <Gold.Chemscore.Metal.Weighted>
-0.0000

> <Gold.Chemscore.Lipo.Weighted>
-9.3511

> <Gold.Chemscore.Internal_Hbond.Weighted>
0.0000

> <Gold.Chemscore.DEClash.Weighted>
0.1673

> <Gold.Chemscore.DEInternal.Weighted>
0.2209

> <Gold.Chemscore.Rot.Weighted>
4.7954

> <Gold.Chemscore.Internal.Correction.Weighted>
   9.000000E+99

> <Gold.Protein.RotatedTorsions>
[ 6907 6896 6895 6894 ] final  -95.52 input  -60.11 | X-H torsion
[ 7974 7965 7964 7962 ] final  178.62 input  175.53 | X-H torsion
[ 8008 7997 7996 7995 ] final -131.84 input   59.86 | X-H torsion
[ 10167 10162 10161 10158 ] final  143.44 input  -65.29 | X-H torsion
[ 10718 10713 10712 10709 ] final   16.13 input   66.30 | X-H torsion
[ 10763 10752 10751 10750 ] final  119.84 input  -60.55 | X-H torsion
[ 11005 11000 10999 10996 ] final   16.47 input  -57.11 | X-H torsion

> <Gold.Protein.ActiveResidues>
 VAL166  LYS551  ARG553  GLY616  TRP617  ASP618  TYR619  PRO620  LYS621  CYS622 
 ASP623  PHE694  ASN695  SER759  ASP760  ASP761  ALA762  ILE779  LEU786  VAL792 
 PHE793  MET794  SER795  GLU796  ALA797  LYS798  CYS799  TRP800  GLU811  SER814 

> <Gold.Protein.RotatedAtoms>
  150.6966  134.1645  159.4188 H   0  0  0  0  0  0  0  0  0  0  0  0  # atno 6907 bound_to 6896
  151.9625  135.0114  160.0557 H   0  0  0  0  0  0  0  0  0  0  0  0  # atno 6908 bound_to 6896
  152.1914  133.4741  159.5047 H   0  0  0  0  0  0  0  0  0  0  0  0  # atno 6909 bound_to 6896
  144.7154  140.0425  143.6437 H   0  0  0  0  0  0  0  0  0  0  0  0  # atno 7974 bound_to 7965
  155.3189  140.0461  157.3038 H   0  0  0  0  0  0  0  0  0  0  0  0  # atno 8008 bound_to 7997
  154.5391  140.2282  155.8638 H   0  0  0  0  0  0  0  0  0  0  0  0  # atno 8009 bound_to 7997
  156.1863  140.3061  155.9252 H   0  0  0  0  0  0  0  0  0  0  0  0  # atno 8010 bound_to 7997
  139.4969  144.6040  151.6419 H   0  0  0  0  0  0  0  0  0  0  0  0  # atno 10167 bound_to 10162
  157.0634  130.6318  149.5790 H   0  0  0  0  0  0  0  0  0  0  0  0  # atno 10718 bound_to 10713
  153.5893  135.3469  155.2904 H   0  0  0  0  0  0  0  0  0  0  0  0  # atno 10763 bound_to 10752
  154.8655  135.4201  154.2534 H   0  0  0  0  0  0  0  0  0  0  0  0  # atno 10764 bound_to 10752
  153.3338  135.7046  153.6996 H   0  0  0  0  0  0  0  0  0  0  0  0  # atno 10765 bound_to 10752
  140.4467  134.1266  155.7697 H   0  0  0  0  0  0  0  0  0  0  0  0  # atno 11005 bound_to 11000
  146.0012  139.3092  143.0927 LP  0  0  0  0  0  0  0  0  0  0  0  0  # atno 17320 bound_to 7965
  145.8791  140.9373  143.0610 LP  0  0  0  0  0  0  0  0  0  0  0  0  # atno 17321 bound_to 7965
  140.5697  144.0130  150.6210 LP  0  0  0  0  0  0  0  0  0  0  0  0  # atno 17342 bound_to 10162
  140.3243  143.3117  152.0752 LP  0  0  0  0  0  0  0  0  0  0  0  0  # atno 17343 bound_to 10162
  155.9971  130.5042  150.7524 LP  0  0  0  0  0  0  0  0  0  0  0  0  # atno 17370 bound_to 10713
  157.4936  131.0913  151.0398 LP  0  0  0  0  0  0  0  0  0  0  0  0  # atno 17371 bound_to 10713
  141.1682  133.8662  157.1652 LP  0  0  0  0  0  0  0  0  0  0  0  0  # atno 17394 bound_to 11000
  140.0033  135.0019  157.0238 LP  0  0  0  0  0  0  0  0  0  0  0  0  # atno 17395 bound_to 11000

$$$$
