AV-unprocessed.smi:11|AV-procd|sdf|56|dock7
  -GOLD-   2262015173D 1   1.00000     0.00000
 Structure written by MMmdl.
 33 35  0  0  0  0  0  0  0  0  1 V2000
  147.2167  141.6099  155.6705 C   0  0  0  0  0  0  0  0  0  0  0  0
  148.1870  140.4326  155.4721 C   0  0  0  0  0  0  0  0  0  0  0  0
  149.5301  140.7895  154.7874 C   0  0  2  0  0  0  0  0  0  0  0  0
  149.2559  141.3630  153.5239 O   0  0  0  0  0  0  0  0  0  0  0  0
  150.4171  139.5494  154.6094 C   0  0  0  0  0  0  0  0  0  0  0  0
  151.1835  139.4734  155.9282 C   0  0  0  0  0  0  0  0  0  0  0  0
  151.3668  140.8608  156.3286 N   0  0  0  0  0  0  0  0  0  0  0  0
  151.8269  141.1931  157.6192 C   0  0  0  0  0  0  0  0  0  0  0  0
  152.2745  140.1880  158.4156 N   0  0  0  0  0  0  0  0  0  0  0  0
  152.7138  140.4577  159.6480 C   0  0  0  0  0  0  0  0  0  0  0  0
  152.7943  141.6381  160.2659 N   0  0  0  0  0  0  0  0  0  0  0  0
  152.3599  142.6490  159.4622 C   0  0  0  0  0  0  0  0  0  0  0  0
  152.3118  143.9925  159.7697 N   0  0  0  0  0  0  0  0  0  0  0  0
  151.8231  144.7142  158.6951 C   0  0  0  0  0  0  0  0  0  0  0  0
  151.5422  143.8499  157.6678 C   0  0  0  0  0  0  0  0  0  0  0  0
  151.8652  142.5232  158.1315 C   0  0  0  0  0  0  0  0  0  0  0  0
  150.4195  141.7217  155.6333 C   0  0  0  0  0  0  0  0  0  0  0  0
  152.5919  144.4149  160.6431 H   0  0  0  0  0  0  0  0  0  0  0  0
  146.2906  141.2662  156.1315 H   0  0  0  0  0  0  0  0  0  0  0  0
  146.9532  142.0769  154.7216 H   0  0  0  0  0  0  0  0  0  0  0  0
  147.6336  142.3791  156.3193 H   0  0  0  0  0  0  0  0  0  0  0  0
  148.3814  139.9769  156.4436 H   0  0  0  0  0  0  0  0  0  0  0  0
  147.6790  139.6681  154.8827 H   0  0  0  0  0  0  0  0  0  0  0  0
  149.5895  140.7854  152.8545 H   0  0  0  0  0  0  0  0  0  0  0  0
  149.8589  138.6391  154.3884 H   0  0  0  0  0  0  0  0  0  0  0  0
  151.1281  139.7057  153.7962 H   0  0  0  0  0  0  0  0  0  0  0  0
  150.5964  138.9433  156.6793 H   0  0  0  0  0  0  0  0  0  0  0  0
  152.1386  138.9600  155.8122 H   0  0  0  0  0  0  0  0  0  0  0  0
  153.0476  139.6057  160.2216 H   0  0  0  0  0  0  0  0  0  0  0  0
  151.7173  145.7879  158.7479 H   0  0  0  0  0  0  0  0  0  0  0  0
  151.1528  144.1124  156.6959 H   0  0  0  0  0  0  0  0  0  0  0  0
  150.9893  142.3988  154.9956 H   0  0  0  0  0  0  0  0  0  0  0  0
  149.8361  142.3267  156.3260 H   0  0  0  0  0  0  0  0  0  0  0  0
  1  2  1  0  0  0  0
  1 19  1  0  0  0  0
  1 20  1  0  0  0  0
  1 21  1  0  0  0  0
  2  3  1  0  0  0  0
  2 22  1  0  0  0  0
  2 23  1  0  0  0  0
  3 17  1  0  0  0  0
  3  4  1  0  0  0  0
  3  5  1  0  0  0  0
  4 24  1  0  0  0  0
  5  6  1  0  0  0  0
  5 25  1  0  0  0  0
  5 26  1  0  0  0  0
  6  7  1  0  0  0  0
  6 27  1  0  0  0  0
  6 28  1  0  0  0  0
  7  8  1  0  0  0  0
  7 17  1  0  0  0  0
  8 16  1  0  0  0  0
  8  9  2  0  0  0  0
  9 10  1  0  0  0  0
 10 11  2  0  0  0  0
 10 29  1  0  0  0  0
 11 12  1  0  0  0  0
 12 16  2  0  0  0  0
 12 13  1  0  0  0  0
 13 18  1  0  0  0  0
 13 14  1  0  0  0  0
 14 15  2  0  0  0  0
 14 30  1  0  0  0  0
 15 16  1  0  0  0  0
 15 31  1  0  0  0  0
 17 32  1  0  0  0  0
 17 33  1  0  0  0  0
M  END
> <s_m_source_file>
AV-unprocessed.smi

> <i_m_source_file_index>
11

> <i_lp_mmshare_version>
43012

> <i_f3d_flags>
0

> <s_epik_input>
W0NIM11bQ0gyXVtDQEBdMShbT0hdKVtDSDJdW0NIMl1OKFtDSDJdMSljKG5bY0hdbjIpYyhjMjMpW2NIXVtjSF1bbkhdMw==

> <s_epik_cmdline>
J2VwaWtfcHl0aG9uJywgJy1waCcsICc3LjAnLCAnLXRuJywgJzgnLCAnLW1hJywgJzIwMCcsICctbWV0YWxfYmluZGluZycsICctaW1hZScsICc8aW5maWxlLm1hZT4nLCAnLW9tYWUnLCAnPG91dGZpbGUubWFlPic=

> <r_lp_tautomer_probability>
0.999998

> <r_epik_Ionization_Penalty>
0.0511253

> <r_epik_Ionization_Penalty_Charging>
0

> <r_epik_Ionization_Penalty_Neutral>
0.0511253

> <r_epik_State_Penalty>
0.0394181

> <r_epik_Charging_Adjusted_Penalty>
0.0394181

> <i_epik_Tot_Q>
0

> <i_epik_Tot_abs_Q>
0

> <r_epik_Metal_State_Penalty>
0.0367127

> <b_epik_Metal_Only>
0

> <s_lp_Force_Field>
OPLS_2005

> <r_lp_Energy>
27.4112

> <b_lp_Chiralities_Consistent>
1

> <s_lp_Variant>
AV-unprocessed.smi:11-2

> <Gold.Version>
5.8.1

> <Gold.Id.Protein>
6NUR|6NUR_protein|mol2

> <Gold.PLP.Fitness>
40.1478

> <Gold.PLP.PLP>
-37.2103

> <Gold.PLP.part.hbond>
-3.0000

> <Gold.PLP.part.metal>
0.0000

> <Gold.PLP.part.buried>
-5.1350

> <Gold.PLP.part.nonpolar>
-28.1239

> <Gold.PLP.part.repulsive>
0.0265

> <Gold.PLP.ligand.clash>
0.0000

> <Gold.PLP.ligand.torsion>
0.1591

> <Gold.PLP.Chemscore.Hbond>
1.0000

> <Gold.PLP.Chemscore.CHOScore>
0.0000

> <Gold.PLP.Chemscore.Metal>
0.0000

> <Gold.Chemscore.Hbonds>
donor molecule, donor type, donor heavy atom, donor atom, acceptor molecule, acceptor atom, score
      L1  H     4    24       P1  7957  1.00

> <Gold.PLP.Chemscore.Internal.Correction>
0.2557

> <Gold.Rescore>
     Score         DG    S(hbond)    S(metal)    S(lipo)     H(rot)  DE(clash)    DE(int)     intcor
     13.20     -13.45       0.99        0.00      71.21       1.43       0.10       0.15       ----

> <Gold.Chemscore.Fitness>
13.1978

> <Gold.Chemscore.DG>
-13.4488

> <Gold.Chemscore.ZeroCoef>
-5.4800

> <Gold.Chemscore.Hbond>
0.9862

> <Gold.Chemscore.Metal>
0.0000

> <Gold.Chemscore.Lipo>
71.2107

> <Gold.Chemscore.Internal_Hbond>
0.0000

> <Gold.Chemscore.DEClash>
0.0990

> <Gold.Chemscore.DEInternal>
0.1520

> <Gold.Chemscore.Rot>
1.4283

> <Gold.Chemscore.Internal.Correction>
   9.000000E+99

> <Gold.Chemscore.Hbonds>
donor molecule, donor type, donor heavy atom, donor atom, acceptor molecule, acceptor atom, score
      L1  H     4    24       P1  7957  0.98

> <Gold.Chemscore.Hbond.Weighted>
-3.2938

> <Gold.Chemscore.Metal.Weighted>
-0.0000

> <Gold.Chemscore.Lipo.Weighted>
-8.3317

> <Gold.Chemscore.Internal_Hbond.Weighted>
0.0000

> <Gold.Chemscore.DEClash.Weighted>
0.0990

> <Gold.Chemscore.DEInternal.Weighted>
0.1520

> <Gold.Chemscore.Rot.Weighted>
3.6566

> <Gold.Chemscore.Internal.Correction.Weighted>
   9.000000E+99

> <Gold.Protein.RotatedTorsions>
[ 6907 6896 6895 6894 ] final   19.94 input  -60.11 | X-H torsion
[ 7974 7965 7964 7962 ] final  -30.39 input  175.53 | X-H torsion
[ 8008 7997 7996 7995 ] final  109.33 input   59.86 | X-H torsion
[ 10167 10162 10161 10158 ] final   -8.02 input  -65.29 | X-H torsion
[ 10718 10713 10712 10709 ] final  165.81 input   66.30 | X-H torsion
[ 10763 10752 10751 10750 ] final   73.68 input  -60.55 | X-H torsion
[ 11005 11000 10999 10996 ] final   64.86 input  -57.11 | X-H torsion

> <Gold.Protein.ActiveResidues>
 VAL166  LYS551  ARG553  GLY616  TRP617  ASP618  TYR619  PRO620  LYS621  CYS622 
 ASP623  PHE694  ASN695  SER759  ASP760  ASP761  ALA762  ILE779  LEU786  VAL792 
 PHE793  MET794  SER795  GLU796  ALA797  LYS798  CYS799  TRP800  GLU811  SER814 

> <Gold.Protein.RotatedAtoms>
  151.8887  135.0425  160.0495 H   0  0  0  0  0  0  0  0  0  0  0  0  # atno 6907 bound_to 6896
  152.2453  133.5165  159.5302 H   0  0  0  0  0  0  0  0  0  0  0  0  # atno 6908 bound_to 6896
  150.7066  134.0949  159.3987 H   0  0  0  0  0  0  0  0  0  0  0  0  # atno 6909 bound_to 6896
  146.1146  140.5534  142.8762 H   0  0  0  0  0  0  0  0  0  0  0  0  # atno 7974 bound_to 7965
  156.1971  140.3060  155.9449 H   0  0  0  0  0  0  0  0  0  0  0  0  # atno 8008 bound_to 7997
  155.3041  140.0448  157.3048 H   0  0  0  0  0  0  0  0  0  0  0  0  # atno 8009 bound_to 7997
  154.5523  140.2295  155.8474 H   0  0  0  0  0  0  0  0  0  0  0  0  # atno 8010 bound_to 7997
  140.7046  143.6016  150.8792 H   0  0  0  0  0  0  0  0  0  0  0  0  # atno 10167 bound_to 10162
  157.0748  131.0376  151.2598 H   0  0  0  0  0  0  0  0  0  0  0  0  # atno 10718 bound_to 10713
  153.0537  135.5054  154.7930 H   0  0  0  0  0  0  0  0  0  0  0  0  # atno 10763 bound_to 10752
  154.6772  135.2962  154.9665 H   0  0  0  0  0  0  0  0  0  0  0  0  # atno 10764 bound_to 10752
  154.0463  135.6710  153.4848 H   0  0  0  0  0  0  0  0  0  0  0  0  # atno 10765 bound_to 10752
  139.9931  134.6559  156.0056 H   0  0  0  0  0  0  0  0  0  0  0  0  # atno 11005 bound_to 11000
  144.7542  140.5265  143.6781 LP  0  0  0  0  0  0  0  0  0  0  0  0  # atno 17320 bound_to 7965
  145.5593  139.1479  143.3350 LP  0  0  0  0  0  0  0  0  0  0  0  0  # atno 17321 bound_to 7965
  139.9740  143.6025  152.2964 LP  0  0  0  0  0  0  0  0  0  0  0  0  # atno 17342 bound_to 10162
  139.6622  144.7662  151.1941 LP  0  0  0  0  0  0  0  0  0  0  0  0  # atno 17343 bound_to 10162
  157.4849  130.7787  149.7450 LP  0  0  0  0  0  0  0  0  0  0  0  0  # atno 17370 bound_to 10713
  155.9940  130.3921  150.2876 LP  0  0  0  0  0  0  0  0  0  0  0  0  # atno 17371 bound_to 10713
  141.1582  133.6541  156.4232 LP  0  0  0  0  0  0  0  0  0  0  0  0  # atno 17394 bound_to 11000
  140.4869  134.6612  157.5194 LP  0  0  0  0  0  0  0  0  0  0  0  0  # atno 17395 bound_to 11000

$$$$
