AV-unprocessed.smi:3215|AV-procd|sdf|12286|dock2
  -GOLD-   2272018123D 1   1.00000     0.00000
 Structure written by MMmdl.
 37 38  0  0  0  0  0  0  0  0  1 V2000
  151.6454  145.5924  159.5770 C   0  0  0  0  0  0  0  0  0  0  0  0
  151.7461  144.1435  159.1967 C   0  0  0  0  0  0  0  0  0  0  0  0
  151.0393  143.4597  158.1667 C   0  0  0  0  0  0  0  0  0  0  0  0
  151.3567  142.1777  158.0884 N   0  0  0  0  0  0  0  0  0  0  0  0
  152.2735  141.9976  159.0628 N   0  0  0  0  0  0  0  0  0  0  0  0
  152.8560  140.6860  159.2712 C   0  0  0  0  0  0  0  0  0  0  0  0
  153.6757  140.6296  160.5683 C   0  0  0  0  0  0  0  0  0  0  0  0
  154.2886  139.3167  160.6991 N   0  0  0  0  0  0  0  0  0  0  0  0
  153.2928  138.2574  160.4927 C   0  0  0  0  0  0  0  0  0  0  0  0
  153.8524  136.8451  160.7313 C   0  0  0  0  0  0  0  0  0  0  0  0
  153.9062  136.0384  159.8010 O   0  0  0  0  0  0  0  0  0  0  0  0
  154.2687  136.5292  161.9755 N   0  0  0  0  0  0  0  0  0  0  0  0
  154.2343  137.4620  163.1002 C   0  0  0  0  0  0  0  0  0  0  0  0
  155.0449  136.7976  164.2132 C   0  0  0  0  0  0  0  0  0  0  0  0
  154.9382  135.3091  163.9130 C   0  0  0  0  0  0  0  0  0  0  0  0
  154.8219  135.2399  162.3897 C   0  0  0  0  0  0  0  0  0  0  0  0
  152.5270  143.1669  159.7477 C   0  0  0  0  0  0  0  0  0  0  0  0
  151.5091  146.2301  158.7034 H   0  0  0  0  0  0  0  0  0  0  0  0
  152.5422  145.9405  160.0903 H   0  0  0  0  0  0  0  0  0  0  0  0
  150.8020  145.7745  160.2432 H   0  0  0  0  0  0  0  0  0  0  0  0
  150.3086  143.8557  157.4768 H   0  0  0  0  0  0  0  0  0  0  0  0
  152.0498  139.9515  159.2969 H   0  0  0  0  0  0  0  0  0  0  0  0
  153.4802  140.4415  158.4100 H   0  0  0  0  0  0  0  0  0  0  0  0
  154.4480  141.4005  160.5595 H   0  0  0  0  0  0  0  0  0  0  0  0
  153.0289  140.8213  161.4259 H   0  0  0  0  0  0  0  0  0  0  0  0
  155.0510  139.2365  160.0415 H   0  0  0  0  0  0  0  0  0  0  0  0
  152.4532  138.4187  161.1705 H   0  0  0  0  0  0  0  0  0  0  0  0
  152.9103  138.3168  159.4726 H   0  0  0  0  0  0  0  0  0  0  0  0
  154.6460  138.4384  162.8397 H   0  0  0  0  0  0  0  0  0  0  0  0
  153.1984  137.6029  163.4118 H   0  0  0  0  0  0  0  0  0  0  0  0
  156.0881  137.1090  164.1423 H   0  0  0  0  0  0  0  0  0  0  0  0
  154.6861  137.0564  165.2099 H   0  0  0  0  0  0  0  0  0  0  0  0
  155.7831  134.7378  164.2986 H   0  0  0  0  0  0  0  0  0  0  0  0
  154.0305  134.9104  164.3678 H   0  0  0  0  0  0  0  0  0  0  0  0
  154.1947  134.4011  162.0855 H   0  0  0  0  0  0  0  0  0  0  0  0
  155.8068  135.1122  161.9384 H   0  0  0  0  0  0  0  0  0  0  0  0
  153.2358  143.2074  160.5617 H   0  0  0  0  0  0  0  0  0  0  0  0
  1  2  1  0  0  0  0
  1 18  1  0  0  0  0
  1 19  1  0  0  0  0
  1 20  1  0  0  0  0
  2 17  2  0  0  0  0
  2  3  1  0  0  0  0
  3  4  2  0  0  0  0
  3 21  1  0  0  0  0
  4  5  1  0  0  0  0
  5  6  1  0  0  0  0
  5 17  1  0  0  0  0
  6  7  1  0  0  0  0
  6 22  1  0  0  0  0
  6 23  1  0  0  0  0
  7  8  1  0  0  0  0
  7 24  1  0  0  0  0
  7 25  1  0  0  0  0
  8  9  1  0  0  0  0
  8 26  1  0  0  0  0
  9 10  1  0  0  0  0
  9 27  1  0  0  0  0
  9 28  1  0  0  0  0
 10 11  2  0  0  0  0
 10 12  1  0  0  0  0
 12 16  1  0  0  0  0
 12 13  1  0  0  0  0
 13 14  1  0  0  0  0
 13 29  1  0  0  0  0
 13 30  1  0  0  0  0
 14 15  1  0  0  0  0
 14 31  1  0  0  0  0
 14 32  1  0  0  0  0
 15 16  1  0  0  0  0
 15 33  1  0  0  0  0
 15 34  1  0  0  0  0
 16 35  1  0  0  0  0
 16 36  1  0  0  0  0
 17 37  1  0  0  0  0
M  END
> <s_m_source_file>
AV-unprocessed.smi

> <i_m_source_file_index>
3215

> <i_lp_mmshare_version>
43012

> <i_f3d_flags>
0

> <s_epik_input>
W0NIM11jMVtjSF1ubihbY0hdMSlbQ0gyXVtDSDJdW05IXVtDSDJdQyg9TylOMltDSDJdW0NIMl1bQ0gyXVtDSDJdMg==

> <s_epik_cmdline>
J2VwaWtfcHl0aG9uJywgJy1waCcsICc3LjAnLCAnLXRuJywgJzgnLCAnLW1hJywgJzIwMCcsICctbWV0YWxfYmluZGluZycsICctaW1hZScsICc8aW5maWxlLm1hZT4nLCAnLW9tYWUnLCAnPG91dGZpbGUubWFlPic=

> <r_lp_tautomer_probability>
1

> <r_epik_Ionization_Penalty>
0.736363

> <r_epik_Ionization_Penalty_Charging>
0

> <r_epik_Ionization_Penalty_Neutral>
0.736363

> <r_epik_State_Penalty>
0.758951

> <r_epik_Charging_Adjusted_Penalty>
0.758951

> <i_epik_Tot_Q>
0

> <i_epik_Tot_abs_Q>
0

> <r_epik_Metal_State_Penalty>
0.755698

> <b_epik_Metal_Only>
0

> <s_lp_Force_Field>
OPLS_2005

> <r_lp_Energy>
29.5089

> <b_lp_Chiralities_Consistent>
1

> <s_lp_Variant>
AV-unprocessed.smi:3215-2

> <Gold.Version>
5.8.1

> <Gold.Id.Protein>
6NUR|6NUR_protein|mol2

> <Gold.PLP.Fitness>
46.0833

> <Gold.PLP.PLP>
-40.3479

> <Gold.PLP.part.hbond>
-1.0000

> <Gold.PLP.part.metal>
0.0000

> <Gold.PLP.part.buried>
-3.3293

> <Gold.PLP.part.nonpolar>
-36.5959

> <Gold.PLP.part.repulsive>
0.0315

> <Gold.PLP.ligand.clash>
0.0000

> <Gold.PLP.ligand.torsion>
0.1472

> <Gold.PLP.Chemscore.Hbond>
1.0000

> <Gold.PLP.Chemscore.CHOScore>
1.0000

> <Gold.PLP.Chemscore.Metal>
0.0000

> <Gold.Chemscore.Hbonds>
donor molecule, donor type, donor heavy atom, donor atom, acceptor molecule, acceptor atom, score
      P1  H  6896  6908       L1    11  1.00
      L1  C     3    21       P1  8028  1.00

> <Gold.PLP.Chemscore.Internal.Correction>
0.0298

> <Gold.Rescore>
     Score         DG    S(hbond)    S(metal)    S(lipo)     H(rot)  DE(clash)    DE(int)     intcor
     16.36     -16.81       0.97        0.00     107.35       1.74       0.15       0.30       ----

> <Gold.Chemscore.Fitness>
16.3587

> <Gold.Chemscore.DG>
-16.8081

> <Gold.Chemscore.ZeroCoef>
-5.4800

> <Gold.Chemscore.Hbond>
0.9684

> <Gold.Chemscore.Metal>
0.0000

> <Gold.Chemscore.Lipo>
107.3455

> <Gold.Chemscore.Internal_Hbond>
0.0000

> <Gold.Chemscore.DEClash>
0.1529

> <Gold.Chemscore.DEInternal>
0.2965

> <Gold.Chemscore.Rot>
1.7444

> <Gold.Chemscore.Internal.Correction>
   9.000000E+99

> <Gold.Chemscore.Hbonds>
donor molecule, donor type, donor heavy atom, donor atom, acceptor molecule, acceptor atom, score
      P1  H  6896  6908       L1    11  0.63

> <Gold.Chemscore.Hbond.Weighted>
-3.2344

> <Gold.Chemscore.Metal.Weighted>
-0.0000

> <Gold.Chemscore.Lipo.Weighted>
-12.5594

> <Gold.Chemscore.Internal_Hbond.Weighted>
0.0000

> <Gold.Chemscore.DEClash.Weighted>
0.1529

> <Gold.Chemscore.DEInternal.Weighted>
0.2965

> <Gold.Chemscore.Rot.Weighted>
4.4657

> <Gold.Chemscore.Internal.Correction.Weighted>
   9.000000E+99

> <Gold.Protein.RotatedTorsions>
[ 6907 6896 6895 6894 ] final  -65.77 input  -60.11 | X-H torsion
[ 7974 7965 7964 7962 ] final -129.25 input  175.53 | X-H torsion
[ 8008 7997 7996 7995 ] final  -45.41 input   59.86 | X-H torsion
[ 10167 10162 10161 10158 ] final  112.43 input  -65.29 | X-H torsion
[ 10718 10713 10712 10709 ] final  -33.77 input   66.30 | X-H torsion
[ 10763 10752 10751 10750 ] final   78.90 input  -60.55 | X-H torsion
[ 11005 11000 10999 10996 ] final   98.89 input  -57.11 | X-H torsion

> <Gold.Protein.ActiveResidues>
 VAL166  LYS551  ARG553  GLY616  TRP617  ASP618  TYR619  PRO620  LYS621  CYS622 
 ASP623  PHE694  ASN695  SER759  ASP760  ASP761  ALA762  ILE779  LEU786  VAL792 
 PHE793  MET794  SER795  GLU796  ALA797  LYS798  CYS799  TRP800  GLU811  SER814 

> <Gold.Protein.RotatedAtoms>
  150.7504  134.6114  159.6087 H   0  0  0  0  0  0  0  0  0  0  0  0  # atno 6907 bound_to 6896
  152.3447  134.7084  160.0262 H   0  0  0  0  0  0  0  0  0  0  0  0  # atno 6908 bound_to 6896
  151.7524  133.3292  159.3432 H   0  0  0  0  0  0  0  0  0  0  0  0  # atno 6909 bound_to 6896
  144.9590  140.7426  143.4741 H   0  0  0  0  0  0  0  0  0  0  0  0  # atno 7974 bound_to 7965
  154.4001  140.1397  156.3843 H   0  0  0  0  0  0  0  0  0  0  0  0  # atno 8008 bound_to 7997
  155.7974  140.3477  155.5363 H   0  0  0  0  0  0  0  0  0  0  0  0  # atno 8009 bound_to 7997
  155.8518  140.0942  157.1660 H   0  0  0  0  0  0  0  0  0  0  0  0  # atno 8010 bound_to 7997
  139.6536  144.7129  151.2000 H   0  0  0  0  0  0  0  0  0  0  0  0  # atno 10167 bound_to 10162
  156.3586  130.4320  149.7643 H   0  0  0  0  0  0  0  0  0  0  0  0  # atno 10718 bound_to 10713
  153.0910  135.4860  154.8690 H   0  0  0  0  0  0  0  0  0  0  0  0  # atno 10763 bound_to 10752
  154.7269  135.3051  154.8958 H   0  0  0  0  0  0  0  0  0  0  0  0  # atno 10764 bound_to 10752
  153.9605  135.6813  153.4798 H   0  0  0  0  0  0  0  0  0  0  0  0  # atno 10765 bound_to 10752
  139.8771  134.9070  156.4523 H   0  0  0  0  0  0  0  0  0  0  0  0  # atno 11005 bound_to 11000
  145.2728  139.1948  143.4832 LP  0  0  0  0  0  0  0  0  0  0  0  0  # atno 17320 bound_to 7965
  146.3347  140.2678  142.8604 LP  0  0  0  0  0  0  0  0  0  0  0  0  # atno 17321 bound_to 7965
  140.7549  143.6109  150.8606 LP  0  0  0  0  0  0  0  0  0  0  0  0  # atno 17342 bound_to 10162
  139.9760  143.6004  152.2958 LP  0  0  0  0  0  0  0  0  0  0  0  0  # atno 17343 bound_to 10162
  156.4815  130.8043  151.3057 LP  0  0  0  0  0  0  0  0  0  0  0  0  # atno 17370 bound_to 10713
  157.7470  131.0004  150.2925 LP  0  0  0  0  0  0  0  0  0  0  0  0  # atno 17371 bound_to 10713
  140.8923  133.7839  155.9585 LP  0  0  0  0  0  0  0  0  0  0  0  0  # atno 17394 bound_to 11000
  140.8740  134.2691  157.5177 LP  0  0  0  0  0  0  0  0  0  0  0  0  # atno 17395 bound_to 11000

$$$$
