AV-unprocessed.smi:614|AV-procd|sdf|3069|dock2
  -GOLD-   2262023593D 1   1.00000     0.00000
 Structure written by MMmdl.
 44 45  0  0  0  0  0  0  0  0  1 V2000
  144.5885  132.4253  149.7066 C   0  0  0  0  0  0  0  0  0  0  0  0
  144.6572  133.5294  150.6392 N   0  0  0  0  0  0  0  0  0  0  0  0
  143.6307  134.1299  151.3395 C   0  0  0  0  0  0  0  0  0  0  0  0
  144.1783  135.1297  152.0924 C   0  0  0  0  0  0  0  0  0  0  0  0
  145.5633  135.0559  151.7768 C   0  0  0  0  0  0  0  0  0  0  0  0
  146.4880  135.9554  152.3668 N   0  0  0  0  0  0  0  0  0  0  0  0
  146.2295  136.9435  153.2401 C   0  0  0  0  0  0  0  0  0  0  0  0
  145.1082  137.2512  153.6425 O   0  0  0  0  0  0  0  0  0  0  0  0
  147.3639  137.5603  153.6132 N   0  0  0  0  0  0  0  0  0  0  0  0
  147.5447  138.6723  154.5593 C   0  0  2  0  0  0  0  0  0  0  0  0
  147.1577  138.0676  155.9295 C   0  0  0  0  0  0  0  0  0  0  0  0
  146.4965  139.7847  154.2497 C   0  0  0  0  0  0  0  0  0  0  0  0
  146.5924  140.3291  152.9486 O   0  0  0  0  0  0  0  0  0  0  0  0
  149.0299  139.1892  154.5772 C   0  0  0  0  0  0  0  0  0  0  0  0
  150.0977  138.0644  154.6000 C   0  0  0  0  0  0  0  0  0  0  0  0
  151.5230  138.6315  154.4941 C   0  0  0  0  0  0  0  0  0  0  0  0
  151.8035  139.6510  155.6074 C   0  0  0  0  0  0  0  0  0  0  0  0
  150.7534  140.7712  155.6043 C   0  0  0  0  0  0  0  0  0  0  0  0
  149.3301  140.2002  155.7130 C   0  0  0  0  0  0  0  0  0  0  0  0
  145.8518  134.0976  150.9068 N   0  0  0  0  0  0  0  0  0  0  0  0
  143.5600  132.0744  149.6168 H   0  0  0  0  0  0  0  0  0  0  0  0
  145.2138  131.6048  150.0596 H   0  0  0  0  0  0  0  0  0  0  0  0
  144.9397  132.7485  148.7263 H   0  0  0  0  0  0  0  0  0  0  0  0
  142.6067  133.7998  151.2439 H   0  0  0  0  0  0  0  0  0  0  0  0
  143.6670  135.8058  152.7615 H   0  0  0  0  0  0  0  0  0  0  0  0
  147.4537  135.8233  152.1058 H   0  0  0  0  0  0  0  0  0  0  0  0
  148.2160  137.2135  153.1980 H   0  0  0  0  0  0  0  0  0  0  0  0
  147.2135  138.7990  156.7352 H   0  0  0  0  0  0  0  0  0  0  0  0
  147.7923  137.2252  156.2041 H   0  0  0  0  0  0  0  0  0  0  0  0
  146.1317  137.6967  155.9169 H   0  0  0  0  0  0  0  0  0  0  0  0
  145.4804  139.4223  154.4118 H   0  0  0  0  0  0  0  0  0  0  0  0
  146.6276  140.6229  154.9349 H   0  0  0  0  0  0  0  0  0  0  0  0
  145.7196  140.4649  152.6136 H   0  0  0  0  0  0  0  0  0  0  0  0
  149.1945  139.7290  153.6446 H   0  0  0  0  0  0  0  0  0  0  0  0
  150.0188  137.4849  155.5196 H   0  0  0  0  0  0  0  0  0  0  0  0
  149.9432  137.3637  153.7799 H   0  0  0  0  0  0  0  0  0  0  0  0
  152.2500  137.8205  154.5432 H   0  0  0  0  0  0  0  0  0  0  0  0
  151.6554  139.1063  153.5213 H   0  0  0  0  0  0  0  0  0  0  0  0
  151.7988  139.1476  156.5750 H   0  0  0  0  0  0  0  0  0  0  0  0
  152.8005  140.0743  155.4824 H   0  0  0  0  0  0  0  0  0  0  0  0
  150.9418  141.4580  156.4299 H   0  0  0  0  0  0  0  0  0  0  0  0
  150.8440  141.3566  154.6885 H   0  0  0  0  0  0  0  0  0  0  0  0
  148.6196  141.0260  155.6942 H   0  0  0  0  0  0  0  0  0  0  0  0
  149.2209  139.7221  156.6861 H   0  0  0  0  0  0  0  0  0  0  0  0
  1  2  1  0  0  0  0
  1 21  1  0  0  0  0
  1 22  1  0  0  0  0
  1 23  1  0  0  0  0
  2 20  1  0  0  0  0
  2  3  1  0  0  0  0
  3  4  2  0  0  0  0
  3 24  1  0  0  0  0
  4  5  1  0  0  0  0
  4 25  1  0  0  0  0
  5  6  1  0  0  0  0
  5 20  2  0  0  0  0
  6  7  1  0  0  0  0
  6 26  1  0  0  0  0
  7  8  2  0  0  0  0
  7  9  1  0  0  0  0
  9 10  1  0  0  0  0
  9 27  1  0  0  0  0
 10 11  1  0  0  0  0
 10 12  1  0  0  0  0
 10 14  1  0  0  0  0
 11 28  1  0  0  0  0
 11 29  1  0  0  0  0
 11 30  1  0  0  0  0
 12 13  1  0  0  0  0
 12 31  1  0  0  0  0
 12 32  1  0  0  0  0
 13 33  1  0  0  0  0
 14 19  1  0  0  0  0
 14 15  1  0  0  0  0
 14 34  1  0  0  0  0
 15 16  1  0  0  0  0
 15 35  1  0  0  0  0
 15 36  1  0  0  0  0
 16 17  1  0  0  0  0
 16 37  1  0  0  0  0
 16 38  1  0  0  0  0
 17 18  1  0  0  0  0
 17 39  1  0  0  0  0
 17 40  1  0  0  0  0
 18 19  1  0  0  0  0
 18 41  1  0  0  0  0
 18 42  1  0  0  0  0
 19 43  1  0  0  0  0
 19 44  1  0  0  0  0
M  END
> <s_m_source_file>
AV-unprocessed.smi

> <i_m_source_file_index>
614

> <i_lp_mmshare_version>
43012

> <i_f3d_flags>
0

> <s_epik_input>
W0NIM11uMVtjSF1bY0hdYyhuMSlbTkhdQyg9TylbTkhdW0NAQF0oW0NIM10pKFtDSDJdW09IXSlbQ0hdMltDSDJdW0NIMl1bQ0gyXVtDSDJdW0NIMl0y

> <s_epik_cmdline>
J2VwaWtfcHl0aG9uJywgJy1waCcsICc3LjAnLCAnLXRuJywgJzgnLCAnLW1hJywgJzIwMCcsICctbWV0YWxfYmluZGluZycsICctaW1hZScsICc8aW5maWxlLm1hZT4nLCAnLW9tYWUnLCAnPG91dGZpbGUubWFlPic=

> <r_lp_tautomer_probability>
1

> <r_epik_Ionization_Penalty>
3.66621e-05

> <r_epik_Ionization_Penalty_Charging>
0

> <r_epik_Ionization_Penalty_Neutral>
3.66621e-05

> <r_epik_State_Penalty>
-0

> <r_epik_Charging_Adjusted_Penalty>
0

> <i_epik_Tot_Q>
0

> <i_epik_Tot_abs_Q>
0

> <r_epik_Metal_State_Penalty>
-0

> <b_epik_Metal_Only>
0

> <s_lp_Force_Field>
OPLS_2005

> <r_lp_Energy>
19.716

> <b_lp_Chiralities_Consistent>
1

> <s_lp_Variant>
AV-unprocessed.smi:614-2

> <Gold.Version>
5.8.1

> <Gold.Id.Protein>
6NUR|6NUR_protein|mol2

> <Gold.PLP.Fitness>
41.4514

> <Gold.PLP.PLP>
-30.1730

> <Gold.PLP.part.hbond>
-2.9421

> <Gold.PLP.part.metal>
0.0000

> <Gold.PLP.part.buried>
-4.1763

> <Gold.PLP.part.nonpolar>
-23.4474

> <Gold.PLP.part.repulsive>
0.3450

> <Gold.PLP.ligand.clash>
0.0000

> <Gold.PLP.ligand.torsion>
0.3046

> <Gold.PLP.Chemscore.Hbond>
2.9440

> <Gold.PLP.Chemscore.CHOScore>
0.9584

> <Gold.PLP.Chemscore.Metal>
0.0000

> <Gold.Chemscore.Hbonds>
donor molecule, donor type, donor heavy atom, donor atom, acceptor molecule, acceptor atom, score
      L1  H     6    26       P1  7948  1.00
      L1  H     9    27       P1  7948  0.93
      L1  H    13    33       P1 10175  0.99
      L1  C     3    24       P1 10186  0.96

> <Gold.PLP.Chemscore.Internal.Correction>
0.1802

> <Gold.Rescore>
     Score         DG    S(hbond)    S(metal)    S(lipo)     H(rot)  DE(clash)    DE(int)     intcor
     14.82     -17.57       2.95        0.00      64.35       2.07       0.04       2.71       ----

> <Gold.Chemscore.Fitness>
14.8173

> <Gold.Chemscore.DG>
-17.5669

> <Gold.Chemscore.ZeroCoef>
-5.4800

> <Gold.Chemscore.Hbond>
2.9518

> <Gold.Chemscore.Metal>
0.0000

> <Gold.Chemscore.Lipo>
64.3547

> <Gold.Chemscore.Internal_Hbond>
0.0000

> <Gold.Chemscore.DEClash>
0.0410

> <Gold.Chemscore.DEInternal>
2.7087

> <Gold.Chemscore.Rot>
2.0710

> <Gold.Chemscore.Internal.Correction>
   9.000000E+99

> <Gold.Chemscore.Hbonds>
donor molecule, donor type, donor heavy atom, donor atom, acceptor molecule, acceptor atom, score
      L1  H     6    26       P1  7948  0.94
      L1  H     9    27       P1  7948  0.91
      L1  H    13    33       P1 10175  0.56

> <Gold.Chemscore.Hbond.Weighted>
-9.8591

> <Gold.Chemscore.Metal.Weighted>
-0.0000

> <Gold.Chemscore.Lipo.Weighted>
-7.5295

> <Gold.Chemscore.Internal_Hbond.Weighted>
0.0000

> <Gold.Chemscore.DEClash.Weighted>
0.0410

> <Gold.Chemscore.DEInternal.Weighted>
2.7087

> <Gold.Chemscore.Rot.Weighted>
5.3017

> <Gold.Chemscore.Internal.Correction.Weighted>
   9.000000E+99

> <Gold.Protein.RotatedTorsions>
[ 6907 6896 6895 6894 ] final   13.76 input  -60.11 | X-H torsion
[ 7974 7965 7964 7962 ] final -112.80 input  175.53 | X-H torsion
[ 8008 7997 7996 7995 ] final  113.39 input   59.86 | X-H torsion
[ 10167 10162 10161 10158 ] final   38.01 input  -65.29 | X-H torsion
[ 10718 10713 10712 10709 ] final -159.72 input   66.30 | X-H torsion
[ 10763 10752 10751 10750 ] final  -99.25 input  -60.55 | X-H torsion
[ 11005 11000 10999 10996 ] final   83.53 input  -57.11 | X-H torsion

> <Gold.Protein.ActiveResidues>
 VAL166  LYS551  ARG553  GLY616  TRP617  ASP618  TYR619  PRO620  LYS621  CYS622 
 ASP623  PHE694  ASN695  SER759  ASP760  ASP761  ALA762  ILE779  LEU786  VAL792 
 PHE793  MET794  SER795  GLU796  ALA797  LYS798  CYS799  TRP800  GLU811  SER814 

> <Gold.Protein.RotatedAtoms>
  151.7914  135.0734  160.0387 H   0  0  0  0  0  0  0  0  0  0  0  0  # atno 6907 bound_to 6896
  152.3154  133.5792  159.5717 H   0  0  0  0  0  0  0  0  0  0  0  0  # atno 6908 bound_to 6896
  150.7341  134.0007  159.3679 H   0  0  0  0  0  0  0  0  0  0  0  0  # atno 6909 bound_to 6896
  145.1396  140.8770  143.3710 H   0  0  0  0  0  0  0  0  0  0  0  0  # atno 7974 bound_to 7965
  156.2255  140.2980  156.0057 H   0  0  0  0  0  0  0  0  0  0  0  0  # atno 8008 bound_to 7997
  155.2368  140.0421  157.2987 H   0  0  0  0  0  0  0  0  0  0  0  0  # atno 8009 bound_to 7997
  154.5909  140.2401  155.7930 H   0  0  0  0  0  0  0  0  0  0  0  0  # atno 8010 bound_to 7997
  140.3978  144.1765  150.6132 H   0  0  0  0  0  0  0  0  0  0  0  0  # atno 10167 bound_to 10162
  156.5721  130.8693  151.2840 H   0  0  0  0  0  0  0  0  0  0  0  0  # atno 10718 bound_to 10713
  154.7482  135.4979  153.9242 H   0  0  0  0  0  0  0  0  0  0  0  0  # atno 10763 bound_to 10752
  153.1115  135.6710  153.9500 H   0  0  0  0  0  0  0  0  0  0  0  0  # atno 10764 bound_to 10752
  153.9258  135.3083  155.3426 H   0  0  0  0  0  0  0  0  0  0  0  0  # atno 10765 bound_to 10752
  139.9028  134.8151  156.2322 H   0  0  0  0  0  0  0  0  0  0  0  0  # atno 11005 bound_to 11000
  145.0546  139.3154  143.5911 LP  0  0  0  0  0  0  0  0  0  0  0  0  # atno 17320 bound_to 7965
  146.3506  139.9967  142.8680 LP  0  0  0  0  0  0  0  0  0  0  0  0  # atno 17321 bound_to 7965
  140.4772  143.2392  151.9006 LP  0  0  0  0  0  0  0  0  0  0  0  0  # atno 17342 bound_to 10162
  139.4786  144.5307  151.8670 LP  0  0  0  0  0  0  0  0  0  0  0  0  # atno 17343 bound_to 10162
  157.7346  130.9748  150.2036 LP  0  0  0  0  0  0  0  0  0  0  0  0  # atno 17370 bound_to 10713
  156.2705  130.3721  149.8036 LP  0  0  0  0  0  0  0  0  0  0  0  0  # atno 17371 bound_to 10713
  141.0338  133.6974  156.1477 LP  0  0  0  0  0  0  0  0  0  0  0  0  # atno 17394 bound_to 11000
  140.7057  134.4516  157.5584 LP  0  0  0  0  0  0  0  0  0  0  0  0  # atno 17395 bound_to 11000

$$$$
