AV-unprocessed.smi:2079|AV-procd|sdf|8484|dock7
  -GOLD-   2272011193D 1   1.00000     0.00000
 Structure written by MMmdl.
 41 42  0  0  0  0  0  0  0  0  3 V2000
  149.0007  141.2149  154.7337 C   0  0  0  0  0  0  0  0  0  0  0  0
  149.4879  139.8068  154.7149 C   0  0  0  0  0  0  0  0  0  0  0  0
  148.8527  138.6040  154.5856 C   0  0  0  0  0  0  0  0  0  0  0  0
  149.9186  137.6679  154.6593 C   0  0  0  0  0  0  0  0  0  0  0  0
  149.6659  136.2736  154.5665 N   0  0  0  0  0  0  0  0  0  0  0  0
  150.3518  135.2545  155.1155 C   0  0  0  0  0  0  0  0  0  0  0  0
  151.3594  135.4749  155.7985 O   0  0  0  0  0  0  0  0  0  0  0  0
  149.8044  134.0435  154.8167 N   0  5  0  0  0  0  0  0  0  0  0  0
  149.1127  133.7256  153.5684 C   0  0  0  0  0  0  0  0  0  0  0  0
  148.4202  132.3510  153.6714 C   0  0  0  0  0  0  0  0  0  0  0  0
  147.5462  132.0806  152.4976 N   0  3  1  0  0  0  0  0  0  0  0  0
  146.5279  131.0146  152.7251 C   0  0  0  0  0  0  0  0  0  0  0  0
  145.8328  130.6281  151.4093 C   0  0  0  0  0  0  0  0  0  0  0  0
  145.2088  131.8535  150.7299 C   0  0  0  0  0  0  0  0  0  0  0  0
  146.2666  132.9527  150.5466 C   0  0  0  0  0  0  0  0  0  0  0  0
  146.9694  133.3091  151.8735 C   0  0  1  0  0  0  0  0  0  0  0  0
  146.0548  134.1086  152.8274 C   0  0  0  0  0  0  0  0  0  0  0  0
  151.0988  138.2494  154.8155 N   0  0  0  0  0  0  0  0  0  0  0  0
  150.8287  139.6223  154.8532 O   0  0  0  0  0  0  0  0  0  0  0  0
  147.9497  141.2676  154.4491 H   0  0  0  0  0  0  0  0  0  0  0  0
  149.5704  141.8313  154.0381 H   0  0  0  0  0  0  0  0  0  0  0  0
  149.1038  141.6447  155.7301 H   0  0  0  0  0  0  0  0  0  0  0  0
  147.7951  138.4241  154.4615 H   0  0  0  0  0  0  0  0  0  0  0  0
  148.8547  136.0131  154.0256 H   0  0  0  0  0  0  0  0  0  0  0  0
  148.3701  134.4799  153.3045 H   0  0  0  0  0  0  0  0  0  0  0  0
  149.8115  133.7058  152.7321 H   0  0  0  0  0  0  0  0  0  0  0  0
  149.1506  131.5487  153.7877 H   0  0  0  0  0  0  0  0  0  0  0  0
  147.8185  132.3485  154.5816 H   0  0  0  0  0  0  0  0  0  0  0  0
  147.0011  130.1261  153.1438 H   0  0  0  0  0  0  0  0  0  0  0  0
  145.7947  131.3447  153.4615 H   0  0  0  0  0  0  0  0  0  0  0  0
  146.5573  130.1672  150.7366 H   0  0  0  0  0  0  0  0  0  0  0  0
  145.0661  129.8765  151.5992 H   0  0  0  0  0  0  0  0  0  0  0  0
  144.7884  131.5726  149.7638 H   0  0  0  0  0  0  0  0  0  0  0  0
  144.3785  132.2270  151.3297 H   0  0  0  0  0  0  0  0  0  0  0  0
  147.0131  132.6093  149.8288 H   0  0  0  0  0  0  0  0  0  0  0  0
  145.8119  133.8411  150.1070 H   0  0  0  0  0  0  0  0  0  0  0  0
  147.8079  133.9586  151.6171 H   0  0  0  0  0  0  0  0  0  0  0  0
  145.6882  135.0121  152.3394 H   0  0  0  0  0  0  0  0  0  0  0  0
  146.5840  134.4256  153.7259 H   0  0  0  0  0  0  0  0  0  0  0  0
  145.1826  133.5381  153.1444 H   0  0  0  0  0  0  0  0  0  0  0  0
  148.1751  131.7106  151.7991 H   0  0  0  0  0  0  0  0  0  0  0  0
  1  2  1  0  0  0  0
  1 20  1  0  0  0  0
  1 21  1  0  0  0  0
  1 22  1  0  0  0  0
  2 19  1  0  0  0  0
  2  3  2  0  0  0  0
  3  4  1  0  0  0  0
  3 23  1  0  0  0  0
  4  5  1  0  0  0  0
  4 18  2  0  0  0  0
  5  6  1  0  0  0  0
  5 24  1  0  0  0  0
  6  7  2  0  0  0  0
  6  8  1  0  0  0  0
  8  9  1  0  0  0  0
  9 10  1  0  0  0  0
  9 25  1  0  0  0  0
  9 26  1  0  0  0  0
 10 11  1  0  0  0  0
 10 27  1  0  0  0  0
 10 28  1  0  0  0  0
 11 16  1  0  0  0  0
 11 12  1  0  0  0  0
 11 41  1  0  0  0  0
 12 13  1  0  0  0  0
 12 29  1  0  0  0  0
 12 30  1  0  0  0  0
 13 14  1  0  0  0  0
 13 31  1  0  0  0  0
 13 32  1  0  0  0  0
 14 15  1  0  0  0  0
 14 33  1  0  0  0  0
 14 34  1  0  0  0  0
 15 16  1  0  0  0  0
 15 35  1  0  0  0  0
 15 36  1  0  0  0  0
 16 17  1  0  0  0  0
 16 37  1  0  0  0  0
 17 38  1  0  0  0  0
 17 39  1  0  0  0  0
 17 40  1  0  0  0  0
 18 19  1  0  0  0  0
M  CHG  1   8  -1
M  CHG  1  11   1
M  END
> <s_m_source_file>
AV-unprocessed.smi

> <i_m_source_file_index>
2079

> <i_lp_mmshare_version>
43012

> <i_f3d_flags>
0

> <s_epik_input>
W0NIM11jMVtjSF1jKG5vMSlbTkhdQyg9TylbTkhdW0NIMl1bQ0gyXU4yW0NIMl1bQ0gyXVtDSDJdW0NIMl1bQ0BIXTJbQ0gzXQ==

> <s_epik_cmdline>
J2VwaWtfcHl0aG9uJywgJy1waCcsICc3LjAnLCAnLXRuJywgJzgnLCAnLW1hJywgJzIwMCcsICctbWV0YWxfYmluZGluZycsICctaW1hZScsICc8aW5maWxlLm1hZT4nLCAnLW9tYWUnLCAnPG91dGZpbGUubWFlPic=

> <r_epik_Ionization_Penalty>
6.7666

> <r_epik_Ionization_Penalty_Charging>
6.7666

> <r_epik_Ionization_Penalty_Neutral>
5.77131e-06

> <r_epik_State_Penalty>
6.79217

> <r_epik_Charging_Adjusted_Penalty>
13.5588

> <i_epik_Tot_Q>
0

> <i_epik_Tot_abs_Q>
2

> <r_epik_Metal_State_Penalty>
2.72569

> <b_epik_Metal_Only>
1

> <s_lp_Force_Field>
OPLS_2005

> <r_lp_Energy>
14.7698

> <b_lp_Chiralities_Consistent>
1

> <s_lp_Variant>
AV-unprocessed.smi:2079-10

> <Gold.Version>
5.8.1

> <Gold.Id.Protein>
6NUR|6NUR_protein|mol2

> <Gold.PLP.Fitness>
43.8278

> <Gold.PLP.PLP>
-35.1823

> <Gold.PLP.part.hbond>
-4.1144

> <Gold.PLP.part.metal>
0.0000

> <Gold.PLP.part.buried>
-2.9828

> <Gold.PLP.part.nonpolar>
-28.4022

> <Gold.PLP.part.repulsive>
0.4276

> <Gold.PLP.ligand.clash>
0.0000

> <Gold.PLP.ligand.torsion>
0.7396

> <Gold.PLP.Chemscore.Hbond>
3.3556

> <Gold.PLP.Chemscore.CHOScore>
0.0000

> <Gold.PLP.Chemscore.Metal>
0.0000

> <Gold.Chemscore.Hbonds>
donor molecule, donor type, donor heavy atom, donor atom, acceptor molecule, acceptor atom, score
      L1  H     5    24       P1  7948  0.23
      L1  H    11    41       P1 10747  1.00
      P1  H  7989  7998       L1    19  1.00
      P1  H 10752 10763       L1     7  1.00

> <Gold.PLP.Chemscore.Internal.Correction>
0.0579

> <Gold.Rescore>
     Score         DG    S(hbond)    S(metal)    S(lipo)     H(rot)  DE(clash)    DE(int)     intcor
     18.06     -20.11       2.95        0.00      74.65       1.54       0.13       1.92       ----

> <Gold.Chemscore.Fitness>
18.0568

> <Gold.Chemscore.DG>
-20.1102

> <Gold.Chemscore.ZeroCoef>
-5.4800

> <Gold.Chemscore.Hbond>
2.9465

> <Gold.Chemscore.Metal>
0.0000

> <Gold.Chemscore.Lipo>
74.6468

> <Gold.Chemscore.Internal_Hbond>
0.0000

> <Gold.Chemscore.DEClash>
0.1334

> <Gold.Chemscore.DEInternal>
1.9200

> <Gold.Chemscore.Rot>
1.5409

> <Gold.Chemscore.Internal.Correction>
   9.000000E+99

> <Gold.Chemscore.Hbonds>
donor molecule, donor type, donor heavy atom, donor atom, acceptor molecule, acceptor atom, score
      L1  H     5    24       P1  7948  0.22
      L1  H    11    41       P1 10747  1.00
      P1  H  7989  7998       L1    19  0.42
      P1  H 10752 10763       L1     7  0.96

> <Gold.Chemscore.Hbond.Weighted>
-9.8412

> <Gold.Chemscore.Metal.Weighted>
-0.0000

> <Gold.Chemscore.Lipo.Weighted>
-8.7337

> <Gold.Chemscore.Internal_Hbond.Weighted>
0.0000

> <Gold.Chemscore.DEClash.Weighted>
0.1334

> <Gold.Chemscore.DEInternal.Weighted>
1.9200

> <Gold.Chemscore.Rot.Weighted>
3.9446

> <Gold.Chemscore.Internal.Correction.Weighted>
   9.000000E+99

> <Gold.Protein.RotatedTorsions>
[ 6907 6896 6895 6894 ] final   -0.79 input  -60.11 | X-H torsion
[ 7974 7965 7964 7962 ] final   87.16 input  175.53 | X-H torsion
[ 8008 7997 7996 7995 ] final  -17.17 input   59.86 | X-H torsion
[ 10167 10162 10161 10158 ] final  125.70 input  -65.29 | X-H torsion
[ 10718 10713 10712 10709 ] final -163.75 input   66.30 | X-H torsion
[ 10763 10752 10751 10750 ] final   91.75 input  -60.55 | X-H torsion
[ 11005 11000 10999 10996 ] final    1.94 input  -57.11 | X-H torsion

> <Gold.Protein.ActiveResidues>
 VAL166  LYS551  ARG553  GLY616  TRP617  ASP618  TYR619  PRO620  LYS621  CYS622 
 ASP623  PHE694  ASN695  SER759  ASP760  ASP761  ALA762  ILE779  LEU786  VAL792 
 PHE793  MET794  SER795  GLU796  ALA797  LYS798  CYS799  TRP800  GLU811  SER814 

> <Gold.Protein.RotatedAtoms>
  151.5566  135.1066  159.9962 H   0  0  0  0  0  0  0  0  0  0  0  0  # atno 6907 bound_to 6896
  152.4466  133.7545  159.6723 H   0  0  0  0  0  0  0  0  0  0  0  0  # atno 6908 bound_to 6896
  150.8384  133.7909  159.3094 H   0  0  0  0  0  0  0  0  0  0  0  0  # atno 6909 bound_to 6896
  145.5626  139.2305  143.2451 H   0  0  0  0  0  0  0  0  0  0  0  0  # atno 7974 bound_to 7965
  154.4998  140.2150  155.9370 H   0  0  0  0  0  0  0  0  0  0  0  0  # atno 8008 bound_to 7997
  156.1419  140.3178  155.8476 H   0  0  0  0  0  0  0  0  0  0  0  0  # atno 8009 bound_to 7997
  155.4104  140.0490  157.3022 H   0  0  0  0  0  0  0  0  0  0  0  0  # atno 8010 bound_to 7997
  139.5671  144.6917  151.3880 H   0  0  0  0  0  0  0  0  0  0  0  0  # atno 10167 bound_to 10162
  156.6291  130.8922  151.2974 H   0  0  0  0  0  0  0  0  0  0  0  0  # atno 10718 bound_to 10713
  153.2117  135.4386  155.0387 H   0  0  0  0  0  0  0  0  0  0  0  0  # atno 10763 bound_to 10752
  154.8203  135.3334  154.7059 H   0  0  0  0  0  0  0  0  0  0  0  0  # atno 10764 bound_to 10752
  153.7497  135.6999  153.5004 H   0  0  0  0  0  0  0  0  0  0  0  0  # atno 10765 bound_to 10752
  140.6099  133.9758  155.8172 H   0  0  0  0  0  0  0  0  0  0  0  0  # atno 11005 bound_to 11000
  146.1840  140.6451  142.9176 LP  0  0  0  0  0  0  0  0  0  0  0  0  # atno 17320 bound_to 7965
  144.7475  140.5107  143.6825 LP  0  0  0  0  0  0  0  0  0  0  0  0  # atno 17321 bound_to 7965
  140.6955  143.7760  150.7320 LP  0  0  0  0  0  0  0  0  0  0  0  0  # atno 17342 bound_to 10162
  140.1255  143.4573  152.2287 LP  0  0  0  0  0  0  0  0  0  0  0  0  # atno 17343 bound_to 10162
  157.7205  130.9552  150.1420 LP  0  0  0  0  0  0  0  0  0  0  0  0  # atno 17370 bound_to 10713
  156.2249  130.3677  149.8512 LP  0  0  0  0  0  0  0  0  0  0  0  0  # atno 17371 bound_to 10713
  141.0815  134.0055  157.3378 LP  0  0  0  0  0  0  0  0  0  0  0  0  # atno 17394 bound_to 11000
  139.9197  135.0199  156.8016 LP  0  0  0  0  0  0  0  0  0  0  0  0  # atno 17395 bound_to 11000

$$$$
