AV-unprocessed.smi:3263|AV-procd|sdf|12489|dock3
  -GOLD-   2272018393D 1   1.00000     0.00000
 Structure written by MMmdl.
 41 43  0  0  0  0  0  0  0  0  1 V2000
  154.0453  140.1125  159.2030 O   0  0  0  0  0  0  0  0  0  0  0  0
  153.8834  140.6502  160.2986 C   0  0  0  0  0  0  0  0  0  0  0  0
  153.3458  142.0825  160.3846 C   0  0  0  0  0  0  0  0  0  0  0  0
  152.7319  142.5719  159.0534 C   0  0  1  0  0  0  0  0  0  0  0  0
  151.2192  142.3030  158.8871 C   0  0  0  0  0  0  0  0  0  0  0  0
  150.6722  143.6776  158.4588 C   0  0  1  0  0  0  0  0  0  0  0  0
  150.6578  144.6146  159.6803 C   0  0  0  0  0  0  0  0  0  0  0  0
  152.1517  144.9251  159.8848 C   0  0  0  0  0  0  0  0  0  0  0  0
  152.8312  144.0913  158.7786 C   0  0  2  0  0  0  0  0  0  0  0  0
  151.8268  144.2454  157.6400 C   0  0  0  0  0  0  0  0  0  0  0  0
  154.1521  140.0419  161.4640 N   0  0  0  0  0  0  0  0  0  0  0  0
  154.6337  138.6724  161.6021 C   0  0  0  0  0  0  0  0  0  0  0  0
  153.5812  137.7706  162.2687 C   0  0  0  0  0  0  0  0  0  0  0  0
  154.1858  136.4968  162.8284 C   0  0  0  0  0  0  0  0  0  0  0  0
  153.9719  136.1278  164.1739 C   0  0  0  0  0  0  0  0  0  0  0  0
  154.5590  134.9371  164.6446 C   0  0  0  0  0  0  0  0  0  0  0  0
  155.3342  134.1663  163.7571 C   0  0  0  0  0  0  0  0  0  0  0  0
  155.4890  134.6224  162.4328 C   0  0  0  0  0  0  0  0  0  0  0  0
  154.9298  135.7620  161.9713 N   0  0  0  0  0  0  0  0  0  0  0  0
  152.6118  142.1374  161.1887 H   0  0  0  0  0  0  0  0  0  0  0  0
  154.1704  142.7361  160.6704 H   0  0  0  0  0  0  0  0  0  0  0  0
  153.2554  142.0707  158.2368 H   0  0  0  0  0  0  0  0  0  0  0  0
  151.0480  141.5536  158.1132 H   0  0  0  0  0  0  0  0  0  0  0  0
  150.7444  141.9466  159.8023 H   0  0  0  0  0  0  0  0  0  0  0  0
  149.7164  143.6250  157.9370 H   0  0  0  0  0  0  0  0  0  0  0  0
  150.1027  145.5284  159.4651 H   0  0  0  0  0  0  0  0  0  0  0  0
  150.2063  144.1466  160.5559 H   0  0  0  0  0  0  0  0  0  0  0  0
  152.3385  145.9879  159.7243 H   0  0  0  0  0  0  0  0  0  0  0  0
  152.5012  144.6874  160.8885 H   0  0  0  0  0  0  0  0  0  0  0  0
  153.8417  144.4246  158.5404 H   0  0  0  0  0  0  0  0  0  0  0  0
  152.0690  143.6465  156.7603 H   0  0  0  0  0  0  0  0  0  0  0  0
  151.6718  145.2816  157.3340 H   0  0  0  0  0  0  0  0  0  0  0  0
  153.9942  140.5587  162.3171 H   0  0  0  0  0  0  0  0  0  0  0  0
  154.9196  138.2749  160.6268 H   0  0  0  0  0  0  0  0  0  0  0  0
  155.5404  138.6928  162.2070 H   0  0  0  0  0  0  0  0  0  0  0  0
  153.0823  138.3140  163.0725 H   0  0  0  0  0  0  0  0  0  0  0  0
  152.8027  137.5035  161.5526 H   0  0  0  0  0  0  0  0  0  0  0  0
  153.3734  136.7410  164.8312 H   0  0  0  0  0  0  0  0  0  0  0  0
  154.4179  134.6211  165.6677 H   0  0  0  0  0  0  0  0  0  0  0  0
  155.7999  133.2482  164.0830 H   0  0  0  0  0  0  0  0  0  0  0  0
  156.0780  134.0573  161.7258 H   0  0  0  0  0  0  0  0  0  0  0  0
  1  2  2  0  0  0  0
  2  3  1  0  0  0  0
  2 11  1  0  0  0  0
  3  4  1  0  0  0  0
  3 20  1  0  0  0  0
  3 21  1  0  0  0  0
  4  9  1  0  0  0  0
  4  5  1  0  0  0  0
  4 22  1  0  0  0  0
  5  6  1  0  0  0  0
  5 23  1  0  0  0  0
  5 24  1  0  0  0  0
  6 10  1  0  0  0  0
  6  7  1  0  0  0  0
  6 25  1  0  0  0  0
  7  8  1  0  0  0  0
  7 26  1  0  0  0  0
  7 27  1  0  0  0  0
  8  9  1  0  0  0  0
  8 28  1  0  0  0  0
  8 29  1  0  0  0  0
  9 10  1  0  0  0  0
  9 30  1  0  0  0  0
 10 31  1  0  0  0  0
 10 32  1  0  0  0  0
 11 12  1  0  0  0  0
 11 33  1  0  0  0  0
 12 13  1  0  0  0  0
 12 34  1  0  0  0  0
 12 35  1  0  0  0  0
 13 14  1  0  0  0  0
 13 36  1  0  0  0  0
 13 37  1  0  0  0  0
 14 19  1  0  0  0  0
 14 15  2  0  0  0  0
 15 16  1  0  0  0  0
 15 38  1  0  0  0  0
 16 17  2  0  0  0  0
 16 39  1  0  0  0  0
 17 18  1  0  0  0  0
 17 40  1  0  0  0  0
 18 19  2  0  0  0  0
 18 41  1  0  0  0  0
M  END
> <s_m_source_file>
AV-unprocessed.smi

> <i_m_source_file_index>
3263

> <i_lp_mmshare_version>
43012

> <i_f3d_flags>
0

> <s_epik_input>
W0NIMl0xW0NIMl1bQ0BASF0oW0NIMl0yKVtDQEBIXShbQ0gyXVtDQEhdMTIpW0NIMl1DKD1PKVtOSF1bQ0gyXVtDSDJdYzNbY0hdW2NIXVtjSF1bY0hdbjM=

> <s_epik_cmdline>
J2VwaWtfcHl0aG9uJywgJy1waCcsICc3LjAnLCAnLXRuJywgJzgnLCAnLW1hJywgJzIwMCcsICctbWV0YWxfYmluZGluZycsICctaW1hZScsICc8aW5maWxlLm1hZT4nLCAnLW9tYWUnLCAnPG91dGZpbGUubWFlPic=

> <r_epik_Ionization_Penalty>
0.0273541

> <r_epik_Ionization_Penalty_Charging>
0

> <r_epik_Ionization_Penalty_Neutral>
0.0273541

> <r_epik_State_Penalty>
0.0223838

> <r_epik_Charging_Adjusted_Penalty>
0.0223838

> <i_epik_Tot_Q>
0

> <i_epik_Tot_abs_Q>
0

> <r_epik_Metal_State_Penalty>
0.0213927

> <b_epik_Metal_Only>
0

> <s_lp_Force_Field>
OPLS_2005

> <r_lp_Energy>
45.4659

> <b_lp_Chiralities_Consistent>
1

> <s_lp_Variant>
AV-unprocessed.smi:3263-4

> <Gold.Version>
5.8.1

> <Gold.Id.Protein>
6NUR|6NUR_protein|mol2

> <Gold.PLP.Fitness>
47.4011

> <Gold.PLP.PLP>
-46.0003

> <Gold.PLP.part.hbond>
-1.0000

> <Gold.PLP.part.metal>
0.0000

> <Gold.PLP.part.buried>
-4.6958

> <Gold.PLP.part.nonpolar>
-40.6960

> <Gold.PLP.part.repulsive>
0.0098

> <Gold.PLP.ligand.clash>
0.0000

> <Gold.PLP.ligand.torsion>
0.7129

> <Gold.PLP.Chemscore.Hbond>
0.9280

> <Gold.PLP.Chemscore.CHOScore>
0.0000

> <Gold.PLP.Chemscore.Metal>
0.0000

> <Gold.Chemscore.Hbonds>
donor molecule, donor type, donor heavy atom, donor atom, acceptor molecule, acceptor atom, score
      P1  H  7997  8010       L1     1  0.76

> <Gold.PLP.Chemscore.Internal.Correction>
0.0426

> <Gold.Rescore>
     Score         DG    S(hbond)    S(metal)    S(lipo)     H(rot)  DE(clash)    DE(int)     intcor
     20.21     -21.04       0.98        0.00     136.88       1.46       0.09       0.74       ----

> <Gold.Chemscore.Fitness>
20.2100

> <Gold.Chemscore.DG>
-21.0383

> <Gold.Chemscore.ZeroCoef>
-5.4800

> <Gold.Chemscore.Hbond>
0.9789

> <Gold.Chemscore.Metal>
0.0000

> <Gold.Chemscore.Lipo>
136.8788

> <Gold.Chemscore.Internal_Hbond>
0.0000

> <Gold.Chemscore.DEClash>
0.0932

> <Gold.Chemscore.DEInternal>
0.7351

> <Gold.Chemscore.Rot>
1.4555

> <Gold.Chemscore.Internal.Correction>
   9.000000E+99

> <Gold.Chemscore.Hbonds>
donor molecule, donor type, donor heavy atom, donor atom, acceptor molecule, acceptor atom, score
      P1  H  7997  8010       L1     1  0.72

> <Gold.Chemscore.Hbond.Weighted>
-3.2695

> <Gold.Chemscore.Metal.Weighted>
-0.0000

> <Gold.Chemscore.Lipo.Weighted>
-16.0148

> <Gold.Chemscore.Internal_Hbond.Weighted>
0.0000

> <Gold.Chemscore.DEClash.Weighted>
0.0932

> <Gold.Chemscore.DEInternal.Weighted>
0.7351

> <Gold.Chemscore.Rot.Weighted>
3.7260

> <Gold.Chemscore.Internal.Correction.Weighted>
   9.000000E+99

> <Gold.Protein.RotatedTorsions>
[ 6907 6896 6895 6894 ] final  -58.21 input  -60.11 | X-H torsion
[ 7974 7965 7964 7962 ] final  162.15 input  175.53 | X-H torsion
[ 8008 7997 7996 7995 ] final   11.83 input   59.86 | X-H torsion
[ 10167 10162 10161 10158 ] final  175.95 input  -65.29 | X-H torsion
[ 10718 10713 10712 10709 ] final  -67.55 input   66.30 | X-H torsion
[ 10763 10752 10751 10750 ] final -123.65 input  -60.55 | X-H torsion
[ 11005 11000 10999 10996 ] final -113.55 input  -57.11 | X-H torsion

> <Gold.Protein.ActiveResidues>
 VAL166  LYS551  ARG553  GLY616  TRP617  ASP618  TYR619  PRO620  LYS621  CYS622 
 ASP623  PHE694  ASN695  SER759  ASP760  ASP761  ALA762  ILE779  LEU786  VAL792 
 PHE793  MET794  SER795  GLU796  ALA797  LYS798  CYS799  TRP800  GLU811  SER814 

> <Gold.Protein.RotatedAtoms>
  150.8025  134.7128  159.6613 H   0  0  0  0  0  0  0  0  0  0  0  0  # atno 6907 bound_to 6896
  152.4143  134.6067  160.0024 H   0  0  0  0  0  0  0  0  0  0  0  0  # atno 6908 bound_to 6896
  151.6301  133.3295  159.3143 H   0  0  0  0  0  0  0  0  0  0  0  0  # atno 6909 bound_to 6896
  144.7650  139.7999  143.6318 H   0  0  0  0  0  0  0  0  0  0  0  0  # atno 7974 bound_to 7965
  154.8123  140.2870  155.5844 H   0  0  0  0  0  0  0  0  0  0  0  0  # atno 8008 bound_to 7997
  156.2989  140.2566  156.2944 H   0  0  0  0  0  0  0  0  0  0  0  0  # atno 8009 bound_to 7997
  154.9433  140.0381  157.2097 H   0  0  0  0  0  0  0  0  0  0  0  0  # atno 8010 bound_to 7997
  139.5196  144.2972  152.0411 H   0  0  0  0  0  0  0  0  0  0  0  0  # atno 10167 bound_to 10162
  156.0552  130.4280  150.1870 H   0  0  0  0  0  0  0  0  0  0  0  0  # atno 10718 bound_to 10713
  154.8711  135.4091  154.2978 H   0  0  0  0  0  0  0  0  0  0  0  0  # atno 10763 bound_to 10752
  153.3843  135.7012  153.6547 H   0  0  0  0  0  0  0  0  0  0  0  0  # atno 10764 bound_to 10752
  153.5356  135.3658  155.2667 H   0  0  0  0  0  0  0  0  0  0  0  0  # atno 10765 bound_to 10752
  141.0607  133.9540  157.2672 H   0  0  0  0  0  0  0  0  0  0  0  0  # atno 11005 bound_to 11000
  146.1750  139.4917  142.9903 LP  0  0  0  0  0  0  0  0  0  0  0  0  # atno 17320 bound_to 7965
  145.6497  141.0266  143.1767 LP  0  0  0  0  0  0  0  0  0  0  0  0  # atno 17321 bound_to 7965
  140.2421  144.4259  150.6256 LP  0  0  0  0  0  0  0  0  0  0  0  0  # atno 17342 bound_to 10162
  140.6283  143.2184  151.6549 LP  0  0  0  0  0  0  0  0  0  0  0  0  # atno 17343 bound_to 10162
  156.9948  130.9904  151.3406 LP  0  0  0  0  0  0  0  0  0  0  0  0  # atno 17370 bound_to 10713
  157.5515  130.8185  149.8151 LP  0  0  0  0  0  0  0  0  0  0  0  0  # atno 17371 bound_to 10713
  139.9430  135.0188  156.8766 LP  0  0  0  0  0  0  0  0  0  0  0  0  # atno 17394 bound_to 11000
  140.5874  134.0294  155.7487 LP  0  0  0  0  0  0  0  0  0  0  0  0  # atno 17395 bound_to 11000

$$$$
