AV-unprocessed.smi:598|AV-procd|sdf|3024|dock3
  -GOLD-   2262023533D 1   1.00000     0.00000
 Structure written by MMmdl.
 43 44  0  0  0  0  0  0  0  0  3 V2000
  143.0976  131.9216  150.1966 C   0  0  0  0  0  0  0  0  0  0  0  0
  144.3816  132.6372  149.7285 C   0  0  1  0  0  0  0  0  0  0  0  0
  144.3762  134.1277  150.1241 C   0  0  0  0  0  0  0  0  0  0  0  0
  144.6044  134.3292  151.6301 C   0  0  0  0  0  0  0  0  0  0  0  0
  145.9059  133.6563  152.0860 C   0  0  0  0  0  0  0  0  0  0  0  0
  145.9425  132.1613  151.7149 C   0  0  2  0  0  0  0  0  0  0  0  0
  147.2389  131.6164  152.1178 N   0  0  0  0  0  0  0  0  0  0  0  0
  147.7870  131.7052  153.3398 C   0  0  0  0  0  0  0  0  0  0  0  0
  147.2292  132.2449  154.2962 O   0  0  0  0  0  0  0  0  0  0  0  0
  149.1710  131.0601  153.4999 C   0  0  0  0  0  0  0  0  0  0  0  0
  150.2194  132.0194  153.8873 N   0  0  0  0  0  0  0  0  0  0  0  0
  150.3119  133.2069  153.1345 C   0  0  0  0  0  0  0  0  0  0  0  0
  151.2364  134.1512  153.3977 C   0  0  0  0  0  0  0  0  0  0  0  0
  151.3178  135.3641  152.6139 N   0  3  0  0  0  0  0  0  0  0  0  0
  152.4039  135.9246  152.5085 O   0  0  0  0  0  0  0  0  0  0  0  0
  150.3013  135.7973  152.0795 O   0  5  0  0  0  0  0  0  0  0  0  0
  152.1526  133.9103  154.4957 C   0  0  0  0  0  0  0  0  0  0  0  0
  152.0707  132.7754  155.2179 C   0  0  0  0  0  0  0  0  0  0  0  0
  151.0635  131.7493  154.9299 C   0  0  0  0  0  0  0  0  0  0  0  0
  150.9839  130.7103  155.5855 O   0  0  0  0  0  0  0  0  0  0  0  0
  145.6958  131.9553  150.1958 C   0  0  1  0  0  0  0  0  0  0  0  0
  145.7731  130.4780  149.7615 C   0  0  0  0  0  0  0  0  0  0  0  0
  143.0372  131.8493  151.2819 H   0  0  0  0  0  0  0  0  0  0  0  0
  143.0331  130.9108  149.7947 H   0  0  0  0  0  0  0  0  0  0  0  0
  142.2101  132.4545  149.8546 H   0  0  0  0  0  0  0  0  0  0  0  0
  144.3674  132.6035  148.6382 H   0  0  0  0  0  0  0  0  0  0  0  0
  145.1618  134.6472  149.5737 H   0  0  0  0  0  0  0  0  0  0  0  0
  143.4385  134.5964  149.8232 H   0  0  0  0  0  0  0  0  0  0  0  0
  144.6410  135.3947  151.8587 H   0  0  0  0  0  0  0  0  0  0  0  0
  143.7634  133.9254  152.1942 H   0  0  0  0  0  0  0  0  0  0  0  0
  146.7521  134.1709  151.6280 H   0  0  0  0  0  0  0  0  0  0  0  0
  146.0205  133.7763  153.1641 H   0  0  0  0  0  0  0  0  0  0  0  0
  145.1466  131.6621  152.2695 H   0  0  0  0  0  0  0  0  0  0  0  0
  147.7699  131.1442  151.4003 H   0  0  0  0  0  0  0  0  0  0  0  0
  149.0888  130.2613  154.2384 H   0  0  0  0  0  0  0  0  0  0  0  0
  149.4473  130.5601  152.5696 H   0  0  0  0  0  0  0  0  0  0  0  0
  149.5891  133.2884  152.3353 H   0  0  0  0  0  0  0  0  0  0  0  0
  152.9122  134.6361  154.7457 H   0  0  0  0  0  0  0  0  0  0  0  0
  152.7644  132.6157  156.0305 H   0  0  0  0  0  0  0  0  0  0  0  0
  146.5060  132.4653  149.6716 H   0  0  0  0  0  0  0  0  0  0  0  0
  145.0886  129.8543  150.3368 H   0  0  0  0  0  0  0  0  0  0  0  0
  146.7759  130.0738  149.8986 H   0  0  0  0  0  0  0  0  0  0  0  0
  145.5245  130.3645  148.7059 H   0  0  0  0  0  0  0  0  0  0  0  0
  1  2  1  0  0  0  0
  1 23  1  0  0  0  0
  1 24  1  0  0  0  0
  1 25  1  0  0  0  0
  2 21  1  0  0  0  0
  2  3  1  0  0  0  0
  2 26  1  0  0  0  0
  3  4  1  0  0  0  0
  3 27  1  0  0  0  0
  3 28  1  0  0  0  0
  4  5  1  0  0  0  0
  4 29  1  0  0  0  0
  4 30  1  0  0  0  0
  5  6  1  0  0  0  0
  5 31  1  0  0  0  0
  5 32  1  0  0  0  0
  6  7  1  0  0  0  0
  6 21  1  0  0  0  0
  6 33  1  0  0  0  0
  7  8  1  0  0  0  0
  7 34  1  0  0  0  0
  8  9  2  0  0  0  0
  8 10  1  0  0  0  0
 10 11  1  0  0  0  0
 10 35  1  0  0  0  0
 10 36  1  0  0  0  0
 11 19  1  0  0  0  0
 11 12  1  0  0  0  0
 12 13  2  0  0  0  0
 12 37  1  0  0  0  0
 13 14  1  0  0  0  0
 13 17  1  0  0  0  0
 14 15  2  0  0  0  0
 14 16  1  0  0  0  0
 17 18  2  0  0  0  0
 17 38  1  0  0  0  0
 18 19  1  0  0  0  0
 18 39  1  0  0  0  0
 19 20  2  0  0  0  0
 21 22  1  0  0  0  0
 21 40  1  0  0  0  0
 22 41  1  0  0  0  0
 22 42  1  0  0  0  0
 22 43  1  0  0  0  0
M  CHG  1  14   1
M  CHG  1  16  -1
M  END
> <s_m_source_file>
AV-unprocessed.smi

> <i_m_source_file_index>
598

> <i_lp_mmshare_version>
43012

> <i_f3d_flags>
0

> <s_epik_input>
W0NIM11bQ0BASF0xW0NIMl1bQ0gyXVtDSDJdW0NASF0oW0NASF0xW0NIM10pW05IXUMoPU8pW0NIMl1uMltjSF1jKFtOK10oPU8pW08tXSlbY0hdW2NIXWMyPU8=

> <s_epik_cmdline>
J2VwaWtfcHl0aG9uJywgJy1waCcsICc3LjAnLCAnLXRuJywgJzgnLCAnLW1hJywgJzIwMCcsICctbWV0YWxfYmluZGluZycsICctaW1hZScsICc8aW5maWxlLm1hZT4nLCAnLW9tYWUnLCAnPG91dGZpbGUubWFlPic=

> <r_lp_tautomer_probability>
1

> <r_epik_Ionization_Penalty>
1.91291e-08

> <r_epik_Ionization_Penalty_Charging>
8.21931e-11

> <r_epik_Ionization_Penalty_Neutral>
1.90469e-08

> <r_epik_State_Penalty>
-0

> <r_epik_Charging_Adjusted_Penalty>
8.21931e-11

> <i_epik_Tot_Q>
0

> <i_epik_Tot_abs_Q>
2

> <r_epik_Metal_State_Penalty>
-0

> <b_epik_Metal_Only>
0

> <s_lp_Force_Field>
OPLS_2005

> <r_lp_Energy>
25.417

> <b_lp_Chiralities_Consistent>
1

> <s_lp_Variant>
AV-unprocessed.smi:598-4

> <Gold.Version>
5.8.1

> <Gold.Id.Protein>
6NUR|6NUR_protein|mol2

> <Gold.PLP.Fitness>
41.8482

> <Gold.PLP.PLP>
-36.7687

> <Gold.PLP.part.hbond>
-2.0000

> <Gold.PLP.part.metal>
0.0000

> <Gold.PLP.part.buried>
-0.9274

> <Gold.PLP.part.nonpolar>
-34.6370

> <Gold.PLP.part.repulsive>
1.3319

> <Gold.PLP.ligand.clash>
0.0000

> <Gold.PLP.ligand.torsion>
0.4682

> <Gold.PLP.Chemscore.Hbond>
2.0000

> <Gold.PLP.Chemscore.CHOScore>
0.0000

> <Gold.PLP.Chemscore.Metal>
0.0000

> <Gold.Chemscore.Hbonds>
donor molecule, donor type, donor heavy atom, donor atom, acceptor molecule, acceptor atom, score
      L1  H     7    34       P1 10747  1.00
      P1  H 10752 10765       L1    15  0.48

> <Gold.PLP.Chemscore.Internal.Correction>
0.0160

> <Gold.Rescore>
     Score         DG    S(hbond)    S(metal)    S(lipo)     H(rot)  DE(clash)    DE(int)     intcor
     15.89     -18.45       1.99        0.00      87.83       1.54       1.35       1.21       ----

> <Gold.Chemscore.Fitness>
15.8859

> <Gold.Chemscore.DG>
-18.4529

> <Gold.Chemscore.ZeroCoef>
-5.4800

> <Gold.Chemscore.Hbond>
1.9871

> <Gold.Chemscore.Metal>
0.0000

> <Gold.Chemscore.Lipo>
87.8338

> <Gold.Chemscore.Internal_Hbond>
0.0000

> <Gold.Chemscore.DEClash>
1.3542

> <Gold.Chemscore.DEInternal>
1.2127

> <Gold.Chemscore.Rot>
1.5393

> <Gold.Chemscore.Internal.Correction>
   9.000000E+99

> <Gold.Chemscore.Hbonds>
donor molecule, donor type, donor heavy atom, donor atom, acceptor molecule, acceptor atom, score
      L1  H     7    34       P1 10747  0.99
      P1  H 10752 10765       L1    15  0.48

> <Gold.Chemscore.Hbond.Weighted>
-6.6370

> <Gold.Chemscore.Metal.Weighted>
-0.0000

> <Gold.Chemscore.Lipo.Weighted>
-10.2766

> <Gold.Chemscore.Internal_Hbond.Weighted>
0.0000

> <Gold.Chemscore.DEClash.Weighted>
1.3542

> <Gold.Chemscore.DEInternal.Weighted>
1.2127

> <Gold.Chemscore.Rot.Weighted>
3.9407

> <Gold.Chemscore.Internal.Correction.Weighted>
   9.000000E+99

> <Gold.Protein.RotatedTorsions>
[ 6907 6896 6895 6894 ] final   97.62 input  -60.11 | X-H torsion
[ 7974 7965 7964 7962 ] final   45.18 input  175.53 | X-H torsion
[ 8008 7997 7996 7995 ] final  164.45 input   59.86 | X-H torsion
[ 10167 10162 10161 10158 ] final -121.77 input  -65.29 | X-H torsion
[ 10718 10713 10712 10709 ] final -143.80 input   66.30 | X-H torsion
[ 10763 10752 10751 10750 ] final   84.99 input  -60.55 | X-H torsion
[ 11005 11000 10999 10996 ] final   11.98 input  -57.11 | X-H torsion

> <Gold.Protein.ActiveResidues>
 VAL166  LYS551  ARG553  GLY616  TRP617  ASP618  TYR619  PRO620  LYS621  CYS622 
 ASP623  PHE694  ASN695  SER759  ASP760  ASP761  ALA762  ILE779  LEU786  VAL792 
 PHE793  MET794  SER795  GLU796  ALA797  LYS798  CYS799  TRP800  GLU811  SER814 

> <Gold.Protein.RotatedAtoms>
  152.5421  134.0705  159.8191 H   0  0  0  0  0  0  0  0  0  0  0  0  # atno 6907 bound_to 6896
  151.0820  133.5375  159.2627 H   0  0  0  0  0  0  0  0  0  0  0  0  # atno 6908 bound_to 6896
  151.2199  135.0523  159.8999 H   0  0  0  0  0  0  0  0  0  0  0  0  # atno 6909 bound_to 6896
  146.0503  139.4993  142.9722 H   0  0  0  0  0  0  0  0  0  0  0  0  # atno 7974 bound_to 7965
  156.1878  140.1696  156.8150 H   0  0  0  0  0  0  0  0  0  0  0  0  # atno 8008 bound_to 7997
  154.5435  140.0732  156.8582 H   0  0  0  0  0  0  0  0  0  0  0  0  # atno 8009 bound_to 7997
  155.3167  140.3371  155.4244 H   0  0  0  0  0  0  0  0  0  0  0  0  # atno 8010 bound_to 7997
  140.0214  143.5340  152.2219 H   0  0  0  0  0  0  0  0  0  0  0  0  # atno 10167 bound_to 10162
  156.3623  130.7745  151.1914 H   0  0  0  0  0  0  0  0  0  0  0  0  # atno 10718 bound_to 10713
  153.1433  135.4634  154.9528 H   0  0  0  0  0  0  0  0  0  0  0  0  # atno 10763 bound_to 10752
  154.7765  135.3175  154.8083 H   0  0  0  0  0  0  0  0  0  0  0  0  # atno 10764 bound_to 10752
  153.8602  135.6913  153.4838 H   0  0  0  0  0  0  0  0  0  0  0  0  # atno 10765 bound_to 10752
  140.4971  134.0782  155.7785 H   0  0  0  0  0  0  0  0  0  0  0  0  # atno 11005 bound_to 11000
  145.6736  141.0210  143.1644 LP  0  0  0  0  0  0  0  0  0  0  0  0  # atno 17320 bound_to 7965
  144.7119  139.8339  143.7411 LP  0  0  0  0  0  0  0  0  0  0  0  0  # atno 17321 bound_to 7965
  139.6137  144.7614  151.2894 LP  0  0  0  0  0  0  0  0  0  0  0  0  # atno 17342 bound_to 10162
  140.7341  143.6776  150.8028 LP  0  0  0  0  0  0  0  0  0  0  0  0  # atno 17343 bound_to 10162
  157.7475  131.0396  150.4559 LP  0  0  0  0  0  0  0  0  0  0  0  0  # atno 17370 bound_to 10713
  156.4772  130.4066  149.6483 LP  0  0  0  0  0  0  0  0  0  0  0  0  # atno 17371 bound_to 10713
  141.1454  133.9064  157.2227 LP  0  0  0  0  0  0  0  0  0  0  0  0  # atno 17394 bound_to 11000
  139.9735  135.0121  156.9571 LP  0  0  0  0  0  0  0  0  0  0  0  0  # atno 17395 bound_to 11000

$$$$
