AV-unprocessed.smi:1550|AV-procd|sdf|6224|dock9
  -GOLD-   22720 6403D 1   1.00000     0.00000
 Structure written by MMmdl.
 43 44  0  0  0  0  0  0  0  0  1 V2000
  150.1652  137.8202  156.7997 C   0  0  0  0  0  0  0  0  0  0  0  0
  149.4049  138.2998  158.0451 C   0  0  2  0  0  0  0  0  0  0  0  0
  150.0783  139.4543  158.5389 O   0  0  0  0  0  0  0  0  0  0  0  0
  150.3463  140.4661  157.5743 C   0  0  0  0  0  0  0  0  0  0  0  0
  150.8425  141.7241  158.2976 C   0  0  2  0  0  0  0  0  0  0  0  0
  150.9140  142.9471  157.3616 C   0  0  0  0  0  0  0  0  0  0  0  0
  151.4999  144.1563  158.0988 C   0  0  0  0  0  0  0  0  0  0  0  0
  152.8378  143.7718  158.7395 C   0  0  0  0  0  0  0  0  0  0  0  0
  152.6741  142.5115  159.6037 C   0  0  0  0  0  0  0  0  0  0  0  0
  152.1411  141.4489  158.8188 O   0  0  0  0  0  0  0  0  0  0  0  0
  149.3543  137.2093  159.1282 C   0  0  0  0  0  0  0  0  0  0  0  0
  150.3812  136.9209  159.7417 O   0  0  0  0  0  0  0  0  0  0  0  0
  148.1392  136.6653  159.3400 N   0  0  0  0  0  0  0  0  0  0  0  0
  147.7370  135.6755  160.2537 C   0  0  0  0  0  0  0  0  0  0  0  0
  147.7995  134.3347  160.0390 C   0  0  0  0  0  0  0  0  0  0  0  0
  147.3634  133.3719  161.0369 C   0  0  0  0  0  0  0  0  0  0  0  0
  147.3850  131.8758  160.7626 C   0  0  0  0  0  0  0  0  0  0  0  0
  146.1981  131.3199  161.0102 F   0  0  0  0  0  0  0  0  0  0  0  0
  147.7068  131.6268  159.4930 F   0  0  0  0  0  0  0  0  0  0  0  0
  148.2900  131.2863  161.5426 F   0  0  0  0  0  0  0  0  0  0  0  0
  146.8662  133.8763  162.1812 C   0  0  0  0  0  0  0  0  0  0  0  0
  146.8016  135.2519  162.4115 N   0  0  0  0  0  0  0  0  0  0  0  0
  147.2026  136.1906  161.5256 C   0  0  0  0  0  0  0  0  0  0  0  0
  147.1095  137.3857  161.8037 O   0  0  0  0  0  0  0  0  0  0  0  0
  146.4262  135.5516  163.2996 H   0  0  0  0  0  0  0  0  0  0  0  0
  149.7049  136.9285  156.3725 H   0  0  0  0  0  0  0  0  0  0  0  0
  151.2053  137.5844  157.0288 H   0  0  0  0  0  0  0  0  0  0  0  0
  150.1665  138.5906  156.0283 H   0  0  0  0  0  0  0  0  0  0  0  0
  148.3921  138.5738  157.7426 H   0  0  0  0  0  0  0  0  0  0  0  0
  151.1155  140.1100  156.8875 H   0  0  0  0  0  0  0  0  0  0  0  0
  149.4645  140.7046  156.9784 H   0  0  0  0  0  0  0  0  0  0  0  0
  150.1706  141.9341  159.1319 H   0  0  0  0  0  0  0  0  0  0  0  0
  151.5347  142.7127  156.4958 H   0  0  0  0  0  0  0  0  0  0  0  0
  149.9228  143.1906  156.9777 H   0  0  0  0  0  0  0  0  0  0  0  0
  151.6325  144.9931  157.4126 H   0  0  0  0  0  0  0  0  0  0  0  0
  150.8042  144.4884  158.8705 H   0  0  0  0  0  0  0  0  0  0  0  0
  153.5772  143.5844  157.9597 H   0  0  0  0  0  0  0  0  0  0  0  0
  153.2195  144.5967  159.3415 H   0  0  0  0  0  0  0  0  0  0  0  0
  153.6406  142.2036  160.0027 H   0  0  0  0  0  0  0  0  0  0  0  0
  152.0255  142.7072  160.4589 H   0  0  0  0  0  0  0  0  0  0  0  0
  147.3872  137.0408  158.7799 H   0  0  0  0  0  0  0  0  0  0  0  0
  148.1732  133.9324  159.1126 H   0  0  0  0  0  0  0  0  0  0  0  0
  146.4822  133.2779  162.9942 H   0  0  0  0  0  0  0  0  0  0  0  0
  1  2  1  0  0  0  0
  1 26  1  0  0  0  0
  1 27  1  0  0  0  0
  1 28  1  0  0  0  0
  2  3  1  0  0  0  0
  2 11  1  0  0  0  0
  2 29  1  0  0  0  0
  3  4  1  0  0  0  0
  4  5  1  0  0  0  0
  4 30  1  0  0  0  0
  4 31  1  0  0  0  0
  5 10  1  0  0  0  0
  5  6  1  0  0  0  0
  5 32  1  0  0  0  0
  6  7  1  0  0  0  0
  6 33  1  0  0  0  0
  6 34  1  0  0  0  0
  7  8  1  0  0  0  0
  7 35  1  0  0  0  0
  7 36  1  0  0  0  0
  8  9  1  0  0  0  0
  8 37  1  0  0  0  0
  8 38  1  0  0  0  0
  9 10  1  0  0  0  0
  9 39  1  0  0  0  0
  9 40  1  0  0  0  0
 11 12  2  0  0  0  0
 11 13  1  0  0  0  0
 13 14  1  0  0  0  0
 13 41  1  0  0  0  0
 14 23  1  0  0  0  0
 14 15  2  0  0  0  0
 15 16  1  0  0  0  0
 15 42  1  0  0  0  0
 16 17  1  0  0  0  0
 16 21  2  0  0  0  0
 17 18  1  0  0  0  0
 17 19  1  0  0  0  0
 17 20  1  0  0  0  0
 21 22  1  0  0  0  0
 21 43  1  0  0  0  0
 22 25  1  0  0  0  0
 22 23  1  0  0  0  0
 23 24  2  0  0  0  0
M  END
> <s_m_source_file>
AV-unprocessed.smi

> <i_m_source_file_index>
1550

> <i_lp_mmshare_version>
43012

> <i_f3d_flags>
0

> <s_epik_input>
TzFbQ0gyXVtDSDJdW0NIMl1bQ0gyXVtDQEhdMVtDSDJdT1tDQEBIXShbQ0gzXSlDKD1PKVtOSF1jMltjSF1jKEMoRikoRilGKVtjSF1bbkhdYzI9Tw==

> <s_epik_cmdline>
J2VwaWtfcHl0aG9uJywgJy1waCcsICc3LjAnLCAnLXRuJywgJzgnLCAnLW1hJywgJzIwMCcsICctbWV0YWxfYmluZGluZycsICctaW1hZScsICc8aW5maWxlLm1hZT4nLCAnLW9tYWUnLCAnPG91dGZpbGUubWFlPic=

> <r_lp_tautomer_probability>
0.999

> <r_epik_Ionization_Penalty>
0.00891333

> <r_epik_Ionization_Penalty_Charging>
0.00891323

> <r_epik_Ionization_Penalty_Neutral>
1.00146e-07

> <r_epik_State_Penalty>
0.00674197

> <r_epik_Charging_Adjusted_Penalty>
0.0156552

> <i_epik_Tot_Q>
0

> <i_epik_Tot_abs_Q>
0

> <r_epik_Metal_State_Penalty>
0.321024

> <b_epik_Metal_Only>
0

> <s_lp_Force_Field>
OPLS_2005

> <r_lp_Energy>
25.3727

> <b_lp_Chiralities_Consistent>
1

> <s_lp_Variant>
AV-unprocessed.smi:1550-1

> <Gold.Version>
5.8.1

> <Gold.Id.Protein>
6NUR|6NUR_protein|mol2

> <Gold.PLP.Fitness>
48.2746

> <Gold.PLP.PLP>
-43.3694

> <Gold.PLP.part.hbond>
-3.3303

> <Gold.PLP.part.metal>
0.0000

> <Gold.PLP.part.buried>
-5.4308

> <Gold.PLP.part.nonpolar>
-36.3081

> <Gold.PLP.part.repulsive>
0.3101

> <Gold.PLP.ligand.clash>
0.0000

> <Gold.PLP.ligand.torsion>
1.3126

> <Gold.PLP.Chemscore.Hbond>
2.4720

> <Gold.PLP.Chemscore.CHOScore>
0.0000

> <Gold.PLP.Chemscore.Metal>
0.0000

> <Gold.Chemscore.Hbonds>
donor molecule, donor type, donor heavy atom, donor atom, acceptor molecule, acceptor atom, score
      P1  H  6896  6907       L1    12  1.00
      P1  H  6931  6943       L1    24  0.62
      P1  H  6934  6947       L1    24  0.83

> <Gold.PLP.Chemscore.Internal.Correction>
0.1143

> <Gold.Rescore>
     Score         DG    S(hbond)    S(metal)    S(lipo)     H(rot)  DE(clash)    DE(int)     intcor
     19.29     -20.37       2.64        0.00      92.50       1.86       0.00       1.07       ----

> <Gold.Chemscore.Fitness>
19.2948

> <Gold.Chemscore.DG>
-20.3658

> <Gold.Chemscore.ZeroCoef>
-5.4800

> <Gold.Chemscore.Hbond>
2.6398

> <Gold.Chemscore.Metal>
0.0000

> <Gold.Chemscore.Lipo>
92.5045

> <Gold.Chemscore.Internal_Hbond>
0.0000

> <Gold.Chemscore.DEClash>
0.0004

> <Gold.Chemscore.DEInternal>
1.0706

> <Gold.Chemscore.Rot>
1.8571

> <Gold.Chemscore.Internal.Correction>
   9.000000E+99

> <Gold.Chemscore.Hbonds>
donor molecule, donor type, donor heavy atom, donor atom, acceptor molecule, acceptor atom, score
      P1  H  6896  6907       L1    12  0.94
      P1  H  6931  6943       L1    24  0.47
      P1  H  6934  6947       L1    24  0.83

> <Gold.Chemscore.Hbond.Weighted>
-8.8168

> <Gold.Chemscore.Metal.Weighted>
-0.0000

> <Gold.Chemscore.Lipo.Weighted>
-10.8230

> <Gold.Chemscore.Internal_Hbond.Weighted>
0.0000

> <Gold.Chemscore.DEClash.Weighted>
0.0004

> <Gold.Chemscore.DEInternal.Weighted>
1.0706

> <Gold.Chemscore.Rot.Weighted>
4.7541

> <Gold.Chemscore.Internal.Correction.Weighted>
   9.000000E+99

> <Gold.Protein.RotatedTorsions>
[ 6907 6896 6895 6894 ] final  -35.95 input  -60.11 | X-H torsion
[ 7974 7965 7964 7962 ] final  117.28 input  175.53 | X-H torsion
[ 8008 7997 7996 7995 ] final -171.40 input   59.86 | X-H torsion
[ 10167 10162 10161 10158 ] final -152.59 input  -65.29 | X-H torsion
[ 10718 10713 10712 10709 ] final  142.04 input   66.30 | X-H torsion
[ 10763 10752 10751 10750 ] final -130.78 input  -60.55 | X-H torsion
[ 11005 11000 10999 10996 ] final   13.52 input  -57.11 | X-H torsion

> <Gold.Protein.ActiveResidues>
 VAL166  LYS551  ARG553  GLY616  TRP617  ASP618  TYR619  PRO620  LYS621  CYS622 
 ASP623  PHE694  ASN695  SER759  ASP760  ASP761  ALA762  ILE779  LEU786  VAL792 
 PHE793  MET794  SER795  GLU796  ALA797  LYS798  CYS799  TRP800  GLU811  SER814 

> <Gold.Protein.RotatedAtoms>
  151.0333  134.9555  159.8122 H   0  0  0  0  0  0  0  0  0  0  0  0  # atno 6907 bound_to 6896
  152.5350  134.2752  159.8996 H   0  0  0  0  0  0  0  0  0  0  0  0  # atno 6908 bound_to 6896
  151.2762  133.4189  159.2658 H   0  0  0  0  0  0  0  0  0  0  0  0  # atno 6909 bound_to 6896
  145.1693  139.3111  143.4476 H   0  0  0  0  0  0  0  0  0  0  0  0  # atno 7974 bound_to 7965
  155.9311  140.1091  157.1132 H   0  0  0  0  0  0  0  0  0  0  0  0  # atno 8008 bound_to 7997
  154.4071  140.1237  156.4869 H   0  0  0  0  0  0  0  0  0  0  0  0  # atno 8009 bound_to 7997
  155.7079  140.3471  155.4963 H   0  0  0  0  0  0  0  0  0  0  0  0  # atno 8010 bound_to 7997
  139.7168  143.9020  152.2489 H   0  0  0  0  0  0  0  0  0  0  0  0  # atno 10167 bound_to 10162
  157.3851  131.0997  151.0701 H   0  0  0  0  0  0  0  0  0  0  0  0  # atno 10718 bound_to 10713
  154.8754  135.3851  154.4139 H   0  0  0  0  0  0  0  0  0  0  0  0  # atno 10763 bound_to 10752
  153.4849  135.7030  153.5922 H   0  0  0  0  0  0  0  0  0  0  0  0  # atno 10764 bound_to 10752
  153.4321  135.3876  155.2144 H   0  0  0  0  0  0  0  0  0  0  0  0  # atno 10765 bound_to 10752
  140.4798  134.0946  155.7749 H   0  0  0  0  0  0  0  0  0  0  0  0  # atno 11005 bound_to 11000
  146.3471  140.1832  142.8589 LP  0  0  0  0  0  0  0  0  0  0  0  0  # atno 17320 bound_to 7965
  145.0250  140.8824  143.5144 LP  0  0  0  0  0  0  0  0  0  0  0  0  # atno 17321 bound_to 7965
  139.8905  144.6968  150.8776 LP  0  0  0  0  0  0  0  0  0  0  0  0  # atno 17342 bound_to 10162
  140.7745  143.3590  151.1865 LP  0  0  0  0  0  0  0  0  0  0  0  0  # atno 17343 bound_to 10162
  157.1755  130.6286  149.5654 LP  0  0  0  0  0  0  0  0  0  0  0  0  # atno 17370 bound_to 10713
  155.9785  130.4771  150.6657 LP  0  0  0  0  0  0  0  0  0  0  0  0  # atno 17371 bound_to 10713
  141.1536  133.8923  157.2034 LP  0  0  0  0  0  0  0  0  0  0  0  0  # atno 17394 bound_to 11000
  139.9833  135.0090  156.9802 LP  0  0  0  0  0  0  0  0  0  0  0  0  # atno 17395 bound_to 11000

$$$$
