AV-unprocessed.smi:1867|AV-procd|sdf|7579|dock10
  -GOLD-   22720 9293D 1   1.00000     0.00000
 Structure written by MMmdl.
 52 55  0  0  0  0  0  0  0  0  4 V2000
  147.0590  140.3221  153.6867 O   0  0  0  0  0  0  0  0  0  0  0  0
  147.7459  139.3456  153.3930 C   0  0  0  0  0  0  0  0  0  0  0  0
  149.0163  139.2688  153.8606 N   0  0  0  0  0  0  0  0  0  0  0  0
  149.7000  140.1413  154.7494 C   0  0  0  0  0  0  0  0  0  0  0  0
  150.8590  139.6546  155.3887 C   0  0  0  0  0  0  0  0  0  0  0  0
  151.5570  140.4786  156.2954 C   0  0  0  0  0  0  0  0  0  0  0  0
  151.0832  141.7846  156.5629 C   0  0  0  0  0  0  0  0  0  0  0  0
  151.7267  142.6617  157.4566 N   0  0  0  0  0  0  0  0  0  0  0  0
  152.0554  142.2512  158.8129 C   0  0  0  0  0  0  0  0  0  0  0  0
  152.5360  143.5293  159.4980 C   0  0  0  0  0  0  0  0  0  0  0  0
  151.7087  144.6188  158.8164 C   0  0  0  0  0  0  0  0  0  0  0  0
  151.5137  144.1007  157.3865 C   0  0  0  0  0  0  0  0  0  0  0  0
  149.9525  142.2010  155.9446 N   0  3  0  0  0  0  0  0  0  0  0  0
  149.2547  141.4457  155.0691 C   0  0  0  0  0  0  0  0  0  0  0  0
  147.2566  138.3539  152.5892 N   0  5  0  0  0  0  0  0  0  0  0  0
  145.8849  138.1468  152.0930 C   0  0  1  0  0  0  0  0  0  0  0  0
  145.8787  137.0752  150.9951 C   0  0  0  0  0  0  0  0  0  0  0  0
  145.7815  135.7252  151.7313 C   0  0  0  0  0  0  0  0  0  0  0  0
  145.3102  136.0075  153.1116 N   0  3  1  0  0  0  0  0  0  0  0  0
  146.2504  135.5013  154.1533 C   0  0  0  0  0  0  0  0  0  0  0  0
  145.8869  135.9961  155.5581 C   0  0  0  0  0  0  0  0  0  0  0  0
  145.9092  137.5256  155.5928 C   0  0  0  0  0  0  0  0  0  0  0  0
  144.8907  138.0774  154.5862 C   0  0  0  0  0  0  0  0  0  0  0  0
  145.0040  137.4651  153.1616 C   0  0  1  0  0  0  0  0  0  0  0  0
  149.5664  138.5065  153.4927 H   0  0  0  0  0  0  0  0  0  0  0  0
  151.2166  138.6560  155.1842 H   0  0  0  0  0  0  0  0  0  0  0  0
  152.4426  140.0948  156.7795 H   0  0  0  0  0  0  0  0  0  0  0  0
  151.1616  141.8645  159.3049 H   0  0  0  0  0  0  0  0  0  0  0  0
  152.8215  141.4751  158.8248 H   0  0  0  0  0  0  0  0  0  0  0  0
  152.4050  143.5061  160.5802 H   0  0  0  0  0  0  0  0  0  0  0  0
  153.5951  143.6862  159.2887 H   0  0  0  0  0  0  0  0  0  0  0  0
  150.7396  144.7009  159.3105 H   0  0  0  0  0  0  0  0  0  0  0  0
  152.1848  145.5992  158.8499 H   0  0  0  0  0  0  0  0  0  0  0  0
  152.2556  144.5338  156.7149 H   0  0  0  0  0  0  0  0  0  0  0  0
  150.5222  144.3572  157.0127 H   0  0  0  0  0  0  0  0  0  0  0  0
  148.3647  141.9115  154.6730 H   0  0  0  0  0  0  0  0  0  0  0  0
  145.4244  139.0719  151.7432 H   0  0  0  0  0  0  0  0  0  0  0  0
  144.9911  137.2077  150.3748 H   0  0  0  0  0  0  0  0  0  0  0  0
  146.7416  137.1293  150.3296 H   0  0  0  0  0  0  0  0  0  0  0  0
  145.0834  135.0558  151.2281 H   0  0  0  0  0  0  0  0  0  0  0  0
  146.7521  135.2249  151.7364 H   0  0  0  0  0  0  0  0  0  0  0  0
  146.2479  134.4112  154.1295 H   0  0  0  0  0  0  0  0  0  0  0  0
  147.2698  135.8146  153.9220 H   0  0  0  0  0  0  0  0  0  0  0  0
  144.9025  135.6248  155.8466 H   0  0  0  0  0  0  0  0  0  0  0  0
  146.5964  135.5995  156.2847 H   0  0  0  0  0  0  0  0  0  0  0  0
  145.6739  137.8832  156.5955 H   0  0  0  0  0  0  0  0  0  0  0  0
  146.9102  137.8909  155.3612 H   0  0  0  0  0  0  0  0  0  0  0  0
  143.8975  137.8424  154.9715 H   0  0  0  0  0  0  0  0  0  0  0  0
  144.9349  139.1678  154.5615 H   0  0  0  0  0  0  0  0  0  0  0  0
  143.9934  137.5343  152.7542 H   0  0  0  0  0  0  0  0  0  0  0  0
  144.4368  135.5225  153.2553 H   0  0  0  0  0  0  0  0  0  0  0  0
  149.6053  143.1375  156.1512 H   0  0  0  0  0  0  0  0  0  0  0  0
  1  2  2  0  0  0  0
  2  3  1  0  0  0  0
  2 15  1  0  0  0  0
  3  4  1  0  0  0  0
  3 25  1  0  0  0  0
  4 14  1  0  0  0  0
  4  5  2  0  0  0  0
  5  6  1  0  0  0  0
  5 26  1  0  0  0  0
  6  7  2  0  0  0  0
  6 27  1  0  0  0  0
  7  8  1  0  0  0  0
  7 13  1  0  0  0  0
  8 12  1  0  0  0  0
  8  9  1  0  0  0  0
  9 10  1  0  0  0  0
  9 28  1  0  0  0  0
  9 29  1  0  0  0  0
 10 11  1  0  0  0  0
 10 30  1  0  0  0  0
 10 31  1  0  0  0  0
 11 12  1  0  0  0  0
 11 32  1  0  0  0  0
 11 33  1  0  0  0  0
 12 34  1  0  0  0  0
 12 35  1  0  0  0  0
 13 14  2  0  0  0  0
 13 52  1  0  0  0  0
 14 36  1  0  0  0  0
 15 16  1  0  0  0  0
 16 24  1  0  0  0  0
 16 17  1  0  0  0  0
 16 37  1  0  0  0  0
 17 18  1  0  0  0  0
 17 38  1  0  0  0  0
 17 39  1  0  0  0  0
 18 19  1  0  0  0  0
 18 40  1  0  0  0  0
 18 41  1  0  0  0  0
 19 24  1  0  0  0  0
 19 20  1  0  0  0  0
 19 51  1  0  0  0  0
 20 21  1  0  0  0  0
 20 42  1  0  0  0  0
 20 43  1  0  0  0  0
 21 22  1  0  0  0  0
 21 44  1  0  0  0  0
 21 45  1  0  0  0  0
 22 23  1  0  0  0  0
 22 46  1  0  0  0  0
 22 47  1  0  0  0  0
 23 24  1  0  0  0  0
 23 48  1  0  0  0  0
 23 49  1  0  0  0  0
 24 50  1  0  0  0  0
M  CHG  1  13   1
M  CHG  1  15  -1
M  CHG  1  19   1
M  END
> <s_m_source_file>
AV-unprocessed.smi

> <i_m_source_file_index>
1867

> <i_lp_mmshare_version>
43012

> <i_f3d_flags>
0

> <s_epik_input>
W0NIMl0xW0NIMl1bQ0gyXVtDSDJdW0NASF0oTjEyKVtDQEBIXShbQ0gyXVtDSDJdMilbTkhdQyg9TylbTkhdYzNbY0hdW2NIXWMobltjSF0zKU40W0NIMl1bQ0gyXVtDSDJdW0NIMl00

> <s_epik_cmdline>
J2VwaWtfcHl0aG9uJywgJy1waCcsICc3LjAnLCAnLXRuJywgJzgnLCAnLW1hJywgJzIwMCcsICctbWV0YWxfYmluZGluZycsICctaW1hZScsICc8aW5maWxlLm1hZT4nLCAnLW9tYWUnLCAnPG91dGZpbGUubWFlPic=

> <r_lp_tautomer_probability>
0.999994

> <r_epik_Ionization_Penalty>
8.56137

> <r_epik_Ionization_Penalty_Charging>
8.56136

> <r_epik_Ionization_Penalty_Neutral>
3.91889e-06

> <r_epik_State_Penalty>
8.16255

> <r_epik_Charging_Adjusted_Penalty>
16.7239

> <i_epik_Tot_Q>
1

> <i_epik_Tot_abs_Q>
3

> <r_epik_Metal_State_Penalty>
4.14279

> <b_epik_Metal_Only>
1

> <s_lp_Force_Field>
OPLS_2005

> <r_lp_Energy>
73.5992

> <b_lp_Chiralities_Consistent>
1

> <s_lp_Variant>
AV-unprocessed.smi:1867-20

> <Gold.Version>
5.8.1

> <Gold.Id.Protein>
6NUR|6NUR_protein|mol2

> <Gold.PLP.Fitness>
40.4819

> <Gold.PLP.PLP>
-35.9401

> <Gold.PLP.part.hbond>
-2.0000

> <Gold.PLP.part.metal>
0.0000

> <Gold.PLP.part.buried>
3.1469

> <Gold.PLP.part.nonpolar>
-39.8959

> <Gold.PLP.part.repulsive>
2.6976

> <Gold.PLP.ligand.clash>
0.0000

> <Gold.PLP.ligand.torsion>
0.8665

> <Gold.PLP.Chemscore.Hbond>
2.0000

> <Gold.PLP.Chemscore.CHOScore>
0.0000

> <Gold.PLP.Chemscore.Metal>
0.0000

> <Gold.Chemscore.Hbonds>
donor molecule, donor type, donor heavy atom, donor atom, acceptor molecule, acceptor atom, score
      L1  H    13    52       P1  8028  2.00

> <Gold.PLP.Chemscore.Internal.Correction>
0.2747

> <Gold.Rescore>
     Score         DG    S(hbond)    S(metal)    S(lipo)     H(rot)  DE(clash)    DE(int)     intcor
     14.57     -16.93       0.93        0.00      93.09       1.00       0.33       2.03       ----

> <Gold.Chemscore.Fitness>
14.5706

> <Gold.Chemscore.DG>
-16.9298

> <Gold.Chemscore.ZeroCoef>
-5.4800

> <Gold.Chemscore.Hbond>
0.9337

> <Gold.Chemscore.Metal>
0.0000

> <Gold.Chemscore.Lipo>
93.0874

> <Gold.Chemscore.Internal_Hbond>
0.0000

> <Gold.Chemscore.DEClash>
0.3293

> <Gold.Chemscore.DEInternal>
2.0300

> <Gold.Chemscore.Rot>
1.0000

> <Gold.Chemscore.Internal.Correction>
   9.000000E+99

> <Gold.Chemscore.Hbonds>
donor molecule, donor type, donor heavy atom, donor atom, acceptor molecule, acceptor atom, score
      L1  H    13    52       P1  8028  0.96

> <Gold.Chemscore.Hbond.Weighted>
-3.1186

> <Gold.Chemscore.Metal.Weighted>
-0.0000

> <Gold.Chemscore.Lipo.Weighted>
-10.8912

> <Gold.Chemscore.Internal_Hbond.Weighted>
0.0000

> <Gold.Chemscore.DEClash.Weighted>
0.3293

> <Gold.Chemscore.DEInternal.Weighted>
2.0300

> <Gold.Chemscore.Rot.Weighted>
2.5600

> <Gold.Chemscore.Internal.Correction.Weighted>
   9.000000E+99

> <Gold.Protein.RotatedTorsions>
[ 6907 6896 6895 6894 ] final  -19.92 input  -60.11 | X-H torsion
[ 7974 7965 7964 7962 ] final  177.06 input  175.53 | X-H torsion
[ 8008 7997 7996 7995 ] final   77.15 input   59.86 | X-H torsion
[ 10167 10162 10161 10158 ] final   79.00 input  -65.29 | X-H torsion
[ 10718 10713 10712 10709 ] final   65.23 input   66.30 | X-H torsion
[ 10763 10752 10751 10750 ] final  -51.56 input  -60.55 | X-H torsion
[ 11005 11000 10999 10996 ] final  113.70 input  -57.11 | X-H torsion

> <Gold.Protein.ActiveResidues>
 VAL166  LYS551  ARG553  GLY616  TRP617  ASP618  TYR619  PRO620  LYS621  CYS622 
 ASP623  PHE694  ASN695  SER759  ASP760  ASP761  ALA762  ILE779  LEU786  VAL792 
 PHE793  MET794  SER795  GLU796  ALA797  LYS798  CYS799  TRP800  GLU811  SER814 

> <Gold.Protein.RotatedAtoms>
  151.2559  135.0638  159.9079 H   0  0  0  0  0  0  0  0  0  0  0  0  # atno 6907 bound_to 6896
  152.5373  134.0282  159.8023 H   0  0  0  0  0  0  0  0  0  0  0  0  # atno 6908 bound_to 6896
  151.0498  133.5585  159.2674 H   0  0  0  0  0  0  0  0  0  0  0  0  # atno 6909 bound_to 6896
  144.7174  140.0190  143.6440 H   0  0  0  0  0  0  0  0  0  0  0  0  # atno 7974 bound_to 7965
  155.8376  140.3463  155.5611 H   0  0  0  0  0  0  0  0  0  0  0  0  # atno 8008 bound_to 7997
  155.8176  140.0908  157.1888 H   0  0  0  0  0  0  0  0  0  0  0  0  # atno 8009 bound_to 7997
  154.4004  140.1436  156.3448 H   0  0  0  0  0  0  0  0  0  0  0  0  # atno 8010 bound_to 7997
  139.9649  144.5935  150.8038 H   0  0  0  0  0  0  0  0  0  0  0  0  # atno 10167 bound_to 10162
  157.6092  130.9203  149.9949 H   0  0  0  0  0  0  0  0  0  0  0  0  # atno 10718 bound_to 10713
  154.1286  135.6523  153.4917 H   0  0  0  0  0  0  0  0  0  0  0  0  # atno 10763 bound_to 10752
  153.0202  135.5287  154.7024 H   0  0  0  0  0  0  0  0  0  0  0  0  # atno 10764 bound_to 10752
  154.6252  135.2969  155.0250 H   0  0  0  0  0  0  0  0  0  0  0  0  # atno 10765 bound_to 10752
  139.8960  134.9555  156.6779 H   0  0  0  0  0  0  0  0  0  0  0  0  # atno 11005 bound_to 11000
  146.0196  139.3239  143.0821 LP  0  0  0  0  0  0  0  0  0  0  0  0  # atno 17320 bound_to 7965
  145.8584  140.9489  143.0713 LP  0  0  0  0  0  0  0  0  0  0  0  0  # atno 17321 bound_to 7965
  140.7541  143.3021  151.3055 LP  0  0  0  0  0  0  0  0  0  0  0  0  # atno 17342 bound_to 10162
  139.6525  144.0336  152.2636 LP  0  0  0  0  0  0  0  0  0  0  0  0  # atno 17343 bound_to 10162
  156.1188  130.3646  149.9922 LP  0  0  0  0  0  0  0  0  0  0  0  0  # atno 17370 bound_to 10713
  156.8006  130.9289  151.3646 LP  0  0  0  0  0  0  0  0  0  0  0  0  # atno 17371 bound_to 10713
  140.7322  133.9049  155.8219 LP  0  0  0  0  0  0  0  0  0  0  0  0  # atno 17394 bound_to 11000
  141.0144  134.0975  157.4187 LP  0  0  0  0  0  0  0  0  0  0  0  0  # atno 17395 bound_to 11000

$$$$
