AV-unprocessed.smi:1470|AV-procd|sdf|5960|dock5
  -GOLD-   22720 6 43D 1   1.00000     0.00000
 Structure written by MMmdl.
 42 43  0  0  0  0  0  0  0  0  1 V2000
  145.0456  134.7458  151.1191 C   0  0  0  0  0  0  0  0  0  0  0  0
  145.3921  136.0250  151.6184 O   0  0  0  0  0  0  0  0  0  0  0  0
  145.7270  136.9414  150.5894 C   0  0  0  0  0  0  0  0  0  0  0  0
  146.0493  138.3144  151.1985 C   0  0  0  0  0  0  0  0  0  0  0  0
  147.2392  138.2663  152.0415 N   0  0  0  0  0  0  0  0  0  0  0  0
  147.5736  139.1857  152.9580 C   0  0  0  0  0  0  0  0  0  0  0  0
  146.8901  140.1785  153.2074 O   0  0  0  0  0  0  0  0  0  0  0  0
  148.7254  138.8644  153.5713 N   0  0  0  0  0  0  0  0  0  0  0  0
  149.4364  139.6116  154.5480 C   0  0  0  0  0  0  0  0  0  0  0  0
  150.7241  139.1759  154.9149 C   0  0  0  0  0  0  0  0  0  0  0  0
  151.4563  139.9151  155.8632 C   0  0  0  0  0  0  0  0  0  0  0  0
  150.8845  141.0843  156.4175 C   0  0  0  0  0  0  0  0  0  0  0  0
  151.6010  141.8419  157.3698 N   0  0  0  0  0  0  0  0  0  0  0  0
  151.1686  143.2223  157.6053 C   0  0  0  0  0  0  0  0  0  0  0  0
  152.2474  144.0241  158.3531 C   0  0  0  0  0  0  0  0  0  0  0  0
  152.6701  143.3092  159.6447 C   0  0  0  0  0  0  0  0  0  0  0  0
  153.1191  141.8753  159.3272 C   0  0  0  0  0  0  0  0  0  0  0  0
  152.0254  141.1085  158.5642 C   0  0  0  0  0  0  0  0  0  0  0  0
  149.6528  141.5139  156.0486 N   0  0  0  0  0  0  0  0  0  0  0  0
  148.9522  140.8008  155.1419 C   0  0  0  0  0  0  0  0  0  0  0  0
  144.7971  134.0847  151.9492 H   0  0  0  0  0  0  0  0  0  0  0  0
  145.8748  134.2990  150.5691 H   0  0  0  0  0  0  0  0  0  0  0  0
  144.1773  134.8012  150.4611 H   0  0  0  0  0  0  0  0  0  0  0  0
  146.5994  136.5714  150.0485 H   0  0  0  0  0  0  0  0  0  0  0  0
  144.9108  137.0266  149.8700 H   0  0  0  0  0  0  0  0  0  0  0  0
  146.1485  139.0702  150.4176 H   0  0  0  0  0  0  0  0  0  0  0  0
  145.2177  138.6317  151.8279 H   0  0  0  0  0  0  0  0  0  0  0  0
  147.8580  137.4799  151.9093 H   0  0  0  0  0  0  0  0  0  0  0  0
  149.1201  137.9649  153.3390 H   0  0  0  0  0  0  0  0  0  0  0  0
  151.1498  138.2845  154.4776 H   0  0  0  0  0  0  0  0  0  0  0  0
  152.4476  139.5890  156.1407 H   0  0  0  0  0  0  0  0  0  0  0  0
  150.9536  143.7165  156.6569 H   0  0  0  0  0  0  0  0  0  0  0  0
  150.2429  143.2137  158.1828 H   0  0  0  0  0  0  0  0  0  0  0  0
  153.1171  144.1549  157.7077 H   0  0  0  0  0  0  0  0  0  0  0  0
  151.8772  145.0239  158.5810 H   0  0  0  0  0  0  0  0  0  0  0  0
  153.4755  143.8576  160.1341 H   0  0  0  0  0  0  0  0  0  0  0  0
  151.8342  143.2874  160.3448 H   0  0  0  0  0  0  0  0  0  0  0  0
  154.0301  141.9025  158.7276 H   0  0  0  0  0  0  0  0  0  0  0  0
  153.3701  141.3491  160.2484 H   0  0  0  0  0  0  0  0  0  0  0  0
  151.1571  140.9633  159.2082 H   0  0  0  0  0  0  0  0  0  0  0  0
  152.3979  140.1152  158.3174 H   0  0  0  0  0  0  0  0  0  0  0  0
  147.9934  141.2204  154.8798 H   0  0  0  0  0  0  0  0  0  0  0  0
  1  2  1  0  0  0  0
  1 21  1  0  0  0  0
  1 22  1  0  0  0  0
  1 23  1  0  0  0  0
  2  3  1  0  0  0  0
  3  4  1  0  0  0  0
  3 24  1  0  0  0  0
  3 25  1  0  0  0  0
  4  5  1  0  0  0  0
  4 26  1  0  0  0  0
  4 27  1  0  0  0  0
  5  6  1  0  0  0  0
  5 28  1  0  0  0  0
  6  7  2  0  0  0  0
  6  8  1  0  0  0  0
  8  9  1  0  0  0  0
  8 29  1  0  0  0  0
  9 20  1  0  0  0  0
  9 10  2  0  0  0  0
 10 11  1  0  0  0  0
 10 30  1  0  0  0  0
 11 12  2  0  0  0  0
 11 31  1  0  0  0  0
 12 13  1  0  0  0  0
 12 19  1  0  0  0  0
 13 18  1  0  0  0  0
 13 14  1  0  0  0  0
 14 15  1  0  0  0  0
 14 32  1  0  0  0  0
 14 33  1  0  0  0  0
 15 16  1  0  0  0  0
 15 34  1  0  0  0  0
 15 35  1  0  0  0  0
 16 17  1  0  0  0  0
 16 36  1  0  0  0  0
 16 37  1  0  0  0  0
 17 18  1  0  0  0  0
 17 38  1  0  0  0  0
 17 39  1  0  0  0  0
 18 40  1  0  0  0  0
 18 41  1  0  0  0  0
 19 20  2  0  0  0  0
 20 42  1  0  0  0  0
M  END
> <s_m_source_file>
AV-unprocessed.smi

> <i_m_source_file_index>
1470

> <i_lp_mmshare_version>
43012

> <i_f3d_flags>
0

> <s_epik_input>
W0NIM11PW0NIMl1bQ0gyXVtOSF1DKD1PKVtOSF1jMVtjSF1bY0hdYyhuW2NIXTEpTjJbQ0gyXVtDSDJdW0NIMl1bQ0gyXVtDSDJdMg==

> <s_epik_cmdline>
J2VwaWtfcHl0aG9uJywgJy1waCcsICc3LjAnLCAnLXRuJywgJzgnLCAnLW1hJywgJzIwMCcsICctbWV0YWxfYmluZGluZycsICctaW1hZScsICc8aW5maWxlLm1hZT4nLCAnLW9tYWUnLCAnPG91dGZpbGUubWFlPic=

> <r_lp_tautomer_probability>
1

> <r_epik_Ionization_Penalty>
0.104129

> <r_epik_Ionization_Penalty_Charging>
0

> <r_epik_Ionization_Penalty_Neutral>
0.104129

> <r_epik_State_Penalty>
0.0879167

> <r_epik_Charging_Adjusted_Penalty>
0.0879167

> <i_epik_Tot_Q>
0

> <i_epik_Tot_abs_Q>
0

> <r_epik_Metal_State_Penalty>
0.0753231

> <b_epik_Metal_Only>
0

> <s_lp_Force_Field>
OPLS_2005

> <r_lp_Energy>
19.434

> <b_lp_Chiralities_Consistent>
1

> <s_lp_Variant>
AV-unprocessed.smi:1470-1

> <Gold.Version>
5.8.1

> <Gold.Id.Protein>
6NUR|6NUR_protein|mol2

> <Gold.PLP.Fitness>
43.5657

> <Gold.PLP.PLP>
-39.7169

> <Gold.PLP.part.hbond>
-3.6891

> <Gold.PLP.part.metal>
0.0000

> <Gold.PLP.part.buried>
7.9363

> <Gold.PLP.part.nonpolar>
-44.3981

> <Gold.PLP.part.repulsive>
0.8088

> <Gold.PLP.ligand.clash>
0.0000

> <Gold.PLP.ligand.torsion>
0.3990

> <Gold.PLP.Chemscore.Hbond>
1.4004

> <Gold.PLP.Chemscore.CHOScore>
0.0000

> <Gold.PLP.Chemscore.Metal>
0.0000

> <Gold.Chemscore.Hbonds>
donor molecule, donor type, donor heavy atom, donor atom, acceptor molecule, acceptor atom, score
      L1  H     5    28       P1  7948  1.00
      L1  H     8    29       P1  7948  0.38

> <Gold.PLP.Chemscore.Internal.Correction>
0.4456

> <Gold.Rescore>
     Score         DG    S(hbond)    S(metal)    S(lipo)     H(rot)  DE(clash)    DE(int)     intcor
     13.55     -15.82       0.96        0.00      96.12       1.61       0.55       1.72       ----

> <Gold.Chemscore.Fitness>
13.5519

> <Gold.Chemscore.DG>
-15.8216

> <Gold.Chemscore.ZeroCoef>
-5.4800

> <Gold.Chemscore.Hbond>
0.9621

> <Gold.Chemscore.Metal>
0.0000

> <Gold.Chemscore.Lipo>
96.1221

> <Gold.Chemscore.Internal_Hbond>
0.0000

> <Gold.Chemscore.DEClash>
0.5477

> <Gold.Chemscore.DEInternal>
1.7220

> <Gold.Chemscore.Rot>
1.6086

> <Gold.Chemscore.Internal.Correction>
   9.000000E+99

> <Gold.Chemscore.Hbonds>
donor molecule, donor type, donor heavy atom, donor atom, acceptor molecule, acceptor atom, score
      L1  H     5    28       P1  7948  1.00
      L1  H     8    29       P1  7948  0.37

> <Gold.Chemscore.Hbond.Weighted>
-3.2133

> <Gold.Chemscore.Metal.Weighted>
-0.0000

> <Gold.Chemscore.Lipo.Weighted>
-11.2463

> <Gold.Chemscore.Internal_Hbond.Weighted>
0.0000

> <Gold.Chemscore.DEClash.Weighted>
0.5477

> <Gold.Chemscore.DEInternal.Weighted>
1.7220

> <Gold.Chemscore.Rot.Weighted>
4.1179

> <Gold.Chemscore.Internal.Correction.Weighted>
   9.000000E+99

> <Gold.Protein.RotatedTorsions>
[ 6907 6896 6895 6894 ] final -137.96 input  -60.11 | X-H torsion
[ 7974 7965 7964 7962 ] final  -59.12 input  175.53 | X-H torsion
[ 8008 7997 7996 7995 ] final   48.98 input   59.86 | X-H torsion
[ 10167 10162 10161 10158 ] final   86.84 input  -65.29 | X-H torsion
[ 10718 10713 10712 10709 ] final -148.64 input   66.30 | X-H torsion
[ 10763 10752 10751 10750 ] final  177.92 input  -60.55 | X-H torsion
[ 11005 11000 10999 10996 ] final  -53.20 input  -57.11 | X-H torsion

> <Gold.Protein.ActiveResidues>
 VAL166  LYS551  ARG553  GLY616  TRP617  ASP618  TYR619  PRO620  LYS621  CYS622 
 ASP623  PHE694  ASN695  SER759  ASP760  ASP761  ALA762  ILE779  LEU786  VAL792 
 PHE793  MET794  SER795  GLU796  ALA797  LYS798  CYS799  TRP800  GLU811  SER814 

> <Gold.Protein.RotatedAtoms>
  151.0290  133.5808  159.2662 H   0  0  0  0  0  0  0  0  0  0  0  0  # atno 6907 bound_to 6896
  151.2896  135.0737  159.9209 H   0  0  0  0  0  0  0  0  0  0  0  0  # atno 6908 bound_to 6896
  152.5340  133.9990  159.7940 H   0  0  0  0  0  0  0  0  0  0  0  0  # atno 6909 bound_to 6896
  145.8312  140.8478  143.0082 H   0  0  0  0  0  0  0  0  0  0  0  0  # atno 7974 bound_to 7965
  155.3945  140.3435  155.4253 H   0  0  0  0  0  0  0  0  0  0  0  0  # atno 8008 bound_to 7997
  156.1538  140.1579  156.8758 H   0  0  0  0  0  0  0  0  0  0  0  0  # atno 8009 bound_to 7997
  154.5076  140.0798  156.7908 H   0  0  0  0  0  0  0  0  0  0  0  0  # atno 8010 bound_to 7997
  139.8835  144.6426  150.8817 H   0  0  0  0  0  0  0  0  0  0  0  0  # atno 10167 bound_to 10162
  156.4229  130.8037  151.2261 H   0  0  0  0  0  0  0  0  0  0  0  0  # atno 10718 bound_to 10713
  154.5008  135.2783  155.1422 H   0  0  0  0  0  0  0  0  0  0  0  0  # atno 10763 bound_to 10752
  154.3056  135.6239  153.5447 H   0  0  0  0  0  0  0  0  0  0  0  0  # atno 10764 bound_to 10752
  152.9902  135.5707  154.5451 H   0  0  0  0  0  0  0  0  0  0  0  0  # atno 10765 bound_to 10752
  141.0964  133.6624  156.4137 H   0  0  0  0  0  0  0  0  0  0  0  0  # atno 11005 bound_to 11000
  144.6739  140.0675  143.7474 LP  0  0  0  0  0  0  0  0  0  0  0  0  # atno 17320 bound_to 7965
  145.9568  139.2772  143.1179 LP  0  0  0  0  0  0  0  0  0  0  0  0  # atno 17321 bound_to 7965
  140.7740  143.3567  151.1908 LP  0  0  0  0  0  0  0  0  0  0  0  0  # atno 17342 bound_to 10162
  139.7174  143.9278  152.2972 LP  0  0  0  0  0  0  0  0  0  0  0  0  # atno 17343 bound_to 10162
  157.7508  131.0222  150.3784 LP  0  0  0  0  0  0  0  0  0  0  0  0  # atno 17370 bound_to 10713
  156.4105  130.3933  149.6895 LP  0  0  0  0  0  0  0  0  0  0  0  0  # atno 17371 bound_to 10713
  140.5130  134.6377  157.5291 LP  0  0  0  0  0  0  0  0  0  0  0  0  # atno 17394 bound_to 11000
  139.9802  134.7150  155.9874 LP  0  0  0  0  0  0  0  0  0  0  0  0  # atno 17395 bound_to 11000

$$$$
