AV-unprocessed.smi:1929|AV-procd|sdf|7801|dock4
  -GOLD-   22720 9543D 1   1.00000     0.00000
 Structure written by MMmdl.
 43 44  0  0  0  0  0  0  0  0  2 V2000
  140.5515  140.8370  154.5836 C   0  0  0  0  0  0  0  0  0  0  0  0
  141.7495  141.6532  154.4539 N   0  0  0  0  0  0  0  0  0  0  0  0
  142.7311  141.7014  155.3656 C   0  0  0  0  0  0  0  0  0  0  0  0
  142.7177  141.0451  156.4075 O   0  0  0  0  0  0  0  0  0  0  0  0
  143.9146  142.6195  155.0413 C   0  0  0  0  0  0  0  0  0  0  0  0
  145.1296  141.8749  154.6204 N   0  3  2  0  0  0  0  0  0  0  0  0
  145.8077  141.1805  155.7473 C   0  0  0  0  0  0  0  0  0  0  0  0
  146.9683  140.3072  155.2407 C   0  0  0  0  0  0  0  0  0  0  0  0
  147.9865  141.1215  154.4171 C   0  0  2  0  0  0  0  0  0  0  0  0
  148.7610  142.0391  155.2532 N   0  0  0  0  0  0  0  0  0  0  0  0
  149.6168  141.6724  156.2191 C   0  0  0  0  0  0  0  0  0  0  0  0
  149.8225  140.4992  156.5274 O   0  0  0  0  0  0  0  0  0  0  0  0
  150.1866  142.7454  156.7959 N   0  0  0  0  0  0  0  0  0  0  0  0
  151.1517  142.7968  157.8397 C   0  0  0  0  0  0  0  0  0  0  0  0
  151.7432  144.0466  158.1186 C   0  0  0  0  0  0  0  0  0  0  0  0
  152.7132  144.1284  159.1375 C   0  0  0  0  0  0  0  0  0  0  0  0
  153.1165  143.0655  159.8645 N   0  0  0  0  0  0  0  0  0  0  0  0
  152.5584  141.8676  159.5894 C   0  0  0  0  0  0  0  0  0  0  0  0
  151.5811  141.6764  158.5919 C   0  0  0  0  0  0  0  0  0  0  0  0
  147.2534  141.8930  153.3057 C   0  0  0  0  0  0  0  0  0  0  0  0
  146.0769  142.7230  153.8528 C   0  0  0  0  0  0  0  0  0  0  0  0
  139.9140  140.9708  153.7095 H   0  0  0  0  0  0  0  0  0  0  0  0
  139.9802  141.1218  155.4682 H   0  0  0  0  0  0  0  0  0  0  0  0
  140.8069  139.7794  154.6595 H   0  0  0  0  0  0  0  0  0  0  0  0
  141.8350  142.2149  153.6189 H   0  0  0  0  0  0  0  0  0  0  0  0
  143.5871  143.2750  154.2331 H   0  0  0  0  0  0  0  0  0  0  0  0
  144.1467  143.2629  155.8919 H   0  0  0  0  0  0  0  0  0  0  0  0
  146.1736  141.9159  156.4655 H   0  0  0  0  0  0  0  0  0  0  0  0
  145.0972  140.5491  156.2815 H   0  0  0  0  0  0  0  0  0  0  0  0
  147.4569  139.8115  156.0801 H   0  0  0  0  0  0  0  0  0  0  0  0
  146.5631  139.5087  154.6175 H   0  0  0  0  0  0  0  0  0  0  0  0
  148.6870  140.4311  153.9434 H   0  0  0  0  0  0  0  0  0  0  0  0
  148.6556  143.0256  155.0667 H   0  0  0  0  0  0  0  0  0  0  0  0
  149.8636  143.6445  156.4705 H   0  0  0  0  0  0  0  0  0  0  0  0
  151.4603  144.9315  157.5672 H   0  0  0  0  0  0  0  0  0  0  0  0
  153.1786  145.0739  159.3737 H   0  0  0  0  0  0  0  0  0  0  0  0
  152.9056  141.0323  160.1792 H   0  0  0  0  0  0  0  0  0  0  0  0
  151.1983  140.6824  158.4240 H   0  0  0  0  0  0  0  0  0  0  0  0
  147.9504  142.5377  152.7685 H   0  0  0  0  0  0  0  0  0  0  0  0
  146.8729  141.1823  152.5705 H   0  0  0  0  0  0  0  0  0  0  0  0
  145.5560  143.1930  153.0176 H   0  0  0  0  0  0  0  0  0  0  0  0
  146.4428  143.5297  154.4902 H   0  0  0  0  0  0  0  0  0  0  0  0
  144.8103  141.1584  153.9836 H   0  0  0  0  0  0  0  0  0  0  0  0
  1  2  1  0  0  0  0
  1 22  1  0  0  0  0
  1 23  1  0  0  0  0
  1 24  1  0  0  0  0
  2  3  1  0  0  0  0
  2 25  1  0  0  0  0
  3  4  2  0  0  0  0
  3  5  1  0  0  0  0
  5  6  1  0  0  0  0
  5 26  1  0  0  0  0
  5 27  1  0  0  0  0
  6 21  1  0  0  0  0
  6  7  1  0  0  0  0
  6 43  1  0  0  0  0
  7  8  1  0  0  0  0
  7 28  1  0  0  0  0
  7 29  1  0  0  0  0
  8  9  1  0  0  0  0
  8 30  1  0  0  0  0
  8 31  1  0  0  0  0
  9 10  1  0  0  0  0
  9 20  1  0  0  0  0
  9 32  1  0  0  0  0
 10 11  1  0  0  0  0
 10 33  1  0  0  0  0
 11 12  2  0  0  0  0
 11 13  1  0  0  0  0
 13 14  1  0  0  0  0
 13 34  1  0  0  0  0
 14 19  1  0  0  0  0
 14 15  2  0  0  0  0
 15 16  1  0  0  0  0
 15 35  1  0  0  0  0
 16 17  2  0  0  0  0
 16 36  1  0  0  0  0
 17 18  1  0  0  0  0
 18 19  2  0  0  0  0
 18 37  1  0  0  0  0
 19 38  1  0  0  0  0
 20 21  1  0  0  0  0
 20 39  1  0  0  0  0
 20 40  1  0  0  0  0
 21 41  1  0  0  0  0
 21 42  1  0  0  0  0
M  CHG  1   6   1
M  END
> <s_m_source_file>
AV-unprocessed.smi

> <i_m_source_file_index>
1929

> <i_lp_mmshare_version>
43012

> <i_f3d_flags>
0

> <s_epik_input>
W0NIM11bTkhdQyg9TylbQ0gyXU4xW0NIMl1bQ0gyXVtDSF0oW0NIMl1bQ0gyXTEpW05IXUMoPU8pW05IXWMyW2NIXVtjSF1uW2NIXVtjSF0y

> <s_epik_cmdline>
J2VwaWtfcHl0aG9uJywgJy1waCcsICc3LjAnLCAnLXRuJywgJzgnLCAnLW1hJywgJzIwMCcsICctbWV0YWxfYmluZGluZycsICctaW1hZScsICc8aW5maWxlLm1hZT4nLCAnLW9tYWUnLCAnPG91dGZpbGUubWFlPic=

> <r_epik_Ionization_Penalty>
0.938295

> <r_epik_Ionization_Penalty_Charging>
0.838844

> <r_epik_Ionization_Penalty_Neutral>
0.0994513

> <r_epik_State_Penalty>
0.957722

> <r_epik_Charging_Adjusted_Penalty>
1.79657

> <i_epik_Tot_Q>
1

> <i_epik_Tot_abs_Q>
1

> <r_epik_Metal_State_Penalty>
0.961727

> <b_epik_Metal_Only>
0

> <s_lp_Force_Field>
OPLS_2005

> <r_lp_Energy>
19.6911

> <b_lp_Chiralities_Consistent>
1

> <s_lp_Variant>
AV-unprocessed.smi:1929-3

> <Gold.Version>
5.8.1

> <Gold.Id.Protein>
6NUR|6NUR_protein|mol2

> <Gold.PLP.Fitness>
48.6919

> <Gold.PLP.PLP>
-34.5636

> <Gold.PLP.part.hbond>
-5.0000

> <Gold.PLP.part.metal>
0.0000

> <Gold.PLP.part.buried>
-6.1186

> <Gold.PLP.part.nonpolar>
-25.3869

> <Gold.PLP.part.repulsive>
0.3024

> <Gold.PLP.ligand.clash>
0.0000

> <Gold.PLP.ligand.torsion>
0.3790

> <Gold.PLP.Chemscore.Hbond>
4.9520

> <Gold.PLP.Chemscore.CHOScore>
0.0000

> <Gold.PLP.Chemscore.Metal>
0.0000

> <Gold.Chemscore.Hbonds>
donor molecule, donor type, donor heavy atom, donor atom, acceptor molecule, acceptor atom, score
      L1  H     2    25       P1 10174  0.94
      L1  H     6    43       P1 10175  2.00
      L1  H    10    33       P1  8028  0.98
      L1  H    13    34       P1  8028  1.00

> <Gold.PLP.Chemscore.Internal.Correction>
0.0303

> <Gold.Rescore>
     Score         DG    S(hbond)    S(metal)    S(lipo)     H(rot)  DE(clash)    DE(int)     intcor
     20.59     -22.30       3.32        0.00      85.92       1.69       0.03       1.68       ----

> <Gold.Chemscore.Fitness>
20.5850

> <Gold.Chemscore.DG>
-22.2997

> <Gold.Chemscore.ZeroCoef>
-5.4800

> <Gold.Chemscore.Hbond>
3.3193

> <Gold.Chemscore.Metal>
0.0000

> <Gold.Chemscore.Lipo>
85.9184

> <Gold.Chemscore.Internal_Hbond>
0.0000

> <Gold.Chemscore.DEClash>
0.0317

> <Gold.Chemscore.DEInternal>
1.6830

> <Gold.Chemscore.Rot>
1.6873

> <Gold.Chemscore.Internal.Correction>
   9.000000E+99

> <Gold.Chemscore.Hbonds>
donor molecule, donor type, donor heavy atom, donor atom, acceptor molecule, acceptor atom, score
      L1  H     2    25       P1 10174  0.78
      L1  H     6    43       P1 10175  0.66
      L1  H    10    33       P1  8028  0.93
      L1  H    13    34       P1  8028  0.99

> <Gold.Chemscore.Hbond.Weighted>
-11.0866

> <Gold.Chemscore.Metal.Weighted>
-0.0000

> <Gold.Chemscore.Lipo.Weighted>
-10.0525

> <Gold.Chemscore.Internal_Hbond.Weighted>
0.0000

> <Gold.Chemscore.DEClash.Weighted>
0.0317

> <Gold.Chemscore.DEInternal.Weighted>
1.6830

> <Gold.Chemscore.Rot.Weighted>
4.3194

> <Gold.Chemscore.Internal.Correction.Weighted>
   9.000000E+99

> <Gold.Protein.RotatedTorsions>
[ 6907 6896 6895 6894 ] final  -53.98 input  -60.11 | X-H torsion
[ 7974 7965 7964 7962 ] final -171.94 input  175.53 | X-H torsion
[ 8008 7997 7996 7995 ] final   86.78 input   59.86 | X-H torsion
[ 10167 10162 10161 10158 ] final -131.43 input  -65.29 | X-H torsion
[ 10718 10713 10712 10709 ] final -133.68 input   66.30 | X-H torsion
[ 10763 10752 10751 10750 ] final  -96.36 input  -60.55 | X-H torsion
[ 11005 11000 10999 10996 ] final  -42.95 input  -57.11 | X-H torsion

> <Gold.Protein.ActiveResidues>
 VAL166  LYS551  ARG553  GLY616  TRP617  ASP618  TYR619  PRO620  LYS621  CYS622 
 ASP623  PHE694  ASN695  SER759  ASP760  ASP761  ALA762  ILE779  LEU786  VAL792 
 PHE793  MET794  SER795  GLU796  ALA797  LYS798  CYS799  TRP800  GLU811  SER814 

> <Gold.Protein.RotatedAtoms>
  150.8378  134.7658  159.6906 H   0  0  0  0  0  0  0  0  0  0  0  0  # atno 6907 bound_to 6896
  152.4471  134.5468  159.9865 H   0  0  0  0  0  0  0  0  0  0  0  0  # atno 6908 bound_to 6896
  151.5614  133.3365  159.3007 H   0  0  0  0  0  0  0  0  0  0  0  0  # atno 6909 bound_to 6896
  144.7151  140.1847  143.6355 H   0  0  0  0  0  0  0  0  0  0  0  0  # atno 7974 bound_to 7965
  155.9671  140.3388  155.6542 H   0  0  0  0  0  0  0  0  0  0  0  0  # atno 8008 bound_to 7997
  155.6723  140.0728  157.2533 H   0  0  0  0  0  0  0  0  0  0  0  0  # atno 8009 bound_to 7997
  154.4157  140.1689  156.1880 H   0  0  0  0  0  0  0  0  0  0  0  0  # atno 8010 bound_to 7997
  139.9190  143.6404  152.2558 H   0  0  0  0  0  0  0  0  0  0  0  0  # atno 10167 bound_to 10162
  156.2474  130.7133  151.1018 H   0  0  0  0  0  0  0  0  0  0  0  0  # atno 10718 bound_to 10713
  154.7232  135.5086  153.8845 H   0  0  0  0  0  0  0  0  0  0  0  0  # atno 10763 bound_to 10752
  153.0881  135.6651  153.9917 H   0  0  0  0  0  0  0  0  0  0  0  0  # atno 10764 bound_to 10752
  153.9735  135.3036  155.3405 H   0  0  0  0  0  0  0  0  0  0  0  0  # atno 10765 bound_to 10752
  141.0351  133.6803  156.2665 H   0  0  0  0  0  0  0  0  0  0  0  0  # atno 11005 bound_to 11000
  145.8824  139.2330  143.1597 LP  0  0  0  0  0  0  0  0  0  0  0  0  # atno 17320 bound_to 7965
  145.9982  140.8543  143.0032 LP  0  0  0  0  0  0  0  0  0  0  0  0  # atno 17321 bound_to 7965
  139.6878  144.7650  151.1493 LP  0  0  0  0  0  0  0  0  0  0  0  0  # atno 17342 bound_to 10162
  140.7667  143.5633  150.9075 LP  0  0  0  0  0  0  0  0  0  0  0  0  # atno 17343 bound_to 10162
  157.7201  131.0687  150.6172 LP  0  0  0  0  0  0  0  0  0  0  0  0  # atno 17370 bound_to 10713
  156.6249  130.4416  149.5808 LP  0  0  0  0  0  0  0  0  0  0  0  0  # atno 17371 bound_to 10713
  140.6337  134.5237  157.5562 LP  0  0  0  0  0  0  0  0  0  0  0  0  # atno 17394 bound_to 11000
  139.9235  134.8102  156.1140 LP  0  0  0  0  0  0  0  0  0  0  0  0  # atno 17395 bound_to 11000

$$$$
