AV-unprocessed.smi:499|AV-procd|sdf|2732|dock7
  -GOLD-   2262023183D 1   1.00000     0.00000
 Structure written by MMmdl.
 36 37  0  0  0  0  0  0  0  0  1 V2000
  153.0644  140.1594  153.3761 C   0  0  0  0  0  0  0  0  0  0  0  0
  151.9989  140.4932  154.4397 C   0  0  1  0  0  0  0  0  0  0  0  0
  151.5090  139.2361  155.0435 C   0  0  0  0  0  0  0  0  0  0  0  0
  151.1256  138.2516  155.5170 N   0  0  0  0  0  0  0  0  0  0  0  0
  152.5930  141.3600  155.4609 N   0  0  0  0  0  0  0  0  0  0  0  0
  153.5401  141.0354  156.3570 C   0  0  0  0  0  0  0  0  0  0  0  0
  154.0468  139.9155  156.4327 O   0  0  0  0  0  0  0  0  0  0  0  0
  153.9598  142.1571  157.3181 C   0  0  0  0  0  0  0  0  0  0  0  0
  153.4313  141.9889  158.6825 N   0  0  0  0  0  0  0  0  0  0  0  0
  152.0345  141.8647  158.8182 C   0  0  0  0  0  0  0  0  0  0  0  0
  151.4262  141.6887  160.0070 C   0  0  0  0  0  0  0  0  0  0  0  0
  149.9126  141.6108  160.1307 C   0  0  0  0  0  0  0  0  0  0  0  0
  149.4222  140.6257  159.3781 F   0  0  0  0  0  0  0  0  0  0  0  0
  149.5405  141.3978  161.3937 F   0  0  0  0  0  0  0  0  0  0  0  0
  149.3652  142.7550  159.7236 F   0  0  0  0  0  0  0  0  0  0  0  0
  152.2856  141.6650  161.1741 C   0  0  0  0  0  0  0  0  0  0  0  0
  153.6228  141.7873  161.0626 C   0  0  0  0  0  0  0  0  0  0  0  0
  154.2717  141.9529  159.7599 C   0  0  0  0  0  0  0  0  0  0  0  0
  155.4933  142.0540  159.6438 O   0  0  0  0  0  0  0  0  0  0  0  0
  150.8405  141.2139  153.7526 C   0  0  0  0  0  0  0  0  0  0  0  0
  149.4093  141.1090  154.2309 C   0  0  0  0  0  0  0  0  0  0  0  0
  149.8142  140.4860  152.9130 C   0  0  0  0  0  0  0  0  0  0  0  0
  152.6408  139.5510  152.5762 H   0  0  0  0  0  0  0  0  0  0  0  0
  153.8988  139.5977  153.7966 H   0  0  0  0  0  0  0  0  0  0  0  0
  153.4702  141.0636  152.9210 H   0  0  0  0  0  0  0  0  0  0  0  0
  152.2420  142.3062  155.4901 H   0  0  0  0  0  0  0  0  0  0  0  0
  155.0496  142.2189  157.3417 H   0  0  0  0  0  0  0  0  0  0  0  0
  153.6309  143.1078  156.8960 H   0  0  0  0  0  0  0  0  0  0  0  0
  151.4868  141.9182  157.8885 H   0  0  0  0  0  0  0  0  0  0  0  0
  151.8499  141.5416  162.1547 H   0  0  0  0  0  0  0  0  0  0  0  0
  154.2326  141.7617  161.9538 H   0  0  0  0  0  0  0  0  0  0  0  0
  151.1254  142.1941  153.3735 H   0  0  0  0  0  0  0  0  0  0  0  0
  149.1865  140.4373  155.0572 H   0  0  0  0  0  0  0  0  0  0  0  0
  148.8033  142.0118  154.1937 H   0  0  0  0  0  0  0  0  0  0  0  0
  149.4761  140.9749  152.0016 H   0  0  0  0  0  0  0  0  0  0  0  0
  149.8639  139.4002  152.8639 H   0  0  0  0  0  0  0  0  0  0  0  0
  1  2  1  0  0  0  0
  1 23  1  0  0  0  0
  1 24  1  0  0  0  0
  1 25  1  0  0  0  0
  2  3  1  0  0  0  0
  2  5  1  0  0  0  0
  2 20  1  0  0  0  0
  3  4  3  0  0  0  0
  5  6  1  0  0  0  0
  5 26  1  0  0  0  0
  6  7  2  0  0  0  0
  6  8  1  0  0  0  0
  8  9  1  0  0  0  0
  8 27  1  0  0  0  0
  8 28  1  0  0  0  0
  9 18  1  0  0  0  0
  9 10  1  0  0  0  0
 10 11  2  0  0  0  0
 10 29  1  0  0  0  0
 11 12  1  0  0  0  0
 11 16  1  0  0  0  0
 12 13  1  0  0  0  0
 12 14  1  0  0  0  0
 12 15  1  0  0  0  0
 16 17  2  0  0  0  0
 16 30  1  0  0  0  0
 17 18  1  0  0  0  0
 17 31  1  0  0  0  0
 18 19  2  0  0  0  0
 20 22  1  0  0  0  0
 20 21  1  0  0  0  0
 20 32  1  0  0  0  0
 21 22  1  0  0  0  0
 21 33  1  0  0  0  0
 21 34  1  0  0  0  0
 22 35  1  0  0  0  0
 22 36  1  0  0  0  0
M  END
> <s_m_source_file>
AV-unprocessed.smi

> <i_m_source_file_index>
499

> <i_lp_mmshare_version>
43012

> <i_f3d_flags>
0

> <s_epik_input>
W0NIMl0xW0NIMl1bQ0hdMVtDQF0oW0NIM10pKEMjTilbTkhdQyg9TylbQ0gyXW4yW2NIXWMoQyhGKShGKUYpW2NIXVtjSF1jMj1P

> <s_epik_cmdline>
J2VwaWtfcHl0aG9uJywgJy1waCcsICc3LjAnLCAnLXRuJywgJzgnLCAnLW1hJywgJzIwMCcsICctbWV0YWxfYmluZGluZycsICctaW1hZScsICc8aW5maWxlLm1hZT4nLCAnLW9tYWUnLCAnPG91dGZpbGUubWFlPic=

> <r_lp_tautomer_probability>
1

> <r_epik_Ionization_Penalty>
4.79953e-07

> <r_epik_Ionization_Penalty_Charging>
1.46911e-08

> <r_epik_Ionization_Penalty_Neutral>
4.65262e-07

> <r_epik_State_Penalty>
-0

> <r_epik_Charging_Adjusted_Penalty>
1.46911e-08

> <i_epik_Tot_Q>
0

> <i_epik_Tot_abs_Q>
0

> <r_epik_Metal_State_Penalty>
-0

> <b_epik_Metal_Only>
0

> <s_lp_Force_Field>
OPLS_2005

> <r_lp_Energy>
24.0499

> <b_lp_Chiralities_Consistent>
1

> <s_lp_Variant>
AV-unprocessed.smi:499-1

> <Gold.Version>
5.8.1

> <Gold.Id.Protein>
6NUR|6NUR_protein|mol2

> <Gold.PLP.Fitness>
47.0875

> <Gold.PLP.PLP>
-47.6919

> <Gold.PLP.part.hbond>
-0.2796

> <Gold.PLP.part.metal>
0.0000

> <Gold.PLP.part.buried>
-6.0294

> <Gold.PLP.part.nonpolar>
-41.8419

> <Gold.PLP.part.repulsive>
0.0499

> <Gold.PLP.ligand.clash>
0.0000

> <Gold.PLP.ligand.torsion>
1.1186

> <Gold.PLP.Chemscore.Hbond>
0.0000

> <Gold.PLP.Chemscore.CHOScore>
0.0000

> <Gold.PLP.Chemscore.Metal>
0.0000

> <Gold.PLP.Chemscore.Internal.Correction>
1.6328

> <Gold.Rescore>
     Score         DG    S(hbond)    S(metal)    S(lipo)     H(rot)  DE(clash)    DE(int)     intcor
      8.47     -10.27       0.00        0.00      82.60       1.90       0.05       1.76       ----

> <Gold.Chemscore.Fitness>
8.4672

> <Gold.Chemscore.DG>
-10.2726

> <Gold.Chemscore.ZeroCoef>
-5.4800

> <Gold.Chemscore.Hbond>
0.0000

> <Gold.Chemscore.Metal>
0.0000

> <Gold.Chemscore.Lipo>
82.6019

> <Gold.Chemscore.Internal_Hbond>
0.0000

> <Gold.Chemscore.DEClash>
0.0456

> <Gold.Chemscore.DEInternal>
1.7598

> <Gold.Chemscore.Rot>
1.9030

> <Gold.Chemscore.Internal.Correction>
   9.000000E+99

> <Gold.Chemscore.Hbond.Weighted>
-0.0000

> <Gold.Chemscore.Metal.Weighted>
-0.0000

> <Gold.Chemscore.Lipo.Weighted>
-9.6644

> <Gold.Chemscore.Internal_Hbond.Weighted>
0.0000

> <Gold.Chemscore.DEClash.Weighted>
0.0456

> <Gold.Chemscore.DEInternal.Weighted>
1.7598

> <Gold.Chemscore.Rot.Weighted>
4.8718

> <Gold.Chemscore.Internal.Correction.Weighted>
   9.000000E+99

> <Gold.Protein.RotatedTorsions>
[ 6907 6896 6895 6894 ] final  -32.03 input  -60.11 | X-H torsion
[ 7974 7965 7964 7962 ] final   27.77 input  175.53 | X-H torsion
[ 8008 7997 7996 7995 ] final  148.65 input   59.86 | X-H torsion
[ 10167 10162 10161 10158 ] final -100.91 input  -65.29 | X-H torsion
[ 10718 10713 10712 10709 ] final -126.48 input   66.30 | X-H torsion
[ 10763 10752 10751 10750 ] final   91.47 input  -60.55 | X-H torsion
[ 11005 11000 10999 10996 ] final   89.31 input  -57.11 | X-H torsion

> <Gold.Protein.ActiveResidues>
 VAL166  LYS551  ARG553  GLY616  TRP617  ASP618  TYR619  PRO620  LYS621  CYS622 
 ASP623  PHE694  ASN695  SER759  ASP760  ASP761  ALA762  ILE779  LEU786  VAL792 
 PHE793  MET794  SER795  GLU796  ALA797  LYS798  CYS799  TRP800  GLU811  SER814 

> <Gold.Protein.RotatedAtoms>
  151.0841  134.9876  159.8370 H   0  0  0  0  0  0  0  0  0  0  0  0  # atno 6907 bound_to 6896
  152.5422  134.2145  159.8773 H   0  0  0  0  0  0  0  0  0  0  0  0  # atno 6908 bound_to 6896
  151.2177  133.4476  159.2633 H   0  0  0  0  0  0  0  0  0  0  0  0  # atno 6909 bound_to 6896
  146.1766  139.7147  142.8930 H   0  0  0  0  0  0  0  0  0  0  0  0  # atno 7974 bound_to 7965
  156.2784  140.2123  156.5731 H   0  0  0  0  0  0  0  0  0  0  0  0  # atno 8008 bound_to 7997
  154.7119  140.0511  157.0581 H   0  0  0  0  0  0  0  0  0  0  0  0  # atno 8009 bound_to 7997
  155.0594  140.3165  155.4668 H   0  0  0  0  0  0  0  0  0  0  0  0  # atno 8010 bound_to 7997
  140.2469  143.3500  152.0751 H   0  0  0  0  0  0  0  0  0  0  0  0  # atno 10167 bound_to 10162
  156.1769  130.6706  151.0254 H   0  0  0  0  0  0  0  0  0  0  0  0  # atno 10718 bound_to 10713
  153.2086  135.4396  155.0352 H   0  0  0  0  0  0  0  0  0  0  0  0  # atno 10763 bound_to 10752
  154.8187  135.3327  154.7103 H   0  0  0  0  0  0  0  0  0  0  0  0  # atno 10764 bound_to 10752
  153.7543  135.6996  153.4994 H   0  0  0  0  0  0  0  0  0  0  0  0  # atno 10765 bound_to 10752
  139.8878  134.8543  156.3123 H   0  0  0  0  0  0  0  0  0  0  0  0  # atno 11005 bound_to 11000
  145.4194  141.0405  143.2972 LP  0  0  0  0  0  0  0  0  0  0  0  0  # atno 17320 bound_to 7965
  144.8246  139.5732  143.6971 LP  0  0  0  0  0  0  0  0  0  0  0  0  # atno 17321 bound_to 7965
  139.5059  144.6803  151.6025 LP  0  0  0  0  0  0  0  0  0  0  0  0  # atno 17342 bound_to 10162
  140.6071  143.9505  150.6426 LP  0  0  0  0  0  0  0  0  0  0  0  0  # atno 17343 bound_to 10162
  157.6842  131.0829  150.7288 LP  0  0  0  0  0  0  0  0  0  0  0  0  # atno 17370 bound_to 10713
  156.7346  130.4720  149.5491 LP  0  0  0  0  0  0  0  0  0  0  0  0  # atno 17371 bound_to 10713
  140.9842  133.7249  156.0716 LP  0  0  0  0  0  0  0  0  0  0  0  0  # atno 17394 bound_to 11000
  140.7710  134.3832  157.5507 LP  0  0  0  0  0  0  0  0  0  0  0  0  # atno 17395 bound_to 11000

$$$$
