AV-unprocessed.smi:255|AV-procd|sdf|1956|dock4
  -GOLD-   2262021 93D 1   1.00000     0.00000
 Structure written by MMmdl.
 44 47  0  0  0  0  0  0  0  0  1 V2000
  149.4834  138.6833  153.4888 O   0  0  0  0  0  0  0  0  0  0  0  0
  150.0782  138.6455  154.7681 C   0  0  0  0  0  0  0  0  0  0  0  0
  149.8788  140.0003  155.4819 C   0  0  1  0  0  0  0  0  0  0  0  0
  148.4259  140.3580  155.7984 C   0  0  0  0  0  0  0  0  0  0  0  0
  148.5887  141.5114  156.7886 C   0  0  1  0  0  0  0  0  0  0  0  0
  147.6221  141.5090  157.7064 F   0  0  0  0  0  0  0  0  0  0  0  0
  149.9819  141.3156  157.4112 C   0  0  0  0  0  0  0  0  0  0  0  0
  150.5916  140.1611  156.7508 N   0  0  0  0  0  0  0  0  0  0  0  0
  150.7212  139.0544  157.5245 C   0  0  0  0  0  0  0  0  0  0  0  0
  151.9492  138.5397  157.8023 N   0  0  0  0  0  0  0  0  0  0  0  0
  152.0608  137.4578  158.5790 C   0  0  0  0  0  0  0  0  0  0  0  0
  151.0951  136.7520  159.1715 N   0  0  0  0  0  0  0  0  0  0  0  0
  149.8632  137.2717  158.9007 C   0  0  0  0  0  0  0  0  0  0  0  0
  149.5905  138.4092  158.0909 C   0  0  0  0  0  0  0  0  0  0  0  0
  148.2223  138.6404  158.0360 N   0  0  0  0  0  0  0  0  0  0  0  0
  147.7127  137.6893  158.7705 C   0  0  0  0  0  0  0  0  0  0  0  0
  148.6264  136.8287  159.3371 N   0  0  0  0  0  0  0  0  0  0  0  0
  148.3344  135.6879  160.1912 C   0  0  0  0  0  0  0  0  0  0  0  0
  147.6700  136.0637  161.5405 C   0  0  2  0  0  0  0  0  0  0  0  0
  148.5072  136.9516  162.2563 O   0  0  0  0  0  0  0  0  0  0  0  0
  147.3820  134.8404  162.3953 C   0  0  0  0  0  0  0  0  0  0  0  0
  146.0269  134.3704  161.8708 C   0  0  0  0  0  0  0  0  0  0  0  0
  145.3729  135.5346  161.3741 O   0  0  0  0  0  0  0  0  0  0  0  0
  146.2582  136.6497  161.4099 C   0  0  0  0  0  0  0  0  0  0  0  0
  150.2818  140.7733  154.8252 H   0  0  0  0  0  0  0  0  0  0  0  0
  148.5420  142.4704  156.2717 H   0  0  0  0  0  0  0  0  0  0  0  0
  149.3673  137.7959  153.1857 H   0  0  0  0  0  0  0  0  0  0  0  0
  149.6425  137.8231  155.3367 H   0  0  0  0  0  0  0  0  0  0  0  0
  151.1399  138.4314  154.6423 H   0  0  0  0  0  0  0  0  0  0  0  0
  147.8528  140.6390  154.9146 H   0  0  0  0  0  0  0  0  0  0  0  0
  147.9224  139.5148  156.2733 H   0  0  0  0  0  0  0  0  0  0  0  0
  150.6039  142.1927  157.2304 H   0  0  0  0  0  0  0  0  0  0  0  0
  149.9213  141.1920  158.4938 H   0  0  0  0  0  0  0  0  0  0  0  0
  153.0683  137.1089  158.7515 H   0  0  0  0  0  0  0  0  0  0  0  0
  146.6479  137.5917  158.9247 H   0  0  0  0  0  0  0  0  0  0  0  0
  147.6960  135.0051  159.6295 H   0  0  0  0  0  0  0  0  0  0  0  0
  149.2670  135.1510  160.3698 H   0  0  0  0  0  0  0  0  0  0  0  0
  149.1399  136.4438  162.7407 H   0  0  0  0  0  0  0  0  0  0  0  0
  148.1542  134.0725  162.3351 H   0  0  0  0  0  0  0  0  0  0  0  0
  147.2773  135.1241  163.4441 H   0  0  0  0  0  0  0  0  0  0  0  0
  146.1554  133.6657  161.0487 H   0  0  0  0  0  0  0  0  0  0  0  0
  145.4328  133.8813  162.6430 H   0  0  0  0  0  0  0  0  0  0  0  0
  146.0056  137.2326  162.2974 H   0  0  0  0  0  0  0  0  0  0  0  0
  146.1225  137.3025  160.5488 H   0  0  0  0  0  0  0  0  0  0  0  0
  1  2  1  0  0  0  0
  1 27  1  0  0  0  0
  2  3  1  0  0  0  0
  2 28  1  0  0  0  0
  2 29  1  0  0  0  0
  3 25  1  0  0  0  0
  3  8  1  0  0  0  0
  3  4  1  0  0  0  0
  4  5  1  0  0  0  0
  4 30  1  0  0  0  0
  4 31  1  0  0  0  0
  5 26  1  0  0  0  0
  5  6  1  0  0  0  0
  5  7  1  0  0  0  0
  7  8  1  0  0  0  0
  7 32  1  0  0  0  0
  7 33  1  0  0  0  0
  8  9  1  0  0  0  0
  9 14  1  0  0  0  0
  9 10  2  0  0  0  0
 10 11  1  0  0  0  0
 11 12  2  0  0  0  0
 11 34  1  0  0  0  0
 12 13  1  0  0  0  0
 13 17  1  0  0  0  0
 13 14  2  0  0  0  0
 14 15  1  0  0  0  0
 15 16  2  0  0  0  0
 16 17  1  0  0  0  0
 16 35  1  0  0  0  0
 17 18  1  0  0  0  0
 18 19  1  0  0  0  0
 18 36  1  0  0  0  0
 18 37  1  0  0  0  0
 19 24  1  0  0  0  0
 19 20  1  0  0  0  0
 19 21  1  0  0  0  0
 20 38  1  0  0  0  0
 21 22  1  0  0  0  0
 21 39  1  0  0  0  0
 21 40  1  0  0  0  0
 22 23  1  0  0  0  0
 22 41  1  0  0  0  0
 22 42  1  0  0  0  0
 23 24  1  0  0  0  0
 24 43  1  0  0  0  0
 24 44  1  0  0  0  0
M  END
> <s_m_source_file>
AV-unprocessed.smi

> <i_m_source_file_index>
255

> <i_lp_mmshare_version>
43012

> <i_f3d_flags>
0

> <s_epik_input>
W09IXVtDSDJdW0NAQEhdMVtDSDJdW0NASF0oRilbQ0gyXU4xYyhuW2NIXW4yKWMoYzIzKW5bY0hdbjNbQ0gyXVtDQEBdNChbT0hdKVtDSDJdW0NIMl1PW0NIMl00

> <s_epik_cmdline>
J2VwaWtfcHl0aG9uJywgJy1waCcsICc3LjAnLCAnLXRuJywgJzgnLCAnLW1hJywgJzIwMCcsICctbWV0YWxfYmluZGluZycsICctaW1hZScsICc8aW5maWxlLm1hZT4nLCAnLW9tYWUnLCAnPG91dGZpbGUubWFlPic=

> <r_lp_tautomer_probability>
1

> <r_epik_Ionization_Penalty>
0.0058098

> <r_epik_Ionization_Penalty_Charging>
0

> <r_epik_Ionization_Penalty_Neutral>
0.0058098

> <r_epik_State_Penalty>
0.00411166

> <r_epik_Charging_Adjusted_Penalty>
0.00411166

> <i_epik_Tot_Q>
0

> <i_epik_Tot_abs_Q>
0

> <r_epik_Metal_State_Penalty>
-0

> <b_epik_Metal_Only>
0

> <s_lp_Force_Field>
OPLS_2005

> <r_lp_Energy>
54.0655

> <b_lp_Chiralities_Consistent>
1

> <s_lp_Variant>
AV-unprocessed.smi:255-8

> <Gold.Version>
5.8.1

> <Gold.Id.Protein>
6NUR|6NUR_protein|mol2

> <Gold.PLP.Fitness>
42.0522

> <Gold.PLP.PLP>
-33.1389

> <Gold.PLP.part.hbond>
-3.9334

> <Gold.PLP.part.metal>
0.0000

> <Gold.PLP.part.buried>
-7.5767

> <Gold.PLP.part.nonpolar>
-22.6001

> <Gold.PLP.part.repulsive>
0.0000

> <Gold.PLP.ligand.clash>
0.0000

> <Gold.PLP.ligand.torsion>
0.0611

> <Gold.PLP.Chemscore.Hbond>
2.9825

> <Gold.PLP.Chemscore.CHOScore>
0.0000

> <Gold.PLP.Chemscore.Metal>
0.0000

> <Gold.Chemscore.Hbonds>
donor molecule, donor type, donor heavy atom, donor atom, acceptor molecule, acceptor atom, score
      L1  H     1    27       P1  7948  0.93
      P1  H  6896  6909       L1    12  1.00
      P1  H  6931  6943       L1    20  0.75

> <Gold.PLP.Chemscore.Internal.Correction>
0.0881

> <Gold.Rescore>
     Score         DG    S(hbond)    S(metal)    S(lipo)     H(rot)  DE(clash)    DE(int)     intcor
     11.78     -13.56       2.90        0.00      59.14       3.33       0.04       1.75       ----

> <Gold.Chemscore.Fitness>
11.7768

> <Gold.Chemscore.DG>
-13.5634

> <Gold.Chemscore.ZeroCoef>
-5.4800

> <Gold.Chemscore.Hbond>
2.8988

> <Gold.Chemscore.Metal>
0.0000

> <Gold.Chemscore.Lipo>
59.1398

> <Gold.Chemscore.Internal_Hbond>
0.0000

> <Gold.Chemscore.DEClash>
0.0402

> <Gold.Chemscore.DEInternal>
1.7463

> <Gold.Chemscore.Rot>
3.3273

> <Gold.Chemscore.Internal.Correction>
   9.000000E+99

> <Gold.Chemscore.Hbonds>
donor molecule, donor type, donor heavy atom, donor atom, acceptor molecule, acceptor atom, score
      L1  H     1    27       P1  7948  0.84
      P1  H  6896  6909       L1    12  0.97
      P1  H  6931  6943       L1    20  0.56

> <Gold.Chemscore.Hbond.Weighted>
-9.6819

> <Gold.Chemscore.Metal.Weighted>
-0.0000

> <Gold.Chemscore.Lipo.Weighted>
-6.9194

> <Gold.Chemscore.Internal_Hbond.Weighted>
0.0000

> <Gold.Chemscore.DEClash.Weighted>
0.0402

> <Gold.Chemscore.DEInternal.Weighted>
1.7463

> <Gold.Chemscore.Rot.Weighted>
8.5179

> <Gold.Chemscore.Internal.Correction.Weighted>
   9.000000E+99

> <Gold.Protein.RotatedTorsions>
[ 6907 6896 6895 6894 ] final  109.10 input  -60.11 | X-H torsion
[ 7974 7965 7964 7962 ] final  -23.88 input  175.53 | X-H torsion
[ 8008 7997 7996 7995 ] final   86.32 input   59.86 | X-H torsion
[ 10167 10162 10161 10158 ] final -111.93 input  -65.29 | X-H torsion
[ 10718 10713 10712 10709 ] final   24.35 input   66.30 | X-H torsion
[ 10763 10752 10751 10750 ] final  100.82 input  -60.55 | X-H torsion
[ 11005 11000 10999 10996 ] final -142.11 input  -57.11 | X-H torsion

> <Gold.Protein.ActiveResidues>
 VAL166  LYS551  ARG553  GLY616  TRP617  ASP618  TYR619  PRO620  LYS621  CYS622 
 ASP623  PHE694  ASN695  SER759  ASP760  ASP761  ALA762  ILE779  LEU786  VAL792 
 PHE793  MET794  SER795  GLU796  ALA797  LYS798  CYS799  TRP800  GLU811  SER814 

> <Gold.Protein.RotatedAtoms>
  152.5083  133.8993  159.7432 H   0  0  0  0  0  0  0  0  0  0  0  0  # atno 6907 bound_to 6896
  150.9413  133.6645  159.2797 H   0  0  0  0  0  0  0  0  0  0  0  0  # atno 6908 bound_to 6896
  151.3955  135.0968  159.9592 H   0  0  0  0  0  0  0  0  0  0  0  0  # atno 6909 bound_to 6896
  146.1589  140.4677  142.8580 H   0  0  0  0  0  0  0  0  0  0  0  0  # atno 7974 bound_to 7965
  155.9613  140.3393  155.6493 H   0  0  0  0  0  0  0  0  0  0  0  0  # atno 8008 bound_to 7997
  155.6794  140.0736  157.2509 H   0  0  0  0  0  0  0  0  0  0  0  0  # atno 8009 bound_to 7997
  154.4144  140.1677  156.1953 H   0  0  0  0  0  0  0  0  0  0  0  0  # atno 8010 bound_to 7997
  140.1283  143.4383  152.1645 H   0  0  0  0  0  0  0  0  0  0  0  0  # atno 10167 bound_to 10162
  157.1785  130.6792  149.6104 H   0  0  0  0  0  0  0  0  0  0  0  0  # atno 10718 bound_to 10713
  153.3188  135.4066  155.1399 H   0  0  0  0  0  0  0  0  0  0  0  0  # atno 10763 bound_to 10752
  154.8595  135.3582  154.5624 H   0  0  0  0  0  0  0  0  0  0  0  0  # atno 10764 bound_to 10752
  153.6056  135.7069  153.5426 H   0  0  0  0  0  0  0  0  0  0  0  0  # atno 10765 bound_to 10752
  140.8258  134.2577  157.4880 H   0  0  0  0  0  0  0  0  0  0  0  0  # atno 11005 bound_to 11000
  144.8000  140.6195  143.6484 LP  0  0  0  0  0  0  0  0  0  0  0  0  # atno 17320 bound_to 7965
  145.4639  139.1510  143.3851 LP  0  0  0  0  0  0  0  0  0  0  0  0  # atno 17321 bound_to 7965
  139.5533  144.7354  151.4370 LP  0  0  0  0  0  0  0  0  0  0  0  0  # atno 17342 bound_to 10162
  140.6832  143.8034  150.7150 LP  0  0  0  0  0  0  0  0  0  0  0  0  # atno 17343 bound_to 10162
  155.9728  130.4655  150.6254 LP  0  0  0  0  0  0  0  0  0  0  0  0  # atno 17370 bound_to 10713
  157.3975  131.0805  151.1338 LP  0  0  0  0  0  0  0  0  0  0  0  0  # atno 17371 bound_to 10713
  139.8706  134.9560  156.4223 LP  0  0  0  0  0  0  0  0  0  0  0  0  # atno 17394 bound_to 11000
  140.9051  133.7752  155.9725 LP  0  0  0  0  0  0  0  0  0  0  0  0  # atno 17395 bound_to 11000

$$$$
