AV-unprocessed.smi:146|AV-procd|sdf|1200|dock4
  -GOLD-   2262018363D 1   1.00000     0.00000
 Structure written by MMmdl.
 55 59  0  0  0  0  0  0  0  0  1 V2000
  149.6539  141.6063  154.6777 C   0  0  0  0  0  0  0  0  0  0  0  0
  149.8325  141.6722  156.2028 C   0  0  0  0  0  0  0  0  0  0  0  0
  148.4394  141.7127  156.8637 C   0  0  0  0  0  0  0  0  0  0  0  0
  150.6436  140.4501  156.6790 C   0  0  0  0  0  0  0  0  0  0  0  0
  151.1019  140.6404  158.0476 N   0  0  0  0  0  0  0  0  0  0  0  0
  151.4726  139.5081  158.6944 C   0  0  0  0  0  0  0  0  0  0  0  0
  150.5770  138.5004  158.8728 N   0  0  0  0  0  0  0  0  0  0  0  0
  150.9354  137.3867  159.5180 C   0  0  0  0  0  0  0  0  0  0  0  0
  152.1180  137.0760  160.0520 N   0  0  0  0  0  0  0  0  0  0  0  0
  153.0250  138.0767  159.8656 C   0  0  0  0  0  0  0  0  0  0  0  0
  152.7863  139.3162  159.2073 C   0  0  0  0  0  0  0  0  0  0  0  0
  153.9451  140.0836  159.2082 N   0  0  0  0  0  0  0  0  0  0  0  0
  154.8148  139.3453  159.8415 C   0  0  0  0  0  0  0  0  0  0  0  0
  154.3512  138.1178  160.2603 N   0  0  0  0  0  0  0  0  0  0  0  0
  155.1074  137.1036  160.9796 C   0  0  0  0  0  0  0  0  0  0  0  0
  154.9683  137.1799  162.5147 C   0  0  0  0  0  0  0  0  0  0  0  0
  155.6376  138.4526  163.0632 C   0  0  0  0  0  0  0  0  0  0  0  0
  155.4272  138.5910  164.4542 O   0  0  0  0  0  0  0  0  0  0  0  0
  153.5663  136.8993  163.0728 C   0  0  0  0  0  0  0  0  0  0  0  0
  154.0748  135.9341  164.0176 O   0  0  0  0  0  0  0  0  0  0  0  0
  155.3194  135.9004  163.2883 C   0  0  0  0  0  0  0  0  0  0  0  0
  151.9329  141.8279  158.1930 C   0  0  0  0  0  0  0  0  0  0  0  0
  151.1708  143.0857  157.7220 C   0  0  1  0  0  0  0  0  0  0  0  0
  150.1698  143.6064  158.7593 C   0  0  0  0  0  0  0  0  0  0  0  0
  150.8735  144.7749  159.4550 C   0  0  0  0  0  0  0  0  0  0  0  0
  152.1880  144.7985  158.9245 O   0  0  0  0  0  0  0  0  0  0  0  0
  152.1285  144.2755  157.6094 C   0  0  0  0  0  0  0  0  0  0  0  0
  150.5741  142.8806  156.4334 O   0  0  0  0  0  0  0  0  0  0  0  0
  149.1111  140.7091  154.3784 H   0  0  0  0  0  0  0  0  0  0  0  0
  150.6175  141.5949  154.1670 H   0  0  0  0  0  0  0  0  0  0  0  0
  149.0983  142.4688  154.3078 H   0  0  0  0  0  0  0  0  0  0  0  0
  147.8356  140.8608  156.5493 H   0  0  0  0  0  0  0  0  0  0  0  0
  147.8986  142.6187  156.5892 H   0  0  0  0  0  0  0  0  0  0  0  0
  148.4925  141.6690  157.9502 H   0  0  0  0  0  0  0  0  0  0  0  0
  150.0477  139.5439  156.5719 H   0  0  0  0  0  0  0  0  0  0  0  0
  151.5220  140.3166  156.0457 H   0  0  0  0  0  0  0  0  0  0  0  0
  150.1641  136.6376  159.6215 H   0  0  0  0  0  0  0  0  0  0  0  0
  155.8295  139.6739  160.0137 H   0  0  0  0  0  0  0  0  0  0  0  0
  154.7935  136.1245  160.6154 H   0  0  0  0  0  0  0  0  0  0  0  0
  156.1534  137.1991  160.6861 H   0  0  0  0  0  0  0  0  0  0  0  0
  156.7143  138.4217  162.8925 H   0  0  0  0  0  0  0  0  0  0  0  0
  155.2797  139.3478  162.5547 H   0  0  0  0  0  0  0  0  0  0  0  0
  155.9732  139.2943  164.7718 H   0  0  0  0  0  0  0  0  0  0  0  0
  153.0981  137.7564  163.5584 H   0  0  0  0  0  0  0  0  0  0  0  0
  152.8862  136.4407  162.3530 H   0  0  0  0  0  0  0  0  0  0  0  0
  155.3905  135.0059  162.6684 H   0  0  0  0  0  0  0  0  0  0  0  0
  156.1918  135.9954  163.9362 H   0  0  0  0  0  0  0  0  0  0  0  0
  152.2527  141.9506  159.2289 H   0  0  0  0  0  0  0  0  0  0  0  0
  152.8348  141.6916  157.5943 H   0  0  0  0  0  0  0  0  0  0  0  0
  149.2617  143.9755  158.2818 H   0  0  0  0  0  0  0  0  0  0  0  0
  149.8774  142.8343  159.4715 H   0  0  0  0  0  0  0  0  0  0  0  0
  150.3736  145.7165  159.2243 H   0  0  0  0  0  0  0  0  0  0  0  0
  150.8983  144.6597  160.5389 H   0  0  0  0  0  0  0  0  0  0  0  0
  153.1157  144.0039  157.2349 H   0  0  0  0  0  0  0  0  0  0  0  0
  151.7195  145.0409  156.9475 H   0  0  0  0  0  0  0  0  0  0  0  0
  1  2  1  0  0  0  0
  1 29  1  0  0  0  0
  1 30  1  0  0  0  0
  1 31  1  0  0  0  0
  2 28  1  0  0  0  0
  2  3  1  0  0  0  0
  2  4  1  0  0  0  0
  3 32  1  0  0  0  0
  3 33  1  0  0  0  0
  3 34  1  0  0  0  0
  4  5  1  0  0  0  0
  4 35  1  0  0  0  0
  4 36  1  0  0  0  0
  5  6  1  0  0  0  0
  5 22  1  0  0  0  0
  6 11  1  0  0  0  0
  6  7  2  0  0  0  0
  7  8  1  0  0  0  0
  8  9  2  0  0  0  0
  8 37  1  0  0  0  0
  9 10  1  0  0  0  0
 10 14  1  0  0  0  0
 10 11  2  0  0  0  0
 11 12  1  0  0  0  0
 12 13  2  0  0  0  0
 13 14  1  0  0  0  0
 13 38  1  0  0  0  0
 14 15  1  0  0  0  0
 15 16  1  0  0  0  0
 15 39  1  0  0  0  0
 15 40  1  0  0  0  0
 16 21  1  0  0  0  0
 16 17  1  0  0  0  0
 16 19  1  0  0  0  0
 17 18  1  0  0  0  0
 17 41  1  0  0  0  0
 17 42  1  0  0  0  0
 18 43  1  0  0  0  0
 19 20  1  0  0  0  0
 19 44  1  0  0  0  0
 19 45  1  0  0  0  0
 20 21  1  0  0  0  0
 21 46  1  0  0  0  0
 21 47  1  0  0  0  0
 22 23  1  0  0  0  0
 22 48  1  0  0  0  0
 22 49  1  0  0  0  0
 23 27  1  0  0  0  0
 23 24  1  0  0  0  0
 23 28  1  0  0  0  0
 24 25  1  0  0  0  0
 24 50  1  0  0  0  0
 24 51  1  0  0  0  0
 25 26  1  0  0  0  0
 25 52  1  0  0  0  0
 25 53  1  0  0  0  0
 26 27  1  0  0  0  0
 27 54  1  0  0  0  0
 27 55  1  0  0  0  0
M  END
> <s_m_source_file>
AV-unprocessed.smi

> <i_m_source_file_index>
146

> <i_lp_mmshare_version>
43012

> <i_f3d_flags>
0

> <s_epik_input>
W0NIMl0xT1tDSDJdW0NIMl1bQ0BAXTEyW0NIMl1OKFtDSDJdQyhPMikoW0NIM10pW0NIM10pYyhuW2NIXW4zKWMoYzM0KW5bY0hdbjRbQ0gyXUM1KFtDSDJdW09IXSlbQ0gyXU9bQ0gyXTU=

> <s_epik_cmdline>
J2VwaWtfcHl0aG9uJywgJy1waCcsICc3LjAnLCAnLXRuJywgJzgnLCAnLW1hJywgJzIwMCcsICctbWV0YWxfYmluZGluZycsICctaW1hZScsICc8aW5maWxlLm1hZT4nLCAnLW9tYWUnLCAnPG91dGZpbGUubWFlPic=

> <r_lp_tautomer_probability>
1

> <r_epik_Ionization_Penalty>
0.00353822

> <r_epik_Ionization_Penalty_Charging>
0

> <r_epik_Ionization_Penalty_Neutral>
0.00353822

> <r_epik_State_Penalty>
0.0023805

> <r_epik_Charging_Adjusted_Penalty>
0.0023805

> <i_epik_Tot_Q>
0

> <i_epik_Tot_abs_Q>
0

> <r_epik_Metal_State_Penalty>
-0

> <b_epik_Metal_Only>
0

> <s_lp_Force_Field>
OPLS_2005

> <r_lp_Energy>
57.4997

> <b_lp_Chiralities_Consistent>
1

> <s_lp_Variant>
AV-unprocessed.smi:146-2

> <Gold.Version>
5.8.1

> <Gold.Id.Protein>
6NUR|6NUR_protein|mol2

> <Gold.PLP.Fitness>
41.9229

> <Gold.PLP.PLP>
-36.9560

> <Gold.PLP.part.hbond>
-2.1491

> <Gold.PLP.part.metal>
0.0000

> <Gold.PLP.part.buried>
-6.4314

> <Gold.PLP.part.nonpolar>
-30.9736

> <Gold.PLP.part.repulsive>
3.5215

> <Gold.PLP.ligand.clash>
0.0000

> <Gold.PLP.ligand.torsion>
0.8073

> <Gold.PLP.Chemscore.Hbond>
1.9833

> <Gold.PLP.Chemscore.CHOScore>
0.0000

> <Gold.PLP.Chemscore.Metal>
0.0000

> <Gold.Chemscore.Hbonds>
donor molecule, donor type, donor heavy atom, donor atom, acceptor molecule, acceptor atom, score
      P1  H  6896  6909       L1     9  0.95
      P1  H  7997  8010       L1    12  0.61

> <Gold.PLP.Chemscore.Internal.Correction>
0.6315

> <Gold.Rescore>
     Score         DG    S(hbond)    S(metal)    S(lipo)     H(rot)  DE(clash)    DE(int)     intcor
     10.28     -16.62       1.45        0.00     107.03       2.44       3.19       3.15       ----

> <Gold.Chemscore.Fitness>
10.2785

> <Gold.Chemscore.DG>
-16.6189

> <Gold.Chemscore.ZeroCoef>
-5.4800

> <Gold.Chemscore.Hbond>
1.4540

> <Gold.Chemscore.Metal>
0.0000

> <Gold.Chemscore.Lipo>
107.0319

> <Gold.Chemscore.Internal_Hbond>
0.0000

> <Gold.Chemscore.DEClash>
3.1885

> <Gold.Chemscore.DEInternal>
3.1519

> <Gold.Chemscore.Rot>
2.4376

> <Gold.Chemscore.Internal.Correction>
   9.000000E+99

> <Gold.Chemscore.Hbonds>
donor molecule, donor type, donor heavy atom, donor atom, acceptor molecule, acceptor atom, score
      P1  H  6896  6909       L1     9  0.21
      P1  H  7997  8010       L1    12  0.10

> <Gold.Chemscore.Hbond.Weighted>
-4.8563

> <Gold.Chemscore.Metal.Weighted>
-0.0000

> <Gold.Chemscore.Lipo.Weighted>
-12.5227

> <Gold.Chemscore.Internal_Hbond.Weighted>
0.0000

> <Gold.Chemscore.DEClash.Weighted>
3.1885

> <Gold.Chemscore.DEInternal.Weighted>
3.1519

> <Gold.Chemscore.Rot.Weighted>
6.2402

> <Gold.Chemscore.Internal.Correction.Weighted>
   9.000000E+99

> <Gold.Protein.RotatedTorsions>
[ 6907 6896 6895 6894 ] final  143.98 input  -60.11 | X-H torsion
[ 7974 7965 7964 7962 ] final  -52.19 input  175.53 | X-H torsion
[ 8008 7997 7996 7995 ] final   21.13 input   59.86 | X-H torsion
[ 10167 10162 10161 10158 ] final   78.46 input  -65.29 | X-H torsion
[ 10718 10713 10712 10709 ] final  130.74 input   66.30 | X-H torsion
[ 10763 10752 10751 10750 ] final   11.50 input  -60.55 | X-H torsion
[ 11005 11000 10999 10996 ] final -173.26 input  -57.11 | X-H torsion

> <Gold.Protein.ActiveResidues>
 VAL166  LYS551  ARG553  GLY616  TRP617  ASP618  TYR619  PRO620  LYS621  CYS622 
 ASP623  PHE694  ASN695  SER759  ASP760  ASP761  ALA762  ILE779  LEU786  VAL792 
 PHE793  MET794  SER795  GLU796  ALA797  LYS798  CYS799  TRP800  GLU811  SER814 

> <Gold.Protein.RotatedAtoms>
  152.1995  133.4831  159.5050 H   0  0  0  0  0  0  0  0  0  0  0  0  # atno 6907 bound_to 6896
  150.6967  134.1609  159.4185 H   0  0  0  0  0  0  0  0  0  0  0  0  # atno 6908 bound_to 6896
  151.9526  135.0162  160.0593 H   0  0  0  0  0  0  0  0  0  0  0  0  # atno 6909 bound_to 6896
  145.9107  140.7917  142.9696 H   0  0  0  0  0  0  0  0  0  0  0  0  # atno 7974 bound_to 7965
  154.9460  140.3059  155.5098 H   0  0  0  0  0  0  0  0  0  0  0  0  # atno 8008 bound_to 7997
  156.2991  140.2327  156.4471 H   0  0  0  0  0  0  0  0  0  0  0  0  # atno 8009 bound_to 7997
  154.8100  140.0429  157.1324 H   0  0  0  0  0  0  0  0  0  0  0  0  # atno 8010 bound_to 7997
  139.9707  144.5896  150.7988 H   0  0  0  0  0  0  0  0  0  0  0  0  # atno 10167 bound_to 10162
  157.5034  131.1095  150.9396 H   0  0  0  0  0  0  0  0  0  0  0  0  # atno 10718 bound_to 10713
  153.1920  135.6843  153.8340 H   0  0  0  0  0  0  0  0  0  0  0  0  # atno 10763 bound_to 10752
  153.7636  135.3206  155.3342 H   0  0  0  0  0  0  0  0  0  0  0  0  # atno 10764 bound_to 10752
  154.8123  135.4709  154.0647 H   0  0  0  0  0  0  0  0  0  0  0  0  # atno 10765 bound_to 10752
  140.4877  134.6014  157.4943 H   0  0  0  0  0  0  0  0  0  0  0  0  # atno 11005 bound_to 11000
  144.6743  140.1821  143.7404 LP  0  0  0  0  0  0  0  0  0  0  0  0  # atno 17320 bound_to 7965
  145.8675  139.2254  143.1680 LP  0  0  0  0  0  0  0  0  0  0  0  0  # atno 17321 bound_to 7965
  140.7523  143.2987  151.3136 LP  0  0  0  0  0  0  0  0  0  0  0  0  # atno 17342 bound_to 10162
  139.6483  144.0409  152.2607 LP  0  0  0  0  0  0  0  0  0  0  0  0  # atno 17343 bound_to 10162
  157.0059  130.5618  149.5316 LP  0  0  0  0  0  0  0  0  0  0  0  0  # atno 17370 bound_to 10713
  156.0243  130.5337  150.8363 LP  0  0  0  0  0  0  0  0  0  0  0  0  # atno 17371 bound_to 10713
  139.9788  134.7171  155.9899 LP  0  0  0  0  0  0  0  0  0  0  0  0  # atno 17394 bound_to 11000
  141.1500  133.6550  156.3983 LP  0  0  0  0  0  0  0  0  0  0  0  0  # atno 17395 bound_to 11000

$$$$
