AV-unprocessed.smi:55|AV-procd|sdf|565|dock5
  -GOLD-   2262016473D 1   1.00000     0.00000
 Structure written by MMmdl.
 31 32  0  0  0  0  0  0  0  0  1 V2000
  152.6102  142.8752  159.9534 C   0  0  0  0  0  0  0  0  0  0  0  0
  152.0430  142.3253  158.6552 C   0  0  0  0  0  0  0  0  0  0  0  0
  152.3202  141.0719  158.2134 C   0  0  0  0  0  0  0  0  0  0  0  0
  151.8177  140.5407  157.0338 N   0  0  0  0  0  0  0  0  0  0  0  0
  152.1692  139.1359  156.5984 C   0  0  2  0  0  0  0  0  0  0  0  0
  150.9961  138.1794  156.8370 C   0  0  0  0  0  0  0  0  0  0  0  0
  151.6970  136.9294  157.3310 C   0  0  1  0  0  0  0  0  0  0  0  0
  152.0815  136.1103  156.2425 O   0  0  0  0  0  0  0  0  0  0  0  0
  152.9043  137.5117  158.0800 C   0  0  1  0  0  0  0  0  0  0  0  0
  154.1220  136.5892  158.2631 C   0  0  0  0  0  0  0  0  0  0  0  0
  153.7730  135.4655  159.0434 O   0  0  0  0  0  0  0  0  0  0  0  0
  153.2576  138.6856  157.3520 O   0  0  0  0  0  0  0  0  0  0  0  0
  150.9502  141.3201  156.2402 C   0  0  0  0  0  0  0  0  0  0  0  0
  150.4419  140.9101  155.1975 O   0  0  0  0  0  0  0  0  0  0  0  0
  150.6680  142.6086  156.6910 N   0  0  0  0  0  0  0  0  0  0  0  0
  151.1622  143.1874  157.8626 C   0  0  0  0  0  0  0  0  0  0  0  0
  150.8416  144.3385  158.1537 O   0  0  0  0  0  0  0  0  0  0  0  0
  152.4898  139.1722  155.5563 H   0  0  0  0  0  0  0  0  0  0  0  0
  151.0584  136.3424  157.9917 H   0  0  0  0  0  0  0  0  0  0  0  0
  152.5659  137.8432  159.0628 H   0  0  0  0  0  0  0  0  0  0  0  0
  150.0502  143.1712  156.1242 H   0  0  0  0  0  0  0  0  0  0  0  0
  153.2503  142.1487  160.4548 H   0  0  0  0  0  0  0  0  0  0  0  0
  151.8044  143.1401  160.6388 H   0  0  0  0  0  0  0  0  0  0  0  0
  153.2052  143.7688  159.7615 H   0  0  0  0  0  0  0  0  0  0  0  0
  152.9654  140.4545  158.8197 H   0  0  0  0  0  0  0  0  0  0  0  0
  150.3508  138.5772  157.6218 H   0  0  0  0  0  0  0  0  0  0  0  0
  150.4031  138.0401  155.9323 H   0  0  0  0  0  0  0  0  0  0  0  0
  151.3531  136.0479  155.6432 H   0  0  0  0  0  0  0  0  0  0  0  0
  154.5269  136.2626  157.3051 H   0  0  0  0  0  0  0  0  0  0  0  0
  154.9194  137.1267  158.7767 H   0  0  0  0  0  0  0  0  0  0  0  0
  154.5242  134.8946  159.1004 H   0  0  0  0  0  0  0  0  0  0  0  0
  1  2  1  0  0  0  0
  1 22  1  0  0  0  0
  1 23  1  0  0  0  0
  1 24  1  0  0  0  0
  2 16  1  0  0  0  0
  2  3  2  0  0  0  0
  3  4  1  0  0  0  0
  3 25  1  0  0  0  0
  4  5  1  0  0  0  0
  4 13  1  0  0  0  0
  5 18  1  0  0  0  0
  5 12  1  0  0  0  0
  5  6  1  0  0  0  0
  6  7  1  0  0  0  0
  6 26  1  0  0  0  0
  6 27  1  0  0  0  0
  7 19  1  0  0  0  0
  7  8  1  0  0  0  0
  7  9  1  0  0  0  0
  8 28  1  0  0  0  0
  9 20  1  0  0  0  0
  9 10  1  0  0  0  0
  9 12  1  0  0  0  0
 10 11  1  0  0  0  0
 10 29  1  0  0  0  0
 10 30  1  0  0  0  0
 11 31  1  0  0  0  0
 13 14  2  0  0  0  0
 13 15  1  0  0  0  0
 15 21  1  0  0  0  0
 15 16  1  0  0  0  0
 16 17  2  0  0  0  0
M  END
> <s_m_source_file>
AV-unprocessed.smi

> <i_m_source_file_index>
55

> <i_lp_mmshare_version>
43012

> <i_f3d_flags>
0

> <s_epik_input>
Tz1jMVtuSF1jKD1PKW4oW2NIXWMxW0NIM10pW0NAQEhdMltDSDJdW0NAQEhdKFtPSF0pW0NAQEhdKE8yKVtDSDJdW09IXQ==

> <s_epik_cmdline>
J2VwaWtfcHl0aG9uJywgJy1waCcsICc3LjAnLCAnLXRuJywgJzgnLCAnLW1hJywgJzIwMCcsICctbWV0YWxfYmluZGluZycsICctaW1hZScsICc8aW5maWxlLm1hZT4nLCAnLW9tYWUnLCAnPG91dGZpbGUubWFlPic=

> <r_lp_tautomer_probability>
0.999537

> <r_epik_Ionization_Penalty>
0.00121888

> <r_epik_Ionization_Penalty_Charging>
0.00121876

> <r_epik_Ionization_Penalty_Neutral>
1.19946e-07

> <r_epik_State_Penalty>
0.000805124

> <r_epik_Charging_Adjusted_Penalty>
0.00202389

> <i_epik_Tot_Q>
0

> <i_epik_Tot_abs_Q>
0

> <r_epik_Metal_State_Penalty>
0.662472

> <b_epik_Metal_Only>
0

> <s_epik_Chemistry_Notes>
This compound contains an acetal/aminal-like group ( X-CH(R)-Y where X, Y are N, S, or O) that may be acid/base labile, releasing an aldehyde.

> <s_lp_Force_Field>
OPLS_2005

> <r_lp_Energy>
27.6975

> <b_lp_Chiralities_Consistent>
1

> <s_lp_Variant>
AV-unprocessed.smi:55-5

> <Gold.Version>
5.8.1

> <Gold.Id.Protein>
6NUR|6NUR_protein|mol2

> <Gold.PLP.Fitness>
38.1215

> <Gold.PLP.PLP>
-24.5594

> <Gold.PLP.part.hbond>
-5.0000

> <Gold.PLP.part.metal>
0.0000

> <Gold.PLP.part.buried>
-4.6845

> <Gold.PLP.part.nonpolar>
-15.3444

> <Gold.PLP.part.repulsive>
0.3198

> <Gold.PLP.ligand.clash>
0.0000

> <Gold.PLP.ligand.torsion>
0.3601

> <Gold.PLP.Chemscore.Hbond>
4.7600

> <Gold.PLP.Chemscore.CHOScore>
0.0000

> <Gold.PLP.Chemscore.Metal>
0.0000

> <Gold.Chemscore.Hbonds>
donor molecule, donor type, donor heavy atom, donor atom, acceptor molecule, acceptor atom, score
      L1  H    15    21       P1  8028  1.00
      P1  H  6896  6907       L1    11  0.94
      P1  H  7989  7998       L1    14  0.70
      P1  H  7997  8009       L1    12  1.00
      P1  H 10752 10764       L1     8  0.98

> <Gold.PLP.Chemscore.Internal.Correction>
0.0022

> <Gold.Rescore>
     Score         DG    S(hbond)    S(metal)    S(lipo)     H(rot)  DE(clash)    DE(int)     intcor
     14.74     -15.19       3.46        0.00      43.72       2.73       0.01       0.44       ----

> <Gold.Chemscore.Fitness>
14.7351

> <Gold.Chemscore.DG>
-15.1878

> <Gold.Chemscore.ZeroCoef>
-5.4800

> <Gold.Chemscore.Hbond>
3.4638

> <Gold.Chemscore.Metal>
0.0000

> <Gold.Chemscore.Lipo>
43.7223

> <Gold.Chemscore.Internal_Hbond>
0.0000

> <Gold.Chemscore.DEClash>
0.0126

> <Gold.Chemscore.DEInternal>
0.4400

> <Gold.Chemscore.Rot>
2.7253

> <Gold.Chemscore.Internal.Correction>
   9.000000E+99

> <Gold.Chemscore.Hbonds>
donor molecule, donor type, donor heavy atom, donor atom, acceptor molecule, acceptor atom, score
      L1  H    15    21       P1  8028  0.96
      P1  H  6896  6907       L1    11  0.50
      P1  H  7989  7998       L1    14  0.64
      P1  H  7997  8009       L1    12  0.43
      P1  H 10752 10764       L1     8  0.32

> <Gold.Chemscore.Hbond.Weighted>
-11.5691

> <Gold.Chemscore.Metal.Weighted>
-0.0000

> <Gold.Chemscore.Lipo.Weighted>
-5.1155

> <Gold.Chemscore.Internal_Hbond.Weighted>
0.0000

> <Gold.Chemscore.DEClash.Weighted>
0.0126

> <Gold.Chemscore.DEInternal.Weighted>
0.4400

> <Gold.Chemscore.Rot.Weighted>
6.9769

> <Gold.Chemscore.Internal.Correction.Weighted>
   9.000000E+99

> <Gold.Protein.RotatedTorsions>
[ 6907 6896 6895 6894 ] final   62.20 input  -60.11 | X-H torsion
[ 7974 7965 7964 7962 ] final  -42.61 input  175.53 | X-H torsion
[ 8008 7997 7996 7995 ] final  152.93 input   59.86 | X-H torsion
[ 10167 10162 10161 10158 ] final -119.63 input  -65.29 | X-H torsion
[ 10718 10713 10712 10709 ] final   98.08 input   66.30 | X-H torsion
[ 10763 10752 10751 10750 ] final   -6.20 input  -60.55 | X-H torsion
[ 11005 11000 10999 10996 ] final  178.49 input  -57.11 | X-H torsion

> <Gold.Protein.ActiveResidues>
 VAL166  LYS551  ARG553  GLY616  TRP617  ASP618  TYR619  PRO620  LYS621  CYS622 
 ASP623  PHE694  ASN695  SER759  ASP760  ASP761  ALA762  ILE779  LEU786  VAL792 
 PHE793  MET794  SER795  GLU796  ALA797  LYS798  CYS799  TRP800  GLU811  SER814 

> <Gold.Protein.RotatedAtoms>
  152.4152  134.6053  160.0010 H   0  0  0  0  0  0  0  0  0  0  0  0  # atno 6907 bound_to 6896
  151.6219  133.3333  159.3098 H   0  0  0  0  0  0  0  0  0  0  0  0  # atno 6908 bound_to 6896
  150.8041  134.7194  159.6694 H   0  0  0  0  0  0  0  0  0  0  0  0  # atno 6909 bound_to 6896
  146.0099  140.6976  142.9229 H   0  0  0  0  0  0  0  0  0  0  0  0  # atno 7974 bound_to 7965
  156.2606  140.2007  156.6411 H   0  0  0  0  0  0  0  0  0  0  0  0  # atno 8008 bound_to 7997
  154.6609  140.0561  157.0085 H   0  0  0  0  0  0  0  0  0  0  0  0  # atno 8009 bound_to 7997
  155.1278  140.3231  155.4484 H   0  0  0  0  0  0  0  0  0  0  0  0  # atno 8010 bound_to 7997
  140.0446  143.5120  152.2113 H   0  0  0  0  0  0  0  0  0  0  0  0  # atno 10167 bound_to 10162
  157.6902  131.0629  150.4742 H   0  0  0  0  0  0  0  0  0  0  0  0  # atno 10718 bound_to 10713
  153.4091  135.7007  153.6372 H   0  0  0  0  0  0  0  0  0  0  0  0  # atno 10763 bound_to 10752
  153.4873  135.3680  155.2474 H   0  0  0  0  0  0  0  0  0  0  0  0  # atno 10764 bound_to 10752
  154.8716  135.4080  154.3440 H   0  0  0  0  0  0  0  0  0  0  0  0  # atno 10765 bound_to 10752
  140.3956  134.6823  157.4533 H   0  0  0  0  0  0  0  0  0  0  0  0  # atno 11005 bound_to 11000
  144.6949  140.3380  143.7204 LP  0  0  0  0  0  0  0  0  0  0  0  0  # atno 17320 bound_to 7965
  145.7358  139.1749  143.2404 LP  0  0  0  0  0  0  0  0  0  0  0  0  # atno 17321 bound_to 7965
  139.5992  144.7577  151.3213 LP  0  0  0  0  0  0  0  0  0  0  0  0  # atno 17342 bound_to 10162
  140.7245  143.7043  150.7819 LP  0  0  0  0  0  0  0  0  0  0  0  0  # atno 17343 bound_to 10162
  156.5078  130.4132  149.6317 LP  0  0  0  0  0  0  0  0  0  0  0  0  # atno 17370 bound_to 10713
  156.3268  130.7310  151.2232 LP  0  0  0  0  0  0  0  0  0  0  0  0  # atno 17371 bound_to 10713
  140.0374  134.6317  155.9026 LP  0  0  0  0  0  0  0  0  0  0  0  0  # atno 17394 bound_to 11000
  141.1875  133.6560  156.5285 LP  0  0  0  0  0  0  0  0  0  0  0  0  # atno 17395 bound_to 11000

$$$$
