AV-unprocessed.smi:140|AV-procd|sdf|1185|dock9
  -GOLD-   2262018343D 1   1.00000     0.00000
 Structure written by MMmdl.
 52 55  0  0  0  0  0  0  0  0  1 V2000
  154.3192  132.7368  161.5268 C   0  0  0  0  0  0  0  0  0  0  0  0
  154.2322  134.1468  162.0162 C   0  0  0  0  0  0  0  0  0  0  0  0
  154.4545  135.3150  161.3494 C   0  0  0  0  0  0  0  0  0  0  0  0
  154.2527  136.3974  162.2506 C   0  0  0  0  0  0  0  0  0  0  0  0
  154.3579  137.8531  161.9770 C   0  0  0  0  0  0  0  0  0  0  0  0
  154.2185  138.7155  162.8457 O   0  0  0  0  0  0  0  0  0  0  0  0
  154.6457  138.2386  160.5138 C   0  0  0  0  0  0  0  0  0  0  0  0
  153.5391  138.9457  159.8811 N   0  0  0  0  0  0  0  0  0  0  0  0
  152.3707  138.2075  159.5668 C   0  0  0  0  0  0  0  0  0  0  0  0
  152.2701  137.0039  159.8110 O   0  0  0  0  0  0  0  0  0  0  0  0
  151.3074  138.9917  158.9480 C   0  0  0  0  0  0  0  0  0  0  0  0
  150.1562  138.3919  158.6005 F   0  0  0  0  0  0  0  0  0  0  0  0
  151.4573  140.3143  158.7188 C   0  0  0  0  0  0  0  0  0  0  0  0
  152.6073  141.0126  159.0487 N   0  0  0  0  0  0  0  0  0  0  0  0
  152.7447  142.4980  158.7971 C   0  0  2  0  0  0  0  0  0  0  0  0
  152.8199  143.2660  160.1284 C   0  0  0  0  0  0  0  0  0  0  0  0
  151.8053  144.3730  159.9282 C   0  0  0  0  0  0  0  0  0  0  0  0
  150.7977  143.7094  159.0010 C   0  0  0  0  0  0  0  0  0  0  0  0
  151.6213  142.9698  158.1084 O   0  0  0  0  0  0  0  0  0  0  0  0
  153.6889  140.3343  159.6504 C   0  0  0  0  0  0  0  0  0  0  0  0
  154.7144  140.9409  159.9698 O   0  0  0  0  0  0  0  0  0  0  0  0
  153.9229  135.8571  163.4729 C   0  0  0  0  0  0  0  0  0  0  0  0
  153.6294  136.5097  164.7953 C   0  0  0  0  0  0  0  0  0  0  0  0
  153.8846  134.4697  163.3224 N   0  0  0  0  0  0  0  0  0  0  0  0
  153.5457  133.5005  164.3622 C   0  0  0  0  0  0  0  0  0  0  0  0
  154.6090  133.3057  165.4034 C   0  0  0  0  0  0  0  0  0  0  0  0
  154.6840  132.2711  166.3012 C   0  0  0  0  0  0  0  0  0  0  0  0
  155.8161  132.3503  167.1642 C   0  0  0  0  0  0  0  0  0  0  0  0
  156.5967  133.4475  166.9170 C   0  0  0  0  0  0  0  0  0  0  0  0
  155.9553  134.4063  165.6124 S   0  0  0  0  0  0  0  0  0  0  0  0
  154.7374  132.7004  160.5207 H   0  0  0  0  0  0  0  0  0  0  0  0
  153.3328  132.2742  161.4946 H   0  0  0  0  0  0  0  0  0  0  0  0
  154.9589  132.1362  162.1739 H   0  0  0  0  0  0  0  0  0  0  0  0
  154.7326  135.3819  160.3078 H   0  0  0  0  0  0  0  0  0  0  0  0
  155.5324  138.8705  160.4419 H   0  0  0  0  0  0  0  0  0  0  0  0
  154.8717  137.3548  159.9156 H   0  0  0  0  0  0  0  0  0  0  0  0
  150.6304  140.8322  158.2581 H   0  0  0  0  0  0  0  0  0  0  0  0
  153.6253  142.6161  158.1629 H   0  0  0  0  0  0  0  0  0  0  0  0
  152.5178  142.6194  160.9541 H   0  0  0  0  0  0  0  0  0  0  0  0
  153.8298  143.6313  160.3146 H   0  0  0  0  0  0  0  0  0  0  0  0
  151.3624  144.7218  160.8615 H   0  0  0  0  0  0  0  0  0  0  0  0
  152.2704  145.2239  159.4286 H   0  0  0  0  0  0  0  0  0  0  0  0
  150.1457  143.0350  159.5575 H   0  0  0  0  0  0  0  0  0  0  0  0
  150.1757  144.4291  158.4688 H   0  0  0  0  0  0  0  0  0  0  0  0
  154.2891  137.3592  164.9686 H   0  0  0  0  0  0  0  0  0  0  0  0
  153.7809  135.8351  165.6367 H   0  0  0  0  0  0  0  0  0  0  0  0
  152.6006  136.8683  164.8288 H   0  0  0  0  0  0  0  0  0  0  0  0
  152.6134  133.8078  164.8363 H   0  0  0  0  0  0  0  0  0  0  0  0
  153.3179  132.5427  163.8955 H   0  0  0  0  0  0  0  0  0  0  0  0
  153.9698  131.4636  166.3671 H   0  0  0  0  0  0  0  0  0  0  0  0
  156.0154  131.6102  167.9253 H   0  0  0  0  0  0  0  0  0  0  0  0
  157.5048  133.7495  167.4175 H   0  0  0  0  0  0  0  0  0  0  0  0
  1  2  1  0  0  0  0
  1 31  1  0  0  0  0
  1 32  1  0  0  0  0
  1 33  1  0  0  0  0
  2 24  1  0  0  0  0
  2  3  2  0  0  0  0
  3  4  1  0  0  0  0
  3 34  1  0  0  0  0
  4  5  1  0  0  0  0
  4 22  2  0  0  0  0
  5  6  2  0  0  0  0
  5  7  1  0  0  0  0
  7  8  1  0  0  0  0
  7 35  1  0  0  0  0
  7 36  1  0  0  0  0
  8 20  1  0  0  0  0
  8  9  1  0  0  0  0
  9 10  2  0  0  0  0
  9 11  1  0  0  0  0
 11 12  1  0  0  0  0
 11 13  2  0  0  0  0
 13 14  1  0  0  0  0
 13 37  1  0  0  0  0
 14 15  1  0  0  0  0
 14 20  1  0  0  0  0
 15 19  1  0  0  0  0
 15 16  1  0  0  0  0
 15 38  1  0  0  0  0
 16 17  1  0  0  0  0
 16 39  1  0  0  0  0
 16 40  1  0  0  0  0
 17 18  1  0  0  0  0
 17 41  1  0  0  0  0
 17 42  1  0  0  0  0
 18 19  1  0  0  0  0
 18 43  1  0  0  0  0
 18 44  1  0  0  0  0
 20 21  2  0  0  0  0
 22 23  1  0  0  0  0
 22 24  1  0  0  0  0
 23 45  1  0  0  0  0
 23 46  1  0  0  0  0
 23 47  1  0  0  0  0
 24 25  1  0  0  0  0
 25 26  1  0  0  0  0
 25 48  1  0  0  0  0
 25 49  1  0  0  0  0
 26 30  1  0  0  0  0
 26 27  2  0  0  0  0
 27 28  1  0  0  0  0
 27 50  1  0  0  0  0
 28 29  2  0  0  0  0
 28 51  1  0  0  0  0
 29 30  1  0  0  0  0
 29 52  1  0  0  0  0
M  END
> <s_m_source_file>
AV-unprocessed.smi

> <i_m_source_file_index>
140

> <i_lp_mmshare_version>
43012

> <i_f3d_flags>
0

> <s_epik_input>
czFbY0hdW2NIXVtjSF1jMVtDSDJdbjJjKFtDSDNdKWMoW2NIXWMyW0NIM10pQyg9TylbQ0gyXW4zYyg9TyljKEYpW2NIXW4oYzM9TylbQ0BASF00W0NIMl1bQ0gyXVtDSDJdTzQ=

> <s_epik_cmdline>
J2VwaWtfcHl0aG9uJywgJy1waCcsICc3LjAnLCAnLXRuJywgJzgnLCAnLW1hJywgJzIwMCcsICctbWV0YWxfYmluZGluZycsICctaW1hZScsICc8aW5maWxlLm1hZT4nLCAnLW9tYWUnLCAnPG91dGZpbGUubWFlPic=

> <r_lp_tautomer_probability>
1

> <r_epik_Ionization_Penalty>
5.024e-09

> <r_epik_Ionization_Penalty_Charging>
5.01743e-09

> <r_epik_Ionization_Penalty_Neutral>
6.5712e-12

> <r_epik_State_Penalty>
-0

> <r_epik_Charging_Adjusted_Penalty>
5.01743e-09

> <i_epik_Tot_Q>
0

> <i_epik_Tot_abs_Q>
0

> <r_epik_Metal_State_Penalty>
-0

> <b_epik_Metal_Only>
0

> <s_epik_Chemistry_Notes>
This compound contains an acetal/aminal-like group ( X-CH(R)-Y where X, Y are N, S, or O) that may be acid/base labile, releasing an aldehyde.

> <s_lp_Force_Field>
OPLS_2005

> <r_lp_Energy>
39.7817

> <b_lp_Chiralities_Consistent>
1

> <s_lp_Variant>
AV-unprocessed.smi:140-1

> <Gold.Version>
5.8.1

> <Gold.Id.Protein>
6NUR|6NUR_protein|mol2

> <Gold.PLP.Fitness>
50.6511

> <Gold.PLP.PLP>
-48.7482

> <Gold.PLP.part.hbond>
-1.0000

> <Gold.PLP.part.metal>
0.0000

> <Gold.PLP.part.buried>
-5.3492

> <Gold.PLP.part.nonpolar>
-42.8377

> <Gold.PLP.part.repulsive>
0.0455

> <Gold.PLP.ligand.clash>
0.0000

> <Gold.PLP.ligand.torsion>
0.5962

> <Gold.PLP.Chemscore.Hbond>
0.9913

> <Gold.PLP.Chemscore.CHOScore>
0.0000

> <Gold.PLP.Chemscore.Metal>
0.0000

> <Gold.Chemscore.Hbonds>
donor molecule, donor type, donor heavy atom, donor atom, acceptor molecule, acceptor atom, score
      P1  H  6896  6907       L1    10  1.00

> <Gold.PLP.Chemscore.Internal.Correction>
0.1215

> <Gold.Rescore>
     Score         DG    S(hbond)    S(metal)    S(lipo)     H(rot)  DE(clash)    DE(int)     intcor
     15.56     -18.10       0.95        0.00     121.61       1.87       0.78       1.77       ----

> <Gold.Chemscore.Fitness>
15.5571

> <Gold.Chemscore.DG>
-18.1006

> <Gold.Chemscore.ZeroCoef>
-5.4800

> <Gold.Chemscore.Hbond>
0.9530

> <Gold.Chemscore.Metal>
0.0000

> <Gold.Chemscore.Lipo>
121.6061

> <Gold.Chemscore.Internal_Hbond>
0.0000

> <Gold.Chemscore.DEClash>
0.7772

> <Gold.Chemscore.DEInternal>
1.7663

> <Gold.Chemscore.Rot>
1.8713

> <Gold.Chemscore.Internal.Correction>
   9.000000E+99

> <Gold.Chemscore.Hbonds>
donor molecule, donor type, donor heavy atom, donor atom, acceptor molecule, acceptor atom, score
      P1  H  6896  6907       L1    10  0.99

> <Gold.Chemscore.Hbond.Weighted>
-3.1832

> <Gold.Chemscore.Metal.Weighted>
-0.0000

> <Gold.Chemscore.Lipo.Weighted>
-14.2279

> <Gold.Chemscore.Internal_Hbond.Weighted>
0.0000

> <Gold.Chemscore.DEClash.Weighted>
0.7772

> <Gold.Chemscore.DEInternal.Weighted>
1.7663

> <Gold.Chemscore.Rot.Weighted>
4.7905

> <Gold.Chemscore.Internal.Correction.Weighted>
   9.000000E+99

> <Gold.Protein.RotatedTorsions>
[ 6907 6896 6895 6894 ] final   21.42 input  -60.11 | X-H torsion
[ 7974 7965 7964 7962 ] final  -13.67 input  175.53 | X-H torsion
[ 8008 7997 7996 7995 ] final  176.98 input   59.86 | X-H torsion
[ 10167 10162 10161 10158 ] final  123.85 input  -65.29 | X-H torsion
[ 10718 10713 10712 10709 ] final  112.47 input   66.30 | X-H torsion
[ 10763 10752 10751 10750 ] final  136.31 input  -60.55 | X-H torsion
[ 11005 11000 10999 10996 ] final   28.79 input  -57.11 | X-H torsion

> <Gold.Protein.ActiveResidues>
 VAL166  LYS551  ARG553  GLY616  TRP617  ASP618  TYR619  PRO620  LYS621  CYS622 
 ASP623  PHE694  ASN695  SER759  ASP760  ASP761  ALA762  ILE779  LEU786  VAL792 
 PHE793  MET794  SER795  GLU796  ALA797  LYS798  CYS799  TRP800  GLU811  SER814 

> <Gold.Protein.RotatedAtoms>
  151.9116  135.0336  160.0514 H   0  0  0  0  0  0  0  0  0  0  0  0  # atno 6907 bound_to 6896
  152.2275  133.5027  159.5205 H   0  0  0  0  0  0  0  0  0  0  0  0  # atno 6908 bound_to 6896
  150.7016  134.1178  159.4066 H   0  0  0  0  0  0  0  0  0  0  0  0  # atno 6909 bound_to 6896
  146.2105  140.3237  142.8392 H   0  0  0  0  0  0  0  0  0  0  0  0  # atno 7974 bound_to 7965
  156.0707  140.1370  156.9832 H   0  0  0  0  0  0  0  0  0  0  0  0  # atno 8008 bound_to 7997
  154.4530  140.0972  156.6726 H   0  0  0  0  0  0  0  0  0  0  0  0  # atno 8009 bound_to 7997
  155.5233  140.3457  155.4413 H   0  0  0  0  0  0  0  0  0  0  0  0  # atno 8010 bound_to 7997
  139.5775  144.6970  151.3614 H   0  0  0  0  0  0  0  0  0  0  0  0  # atno 10167 bound_to 10162
  157.6391  131.0968  150.6899 H   0  0  0  0  0  0  0  0  0  0  0  0  # atno 10718 bound_to 10713
  153.8544  135.3075  155.3434 H   0  0  0  0  0  0  0  0  0  0  0  0  # atno 10763 bound_to 10752
  154.7877  135.4800  153.9985 H   0  0  0  0  0  0  0  0  0  0  0  0  # atno 10764 bound_to 10752
  153.1499  135.6841  153.8991 H   0  0  0  0  0  0  0  0  0  0  0  0  # atno 10765 bound_to 10752
  140.3119  134.2640  155.7733 H   0  0  0  0  0  0  0  0  0  0  0  0  # atno 11005 bound_to 11000
  144.8902  140.7513  143.5931 LP  0  0  0  0  0  0  0  0  0  0  0  0  # atno 17320 bound_to 7965
  145.3159  139.1803  143.4614 LP  0  0  0  0  0  0  0  0  0  0  0  0  # atno 17321 bound_to 7965
  140.7057  143.7520  150.7477 LP  0  0  0  0  0  0  0  0  0  0  0  0  # atno 17342 bound_to 10162
  140.1044  143.4757  152.2406 LP  0  0  0  0  0  0  0  0  0  0  0  0  # atno 17343 bound_to 10162
  156.7226  130.4685  149.5519 LP  0  0  0  0  0  0  0  0  0  0  0  0  # atno 17370 bound_to 10713
  156.1655  130.6402  151.0773 LP  0  0  0  0  0  0  0  0  0  0  0  0  # atno 17371 bound_to 10713
  141.2106  133.7714  156.9919 LP  0  0  0  0  0  0  0  0  0  0  0  0  # atno 17394 bound_to 11000
  140.1018  134.9531  157.1934 LP  0  0  0  0  0  0  0  0  0  0  0  0  # atno 17395 bound_to 11000

$$$$
