AV-unprocessed.smi:3284|AV-procd|sdf|12572|dock3
  -GOLD-   2272018493D 1   1.00000     0.00000
 Structure written by MMmdl.
 44 45  0  0  0  0  0  0  0  0  2 V2000
  151.4611  144.3585  158.5757 C   0  0  0  0  0  0  0  0  0  0  0  0
  152.1008  143.5495  159.6925 C   0  0  0  0  0  0  0  0  0  0  0  0
  151.9105  143.8857  160.9838 C   0  0  0  0  0  0  0  0  0  0  0  0
  152.5539  143.1832  162.1667 C   0  0  0  0  0  0  0  0  0  0  0  0
  153.3273  141.9144  161.7707 C   0  0  0  0  0  0  0  0  0  0  0  0
  154.0342  142.0834  160.4142 C   0  0  1  0  0  0  0  0  0  0  0  0
  154.9918  140.9178  160.1121 C   0  0  0  0  0  0  0  0  0  0  0  0
  153.0080  142.3810  159.2842 C   0  0  1  0  0  0  0  0  0  0  0  0
  152.1999  141.1265  158.8587 C   0  0  0  0  0  0  0  0  0  0  0  0
  151.7080  141.1988  157.4691 N   0  3  0  0  0  0  0  0  0  0  0  0
  150.2374  141.2147  157.3510 C   0  0  0  0  0  0  0  0  0  0  0  0
  149.8022  141.3801  155.8894 C   0  0  0  0  0  0  0  0  0  0  0  0
  150.6657  140.5995  154.9482 C   0  0  0  0  0  0  0  0  0  0  0  0
  151.9808  140.7667  154.8499 N   0  0  0  0  0  0  0  0  0  0  0  0
  152.3858  139.8421  153.8931 C   0  0  0  0  0  0  0  0  0  0  0  0
  151.2928  139.1381  153.4488 C   0  0  0  0  0  0  0  0  0  0  0  0
  150.1936  139.6301  154.1403 N   0  0  0  0  0  0  0  0  0  0  0  0
  148.8251  139.1714  154.0006 C   0  0  0  0  0  0  0  0  0  0  0  0
  152.2019  144.6201  157.8198 H   0  0  0  0  0  0  0  0  0  0  0  0
  151.0389  145.2882  158.9586 H   0  0  0  0  0  0  0  0  0  0  0  0
  150.6513  143.8112  158.0965 H   0  0  0  0  0  0  0  0  0  0  0  0
  151.2853  144.7322  161.2285 H   0  0  0  0  0  0  0  0  0  0  0  0
  153.2345  143.8947  162.6354 H   0  0  0  0  0  0  0  0  0  0  0  0
  151.7908  142.9430  162.9075 H   0  0  0  0  0  0  0  0  0  0  0  0
  154.0502  141.6753  162.5517 H   0  0  0  0  0  0  0  0  0  0  0  0
  152.6429  141.0668  161.7269 H   0  0  0  0  0  0  0  0  0  0  0  0
  154.6681  142.9682  160.4984 H   0  0  0  0  0  0  0  0  0  0  0  0
  154.4873  139.9526  160.1555 H   0  0  0  0  0  0  0  0  0  0  0  0
  155.8037  140.8875  160.8394 H   0  0  0  0  0  0  0  0  0  0  0  0
  155.4421  141.0224  159.1245 H   0  0  0  0  0  0  0  0  0  0  0  0
  153.5862  142.7125  158.4203 H   0  0  0  0  0  0  0  0  0  0  0  0
  152.8160  140.2309  158.9282 H   0  0  0  0  0  0  0  0  0  0  0  0
  151.3498  140.9809  159.5259 H   0  0  0  0  0  0  0  0  0  0  0  0
  152.0731  142.0408  157.0472 H   0  0  0  0  0  0  0  0  0  0  0  0
  149.8362  140.2854  157.7577 H   0  0  0  0  0  0  0  0  0  0  0  0
  149.8357  142.0311  157.9530 H   0  0  0  0  0  0  0  0  0  0  0  0
  148.7610  141.0802  155.7664 H   0  0  0  0  0  0  0  0  0  0  0  0
  149.8504  142.4322  155.6055 H   0  0  0  0  0  0  0  0  0  0  0  0
  153.4223  139.7542  153.6022 H   0  0  0  0  0  0  0  0  0  0  0  0
  151.2100  138.3459  152.7190 H   0  0  0  0  0  0  0  0  0  0  0  0
  148.7863  138.2958  153.3515 H   0  0  0  0  0  0  0  0  0  0  0  0
  148.2140  139.9614  153.5631 H   0  0  0  0  0  0  0  0  0  0  0  0
  148.4213  138.9021  154.9768 H   0  0  0  0  0  0  0  0  0  0  0  0
  152.0635  140.4017  156.9605 H   0  0  0  0  0  0  0  0  0  0  0  0
  1  2  1  0  0  0  0
  1 19  1  0  0  0  0
  1 20  1  0  0  0  0
  1 21  1  0  0  0  0
  2  8  1  0  0  0  0
  2  3  2  0  0  0  0
  3  4  1  0  0  0  0
  3 22  1  0  0  0  0
  4  5  1  0  0  0  0
  4 23  1  0  0  0  0
  4 24  1  0  0  0  0
  5  6  1  0  0  0  0
  5 25  1  0  0  0  0
  5 26  1  0  0  0  0
  6  7  1  0  0  0  0
  6  8  1  0  0  0  0
  6 27  1  0  0  0  0
  7 28  1  0  0  0  0
  7 29  1  0  0  0  0
  7 30  1  0  0  0  0
  8  9  1  0  0  0  0
  8 31  1  0  0  0  0
  9 10  1  0  0  0  0
  9 32  1  0  0  0  0
  9 33  1  0  0  0  0
 10 11  1  0  0  0  0
 10 34  1  0  0  0  0
 10 44  1  0  0  0  0
 11 12  1  0  0  0  0
 11 35  1  0  0  0  0
 11 36  1  0  0  0  0
 12 13  1  0  0  0  0
 12 37  1  0  0  0  0
 12 38  1  0  0  0  0
 13 17  1  0  0  0  0
 13 14  2  0  0  0  0
 14 15  1  0  0  0  0
 15 16  2  0  0  0  0
 15 39  1  0  0  0  0
 16 17  1  0  0  0  0
 16 40  1  0  0  0  0
 17 18  1  0  0  0  0
 18 41  1  0  0  0  0
 18 42  1  0  0  0  0
 18 43  1  0  0  0  0
M  CHG  1  10   1
M  END
> <s_m_source_file>
AV-unprocessed.smi

> <i_m_source_file_index>
3284

> <i_lp_mmshare_version>
43012

> <i_f3d_flags>
0

> <s_epik_input>
W0NIM11DMT1bQ0hdW0NIMl1bQ0gyXVtDQEBIXShbQ0gzXSlbQ0BIXTFbQ0gyXVtOSF1bQ0gyXVtDSDJdYzJuW2NIXVtjSF1uMltDSDNd

> <s_epik_cmdline>
J2VwaWtfcHl0aG9uJywgJy1waCcsICc3LjAnLCAnLXRuJywgJzgnLCAnLW1hJywgJzIwMCcsICctbWV0YWxfYmluZGluZycsICctaW1hZScsICc8aW5maWxlLm1hZT4nLCAnLW9tYWUnLCAnPG91dGZpbGUubWFlPic=

> <r_lp_tautomer_probability>
1

> <r_epik_Ionization_Penalty>
0.150779

> <r_epik_Ionization_Penalty_Charging>
0.150779

> <r_epik_Ionization_Penalty_Neutral>
1.39452e-13

> <r_epik_State_Penalty>
0.349447

> <r_epik_Charging_Adjusted_Penalty>
0.500226

> <i_epik_Tot_Q>
1

> <i_epik_Tot_abs_Q>
1

> <r_epik_Metal_State_Penalty>
0.000470967

> <b_epik_Metal_Only>
0

> <s_lp_Force_Field>
OPLS_2005

> <r_lp_Energy>
13.2562

> <b_lp_Chiralities_Consistent>
1

> <s_lp_Variant>
AV-unprocessed.smi:3284-1

> <Gold.Version>
5.8.1

> <Gold.Id.Protein>
6NUR|6NUR_protein|mol2

> <Gold.PLP.Fitness>
55.8411

> <Gold.PLP.PLP>
-53.9269

> <Gold.PLP.part.hbond>
-1.0000

> <Gold.PLP.part.metal>
0.0000

> <Gold.PLP.part.buried>
-4.0931

> <Gold.PLP.part.nonpolar>
-49.0388

> <Gold.PLP.part.repulsive>
0.0792

> <Gold.PLP.ligand.clash>
0.0000

> <Gold.PLP.ligand.torsion>
0.7284

> <Gold.PLP.Chemscore.Hbond>
0.0000

> <Gold.PLP.Chemscore.CHOScore>
1.1075

> <Gold.PLP.Chemscore.Metal>
0.0000

> <Gold.Chemscore.Hbonds>
donor molecule, donor type, donor heavy atom, donor atom, acceptor molecule, acceptor atom, score
      L1  C    16    40       P1  7949  0.71
      L1  C    16    40       P1  7957  0.02

> <Gold.PLP.Chemscore.Internal.Correction>
0.0485

> <Gold.Rescore>
     Score         DG    S(hbond)    S(metal)    S(lipo)     H(rot)  DE(clash)    DE(int)     intcor
     14.70     -17.26       0.00        0.00     135.95       1.61       0.05       2.51       ----

> <Gold.Chemscore.Fitness>
14.7024

> <Gold.Chemscore.DG>
-17.2632

> <Gold.Chemscore.ZeroCoef>
-5.4800

> <Gold.Chemscore.Hbond>
0.0000

> <Gold.Chemscore.Metal>
0.0000

> <Gold.Chemscore.Lipo>
135.9506

> <Gold.Chemscore.Internal_Hbond>
0.0000

> <Gold.Chemscore.DEClash>
0.0529

> <Gold.Chemscore.DEInternal>
2.5080

> <Gold.Chemscore.Rot>
1.6105

> <Gold.Chemscore.Internal.Correction>
   9.000000E+99

> <Gold.Chemscore.Hbond.Weighted>
-0.0000

> <Gold.Chemscore.Metal.Weighted>
-0.0000

> <Gold.Chemscore.Lipo.Weighted>
-15.9062

> <Gold.Chemscore.Internal_Hbond.Weighted>
0.0000

> <Gold.Chemscore.DEClash.Weighted>
0.0529

> <Gold.Chemscore.DEInternal.Weighted>
2.5080

> <Gold.Chemscore.Rot.Weighted>
4.1230

> <Gold.Chemscore.Internal.Correction.Weighted>
   9.000000E+99

> <Gold.Protein.RotatedTorsions>
[ 6907 6896 6895 6894 ] final -171.80 input  -60.11 | X-H torsion
[ 7974 7965 7964 7962 ] final   59.83 input  175.53 | X-H torsion
[ 8008 7997 7996 7995 ] final  -95.76 input   59.86 | X-H torsion
[ 10167 10162 10161 10158 ] final -155.92 input  -65.29 | X-H torsion
[ 10718 10713 10712 10709 ] final   22.76 input   66.30 | X-H torsion
[ 10763 10752 10751 10750 ] final  150.47 input  -60.55 | X-H torsion
[ 11005 11000 10999 10996 ] final   13.91 input  -57.11 | X-H torsion

> <Gold.Protein.ActiveResidues>
 VAL166  LYS551  ARG553  GLY616  TRP617  ASP618  TYR619  PRO620  LYS621  CYS622 
 ASP623  PHE694  ASN695  SER759  ASP760  ASP761  ALA762  ILE779  LEU786  VAL792 
 PHE793  MET794  SER795  GLU796  ALA797  LYS798  CYS799  TRP800  GLU811  SER814 

> <Gold.Protein.RotatedAtoms>
  151.5296  133.3451  159.2915 H   0  0  0  0  0  0  0  0  0  0  0  0  # atno 6907 bound_to 6896
  150.8601  134.7953  159.7087 H   0  0  0  0  0  0  0  0  0  0  0  0  # atno 6908 bound_to 6896
  152.4623  134.5164  159.9821 H   0  0  0  0  0  0  0  0  0  0  0  0  # atno 6909 bound_to 6896
  145.9028  139.3594  143.0582 H   0  0  0  0  0  0  0  0  0  0  0  0  # atno 7974 bound_to 7965
  154.7655  140.0477  157.1009 H   0  0  0  0  0  0  0  0  0  0  0  0  # atno 8008 bound_to 7997
  154.9885  140.3110  155.4897 H   0  0  0  0  0  0  0  0  0  0  0  0  # atno 8009 bound_to 7997
  156.2912  140.2223  156.4988 H   0  0  0  0  0  0  0  0  0  0  0  0  # atno 8010 bound_to 7997
  139.6892  143.9450  152.2376 H   0  0  0  0  0  0  0  0  0  0  0  0  # atno 10167 bound_to 10162
  157.1568  130.6699  149.6030 H   0  0  0  0  0  0  0  0  0  0  0  0  # atno 10718 bound_to 10713
  154.0879  135.2854  155.3277 H   0  0  0  0  0  0  0  0  0  0  0  0  # atno 10763 bound_to 10752
  154.6640  135.5324  153.8056 H   0  0  0  0  0  0  0  0  0  0  0  0  # atno 10764 bound_to 10752
  153.0424  135.6541  154.1050 H   0  0  0  0  0  0  0  0  0  0  0  0  # atno 10765 bound_to 10752
  140.4755  134.0988  155.7740 H   0  0  0  0  0  0  0  0  0  0  0  0  # atno 11005 bound_to 11000
  145.8770  140.9386  143.0621 LP  0  0  0  0  0  0  0  0  0  0  0  0  # atno 17320 bound_to 7965
  144.6737  140.0729  143.7472 LP  0  0  0  0  0  0  0  0  0  0  0  0  # atno 17321 bound_to 7965
  139.9261  144.6770  150.8411 LP  0  0  0  0  0  0  0  0  0  0  0  0  # atno 17342 bound_to 10162
  140.7677  143.3341  151.2347 LP  0  0  0  0  0  0  0  0  0  0  0  0  # atno 17343 bound_to 10162
  155.9761  130.4725  150.6503 LP  0  0  0  0  0  0  0  0  0  0  0  0  # atno 17370 bound_to 10713
  157.4170  131.0831  151.1167 LP  0  0  0  0  0  0  0  0  0  0  0  0  # atno 17371 bound_to 10713
  141.1556  133.8888  157.1984 LP  0  0  0  0  0  0  0  0  0  0  0  0  # atno 17394 bound_to 11000
  139.9859  135.0082  156.9860 LP  0  0  0  0  0  0  0  0  0  0  0  0  # atno 17395 bound_to 11000

$$$$
