AV-unprocessed.smi:3183|AV-procd|sdf|12154|dock3
  -GOLD-   2272017593D 1   1.00000     0.00000
 Structure written by MMmdl.
 43 44  0  0  0  0  0  0  0  0  2 V2000
  152.2061  143.1838  161.4877 C   0  0  0  0  0  0  0  0  0  0  0  0
  152.8836  143.5061  160.1404 C   0  0  1  0  0  0  0  0  0  0  0  0
  153.0633  142.2402  159.2764 C   0  0  0  0  0  0  0  0  0  0  0  0
  151.7348  141.7464  158.6781 C   0  0  0  0  0  0  0  0  0  0  0  0
  151.0432  142.8542  157.8652 C   0  0  1  0  0  0  0  0  0  0  0  0
  149.7468  142.3737  157.3405 N   0  3  0  0  0  0  0  0  0  0  0  0
  149.7942  141.0402  156.7078 C   0  0  0  0  0  0  0  0  0  0  0  0
  151.0777  140.8627  155.8838 C   0  0  0  0  0  0  0  0  0  0  0  0
  151.2487  139.4939  155.2967 C   0  0  0  0  0  0  0  0  0  0  0  0
  150.6983  138.9219  154.1817 C   0  0  0  0  0  0  0  0  0  0  0  0
  151.2457  137.6100  154.1545 C   0  0  0  0  0  0  0  0  0  0  0  0
  152.0658  137.3834  155.1648 N   0  0  0  0  0  0  0  0  0  0  0  0
  152.0702  138.5356  155.8672 N   0  0  0  0  0  0  0  0  0  0  0  0
  152.8903  138.6116  157.0616 C   0  0  0  0  0  0  0  0  0  0  0  0
  150.8402  144.1163  158.7233 C   0  0  0  0  0  0  0  0  0  0  0  0
  152.1723  144.6146  159.3213 C   0  0  1  0  0  0  0  0  0  0  0  0
  151.9937  145.9274  160.1014 C   0  0  0  0  0  0  0  0  0  0  0  0
  151.1682  142.8763  161.3648 H   0  0  0  0  0  0  0  0  0  0  0  0
  152.2197  144.0438  162.1572 H   0  0  0  0  0  0  0  0  0  0  0  0
  152.7282  142.3763  162.0013 H   0  0  0  0  0  0  0  0  0  0  0  0
  153.8841  143.8686  160.3814 H   0  0  0  0  0  0  0  0  0  0  0  0
  153.7577  142.4581  158.4637 H   0  0  0  0  0  0  0  0  0  0  0  0
  153.5270  141.4451  159.8613 H   0  0  0  0  0  0  0  0  0  0  0  0
  151.9232  140.8813  158.0414 H   0  0  0  0  0  0  0  0  0  0  0  0
  151.0758  141.4006  159.4754 H   0  0  0  0  0  0  0  0  0  0  0  0
  151.6952  143.1163  157.0298 H   0  0  0  0  0  0  0  0  0  0  0  0
  149.0871  142.3428  158.1047 H   0  0  0  0  0  0  0  0  0  0  0  0
  149.7403  140.2764  157.4851 H   0  0  0  0  0  0  0  0  0  0  0  0
  148.9186  140.9197  156.0680 H   0  0  0  0  0  0  0  0  0  0  0  0
  151.0876  141.5972  155.0773 H   0  0  0  0  0  0  0  0  0  0  0  0
  151.9394  141.0872  156.5140 H   0  0  0  0  0  0  0  0  0  0  0  0
  150.0062  139.3700  153.4845 H   0  0  0  0  0  0  0  0  0  0  0  0
  151.0731  136.8218  153.4364 H   0  0  0  0  0  0  0  0  0  0  0  0
  152.8034  139.5891  157.5346 H   0  0  0  0  0  0  0  0  0  0  0  0
  153.9352  138.4409  156.8007 H   0  0  0  0  0  0  0  0  0  0  0  0
  152.5731  137.8492  157.7736 H   0  0  0  0  0  0  0  0  0  0  0  0
  150.3989  144.9037  158.1105 H   0  0  0  0  0  0  0  0  0  0  0  0
  150.1241  143.9153  159.5212 H   0  0  0  0  0  0  0  0  0  0  0  0
  152.8271  144.8496  158.4805 H   0  0  0  0  0  0  0  0  0  0  0  0
  151.2793  145.8199  160.9176 H   0  0  0  0  0  0  0  0  0  0  0  0
  151.6256  146.7203  159.4498 H   0  0  0  0  0  0  0  0  0  0  0  0
  152.9400  146.2648  160.5251 H   0  0  0  0  0  0  0  0  0  0  0  0
  149.4144  143.0403  156.6582 H   0  0  0  0  0  0  0  0  0  0  0  0
  1  2  1  0  0  0  0
  1 18  1  0  0  0  0
  1 19  1  0  0  0  0
  1 20  1  0  0  0  0
  2 16  1  0  0  0  0
  2  3  1  0  0  0  0
  2 21  1  0  0  0  0
  3  4  1  0  0  0  0
  3 22  1  0  0  0  0
  3 23  1  0  0  0  0
  4  5  1  0  0  0  0
  4 24  1  0  0  0  0
  4 25  1  0  0  0  0
  5  6  1  0  0  0  0
  5 15  1  0  0  0  0
  5 26  1  0  0  0  0
  6  7  1  0  0  0  0
  6 27  1  0  0  0  0
  6 43  1  0  0  0  0
  7  8  1  0  0  0  0
  7 28  1  0  0  0  0
  7 29  1  0  0  0  0
  8  9  1  0  0  0  0
  8 30  1  0  0  0  0
  8 31  1  0  0  0  0
  9 13  1  0  0  0  0
  9 10  2  0  0  0  0
 10 11  1  0  0  0  0
 10 32  1  0  0  0  0
 11 12  2  0  0  0  0
 11 33  1  0  0  0  0
 12 13  1  0  0  0  0
 13 14  1  0  0  0  0
 14 34  1  0  0  0  0
 14 35  1  0  0  0  0
 14 36  1  0  0  0  0
 15 16  1  0  0  0  0
 15 37  1  0  0  0  0
 15 38  1  0  0  0  0
 16 17  1  0  0  0  0
 16 39  1  0  0  0  0
 17 40  1  0  0  0  0
 17 41  1  0  0  0  0
 17 42  1  0  0  0  0
M  CHG  1   6   1
M  END
> <s_m_source_file>
AV-unprocessed.smi

> <i_m_source_file_index>
3183

> <i_lp_mmshare_version>
43012

> <i_f3d_flags>
0

> <s_epik_input>
W0NIM11bQ0BASF0xW0NIMl1bQ0gyXVtDQEhdKFtDSDJdW0NASF0xW0NIM10pW05IXVtDSDJdW0NIMl1jMltjSF1bY0hdbm4yW0NIM10=

> <s_epik_cmdline>
J2VwaWtfcHl0aG9uJywgJy1waCcsICc3LjAnLCAnLXRuJywgJzgnLCAnLW1hJywgJzIwMCcsICctbWV0YWxfYmluZGluZycsICctaW1hZScsICc8aW5maWxlLm1hZT4nLCAnLW9tYWUnLCAnPG91dGZpbGUubWFlPic=

> <r_lp_tautomer_probability>
1

> <r_epik_Ionization_Penalty>
0.000327718

> <r_epik_Ionization_Penalty_Charging>
0.000294043

> <r_epik_Ionization_Penalty_Neutral>
3.36755e-05

> <r_epik_State_Penalty>
-0

> <r_epik_Charging_Adjusted_Penalty>
0.000294043

> <i_epik_Tot_Q>
1

> <i_epik_Tot_abs_Q>
1

> <r_epik_Metal_State_Penalty>
-0

> <b_epik_Metal_Only>
0

> <s_lp_Force_Field>
OPLS_2005

> <r_lp_Energy>
15.8905

> <b_lp_Chiralities_Consistent>
1

> <s_lp_Variant>
AV-unprocessed.smi:3183-2

> <Gold.Version>
5.8.1

> <Gold.Id.Protein>
6NUR|6NUR_protein|mol2

> <Gold.PLP.Fitness>
53.7099

> <Gold.PLP.PLP>
-43.1651

> <Gold.PLP.part.hbond>
-2.0000

> <Gold.PLP.part.metal>
0.0000

> <Gold.PLP.part.buried>
-1.8238

> <Gold.PLP.part.nonpolar>
-38.7861

> <Gold.PLP.part.repulsive>
0.0918

> <Gold.PLP.ligand.clash>
0.0000

> <Gold.PLP.ligand.torsion>
0.4545

> <Gold.PLP.Chemscore.Hbond>
2.8130

> <Gold.PLP.Chemscore.CHOScore>
1.0000

> <Gold.PLP.Chemscore.Metal>
0.0000

> <Gold.Chemscore.Hbonds>
donor molecule, donor type, donor heavy atom, donor atom, acceptor molecule, acceptor atom, score
      L1  H     6    43       P1  8028  2.00
      P1  H 10752 10764       L1    12  0.77
      L1  C    11    33       P1  7949  1.00

> <Gold.PLP.Chemscore.Internal.Correction>
0.0147

> <Gold.Rescore>
     Score         DG    S(hbond)    S(metal)    S(lipo)     H(rot)  DE(clash)    DE(int)     intcor
     21.64     -22.69       1.58        0.00     132.05       1.38       0.67       0.37       ----

> <Gold.Chemscore.Fitness>
21.6427

> <Gold.Chemscore.DG>
-22.6855

> <Gold.Chemscore.ZeroCoef>
-5.4800

> <Gold.Chemscore.Hbond>
1.5811

> <Gold.Chemscore.Metal>
0.0000

> <Gold.Chemscore.Lipo>
132.0464

> <Gold.Chemscore.Internal_Hbond>
0.0000

> <Gold.Chemscore.DEClash>
0.6698

> <Gold.Chemscore.DEInternal>
0.3731

> <Gold.Chemscore.Rot>
1.3768

> <Gold.Chemscore.Internal.Correction>
   9.000000E+99

> <Gold.Chemscore.Hbonds>
donor molecule, donor type, donor heavy atom, donor atom, acceptor molecule, acceptor atom, score
      L1  H     6    43       P1  8028  0.94
      P1  H 10752 10764       L1    12  0.26

> <Gold.Chemscore.Hbond.Weighted>
-5.2808

> <Gold.Chemscore.Metal.Weighted>
-0.0000

> <Gold.Chemscore.Lipo.Weighted>
-15.4494

> <Gold.Chemscore.Internal_Hbond.Weighted>
0.0000

> <Gold.Chemscore.DEClash.Weighted>
0.6698

> <Gold.Chemscore.DEInternal.Weighted>
0.3731

> <Gold.Chemscore.Rot.Weighted>
3.5247

> <Gold.Chemscore.Internal.Correction.Weighted>
   9.000000E+99

> <Gold.Protein.RotatedTorsions>
[ 6907 6896 6895 6894 ] final   45.00 input  -60.11 | X-H torsion
[ 7974 7965 7964 7962 ] final  175.38 input  175.53 | X-H torsion
[ 8008 7997 7996 7995 ] final  168.06 input   59.86 | X-H torsion
[ 10167 10162 10161 10158 ] final -162.93 input  -65.29 | X-H torsion
[ 10718 10713 10712 10709 ] final   73.72 input   66.30 | X-H torsion
[ 10763 10752 10751 10750 ] final  -59.07 input  -60.55 | X-H torsion
[ 11005 11000 10999 10996 ] final  -11.11 input  -57.11 | X-H torsion

> <Gold.Protein.ActiveResidues>
 VAL166  LYS551  ARG553  GLY616  TRP617  ASP618  TYR619  PRO620  LYS621  CYS622 
 ASP623  PHE694  ASN695  SER759  ASP760  ASP761  ALA762  ILE779  LEU786  VAL792 
 PHE793  MET794  SER795  GLU796  ALA797  LYS798  CYS799  TRP800  GLU811  SER814 

> <Gold.Protein.RotatedAtoms>
  152.2393  134.8244  160.0462 H   0  0  0  0  0  0  0  0  0  0  0  0  # atno 6907 bound_to 6896
  151.8965  133.3523  159.3824 H   0  0  0  0  0  0  0  0  0  0  0  0  # atno 6908 bound_to 6896
  150.7049  134.4797  159.5509 H   0  0  0  0  0  0  0  0  0  0  0  0  # atno 6909 bound_to 6896
  144.7203  139.9938  143.6440 H   0  0  0  0  0  0  0  0  0  0  0  0  # atno 7974 bound_to 7965
  156.1580  140.1600  156.8660 H   0  0  0  0  0  0  0  0  0  0  0  0  # atno 8008 bound_to 7997
  154.5133  140.0795  156.8069 H   0  0  0  0  0  0  0  0  0  0  0  0  # atno 8009 bound_to 7997
  155.3764  140.3403  155.4247 H   0  0  0  0  0  0  0  0  0  0  0  0  # atno 8010 bound_to 7997
  139.6357  144.0355  152.2052 H   0  0  0  0  0  0  0  0  0  0  0  0  # atno 10167 bound_to 10162
  157.6560  130.9643  150.1110 H   0  0  0  0  0  0  0  0  0  0  0  0  # atno 10718 bound_to 10713
  154.2480  135.6331  153.5230 H   0  0  0  0  0  0  0  0  0  0  0  0  # atno 10763 bound_to 10752
  152.9917  135.5558  154.5838 H   0  0  0  0  0  0  0  0  0  0  0  0  # atno 10764 bound_to 10752
  154.5359  135.2891  155.1113 H   0  0  0  0  0  0  0  0  0  0  0  0  # atno 10765 bound_to 10752
  140.7518  133.8586  155.9051 H   0  0  0  0  0  0  0  0  0  0  0  0  # atno 11005 bound_to 11000
  146.0390  139.3404  143.0709 LP  0  0  0  0  0  0  0  0  0  0  0  0  # atno 17320 bound_to 7965
  145.8358  140.9607  143.0825 LP  0  0  0  0  0  0  0  0  0  0  0  0  # atno 17321 bound_to 7965
  140.0032  144.6278  150.7712 LP  0  0  0  0  0  0  0  0  0  0  0  0  # atno 17342 bound_to 10162
  140.7464  143.2890  151.3384 LP  0  0  0  0  0  0  0  0  0  0  0  0  # atno 17343 bound_to 10162
  156.2006  130.3660  149.8792 LP  0  0  0  0  0  0  0  0  0  0  0  0  # atno 17370 bound_to 10713
  156.6697  130.8815  151.3560 LP  0  0  0  0  0  0  0  0  0  0  0  0  # atno 17371 bound_to 10713
  140.9743  134.1489  157.4549 LP  0  0  0  0  0  0  0  0  0  0  0  0  # atno 17394 bound_to 11000
  139.8786  134.9989  156.5926 LP  0  0  0  0  0  0  0  0  0  0  0  0  # atno 17395 bound_to 11000

$$$$
