AV-unprocessed.smi:213|AV-procd|sdf|1646|dock3
  -GOLD-   2262020 23D 1   1.00000     0.00000
 Structure written by MMmdl.
 58 61  0  0  0  0  0  0  0  0  1 V2000
  149.5391  141.3104  158.1136 C   0  0  0  0  0  0  0  0  0  0  0  0
  151.0249  141.2708  157.7017 C   0  0  1  0  0  0  0  0  0  0  0  0
  151.9796  141.5266  158.8936 C   0  0  0  0  0  0  0  0  0  0  0  0
  151.5145  142.4940  159.8891 N   0  0  0  0  0  0  0  0  0  0  0  0
  151.6097  143.8553  159.3729 C   0  0  0  0  0  0  0  0  0  0  0  0
  151.1038  144.8941  160.3872 C   0  0  0  0  0  0  0  0  0  0  0  0
  151.8375  144.7668  161.5999 O   0  0  0  0  0  0  0  0  0  0  0  0
  151.7307  143.4657  162.1676 C   0  0  0  0  0  0  0  0  0  0  0  0
  152.2266  142.4127  161.1606 C   0  0  0  0  0  0  0  0  0  0  0  0
  151.3265  139.9895  157.0565 N   0  0  0  0  0  0  0  0  0  0  0  0
  151.5016  139.9044  155.6076 C   0  0  0  0  0  0  0  0  0  0  0  0
  151.2521  138.8213  157.7505 C   0  0  0  0  0  0  0  0  0  0  0  0
  152.4091  138.1375  157.9586 N   0  0  0  0  0  0  0  0  0  0  0  0
  152.4089  136.9882  158.6392 C   0  0  0  0  0  0  0  0  0  0  0  0
  151.3786  136.3455  159.1893 N   0  0  0  0  0  0  0  0  0  0  0  0
  150.2106  137.0147  158.9762 C   0  0  0  0  0  0  0  0  0  0  0  0
  150.0545  138.2460  158.2751 C   0  0  0  0  0  0  0  0  0  0  0  0
  148.7082  138.5965  158.2559 N   0  0  0  0  0  0  0  0  0  0  0  0
  148.1102  137.6426  158.9139 C   0  0  0  0  0  0  0  0  0  0  0  0
  148.9390  136.6502  159.3811 N   0  0  0  0  0  0  0  0  0  0  0  0
  148.5500  135.4722  160.1362 C   0  0  0  0  0  0  0  0  0  0  0  0
  147.1030  135.5589  160.6604 C   0  0  2  0  0  0  0  0  0  0  0  0
  147.0140  136.6033  161.6116 O   0  0  0  0  0  0  0  0  0  0  0  0
  146.6420  134.2458  161.3199 C   0  0  1  0  0  0  0  0  0  0  0  0
  145.1465  134.1810  161.6249 C   0  0  0  0  0  0  0  0  0  0  0  0
  144.9204  132.6905  161.7641 C   0  0  0  0  0  0  0  0  0  0  0  0
  145.9300  132.0942  160.7814 C   0  0  0  0  0  0  0  0  0  0  0  0
  146.8231  133.1492  160.4328 O   0  0  0  0  0  0  0  0  0  0  0  0
  149.2507  142.2773  158.5214 H   0  0  0  0  0  0  0  0  0  0  0  0
  149.3067  140.5625  158.8718 H   0  0  0  0  0  0  0  0  0  0  0  0
  148.8944  141.1205  157.2548 H   0  0  0  0  0  0  0  0  0  0  0  0
  151.1555  142.0624  156.9645 H   0  0  0  0  0  0  0  0  0  0  0  0
  152.2368  140.5828  159.3765 H   0  0  0  0  0  0  0  0  0  0  0  0
  152.9199  141.9054  158.4894 H   0  0  0  0  0  0  0  0  0  0  0  0
  152.6452  144.0807  159.1136 H   0  0  0  0  0  0  0  0  0  0  0  0
  151.0321  143.9438  158.4521 H   0  0  0  0  0  0  0  0  0  0  0  0
  151.2345  145.9027  159.9954 H   0  0  0  0  0  0  0  0  0  0  0  0
  150.0382  144.7594  160.5800 H   0  0  0  0  0  0  0  0  0  0  0  0
  152.3241  143.4255  163.0810 H   0  0  0  0  0  0  0  0  0  0  0  0
  150.6951  143.2701  162.4496 H   0  0  0  0  0  0  0  0  0  0  0  0
  152.0847  141.4295  161.6059 H   0  0  0  0  0  0  0  0  0  0  0  0
  153.2975  142.5399  160.9958 H   0  0  0  0  0  0  0  0  0  0  0  0
  150.9621  139.0507  155.1954 H   0  0  0  0  0  0  0  0  0  0  0  0
  152.5582  139.7976  155.3608 H   0  0  0  0  0  0  0  0  0  0  0  0
  151.1256  140.7985  155.1106 H   0  0  0  0  0  0  0  0  0  0  0  0
  153.3730  136.5169  158.7606 H   0  0  0  0  0  0  0  0  0  0  0  0
  147.0415  137.6348  159.0711 H   0  0  0  0  0  0  0  0  0  0  0  0
  148.6670  134.6030  159.4881 H   0  0  0  0  0  0  0  0  0  0  0  0
  149.2495  135.3399  160.9627 H   0  0  0  0  0  0  0  0  0  0  0  0
  146.4340  135.8000  159.8332 H   0  0  0  0  0  0  0  0  0  0  0  0
  146.7456  136.2337  162.4387 H   0  0  0  0  0  0  0  0  0  0  0  0
  147.2124  134.0520  162.2305 H   0  0  0  0  0  0  0  0  0  0  0  0
  144.8675  134.7383  162.5197 H   0  0  0  0  0  0  0  0  0  0  0  0
  144.5676  134.5695  160.7856 H   0  0  0  0  0  0  0  0  0  0  0  0
  145.1576  132.3722  162.7802 H   0  0  0  0  0  0  0  0  0  0  0  0
  143.8929  132.3962  161.5485 H   0  0  0  0  0  0  0  0  0  0  0  0
  146.4750  131.2635  161.2307 H   0  0  0  0  0  0  0  0  0  0  0  0
  145.4399  131.7292  159.8784 H   0  0  0  0  0  0  0  0  0  0  0  0
  1  2  1  0  0  0  0
  1 29  1  0  0  0  0
  1 30  1  0  0  0  0
  1 31  1  0  0  0  0
  2  3  1  0  0  0  0
  2 10  1  0  0  0  0
  2 32  1  0  0  0  0
  3  4  1  0  0  0  0
  3 33  1  0  0  0  0
  3 34  1  0  0  0  0
  4  9  1  0  0  0  0
  4  5  1  0  0  0  0
  5  6  1  0  0  0  0
  5 35  1  0  0  0  0
  5 36  1  0  0  0  0
  6  7  1  0  0  0  0
  6 37  1  0  0  0  0
  6 38  1  0  0  0  0
  7  8  1  0  0  0  0
  8  9  1  0  0  0  0
  8 39  1  0  0  0  0
  8 40  1  0  0  0  0
  9 41  1  0  0  0  0
  9 42  1  0  0  0  0
 10 11  1  0  0  0  0
 10 12  1  0  0  0  0
 11 43  1  0  0  0  0
 11 44  1  0  0  0  0
 11 45  1  0  0  0  0
 12 17  1  0  0  0  0
 12 13  2  0  0  0  0
 13 14  1  0  0  0  0
 14 15  2  0  0  0  0
 14 46  1  0  0  0  0
 15 16  1  0  0  0  0
 16 20  1  0  0  0  0
 16 17  2  0  0  0  0
 17 18  1  0  0  0  0
 18 19  2  0  0  0  0
 19 20  1  0  0  0  0
 19 47  1  0  0  0  0
 20 21  1  0  0  0  0
 21 22  1  0  0  0  0
 21 48  1  0  0  0  0
 21 49  1  0  0  0  0
 22 23  1  0  0  0  0
 22 24  1  0  0  0  0
 22 50  1  0  0  0  0
 23 51  1  0  0  0  0
 24 28  1  0  0  0  0
 24 25  1  0  0  0  0
 24 52  1  0  0  0  0
 25 26  1  0  0  0  0
 25 53  1  0  0  0  0
 25 54  1  0  0  0  0
 26 27  1  0  0  0  0
 26 55  1  0  0  0  0
 26 56  1  0  0  0  0
 27 28  1  0  0  0  0
 27 57  1  0  0  0  0
 27 58  1  0  0  0  0
M  END
> <s_m_source_file>
AV-unprocessed.smi

> <i_m_source_file_index>
213

> <i_lp_mmshare_version>
43012

> <i_f3d_flags>
0

> <s_epik_input>
W0NIMl0xW0NIMl1PW0NIMl1bQ0gyXU4xW0NIMl1bQ0BASF0oW0NIM10pTihbQ0gzXSljKG5bY0hdbjIpYyhjMjMpbltjSF1uM1tDSDJdW0NASF0oW09IXSlbQ0BASF00W0NIMl1bQ0gyXVtDSDJdTzQ=

> <s_epik_cmdline>
J2VwaWtfcHl0aG9uJywgJy1waCcsICc3LjAnLCAnLXRuJywgJzgnLCAnLW1hJywgJzIwMCcsICctbWV0YWxfYmluZGluZycsICctaW1hZScsICc8aW5maWxlLm1hZT4nLCAnLW9tYWUnLCAnPG91dGZpbGUubWFlPic=

> <r_lp_tautomer_probability>
1

> <r_epik_Ionization_Penalty>
0.423322

> <r_epik_Ionization_Penalty_Charging>
0

> <r_epik_Ionization_Penalty_Neutral>
0.423322

> <r_epik_State_Penalty>
0.569486

> <r_epik_Charging_Adjusted_Penalty>
0.569486

> <i_epik_Tot_Q>
0

> <i_epik_Tot_abs_Q>
0

> <r_epik_Metal_State_Penalty>
0.568671

> <b_epik_Metal_Only>
0

> <s_lp_Force_Field>
OPLS_2005

> <r_lp_Energy>
53.3549

> <b_lp_Chiralities_Consistent>
1

> <s_lp_Variant>
AV-unprocessed.smi:213-14

> <Gold.Version>
5.8.1

> <Gold.Id.Protein>
6NUR|6NUR_protein|mol2

> <Gold.PLP.Fitness>
52.2087

> <Gold.PLP.PLP>
-48.1056

> <Gold.PLP.part.hbond>
-3.0000

> <Gold.PLP.part.metal>
0.0000

> <Gold.PLP.part.buried>
-4.4402

> <Gold.PLP.part.nonpolar>
-40.4792

> <Gold.PLP.part.repulsive>
0.1696

> <Gold.PLP.ligand.clash>
0.0000

> <Gold.PLP.ligand.torsion>
2.0616

> <Gold.PLP.Chemscore.Hbond>
2.5846

> <Gold.PLP.Chemscore.CHOScore>
0.0000

> <Gold.PLP.Chemscore.Metal>
0.0000

> <Gold.Chemscore.Hbonds>
donor molecule, donor type, donor heavy atom, donor atom, acceptor molecule, acceptor atom, score
      P1  H  6896  6907       L1    15  0.64

> <Gold.PLP.Chemscore.Internal.Correction>
0.4727

> <Gold.Rescore>
     Score         DG    S(hbond)    S(metal)    S(lipo)     H(rot)  DE(clash)    DE(int)     intcor
     13.03     -17.61       1.84        0.00     110.92       2.74       0.80       3.78       ----

> <Gold.Chemscore.Fitness>
13.0263

> <Gold.Chemscore.DG>
-17.6089

> <Gold.Chemscore.ZeroCoef>
-5.4800

> <Gold.Chemscore.Hbond>
1.8444

> <Gold.Chemscore.Metal>
0.0000

> <Gold.Chemscore.Lipo>
110.9160

> <Gold.Chemscore.Internal_Hbond>
0.0000

> <Gold.Chemscore.DEClash>
0.7990

> <Gold.Chemscore.DEInternal>
3.7836

> <Gold.Chemscore.Rot>
2.7378

> <Gold.Chemscore.Internal.Correction>
   9.000000E+99

> <Gold.Chemscore.Hbonds>
donor molecule, donor type, donor heavy atom, donor atom, acceptor molecule, acceptor atom, score
      P1  H  6896  6907       L1    15  0.53
      P1  H  6934  6947       L1    23  0.01

> <Gold.Chemscore.Hbond.Weighted>
-6.1604

> <Gold.Chemscore.Metal.Weighted>
-0.0000

> <Gold.Chemscore.Lipo.Weighted>
-12.9772

> <Gold.Chemscore.Internal_Hbond.Weighted>
0.0000

> <Gold.Chemscore.DEClash.Weighted>
0.7990

> <Gold.Chemscore.DEInternal.Weighted>
3.7836

> <Gold.Chemscore.Rot.Weighted>
7.0087

> <Gold.Chemscore.Internal.Correction.Weighted>
   9.000000E+99

> <Gold.Protein.RotatedTorsions>
[ 6907 6896 6895 6894 ] final  -23.99 input  -60.11 | X-H torsion
[ 7974 7965 7964 7962 ] final  -14.37 input  175.53 | X-H torsion
[ 8008 7997 7996 7995 ] final   50.61 input   59.86 | X-H torsion
[ 10167 10162 10161 10158 ] final  176.36 input  -65.29 | X-H torsion
[ 10718 10713 10712 10709 ] final  -43.96 input   66.30 | X-H torsion
[ 10763 10752 10751 10750 ] final  105.79 input  -60.55 | X-H torsion
[ 11005 11000 10999 10996 ] final  -43.37 input  -57.11 | X-H torsion

> <Gold.Protein.ActiveResidues>
 VAL166  LYS551  ARG553  GLY616  TRP617  ASP618  TYR619  PRO620  LYS621  CYS622 
 ASP623  PHE694  ASN695  SER759  ASP760  ASP761  ALA762  ILE779  LEU786  VAL792 
 PHE793  MET794  SER795  GLU796  ALA797  LYS798  CYS799  TRP800  GLU811  SER814 

> <Gold.Protein.RotatedAtoms>
  151.1959  135.0422  159.8851 H   0  0  0  0  0  0  0  0  0  0  0  0  # atno 6907 bound_to 6896
  152.5436  134.0904  159.8284 H   0  0  0  0  0  0  0  0  0  0  0  0  # atno 6908 bound_to 6896
  151.1038  133.5176  159.2641 H   0  0  0  0  0  0  0  0  0  0  0  0  # atno 6909 bound_to 6896
  146.2077  140.3338  142.8401 H   0  0  0  0  0  0  0  0  0  0  0  0  # atno 7974 bound_to 7965
  155.4216  140.3446  155.4272 H   0  0  0  0  0  0  0  0  0  0  0  0  # atno 8008 bound_to 7997
  156.1390  140.1536  156.8982 H   0  0  0  0  0  0  0  0  0  0  0  0  # atno 8009 bound_to 7997
  154.4955  140.0829  156.7668 H   0  0  0  0  0  0  0  0  0  0  0  0  # atno 8010 bound_to 7997
  139.5211  144.2925  152.0451 H   0  0  0  0  0  0  0  0  0  0  0  0  # atno 10167 bound_to 10162
  156.2436  130.4182  149.8732 H   0  0  0  0  0  0  0  0  0  0  0  0  # atno 10718 bound_to 10713
  153.3841  135.3898  155.1877 H   0  0  0  0  0  0  0  0  0  0  0  0  # atno 10763 bound_to 10752
  154.8711  135.3732  154.4820 H   0  0  0  0  0  0  0  0  0  0  0  0  # atno 10764 bound_to 10752
  153.5300  135.7086  153.5749 H   0  0  0  0  0  0  0  0  0  0  0  0  # atno 10765 bound_to 10752
  141.0379  133.6792  156.2723 H   0  0  0  0  0  0  0  0  0  0  0  0  # atno 11005 bound_to 11000
  144.8833  140.7429  143.5972 LP  0  0  0  0  0  0  0  0  0  0  0  0  # atno 17320 bound_to 7965
  145.3259  139.1774  143.4563 LP  0  0  0  0  0  0  0  0  0  0  0  0  # atno 17321 bound_to 7965
  140.2375  144.4304  150.6274 LP  0  0  0  0  0  0  0  0  0  0  0  0  # atno 17342 bound_to 10162
  140.6313  143.2188  151.6489 LP  0  0  0  0  0  0  0  0  0  0  0  0  # atno 17343 bound_to 10162
  156.6305  130.8663  151.3494 LP  0  0  0  0  0  0  0  0  0  0  0  0  # atno 17370 bound_to 10713
  157.7185  130.9528  150.1348 LP  0  0  0  0  0  0  0  0  0  0  0  0  # atno 17371 bound_to 10713
  140.6289  134.5285  157.5557 LP  0  0  0  0  0  0  0  0  0  0  0  0  # atno 17394 bound_to 11000
  139.9254  134.8066  156.1085 LP  0  0  0  0  0  0  0  0  0  0  0  0  # atno 17395 bound_to 11000

$$$$
