AV-unprocessed.smi:1682|AV-procd|sdf|6745|dock2
  -GOLD-   22720 7503D 1   1.00000     0.00000
 Structure written by MMmdl.
 39 40  0  0  0  0  0  0  0  0  2 V2000
  152.9823  139.1097  155.2636 O   0  0  0  0  0  0  0  0  0  0  0  0
  151.7524  139.1029  155.2248 C   0  0  0  0  0  0  0  0  0  0  0  0
  150.9990  140.0616  155.7868 N   0  0  0  0  0  0  0  0  0  0  0  0
  151.5362  141.2265  156.4753 C   0  0  0  0  0  0  0  0  0  0  0  0
  150.4215  141.9965  157.1965 C   0  0  0  0  0  0  0  0  0  0  0  0
  150.9727  143.0411  158.1480 C   0  0  0  0  0  0  0  0  0  0  0  0
  151.8435  142.7068  159.2082 C   0  0  0  0  0  0  0  0  0  0  0  0
  152.3098  143.7261  160.0645 C   0  0  0  0  0  0  0  0  0  0  0  0
  151.8968  145.0563  159.8432 C   0  0  0  0  0  0  0  0  0  0  0  0
  151.0267  145.3340  158.7693 C   0  0  0  0  0  0  0  0  0  0  0  0
  150.6016  144.3299  157.9710 N   0  3  0  0  0  0  0  0  0  0  0  0
  151.0172  137.9629  154.5007 C   0  0  2  0  0  0  0  0  0  0  0  0
  149.5414  138.3055  154.2201 C   0  0  0  0  0  0  0  0  0  0  0  0
  148.7731  137.3190  155.0843 C   0  0  0  0  0  0  0  0  0  0  0  0
  147.5530  137.3719  155.2279 O   0  0  0  0  0  0  0  0  0  0  0  0
  149.5972  136.4335  155.6562 N   0  0  0  0  0  0  0  0  0  0  0  0
  149.2141  135.3565  156.5681 C   0  0  0  0  0  0  0  0  0  0  0  0
  149.6429  133.9692  156.0560 C   0  0  0  0  0  0  0  0  0  0  0  0
  149.3924  133.8936  154.7498 F   0  0  0  0  0  0  0  0  0  0  0  0
  150.9454  133.7627  156.2479 F   0  0  0  0  0  0  0  0  0  0  0  0
  148.9514  133.0132  156.6767 F   0  0  0  0  0  0  0  0  0  0  0  0
  150.9921  136.6431  155.3005 C   0  0  0  0  0  0  0  0  0  0  0  0
  149.9945  139.9866  155.7136 H   0  0  0  0  0  0  0  0  0  0  0  0
  152.2968  140.9051  157.1888 H   0  0  0  0  0  0  0  0  0  0  0  0
  152.0278  141.8767  155.7497 H   0  0  0  0  0  0  0  0  0  0  0  0
  149.7741  142.4857  156.4669 H   0  0  0  0  0  0  0  0  0  0  0  0
  149.7885  141.3061  157.7558 H   0  0  0  0  0  0  0  0  0  0  0  0
  152.1493  141.6827  159.3678 H   0  0  0  0  0  0  0  0  0  0  0  0
  152.9750  143.4903  160.8824 H   0  0  0  0  0  0  0  0  0  0  0  0
  152.2414  145.8513  160.4882 H   0  0  0  0  0  0  0  0  0  0  0  0
  150.6594  146.3206  158.5273 H   0  0  0  0  0  0  0  0  0  0  0  0
  151.5294  137.7910  153.5524 H   0  0  0  0  0  0  0  0  0  0  0  0
  149.2707  139.3318  154.4735 H   0  0  0  0  0  0  0  0  0  0  0  0
  149.2912  138.1404  153.1717 H   0  0  0  0  0  0  0  0  0  0  0  0
  149.6646  135.5394  157.5444 H   0  0  0  0  0  0  0  0  0  0  0  0
  148.1344  135.3791  156.7251 H   0  0  0  0  0  0  0  0  0  0  0  0
  151.3366  135.8118  154.6838 H   0  0  0  0  0  0  0  0  0  0  0  0
  151.6199  136.6720  156.1928 H   0  0  0  0  0  0  0  0  0  0  0  0
  149.9700  144.5543  157.2018 H   0  0  0  0  0  0  0  0  0  0  0  0
  1  2  2  0  0  0  0
  2  3  1  0  0  0  0
  2 12  1  0  0  0  0
  3  4  1  0  0  0  0
  3 23  1  0  0  0  0
  4  5  1  0  0  0  0
  4 24  1  0  0  0  0
  4 25  1  0  0  0  0
  5  6  1  0  0  0  0
  5 26  1  0  0  0  0
  5 27  1  0  0  0  0
  6 11  1  0  0  0  0
  6  7  2  0  0  0  0
  7  8  1  0  0  0  0
  7 28  1  0  0  0  0
  8  9  2  0  0  0  0
  8 29  1  0  0  0  0
  9 10  1  0  0  0  0
  9 30  1  0  0  0  0
 10 11  2  0  0  0  0
 10 31  1  0  0  0  0
 11 39  1  0  0  0  0
 12 22  1  0  0  0  0
 12 13  1  0  0  0  0
 12 32  1  0  0  0  0
 13 14  1  0  0  0  0
 13 33  1  0  0  0  0
 13 34  1  0  0  0  0
 14 15  2  0  0  0  0
 14 16  1  0  0  0  0
 16 17  1  0  0  0  0
 16 22  1  0  0  0  0
 17 18  1  0  0  0  0
 17 35  1  0  0  0  0
 17 36  1  0  0  0  0
 18 19  1  0  0  0  0
 18 20  1  0  0  0  0
 18 21  1  0  0  0  0
 22 37  1  0  0  0  0
 22 38  1  0  0  0  0
M  CHG  1  11   1
M  END
> <s_m_source_file>
AV-unprocessed.smi

> <i_m_source_file_index>
1682

> <i_lp_mmshare_version>
43012

> <i_f3d_flags>
0

> <s_epik_input>
RkMoRikoRilbQ0gyXU4oW0NIMl0xKUMoPU8pW0NIMl1bQ0BIXTFDKD1PKVtOSF1bQ0gyXVtDSDJdYzJbY0hdW2NIXVtjSF1bY0hdbjI=

> <s_epik_cmdline>
J2VwaWtfcHl0aG9uJywgJy1waCcsICc3LjAnLCAnLXRuJywgJzgnLCAnLW1hJywgJzIwMCcsICctbWV0YWxfYmluZGluZycsICctaW1hZScsICc8aW5maWxlLm1hZT4nLCAnLW9tYWUnLCAnPG91dGZpbGUubWFlPic=

> <r_epik_Ionization_Penalty>
1.88249

> <r_epik_Ionization_Penalty_Charging>
1.88249

> <r_epik_Ionization_Penalty_Neutral>
2.8664e-08

> <r_epik_State_Penalty>
2.00238

> <r_epik_Charging_Adjusted_Penalty>
3.88487

> <i_epik_Tot_Q>
1

> <i_epik_Tot_abs_Q>
1

> <r_epik_Metal_State_Penalty>
2.02677

> <b_epik_Metal_Only>
0

> <s_lp_Force_Field>
OPLS_2005

> <r_lp_Energy>
22.1056

> <b_lp_Chiralities_Consistent>
1

> <s_lp_Variant>
AV-unprocessed.smi:1682-3

> <Gold.Version>
5.8.1

> <Gold.Id.Protein>
6NUR|6NUR_protein|mol2

> <Gold.PLP.Fitness>
48.3600

> <Gold.PLP.PLP>
-40.4361

> <Gold.PLP.part.hbond>
-2.3818

> <Gold.PLP.part.metal>
0.0000

> <Gold.PLP.part.buried>
-5.7062

> <Gold.PLP.part.nonpolar>
-32.8831

> <Gold.PLP.part.repulsive>
0.2555

> <Gold.PLP.ligand.clash>
0.0000

> <Gold.PLP.ligand.torsion>
0.7049

> <Gold.PLP.Chemscore.Hbond>
3.0000

> <Gold.PLP.Chemscore.CHOScore>
0.0000

> <Gold.PLP.Chemscore.Metal>
0.0000

> <Gold.Chemscore.Hbonds>
donor molecule, donor type, donor heavy atom, donor atom, acceptor molecule, acceptor atom, score
      L1  H    11    39       P1  8028  2.00
      P1  H  7997  8010       L1     1  1.00

> <Gold.PLP.Chemscore.Internal.Correction>
0.3337

> <Gold.Rescore>
     Score         DG    S(hbond)    S(metal)    S(lipo)     H(rot)  DE(clash)    DE(int)     intcor
     15.98     -17.15       1.84        0.00      95.21       2.19       0.36       0.80       ----

> <Gold.Chemscore.Fitness>
15.9827

> <Gold.Chemscore.DG>
-17.1473

> <Gold.Chemscore.ZeroCoef>
-5.4800

> <Gold.Chemscore.Hbond>
1.8390

> <Gold.Chemscore.Metal>
0.0000

> <Gold.Chemscore.Lipo>
95.2109

> <Gold.Chemscore.Internal_Hbond>
0.0000

> <Gold.Chemscore.DEClash>
0.3614

> <Gold.Chemscore.DEInternal>
0.8032

> <Gold.Chemscore.Rot>
2.1932

> <Gold.Chemscore.Internal.Correction>
   9.000000E+99

> <Gold.Chemscore.Hbonds>
donor molecule, donor type, donor heavy atom, donor atom, acceptor molecule, acceptor atom, score
      L1  H    11    39       P1  8028  0.35
      P1  H  7997  8010       L1     1  1.00

> <Gold.Chemscore.Hbond.Weighted>
-6.1421

> <Gold.Chemscore.Metal.Weighted>
-0.0000

> <Gold.Chemscore.Lipo.Weighted>
-11.1397

> <Gold.Chemscore.Internal_Hbond.Weighted>
0.0000

> <Gold.Chemscore.DEClash.Weighted>
0.3614

> <Gold.Chemscore.DEInternal.Weighted>
0.8032

> <Gold.Chemscore.Rot.Weighted>
5.6145

> <Gold.Chemscore.Internal.Correction.Weighted>
   9.000000E+99

> <Gold.Protein.RotatedTorsions>
[ 6907 6896 6895 6894 ] final   76.32 input  -60.11 | X-H torsion
[ 7974 7965 7964 7962 ] final -141.11 input  175.53 | X-H torsion
[ 8008 7997 7996 7995 ] final   99.32 input   59.86 | X-H torsion
[ 10167 10162 10161 10158 ] final   99.06 input  -65.29 | X-H torsion
[ 10718 10713 10712 10709 ] final   57.35 input   66.30 | X-H torsion
[ 10763 10752 10751 10750 ] final  -29.61 input  -60.55 | X-H torsion
[ 11005 11000 10999 10996 ] final   -1.86 input  -57.11 | X-H torsion

> <Gold.Protein.ActiveResidues>
 VAL166  LYS551  ARG553  GLY616  TRP617  ASP618  TYR619  PRO620  LYS621  CYS622 
 ASP623  PHE694  ASN695  SER759  ASP760  ASP761  ALA762  ILE779  LEU786  VAL792 
 PHE793  MET794  SER795  GLU796  ALA797  LYS798  CYS799  TRP800  GLU811  SER814 

> <Gold.Protein.RotatedAtoms>
  152.5067  134.3987  159.9408 H   0  0  0  0  0  0  0  0  0  0  0  0  # atno 6907 bound_to 6896
  151.3950  133.3770  159.2733 H   0  0  0  0  0  0  0  0  0  0  0  0  # atno 6908 bound_to 6896
  150.9404  134.8834  159.7667 H   0  0  0  0  0  0  0  0  0  0  0  0  # atno 6909 bound_to 6896
  144.8545  140.6119  143.5369 H   0  0  0  0  0  0  0  0  0  0  0  0  # atno 7974 bound_to 7965
  156.1093  140.3230  155.8050 H   0  0  0  0  0  0  0  0  0  0  0  0  # atno 8008 bound_to 7997
  155.4701  140.0546  157.2998 H   0  0  0  0  0  0  0  0  0  0  0  0  # atno 8009 bound_to 7997
  154.4749  140.2028  155.9917 H   0  0  0  0  0  0  0  0  0  0  0  0  # atno 8010 bound_to 7997
  139.7651  144.6941  151.0236 H   0  0  0  0  0  0  0  0  0  0  0  0  # atno 10167 bound_to 10162
  157.5507  130.8764  149.8959 H   0  0  0  0  0  0  0  0  0  0  0  0  # atno 10718 bound_to 10713
  153.7674  135.6915  153.4913 H   0  0  0  0  0  0  0  0  0  0  0  0  # atno 10763 bound_to 10752
  153.1898  135.4475  155.0133 H   0  0  0  0  0  0  0  0  0  0  0  0  # atno 10764 bound_to 10752
  154.8131  135.3386  154.7185 H   0  0  0  0  0  0  0  0  0  0  0  0  # atno 10765 bound_to 10752
  140.6520  133.9396  155.8385 H   0  0  0  0  0  0  0  0  0  0  0  0  # atno 11005 bound_to 11000
  145.4434  139.1532  143.3958 LP  0  0  0  0  0  0  0  0  0  0  0  0  # atno 17320 bound_to 7965
  146.2811  140.4557  142.8776 LP  0  0  0  0  0  0  0  0  0  0  0  0  # atno 17321 bound_to 7965
  140.7810  143.4652  151.0222 LP  0  0  0  0  0  0  0  0  0  0  0  0  # atno 17342 bound_to 10162
  139.8337  143.7657  152.3180 LP  0  0  0  0  0  0  0  0  0  0  0  0  # atno 17343 bound_to 10162
  156.0574  130.3706  150.1059 LP  0  0  0  0  0  0  0  0  0  0  0  0  # atno 17370 bound_to 10713
  156.9232  130.9689  151.3545 LP  0  0  0  0  0  0  0  0  0  0  0  0  # atno 17371 bound_to 10713
  141.0530  134.0457  157.3759 LP  0  0  0  0  0  0  0  0  0  0  0  0  # atno 17394 bound_to 11000
  139.9043  135.0175  156.7412 LP  0  0  0  0  0  0  0  0  0  0  0  0  # atno 17395 bound_to 11000

$$$$
