AV-unprocessed.smi:213|AV-procd|sdf|1645|dock5
  -GOLD-   2262020 23D 1   1.00000     0.00000
 Structure written by MMmdl.
 58 61  0  0  0  0  0  0  0  0  1 V2000
  150.8847  139.2212  155.2629 C   0  0  0  0  0  0  0  0  0  0  0  0
  150.0396  140.4621  155.5994 C   0  0  2  0  0  0  0  0  0  0  0  0
  149.9217  140.6984  157.1219 C   0  0  0  0  0  0  0  0  0  0  0  0
  151.0308  141.4309  157.7336 N   0  0  0  0  0  0  0  0  0  0  0  0
  150.8218  142.8778  157.7301 C   0  0  0  0  0  0  0  0  0  0  0  0
  151.9845  143.6277  158.4041 C   0  0  0  0  0  0  0  0  0  0  0  0
  152.1673  143.1415  159.7299 O   0  0  0  0  0  0  0  0  0  0  0  0
  152.4203  141.7410  159.7699 C   0  0  0  0  0  0  0  0  0  0  0  0
  151.2536  140.9894  159.1061 C   0  0  0  0  0  0  0  0  0  0  0  0
  148.7135  140.3775  154.9795 N   0  0  0  0  0  0  0  0  0  0  0  0
  148.3075  141.3439  153.9607 C   0  0  0  0  0  0  0  0  0  0  0  0
  148.0663  139.1838  155.0127 C   0  0  0  0  0  0  0  0  0  0  0  0
  148.1798  138.3987  156.1173 N   0  0  0  0  0  0  0  0  0  0  0  0
  147.5595  137.2163  156.1745 C   0  0  0  0  0  0  0  0  0  0  0  0
  146.7952  136.6296  155.2519 N   0  0  0  0  0  0  0  0  0  0  0  0
  146.6863  137.4057  154.1363 C   0  0  0  0  0  0  0  0  0  0  0  0
  147.2796  138.6843  153.9344 C   0  0  0  0  0  0  0  0  0  0  0  0
  146.9553  139.1570  152.6669 N   0  0  0  0  0  0  0  0  0  0  0  0
  146.2084  138.2177  152.1543 C   0  0  0  0  0  0  0  0  0  0  0  0
  146.0048  137.1255  152.9661 N   0  0  0  0  0  0  0  0  0  0  0  0
  145.2416  135.9318  152.6476 C   0  0  0  0  0  0  0  0  0  0  0  0
  145.8023  135.1922  151.4163 C   0  0  2  0  0  0  0  0  0  0  0  0
  145.5047  135.9397  150.2519 O   0  0  0  0  0  0  0  0  0  0  0  0
  145.2170  133.7761  151.2644 C   0  0  1  0  0  0  0  0  0  0  0  0
  143.6893  133.7315  151.1855 C   0  0  0  0  0  0  0  0  0  0  0  0
  143.4572  132.4318  150.4512 C   0  0  0  0  0  0  0  0  0  0  0  0
  144.5958  132.4446  149.4364 C   0  0  0  0  0  0  0  0  0  0  0  0
  145.6536  133.1842  150.0417 O   0  0  0  0  0  0  0  0  0  0  0  0
  151.9032  139.3280  155.6365 H   0  0  0  0  0  0  0  0  0  0  0  0
  150.9487  139.0757  154.1841 H   0  0  0  0  0  0  0  0  0  0  0  0
  150.4707  138.3128  155.7000 H   0  0  0  0  0  0  0  0  0  0  0  0
  150.5574  141.3204  155.1788 H   0  0  0  0  0  0  0  0  0  0  0  0
  148.9876  141.2212  157.3344 H   0  0  0  0  0  0  0  0  0  0  0  0
  149.8331  139.7254  157.6072 H   0  0  0  0  0  0  0  0  0  0  0  0
  150.7194  143.2469  156.7106 H   0  0  0  0  0  0  0  0  0  0  0  0
  149.8903  143.1185  158.2454 H   0  0  0  0  0  0  0  0  0  0  0  0
  152.9060  143.5022  157.8335 H   0  0  0  0  0  0  0  0  0  0  0  0
  151.7747  144.6968  158.4426 H   0  0  0  0  0  0  0  0  0  0  0  0
  153.3610  141.5188  159.2637 H   0  0  0  0  0  0  0  0  0  0  0  0
  152.5326  141.4277  160.8080 H   0  0  0  0  0  0  0  0  0  0  0  0
  150.3471  141.1385  159.6948 H   0  0  0  0  0  0  0  0  0  0  0  0
  151.4621  139.9190  159.1216 H   0  0  0  0  0  0  0  0  0  0  0  0
  147.2211  141.4343  153.9262 H   0  0  0  0  0  0  0  0  0  0  0  0
  148.6592  141.0359  152.9756 H   0  0  0  0  0  0  0  0  0  0  0  0
  148.7135  142.3331  154.1682 H   0  0  0  0  0  0  0  0  0  0  0  0
  147.6983  136.6596  157.0896 H   0  0  0  0  0  0  0  0  0  0  0  0
  145.7943  138.2905  151.1590 H   0  0  0  0  0  0  0  0  0  0  0  0
  145.2529  135.2796  153.5216 H   0  0  0  0  0  0  0  0  0  0  0  0
  144.2011  136.2148  152.4826 H   0  0  0  0  0  0  0  0  0  0  0  0
  146.8876  135.1227  151.5012 H   0  0  0  0  0  0  0  0  0  0  0  0
  145.7941  135.4466  149.4994 H   0  0  0  0  0  0  0  0  0  0  0  0
  145.5529  133.1354  152.0817 H   0  0  0  0  0  0  0  0  0  0  0  0
  143.2116  133.7595  152.1653 H   0  0  0  0  0  0  0  0  0  0  0  0
  143.3077  134.5658  150.5949 H   0  0  0  0  0  0  0  0  0  0  0  0
  143.5704  131.5897  151.1355 H   0  0  0  0  0  0  0  0  0  0  0  0
  142.4719  132.3689  149.9884 H   0  0  0  0  0  0  0  0  0  0  0  0
  144.9179  131.4399  149.1619 H   0  0  0  0  0  0  0  0  0  0  0  0
  144.2904  132.9630  148.5267 H   0  0  0  0  0  0  0  0  0  0  0  0
  1  2  1  0  0  0  0
  1 29  1  0  0  0  0
  1 30  1  0  0  0  0
  1 31  1  0  0  0  0
  2  3  1  0  0  0  0
  2 10  1  0  0  0  0
  2 32  1  0  0  0  0
  3  4  1  0  0  0  0
  3 33  1  0  0  0  0
  3 34  1  0  0  0  0
  4  9  1  0  0  0  0
  4  5  1  0  0  0  0
  5  6  1  0  0  0  0
  5 35  1  0  0  0  0
  5 36  1  0  0  0  0
  6  7  1  0  0  0  0
  6 37  1  0  0  0  0
  6 38  1  0  0  0  0
  7  8  1  0  0  0  0
  8  9  1  0  0  0  0
  8 39  1  0  0  0  0
  8 40  1  0  0  0  0
  9 41  1  0  0  0  0
  9 42  1  0  0  0  0
 10 11  1  0  0  0  0
 10 12  1  0  0  0  0
 11 43  1  0  0  0  0
 11 44  1  0  0  0  0
 11 45  1  0  0  0  0
 12 17  1  0  0  0  0
 12 13  2  0  0  0  0
 13 14  1  0  0  0  0
 14 15  2  0  0  0  0
 14 46  1  0  0  0  0
 15 16  1  0  0  0  0
 16 20  1  0  0  0  0
 16 17  2  0  0  0  0
 17 18  1  0  0  0  0
 18 19  2  0  0  0  0
 19 20  1  0  0  0  0
 19 47  1  0  0  0  0
 20 21  1  0  0  0  0
 21 22  1  0  0  0  0
 21 48  1  0  0  0  0
 21 49  1  0  0  0  0
 22 23  1  0  0  0  0
 22 24  1  0  0  0  0
 22 50  1  0  0  0  0
 23 51  1  0  0  0  0
 24 28  1  0  0  0  0
 24 25  1  0  0  0  0
 24 52  1  0  0  0  0
 25 26  1  0  0  0  0
 25 53  1  0  0  0  0
 25 54  1  0  0  0  0
 26 27  1  0  0  0  0
 26 55  1  0  0  0  0
 26 56  1  0  0  0  0
 27 28  1  0  0  0  0
 27 57  1  0  0  0  0
 27 58  1  0  0  0  0
M  END
> <s_m_source_file>
AV-unprocessed.smi

> <i_m_source_file_index>
213

> <i_lp_mmshare_version>
43012

> <i_f3d_flags>
0

> <s_epik_input>
W0NIMl0xW0NIMl1PW0NIMl1bQ0gyXU4xW0NIMl1bQ0BASF0oW0NIM10pTihbQ0gzXSljKG5bY0hdbjIpYyhjMjMpbltjSF1uM1tDSDJdW0NASF0oW09IXSlbQ0BASF00W0NIMl1bQ0gyXVtDSDJdTzQ=

> <s_epik_cmdline>
J2VwaWtfcHl0aG9uJywgJy1waCcsICc3LjAnLCAnLXRuJywgJzgnLCAnLW1hJywgJzIwMCcsICctbWV0YWxfYmluZGluZycsICctaW1hZScsICc8aW5maWxlLm1hZT4nLCAnLW9tYWUnLCAnPG91dGZpbGUubWFlPic=

> <r_lp_tautomer_probability>
1

> <r_epik_Ionization_Penalty>
0.423322

> <r_epik_Ionization_Penalty_Charging>
0

> <r_epik_Ionization_Penalty_Neutral>
0.423322

> <r_epik_State_Penalty>
0.569486

> <r_epik_Charging_Adjusted_Penalty>
0.569486

> <i_epik_Tot_Q>
0

> <i_epik_Tot_abs_Q>
0

> <r_epik_Metal_State_Penalty>
0.568671

> <b_epik_Metal_Only>
0

> <s_lp_Force_Field>
OPLS_2005

> <r_lp_Energy>
51.3499

> <b_lp_Chiralities_Consistent>
1

> <s_lp_Variant>
AV-unprocessed.smi:213-13

> <Gold.Version>
5.8.1

> <Gold.Id.Protein>
6NUR|6NUR_protein|mol2

> <Gold.PLP.Fitness>
49.9851

> <Gold.PLP.PLP>
-45.9824

> <Gold.PLP.part.hbond>
-1.6411

> <Gold.PLP.part.metal>
0.0000

> <Gold.PLP.part.buried>
-5.3645

> <Gold.PLP.part.nonpolar>
-40.3391

> <Gold.PLP.part.repulsive>
1.5502

> <Gold.PLP.ligand.clash>
0.0000

> <Gold.PLP.ligand.torsion>
1.4411

> <Gold.PLP.Chemscore.Hbond>
1.0000

> <Gold.PLP.Chemscore.CHOScore>
1.0000

> <Gold.PLP.Chemscore.Metal>
0.0000

> <Gold.Chemscore.Hbonds>
donor molecule, donor type, donor heavy atom, donor atom, acceptor molecule, acceptor atom, score
      L1  H    23    51       P1  7921  1.00
      L1  C    19    47       P1 10171  1.00

> <Gold.PLP.Chemscore.Internal.Correction>
0.8850

> <Gold.Rescore>
     Score         DG    S(hbond)    S(metal)    S(lipo)     H(rot)  DE(clash)    DE(int)     intcor
     10.36     -14.52       0.97        0.00     109.55       2.74       0.26       3.89       ----

> <Gold.Chemscore.Fitness>
10.3624

> <Gold.Chemscore.DG>
-14.5156

> <Gold.Chemscore.ZeroCoef>
-5.4800

> <Gold.Chemscore.Hbond>
0.9663

> <Gold.Chemscore.Metal>
0.0000

> <Gold.Chemscore.Lipo>
109.5468

> <Gold.Chemscore.Internal_Hbond>
0.0000

> <Gold.Chemscore.DEClash>
0.2616

> <Gold.Chemscore.DEInternal>
3.8917

> <Gold.Chemscore.Rot>
2.7378

> <Gold.Chemscore.Internal.Correction>
   9.000000E+99

> <Gold.Chemscore.Hbonds>
donor molecule, donor type, donor heavy atom, donor atom, acceptor molecule, acceptor atom, score
      L1  H    23    51       P1  7921  0.96

> <Gold.Chemscore.Hbond.Weighted>
-3.2273

> <Gold.Chemscore.Metal.Weighted>
-0.0000

> <Gold.Chemscore.Lipo.Weighted>
-12.8170

> <Gold.Chemscore.Internal_Hbond.Weighted>
0.0000

> <Gold.Chemscore.DEClash.Weighted>
0.2616

> <Gold.Chemscore.DEInternal.Weighted>
3.8917

> <Gold.Chemscore.Rot.Weighted>
7.0087

> <Gold.Chemscore.Internal.Correction.Weighted>
   9.000000E+99

> <Gold.Protein.RotatedTorsions>
[ 6907 6896 6895 6894 ] final   27.67 input  -60.11 | X-H torsion
[ 7974 7965 7964 7962 ] final -139.35 input  175.53 | X-H torsion
[ 8008 7997 7996 7995 ] final  -87.74 input   59.86 | X-H torsion
[ 10167 10162 10161 10158 ] final  156.71 input  -65.29 | X-H torsion
[ 10718 10713 10712 10709 ] final -147.59 input   66.30 | X-H torsion
[ 10763 10752 10751 10750 ] final  -83.40 input  -60.55 | X-H torsion
[ 11005 11000 10999 10996 ] final  152.31 input  -57.11 | X-H torsion

> <Gold.Protein.ActiveResidues>
 VAL166  LYS551  ARG553  GLY616  TRP617  ASP618  TYR619  PRO620  LYS621  CYS622 
 ASP623  PHE694  ASN695  SER759  ASP760  ASP761  ALA762  ILE779  LEU786  VAL792 
 PHE793  MET794  SER795  GLU796  ALA797  LYS798  CYS799  TRP800  GLU811  SER814 

> <Gold.Protein.RotatedAtoms>
  152.0057  134.9904  160.0566 H   0  0  0  0  0  0  0  0  0  0  0  0  # atno 6907 bound_to 6896
  152.1477  133.4497  159.4806 H   0  0  0  0  0  0  0  0  0  0  0  0  # atno 6908 bound_to 6896
  150.6872  134.2146  159.4416 H   0  0  0  0  0  0  0  0  0  0  0  0  # atno 6909 bound_to 6896
  144.8684  140.6329  143.5283 H   0  0  0  0  0  0  0  0  0  0  0  0  # atno 7974 bound_to 7965
  154.6667  140.0562  157.0121 H   0  0  0  0  0  0  0  0  0  0  0  0  # atno 8008 bound_to 7997
  155.1148  140.3242  155.4493 H   0  0  0  0  0  0  0  0  0  0  0  0  # atno 8009 bound_to 7997
  156.2641  140.2008  156.6272 H   0  0  0  0  0  0  0  0  0  0  0  0  # atno 8010 bound_to 7997
  139.4821  144.4984  151.8206 H   0  0  0  0  0  0  0  0  0  0  0  0  # atno 10167 bound_to 10162
  156.4094  130.7974  151.2190 H   0  0  0  0  0  0  0  0  0  0  0  0  # atno 10718 bound_to 10713
  154.5872  135.5557  153.7243 H   0  0  0  0  0  0  0  0  0  0  0  0  # atno 10763 bound_to 10752
  153.0103  135.6334  154.1899 H   0  0  0  0  0  0  0  0  0  0  0  0  # atno 10764 bound_to 10752
  154.1840  135.2885  155.3023 H   0  0  0  0  0  0  0  0  0  0  0  0  # atno 10765 bound_to 10752
  140.1296  134.8810  157.2186 H   0  0  0  0  0  0  0  0  0  0  0  0  # atno 11005 bound_to 11000
  145.4177  139.1569  143.4091 LP  0  0  0  0  0  0  0  0  0  0  0  0  # atno 17320 bound_to 7965
  146.2912  140.4285  142.8738 LP  0  0  0  0  0  0  0  0  0  0  0  0  # atno 17321 bound_to 7965
  140.4474  144.1902  150.5895 LP  0  0  0  0  0  0  0  0  0  0  0  0  # atno 17342 bound_to 10162
  140.4620  143.2445  151.9207 LP  0  0  0  0  0  0  0  0  0  0  0  0  # atno 17343 bound_to 10162
  157.7506  131.0262  150.3952 LP  0  0  0  0  0  0  0  0  0  0  0  0  # atno 17370 bound_to 10713
  156.4247  130.3960  149.6800 LP  0  0  0  0  0  0  0  0  0  0  0  0  # atno 17371 bound_to 10713
  140.2859  134.3296  155.7329 LP  0  0  0  0  0  0  0  0  0  0  0  0  # atno 17394 bound_to 11000
  141.2168  133.7505  156.9432 LP  0  0  0  0  0  0  0  0  0  0  0  0  # atno 17395 bound_to 11000

$$$$
