AV-unprocessed.smi:1965|AV-procd|sdf|7943|dock5
  -GOLD-   2272010113D 1   1.00000     0.00000
 Structure written by MMmdl.
 36 38  0  0  0  0  0  0  0  0  3 V2000
  146.3764  135.7529  152.6030 O   0  0  0  0  0  0  0  0  0  0  0  0
  145.8244  136.3355  151.6707 C   0  0  0  0  0  0  0  0  0  0  0  0
  144.9711  135.7291  150.8048 N   0  5  0  0  0  0  0  0  0  0  0  0
  145.1898  134.4914  150.3227 C   0  0  0  0  0  0  0  0  0  0  0  0
  146.1982  133.7139  150.7335 N   0  0  0  0  0  0  0  0  0  0  0  0
  146.2405  132.4744  150.0927 C   0  0  0  0  0  0  0  0  0  0  0  0
  145.2407  132.3041  149.1724 C   0  0  0  0  0  0  0  0  0  0  0  0
  144.2057  133.7010  149.0875 S   0  0  0  0  0  0  0  0  0  0  0  0
  146.0713  137.6449  151.4845 N   0  0  0  0  0  0  0  0  0  0  0  0
  146.9386  138.4910  152.2966 C   0  0  1  0  0  0  0  0  0  0  0  0
  147.1084  139.9200  151.7366 C   0  0  0  0  0  0  0  0  0  0  0  0
  146.9092  140.8451  152.9415 C   0  0  0  0  0  0  0  0  0  0  0  0
  145.9735  140.0948  153.7880 N   0  3  2  0  0  0  0  0  0  0  0  0
  145.7516  140.5636  155.1715 C   0  0  0  0  0  0  0  0  0  0  0  0
  144.6273  139.7168  155.8060 C   0  0  0  0  0  0  0  0  0  0  0  0
  144.9000  138.2004  155.6879 C   0  0  0  0  0  0  0  0  0  0  0  0
  145.2370  137.7960  154.2375 C   0  0  0  0  0  0  0  0  0  0  0  0
  146.3870  138.6831  153.7247 C   0  0  1  0  0  0  0  0  0  0  0  0
  147.0186  131.7730  150.3546 H   0  0  0  0  0  0  0  0  0  0  0  0
  145.0469  131.4458  148.5467 H   0  0  0  0  0  0  0  0  0  0  0  0
  145.6035  138.0901  150.7086 H   0  0  0  0  0  0  0  0  0  0  0  0
  147.9144  138.0072  152.3695 H   0  0  0  0  0  0  0  0  0  0  0  0
  148.0759  140.0679  151.2563 H   0  0  0  0  0  0  0  0  0  0  0  0
  146.3389  140.1294  150.9917 H   0  0  0  0  0  0  0  0  0  0  0  0
  147.8512  140.9908  153.4727 H   0  0  0  0  0  0  0  0  0  0  0  0
  146.5139  141.8220  152.6612 H   0  0  0  0  0  0  0  0  0  0  0  0
  146.6739  140.4796  155.7483 H   0  0  0  0  0  0  0  0  0  0  0  0
  145.4695  141.6169  155.1617 H   0  0  0  0  0  0  0  0  0  0  0  0
  144.4968  139.9926  156.8528 H   0  0  0  0  0  0  0  0  0  0  0  0
  143.6838  139.9469  155.3090 H   0  0  0  0  0  0  0  0  0  0  0  0
  145.7328  137.9331  156.3396 H   0  0  0  0  0  0  0  0  0  0  0  0
  144.0381  137.6352  156.0436 H   0  0  0  0  0  0  0  0  0  0  0  0
  145.5194  136.7433  154.1974 H   0  0  0  0  0  0  0  0  0  0  0  0
  144.3536  137.9114  153.6076 H   0  0  0  0  0  0  0  0  0  0  0  0
  147.2352  138.5607  154.4021 H   0  0  0  0  0  0  0  0  0  0  0  0
  145.0817  140.1450  153.3162 H   0  0  0  0  0  0  0  0  0  0  0  0
  1  2  2  0  0  0  0
  2  3  1  0  0  0  0
  2  9  1  0  0  0  0
  3  4  1  0  0  0  0
  4  8  1  0  0  0  0
  4  5  2  0  0  0  0
  5  6  1  0  0  0  0
  6  7  2  0  0  0  0
  6 19  1  0  0  0  0
  7  8  1  0  0  0  0
  7 20  1  0  0  0  0
  9 10  1  0  0  0  0
  9 21  1  0  0  0  0
 10 18  1  0  0  0  0
 10 11  1  0  0  0  0
 10 22  1  0  0  0  0
 11 12  1  0  0  0  0
 11 23  1  0  0  0  0
 11 24  1  0  0  0  0
 12 13  1  0  0  0  0
 12 25  1  0  0  0  0
 12 26  1  0  0  0  0
 13 18  1  0  0  0  0
 13 14  1  0  0  0  0
 13 36  1  0  0  0  0
 14 15  1  0  0  0  0
 14 27  1  0  0  0  0
 14 28  1  0  0  0  0
 15 16  1  0  0  0  0
 15 29  1  0  0  0  0
 15 30  1  0  0  0  0
 16 17  1  0  0  0  0
 16 31  1  0  0  0  0
 16 32  1  0  0  0  0
 17 18  1  0  0  0  0
 17 33  1  0  0  0  0
 17 34  1  0  0  0  0
 18 35  1  0  0  0  0
M  CHG  1   3  -1
M  CHG  1  13   1
M  END
> <s_m_source_file>
AV-unprocessed.smi

> <i_m_source_file_index>
1965

> <i_lp_mmshare_version>
43012

> <i_f3d_flags>
0

> <s_epik_input>
czFbY0hdW2NIXW5jMVtOSF1DKD1PKVtOSF1bQ0BIXShbQ0gyXVtDSDJdMilbQ0BASF0oTjIzKVtDSDJdW0NIMl1bQ0gyXVtDSDJdMw==

> <s_epik_cmdline>
J2VwaWtfcHl0aG9uJywgJy1waCcsICc3LjAnLCAnLXRuJywgJzgnLCAnLW1hJywgJzIwMCcsICctbWV0YWxfYmluZGluZycsICctaW1hZScsICc8aW5maWxlLm1hZT4nLCAnLW9tYWUnLCAnPG91dGZpbGUubWFlPic=

> <r_lp_tautomer_probability>
1

> <r_epik_Ionization_Penalty>
7.4116

> <r_epik_Ionization_Penalty_Charging>
6.13869

> <r_epik_Ionization_Penalty_Neutral>
1.27291

> <r_epik_State_Penalty>
6.13761

> <r_epik_Charging_Adjusted_Penalty>
12.2763

> <i_epik_Tot_Q>
0

> <i_epik_Tot_abs_Q>
2

> <r_epik_Metal_State_Penalty>
2.08142

> <b_epik_Metal_Only>
1

> <s_lp_Force_Field>
OPLS_2005

> <r_lp_Energy>
32.5812

> <b_lp_Chiralities_Consistent>
1

> <s_lp_Variant>
AV-unprocessed.smi:1965-12

> <Gold.Version>
5.8.1

> <Gold.Id.Protein>
6NUR|6NUR_protein|mol2

> <Gold.PLP.Fitness>
33.8762

> <Gold.PLP.PLP>
-22.5949

> <Gold.PLP.part.hbond>
-2.1372

> <Gold.PLP.part.metal>
0.0000

> <Gold.PLP.part.buried>
1.7642

> <Gold.PLP.part.nonpolar>
-23.7290

> <Gold.PLP.part.repulsive>
1.2408

> <Gold.PLP.ligand.clash>
0.0000

> <Gold.PLP.ligand.torsion>
0.3606

> <Gold.PLP.Chemscore.Hbond>
3.0000

> <Gold.PLP.Chemscore.CHOScore>
1.0000

> <Gold.PLP.Chemscore.Metal>
0.0000

> <Gold.Chemscore.Hbonds>
donor molecule, donor type, donor heavy atom, donor atom, acceptor molecule, acceptor atom, score
      L1  H     9    21       P1 10171  0.99
      L1  H    13    36       P1 10175  2.00
      L1  C     6    19       P1 10747  1.00

> <Gold.PLP.Chemscore.Internal.Correction>
0.0025

> <Gold.Rescore>
     Score         DG    S(hbond)    S(metal)    S(lipo)     H(rot)  DE(clash)    DE(int)     intcor
     12.75     -17.02       1.90        0.00      66.16       1.00       2.35       1.92       ----

> <Gold.Chemscore.Fitness>
12.7526

> <Gold.Chemscore.DG>
-17.0216

> <Gold.Chemscore.ZeroCoef>
-5.4800

> <Gold.Chemscore.Hbond>
1.9046

> <Gold.Chemscore.Metal>
0.0000

> <Gold.Chemscore.Lipo>
66.1560

> <Gold.Chemscore.Internal_Hbond>
0.0000

> <Gold.Chemscore.DEClash>
2.3514

> <Gold.Chemscore.DEInternal>
1.9176

> <Gold.Chemscore.Rot>
1.0000

> <Gold.Chemscore.Internal.Correction>
   9.000000E+99

> <Gold.Chemscore.Hbonds>
donor molecule, donor type, donor heavy atom, donor atom, acceptor molecule, acceptor atom, score
      L1  H     9    21       P1 10171  0.90
      L1  H    13    36       P1 10175  1.00

> <Gold.Chemscore.Hbond.Weighted>
-6.3613

> <Gold.Chemscore.Metal.Weighted>
-0.0000

> <Gold.Chemscore.Lipo.Weighted>
-7.7403

> <Gold.Chemscore.Internal_Hbond.Weighted>
0.0000

> <Gold.Chemscore.DEClash.Weighted>
2.3514

> <Gold.Chemscore.DEInternal.Weighted>
1.9176

> <Gold.Chemscore.Rot.Weighted>
2.5600

> <Gold.Chemscore.Internal.Correction.Weighted>
   9.000000E+99

> <Gold.Protein.RotatedTorsions>
[ 6907 6896 6895 6894 ] final  144.26 input  -60.11 | X-H torsion
[ 7974 7965 7964 7962 ] final -175.99 input  175.53 | X-H torsion
[ 8008 7997 7996 7995 ] final   -4.17 input   59.86 | X-H torsion
[ 10167 10162 10161 10158 ] final -125.40 input  -65.29 | X-H torsion
[ 10718 10713 10712 10709 ] final  -51.49 input   66.30 | X-H torsion
[ 10763 10752 10751 10750 ] final   84.35 input  -60.55 | X-H torsion
[ 11005 11000 10999 10996 ] final  167.53 input  -57.11 | X-H torsion

> <Gold.Protein.ActiveResidues>
 VAL166  LYS551  ARG553  GLY616  TRP617  ASP618  TYR619  PRO620  LYS621  CYS622 
 ASP623  PHE694  ASN695  SER759  ASP760  ASP761  ALA762  ILE779  LEU786  VAL792 
 PHE793  MET794  SER795  GLU796  ALA797  LYS798  CYS799  TRP800  GLU811  SER814 

> <Gold.Protein.RotatedAtoms>
  152.1959  133.4806  159.5032 H   0  0  0  0  0  0  0  0  0  0  0  0  # atno 6907 bound_to 6896
  150.6960  134.1652  159.4200 H   0  0  0  0  0  0  0  0  0  0  0  0  # atno 6908 bound_to 6896
  151.9568  135.0142  160.0596 H   0  0  0  0  0  0  0  0  0  0  0  0  # atno 6909 bound_to 6896
  144.7127  140.1238  143.6403 H   0  0  0  0  0  0  0  0  0  0  0  0  # atno 7974 bound_to 7965
  154.6172  140.2491  155.7595 H   0  0  0  0  0  0  0  0  0  0  0  0  # atno 8008 bound_to 7997
  156.2405  140.2934  156.0381 H   0  0  0  0  0  0  0  0  0  0  0  0  # atno 8009 bound_to 7997
  155.1956  140.0393  157.2898 H   0  0  0  0  0  0  0  0  0  0  0  0  # atno 8010 bound_to 7997
  139.9825  143.5727  152.2373 H   0  0  0  0  0  0  0  0  0  0  0  0  # atno 10167 bound_to 10162
  156.1705  130.4149  149.9654 H   0  0  0  0  0  0  0  0  0  0  0  0  # atno 10718 bound_to 10713
  153.1373  135.4657  154.9442 H   0  0  0  0  0  0  0  0  0  0  0  0  # atno 10763 bound_to 10752
  154.7717  135.3161  154.8178 H   0  0  0  0  0  0  0  0  0  0  0  0  # atno 10764 bound_to 10752
  153.8708  135.6904  153.4828 H   0  0  0  0  0  0  0  0  0  0  0  0  # atno 10765 bound_to 10752
  140.2777  134.7775  157.3731 H   0  0  0  0  0  0  0  0  0  0  0  0  # atno 11005 bound_to 11000
  145.9348  139.2629  143.1304 LP  0  0  0  0  0  0  0  0  0  0  0  0  # atno 17320 bound_to 7965
  145.9486  140.8926  143.0271 LP  0  0  0  0  0  0  0  0  0  0  0  0  # atno 17321 bound_to 7965
  139.6399  144.7653  151.2361 LP  0  0  0  0  0  0  0  0  0  0  0  0  # atno 17342 bound_to 10162
  140.7484  143.6335  150.8401 LP  0  0  0  0  0  0  0  0  0  0  0  0  # atno 17343 bound_to 10162
  156.7456  130.9096  151.3634 LP  0  0  0  0  0  0  0  0  0  0  0  0  # atno 17370 bound_to 10713
  157.6799  130.9130  150.0242 LP  0  0  0  0  0  0  0  0  0  0  0  0  # atno 17371 bound_to 10713
  140.1312  134.5092  155.8104 LP  0  0  0  0  0  0  0  0  0  0  0  0  # atno 17394 bound_to 11000
  141.2167  133.6791  156.7043 LP  0  0  0  0  0  0  0  0  0  0  0  0  # atno 17395 bound_to 11000

$$$$
