AV-unprocessed.smi:40|AV-procd|sdf|381|dock2
  -GOLD-   2262016233D 1   1.00000     0.00000
 Structure written by MMmdl.
 47 48  0  0  0  0  0  0  0  0  1 V2000
  151.7778  144.2815  159.7727 C   0  0  0  0  0  0  0  0  0  0  0  0
  152.0815  143.4677  161.0374 C   0  0  0  0  0  0  0  0  0  0  0  0
  152.9655  142.2352  160.7860 C   0  0  0  0  0  0  0  0  0  0  0  0
  152.2709  141.1290  159.9718 C   0  0  0  0  0  0  0  0  0  0  0  0
  153.1691  139.9081  159.7317 C   0  0  0  0  0  0  0  0  0  0  0  0
  152.8727  139.3503  158.4624 O   0  0  0  0  0  0  0  0  0  0  0  0
  152.2621  138.1555  158.3672 C   0  0  0  0  0  0  0  0  0  0  0  0
  151.9818  137.4471  159.3341 O   0  0  0  0  0  0  0  0  0  0  0  0
  151.9439  137.8266  156.9871 N   0  0  0  0  0  0  0  0  0  0  0  0
  151.3340  136.7219  156.4908 C   0  0  0  0  0  0  0  0  0  0  0  0
  151.3469  135.5570  157.1204 N   0  0  0  0  0  0  0  0  0  0  0  0
  150.7251  134.4294  156.6573 C   0  0  0  0  0  0  0  0  0  0  0  0
  150.7731  133.3771  157.2934 O   0  0  0  0  0  0  0  0  0  0  0  0
  150.0255  134.5291  155.4323 N   0  0  0  0  0  0  0  0  0  0  0  0
  149.3241  133.2947  154.9027 C   0  0  2  0  0  0  0  0  0  0  0  0
  148.8121  133.5607  153.6273 O   0  0  0  0  0  0  0  0  0  0  0  0
  147.3882  133.5476  153.6569 C   0  0  1  0  0  0  0  0  0  0  0  0
  146.8381  133.1759  152.2753 C   0  0  0  0  0  0  0  0  0  0  0  0
  147.0754  132.5315  154.7528 C   0  0  2  0  0  0  0  0  0  0  0  0
  145.7552  132.6447  155.2499 O   0  0  0  0  0  0  0  0  0  0  0  0
  148.1477  132.8323  155.7948 C   0  0  2  0  0  0  0  0  0  0  0  0
  147.7243  133.8124  156.7315 O   0  0  0  0  0  0  0  0  0  0  0  0
  149.9776  135.7463  154.7677 C   0  0  0  0  0  0  0  0  0  0  0  0
  150.6005  136.8438  155.2489 C   0  0  0  0  0  0  0  0  0  0  0  0
  150.5378  138.0131  154.5885 F   0  0  0  0  0  0  0  0  0  0  0  0
  150.0973  132.5338  154.7845 H   0  0  0  0  0  0  0  0  0  0  0  0
  147.0310  134.5359  153.9503 H   0  0  0  0  0  0  0  0  0  0  0  0
  147.2260  131.5214  154.3687 H   0  0  0  0  0  0  0  0  0  0  0  0
  148.4365  131.9358  156.3443 H   0  0  0  0  0  0  0  0  0  0  0  0
  151.0983  145.1038  159.9973 H   0  0  0  0  0  0  0  0  0  0  0  0
  151.3071  143.6621  159.0090 H   0  0  0  0  0  0  0  0  0  0  0  0
  152.6829  144.7136  159.3462 H   0  0  0  0  0  0  0  0  0  0  0  0
  152.5468  144.1098  161.7863 H   0  0  0  0  0  0  0  0  0  0  0  0
  151.1371  143.1365  161.4703 H   0  0  0  0  0  0  0  0  0  0  0  0
  153.8584  142.5628  160.2524 H   0  0  0  0  0  0  0  0  0  0  0  0
  153.3148  141.8315  161.7372 H   0  0  0  0  0  0  0  0  0  0  0  0
  151.3745  140.7989  160.4966 H   0  0  0  0  0  0  0  0  0  0  0  0
  151.9365  141.5271  159.0131 H   0  0  0  0  0  0  0  0  0  0  0  0
  154.2212  140.1926  159.7810 H   0  0  0  0  0  0  0  0  0  0  0  0
  152.9942  139.1611  160.5071 H   0  0  0  0  0  0  0  0  0  0  0  0
  152.2461  138.5199  156.3182 H   0  0  0  0  0  0  0  0  0  0  0  0
  145.7487  133.1349  152.2860 H   0  0  0  0  0  0  0  0  0  0  0  0
  147.2071  132.2024  151.9512 H   0  0  0  0  0  0  0  0  0  0  0  0
  147.1366  133.9112  151.5278 H   0  0  0  0  0  0  0  0  0  0  0  0
  145.3468  131.7931  155.2124 H   0  0  0  0  0  0  0  0  0  0  0  0
  147.4774  133.3732  157.5309 H   0  0  0  0  0  0  0  0  0  0  0  0
  149.4302  135.8448  153.8431 H   0  0  0  0  0  0  0  0  0  0  0  0
  1  2  1  0  0  0  0
  1 30  1  0  0  0  0
  1 31  1  0  0  0  0
  1 32  1  0  0  0  0
  2  3  1  0  0  0  0
  2 33  1  0  0  0  0
  2 34  1  0  0  0  0
  3  4  1  0  0  0  0
  3 35  1  0  0  0  0
  3 36  1  0  0  0  0
  4  5  1  0  0  0  0
  4 37  1  0  0  0  0
  4 38  1  0  0  0  0
  5  6  1  0  0  0  0
  5 39  1  0  0  0  0
  5 40  1  0  0  0  0
  6  7  1  0  0  0  0
  7  8  2  0  0  0  0
  7  9  1  0  0  0  0
  9 10  1  0  0  0  0
  9 41  1  0  0  0  0
 10 24  1  0  0  0  0
 10 11  2  0  0  0  0
 11 12  1  0  0  0  0
 12 13  2  0  0  0  0
 12 14  1  0  0  0  0
 14 15  1  0  0  0  0
 14 23  1  0  0  0  0
 15 26  1  0  0  0  0
 15 21  1  0  0  0  0
 15 16  1  0  0  0  0
 16 17  1  0  0  0  0
 17 27  1  0  0  0  0
 17 18  1  0  0  0  0
 17 19  1  0  0  0  0
 18 42  1  0  0  0  0
 18 43  1  0  0  0  0
 18 44  1  0  0  0  0
 19 28  1  0  0  0  0
 19 20  1  0  0  0  0
 19 21  1  0  0  0  0
 20 45  1  0  0  0  0
 21 29  1  0  0  0  0
 21 22  1  0  0  0  0
 22 46  1  0  0  0  0
 23 24  2  0  0  0  0
 23 47  1  0  0  0  0
 24 25  1  0  0  0  0
M  END
> <s_m_source_file>
AV-unprocessed.smi

> <i_m_source_file_index>
40

> <i_lp_mmshare_version>
43012

> <i_f3d_flags>
0

> <s_epik_input>
W0NIM11bQ0gyXVtDSDJdW0NIMl1bQ0gyXU9DKD1PKVtOSF1jMW5jKD1PKW4oW2NIXWMxRilbQ0BASF0yT1tDQEhdKFtDSDNdKVtDQEBIXShbT0hdKVtDQEhdMltPSF0=

> <s_epik_cmdline>
J2VwaWtfcHl0aG9uJywgJy1waCcsICc3LjAnLCAnLXRuJywgJzgnLCAnLW1hJywgJzIwMCcsICctbWV0YWxfYmluZGluZycsICctaW1hZScsICc8aW5maWxlLm1hZT4nLCAnLW9tYWUnLCAnPG91dGZpbGUubWFlPic=

> <r_lp_tautomer_probability>
1

> <r_epik_Ionization_Penalty>
2.29506e-06

> <r_epik_Ionization_Penalty_Charging>
8.26867e-09

> <r_epik_Ionization_Penalty_Neutral>
2.2868e-06

> <r_epik_State_Penalty>
-0

> <r_epik_Charging_Adjusted_Penalty>
8.26867e-09

> <i_epik_Tot_Q>
0

> <i_epik_Tot_abs_Q>
0

> <r_epik_Metal_State_Penalty>
-0

> <b_epik_Metal_Only>
0

> <s_epik_Chemistry_Notes>
This compound has an ester and may undergo hydrolysis at high or low pH. This compound contains an acetal/aminal-like group ( X-CH(R)-Y where X, Y are N, S, or O) that may be acid/base labile, releasing an aldehyde.

> <s_lp_Force_Field>
OPLS_2005

> <r_lp_Energy>
41.7027

> <b_lp_Chiralities_Consistent>
1

> <s_lp_Variant>
AV-unprocessed.smi:40-15

> <Gold.Version>
5.8.1

> <Gold.Id.Protein>
6NUR|6NUR_protein|mol2

> <Gold.PLP.Fitness>
43.5597

> <Gold.PLP.PLP>
-36.4557

> <Gold.PLP.part.hbond>
-3.1549

> <Gold.PLP.part.metal>
0.0000

> <Gold.PLP.part.buried>
-5.2547

> <Gold.PLP.part.nonpolar>
-29.8060

> <Gold.PLP.part.repulsive>
0.2144

> <Gold.PLP.ligand.clash>
0.0000

> <Gold.PLP.ligand.torsion>
0.8435

> <Gold.PLP.Chemscore.Hbond>
1.9913

> <Gold.PLP.Chemscore.CHOScore>
0.8698

> <Gold.PLP.Chemscore.Metal>
0.0000

> <Gold.Chemscore.Hbonds>
donor molecule, donor type, donor heavy atom, donor atom, acceptor molecule, acceptor atom, score
      P1  H  6896  6907       L1     8  0.08
      P1  H  6896  6909       L1    13  0.64
      L1  C    23    47       P1  7948  1.00

> <Gold.PLP.Chemscore.Internal.Correction>
0.2077

> <Gold.Rescore>
     Score         DG    S(hbond)    S(metal)    S(lipo)     H(rot)  DE(clash)    DE(int)     intcor
      9.07     -11.17       1.85        0.00      76.70       3.70       0.03       2.07       ----

> <Gold.Chemscore.Fitness>
9.0698

> <Gold.Chemscore.DG>
-11.1724

> <Gold.Chemscore.ZeroCoef>
-5.4800

> <Gold.Chemscore.Hbond>
1.8502

> <Gold.Chemscore.Metal>
0.0000

> <Gold.Chemscore.Lipo>
76.6967

> <Gold.Chemscore.Internal_Hbond>
0.0000

> <Gold.Chemscore.DEClash>
0.0289

> <Gold.Chemscore.DEInternal>
2.0736

> <Gold.Chemscore.Rot>
3.6957

> <Gold.Chemscore.Internal.Correction>
   9.000000E+99

> <Gold.Chemscore.Hbonds>
donor molecule, donor type, donor heavy atom, donor atom, acceptor molecule, acceptor atom, score
      P1  H  6896  6907       L1     8  0.13
      P1  H  6896  6909       L1    13  0.39

> <Gold.Chemscore.Hbond.Weighted>
-6.1798

> <Gold.Chemscore.Metal.Weighted>
-0.0000

> <Gold.Chemscore.Lipo.Weighted>
-8.9735

> <Gold.Chemscore.Internal_Hbond.Weighted>
0.0000

> <Gold.Chemscore.DEClash.Weighted>
0.0289

> <Gold.Chemscore.DEInternal.Weighted>
2.0736

> <Gold.Chemscore.Rot.Weighted>
9.4610

> <Gold.Chemscore.Internal.Correction.Weighted>
   9.000000E+99

> <Gold.Protein.RotatedTorsions>
[ 6907 6896 6895 6894 ] final    4.62 input  -60.11 | X-H torsion
[ 7974 7965 7964 7962 ] final  -15.39 input  175.53 | X-H torsion
[ 8008 7997 7996 7995 ] final -154.67 input   59.86 | X-H torsion
[ 10167 10162 10161 10158 ] final  -99.55 input  -65.29 | X-H torsion
[ 10718 10713 10712 10709 ] final   90.94 input   66.30 | X-H torsion
[ 10763 10752 10751 10750 ] final  -84.85 input  -60.55 | X-H torsion
[ 11005 11000 10999 10996 ] final   83.33 input  -57.11 | X-H torsion

> <Gold.Protein.ActiveResidues>
 VAL166  LYS551  ARG553  GLY616  TRP617  ASP618  TYR619  PRO620  LYS621  CYS622 
 ASP623  PHE694  ASN695  SER759  ASP760  ASP761  ALA762  ILE779  LEU786  VAL792 
 PHE793  MET794  SER795  GLU796  ALA797  LYS798  CYS799  TRP800  GLU811  SER814 

> <Gold.Protein.RotatedAtoms>
  151.6442  135.1009  160.0147 H   0  0  0  0  0  0  0  0  0  0  0  0  # atno 6907 bound_to 6896
  152.4037  133.6852  159.6346 H   0  0  0  0  0  0  0  0  0  0  0  0  # atno 6908 bound_to 6896
  150.7934  133.8664  159.3287 H   0  0  0  0  0  0  0  0  0  0  0  0  # atno 6909 bound_to 6896
  146.2034  140.3486  142.8415 H   0  0  0  0  0  0  0  0  0  0  0  0  # atno 7974 bound_to 7965
  155.6900  140.0754  157.2452 H   0  0  0  0  0  0  0  0  0  0  0  0  # atno 8008 bound_to 7997
  154.4090  140.1666  156.2128 H   0  0  0  0  0  0  0  0  0  0  0  0  # atno 8009 bound_to 7997
  155.9460  140.3381  155.6370 H   0  0  0  0  0  0  0  0  0  0  0  0  # atno 8010 bound_to 7997
  140.2613  143.3406  152.0623 H   0  0  0  0  0  0  0  0  0  0  0  0  # atno 10167 bound_to 10162
  157.6960  131.0389  150.3654 H   0  0  0  0  0  0  0  0  0  0  0  0  # atno 10718 bound_to 10713
  154.6043  135.5506  153.7406 H   0  0  0  0  0  0  0  0  0  0  0  0  # atno 10763 bound_to 10752
  153.0167  135.6374  154.1670 H   0  0  0  0  0  0  0  0  0  0  0  0  # atno 10764 bound_to 10752
  154.1609  135.2897  155.3089 H   0  0  0  0  0  0  0  0  0  0  0  0  # atno 10765 bound_to 10752
  139.9034  134.8137  156.2295 H   0  0  0  0  0  0  0  0  0  0  0  0  # atno 11005 bound_to 11000
  144.8735  140.7304  143.6032 LP  0  0  0  0  0  0  0  0  0  0  0  0  # atno 17320 bound_to 7965
  145.3406  139.1733  143.4488 LP  0  0  0  0  0  0  0  0  0  0  0  0  # atno 17321 bound_to 7965
  139.5016  144.6717  151.6227 LP  0  0  0  0  0  0  0  0  0  0  0  0  # atno 17342 bound_to 10162
  140.5964  143.9689  150.6357 LP  0  0  0  0  0  0  0  0  0  0  0  0  # atno 17343 bound_to 10162
  156.4085  130.3929  149.6908 LP  0  0  0  0  0  0  0  0  0  0  0  0  # atno 17370 bound_to 10713
  156.4201  130.7764  151.2781 LP  0  0  0  0  0  0  0  0  0  0  0  0  # atno 17371 bound_to 10713
  141.0354  133.6966  156.1503 LP  0  0  0  0  0  0  0  0  0  0  0  0  # atno 17394 bound_to 11000
  140.7034  134.4539  157.5585 LP  0  0  0  0  0  0  0  0  0  0  0  0  # atno 17395 bound_to 11000

$$$$
