AV-unprocessed.smi:3322|AV-procd|sdf|12774|dock5
  -GOLD-   2272019113D 1   1.00000     0.00000
 Structure written by MMmdl.
 39 40  0  0  0  0  0  0  0  0  2 V2000
  148.9106  141.4678  155.4582 C   0  0  0  0  0  0  0  0  0  0  0  0
  150.3345  141.5813  156.0283 C   0  0  1  0  0  0  0  0  0  0  0  0
  150.4356  142.8206  156.8359 N   0  3  0  0  0  0  0  0  0  0  0  0
  151.8032  143.3609  156.9905 C   0  0  0  0  0  0  0  0  0  0  0  0
  151.8345  144.4848  158.0353 C   0  0  0  0  0  0  0  0  0  0  0  0
  152.2908  144.0036  159.3244 N   0  0  0  0  0  0  0  0  0  0  0  0
  152.8235  142.7718  159.6417 C   0  0  0  0  0  0  0  0  0  0  0  0
  153.1051  142.7839  160.9777 C   0  0  0  0  0  0  0  0  0  0  0  0
  152.7021  144.0827  161.3969 C   0  0  0  0  0  0  0  0  0  0  0  0
  152.2149  144.8104  160.4045 N   0  0  0  0  0  0  0  0  0  0  0  0
  150.6808  140.3251  156.8583 C   0  0  0  0  0  0  0  0  0  0  0  0
  150.1639  140.2080  157.9712 O   0  0  0  0  0  0  0  0  0  0  0  0
  151.5243  139.3865  156.3596 N   0  0  0  0  0  0  0  0  0  0  0  0
  152.1252  139.3637  155.0206 C   0  0  0  0  0  0  0  0  0  0  0  0
  151.6241  138.1108  154.2780 C   0  0  0  0  0  0  0  0  0  0  0  0
  151.9493  136.9425  155.0254 O   0  0  0  0  0  0  0  0  0  0  0  0
  151.3896  136.9472  156.3354 C   0  0  0  0  0  0  0  0  0  0  0  0
  151.8978  138.1788  157.1048 C   0  0  0  0  0  0  0  0  0  0  0  0
  148.7958  140.5899  154.8223 H   0  0  0  0  0  0  0  0  0  0  0  0
  148.6630  142.3396  154.8517 H   0  0  0  0  0  0  0  0  0  0  0  0
  148.1669  141.3971  156.2531 H   0  0  0  0  0  0  0  0  0  0  0  0
  151.0396  141.6966  155.2057 H   0  0  0  0  0  0  0  0  0  0  0  0
  149.8771  143.5325  156.3872 H   0  0  0  0  0  0  0  0  0  0  0  0
  152.4847  142.5638  157.2903 H   0  0  0  0  0  0  0  0  0  0  0  0
  152.1501  143.7348  156.0263 H   0  0  0  0  0  0  0  0  0  0  0  0
  152.4930  145.2929  157.7130 H   0  0  0  0  0  0  0  0  0  0  0  0
  150.8398  144.9153  158.1589 H   0  0  0  0  0  0  0  0  0  0  0  0
  152.9576  141.9980  158.8998 H   0  0  0  0  0  0  0  0  0  0  0  0
  153.5332  141.9860  161.5662 H   0  0  0  0  0  0  0  0  0  0  0  0
  152.7490  144.5152  162.3856 H   0  0  0  0  0  0  0  0  0  0  0  0
  151.9055  140.2397  154.4155 H   0  0  0  0  0  0  0  0  0  0  0  0
  153.2115  139.3322  155.1167 H   0  0  0  0  0  0  0  0  0  0  0  0
  150.5462  138.1592  154.1155 H   0  0  0  0  0  0  0  0  0  0  0  0
  152.0923  138.0416  153.2961 H   0  0  0  0  0  0  0  0  0  0  0  0
  150.2999  136.9449  156.2777 H   0  0  0  0  0  0  0  0  0  0  0  0
  151.6850  136.0321  156.8487 H   0  0  0  0  0  0  0  0  0  0  0  0
  152.9835  138.1375  157.2030 H   0  0  0  0  0  0  0  0  0  0  0  0
  151.5041  138.1618  158.1217 H   0  0  0  0  0  0  0  0  0  0  0  0
  150.0482  142.6357  157.7505 H   0  0  0  0  0  0  0  0  0  0  0  0
  1  2  1  0  0  0  0
  1 19  1  0  0  0  0
  1 20  1  0  0  0  0
  1 21  1  0  0  0  0
  2  3  1  0  0  0  0
  2 11  1  0  0  0  0
  2 22  1  0  0  0  0
  3  4  1  0  0  0  0
  3 23  1  0  0  0  0
  3 39  1  0  0  0  0
  4  5  1  0  0  0  0
  4 24  1  0  0  0  0
  4 25  1  0  0  0  0
  5  6  1  0  0  0  0
  5 26  1  0  0  0  0
  5 27  1  0  0  0  0
  6 10  1  0  0  0  0
  6  7  1  0  0  0  0
  7  8  2  0  0  0  0
  7 28  1  0  0  0  0
  8  9  1  0  0  0  0
  8 29  1  0  0  0  0
  9 10  2  0  0  0  0
  9 30  1  0  0  0  0
 11 12  2  0  0  0  0
 11 13  1  0  0  0  0
 13 18  1  0  0  0  0
 13 14  1  0  0  0  0
 14 15  1  0  0  0  0
 14 31  1  0  0  0  0
 14 32  1  0  0  0  0
 15 16  1  0  0  0  0
 15 33  1  0  0  0  0
 15 34  1  0  0  0  0
 16 17  1  0  0  0  0
 17 18  1  0  0  0  0
 17 35  1  0  0  0  0
 17 36  1  0  0  0  0
 18 37  1  0  0  0  0
 18 38  1  0  0  0  0
M  CHG  1   3   1
M  END
> <s_m_source_file>
AV-unprocessed.smi

> <i_m_source_file_index>
3322

> <i_lp_mmshare_version>
43012

> <i_f3d_flags>
0

> <s_epik_input>
W0NIMl0xW0NIMl1PW0NIMl1bQ0gyXU4xQyg9TylbQ0BIXShbQ0gzXSlbTkhdW0NIMl1bQ0gyXW4yW2NIXVtjSF1bY0hdbjI=

> <s_epik_cmdline>
J2VwaWtfcHl0aG9uJywgJy1waCcsICc3LjAnLCAnLXRuJywgJzgnLCAnLW1hJywgJzIwMCcsICctbWV0YWxfYmluZGluZycsICctaW1hZScsICc8aW5maWxlLm1hZT4nLCAnLW9tYWUnLCAnPG91dGZpbGUubWFlPic=

> <r_lp_tautomer_probability>
1

> <r_epik_Ionization_Penalty>
0.3254

> <r_epik_Ionization_Penalty_Charging>
0.325398

> <r_epik_Ionization_Penalty_Neutral>
2.29478e-06

> <r_epik_State_Penalty>
0.320187

> <r_epik_Charging_Adjusted_Penalty>
0.645585

> <i_epik_Tot_Q>
1

> <i_epik_Tot_abs_Q>
1

> <r_epik_Metal_State_Penalty>
0.320558

> <b_epik_Metal_Only>
0

> <s_lp_Force_Field>
OPLS_2005

> <r_lp_Energy>
25.7531

> <b_lp_Chiralities_Consistent>
1

> <s_lp_Variant>
AV-unprocessed.smi:3322-2

> <Gold.Version>
5.8.1

> <Gold.Id.Protein>
6NUR|6NUR_protein|mol2

> <Gold.PLP.Fitness>
48.1154

> <Gold.PLP.PLP>
-41.0803

> <Gold.PLP.part.hbond>
-1.9837

> <Gold.PLP.part.metal>
0.0000

> <Gold.PLP.part.buried>
-6.5547

> <Gold.PLP.part.nonpolar>
-33.9184

> <Gold.PLP.part.repulsive>
0.2568

> <Gold.PLP.ligand.clash>
0.0000

> <Gold.PLP.ligand.torsion>
0.9314

> <Gold.PLP.Chemscore.Hbond>
2.9600

> <Gold.PLP.Chemscore.CHOScore>
0.0000

> <Gold.PLP.Chemscore.Metal>
0.0000

> <Gold.Chemscore.Hbonds>
donor molecule, donor type, donor heavy atom, donor atom, acceptor molecule, acceptor atom, score
      L1  H     3    23       P1  8028  2.00
      P1  H 10752 10765       L1    16  1.00

> <Gold.PLP.Chemscore.Internal.Correction>
0.0180

> <Gold.Rescore>
     Score         DG    S(hbond)    S(metal)    S(lipo)     H(rot)  DE(clash)    DE(int)     intcor
     17.23     -18.48       1.98        0.00      96.45       1.91       0.10       1.14       ----

> <Gold.Chemscore.Fitness>
17.2349

> <Gold.Chemscore.DG>
-18.4801

> <Gold.Chemscore.ZeroCoef>
-5.4800

> <Gold.Chemscore.Hbond>
1.9772

> <Gold.Chemscore.Metal>
0.0000

> <Gold.Chemscore.Lipo>
96.4509

> <Gold.Chemscore.Internal_Hbond>
0.0000

> <Gold.Chemscore.DEClash>
0.1013

> <Gold.Chemscore.DEInternal>
1.1439

> <Gold.Chemscore.Rot>
1.9095

> <Gold.Chemscore.Internal.Correction>
   9.000000E+99

> <Gold.Chemscore.Hbonds>
donor molecule, donor type, donor heavy atom, donor atom, acceptor molecule, acceptor atom, score
      L1  H     3    23       P1  8028  1.00
      P1  H 10752 10765       L1    16  0.88

> <Gold.Chemscore.Hbond.Weighted>
-6.6037

> <Gold.Chemscore.Metal.Weighted>
-0.0000

> <Gold.Chemscore.Lipo.Weighted>
-11.2848

> <Gold.Chemscore.Internal_Hbond.Weighted>
0.0000

> <Gold.Chemscore.DEClash.Weighted>
0.1013

> <Gold.Chemscore.DEInternal.Weighted>
1.1439

> <Gold.Chemscore.Rot.Weighted>
4.8884

> <Gold.Chemscore.Internal.Correction.Weighted>
   9.000000E+99

> <Gold.Protein.RotatedTorsions>
[ 6907 6896 6895 6894 ] final  -13.62 input  -60.11 | X-H torsion
[ 7974 7965 7964 7962 ] final   88.88 input  175.53 | X-H torsion
[ 8008 7997 7996 7995 ] final -159.44 input   59.86 | X-H torsion
[ 10167 10162 10161 10158 ] final -154.11 input  -65.29 | X-H torsion
[ 10718 10713 10712 10709 ] final  100.97 input   66.30 | X-H torsion
[ 10763 10752 10751 10750 ] final -175.97 input  -60.55 | X-H torsion
[ 11005 11000 10999 10996 ] final   13.48 input  -57.11 | X-H torsion

> <Gold.Protein.ActiveResidues>
 VAL166  LYS551  ARG553  GLY616  TRP617  ASP618  TYR619  PRO620  LYS621  CYS622 
 ASP623  PHE694  ASN695  SER759  ASP760  ASP761  ALA762  ILE779  LEU786  VAL792 
 PHE793  MET794  SER795  GLU796  ALA797  LYS798  CYS799  TRP800  GLU811  SER814 

> <Gold.Protein.RotatedAtoms>
  151.3521  135.0886  159.9406 H   0  0  0  0  0  0  0  0  0  0  0  0  # atno 6907 bound_to 6896
  152.5184  133.9342  159.7606 H   0  0  0  0  0  0  0  0  0  0  0  0  # atno 6908 bound_to 6896
  150.9720  133.6280  159.2766 H   0  0  0  0  0  0  0  0  0  0  0  0  # atno 6909 bound_to 6896
  145.5398  139.2288  143.2572 H   0  0  0  0  0  0  0  0  0  0  0  0  # atno 7974 bound_to 7965
  155.7625  140.0841  157.2148 H   0  0  0  0  0  0  0  0  0  0  0  0  # atno 8008 bound_to 7997
  154.4002  140.1540  156.2906 H   0  0  0  0  0  0  0  0  0  0  0  0  # atno 8009 bound_to 7997
  155.8825  140.3420  155.5901 H   0  0  0  0  0  0  0  0  0  0  0  0  # atno 8010 bound_to 7997
  139.7040  143.9216  152.2441 H   0  0  0  0  0  0  0  0  0  0  0  0  # atno 10167 bound_to 10162
  157.6841  131.0713  150.5181 H   0  0  0  0  0  0  0  0  0  0  0  0  # atno 10718 bound_to 10713
  154.5780  135.2833  155.0761 H   0  0  0  0  0  0  0  0  0  0  0  0  # atno 10763 bound_to 10752
  154.2108  135.6408  153.5118 H   0  0  0  0  0  0  0  0  0  0  0  0  # atno 10764 bound_to 10752
  153.0079  135.5491  154.6425 H   0  0  0  0  0  0  0  0  0  0  0  0  # atno 10765 bound_to 10752
  140.4802  134.0943  155.7749 H   0  0  0  0  0  0  0  0  0  0  0  0  # atno 11005 bound_to 11000
  146.1989  140.6217  142.9111 LP  0  0  0  0  0  0  0  0  0  0  0  0  # atno 17320 bound_to 7965
  144.7583  140.5360  143.6753 LP  0  0  0  0  0  0  0  0  0  0  0  0  # atno 17321 bound_to 7965
  139.9066  144.6881  150.8607 LP  0  0  0  0  0  0  0  0  0  0  0  0  # atno 17342 bound_to 10162
  140.7717  143.3474  151.2084 LP  0  0  0  0  0  0  0  0  0  0  0  0  # atno 17343 bound_to 10162
  156.5496  130.4228  149.6114 LP  0  0  0  0  0  0  0  0  0  0  0  0  # atno 17370 bound_to 10713
  156.2914  130.7126  151.1976 LP  0  0  0  0  0  0  0  0  0  0  0  0  # atno 17371 bound_to 10713
  141.1535  133.8926  157.2038 LP  0  0  0  0  0  0  0  0  0  0  0  0  # atno 17394 bound_to 11000
  139.9831  135.0091  156.9797 LP  0  0  0  0  0  0  0  0  0  0  0  0  # atno 17395 bound_to 11000

$$$$
