AV-unprocessed.smi:247|AV-procd|sdf|1891|dock3
  -GOLD-   2262020553D 1   1.00000     0.00000
 Structure written by MMmdl.
 61 65  0  0  0  0  0  0  0  0  1 V2000
  146.0990  140.2077  154.0532 O   0  0  0  0  0  0  0  0  0  0  0  0
  147.2426  139.7579  153.3533 C   0  0  0  0  0  0  0  0  0  0  0  0
  148.4091  139.3280  154.2859 C   0  0  0  0  0  0  0  0  0  0  0  0
  147.8902  138.2150  155.2506 C   0  0  0  0  0  0  0  0  0  0  0  0
  147.4403  136.9918  154.6006 N   0  0  0  0  0  0  0  0  0  0  0  0
  148.0443  135.7565  154.6598 C   0  0  0  0  0  0  0  0  0  0  0  0
  147.4440  134.8109  153.9915 N   0  0  0  0  0  0  0  0  0  0  0  0
  146.3239  135.4307  153.4482 C   0  0  0  0  0  0  0  0  0  0  0  0
  145.2483  134.9963  152.6189 C   0  0  0  0  0  0  0  0  0  0  0  0
  145.1261  133.7216  152.1591 N   0  0  0  0  0  0  0  0  0  0  0  0
  144.2019  133.4474  151.0651 C   0  0  0  0  0  0  0  0  0  0  0  0
  144.7885  132.2560  150.3090 C   0  0  0  0  0  0  0  0  0  0  0  0
  146.2553  132.2575  150.7321 C   0  0  0  0  0  0  0  0  0  0  0  0
  146.2182  132.7439  152.1925 C   0  0  2  0  0  0  0  0  0  0  0  0
  145.9646  131.6022  153.2351 C   0  0  1  0  0  0  0  0  0  0  0  0
  146.8767  130.3770  152.9772 C   0  0  0  0  0  0  0  0  0  0  0  0
  148.2424  130.7243  153.1934 O   0  0  0  0  0  0  0  0  0  0  0  0
  148.5283  131.0618  154.5475 C   0  0  0  0  0  0  0  0  0  0  0  0
  147.6771  132.2607  154.9958 C   0  0  0  0  0  0  0  0  0  0  0  0
  146.1935  131.9767  154.7248 C   0  0  1  0  0  0  0  0  0  0  0  0
  145.3809  133.0355  155.1883 O   0  0  0  0  0  0  0  0  0  0  0  0
  144.3205  135.9268  152.2728 N   0  0  0  0  0  0  0  0  0  0  0  0
  144.4226  137.1855  152.7071 C   0  0  0  0  0  0  0  0  0  0  0  0
  145.3628  137.7254  153.4829 N   0  0  0  0  0  0  0  0  0  0  0  0
  146.3066  136.8037  153.8278 C   0  0  0  0  0  0  0  0  0  0  0  0
  149.6116  138.8449  153.4339 C   0  0  0  0  0  0  0  0  0  0  0  0
  150.8786  138.6261  154.2794 C   0  0  0  0  0  0  0  0  0  0  0  0
  151.2151  139.8268  154.9637 O   0  0  0  0  0  0  0  0  0  0  0  0
  150.2099  140.2491  155.8776 C   0  0  0  0  0  0  0  0  0  0  0  0
  148.8948  140.5365  155.1277 C   0  0  0  0  0  0  0  0  0  0  0  0
  145.3302  139.8600  153.6279 H   0  0  0  0  0  0  0  0  0  0  0  0
  146.9415  138.9264  152.7153 H   0  0  0  0  0  0  0  0  0  0  0  0
  147.5531  140.5675  152.6929 H   0  0  0  0  0  0  0  0  0  0  0  0
  148.6502  137.9306  155.9766 H   0  0  0  0  0  0  0  0  0  0  0  0
  147.0594  138.6011  155.8430 H   0  0  0  0  0  0  0  0  0  0  0  0
  148.9559  135.5781  155.2111 H   0  0  0  0  0  0  0  0  0  0  0  0
  143.2010  133.2294  151.4385 H   0  0  0  0  0  0  0  0  0  0  0  0
  144.1402  134.3134  150.4046 H   0  0  0  0  0  0  0  0  0  0  0  0
  144.3084  131.3336  150.6375 H   0  0  0  0  0  0  0  0  0  0  0  0
  144.6582  132.3362  149.2295 H   0  0  0  0  0  0  0  0  0  0  0  0
  146.7389  131.2980  150.5666 H   0  0  0  0  0  0  0  0  0  0  0  0
  146.7965  132.9881  150.1291 H   0  0  0  0  0  0  0  0  0  0  0  0
  147.1805  133.2049  152.4112 H   0  0  0  0  0  0  0  0  0  0  0  0
  144.9288  131.2763  153.1331 H   0  0  0  0  0  0  0  0  0  0  0  0
  146.6035  129.5509  153.6359 H   0  0  0  0  0  0  0  0  0  0  0  0
  146.7687  129.9846  151.9689 H   0  0  0  0  0  0  0  0  0  0  0  0
  148.3433  130.1980  155.1879 H   0  0  0  0  0  0  0  0  0  0  0  0
  149.5881  131.3002  154.6364 H   0  0  0  0  0  0  0  0  0  0  0  0
  147.8402  132.4535  156.0566 H   0  0  0  0  0  0  0  0  0  0  0  0
  147.9976  133.1571  154.4663 H   0  0  0  0  0  0  0  0  0  0  0  0
  145.9062  131.1172  155.3326 H   0  0  0  0  0  0  0  0  0  0  0  0
  144.4754  132.7817  155.0969 H   0  0  0  0  0  0  0  0  0  0  0  0
  143.6383  137.8550  152.3856 H   0  0  0  0  0  0  0  0  0  0  0  0
  149.3651  137.9410  152.8782 H   0  0  0  0  0  0  0  0  0  0  0  0
  149.8521  139.5921  152.6772 H   0  0  0  0  0  0  0  0  0  0  0  0
  150.7542  137.8080  154.9890 H   0  0  0  0  0  0  0  0  0  0  0  0
  151.7114  138.3521  153.6316 H   0  0  0  0  0  0  0  0  0  0  0  0
  150.0754  139.5024  156.6604 H   0  0  0  0  0  0  0  0  0  0  0  0
  150.5549  141.1558  156.3747 H   0  0  0  0  0  0  0  0  0  0  0  0
  149.0715  141.3983  154.4837 H   0  0  0  0  0  0  0  0  0  0  0  0
  148.1227  140.8450  155.8334 H   0  0  0  0  0  0  0  0  0  0  0  0
  1  2  1  0  0  0  0
  1 31  1  0  0  0  0
  2  3  1  0  0  0  0
  2 32  1  0  0  0  0
  2 33  1  0  0  0  0
  3 30  1  0  0  0  0
  3  4  1  0  0  0  0
  3 26  1  0  0  0  0
  4  5  1  0  0  0  0
  4 34  1  0  0  0  0
  4 35  1  0  0  0  0
  5 25  1  0  0  0  0
  5  6  1  0  0  0  0
  6  7  2  0  0  0  0
  6 36  1  0  0  0  0
  7  8  1  0  0  0  0
  8 25  2  0  0  0  0
  8  9  1  0  0  0  0
  9 10  1  0  0  0  0
  9 22  2  0  0  0  0
 10 14  1  0  0  0  0
 10 11  1  0  0  0  0
 11 12  1  0  0  0  0
 11 37  1  0  0  0  0
 11 38  1  0  0  0  0
 12 13  1  0  0  0  0
 12 39  1  0  0  0  0
 12 40  1  0  0  0  0
 13 14  1  0  0  0  0
 13 41  1  0  0  0  0
 13 42  1  0  0  0  0
 14 15  1  0  0  0  0
 14 43  1  0  0  0  0
 15 20  1  0  0  0  0
 15 16  1  0  0  0  0
 15 44  1  0  0  0  0
 16 17  1  0  0  0  0
 16 45  1  0  0  0  0
 16 46  1  0  0  0  0
 17 18  1  0  0  0  0
 18 19  1  0  0  0  0
 18 47  1  0  0  0  0
 18 48  1  0  0  0  0
 19 20  1  0  0  0  0
 19 49  1  0  0  0  0
 19 50  1  0  0  0  0
 20 21  1  0  0  0  0
 20 51  1  0  0  0  0
 21 52  1  0  0  0  0
 22 23  1  0  0  0  0
 23 24  2  0  0  0  0
 23 53  1  0  0  0  0
 24 25  1  0  0  0  0
 26 27  1  0  0  0  0
 26 54  1  0  0  0  0
 26 55  1  0  0  0  0
 27 28  1  0  0  0  0
 27 56  1  0  0  0  0
 27 57  1  0  0  0  0
 28 29  1  0  0  0  0
 29 30  1  0  0  0  0
 29 58  1  0  0  0  0
 29 59  1  0  0  0  0
 30 60  1  0  0  0  0
 30 61  1  0  0  0  0
M  END
> <s_m_source_file>
AV-unprocessed.smi

> <i_m_source_file_index>
247

> <i_lp_mmshare_version>
43012

> <i_f3d_flags>
0

> <s_epik_input>
W0NIMl0xW0NIMl1PW0NIMl1bQ0gyXUMxKFtDSDJdW09IXSlbQ0gyXW4oW2NIXW4yKWMoYzIzKW5bY0hdbmMzTjRbQ0gyXVtDSDJdW0NIMl1bQ0BIXTRbQ0BASF01W0NIMl1PW0NIMl1bQ0gyXVtDQEhdNVtPSF0=

> <s_epik_cmdline>
J2VwaWtfcHl0aG9uJywgJy1waCcsICc3LjAnLCAnLXRuJywgJzgnLCAnLW1hJywgJzIwMCcsICctbWV0YWxfYmluZGluZycsICctaW1hZScsICc8aW5maWxlLm1hZT4nLCAnLW9tYWUnLCAnPG91dGZpbGUubWFlPic=

> <r_lp_tautomer_probability>
1

> <r_epik_Ionization_Penalty>
0.00362597

> <r_epik_Ionization_Penalty_Charging>
0

> <r_epik_Ionization_Penalty_Neutral>
0.00362597

> <r_epik_State_Penalty>
0.00241433

> <r_epik_Charging_Adjusted_Penalty>
0.00241433

> <i_epik_Tot_Q>
0

> <i_epik_Tot_abs_Q>
0

> <r_epik_Metal_State_Penalty>
-0

> <b_epik_Metal_Only>
0

> <s_lp_Force_Field>
OPLS_2005

> <r_lp_Energy>
63.0173

> <b_lp_Chiralities_Consistent>
1

> <s_lp_Variant>
AV-unprocessed.smi:247-4

> <Gold.Version>
5.8.1

> <Gold.Id.Protein>
6NUR|6NUR_protein|mol2

> <Gold.PLP.Fitness>
42.2145

> <Gold.PLP.PLP>
-29.6202

> <Gold.PLP.part.hbond>
-3.0000

> <Gold.PLP.part.metal>
0.0000

> <Gold.PLP.part.buried>
3.4695

> <Gold.PLP.part.nonpolar>
-30.5635

> <Gold.PLP.part.repulsive>
2.0817

> <Gold.PLP.ligand.clash>
0.0000

> <Gold.PLP.ligand.torsion>
0.3983

> <Gold.PLP.Chemscore.Hbond>
2.7130

> <Gold.PLP.Chemscore.CHOScore>
1.6479

> <Gold.PLP.Chemscore.Metal>
0.0000

> <Gold.Chemscore.Hbonds>
donor molecule, donor type, donor heavy atom, donor atom, acceptor molecule, acceptor atom, score
      L1  H     1    31       P1 10175  0.66
      L1  H    21    52       P1 10957  0.86
      P1  H  7989  7998       L1    28  0.95
      L1  C    23    53       P1 10171  0.44
      L1  C    23    53       P1 10175  0.85

> <Gold.PLP.Chemscore.Internal.Correction>
0.3082

> <Gold.Rescore>
     Score         DG    S(hbond)    S(metal)    S(lipo)     H(rot)  DE(clash)    DE(int)     intcor
      8.04     -15.58       2.25        0.00      86.54       2.94       1.75       5.79       ----

> <Gold.Chemscore.Fitness>
8.0393

> <Gold.Chemscore.DG>
-15.5838

> <Gold.Chemscore.ZeroCoef>
-5.4800

> <Gold.Chemscore.Hbond>
2.2487

> <Gold.Chemscore.Metal>
0.0000

> <Gold.Chemscore.Lipo>
86.5415

> <Gold.Chemscore.Internal_Hbond>
0.0000

> <Gold.Chemscore.DEClash>
1.7549

> <Gold.Chemscore.DEInternal>
5.7896

> <Gold.Chemscore.Rot>
2.9423

> <Gold.Chemscore.Internal.Correction>
   9.000000E+99

> <Gold.Chemscore.Hbonds>
donor molecule, donor type, donor heavy atom, donor atom, acceptor molecule, acceptor atom, score
      L1  H     1    31       P1 10175  0.65
      L1  H    21    52       P1 10957  0.84
      P1  H  7989  7998       L1    28  0.21

> <Gold.Chemscore.Hbond.Weighted>
-7.5107

> <Gold.Chemscore.Metal.Weighted>
-0.0000

> <Gold.Chemscore.Lipo.Weighted>
-10.1254

> <Gold.Chemscore.Internal_Hbond.Weighted>
0.0000

> <Gold.Chemscore.DEClash.Weighted>
1.7549

> <Gold.Chemscore.DEInternal.Weighted>
5.7896

> <Gold.Chemscore.Rot.Weighted>
7.5323

> <Gold.Chemscore.Internal.Correction.Weighted>
   9.000000E+99

> <Gold.Protein.RotatedTorsions>
[ 6907 6896 6895 6894 ] final  -27.13 input  -60.11 | X-H torsion
[ 7974 7965 7964 7962 ] final   -8.50 input  175.53 | X-H torsion
[ 8008 7997 7996 7995 ] final  173.13 input   59.86 | X-H torsion
[ 10167 10162 10161 10158 ] final -119.60 input  -65.29 | X-H torsion
[ 10718 10713 10712 10709 ] final  -43.58 input   66.30 | X-H torsion
[ 10763 10752 10751 10750 ] final    8.83 input  -60.55 | X-H torsion
[ 11005 11000 10999 10996 ] final -174.51 input  -57.11 | X-H torsion

> <Gold.Protein.ActiveResidues>
 VAL166  LYS551  ARG553  GLY616  TRP617  ASP618  TYR619  PRO620  LYS621  CYS622 
 ASP623  PHE694  ASN695  SER759  ASP760  ASP761  ALA762  ILE779  LEU786  VAL792 
 PHE793  MET794  SER795  GLU796  ALA797  LYS798  CYS799  TRP800  GLU811  SER814 

> <Gold.Protein.RotatedAtoms>
  151.1513  135.0228  159.8669 H   0  0  0  0  0  0  0  0  0  0  0  0  # atno 6907 bound_to 6896
  152.5452  134.1386  159.8479 H   0  0  0  0  0  0  0  0  0  0  0  0  # atno 6908 bound_to 6896
  151.1471  133.4886  159.2628 H   0  0  0  0  0  0  0  0  0  0  0  0  # atno 6909 bound_to 6896
  146.2278  140.2478  142.8346 H   0  0  0  0  0  0  0  0  0  0  0  0  # atno 7974 bound_to 7965
  156.1106  140.1468  156.9344 H   0  0  0  0  0  0  0  0  0  0  0  0  # atno 8008 bound_to 7997
  154.4764  140.0893  156.7315 H   0  0  0  0  0  0  0  0  0  0  0  0  # atno 8009 bound_to 7997
  155.4604  140.3438  155.4314 H   0  0  0  0  0  0  0  0  0  0  0  0  # atno 8010 bound_to 7997
  140.0449  143.5117  152.2111 H   0  0  0  0  0  0  0  0  0  0  0  0  # atno 10167 bound_to 10162
  156.2475  130.4185  149.8688 H   0  0  0  0  0  0  0  0  0  0  0  0  # atno 10718 bound_to 10713
  153.2207  135.6881  153.8004 H   0  0  0  0  0  0  0  0  0  0  0  0  # atno 10763 bound_to 10752
  153.7203  135.3268  155.3266 H   0  0  0  0  0  0  0  0  0  0  0  0  # atno 10764 bound_to 10752
  154.8268  135.4611  154.1053 H   0  0  0  0  0  0  0  0  0  0  0  0  # atno 10765 bound_to 10752
  140.4738  134.6140  157.4892 H   0  0  0  0  0  0  0  0  0  0  0  0  # atno 11005 bound_to 11000
  144.9435  140.8103  143.5616 LP  0  0  0  0  0  0  0  0  0  0  0  0  # atno 17320 bound_to 7965
  145.2432  139.2063  143.4982 LP  0  0  0  0  0  0  0  0  0  0  0  0  # atno 17321 bound_to 7965
  139.5990  144.7576  151.3217 LP  0  0  0  0  0  0  0  0  0  0  0  0  # atno 17342 bound_to 10162
  140.7243  143.7047  150.7816 LP  0  0  0  0  0  0  0  0  0  0  0  0  # atno 17343 bound_to 10162
  156.6248  130.8641  151.3483 LP  0  0  0  0  0  0  0  0  0  0  0  0  # atno 17370 bound_to 10713
  157.7201  130.9547  150.1404 LP  0  0  0  0  0  0  0  0  0  0  0  0  # atno 17371 bound_to 10713
  139.9869  134.7047  155.9758 LP  0  0  0  0  0  0  0  0  0  0  0  0  # atno 17394 bound_to 11000
  141.1564  133.6542  156.4176 LP  0  0  0  0  0  0  0  0  0  0  0  0  # atno 17395 bound_to 11000

$$$$
