AV-unprocessed.smi:2295|AV-procd|sdf|9218|dock3
  -GOLD-   2272012433D 1   1.00000     0.00000
 Structure written by MMmdl.
 37 38  0  0  0  0  0  0  0  0  1 V2000
  152.1031  145.7027  159.9033 C   0  0  0  0  0  0  0  0  0  0  0  0
  152.1779  144.2658  159.4311 C   0  0  0  0  0  0  0  0  0  0  0  0
  151.4091  143.8227  158.3380 C   0  0  0  0  0  0  0  0  0  0  0  0
  151.5242  142.4741  157.9475 C   0  0  0  0  0  0  0  0  0  0  0  0
  150.7232  141.9275  156.7847 C   0  0  0  0  0  0  0  0  0  0  0  0
  152.3356  141.5935  158.5712 N   0  0  0  0  0  0  0  0  0  0  0  0
  153.0810  142.0088  159.6252 C   0  0  0  0  0  0  0  0  0  0  0  0
  153.9604  141.1612  160.3500 N   0  0  0  0  0  0  0  0  0  0  0  0
  154.3389  139.9061  160.0501 C   0  0  0  0  0  0  0  0  0  0  0  0
  153.9926  139.2780  159.0490 O   0  0  0  0  0  0  0  0  0  0  0  0
  155.1602  139.4114  160.9881 N   0  0  0  0  0  0  0  0  0  0  0  0
  155.7632  138.0816  160.9726 C   0  0  0  0  0  0  0  0  0  0  0  0
  155.3558  137.2482  162.2021 C   0  0  2  0  0  0  0  0  0  0  0  0
  153.8618  137.3796  162.5302 C   0  0  0  0  0  0  0  0  0  0  0  0
  153.6879  136.9985  164.0008 C   0  0  0  0  0  0  0  0  0  0  0  0
  154.7976  137.7206  164.7643 C   0  0  0  0  0  0  0  0  0  0  0  0
  156.2663  137.7138  163.7061 S   0  0  0  0  0  0  0  0  0  0  0  0
  153.0224  143.3445  160.0828 C   0  0  0  0  0  0  0  0  0  0  0  0
  151.4488  146.2966  159.2644 H   0  0  0  0  0  0  0  0  0  0  0  0
  153.0940  146.1571  159.8909 H   0  0  0  0  0  0  0  0  0  0  0  0
  151.7170  145.7453  160.9219 H   0  0  0  0  0  0  0  0  0  0  0  0
  150.7487  144.4974  157.8129 H   0  0  0  0  0  0  0  0  0  0  0  0
  150.1634  142.7172  156.2831 H   0  0  0  0  0  0  0  0  0  0  0  0
  150.0145  141.1765  157.1348 H   0  0  0  0  0  0  0  0  0  0  0  0
  151.3838  141.4616  156.0530 H   0  0  0  0  0  0  0  0  0  0  0  0
  154.3433  141.5551  161.1963 H   0  0  0  0  0  0  0  0  0  0  0  0
  155.3868  140.0003  161.7759 H   0  0  0  0  0  0  0  0  0  0  0  0
  155.5262  137.5456  160.0519 H   0  0  0  0  0  0  0  0  0  0  0  0
  156.8448  138.2190  160.9711 H   0  0  0  0  0  0  0  0  0  0  0  0
  155.5708  136.1949  162.0164 H   0  0  0  0  0  0  0  0  0  0  0  0
  153.5378  138.4120  162.3893 H   0  0  0  0  0  0  0  0  0  0  0  0
  153.2499  136.7578  161.8761 H   0  0  0  0  0  0  0  0  0  0  0  0
  152.6990  137.2627  164.3768 H   0  0  0  0  0  0  0  0  0  0  0  0
  153.8036  135.9200  164.1159 H   0  0  0  0  0  0  0  0  0  0  0  0
  154.5137  138.7579  164.9446 H   0  0  0  0  0  0  0  0  0  0  0  0
  155.0051  137.2580  165.7293 H   0  0  0  0  0  0  0  0  0  0  0  0
  153.6203  143.6628  160.9248 H   0  0  0  0  0  0  0  0  0  0  0  0
  1  2  1  0  0  0  0
  1 19  1  0  0  0  0
  1 20  1  0  0  0  0
  1 21  1  0  0  0  0
  2 18  1  0  0  0  0
  2  3  2  0  0  0  0
  3  4  1  0  0  0  0
  3 22  1  0  0  0  0
  4  5  1  0  0  0  0
  4  6  2  0  0  0  0
  5 23  1  0  0  0  0
  5 24  1  0  0  0  0
  5 25  1  0  0  0  0
  6  7  1  0  0  0  0
  7  8  1  0  0  0  0
  7 18  2  0  0  0  0
  8  9  1  0  0  0  0
  8 26  1  0  0  0  0
  9 10  2  0  0  0  0
  9 11  1  0  0  0  0
 11 12  1  0  0  0  0
 11 27  1  0  0  0  0
 12 13  1  0  0  0  0
 12 28  1  0  0  0  0
 12 29  1  0  0  0  0
 13 17  1  0  0  0  0
 13 14  1  0  0  0  0
 13 30  1  0  0  0  0
 14 15  1  0  0  0  0
 14 31  1  0  0  0  0
 14 32  1  0  0  0  0
 15 16  1  0  0  0  0
 15 33  1  0  0  0  0
 15 34  1  0  0  0  0
 16 17  1  0  0  0  0
 16 35  1  0  0  0  0
 16 36  1  0  0  0  0
 18 37  1  0  0  0  0
M  END
> <s_m_source_file>
AV-unprocessed.smi

> <i_m_source_file_index>
2295

> <i_lp_mmshare_version>
43012

> <i_f3d_flags>
0

> <s_epik_input>
W0NIM11jMVtjSF1jKFtDSDNdKW5jKFtjSF0xKVtOSF1DKD1PKVtOSF1bQ0gyXVtDQEBIXTJbQ0gyXVtDSDJdW0NIMl1TMg==

> <s_epik_cmdline>
J2VwaWtfcHl0aG9uJywgJy1waCcsICc3LjAnLCAnLXRuJywgJzgnLCAnLW1hJywgJzIwMCcsICctbWV0YWxfYmluZGluZycsICctaW1hZScsICc8aW5maWxlLm1hZT4nLCAnLW9tYWUnLCAnPG91dGZpbGUubWFlPic=

> <r_lp_tautomer_probability>
1

> <r_epik_Ionization_Penalty>
0.000247769

> <r_epik_Ionization_Penalty_Charging>
0

> <r_epik_Ionization_Penalty_Neutral>
0.000247769

> <r_epik_State_Penalty>
-0

> <r_epik_Charging_Adjusted_Penalty>
0

> <i_epik_Tot_Q>
0

> <i_epik_Tot_abs_Q>
0

> <r_epik_Metal_State_Penalty>
-0

> <b_epik_Metal_Only>
0

> <s_lp_Force_Field>
OPLS_2005

> <r_lp_Energy>
13.4664

> <b_lp_Chiralities_Consistent>
1

> <s_lp_Variant>
AV-unprocessed.smi:2295-1

> <Gold.Version>
5.8.1

> <Gold.Id.Protein>
6NUR|6NUR_protein|mol2

> <Gold.PLP.Fitness>
42.9621

> <Gold.PLP.PLP>
-40.2866

> <Gold.PLP.part.hbond>
-1.0000

> <Gold.PLP.part.metal>
0.0000

> <Gold.PLP.part.buried>
-5.6058

> <Gold.PLP.part.nonpolar>
-33.6174

> <Gold.PLP.part.repulsive>
0.0619

> <Gold.PLP.ligand.clash>
0.0000

> <Gold.PLP.ligand.torsion>
0.1626

> <Gold.PLP.Chemscore.Hbond>
1.0000

> <Gold.PLP.Chemscore.CHOScore>
0.0000

> <Gold.PLP.Chemscore.Metal>
0.0000

> <Gold.Chemscore.Hbonds>
donor molecule, donor type, donor heavy atom, donor atom, acceptor molecule, acceptor atom, score
      P1  H  7997  8008       L1    10  0.65

> <Gold.PLP.Chemscore.Internal.Correction>
0.0006

> <Gold.Rescore>
     Score         DG    S(hbond)    S(metal)    S(lipo)     H(rot)  DE(clash)    DE(int)     intcor
     16.51     -17.82       1.00        0.00     102.64       1.17       0.00       1.31       ----

> <Gold.Chemscore.Fitness>
16.5093

> <Gold.Chemscore.DG>
-17.8231

> <Gold.Chemscore.ZeroCoef>
-5.4800

> <Gold.Chemscore.Hbond>
0.9975

> <Gold.Chemscore.Metal>
0.0000

> <Gold.Chemscore.Lipo>
102.6399

> <Gold.Chemscore.Internal_Hbond>
0.0000

> <Gold.Chemscore.DEClash>
0.0021

> <Gold.Chemscore.DEInternal>
1.3117

> <Gold.Chemscore.Rot>
1.1709

> <Gold.Chemscore.Internal.Correction>
   9.000000E+99

> <Gold.Chemscore.Hbonds>
donor molecule, donor type, donor heavy atom, donor atom, acceptor molecule, acceptor atom, score
      P1  H  7997  8008       L1    10  0.60

> <Gold.Chemscore.Hbond.Weighted>
-3.3318

> <Gold.Chemscore.Metal.Weighted>
-0.0000

> <Gold.Chemscore.Lipo.Weighted>
-12.0089

> <Gold.Chemscore.Internal_Hbond.Weighted>
0.0000

> <Gold.Chemscore.DEClash.Weighted>
0.0021

> <Gold.Chemscore.DEInternal.Weighted>
1.3117

> <Gold.Chemscore.Rot.Weighted>
2.9975

> <Gold.Chemscore.Internal.Correction.Weighted>
   9.000000E+99

> <Gold.Protein.RotatedTorsions>
[ 6907 6896 6895 6894 ] final -149.52 input  -60.11 | X-H torsion
[ 7974 7965 7964 7962 ] final  -53.60 input  175.53 | X-H torsion
[ 8008 7997 7996 7995 ] final  -94.71 input   59.86 | X-H torsion
[ 10167 10162 10161 10158 ] final    2.24 input  -65.29 | X-H torsion
[ 10718 10713 10712 10709 ] final  -43.58 input   66.30 | X-H torsion
[ 10763 10752 10751 10750 ] final  141.52 input  -60.55 | X-H torsion
[ 11005 11000 10999 10996 ] final -139.76 input  -57.11 | X-H torsion

> <Gold.Protein.ActiveResidues>
 VAL166  LYS551  ARG553  GLY616  TRP617  ASP618  TYR619  PRO620  LYS621  CYS622 
 ASP623  PHE694  ASN695  SER759  ASP760  ASP761  ALA762  ILE779  LEU786  VAL792 
 PHE793  MET794  SER795  GLU796  ALA797  LYS798  CYS799  TRP800  GLU811  SER814 

> <Gold.Protein.RotatedAtoms>
  151.1853  133.4700  159.2594 H   0  0  0  0  0  0  0  0  0  0  0  0  # atno 6907 bound_to 6896
  151.1218  135.0083  159.8552 H   0  0  0  0  0  0  0  0  0  0  0  0  # atno 6908 bound_to 6896
  152.5456  134.1763  159.8670 H   0  0  0  0  0  0  0  0  0  0  0  0  # atno 6909 bound_to 6896
  145.8950  140.8040  142.9772 H   0  0  0  0  0  0  0  0  0  0  0  0  # atno 7974 bound_to 7965
  154.7519  140.0487  157.0901 H   0  0  0  0  0  0  0  0  0  0  0  0  # atno 8008 bound_to 7997
  155.0046  140.3129  155.4834 H   0  0  0  0  0  0  0  0  0  0  0  0  # atno 8009 bound_to 7997
  156.2887  140.2195  156.5158 H   0  0  0  0  0  0  0  0  0  0  0  0  # atno 8010 bound_to 7997
  140.6645  143.7217  150.7800 H   0  0  0  0  0  0  0  0  0  0  0  0  # atno 10167 bound_to 10162
  156.2475  130.4185  149.8688 H   0  0  0  0  0  0  0  0  0  0  0  0  # atno 10718 bound_to 10713
  153.9406  135.2980  155.3443 H   0  0  0  0  0  0  0  0  0  0  0  0  # atno 10763 bound_to 10752
  154.7479  135.4994  153.9239 H   0  0  0  0  0  0  0  0  0  0  0  0  # atno 10764 bound_to 10752
  153.1044  135.6743  153.9720 H   0  0  0  0  0  0  0  0  0  0  0  0  # atno 10765 bound_to 10752
  140.8488  134.2311  157.4771 H   0  0  0  0  0  0  0  0  0  0  0  0  # atno 11005 bound_to 11000
  144.6732  140.1588  143.7424 LP  0  0  0  0  0  0  0  0  0  0  0  0  # atno 17320 bound_to 7965
  145.8862  139.2350  143.1576 LP  0  0  0  0  0  0  0  0  0  0  0  0  # atno 17321 bound_to 7965
  140.0892  143.4894  152.2488 LP  0  0  0  0  0  0  0  0  0  0  0  0  # atno 17342 bound_to 10162
  139.5889  144.7542  151.3451 LP  0  0  0  0  0  0  0  0  0  0  0  0  # atno 17343 bound_to 10162
  156.6249  130.8641  151.3483 LP  0  0  0  0  0  0  0  0  0  0  0  0  # atno 17370 bound_to 10713
  157.7201  130.9547  150.1404 LP  0  0  0  0  0  0  0  0  0  0  0  0  # atno 17371 bound_to 10713
  139.8704  134.9673  156.4591 LP  0  0  0  0  0  0  0  0  0  0  0  0  # atno 17394 bound_to 11000
  140.8813  133.7915  155.9470 LP  0  0  0  0  0  0  0  0  0  0  0  0  # atno 17395 bound_to 11000

$$$$
