AV-unprocessed.smi:425|AV-procd|sdf|2540|dock1
  -GOLD-   2262022503D 1   1.00000     0.00000
 Structure written by MMmdl.
 27 27  0  0  0  0  0  0  0  0  2 V2000
  150.8405  135.9720  159.4190 O   0  0  0  0  0  0  0  0  0  0  0  0
  149.7682  136.5967  159.5701 C   0  0  0  0  0  0  0  0  0  0  0  0
  149.1231  136.6917  160.6373 O   0  5  0  0  0  0  0  0  0  0  0  0
  149.1868  137.2963  158.3441 C   0  0  0  0  0  0  0  0  0  0  0  0
  150.0642  138.3868  157.9347 N   0  0  0  0  0  0  0  0  0  0  0  0
  151.3445  138.2652  157.5543 C   0  0  0  0  0  0  0  0  0  0  0  0
  151.9498  137.1922  157.5391 O   0  0  0  0  0  0  0  0  0  0  0  0
  152.0413  139.5711  157.1447 C   0  0  0  0  0  0  0  0  0  0  0  0
  152.3940  140.4326  158.2860 N   0  0  0  0  0  0  0  0  0  0  0  0
  151.7248  141.6676  158.3807 C   0  0  0  0  0  0  0  0  0  0  0  0
  151.9542  142.5505  159.3700 C   0  0  0  0  0  0  0  0  0  0  0  0
  151.1698  143.8487  159.4784 C   0  0  0  0  0  0  0  0  0  0  0  0
  151.5193  144.5333  160.5675 F   0  0  0  0  0  0  0  0  0  0  0  0
  151.4085  144.6120  158.4130 F   0  0  0  0  0  0  0  0  0  0  0  0
  149.8583  143.6135  159.5339 F   0  0  0  0  0  0  0  0  0  0  0  0
  152.9195  142.1543  160.3756 C   0  0  0  0  0  0  0  0  0  0  0  0
  153.5629  140.9710  160.3135 C   0  0  0  0  0  0  0  0  0  0  0  0
  154.7055  140.5503  161.5393 Cl  0  0  0  0  0  0  0  0  0  0  0  0
  153.3111  140.0286  159.2155 C   0  0  0  0  0  0  0  0  0  0  0  0
  153.8862  138.9424  159.1326 O   0  0  0  0  0  0  0  0  0  0  0  0
  149.1064  136.5821  157.5241 H   0  0  0  0  0  0  0  0  0  0  0  0
  148.1738  137.6378  158.5642 H   0  0  0  0  0  0  0  0  0  0  0  0
  149.6475  139.3060  157.9086 H   0  0  0  0  0  0  0  0  0  0  0  0
  152.9302  139.3304  156.5583 H   0  0  0  0  0  0  0  0  0  0  0  0
  151.3858  140.1073  156.4569 H   0  0  0  0  0  0  0  0  0  0  0  0
  151.0004  141.8464  157.5992 H   0  0  0  0  0  0  0  0  0  0  0  0
  153.1334  142.8237  161.1960 H   0  0  0  0  0  0  0  0  0  0  0  0
  1  2  2  0  0  0  0
  2  3  1  0  0  0  0
  2  4  1  0  0  0  0
  4  5  1  0  0  0  0
  4 21  1  0  0  0  0
  4 22  1  0  0  0  0
  5  6  1  0  0  0  0
  5 23  1  0  0  0  0
  6  7  2  0  0  0  0
  6  8  1  0  0  0  0
  8  9  1  0  0  0  0
  8 24  1  0  0  0  0
  8 25  1  0  0  0  0
  9 19  1  0  0  0  0
  9 10  1  0  0  0  0
 10 11  2  0  0  0  0
 10 26  1  0  0  0  0
 11 12  1  0  0  0  0
 11 16  1  0  0  0  0
 12 13  1  0  0  0  0
 12 14  1  0  0  0  0
 12 15  1  0  0  0  0
 16 17  2  0  0  0  0
 16 27  1  0  0  0  0
 17 18  1  0  0  0  0
 17 19  1  0  0  0  0
 19 20  2  0  0  0  0
M  CHG  1   3  -1
M  END
> <s_m_source_file>
AV-unprocessed.smi

> <i_m_source_file_index>
425

> <i_lp_mmshare_version>
43012

> <i_f3d_flags>
0

> <s_epik_input>
Tz1DKFtPSF0pW0NIMl1bTkhdQyg9TylbQ0gyXW4xW2NIXWMoQyhGKShGKUYpW2NIXWMoQ2wpYzE9Tw==

> <s_epik_cmdline>
J2VwaWtfcHl0aG9uJywgJy1waCcsICc3LjAnLCAnLXRuJywgJzgnLCAnLW1hJywgJzIwMCcsICctbWV0YWxfYmluZGluZycsICctaW1hZScsICc8aW5maWxlLm1hZT4nLCAnLW9tYWUnLCAnPG91dGZpbGUubWFlPic=

> <r_lp_tautomer_probability>
1

> <r_epik_Ionization_Penalty>
0.000221532

> <r_epik_Ionization_Penalty_Charging>
0.000221514

> <r_epik_Ionization_Penalty_Neutral>
1.82818e-08

> <r_epik_State_Penalty>
-0

> <r_epik_Charging_Adjusted_Penalty>
0.000221514

> <i_epik_Tot_Q>
-1

> <i_epik_Tot_abs_Q>
1

> <r_epik_Metal_State_Penalty>
-0

> <b_epik_Metal_Only>
0

> <s_lp_Force_Field>
OPLS_2005

> <r_lp_Energy>
5.93432

> <b_lp_Chiralities_Consistent>
1

> <s_lp_Variant>
AV-unprocessed.smi:425-1

> <Gold.Version>
5.8.1

> <Gold.Id.Protein>
6NUR|6NUR_protein|mol2

> <Gold.PLP.Fitness>
51.9167

> <Gold.PLP.PLP>
-39.3165

> <Gold.PLP.part.hbond>
-3.0000

> <Gold.PLP.part.metal>
0.0000

> <Gold.PLP.part.buried>
-4.6212

> <Gold.PLP.part.nonpolar>
-32.8133

> <Gold.PLP.part.repulsive>
0.0793

> <Gold.PLP.ligand.clash>
0.0000

> <Gold.PLP.ligand.torsion>
0.2808

> <Gold.PLP.Chemscore.Hbond>
4.3579

> <Gold.PLP.Chemscore.CHOScore>
0.0000

> <Gold.PLP.Chemscore.Metal>
0.0000

> <Gold.Chemscore.Hbonds>
donor molecule, donor type, donor heavy atom, donor atom, acceptor molecule, acceptor atom, score
      P1  H  6896  6909       L1     1  0.31
      P1  H  6931  6943       L1     3  1.60
      P1  H  7997  8009       L1    20  0.01

> <Gold.PLP.Chemscore.Internal.Correction>
0.0880

> <Gold.Rescore>
     Score         DG    S(hbond)    S(metal)    S(lipo)     H(rot)  DE(clash)    DE(int)     intcor
     10.75     -12.81       2.09        0.00      61.17       2.65       0.03       2.04       ----

> <Gold.Chemscore.Fitness>
10.7470

> <Gold.Chemscore.DG>
-12.8143

> <Gold.Chemscore.ZeroCoef>
-5.4800

> <Gold.Chemscore.Hbond>
2.0878

> <Gold.Chemscore.Metal>
0.0000

> <Gold.Chemscore.Lipo>
61.1724

> <Gold.Chemscore.Internal_Hbond>
0.0000

> <Gold.Chemscore.DEClash>
0.0284

> <Gold.Chemscore.DEInternal>
2.0390

> <Gold.Chemscore.Rot>
2.6548

> <Gold.Chemscore.Internal.Correction>
   9.000000E+99

> <Gold.Chemscore.Hbonds>
donor molecule, donor type, donor heavy atom, donor atom, acceptor molecule, acceptor atom, score
      P1  H  6896  6909       L1     1  0.14
      P1  H  6931  6943       L1     3  0.77

> <Gold.Chemscore.Hbond.Weighted>
-6.9734

> <Gold.Chemscore.Metal.Weighted>
-0.0000

> <Gold.Chemscore.Lipo.Weighted>
-7.1572

> <Gold.Chemscore.Internal_Hbond.Weighted>
0.0000

> <Gold.Chemscore.DEClash.Weighted>
0.0284

> <Gold.Chemscore.DEInternal.Weighted>
2.0390

> <Gold.Chemscore.Rot.Weighted>
6.7963

> <Gold.Chemscore.Internal.Correction.Weighted>
   9.000000E+99

> <Gold.Protein.RotatedTorsions>
[ 6907 6896 6895 6894 ] final   58.13 input  -60.11 | X-H torsion
[ 7974 7965 7964 7962 ] final  -32.82 input  175.53 | X-H torsion
[ 8008 7997 7996 7995 ] final  125.56 input   59.86 | X-H torsion
[ 10167 10162 10161 10158 ] final -166.74 input  -65.29 | X-H torsion
[ 10718 10713 10712 10709 ] final  -58.24 input   66.30 | X-H torsion
[ 10763 10752 10751 10750 ] final   12.46 input  -60.55 | X-H torsion
[ 11005 11000 10999 10996 ] final -151.31 input  -57.11 | X-H torsion

> <Gold.Protein.ActiveResidues>
 VAL166  LYS551  ARG553  GLY616  TRP617  ASP618  TYR619  PRO620  LYS621  CYS622 
 ASP623  PHE694  ASN695  SER759  ASP760  ASP761  ALA762  ILE779  LEU786  VAL792 
 PHE793  MET794  SER795  GLU796  ALA797  LYS798  CYS799  TRP800  GLU811  SER814 

> <Gold.Protein.RotatedAtoms>
  152.3795  134.6612  160.0147 H   0  0  0  0  0  0  0  0  0  0  0  0  # atno 6907 bound_to 6896
  151.6879  133.3306  159.3243 H   0  0  0  0  0  0  0  0  0  0  0  0  # atno 6908 bound_to 6896
  150.7736  134.6660  159.6410 H   0  0  0  0  0  0  0  0  0  0  0  0  # atno 6909 bound_to 6896
  146.0960  140.5839  142.8843 H   0  0  0  0  0  0  0  0  0  0  0  0  # atno 7974 bound_to 7965
  156.2838  140.2713  156.1969 H   0  0  0  0  0  0  0  0  0  0  0  0  # atno 8008 bound_to 7997
  155.0401  140.0386  157.2524 H   0  0  0  0  0  0  0  0  0  0  0  0  # atno 8009 bound_to 7997
  154.7281  140.2701  155.6485 H   0  0  0  0  0  0  0  0  0  0  0  0  # atno 8010 bound_to 7997
  139.6095  144.0844  152.1827 H   0  0  0  0  0  0  0  0  0  0  0  0  # atno 10167 bound_to 10162
  156.1150  130.4171  150.0550 H   0  0  0  0  0  0  0  0  0  0  0  0  # atno 10718 bound_to 10713
  153.1820  135.6829  153.8465 H   0  0  0  0  0  0  0  0  0  0  0  0  # atno 10763 bound_to 10752
  153.7793  135.3184  155.3364 H   0  0  0  0  0  0  0  0  0  0  0  0  # atno 10764 bound_to 10752
  154.8066  135.4745  154.0502 H   0  0  0  0  0  0  0  0  0  0  0  0  # atno 10765 bound_to 10752
  140.7309  134.3622  157.5167 H   0  0  0  0  0  0  0  0  0  0  0  0  # atno 11005 bound_to 11000
  144.7396  140.4904  143.6879 LP  0  0  0  0  0  0  0  0  0  0  0  0  # atno 17320 bound_to 7965
  145.5947  139.1498  143.3162 LP  0  0  0  0  0  0  0  0  0  0  0  0  # atno 17321 bound_to 7965
  140.0459  144.5971  150.7374 LP  0  0  0  0  0  0  0  0  0  0  0  0  # atno 17342 bound_to 10162
  140.7309  143.2688  151.3956 LP  0  0  0  0  0  0  0  0  0  0  0  0  # atno 17343 bound_to 10162
  156.8503  130.9456  151.3626 LP  0  0  0  0  0  0  0  0  0  0  0  0  # atno 17370 bound_to 10713
  157.6333  130.8746  149.9313 LP  0  0  0  0  0  0  0  0  0  0  0  0  # atno 17371 bound_to 10713
  139.8826  134.9017  156.2817 LP  0  0  0  0  0  0  0  0  0  0  0  0  # atno 17394 bound_to 11000
  140.9922  133.7202  156.0831 LP  0  0  0  0  0  0  0  0  0  0  0  0  # atno 17395 bound_to 11000

$$$$
