AV-unprocessed.smi:1196|AV-procd|sdf|4997|dock5
  -GOLD-   22720 4 03D 1   1.00000     0.00000
 Structure written by MMmdl.
 37 38  0  0  0  0  0  0  0  0  1 V2000
  151.9445  139.8445  158.3501 C   0  0  0  0  0  0  0  0  0  0  0  0
  150.9263  140.9604  158.0672 C   0  0  1  0  0  0  0  0  0  0  0  0
  151.6267  142.2705  157.6574 C   0  0  0  0  0  0  0  0  0  0  0  0
  151.6974  143.2245  158.7503 N   0  0  0  0  0  0  0  0  0  0  0  0
  152.0047  144.5675  158.6939 C   0  0  0  0  0  0  0  0  0  0  0  0
  151.9546  145.0496  159.9704 C   0  0  0  0  0  0  0  0  0  0  0  0
  151.6037  143.9109  160.7484 C   0  0  0  0  0  0  0  0  0  0  0  0
  151.4511  142.8194  160.0155 N   0  0  0  0  0  0  0  0  0  0  0  0
  150.0005  140.5388  157.0183 N   0  0  0  0  0  0  0  0  0  0  0  0
  150.3132  140.3592  155.7261 C   0  0  0  0  0  0  0  0  0  0  0  0
  151.4386  140.5577  155.2680 O   0  0  0  0  0  0  0  0  0  0  0  0
  149.1811  139.8729  154.8181 C   0  0  0  0  0  0  0  0  0  0  0  0
  148.6482  138.4859  155.2239 C   0  0  0  0  0  0  0  0  0  0  0  0
  147.3318  138.1169  154.5132 C   0  0  2  0  0  0  0  0  0  0  0  0
  147.5157  137.8321  153.1002 N   0  0  0  0  0  0  0  0  0  0  0  0
  146.8040  138.6526  152.3154 C   0  0  0  0  0  0  0  0  0  0  0  0
  146.7729  138.6298  151.0873 O   0  0  0  0  0  0  0  0  0  0  0  0
  146.1349  139.5005  153.1040 N   0  0  0  0  0  0  0  0  0  0  0  0
  146.3750  139.2898  154.3970 C   0  0  0  0  0  0  0  0  0  0  0  0
  145.9164  139.9203  155.3475 O   0  0  0  0  0  0  0  0  0  0  0  0
  152.6375  140.1379  159.1389 H   0  0  0  0  0  0  0  0  0  0  0  0
  152.5318  139.6086  157.4620 H   0  0  0  0  0  0  0  0  0  0  0  0
  151.4491  138.9291  158.6751 H   0  0  0  0  0  0  0  0  0  0  0  0
  150.3665  141.1505  158.9851 H   0  0  0  0  0  0  0  0  0  0  0  0
  152.6465  142.0624  157.3316 H   0  0  0  0  0  0  0  0  0  0  0  0
  151.1189  142.7328  156.8091 H   0  0  0  0  0  0  0  0  0  0  0  0
  152.2329  145.0614  157.7608 H   0  0  0  0  0  0  0  0  0  0  0  0
  152.1409  146.0614  160.2988 H   0  0  0  0  0  0  0  0  0  0  0  0
  151.4569  143.8454  161.8164 H   0  0  0  0  0  0  0  0  0  0  0  0
  149.0524  140.3424  157.3054 H   0  0  0  0  0  0  0  0  0  0  0  0
  148.3793  140.6110  154.8520 H   0  0  0  0  0  0  0  0  0  0  0  0
  149.5322  139.8402  153.7854 H   0  0  0  0  0  0  0  0  0  0  0  0
  149.4010  137.7313  154.9886 H   0  0  0  0  0  0  0  0  0  0  0  0
  148.5068  138.4464  156.3058 H   0  0  0  0  0  0  0  0  0  0  0  0
  146.8352  137.2786  155.0032 H   0  0  0  0  0  0  0  0  0  0  0  0
  148.1140  137.0927  152.7613 H   0  0  0  0  0  0  0  0  0  0  0  0
  145.5242  140.2259  152.7576 H   0  0  0  0  0  0  0  0  0  0  0  0
  1  2  1  0  0  0  0
  1 21  1  0  0  0  0
  1 22  1  0  0  0  0
  1 23  1  0  0  0  0
  2  3  1  0  0  0  0
  2  9  1  0  0  0  0
  2 24  1  0  0  0  0
  3  4  1  0  0  0  0
  3 25  1  0  0  0  0
  3 26  1  0  0  0  0
  4  8  1  0  0  0  0
  4  5  1  0  0  0  0
  5  6  2  0  0  0  0
  5 27  1  0  0  0  0
  6  7  1  0  0  0  0
  6 28  1  0  0  0  0
  7  8  2  0  0  0  0
  7 29  1  0  0  0  0
  9 10  1  0  0  0  0
  9 30  1  0  0  0  0
 10 11  2  0  0  0  0
 10 12  1  0  0  0  0
 12 13  1  0  0  0  0
 12 31  1  0  0  0  0
 12 32  1  0  0  0  0
 13 14  1  0  0  0  0
 13 33  1  0  0  0  0
 13 34  1  0  0  0  0
 14 19  1  0  0  0  0
 14 15  1  0  0  0  0
 14 35  1  0  0  0  0
 15 16  1  0  0  0  0
 15 36  1  0  0  0  0
 16 17  2  0  0  0  0
 16 18  1  0  0  0  0
 18 19  1  0  0  0  0
 18 37  1  0  0  0  0
 19 20  2  0  0  0  0
M  END
> <s_m_source_file>
AV-unprocessed.smi

> <i_m_source_file_index>
1196

> <i_lp_mmshare_version>
43012

> <i_f3d_flags>
0

> <s_epik_input>
bjFbY0hdW2NIXVtjSF1uMVtDSDJdW0NAQEhdKFtDSDNdKVtOSF1DKD1PKVtDSDJdW0NIMl1bQ0BASF0yW05IXUMoPU8pW05IXUMyPU8=

> <s_epik_cmdline>
J2VwaWtfcHl0aG9uJywgJy1waCcsICc3LjAnLCAnLXRuJywgJzgnLCAnLW1hJywgJzIwMCcsICctbWV0YWxfYmluZGluZycsICctaW1hZScsICc8aW5maWxlLm1hZT4nLCAnLW9tYWUnLCAnPG91dGZpbGUubWFlPic=

> <r_lp_tautomer_probability>
1

> <r_epik_Ionization_Penalty>
0.00815973

> <r_epik_Ionization_Penalty_Charging>
0

> <r_epik_Ionization_Penalty_Neutral>
0.00815973

> <r_epik_State_Penalty>
0.00583796

> <r_epik_Charging_Adjusted_Penalty>
0.00583796

> <i_epik_Tot_Q>
0

> <i_epik_Tot_abs_Q>
0

> <r_epik_Metal_State_Penalty>
0.409204

> <b_epik_Metal_Only>
0

> <s_lp_Force_Field>
OPLS_2005

> <r_lp_Energy>
16.5203

> <b_lp_Chiralities_Consistent>
1

> <s_lp_Variant>
AV-unprocessed.smi:1196-2

> <Gold.Version>
5.8.1

> <Gold.Id.Protein>
6NUR|6NUR_protein|mol2

> <Gold.PLP.Fitness>
44.3626

> <Gold.PLP.PLP>
-35.6542

> <Gold.PLP.part.hbond>
-4.6347

> <Gold.PLP.part.metal>
0.0000

> <Gold.PLP.part.buried>
-6.9413

> <Gold.PLP.part.nonpolar>
-25.4913

> <Gold.PLP.part.repulsive>
0.8840

> <Gold.PLP.ligand.clash>
0.0000

> <Gold.PLP.ligand.torsion>
0.9916

> <Gold.PLP.Chemscore.Hbond>
3.5440

> <Gold.PLP.Chemscore.CHOScore>
0.0000

> <Gold.PLP.Chemscore.Metal>
0.0000

> <Gold.Chemscore.Hbonds>
donor molecule, donor type, donor heavy atom, donor atom, acceptor molecule, acceptor atom, score
      L1  H    15    36       P1  7948  0.91
      L1  H    18    37       P1 10175  0.77
      P1  H  7954  7966       L1    17  1.00
      P1  H  7989  7998       L1    11  0.85

> <Gold.PLP.Chemscore.Internal.Correction>
0.0596

> <Gold.Rescore>
     Score         DG    S(hbond)    S(metal)    S(lipo)     H(rot)  DE(clash)    DE(int)     intcor
     15.01     -17.15       3.47        0.00      65.37       2.96       0.15       1.99       ----

> <Gold.Chemscore.Fitness>
15.0089

> <Gold.Chemscore.DG>
-17.1457

> <Gold.Chemscore.ZeroCoef>
-5.4800

> <Gold.Chemscore.Hbond>
3.4698

> <Gold.Chemscore.Metal>
0.0000

> <Gold.Chemscore.Lipo>
65.3669

> <Gold.Chemscore.Internal_Hbond>
0.0000

> <Gold.Chemscore.DEClash>
0.1516

> <Gold.Chemscore.DEInternal>
1.9852

> <Gold.Chemscore.Rot>
2.9575

> <Gold.Chemscore.Internal.Correction>
   9.000000E+99

> <Gold.Chemscore.Hbonds>
donor molecule, donor type, donor heavy atom, donor atom, acceptor molecule, acceptor atom, score
      L1  H    15    36       P1  7948  0.88
      L1  H    18    37       P1 10175  0.70
      P1  H  7954  7966       L1    17  0.92
      P1  H  7989  7998       L1    11  0.81

> <Gold.Chemscore.Hbond.Weighted>
-11.5891

> <Gold.Chemscore.Metal.Weighted>
-0.0000

> <Gold.Chemscore.Lipo.Weighted>
-7.6479

> <Gold.Chemscore.Internal_Hbond.Weighted>
0.0000

> <Gold.Chemscore.DEClash.Weighted>
0.1516

> <Gold.Chemscore.DEInternal.Weighted>
1.9852

> <Gold.Chemscore.Rot.Weighted>
7.5713

> <Gold.Chemscore.Internal.Correction.Weighted>
   9.000000E+99

> <Gold.Protein.RotatedTorsions>
[ 6907 6896 6895 6894 ] final -179.03 input  -60.11 | X-H torsion
[ 7974 7965 7964 7962 ] final  -16.94 input  175.53 | X-H torsion
[ 8008 7997 7996 7995 ] final   41.09 input   59.86 | X-H torsion
[ 10167 10162 10161 10158 ] final -118.34 input  -65.29 | X-H torsion
[ 10718 10713 10712 10709 ] final -108.55 input   66.30 | X-H torsion
[ 10763 10752 10751 10750 ] final -106.34 input  -60.55 | X-H torsion
[ 11005 11000 10999 10996 ] final -153.48 input  -57.11 | X-H torsion

> <Gold.Protein.ActiveResidues>
 VAL166  LYS551  ARG553  GLY616  TRP617  ASP618  TYR619  PRO620  LYS621  CYS622 
 ASP623  PHE694  ASN695  SER759  ASP760  ASP761  ALA762  ILE779  LEU786  VAL792 
 PHE793  MET794  SER795  GLU796  ALA797  LYS798  CYS799  TRP800  GLU811  SER814 

> <Gold.Protein.RotatedAtoms>
  151.6468  133.3323  159.3142 H   0  0  0  0  0  0  0  0  0  0  0  0  # atno 6907 bound_to 6896
  150.7980  134.7058  159.6585 H   0  0  0  0  0  0  0  0  0  0  0  0  # atno 6908 bound_to 6896
  152.4069  134.6195  160.0098 H   0  0  0  0  0  0  0  0  0  0  0  0  # atno 6909 bound_to 6896
  146.1964  140.3708  142.8439 H   0  0  0  0  0  0  0  0  0  0  0  0  # atno 7974 bound_to 7965
  155.2638  140.3361  155.4271 H   0  0  0  0  0  0  0  0  0  0  0  0  # atno 8008 bound_to 7997
  156.2163  140.1790  156.7624 H   0  0  0  0  0  0  0  0  0  0  0  0  # atno 8009 bound_to 7997
  154.5758  140.0662  156.9017 H   0  0  0  0  0  0  0  0  0  0  0  0  # atno 8010 bound_to 7997
  140.0585  143.4991  152.2044 H   0  0  0  0  0  0  0  0  0  0  0  0  # atno 10167 bound_to 10162
  156.0491  130.5719  150.7977 H   0  0  0  0  0  0  0  0  0  0  0  0  # atno 10718 bound_to 10713
  154.8006  135.4715  154.0266 H   0  0  0  0  0  0  0  0  0  0  0  0  # atno 10763 bound_to 10752
  153.1774  135.6835  153.8531 H   0  0  0  0  0  0  0  0  0  0  0  0  # atno 10764 bound_to 10752
  153.8092  135.3219  155.3376 H   0  0  0  0  0  0  0  0  0  0  0  0  # atno 10765 bound_to 10752
  140.7077  134.3867  157.5202 H   0  0  0  0  0  0  0  0  0  0  0  0  # atno 11005 bound_to 11000
  144.8590  140.7112  143.6119 LP  0  0  0  0  0  0  0  0  0  0  0  0  # atno 17320 bound_to 7965
  145.3628  139.1677  143.4374 LP  0  0  0  0  0  0  0  0  0  0  0  0  # atno 17321 bound_to 7965
  139.5908  144.7549  151.3405 LP  0  0  0  0  0  0  0  0  0  0  0  0  # atno 17342 bound_to 10162
  140.7183  143.7206  150.7699 LP  0  0  0  0  0  0  0  0  0  0  0  0  # atno 17343 bound_to 10162
  157.5399  131.0940  150.9841 LP  0  0  0  0  0  0  0  0  0  0  0  0  # atno 17370 bound_to 10713
  157.0127  130.5643  149.5322 LP  0  0  0  0  0  0  0  0  0  0  0  0  # atno 17371 bound_to 10713
  139.8880  134.8868  156.2499 LP  0  0  0  0  0  0  0  0  0  0  0  0  # atno 17394 bound_to 11000
  141.0110  133.7095  156.1112 LP  0  0  0  0  0  0  0  0  0  0  0  0  # atno 17395 bound_to 11000

$$$$
