AV-unprocessed.smi:387|AV-procd|sdf|2474|dock5
  -GOLD-   2262022413D 1   1.00000     0.00000
 Structure written by MMmdl.
 39 40  0  0  0  0  0  0  0  0  1 V2000
  147.1939  133.6082  162.3665 C   0  0  0  0  0  0  0  0  0  0  0  0
  146.9085  135.0179  161.8186 C   0  0  0  0  0  0  0  0  0  0  0  0
  145.3888  135.1720  161.5987 C   0  0  0  0  0  0  0  0  0  0  0  0
  147.4196  136.0627  162.8331 C   0  0  0  0  0  0  0  0  0  0  0  0
  147.6297  135.1335  160.5454 N   0  0  0  0  0  0  0  0  0  0  0  0
  148.1004  136.2423  159.9479 C   0  0  0  0  0  0  0  0  0  0  0  0
  147.9852  137.3750  160.4182 O   0  0  0  0  0  0  0  0  0  0  0  0
  148.8095  136.0150  158.6038 C   0  0  0  0  0  0  0  0  0  0  0  0
  149.4545  137.2307  158.0609 N   0  0  0  0  0  0  0  0  0  0  0  0
  150.7559  137.5683  158.5122 C   0  0  0  0  0  0  0  0  0  0  0  0
  151.3542  136.8528  159.3177 O   0  0  0  0  0  0  0  0  0  0  0  0
  151.3072  138.8084  157.9713 C   0  0  0  0  0  0  0  0  0  0  0  0
  152.6001  139.1991  158.4268 C   0  0  0  0  0  0  0  0  0  0  0  0
  153.6488  139.5364  158.7817 N   0  0  0  0  0  0  0  0  0  0  0  0
  150.6119  139.5494  157.0842 C   0  0  0  0  0  0  0  0  0  0  0  0
  149.3643  139.1829  156.6285 N   0  0  0  0  0  0  0  0  0  0  0  0
  148.5784  140.0626  155.8101 C   0  0  0  0  0  0  0  0  0  0  0  0
  148.9915  140.3515  154.3799 C   0  0  0  0  0  0  0  0  0  0  0  0
  149.1413  141.4171  155.4382 C   0  0  0  0  0  0  0  0  0  0  0  0
  148.7283  138.0346  157.1487 C   0  0  0  0  0  0  0  0  0  0  0  0
  147.5723  137.7451  156.8296 O   0  0  0  0  0  0  0  0  0  0  0  0
  146.6876  133.4418  163.3179 H   0  0  0  0  0  0  0  0  0  0  0  0
  148.2610  133.4544  162.5325 H   0  0  0  0  0  0  0  0  0  0  0  0
  146.8542  132.8355  161.6754 H   0  0  0  0  0  0  0  0  0  0  0  0
  145.0202  134.4602  160.8592 H   0  0  0  0  0  0  0  0  0  0  0  0
  145.1224  136.1715  161.2551 H   0  0  0  0  0  0  0  0  0  0  0  0
  144.8391  134.9961  162.5238 H   0  0  0  0  0  0  0  0  0  0  0  0
  146.9560  135.9203  163.8099 H   0  0  0  0  0  0  0  0  0  0  0  0
  147.1963  137.0829  162.5210 H   0  0  0  0  0  0  0  0  0  0  0  0
  148.4992  135.9885  162.9697 H   0  0  0  0  0  0  0  0  0  0  0  0
  147.7877  134.2627  160.0595 H   0  0  0  0  0  0  0  0  0  0  0  0
  149.5359  135.2101  158.7273 H   0  0  0  0  0  0  0  0  0  0  0  0
  148.0850  135.6091  157.8957 H   0  0  0  0  0  0  0  0  0  0  0  0
  151.0496  140.4642  156.7110 H   0  0  0  0  0  0  0  0  0  0  0  0
  147.5059  140.0311  155.9947 H   0  0  0  0  0  0  0  0  0  0  0  0
  149.9047  139.8937  154.0042 H   0  0  0  0  0  0  0  0  0  0  0  0
  148.1985  140.4783  153.6459 H   0  0  0  0  0  0  0  0  0  0  0  0
  148.4494  142.2563  155.4079 H   0  0  0  0  0  0  0  0  0  0  0  0
  150.1525  141.6591  155.7605 H   0  0  0  0  0  0  0  0  0  0  0  0
  1  2  1  0  0  0  0
  1 22  1  0  0  0  0
  1 23  1  0  0  0  0
  1 24  1  0  0  0  0
  2  3  1  0  0  0  0
  2  4  1  0  0  0  0
  2  5  1  0  0  0  0
  3 25  1  0  0  0  0
  3 26  1  0  0  0  0
  3 27  1  0  0  0  0
  4 28  1  0  0  0  0
  4 29  1  0  0  0  0
  4 30  1  0  0  0  0
  5  6  1  0  0  0  0
  5 31  1  0  0  0  0
  6  7  2  0  0  0  0
  6  8  1  0  0  0  0
  8  9  1  0  0  0  0
  8 32  1  0  0  0  0
  8 33  1  0  0  0  0
  9 20  1  0  0  0  0
  9 10  1  0  0  0  0
 10 11  2  0  0  0  0
 10 12  1  0  0  0  0
 12 13  1  0  0  0  0
 12 15  2  0  0  0  0
 13 14  3  0  0  0  0
 15 16  1  0  0  0  0
 15 34  1  0  0  0  0
 16 17  1  0  0  0  0
 16 20  1  0  0  0  0
 17 19  1  0  0  0  0
 17 18  1  0  0  0  0
 17 35  1  0  0  0  0
 18 19  1  0  0  0  0
 18 36  1  0  0  0  0
 18 37  1  0  0  0  0
 19 38  1  0  0  0  0
 19 39  1  0  0  0  0
 20 21  2  0  0  0  0
M  END
> <s_m_source_file>
AV-unprocessed.smi

> <i_m_source_file_index>
387

> <i_lp_mmshare_version>
43012

> <i_f3d_flags>
0

> <s_epik_input>
W0NIM11DKFtDSDNdKShbQ0gzXSlbTkhdQyg9TylbQ0gyXW4xYyg9TyljKEMjTilbY0hdbihjMT1PKVtDSF0yW0NIMl1bQ0gyXTI=

> <s_epik_cmdline>
J2VwaWtfcHl0aG9uJywgJy1waCcsICc3LjAnLCAnLXRuJywgJzgnLCAnLW1hJywgJzIwMCcsICctbWV0YWxfYmluZGluZycsICctaW1hZScsICc8aW5maWxlLm1hZT4nLCAnLW9tYWUnLCAnPG91dGZpbGUubWFlPic=

> <r_lp_tautomer_probability>
1

> <r_epik_Ionization_Penalty>
2.47136e-08

> <r_epik_Ionization_Penalty_Charging>
8.30431e-11

> <r_epik_Ionization_Penalty_Neutral>
2.46306e-08

> <r_epik_State_Penalty>
-0

> <r_epik_Charging_Adjusted_Penalty>
8.30431e-11

> <i_epik_Tot_Q>
0

> <i_epik_Tot_abs_Q>
0

> <r_epik_Metal_State_Penalty>
-0

> <b_epik_Metal_Only>
0

> <s_lp_Force_Field>
OPLS_2005

> <r_lp_Energy>
29.2267

> <b_lp_Chiralities_Consistent>
1

> <s_lp_Variant>
AV-unprocessed.smi:387-1

> <Gold.Version>
5.8.1

> <Gold.Id.Protein>
6NUR|6NUR_protein|mol2

> <Gold.PLP.Fitness>
39.6826

> <Gold.PLP.PLP>
-31.5370

> <Gold.PLP.part.hbond>
-4.0000

> <Gold.PLP.part.metal>
0.0000

> <Gold.PLP.part.buried>
-4.3554

> <Gold.PLP.part.nonpolar>
-24.1912

> <Gold.PLP.part.repulsive>
0.0819

> <Gold.PLP.ligand.clash>
0.0000

> <Gold.PLP.ligand.torsion>
1.0506

> <Gold.PLP.Chemscore.Hbond>
3.3440

> <Gold.PLP.Chemscore.CHOScore>
0.0000

> <Gold.PLP.Chemscore.Metal>
0.0000

> <Gold.Chemscore.Hbonds>
donor molecule, donor type, donor heavy atom, donor atom, acceptor molecule, acceptor atom, score
      P1  H  6896  6909       L1    11  1.00
      P1  H  6931  6943       L1     7  0.66
      P1  H  6934  6947       L1     7  0.72
      P1  H  7997  8009       L1    14  1.00

> <Gold.PLP.Chemscore.Internal.Correction>
0.2148

> <Gold.Rescore>
     Score         DG    S(hbond)    S(metal)    S(lipo)     H(rot)  DE(clash)    DE(int)     intcor
     18.47     -19.29       3.33        0.00      61.79       1.78       0.22       0.60       ----

> <Gold.Chemscore.Fitness>
18.4674

> <Gold.Chemscore.DG>
-19.2871

> <Gold.Chemscore.ZeroCoef>
-5.4800

> <Gold.Chemscore.Hbond>
3.3303

> <Gold.Chemscore.Metal>
0.0000

> <Gold.Chemscore.Lipo>
61.7924

> <Gold.Chemscore.Internal_Hbond>
0.0000

> <Gold.Chemscore.DEClash>
0.2184

> <Gold.Chemscore.DEInternal>
0.6014

> <Gold.Chemscore.Rot>
1.7757

> <Gold.Chemscore.Internal.Correction>
   9.000000E+99

> <Gold.Chemscore.Hbonds>
donor molecule, donor type, donor heavy atom, donor atom, acceptor molecule, acceptor atom, score
      P1  H  6896  6909       L1    11  0.97
      P1  H  6931  6943       L1     7  0.63
      P1  H  6934  6947       L1     7  0.72
      P1  H  7997  8009       L1    14  0.75

> <Gold.Chemscore.Hbond.Weighted>
-11.1233

> <Gold.Chemscore.Metal.Weighted>
-0.0000

> <Gold.Chemscore.Lipo.Weighted>
-7.2297

> <Gold.Chemscore.Internal_Hbond.Weighted>
0.0000

> <Gold.Chemscore.DEClash.Weighted>
0.2184

> <Gold.Chemscore.DEInternal.Weighted>
0.6014

> <Gold.Chemscore.Rot.Weighted>
4.5459

> <Gold.Chemscore.Internal.Correction.Weighted>
   9.000000E+99

> <Gold.Protein.RotatedTorsions>
[ 6907 6896 6895 6894 ] final   97.09 input  -60.11 | X-H torsion
[ 7974 7965 7964 7962 ] final  115.20 input  175.53 | X-H torsion
[ 8008 7997 7996 7995 ] final  137.64 input   59.86 | X-H torsion
[ 10167 10162 10161 10158 ] final -157.32 input  -65.29 | X-H torsion
[ 10718 10713 10712 10709 ] final  138.61 input   66.30 | X-H torsion
[ 10763 10752 10751 10750 ] final   48.31 input  -60.55 | X-H torsion
[ 11005 11000 10999 10996 ] final   88.19 input  -57.11 | X-H torsion

> <Gold.Protein.ActiveResidues>
 VAL166  LYS551  ARG553  GLY616  TRP617  ASP618  TYR619  PRO620  LYS621  CYS622 
 ASP623  PHE694  ASN695  SER759  ASP760  ASP761  ALA762  ILE779  LEU786  VAL792 
 PHE793  MET794  SER795  GLU796  ALA797  LYS798  CYS799  TRP800  GLU811  SER814 

> <Gold.Protein.RotatedAtoms>
  152.5427  134.0786  159.8225 H   0  0  0  0  0  0  0  0  0  0  0  0  # atno 6907 bound_to 6896
  151.0890  133.5323  159.2623 H   0  0  0  0  0  0  0  0  0  0  0  0  # atno 6908 bound_to 6896
  151.2121  135.0494  159.8969 H   0  0  0  0  0  0  0  0  0  0  0  0  # atno 6909 bound_to 6896
  145.1950  139.2981  143.4348 H   0  0  0  0  0  0  0  0  0  0  0  0  # atno 7974 bound_to 7965
  156.3001  140.2414  156.3942 H   0  0  0  0  0  0  0  0  0  0  0  0  # atno 8008 bound_to 7997
  154.8586  140.0421  157.1670 H   0  0  0  0  0  0  0  0  0  0  0  0  # atno 8009 bound_to 7997
  154.8921  140.2964  155.5369 H   0  0  0  0  0  0  0  0  0  0  0  0  # atno 8010 bound_to 7997
  139.6779  143.9631  152.2321 H   0  0  0  0  0  0  0  0  0  0  0  0  # atno 10167 bound_to 10162
  157.4235  131.1041  151.0328 H   0  0  0  0  0  0  0  0  0  0  0  0  # atno 10718 bound_to 10713
  152.9793  135.5948  154.3904 H   0  0  0  0  0  0  0  0  0  0  0  0  # atno 10763 bound_to 10752
  154.3560  135.2767  155.2348 H   0  0  0  0  0  0  0  0  0  0  0  0  # atno 10764 bound_to 10752
  154.4366  135.6023  153.6157 H   0  0  0  0  0  0  0  0  0  0  0  0  # atno 10765 bound_to 10752
  139.8902  134.8472  156.2966 H   0  0  0  0  0  0  0  0  0  0  0  0  # atno 11005 bound_to 11000
  146.3429  140.2175  142.8591 LP  0  0  0  0  0  0  0  0  0  0  0  0  # atno 17320 bound_to 7965
  145.0004  140.8626  143.5285 LP  0  0  0  0  0  0  0  0  0  0  0  0  # atno 17321 bound_to 7965
  139.9413  144.6680  150.8263 LP  0  0  0  0  0  0  0  0  0  0  0  0  # atno 17342 bound_to 10162
  140.7642  143.3242  151.2552 LP  0  0  0  0  0  0  0  0  0  0  0  0  # atno 17343 bound_to 10162
  157.1250  130.6078  149.5515 LP  0  0  0  0  0  0  0  0  0  0  0  0  # atno 17370 bound_to 10713
  155.9888  130.4933  150.7187 LP  0  0  0  0  0  0  0  0  0  0  0  0  # atno 17371 bound_to 10713
  140.9941  133.7191  156.0858 LP  0  0  0  0  0  0  0  0  0  0  0  0  # atno 17394 bound_to 11000
  140.7586  134.3964  157.5529 LP  0  0  0  0  0  0  0  0  0  0  0  0  # atno 17395 bound_to 11000

$$$$
