AV-unprocessed.smi:152|AV-procd|sdf|1248|dock6
  -GOLD-   2262018473D 1   1.00000     0.00000
 Structure written by MMmdl.
 58 61  0  0  0  0  0  0  0  0  2 V2000
  144.6624  136.2550  150.1602 C   0  0  0  0  0  0  0  0  0  0  0  0
  145.5759  135.2995  150.9415 C   0  0  0  0  0  0  0  0  0  0  0  0
  145.4934  133.9044  150.4419 N   0  3  2  0  0  0  0  0  0  0  0  0
  144.1181  133.3853  150.2741 C   0  0  0  0  0  0  0  0  0  0  0  0
  144.2047  131.8600  150.4252 C   0  0  0  0  0  0  0  0  0  0  0  0
  145.6953  131.5606  150.5888 C   0  0  0  0  0  0  0  0  0  0  0  0
  146.2815  132.8628  151.1455 C   0  0  2  0  0  0  0  0  0  0  0  0
  146.1641  132.9406  152.6924 C   0  0  0  0  0  0  0  0  0  0  0  0
  147.1697  133.8094  153.3032 N   0  0  0  0  0  0  0  0  0  0  0  0
  148.5188  133.2715  153.4074 C   0  0  0  0  0  0  0  0  0  0  0  0
  146.8123  134.5059  154.4089 C   0  0  0  0  0  0  0  0  0  0  0  0
  146.5560  135.8384  154.3253 N   0  0  0  0  0  0  0  0  0  0  0  0
  146.1990  136.5212  155.4174 C   0  0  0  0  0  0  0  0  0  0  0  0
  146.0417  136.0760  156.6657 N   0  0  0  0  0  0  0  0  0  0  0  0
  146.2942  134.7384  156.7515 C   0  0  0  0  0  0  0  0  0  0  0  0
  146.6827  133.8862  155.6806 C   0  0  0  0  0  0  0  0  0  0  0  0
  146.8692  132.5905  156.1440 N   0  0  0  0  0  0  0  0  0  0  0  0
  146.6046  132.6711  157.4194 C   0  0  0  0  0  0  0  0  0  0  0  0
  146.2387  133.9212  157.8673 N   0  0  0  0  0  0  0  0  0  0  0  0
  145.8932  134.2909  159.2315 C   0  0  0  0  0  0  0  0  0  0  0  0
  147.1002  134.3250  160.2091 C   0  0  0  0  0  0  0  0  0  0  0  0
  147.5637  132.9966  160.3621 O   0  0  0  0  0  0  0  0  0  0  0  0
  148.2910  135.1771  159.7201 C   0  0  0  0  0  0  0  0  0  0  0  0
  147.9681  136.6791  159.7948 C   0  0  0  0  0  0  0  0  0  0  0  0
  147.6186  137.0308  161.1295 O   0  0  0  0  0  0  0  0  0  0  0  0
  146.4555  136.3587  161.6024 C   0  0  0  0  0  0  0  0  0  0  0  0
  146.6858  134.8357  161.6030 C   0  0  0  0  0  0  0  0  0  0  0  0
  144.6922  137.2551  150.5926 H   0  0  0  0  0  0  0  0  0  0  0  0
  143.6263  135.9159  150.1818 H   0  0  0  0  0  0  0  0  0  0  0  0
  144.9644  136.3426  149.1167 H   0  0  0  0  0  0  0  0  0  0  0  0
  146.6061  135.6560  150.9353 H   0  0  0  0  0  0  0  0  0  0  0  0
  145.2632  135.3017  151.9864 H   0  0  0  0  0  0  0  0  0  0  0  0
  143.4543  133.7971  151.0359 H   0  0  0  0  0  0  0  0  0  0  0  0
  143.7278  133.6765  149.2983 H   0  0  0  0  0  0  0  0  0  0  0  0
  143.6596  131.5447  151.3160 H   0  0  0  0  0  0  0  0  0  0  0  0
  143.7756  131.3327  149.5725 H   0  0  0  0  0  0  0  0  0  0  0  0
  145.8855  130.6873  151.2137 H   0  0  0  0  0  0  0  0  0  0  0  0
  146.1316  131.3582  149.6097 H   0  0  0  0  0  0  0  0  0  0  0  0
  147.3252  132.9590  150.8454 H   0  0  0  0  0  0  0  0  0  0  0  0
  145.1806  133.3010  152.9933 H   0  0  0  0  0  0  0  0  0  0  0  0
  146.2605  131.9416  153.1189 H   0  0  0  0  0  0  0  0  0  0  0  0
  149.2329  134.0363  153.7144 H   0  0  0  0  0  0  0  0  0  0  0  0
  148.8467  132.8807  152.4441 H   0  0  0  0  0  0  0  0  0  0  0  0
  148.5523  132.4588  154.1340 H   0  0  0  0  0  0  0  0  0  0  0  0
  146.0118  137.5747  155.2701 H   0  0  0  0  0  0  0  0  0  0  0  0
  146.6634  131.8126  158.0727 H   0  0  0  0  0  0  0  0  0  0  0  0
  145.3983  135.2606  159.1923 H   0  0  0  0  0  0  0  0  0  0  0  0
  145.1395  133.5897  159.5921 H   0  0  0  0  0  0  0  0  0  0  0  0
  147.4323  132.7332  161.2601 H   0  0  0  0  0  0  0  0  0  0  0  0
  149.1591  134.9863  160.3530 H   0  0  0  0  0  0  0  0  0  0  0  0
  148.5965  134.8997  158.7118 H   0  0  0  0  0  0  0  0  0  0  0  0
  148.8400  137.2615  159.4970 H   0  0  0  0  0  0  0  0  0  0  0  0
  147.1620  136.9481  159.1113 H   0  0  0  0  0  0  0  0  0  0  0  0
  146.2437  136.7016  162.6151 H   0  0  0  0  0  0  0  0  0  0  0  0
  145.5924  136.6321  160.9949 H   0  0  0  0  0  0  0  0  0  0  0  0
  145.7918  134.3184  161.9534 H   0  0  0  0  0  0  0  0  0  0  0  0
  147.4719  134.6100  162.3256 H   0  0  0  0  0  0  0  0  0  0  0  0
  145.8749  133.9231  149.5069 H   0  0  0  0  0  0  0  0  0  0  0  0
  1  2  1  0  0  0  0
  1 28  1  0  0  0  0
  1 29  1  0  0  0  0
  1 30  1  0  0  0  0
  2  3  1  0  0  0  0
  2 31  1  0  0  0  0
  2 32  1  0  0  0  0
  3  7  1  0  0  0  0
  3  4  1  0  0  0  0
  3 58  1  0  0  0  0
  4  5  1  0  0  0  0
  4 33  1  0  0  0  0
  4 34  1  0  0  0  0
  5  6  1  0  0  0  0
  5 35  1  0  0  0  0
  5 36  1  0  0  0  0
  6  7  1  0  0  0  0
  6 37  1  0  0  0  0
  6 38  1  0  0  0  0
  7  8  1  0  0  0  0
  7 39  1  0  0  0  0
  8  9  1  0  0  0  0
  8 40  1  0  0  0  0
  8 41  1  0  0  0  0
  9 10  1  0  0  0  0
  9 11  1  0  0  0  0
 10 42  1  0  0  0  0
 10 43  1  0  0  0  0
 10 44  1  0  0  0  0
 11 16  1  0  0  0  0
 11 12  2  0  0  0  0
 12 13  1  0  0  0  0
 13 14  2  0  0  0  0
 13 45  1  0  0  0  0
 14 15  1  0  0  0  0
 15 19  1  0  0  0  0
 15 16  2  0  0  0  0
 16 17  1  0  0  0  0
 17 18  2  0  0  0  0
 18 19  1  0  0  0  0
 18 46  1  0  0  0  0
 19 20  1  0  0  0  0
 20 21  1  0  0  0  0
 20 47  1  0  0  0  0
 20 48  1  0  0  0  0
 21 27  1  0  0  0  0
 21 22  1  0  0  0  0
 21 23  1  0  0  0  0
 22 49  1  0  0  0  0
 23 24  1  0  0  0  0
 23 50  1  0  0  0  0
 23 51  1  0  0  0  0
 24 25  1  0  0  0  0
 24 52  1  0  0  0  0
 24 53  1  0  0  0  0
 25 26  1  0  0  0  0
 26 27  1  0  0  0  0
 26 54  1  0  0  0  0
 26 55  1  0  0  0  0
 27 56  1  0  0  0  0
 27 57  1  0  0  0  0
M  CHG  1   3   1
M  END
> <s_m_source_file>
AV-unprocessed.smi

> <i_m_source_file_index>
152

> <i_lp_mmshare_version>
43012

> <i_f3d_flags>
0

> <s_epik_input>
W0NIM11bQ0gyXU4xW0NIMl1bQ0gyXVtDSDJdW0NASF0xW0NIMl1OKFtDSDNdKWMobltjSF1uMiljKGMyMyluW2NIXW4zW0NIMl1DNChbT0hdKVtDSDJdW0NIMl1PW0NIMl1bQ0gyXTQ=

> <s_epik_cmdline>
J2VwaWtfcHl0aG9uJywgJy1waCcsICc3LjAnLCAnLXRuJywgJzgnLCAnLW1hJywgJzIwMCcsICctbWV0YWxfYmluZGluZycsICctaW1hZScsICc8aW5maWxlLm1hZT4nLCAnLW9tYWUnLCAnPG91dGZpbGUubWFlPic=

> <r_lp_tautomer_probability>
1

> <r_epik_Ionization_Penalty>
0.00152183

> <r_epik_Ionization_Penalty_Charging>
0.00112577

> <r_epik_Ionization_Penalty_Neutral>
0.000396066

> <r_epik_State_Penalty>
-0

> <r_epik_Charging_Adjusted_Penalty>
0.00112577

> <i_epik_Tot_Q>
1

> <i_epik_Tot_abs_Q>
1

> <r_epik_Metal_State_Penalty>
-0

> <b_epik_Metal_Only>
0

> <s_lp_Force_Field>
OPLS_2005

> <r_lp_Energy>
47.1196

> <b_lp_Chiralities_Consistent>
1

> <s_lp_Variant>
AV-unprocessed.smi:152-3

> <Gold.Version>
5.8.1

> <Gold.Id.Protein>
6NUR|6NUR_protein|mol2

> <Gold.PLP.Fitness>
37.1549

> <Gold.PLP.PLP>
-29.8962

> <Gold.PLP.part.hbond>
-3.0000

> <Gold.PLP.part.metal>
0.0000

> <Gold.PLP.part.buried>
-0.6638

> <Gold.PLP.part.nonpolar>
-27.3897

> <Gold.PLP.part.repulsive>
0.3024

> <Gold.PLP.ligand.clash>
0.0000

> <Gold.PLP.ligand.torsion>
1.0225

> <Gold.PLP.Chemscore.Hbond>
2.8793

> <Gold.PLP.Chemscore.CHOScore>
0.0000

> <Gold.PLP.Chemscore.Metal>
0.0000

> <Gold.Chemscore.Hbonds>
donor molecule, donor type, donor heavy atom, donor atom, acceptor molecule, acceptor atom, score
      L1  H     3    58       P1  7921  0.88
      P1  H  6931  6943       L1    25  0.98
      P1  H  6934  6947       L1    25  0.89

> <Gold.PLP.Chemscore.Internal.Correction>
0.6659

> <Gold.Rescore>
     Score         DG    S(hbond)    S(metal)    S(lipo)     H(rot)  DE(clash)    DE(int)     intcor
     11.82     -14.76       1.75        0.00      89.33       2.73       1.86       1.08       ----

> <Gold.Chemscore.Fitness>
11.8162

> <Gold.Chemscore.DG>
-14.7598

> <Gold.Chemscore.ZeroCoef>
-5.4800

> <Gold.Chemscore.Hbond>
1.7452

> <Gold.Chemscore.Metal>
0.0000

> <Gold.Chemscore.Lipo>
89.3310

> <Gold.Chemscore.Internal_Hbond>
0.0000

> <Gold.Chemscore.DEClash>
1.8603

> <Gold.Chemscore.DEInternal>
1.0833

> <Gold.Chemscore.Rot>
2.7348

> <Gold.Chemscore.Internal.Correction>
   9.000000E+99

> <Gold.Chemscore.Hbonds>
donor molecule, donor type, donor heavy atom, donor atom, acceptor molecule, acceptor atom, score
      L1  H     3    58       P1  7921  0.21
      P1  H  6931  6943       L1    25  0.66
      P1  H  6934  6947       L1    25  0.20

> <Gold.Chemscore.Hbond.Weighted>
-5.8291

> <Gold.Chemscore.Metal.Weighted>
-0.0000

> <Gold.Chemscore.Lipo.Weighted>
-10.4517

> <Gold.Chemscore.Internal_Hbond.Weighted>
0.0000

> <Gold.Chemscore.DEClash.Weighted>
1.8603

> <Gold.Chemscore.DEInternal.Weighted>
1.0833

> <Gold.Chemscore.Rot.Weighted>
7.0010

> <Gold.Chemscore.Internal.Correction.Weighted>
   9.000000E+99

> <Gold.Protein.RotatedTorsions>
[ 6907 6896 6895 6894 ] final  -51.22 input  -60.11 | X-H torsion
[ 7974 7965 7964 7962 ] final  141.09 input  175.53 | X-H torsion
[ 8008 7997 7996 7995 ] final   -7.32 input   59.86 | X-H torsion
[ 10167 10162 10161 10158 ] final  144.85 input  -65.29 | X-H torsion
[ 10718 10713 10712 10709 ] final -147.44 input   66.30 | X-H torsion
[ 10763 10752 10751 10750 ] final  -97.46 input  -60.55 | X-H torsion
[ 11005 11000 10999 10996 ] final  -30.50 input  -57.11 | X-H torsion

> <Gold.Protein.ActiveResidues>
 VAL166  LYS551  ARG553  GLY616  TRP617  ASP618  TYR619  PRO620  LYS621  CYS622 
 ASP623  PHE694  ASN695  SER759  ASP760  ASP761  ALA762  ILE779  LEU786  VAL792 
 PHE793  MET794  SER795  GLU796  ALA797  LYS798  CYS799  TRP800  GLU811  SER814 

> <Gold.Protein.RotatedAtoms>
  150.8632  134.7989  159.7098 H   0  0  0  0  0  0  0  0  0  0  0  0  # atno 6907 bound_to 6896
  152.4662  134.5066  159.9751 H   0  0  0  0  0  0  0  0  0  0  0  0  # atno 6908 bound_to 6896
  151.5166  133.3436  159.2930 H   0  0  0  0  0  0  0  0  0  0  0  0  # atno 6909 bound_to 6896
  144.9128  139.5270  143.5700 H   0  0  0  0  0  0  0  0  0  0  0  0  # atno 7974 bound_to 7965
  154.5850  140.2410  155.8000 H   0  0  0  0  0  0  0  0  0  0  0  0  # atno 8008 bound_to 7997
  156.2206  140.2998  155.9900 H   0  0  0  0  0  0  0  0  0  0  0  0  # atno 8009 bound_to 7997
  155.2474  140.0409  157.2973 H   0  0  0  0  0  0  0  0  0  0  0  0  # atno 8010 bound_to 7997
  139.4938  144.5943  151.6615 H   0  0  0  0  0  0  0  0  0  0  0  0  # atno 10167 bound_to 10162
  156.4076  130.7965  151.2180 H   0  0  0  0  0  0  0  0  0  0  0  0  # atno 10718 bound_to 10713
  154.7330  135.5046  153.8994 H   0  0  0  0  0  0  0  0  0  0  0  0  # atno 10763 bound_to 10752
  153.0967  135.6674  153.9757 H   0  0  0  0  0  0  0  0  0  0  0  0  # atno 10764 bound_to 10752
  153.9554  135.3053  155.3415 H   0  0  0  0  0  0  0  0  0  0  0  0  # atno 10765 bound_to 10752
  140.9388  133.7291  156.1045 H   0  0  0  0  0  0  0  0  0  0  0  0  # atno 11005 bound_to 11000
  146.3167  139.7947  142.8978 LP  0  0  0  0  0  0  0  0  0  0  0  0  # atno 17320 bound_to 7965
  145.3426  141.0291  143.3384 LP  0  0  0  0  0  0  0  0  0  0  0  0  # atno 17321 bound_to 7965
  140.5577  144.0320  150.6155 LP  0  0  0  0  0  0  0  0  0  0  0  0  # atno 17342 bound_to 10162
  140.3395  143.3028  152.0603 LP  0  0  0  0  0  0  0  0  0  0  0  0  # atno 17343 bound_to 10162
  157.7506  131.0267  150.3975 LP  0  0  0  0  0  0  0  0  0  0  0  0  # atno 17370 bound_to 10713
  156.4267  130.3964  149.6788 LP  0  0  0  0  0  0  0  0  0  0  0  0  # atno 17371 bound_to 10713
  140.7762  134.3777  157.5497 LP  0  0  0  0  0  0  0  0  0  0  0  0  # atno 17394 bound_to 11000
  139.8815  134.9053  156.2897 LP  0  0  0  0  0  0  0  0  0  0  0  0  # atno 17395 bound_to 11000

$$$$
