AV-unprocessed.smi:720|AV-procd|sdf|3499|dock3
  -GOLD-   22720 0493D 1   1.00000     0.00000
 Structure written by MMmdl.
 46 48  0  0  0  0  0  0  0  0  1 V2000
  151.8583  141.5778  158.7548 C   0  0  0  0  0  0  0  0  0  0  0  0
  152.3554  142.3145  157.5984 N   0  0  0  0  0  0  0  0  0  0  0  0
  152.4773  143.7165  157.9765 C   0  0  0  0  0  0  0  0  0  0  0  0
  151.4524  142.2109  156.4504 C   0  0  0  0  0  0  0  0  0  0  0  0
  151.3230  140.7785  155.8890 C   0  0  0  0  0  0  0  0  0  0  0  0
  150.1827  140.6009  155.0067 N   0  0  0  0  0  0  0  0  0  0  0  0
  149.2687  141.5454  154.5835 C   0  0  0  0  0  0  0  0  0  0  0  0
  148.3840  140.9199  153.7520 C   0  0  0  0  0  0  0  0  0  0  0  0
  148.8599  139.5749  153.7235 C   0  0  0  0  0  0  0  0  0  0  0  0
  148.2885  138.5011  152.9951 N   0  0  0  0  0  0  0  0  0  0  0  0
  147.0250  138.3667  152.5490 C   0  0  0  0  0  0  0  0  0  0  0  0
  146.1421  139.2128  152.6745 O   0  0  0  0  0  0  0  0  0  0  0  0
  146.7811  137.1927  151.9395 N   0  0  0  0  0  0  0  0  0  0  0  0
  145.5234  136.7296  151.3453 C   0  0  2  0  0  0  0  0  0  0  0  0
  144.4044  136.6478  152.4071 C   0  0  0  0  0  0  0  0  0  0  0  0
  143.9622  135.1744  152.3375 C   0  0  2  0  0  0  0  0  0  0  0  0
  145.0596  134.2757  152.9392 C   0  0  0  0  0  0  0  0  0  0  0  0
  146.1570  134.3069  151.8588 C   0  0  0  0  0  0  0  0  0  0  0  0
  145.5683  135.2739  150.8096 C   0  0  1  0  0  0  0  0  0  0  0  0
  144.0947  134.8832  150.8490 C   0  0  0  0  0  0  0  0  0  0  0  0
  149.9446  139.3907  154.4555 N   0  0  0  0  0  0  0  0  0  0  0  0
  151.8578  140.5055  158.5707 H   0  0  0  0  0  0  0  0  0  0  0  0
  150.8449  141.8842  159.0181 H   0  0  0  0  0  0  0  0  0  0  0  0
  152.4999  141.7469  159.6205 H   0  0  0  0  0  0  0  0  0  0  0  0
  152.8834  144.3045  157.1528 H   0  0  0  0  0  0  0  0  0  0  0  0
  153.1556  143.8289  158.8233 H   0  0  0  0  0  0  0  0  0  0  0  0
  151.5104  144.1391  158.2544 H   0  0  0  0  0  0  0  0  0  0  0  0
  150.4765  142.6415  156.6800 H   0  0  0  0  0  0  0  0  0  0  0  0
  151.8698  142.8230  155.6495 H   0  0  0  0  0  0  0  0  0  0  0  0
  152.2140  140.5442  155.3058 H   0  0  0  0  0  0  0  0  0  0  0  0
  151.2866  140.0470  156.6982 H   0  0  0  0  0  0  0  0  0  0  0  0
  149.3204  142.5738  154.9094 H   0  0  0  0  0  0  0  0  0  0  0  0
  147.5397  141.3682  153.2507 H   0  0  0  0  0  0  0  0  0  0  0  0
  148.9013  137.7149  152.8354 H   0  0  0  0  0  0  0  0  0  0  0  0
  147.5545  136.5455  151.8861 H   0  0  0  0  0  0  0  0  0  0  0  0
  145.2136  137.4145  150.5537 H   0  0  0  0  0  0  0  0  0  0  0  0
  144.7358  136.9255  153.4089 H   0  0  0  0  0  0  0  0  0  0  0  0
  143.5799  137.3099  152.1399 H   0  0  0  0  0  0  0  0  0  0  0  0
  142.9716  134.9960  152.7566 H   0  0  0  0  0  0  0  0  0  0  0  0
  145.4137  134.6469  153.9016 H   0  0  0  0  0  0  0  0  0  0  0  0
  144.6956  133.2581  153.0856 H   0  0  0  0  0  0  0  0  0  0  0  0
  147.1248  134.6206  152.2495 H   0  0  0  0  0  0  0  0  0  0  0  0
  146.2904  133.3141  151.4268 H   0  0  0  0  0  0  0  0  0  0  0  0
  146.0331  135.1826  149.8275 H   0  0  0  0  0  0  0  0  0  0  0  0
  143.9155  133.8370  150.5940 H   0  0  0  0  0  0  0  0  0  0  0  0
  143.4619  135.5169  150.2249 H   0  0  0  0  0  0  0  0  0  0  0  0
  1  2  1  0  0  0  0
  1 22  1  0  0  0  0
  1 23  1  0  0  0  0
  1 24  1  0  0  0  0
  2  3  1  0  0  0  0
  2  4  1  0  0  0  0
  3 25  1  0  0  0  0
  3 26  1  0  0  0  0
  3 27  1  0  0  0  0
  4  5  1  0  0  0  0
  4 28  1  0  0  0  0
  4 29  1  0  0  0  0
  5  6  1  0  0  0  0
  5 30  1  0  0  0  0
  5 31  1  0  0  0  0
  6 21  1  0  0  0  0
  6  7  1  0  0  0  0
  7  8  2  0  0  0  0
  7 32  1  0  0  0  0
  8  9  1  0  0  0  0
  8 33  1  0  0  0  0
  9 10  1  0  0  0  0
  9 21  2  0  0  0  0
 10 11  1  0  0  0  0
 10 34  1  0  0  0  0
 11 12  2  0  0  0  0
 11 13  1  0  0  0  0
 13 14  1  0  0  0  0
 13 35  1  0  0  0  0
 14 19  1  0  0  0  0
 14 15  1  0  0  0  0
 14 36  1  0  0  0  0
 15 16  1  0  0  0  0
 15 37  1  0  0  0  0
 15 38  1  0  0  0  0
 16 20  1  0  0  0  0
 16 17  1  0  0  0  0
 16 39  1  0  0  0  0
 17 18  1  0  0  0  0
 17 40  1  0  0  0  0
 17 41  1  0  0  0  0
 18 19  1  0  0  0  0
 18 42  1  0  0  0  0
 18 43  1  0  0  0  0
 19 20  1  0  0  0  0
 19 44  1  0  0  0  0
 20 45  1  0  0  0  0
 20 46  1  0  0  0  0
M  END
> <s_m_source_file>
AV-unprocessed.smi

> <i_m_source_file_index>
720

> <i_lp_mmshare_version>
43012

> <i_f3d_flags>
0

> <s_epik_input>
W0NIM11OKFtDSDNdKVtDSDJdW0NIMl1uMVtjSF1bY0hdYyhuMSlbTkhdQyg9TylbTkhdW0NASF0oW0NIMl1bQ0BIXTIzKVtDQEhdKFtDSDJdMylbQ0gyXVtDSDJdMg==

> <s_epik_cmdline>
J2VwaWtfcHl0aG9uJywgJy1waCcsICc3LjAnLCAnLXRuJywgJzgnLCAnLW1hJywgJzIwMCcsICctbWV0YWxfYmluZGluZycsICctaW1hZScsICc8aW5maWxlLm1hZT4nLCAnLW9tYWUnLCAnPG91dGZpbGUubWFlPic=

> <r_lp_tautomer_probability>
1

> <r_epik_Ionization_Penalty>
1.83819

> <r_epik_Ionization_Penalty_Charging>
0

> <r_epik_Ionization_Penalty_Neutral>
1.83819

> <r_epik_State_Penalty>
1.95467

> <r_epik_Charging_Adjusted_Penalty>
1.95467

> <i_epik_Tot_Q>
0

> <i_epik_Tot_abs_Q>
0

> <r_epik_Metal_State_Penalty>
1.95467

> <b_epik_Metal_Only>
0

> <s_lp_Force_Field>
OPLS_2005

> <r_lp_Energy>
64.6773

> <b_lp_Chiralities_Consistent>
1

> <s_lp_Variant>
AV-unprocessed.smi:720-5

> <Gold.Version>
5.8.1

> <Gold.Id.Protein>
6NUR|6NUR_protein|mol2

> <Gold.PLP.Fitness>
43.1048

> <Gold.PLP.PLP>
-34.9058

> <Gold.PLP.part.hbond>
-2.9198

> <Gold.PLP.part.metal>
0.0000

> <Gold.PLP.part.buried>
3.0412

> <Gold.PLP.part.nonpolar>
-38.3605

> <Gold.PLP.part.repulsive>
4.2182

> <Gold.PLP.ligand.clash>
0.0000

> <Gold.PLP.ligand.torsion>
0.1954

> <Gold.PLP.Chemscore.Hbond>
1.8480

> <Gold.PLP.Chemscore.CHOScore>
1.0000

> <Gold.PLP.Chemscore.Metal>
0.0000

> <Gold.Chemscore.Hbonds>
donor molecule, donor type, donor heavy atom, donor atom, acceptor molecule, acceptor atom, score
      L1  H    10    34       P1  7948  0.80
      L1  H    13    35       P1  7948  0.70
      L1  C     7    32       P1  8028  1.00

> <Gold.PLP.Chemscore.Internal.Correction>
0.0459

> <Gold.Rescore>
     Score         DG    S(hbond)    S(metal)    S(lipo)     H(rot)  DE(clash)    DE(int)     intcor
     13.56     -17.31       1.82        0.00      82.74       1.53       2.57       1.18       ----

> <Gold.Chemscore.Fitness>
13.5632

> <Gold.Chemscore.DG>
-17.3056

> <Gold.Chemscore.ZeroCoef>
-5.4800

> <Gold.Chemscore.Hbond>
1.8159

> <Gold.Chemscore.Metal>
0.0000

> <Gold.Chemscore.Lipo>
82.7383

> <Gold.Chemscore.Internal_Hbond>
0.0000

> <Gold.Chemscore.DEClash>
2.5651

> <Gold.Chemscore.DEInternal>
1.1773

> <Gold.Chemscore.Rot>
1.5312

> <Gold.Chemscore.Internal.Correction>
   9.000000E+99

> <Gold.Chemscore.Hbonds>
donor molecule, donor type, donor heavy atom, donor atom, acceptor molecule, acceptor atom, score
      L1  H    10    34       P1  7948  0.80
      L1  H    13    35       P1  7948  0.69

> <Gold.Chemscore.Hbond.Weighted>
-6.0651

> <Gold.Chemscore.Metal.Weighted>
-0.0000

> <Gold.Chemscore.Lipo.Weighted>
-9.6804

> <Gold.Chemscore.Internal_Hbond.Weighted>
0.0000

> <Gold.Chemscore.DEClash.Weighted>
2.5651

> <Gold.Chemscore.DEInternal.Weighted>
1.1773

> <Gold.Chemscore.Rot.Weighted>
3.9199

> <Gold.Chemscore.Internal.Correction.Weighted>
   9.000000E+99

> <Gold.Protein.RotatedTorsions>
[ 6907 6896 6895 6894 ] final -161.60 input  -60.11 | X-H torsion
[ 7974 7965 7964 7962 ] final  140.66 input  175.53 | X-H torsion
[ 8008 7997 7996 7995 ] final  -94.35 input   59.86 | X-H torsion
[ 10167 10162 10161 10158 ] final  -81.50 input  -65.29 | X-H torsion
[ 10718 10713 10712 10709 ] final   22.26 input   66.30 | X-H torsion
[ 10763 10752 10751 10750 ] final -157.57 input  -60.55 | X-H torsion
[ 11005 11000 10999 10996 ] final  -31.43 input  -57.11 | X-H torsion

> <Gold.Protein.ActiveResidues>
 VAL166  LYS551  ARG553  GLY616  TRP617  ASP618  TYR619  PRO620  LYS621  CYS622 
 ASP623  PHE694  ASN695  SER759  ASP760  ASP761  ALA762  ILE779  LEU786  VAL792 
 PHE793  MET794  SER795  GLU796  ALA797  LYS798  CYS799  TRP800  GLU811  SER814 

> <Gold.Protein.RotatedAtoms>
  151.3672  133.3868  159.2695 H   0  0  0  0  0  0  0  0  0  0  0  0  # atno 6907 bound_to 6896
  150.9679  134.9058  159.7780 H   0  0  0  0  0  0  0  0  0  0  0  0  # atno 6908 bound_to 6896
  152.5174  134.3633  159.9345 H   0  0  0  0  0  0  0  0  0  0  0  0  # atno 6909 bound_to 6896
  144.9166  139.5222  143.5683 H   0  0  0  0  0  0  0  0  0  0  0  0  # atno 7974 bound_to 7965
  154.7473  140.0490  157.0863 H   0  0  0  0  0  0  0  0  0  0  0  0  # atno 8008 bound_to 7997
  155.0102  140.3135  155.4813 H   0  0  0  0  0  0  0  0  0  0  0  0  # atno 8009 bound_to 7997
  156.2877  140.2185  156.5216 H   0  0  0  0  0  0  0  0  0  0  0  0  # atno 8010 bound_to 7997
  140.4406  143.2516  151.8630 H   0  0  0  0  0  0  0  0  0  0  0  0  # atno 10167 bound_to 10162
  157.1499  130.6670  149.6008 H   0  0  0  0  0  0  0  0  0  0  0  0  # atno 10718 bound_to 10713
  154.7626  135.3122  154.8349 H   0  0  0  0  0  0  0  0  0  0  0  0  # atno 10763 bound_to 10752
  153.9106  135.6806  153.4755 H   0  0  0  0  0  0  0  0  0  0  0  0  # atno 10764 bound_to 10752
  153.1228  135.4815  154.9155 H   0  0  0  0  0  0  0  0  0  0  0  0  # atno 10765 bound_to 10752
  140.9468  133.7245  156.1158 H   0  0  0  0  0  0  0  0  0  0  0  0  # atno 11005 bound_to 11000
  146.3185  139.8014  142.8964 LP  0  0  0  0  0  0  0  0  0  0  0  0  # atno 17320 bound_to 7965
  145.3365  141.0278  143.3417 LP  0  0  0  0  0  0  0  0  0  0  0  0  # atno 17321 bound_to 7965
  139.4789  144.5233  151.8771 LP  0  0  0  0  0  0  0  0  0  0  0  0  # atno 17342 bound_to 10162
  140.4322  144.2100  150.5888 LP  0  0  0  0  0  0  0  0  0  0  0  0  # atno 17343 bound_to 10162
  155.9772  130.4748  150.6581 LP  0  0  0  0  0  0  0  0  0  0  0  0  # atno 17370 bound_to 10713
  157.4230  131.0839  151.1112 LP  0  0  0  0  0  0  0  0  0  0  0  0  # atno 17371 bound_to 10713
  140.7658  134.3887  157.5517 LP  0  0  0  0  0  0  0  0  0  0  0  0  # atno 17394 bound_to 11000
  139.8835  134.8991  156.2759 LP  0  0  0  0  0  0  0  0  0  0  0  0  # atno 17395 bound_to 11000

$$$$
