AV-unprocessed.smi:295|AV-procd|sdf|2255|dock1
  -GOLD-   2262022143D 1   1.00000     0.00000
 Structure written by MMmdl.
 35 36  0  0  0  0  0  0  0  0  1 V2000
  151.8516  144.9210  158.2661 C   0  0  0  0  0  0  0  0  0  0  0  0
  152.5415  144.1680  159.4163 C   0  0  1  0  0  0  0  0  0  0  0  0
  151.7548  144.3043  160.7362 C   0  0  0  0  0  0  0  0  0  0  0  0
  152.4760  143.6044  161.8995 C   0  0  0  0  0  0  0  0  0  0  0  0
  152.7537  142.1279  161.5799 C   0  0  0  0  0  0  0  0  0  0  0  0
  153.5368  141.9805  160.2634 C   0  0  0  0  0  0  0  0  0  0  0  0
  152.8321  142.6820  159.0845 C   0  0  1  0  0  0  0  0  0  0  0  0
  151.6113  141.9517  158.7405 N   0  0  0  0  0  0  0  0  0  0  0  0
  151.5429  140.7550  158.1356 C   0  0  0  0  0  0  0  0  0  0  0  0
  152.5277  140.1313  157.7418 O   0  0  0  0  0  0  0  0  0  0  0  0
  150.1415  140.1733  157.9416 C   0  0  0  0  0  0  0  0  0  0  0  0
  150.0244  138.8671  158.5652 N   0  0  0  0  0  0  0  0  0  0  0  0
  150.9669  137.9929  158.9345 C   0  0  0  0  0  0  0  0  0  0  0  0
  150.4877  136.8734  159.4620 N   0  0  0  0  0  0  0  0  0  0  0  0
  149.1546  137.1539  159.3782 C   0  0  0  0  0  0  0  0  0  0  0  0
  148.1497  136.2094  159.8359 C   0  0  0  0  0  0  0  0  0  0  0  0
  147.3494  135.4572  160.2007 N   0  0  0  0  0  0  0  0  0  0  0  0
  148.8142  138.3293  158.8537 N   0  0  0  0  0  0  0  0  0  0  0  0
  150.8456  144.5435  158.0815 H   0  0  0  0  0  0  0  0  0  0  0  0
  152.4188  144.8264  157.3397 H   0  0  0  0  0  0  0  0  0  0  0  0
  151.7662  145.9842  158.4919 H   0  0  0  0  0  0  0  0  0  0  0  0
  153.5074  144.6528  159.5676 H   0  0  0  0  0  0  0  0  0  0  0  0
  151.6168  145.3585  160.9789 H   0  0  0  0  0  0  0  0  0  0  0  0
  150.7552  143.8839  160.6199 H   0  0  0  0  0  0  0  0  0  0  0  0
  153.4173  144.1160  162.1049 H   0  0  0  0  0  0  0  0  0  0  0  0
  151.8783  143.6823  162.8081 H   0  0  0  0  0  0  0  0  0  0  0  0
  153.3138  141.6713  162.3965 H   0  0  0  0  0  0  0  0  0  0  0  0
  151.8109  141.5835  161.5138 H   0  0  0  0  0  0  0  0  0  0  0  0
  154.5316  142.4091  160.3916 H   0  0  0  0  0  0  0  0  0  0  0  0
  153.6903  140.9245  160.0371 H   0  0  0  0  0  0  0  0  0  0  0  0
  153.5185  142.6525  158.2365 H   0  0  0  0  0  0  0  0  0  0  0  0
  150.7422  142.3865  159.0134 H   0  0  0  0  0  0  0  0  0  0  0  0
  149.4000  140.8427  158.3792 H   0  0  0  0  0  0  0  0  0  0  0  0
  149.9109  140.0863  156.8787 H   0  0  0  0  0  0  0  0  0  0  0  0
  152.0239  138.1766  158.8073 H   0  0  0  0  0  0  0  0  0  0  0  0
  1  2  1  0  0  0  0
  1 19  1  0  0  0  0
  1 20  1  0  0  0  0
  1 21  1  0  0  0  0
  2  7  1  0  0  0  0
  2  3  1  0  0  0  0
  2 22  1  0  0  0  0
  3  4  1  0  0  0  0
  3 23  1  0  0  0  0
  3 24  1  0  0  0  0
  4  5  1  0  0  0  0
  4 25  1  0  0  0  0
  4 26  1  0  0  0  0
  5  6  1  0  0  0  0
  5 27  1  0  0  0  0
  5 28  1  0  0  0  0
  6  7  1  0  0  0  0
  6 29  1  0  0  0  0
  6 30  1  0  0  0  0
  7  8  1  0  0  0  0
  7 31  1  0  0  0  0
  8  9  1  0  0  0  0
  8 32  1  0  0  0  0
  9 10  2  0  0  0  0
  9 11  1  0  0  0  0
 11 12  1  0  0  0  0
 11 33  1  0  0  0  0
 11 34  1  0  0  0  0
 12 18  1  0  0  0  0
 12 13  1  0  0  0  0
 13 14  2  0  0  0  0
 13 35  1  0  0  0  0
 14 15  1  0  0  0  0
 15 16  1  0  0  0  0
 15 18  2  0  0  0  0
 16 17  3  0  0  0  0
M  END
> <s_m_source_file>
AV-unprocessed.smi

> <i_m_source_file_index>
295

> <i_lp_mmshare_version>
43012

> <i_f3d_flags>
0

> <s_epik_input>
W0NIM11bQ0BASF0xW0NIMl1bQ0gyXVtDSDJdW0NIMl1bQ0BIXTFbTkhdQyg9TylbQ0gyXW4yW2NIXW5jKG4yKUMjTg==

> <s_epik_cmdline>
J2VwaWtfcHl0aG9uJywgJy1waCcsICc3LjAnLCAnLXRuJywgJzgnLCAnLW1hJywgJzIwMCcsICctbWV0YWxfYmluZGluZycsICctaW1hZScsICc8aW5maWxlLm1hZT4nLCAnLW9tYWUnLCAnPG91dGZpbGUubWFlPic=

> <r_lp_tautomer_probability>
1

> <r_epik_Ionization_Penalty>
5.31112e-08

> <r_epik_Ionization_Penalty_Charging>
0

> <r_epik_Ionization_Penalty_Neutral>
5.31112e-08

> <r_epik_State_Penalty>
-0

> <r_epik_Charging_Adjusted_Penalty>
0

> <i_epik_Tot_Q>
0

> <i_epik_Tot_abs_Q>
0

> <r_epik_Metal_State_Penalty>
-0

> <b_epik_Metal_Only>
0

> <s_lp_Force_Field>
OPLS_2005

> <r_lp_Energy>
13.099

> <b_lp_Chiralities_Consistent>
1

> <s_lp_Variant>
AV-unprocessed.smi:295-2

> <Gold.Version>
5.8.1

> <Gold.Id.Protein>
6NUR|6NUR_protein|mol2

> <Gold.PLP.Fitness>
46.2992

> <Gold.PLP.PLP>
-41.1680

> <Gold.PLP.part.hbond>
-2.7064

> <Gold.PLP.part.metal>
0.0000

> <Gold.PLP.part.buried>
-5.4781

> <Gold.PLP.part.nonpolar>
-32.4725

> <Gold.PLP.part.repulsive>
0.0900

> <Gold.PLP.ligand.clash>
0.0000

> <Gold.PLP.ligand.torsion>
0.4390

> <Gold.PLP.Chemscore.Hbond>
2.0000

> <Gold.PLP.Chemscore.CHOScore>
0.0000

> <Gold.PLP.Chemscore.Metal>
0.0000

> <Gold.Chemscore.Hbonds>
donor molecule, donor type, donor heavy atom, donor atom, acceptor molecule, acceptor atom, score
      P1  H  6896  6909       L1    14  1.00
      P1  H  7997  8010       L1    10  0.75

> <Gold.PLP.Chemscore.Internal.Correction>
0.0091

> <Gold.Rescore>
     Score         DG    S(hbond)    S(metal)    S(lipo)     H(rot)  DE(clash)    DE(int)     intcor
     16.08     -17.55       1.98        0.00      89.35       1.95       0.00       1.48       ----

> <Gold.Chemscore.Fitness>
16.0769

> <Gold.Chemscore.DG>
-17.5549

> <Gold.Chemscore.ZeroCoef>
-5.4800

> <Gold.Chemscore.Hbond>
1.9780

> <Gold.Chemscore.Metal>
0.0000

> <Gold.Chemscore.Lipo>
89.3474

> <Gold.Chemscore.Internal_Hbond>
0.0000

> <Gold.Chemscore.DEClash>
0.0000

> <Gold.Chemscore.DEInternal>
1.4779

> <Gold.Chemscore.Rot>
1.9474

> <Gold.Chemscore.Internal.Correction>
   9.000000E+99

> <Gold.Chemscore.Hbonds>
donor molecule, donor type, donor heavy atom, donor atom, acceptor molecule, acceptor atom, score
      P1  H  6896  6909       L1    14  0.99
      P1  H  7997  8010       L1    10  0.72

> <Gold.Chemscore.Hbond.Weighted>
-6.6065

> <Gold.Chemscore.Metal.Weighted>
-0.0000

> <Gold.Chemscore.Lipo.Weighted>
-10.4536

> <Gold.Chemscore.Internal_Hbond.Weighted>
0.0000

> <Gold.Chemscore.DEClash.Weighted>
0.0000

> <Gold.Chemscore.DEInternal.Weighted>
1.4779

> <Gold.Chemscore.Rot.Weighted>
4.9852

> <Gold.Chemscore.Internal.Correction.Weighted>
   9.000000E+99

> <Gold.Protein.RotatedTorsions>
[ 6907 6896 6895 6894 ] final  100.62 input  -60.11 | X-H torsion
[ 7974 7965 7964 7962 ] final   28.20 input  175.53 | X-H torsion
[ 8008 7997 7996 7995 ] final   47.15 input   59.86 | X-H torsion
[ 10167 10162 10161 10158 ] final  -13.90 input  -65.29 | X-H torsion
[ 10718 10713 10712 10709 ] final   44.27 input   66.30 | X-H torsion
[ 10763 10752 10751 10750 ] final  -45.83 input  -60.55 | X-H torsion
[ 11005 11000 10999 10996 ] final  109.48 input  -57.11 | X-H torsion

> <Gold.Protein.ActiveResidues>
 VAL166  LYS551  ARG553  GLY616  TRP617  ASP618  TYR619  PRO620  LYS621  CYS622 
 ASP623  PHE694  ASN695  SER759  ASP760  ASP761  ALA762  ILE779  LEU786  VAL792 
 PHE793  MET794  SER795  GLU796  ALA797  LYS798  CYS799  TRP800  GLU811  SER814 

> <Gold.Protein.RotatedAtoms>
  152.5368  134.0249  159.7998 H   0  0  0  0  0  0  0  0  0  0  0  0  # atno 6907 bound_to 6896
  151.0430  133.5682  159.2656 H   0  0  0  0  0  0  0  0  0  0  0  0  # atno 6908 bound_to 6896
  151.2645  135.0672  159.9164 H   0  0  0  0  0  0  0  0  0  0  0  0  # atno 6909 bound_to 6896
  146.1742  139.7088  142.8946 H   0  0  0  0  0  0  0  0  0  0  0  0  # atno 7974 bound_to 7965
  155.3642  140.3420  155.4241 H   0  0  0  0  0  0  0  0  0  0  0  0  # atno 8008 bound_to 7997
  156.1697  140.1628  156.8503 H   0  0  0  0  0  0  0  0  0  0  0  0  # atno 8009 bound_to 7997
  154.5221  140.0764  156.8173 H   0  0  0  0  0  0  0  0  0  0  0  0  # atno 8010 bound_to 7997
  140.7191  143.5377  150.9445 H   0  0  0  0  0  0  0  0  0  0  0  0  # atno 10167 bound_to 10162
  157.4250  130.7991  149.7550 H   0  0  0  0  0  0  0  0  0  0  0  0  # atno 10718 bound_to 10713
  154.0350  135.6651  153.4784 H   0  0  0  0  0  0  0  0  0  0  0  0  # atno 10763 bound_to 10752
  153.0525  135.5076  154.7897 H   0  0  0  0  0  0  0  0  0  0  0  0  # atno 10764 bound_to 10752
  154.6854  135.3052  154.9519 H   0  0  0  0  0  0  0  0  0  0  0  0  # atno 10765 bound_to 10752
  139.8863  134.9459  156.6132 H   0  0  0  0  0  0  0  0  0  0  0  0  # atno 11005 bound_to 11000
  145.4257  141.0410  143.2939 LP  0  0  0  0  0  0  0  0  0  0  0  0  # atno 17320 bound_to 7965
  144.8210  139.5792  143.6987 LP  0  0  0  0  0  0  0  0  0  0  0  0  # atno 17321 bound_to 7965
  139.9099  143.6732  152.3117 LP  0  0  0  0  0  0  0  0  0  0  0  0  # atno 17342 bound_to 10162
  139.7112  144.7620  151.1109 LP  0  0  0  0  0  0  0  0  0  0  0  0  # atno 17343 bound_to 10162
  155.9893  130.3952  150.3077 LP  0  0  0  0  0  0  0  0  0  0  0  0  # atno 17370 bound_to 10713
  157.1229  131.0251  151.3002 LP  0  0  0  0  0  0  0  0  0  0  0  0  # atno 17371 bound_to 10713
  140.7796  133.8671  155.8556 LP  0  0  0  0  0  0  0  0  0  0  0  0  # atno 17394 bound_to 11000
  140.9772  134.1453  157.4526 LP  0  0  0  0  0  0  0  0  0  0  0  0  # atno 17395 bound_to 11000

$$$$
