AV-unprocessed.smi:772|AV-procd|sdf|3687|dock10
  -GOLD-   22720 1103D 1   1.00000     0.00000
 Structure written by MMmdl.
 47 48  0  0  0  0  0  0  0  0  2 V2000
  145.5780  132.9623  150.4640 C   0  0  0  0  0  0  0  0  0  0  0  0
  146.3723  133.3696  151.6865 C   0  0  0  0  0  0  0  0  0  0  0  0
  145.9652  134.4213  152.5347 C   0  0  0  0  0  0  0  0  0  0  0  0
  146.7617  134.7536  153.6499 C   0  0  0  0  0  0  0  0  0  0  0  0
  147.9488  134.0293  153.8943 C   0  0  0  0  0  0  0  0  0  0  0  0
  148.8444  134.3929  155.0655 C   0  0  0  0  0  0  0  0  0  0  0  0
  150.3141  134.6296  154.6664 C   0  0  0  0  0  0  0  0  0  0  0  0
  150.5852  136.0276  154.3393 N   0  0  0  0  0  0  0  0  0  0  0  0
  151.4328  136.8414  154.9939 C   0  0  0  0  0  0  0  0  0  0  0  0
  152.0800  136.4639  155.9718 O   0  0  0  0  0  0  0  0  0  0  0  0
  151.4751  138.1136  154.5236 N   0  0  0  0  0  0  0  0  0  0  0  0
  152.4274  139.1558  154.9386 C   0  0  0  0  0  0  0  0  0  0  0  0
  151.7723  140.0265  156.0213 C   0  0  0  0  0  0  0  0  0  0  0  0
  150.3063  140.8824  155.3672 S   0  0  0  0  0  0  0  0  0  0  0  0
  149.4249  139.4776  154.5974 C   0  0  1  0  0  0  0  0  0  0  0  0
  148.1427  139.9256  153.8511 C   0  0  0  0  0  0  0  0  0  0  0  0
  147.3673  141.0517  154.5606 C   0  0  0  0  0  0  0  0  0  0  0  0
  147.2171  138.7386  153.5343 C   0  0  0  0  0  0  0  0  0  0  0  0
  150.3898  138.6662  153.7037 C   0  0  0  0  0  0  0  0  0  0  0  0
  148.3013  132.9819  153.0159 C   0  0  0  0  0  0  0  0  0  0  0  0
  147.5124  132.6957  151.9577 N   0  3  0  0  0  0  0  0  0  0  0  0
  144.6192  133.4801  150.4279 H   0  0  0  0  0  0  0  0  0  0  0  0
  145.3842  131.8894  150.4740 H   0  0  0  0  0  0  0  0  0  0  0  0
  146.1315  133.2050  149.5564 H   0  0  0  0  0  0  0  0  0  0  0  0
  145.0586  134.9731  152.3326 H   0  0  0  0  0  0  0  0  0  0  0  0
  146.4704  135.5640  154.3022 H   0  0  0  0  0  0  0  0  0  0  0  0
  148.4468  135.2904  155.5407 H   0  0  0  0  0  0  0  0  0  0  0  0
  148.7899  133.6043  155.8174 H   0  0  0  0  0  0  0  0  0  0  0  0
  150.9823  134.2828  155.4562 H   0  0  0  0  0  0  0  0  0  0  0  0
  150.5508  134.0299  153.7874 H   0  0  0  0  0  0  0  0  0  0  0  0
  150.0843  136.4119  153.5514 H   0  0  0  0  0  0  0  0  0  0  0  0
  153.3719  138.7541  155.3059 H   0  0  0  0  0  0  0  0  0  0  0  0
  152.7010  139.7723  154.0812 H   0  0  0  0  0  0  0  0  0  0  0  0
  151.4786  139.4168  156.8764 H   0  0  0  0  0  0  0  0  0  0  0  0
  152.4769  140.7732  156.3874 H   0  0  0  0  0  0  0  0  0  0  0  0
  149.1126  138.8257  155.4148 H   0  0  0  0  0  0  0  0  0  0  0  0
  148.4621  140.3245  152.8876 H   0  0  0  0  0  0  0  0  0  0  0  0
  146.9940  140.7363  155.5348 H   0  0  0  0  0  0  0  0  0  0  0  0
  146.5056  141.3608  153.9681 H   0  0  0  0  0  0  0  0  0  0  0  0
  147.9851  141.9366  154.7092 H   0  0  0  0  0  0  0  0  0  0  0  0
  146.8115  138.2892  154.4408 H   0  0  0  0  0  0  0  0  0  0  0  0
  147.7474  137.9605  152.9847 H   0  0  0  0  0  0  0  0  0  0  0  0
  146.3736  139.0544  152.9196 H   0  0  0  0  0  0  0  0  0  0  0  0
  150.8107  139.2958  152.9194 H   0  0  0  0  0  0  0  0  0  0  0  0
  149.8467  137.8792  153.1783 H   0  0  0  0  0  0  0  0  0  0  0  0
  149.1919  132.3789  153.1169 H   0  0  0  0  0  0  0  0  0  0  0  0
  147.7915  131.9395  151.3322 H   0  0  0  0  0  0  0  0  0  0  0  0
  1  2  1  0  0  0  0
  1 22  1  0  0  0  0
  1 23  1  0  0  0  0
  1 24  1  0  0  0  0
  2 21  1  0  0  0  0
  2  3  2  0  0  0  0
  3  4  1  0  0  0  0
  3 25  1  0  0  0  0
  4  5  2  0  0  0  0
  4 26  1  0  0  0  0
  5  6  1  0  0  0  0
  5 20  1  0  0  0  0
  6  7  1  0  0  0  0
  6 27  1  0  0  0  0
  6 28  1  0  0  0  0
  7  8  1  0  0  0  0
  7 29  1  0  0  0  0
  7 30  1  0  0  0  0
  8  9  1  0  0  0  0
  8 31  1  0  0  0  0
  9 10  2  0  0  0  0
  9 11  1  0  0  0  0
 11 19  1  0  0  0  0
 11 12  1  0  0  0  0
 12 13  1  0  0  0  0
 12 32  1  0  0  0  0
 12 33  1  0  0  0  0
 13 14  1  0  0  0  0
 13 34  1  0  0  0  0
 13 35  1  0  0  0  0
 14 15  1  0  0  0  0
 15 16  1  0  0  0  0
 15 19  1  0  0  0  0
 15 36  1  0  0  0  0
 16 17  1  0  0  0  0
 16 18  1  0  0  0  0
 16 37  1  0  0  0  0
 17 38  1  0  0  0  0
 17 39  1  0  0  0  0
 17 40  1  0  0  0  0
 18 41  1  0  0  0  0
 18 42  1  0  0  0  0
 18 43  1  0  0  0  0
 19 44  1  0  0  0  0
 19 45  1  0  0  0  0
 20 21  2  0  0  0  0
 20 46  1  0  0  0  0
 21 47  1  0  0  0  0
M  CHG  1  21   1
M  END
> <s_m_source_file>
AV-unprocessed.smi

> <i_m_source_file_index>
772

> <i_lp_mmshare_version>
43012

> <i_f3d_flags>
0

> <s_epik_input>
W0NIM11jMVtjSF1bY0hdYyhbY0hdbjEpW0NIMl1bQ0gyXVtOSF1DKD1PKU4yW0NIMl1bQ0gyXVNbQ0BIXShbQ0gyXTIpW0NIXShbQ0gzXSlbQ0gzXQ==

> <s_epik_cmdline>
J2VwaWtfcHl0aG9uJywgJy1waCcsICc3LjAnLCAnLXRuJywgJzgnLCAnLW1hJywgJzIwMCcsICctbWV0YWxfYmluZGluZycsICctaW1hZScsICc8aW5maWxlLm1hZT4nLCAnLW9tYWUnLCAnPG91dGZpbGUubWFlPic=

> <r_epik_Ionization_Penalty>
1.41908

> <r_epik_Ionization_Penalty_Charging>
1.41903

> <r_epik_Ionization_Penalty_Neutral>
4.72921e-05

> <r_epik_State_Penalty>
1.50265

> <r_epik_Charging_Adjusted_Penalty>
2.92168

> <i_epik_Tot_Q>
1

> <i_epik_Tot_abs_Q>
1

> <r_epik_Metal_State_Penalty>
1.55496

> <b_epik_Metal_Only>
0

> <s_lp_Force_Field>
OPLS_2005

> <r_lp_Energy>
32.521

> <b_lp_Chiralities_Consistent>
1

> <s_lp_Variant>
AV-unprocessed.smi:772-3

> <Gold.Version>
5.8.1

> <Gold.Id.Protein>
6NUR|6NUR_protein|mol2

> <Gold.PLP.Fitness>
44.8197

> <Gold.PLP.PLP>
-38.9342

> <Gold.PLP.part.hbond>
-4.0000

> <Gold.PLP.part.metal>
0.0000

> <Gold.PLP.part.buried>
0.8210

> <Gold.PLP.part.nonpolar>
-35.1641

> <Gold.PLP.part.repulsive>
0.1258

> <Gold.PLP.ligand.clash>
1.0461

> <Gold.PLP.ligand.torsion>
0.6309

> <Gold.PLP.Chemscore.Hbond>
2.7000

> <Gold.PLP.Chemscore.CHOScore>
0.0000

> <Gold.PLP.Chemscore.Metal>
0.0000

> <Gold.Chemscore.Hbonds>
donor molecule, donor type, donor heavy atom, donor atom, acceptor molecule, acceptor atom, score
      L1  H     8    31       P1  7948  0.70
      L1  H    21    47       P1 10747  1.00
      P1  H 10752 10764       L1    10  0.99

> <Gold.PLP.Chemscore.Internal.Correction>
0.0934

> <Gold.Rescore>
     Score         DG    S(hbond)    S(metal)    S(lipo)     H(rot)  DE(clash)    DE(int)     intcor
     16.24     -17.39       1.28        0.00      95.64       1.39       0.48       0.67       ----

> <Gold.Chemscore.Fitness>
16.2380

> <Gold.Chemscore.DG>
-17.3854

> <Gold.Chemscore.ZeroCoef>
-5.4800

> <Gold.Chemscore.Hbond>
1.2835

> <Gold.Chemscore.Metal>
0.0000

> <Gold.Chemscore.Lipo>
95.6351

> <Gold.Chemscore.Internal_Hbond>
0.0000

> <Gold.Chemscore.DEClash>
0.4758

> <Gold.Chemscore.DEInternal>
0.6716

> <Gold.Chemscore.Rot>
1.3949

> <Gold.Chemscore.Internal.Correction>
   9.000000E+99

> <Gold.Chemscore.Hbonds>
donor molecule, donor type, donor heavy atom, donor atom, acceptor molecule, acceptor atom, score
      L1  H     8    31       P1  7948  0.07
      L1  H    21    47       P1 10747  0.99
      P1  H 10752 10764       L1    10  0.28

> <Gold.Chemscore.Hbond.Weighted>
-4.2870

> <Gold.Chemscore.Metal.Weighted>
-0.0000

> <Gold.Chemscore.Lipo.Weighted>
-11.1893

> <Gold.Chemscore.Internal_Hbond.Weighted>
0.0000

> <Gold.Chemscore.DEClash.Weighted>
0.4758

> <Gold.Chemscore.DEInternal.Weighted>
0.6716

> <Gold.Chemscore.Rot.Weighted>
3.5709

> <Gold.Chemscore.Internal.Correction.Weighted>
   9.000000E+99

> <Gold.Protein.RotatedTorsions>
[ 6907 6896 6895 6894 ] final  146.38 input  -60.11 | X-H torsion
[ 7974 7965 7964 7962 ] final -147.33 input  175.53 | X-H torsion
[ 8008 7997 7996 7995 ] final    8.37 input   59.86 | X-H torsion
[ 10167 10162 10161 10158 ] final    4.87 input  -65.29 | X-H torsion
[ 10718 10713 10712 10709 ] final  104.63 input   66.30 | X-H torsion
[ 10763 10752 10751 10750 ] final  -15.99 input  -60.55 | X-H torsion
[ 11005 11000 10999 10996 ] final -149.34 input  -57.11 | X-H torsion

> <Gold.Protein.ActiveResidues>
 VAL166  LYS551  ARG553  GLY616  TRP617  ASP618  TYR619  PRO620  LYS621  CYS622 
 ASP623  PHE694  ASN695  SER759  ASP760  ASP761  ALA762  ILE779  LEU786  VAL792 
 PHE793  MET794  SER795  GLU796  ALA797  LYS798  CYS799  TRP800  GLU811  SER814 

> <Gold.Protein.RotatedAtoms>
  152.1686  133.4628  159.4897 H   0  0  0  0  0  0  0  0  0  0  0  0  # atno 6907 bound_to 6896
  150.6916  134.1981  159.4320 H   0  0  0  0  0  0  0  0  0  0  0  0  # atno 6908 bound_to 6896
  151.9887  134.9990  160.0611 H   0  0  0  0  0  0  0  0  0  0  0  0  # atno 6909 bound_to 6896
  144.8100  140.5341  143.5649 H   0  0  0  0  0  0  0  0  0  0  0  0  # atno 7974 bound_to 7965
  154.7660  140.2793  155.6176 H   0  0  0  0  0  0  0  0  0  0  0  0  # atno 8008 bound_to 7997
  156.2925  140.2651  156.2377 H   0  0  0  0  0  0  0  0  0  0  0  0  # atno 8009 bound_to 7997
  154.9959  140.0373  157.2329 H   0  0  0  0  0  0  0  0  0  0  0  0  # atno 8010 bound_to 7997
  140.6512  143.7540  150.7578 H   0  0  0  0  0  0  0  0  0  0  0  0  # atno 10167 bound_to 10162
  157.6733  131.0808  150.5736 H   0  0  0  0  0  0  0  0  0  0  0  0  # atno 10718 bound_to 10713
  153.5518  135.7011  153.5588 H   0  0  0  0  0  0  0  0  0  0  0  0  # atno 10763 bound_to 10752
  153.3509  135.3995  155.1645 H   0  0  0  0  0  0  0  0  0  0  0  0  # atno 10764 bound_to 10752
  154.8660  135.3765  154.5029 H   0  0  0  0  0  0  0  0  0  0  0  0  # atno 10765 bound_to 10752
  140.7517  134.3399  157.5124 H   0  0  0  0  0  0  0  0  0  0  0  0  # atno 11005 bound_to 11000
  145.5346  139.1475  143.3481 LP  0  0  0  0  0  0  0  0  0  0  0  0  # atno 17320 bound_to 7965
  146.2398  140.5486  142.8939 LP  0  0  0  0  0  0  0  0  0  0  0  0  # atno 17321 bound_to 7965
  140.1191  143.4628  152.2324 LP  0  0  0  0  0  0  0  0  0  0  0  0  # atno 17342 bound_to 10162
  139.5727  144.7471  151.3846 LP  0  0  0  0  0  0  0  0  0  0  0  0  # atno 17343 bound_to 10162
  156.6037  130.4361  149.5887 LP  0  0  0  0  0  0  0  0  0  0  0  0  # atno 17370 bound_to 10713
  156.2486  130.6893  151.1623 LP  0  0  0  0  0  0  0  0  0  0  0  0  # atno 17371 bound_to 10713
  139.8786  134.9146  156.3112 LP  0  0  0  0  0  0  0  0  0  0  0  0  # atno 17394 bound_to 11000
  140.9744  133.7307  156.0581 LP  0  0  0  0  0  0  0  0  0  0  0  0  # atno 17395 bound_to 11000

$$$$
