AV-unprocessed.smi:3210|AV-procd|sdf|12273|dock9
  -GOLD-   2272018113D 1   1.00000     0.00000
 Structure written by MMmdl.
 34 35  0  0  0  0  0  0  0  0  1 V2000
  146.5310  138.7372  154.3512 O   0  0  0  0  0  0  0  0  0  0  0  0
  147.0913  138.9375  153.2731 C   0  0  0  0  0  0  0  0  0  0  0  0
  146.3236  138.7446  151.9661 C   0  0  0  0  0  0  0  0  0  0  0  0
  146.9409  137.7112  151.1309 N   0  0  0  0  0  0  0  0  0  0  0  0
  145.9252  136.8546  150.5359 C   0  0  0  0  0  0  0  0  0  0  0  0
  145.2548  135.9875  151.6147 C   0  0  0  0  0  0  0  0  0  0  0  0
  145.2076  134.5843  151.2424 N   0  0  0  0  0  0  0  0  0  0  0  0
  144.0984  133.7928  151.0305 C   0  0  0  0  0  0  0  0  0  0  0  0
  144.5458  132.5428  150.7114 C   0  0  0  0  0  0  0  0  0  0  0  0
  145.9625  132.6704  150.7531 C   0  0  0  0  0  0  0  0  0  0  0  0
  146.3554  133.8933  151.0709 N   0  0  0  0  0  0  0  0  0  0  0  0
  148.3710  139.3262  153.1667 N   0  0  0  0  0  0  0  0  0  0  0  0
  149.2680  139.5682  154.2892 C   0  0  0  0  0  0  0  0  0  0  0  0
  150.6751  139.0282  154.1148 C   0  0  0  0  0  0  0  0  0  0  0  0
  151.1650  137.8509  154.9248 C   0  0  0  0  0  0  0  0  0  0  0  0
  151.7115  139.2325  155.1944 C   0  0  0  0  0  0  0  0  0  0  0  0
  145.2985  138.4604  152.2084 H   0  0  0  0  0  0  0  0  0  0  0  0
  146.2779  139.6858  151.4151 H   0  0  0  0  0  0  0  0  0  0  0  0
  147.5805  137.1413  151.6674 H   0  0  0  0  0  0  0  0  0  0  0  0
  145.1734  137.4570  150.0233 H   0  0  0  0  0  0  0  0  0  0  0  0
  146.3912  136.2131  149.7867 H   0  0  0  0  0  0  0  0  0  0  0  0
  145.8136  136.0669  152.5479 H   0  0  0  0  0  0  0  0  0  0  0  0
  144.2446  136.3420  151.8272 H   0  0  0  0  0  0  0  0  0  0  0  0
  143.0946  134.1802  151.1265 H   0  0  0  0  0  0  0  0  0  0  0  0
  143.9520  131.6701  150.4837 H   0  0  0  0  0  0  0  0  0  0  0  0
  146.7117  131.9158  150.5639 H   0  0  0  0  0  0  0  0  0  0  0  0
  148.7498  139.4629  152.2407 H   0  0  0  0  0  0  0  0  0  0  0  0
  149.3274  140.6403  154.4821 H   0  0  0  0  0  0  0  0  0  0  0  0
  148.8221  139.1235  155.1794 H   0  0  0  0  0  0  0  0  0  0  0  0
  151.0492  139.0972  153.0949 H   0  0  0  0  0  0  0  0  0  0  0  0
  150.4876  137.4256  155.6627 H   0  0  0  0  0  0  0  0  0  0  0  0
  151.8201  137.1384  154.4276 H   0  0  0  0  0  0  0  0  0  0  0  0
  152.7316  139.4406  154.8781 H   0  0  0  0  0  0  0  0  0  0  0  0
  151.3981  139.7252  156.1128 H   0  0  0  0  0  0  0  0  0  0  0  0
  1  2  2  0  0  0  0
  2  3  1  0  0  0  0
  2 12  1  0  0  0  0
  3  4  1  0  0  0  0
  3 17  1  0  0  0  0
  3 18  1  0  0  0  0
  4  5  1  0  0  0  0
  4 19  1  0  0  0  0
  5  6  1  0  0  0  0
  5 20  1  0  0  0  0
  5 21  1  0  0  0  0
  6  7  1  0  0  0  0
  6 22  1  0  0  0  0
  6 23  1  0  0  0  0
  7 11  1  0  0  0  0
  7  8  1  0  0  0  0
  8  9  2  0  0  0  0
  8 24  1  0  0  0  0
  9 10  1  0  0  0  0
  9 25  1  0  0  0  0
 10 11  2  0  0  0  0
 10 26  1  0  0  0  0
 12 13  1  0  0  0  0
 12 27  1  0  0  0  0
 13 14  1  0  0  0  0
 13 28  1  0  0  0  0
 13 29  1  0  0  0  0
 14 16  1  0  0  0  0
 14 15  1  0  0  0  0
 14 30  1  0  0  0  0
 15 16  1  0  0  0  0
 15 31  1  0  0  0  0
 15 32  1  0  0  0  0
 16 33  1  0  0  0  0
 16 34  1  0  0  0  0
M  END
> <s_m_source_file>
AV-unprocessed.smi

> <i_m_source_file_index>
3210

> <i_lp_mmshare_version>
43012

> <i_f3d_flags>
0

> <s_epik_input>
W0NIMl0xW0NIMl1bQ0hdMVtDSDJdW05IXUMoPU8pW0NIMl1bTkhdW0NIMl1bQ0gyXW4yW2NIXVtjSF1bY0hdbjI=

> <s_epik_cmdline>
J2VwaWtfcHl0aG9uJywgJy1waCcsICc3LjAnLCAnLXRuJywgJzgnLCAnLW1hJywgJzIwMCcsICctbWV0YWxfYmluZGluZycsICctaW1hZScsICc8aW5maWxlLm1hZT4nLCAnLW9tYWUnLCAnPG91dGZpbGUubWFlPic=

> <r_lp_tautomer_probability>
1

> <r_epik_Ionization_Penalty>
0.724936

> <r_epik_Ionization_Penalty_Charging>
0

> <r_epik_Ionization_Penalty_Neutral>
0.724936

> <r_epik_State_Penalty>
0.747957

> <r_epik_Charging_Adjusted_Penalty>
0.747957

> <i_epik_Tot_Q>
0

> <i_epik_Tot_abs_Q>
0

> <r_epik_Metal_State_Penalty>
0.746186

> <b_epik_Metal_Only>
0

> <s_lp_Force_Field>
OPLS_2005

> <r_lp_Energy>
13.4578

> <b_lp_Chiralities_Consistent>
1

> <s_lp_Variant>
AV-unprocessed.smi:3210-2

> <Gold.Version>
5.8.1

> <Gold.Id.Protein>
6NUR|6NUR_protein|mol2

> <Gold.PLP.Fitness>
46.4039

> <Gold.PLP.PLP>
-34.6419

> <Gold.PLP.part.hbond>
-3.2501

> <Gold.PLP.part.metal>
0.0000

> <Gold.PLP.part.buried>
-3.3608

> <Gold.PLP.part.nonpolar>
-29.8252

> <Gold.PLP.part.repulsive>
0.4138

> <Gold.PLP.ligand.clash>
0.0000

> <Gold.PLP.ligand.torsion>
1.1469

> <Gold.PLP.Chemscore.Hbond>
2.4750

> <Gold.PLP.Chemscore.CHOScore>
2.0000

> <Gold.PLP.Chemscore.Metal>
0.0000

> <Gold.Chemscore.Hbonds>
donor molecule, donor type, donor heavy atom, donor atom, acceptor molecule, acceptor atom, score
      L1  H     4    19       P1  7948  1.00
      L1  H    12    27       P1  7957  0.89
      P1  H  7954  7966       L1     4  0.45
      L1  C     8    24       P1 10186  0.78
      L1  C    10    26       P1 10747  1.00

> <Gold.PLP.Chemscore.Internal.Correction>
0.6307

> <Gold.Rescore>
     Score         DG    S(hbond)    S(metal)    S(lipo)     H(rot)  DE(clash)    DE(int)     intcor
     13.41     -16.03       1.99        0.00      83.14       2.27       1.44       1.17       ----

> <Gold.Chemscore.Fitness>
13.4127

> <Gold.Chemscore.DG>
-16.0286

> <Gold.Chemscore.ZeroCoef>
-5.4800

> <Gold.Chemscore.Hbond>
1.9885

> <Gold.Chemscore.Metal>
0.0000

> <Gold.Chemscore.Lipo>
83.1362

> <Gold.Chemscore.Internal_Hbond>
0.0000

> <Gold.Chemscore.DEClash>
1.4448

> <Gold.Chemscore.DEInternal>
1.1711

> <Gold.Chemscore.Rot>
2.2734

> <Gold.Chemscore.Internal.Correction>
   9.000000E+99

> <Gold.Chemscore.Hbonds>
donor molecule, donor type, donor heavy atom, donor atom, acceptor molecule, acceptor atom, score
      L1  H     4    19       P1  7948  0.96
      L1  H    12    27       P1  7957  0.85
      P1  H  7954  7966       L1     4  0.01

> <Gold.Chemscore.Hbond.Weighted>
-6.6416

> <Gold.Chemscore.Metal.Weighted>
-0.0000

> <Gold.Chemscore.Lipo.Weighted>
-9.7269

> <Gold.Chemscore.Internal_Hbond.Weighted>
0.0000

> <Gold.Chemscore.DEClash.Weighted>
1.4448

> <Gold.Chemscore.DEInternal.Weighted>
1.1711

> <Gold.Chemscore.Rot.Weighted>
5.8199

> <Gold.Chemscore.Internal.Correction.Weighted>
   9.000000E+99

> <Gold.Protein.RotatedTorsions>
[ 6907 6896 6895 6894 ] final  175.74 input  -60.11 | X-H torsion
[ 7974 7965 7964 7962 ] final -145.03 input  175.53 | X-H torsion
[ 8008 7997 7996 7995 ] final -102.58 input   59.86 | X-H torsion
[ 10167 10162 10161 10158 ] final -110.67 input  -65.29 | X-H torsion
[ 10718 10713 10712 10709 ] final -122.26 input   66.30 | X-H torsion
[ 10763 10752 10751 10750 ] final  129.07 input  -60.55 | X-H torsion
[ 11005 11000 10999 10996 ] final -101.25 input  -57.11 | X-H torsion

> <Gold.Protein.ActiveResidues>
 VAL166  LYS551  ARG553  GLY616  TRP617  ASP618  TYR619  PRO620  LYS621  CYS622 
 ASP623  PHE694  ASN695  SER759  ASP760  ASP761  ALA762  ILE779  LEU786  VAL792 
 PHE793  MET794  SER795  GLU796  ALA797  LYS798  CYS799  TRP800  GLU811  SER814 

> <Gold.Protein.RotatedAtoms>
  151.7314  133.3318  159.3341 H   0  0  0  0  0  0  0  0  0  0  0  0  # atno 6907 bound_to 6896
  150.7611  134.6360  159.6221 H   0  0  0  0  0  0  0  0  0  0  0  0  # atno 6908 bound_to 6896
  152.3589  134.6902  160.0265 H   0  0  0  0  0  0  0  0  0  0  0  0  # atno 6909 bound_to 6896
  144.8255  140.5635  143.5549 H   0  0  0  0  0  0  0  0  0  0  0  0  # atno 7974 bound_to 7965
  154.8587  140.0427  157.1651 H   0  0  0  0  0  0  0  0  0  0  0  0  # atno 8008 bound_to 7997
  154.8863  140.2980  155.5375 H   0  0  0  0  0  0  0  0  0  0  0  0  # atno 8009 bound_to 7997
  156.2998  140.2402  156.3873 H   0  0  0  0  0  0  0  0  0  0  0  0  # atno 8010 bound_to 7997
  140.1419  143.4272  152.1556 H   0  0  0  0  0  0  0  0  0  0  0  0  # atno 10167 bound_to 10162
  156.1404  130.6461  150.9762 H   0  0  0  0  0  0  0  0  0  0  0  0  # atno 10718 bound_to 10713
  153.7358  135.3231  155.3295 H   0  0  0  0  0  0  0  0  0  0  0  0  # atno 10763 bound_to 10752
  154.8311  135.4533  154.1075 H   0  0  0  0  0  0  0  0  0  0  0  0  # atno 10764 bound_to 10752
  153.2236  135.6951  153.8052 H   0  0  0  0  0  0  0  0  0  0  0  0  # atno 10765 bound_to 10752
  141.1238  133.8463  157.1207 H   0  0  0  0  0  0  0  0  0  0  0  0  # atno 11005 bound_to 11000
  145.5009  139.1483  143.3658 LP  0  0  0  0  0  0  0  0  0  0  0  0  # atno 17320 bound_to 7965
  146.2561  140.5148  142.8873 LP  0  0  0  0  0  0  0  0  0  0  0  0  # atno 17321 bound_to 7965
  139.5468  144.7305  151.4559 LP  0  0  0  0  0  0  0  0  0  0  0  0  # atno 17342 bound_to 10162
  140.6755  143.8199  150.7053 LP  0  0  0  0  0  0  0  0  0  0  0  0  # atno 17343 bound_to 10162
  157.6570  131.0887  150.7924 LP  0  0  0  0  0  0  0  0  0  0  0  0  # atno 17370 bound_to 10713
  156.8000  130.4918  149.5371 LP  0  0  0  0  0  0  0  0  0  0  0  0  # atno 17371 bound_to 10713
  140.0219  134.9942  157.0608 LP  0  0  0  0  0  0  0  0  0  0  0  0  # atno 17394 bound_to 11000
  140.4426  134.1665  155.7175 LP  0  0  0  0  0  0  0  0  0  0  0  0  # atno 17395 bound_to 11000

$$$$
