AV-unprocessed.smi:2804|AV-procd|sdf|10810|dock3
  -GOLD-   2272015243D 1   1.00000     0.00000
 Structure written by MMmdl.
 35 36  0  0  0  0  0  0  0  0  1 V2000
  155.6793  139.8521  162.4819 C   0  0  0  0  0  0  0  0  0  0  0  0
  154.9975  140.3068  161.1874 C   0  0  0  0  0  0  0  0  0  0  0  0
  153.7223  141.1234  161.4487 C   0  0  0  0  0  0  0  0  0  0  0  0
  153.0359  141.4460  160.2003 N   0  0  0  0  0  0  0  0  0  0  0  0
  152.8286  140.6102  159.1556 C   0  0  0  0  0  0  0  0  0  0  0  0
  153.1786  139.4319  159.0920 O   0  0  0  0  0  0  0  0  0  0  0  0
  152.1795  141.3002  158.1883 N   0  0  0  0  0  0  0  0  0  0  0  0
  151.7745  140.7890  156.8771 C   0  0  0  0  0  0  0  0  0  0  0  0
  151.6701  139.2416  156.7941 C   0  0  1  0  0  0  0  0  0  0  0  0
  150.5543  138.7264  157.5011 O   0  0  0  0  0  0  0  0  0  0  0  0
  151.6359  138.7158  155.3453 C   0  0  0  0  0  0  0  0  0  0  0  0
  152.7818  139.0003  154.7258 F   0  0  0  0  0  0  0  0  0  0  0  0
  151.4301  137.3988  155.3199 F   0  0  0  0  0  0  0  0  0  0  0  0
  150.6505  139.3164  154.6775 F   0  0  0  0  0  0  0  0  0  0  0  0
  151.9777  142.6189  158.6209 C   0  0  0  0  0  0  0  0  0  0  0  0
  151.3754  143.7186  157.9853 C   0  0  0  0  0  0  0  0  0  0  0  0
  151.3403  144.9385  158.7003 C   0  0  0  0  0  0  0  0  0  0  0  0
  151.8968  145.0343  160.0024 C   0  0  0  0  0  0  0  0  0  0  0  0
  152.5000  143.9119  160.6172 C   0  0  0  0  0  0  0  0  0  0  0  0
  152.5186  142.7112  159.8862 C   0  0  0  0  0  0  0  0  0  0  0  0
  156.5775  139.2735  162.2650 H   0  0  0  0  0  0  0  0  0  0  0  0
  155.0156  139.2248  163.0775 H   0  0  0  0  0  0  0  0  0  0  0  0
  155.9729  140.7058  163.0933 H   0  0  0  0  0  0  0  0  0  0  0  0
  155.7008  140.9005  160.6021 H   0  0  0  0  0  0  0  0  0  0  0  0
  154.7557  139.4310  160.5839 H   0  0  0  0  0  0  0  0  0  0  0  0
  153.0499  140.5670  162.1039 H   0  0  0  0  0  0  0  0  0  0  0  0
  153.9649  142.0446  161.9792 H   0  0  0  0  0  0  0  0  0  0  0  0
  150.8291  141.2507  156.5894 H   0  0  0  0  0  0  0  0  0  0  0  0
  152.4906  141.1408  156.1341 H   0  0  0  0  0  0  0  0  0  0  0  0
  152.5532  138.8220  157.2777 H   0  0  0  0  0  0  0  0  0  0  0  0
  150.8089  138.5838  158.3999 H   0  0  0  0  0  0  0  0  0  0  0  0
  150.9577  143.6412  156.9925 H   0  0  0  0  0  0  0  0  0  0  0  0
  150.8858  145.8083  158.2491 H   0  0  0  0  0  0  0  0  0  0  0  0
  151.8608  145.9761  160.5301 H   0  0  0  0  0  0  0  0  0  0  0  0
  152.9286  143.9803  161.6058 H   0  0  0  0  0  0  0  0  0  0  0  0
  1  2  1  0  0  0  0
  1 21  1  0  0  0  0
  1 22  1  0  0  0  0
  1 23  1  0  0  0  0
  2  3  1  0  0  0  0
  2 24  1  0  0  0  0
  2 25  1  0  0  0  0
  3  4  1  0  0  0  0
  3 26  1  0  0  0  0
  3 27  1  0  0  0  0
  4 20  1  0  0  0  0
  4  5  1  0  0  0  0
  5  6  2  0  0  0  0
  5  7  1  0  0  0  0
  7  8  1  0  0  0  0
  7 15  1  0  0  0  0
  8  9  1  0  0  0  0
  8 28  1  0  0  0  0
  8 29  1  0  0  0  0
  9 10  1  0  0  0  0
  9 11  1  0  0  0  0
  9 30  1  0  0  0  0
 10 31  1  0  0  0  0
 11 12  1  0  0  0  0
 11 13  1  0  0  0  0
 11 14  1  0  0  0  0
 15 20  2  0  0  0  0
 15 16  1  0  0  0  0
 16 17  2  0  0  0  0
 16 32  1  0  0  0  0
 17 18  1  0  0  0  0
 17 33  1  0  0  0  0
 18 19  2  0  0  0  0
 18 34  1  0  0  0  0
 19 20  1  0  0  0  0
 19 35  1  0  0  0  0
M  END
> <s_m_source_file>
AV-unprocessed.smi

> <i_m_source_file_index>
2804

> <i_lp_mmshare_version>
43012

> <i_f3d_flags>
0

> <s_epik_input>
W2NIXTFbY0hdW2NIXVtjSF1jKGMxMiluKFtDSDJdW0NIMl1bQ0gzXSljKD1PKW4yW0NIMl1bQ0BIXShbT0hdKUMoRikoRilG

> <s_epik_cmdline>
J2VwaWtfcHl0aG9uJywgJy1waCcsICc3LjAnLCAnLXRuJywgJzgnLCAnLW1hJywgJzIwMCcsICctbWV0YWxfYmluZGluZycsICctaW1hZScsICc8aW5maWxlLm1hZT4nLCAnLW9tYWUnLCAnPG91dGZpbGUubWFlPic=

> <r_epik_Ionization_Penalty>
0.0117937

> <r_epik_Ionization_Penalty_Charging>
3.30828e-09

> <r_epik_Ionization_Penalty_Neutral>
0.0117937

> <r_epik_State_Penalty>
0.00909547

> <r_epik_Charging_Adjusted_Penalty>
0.00909547

> <i_epik_Tot_Q>
0

> <i_epik_Tot_abs_Q>
0

> <r_epik_Metal_State_Penalty>
0.00909547

> <b_epik_Metal_Only>
0

> <s_lp_Force_Field>
OPLS_2005

> <r_lp_Energy>
49.0105

> <b_lp_Chiralities_Consistent>
1

> <s_lp_Variant>
AV-unprocessed.smi:2804-2

> <Gold.Version>
5.8.1

> <Gold.Id.Protein>
6NUR|6NUR_protein|mol2

> <Gold.PLP.Fitness>
47.4566

> <Gold.PLP.PLP>
-48.7241

> <Gold.PLP.part.hbond>
0.0000

> <Gold.PLP.part.metal>
0.0000

> <Gold.PLP.part.buried>
-4.7124

> <Gold.PLP.part.nonpolar>
-43.8863

> <Gold.PLP.part.repulsive>
0.0000

> <Gold.PLP.ligand.clash>
0.0000

> <Gold.PLP.ligand.torsion>
0.7016

> <Gold.PLP.Chemscore.Hbond>
0.0000

> <Gold.PLP.Chemscore.CHOScore>
0.0000

> <Gold.PLP.Chemscore.Metal>
0.0000

> <Gold.PLP.Chemscore.Internal.Correction>
0.1357

> <Gold.Rescore>
     Score         DG    S(hbond)    S(metal)    S(lipo)     H(rot)  DE(clash)    DE(int)     intcor
     11.03     -12.97       0.00        0.00     114.71       2.32       0.04       1.90       ----

> <Gold.Chemscore.Fitness>
11.0318

> <Gold.Chemscore.DG>
-12.9737

> <Gold.Chemscore.ZeroCoef>
-5.4800

> <Gold.Chemscore.Hbond>
0.0000

> <Gold.Chemscore.Metal>
0.0000

> <Gold.Chemscore.Lipo>
114.7052

> <Gold.Chemscore.Internal_Hbond>
0.0000

> <Gold.Chemscore.DEClash>
0.0443

> <Gold.Chemscore.DEInternal>
1.8976

> <Gold.Chemscore.Rot>
2.3152

> <Gold.Chemscore.Internal.Correction>
   9.000000E+99

> <Gold.Chemscore.Hbond.Weighted>
-0.0000

> <Gold.Chemscore.Metal.Weighted>
-0.0000

> <Gold.Chemscore.Lipo.Weighted>
-13.4205

> <Gold.Chemscore.Internal_Hbond.Weighted>
0.0000

> <Gold.Chemscore.DEClash.Weighted>
0.0443

> <Gold.Chemscore.DEInternal.Weighted>
1.8976

> <Gold.Chemscore.Rot.Weighted>
5.9268

> <Gold.Chemscore.Internal.Correction.Weighted>
   9.000000E+99

> <Gold.Protein.RotatedTorsions>
[ 6907 6896 6895 6894 ] final  -54.43 input  -60.11 | X-H torsion
[ 7974 7965 7964 7962 ] final   23.18 input  175.53 | X-H torsion
[ 8008 7997 7996 7995 ] final -153.69 input   59.86 | X-H torsion
[ 10167 10162 10161 10158 ] final  103.47 input  -65.29 | X-H torsion
[ 10718 10713 10712 10709 ] final -162.65 input   66.30 | X-H torsion
[ 10763 10752 10751 10750 ] final  160.35 input  -60.55 | X-H torsion
[ 11005 11000 10999 10996 ] final  118.30 input  -57.11 | X-H torsion

> <Gold.Protein.ActiveResidues>
 VAL166  LYS551  ARG553  GLY616  TRP617  ASP618  TYR619  PRO620  LYS621  CYS622 
 ASP623  PHE694  ASN695  SER759  ASP760  ASP761  ALA762  ILE779  LEU786  VAL792 
 PHE793  MET794  SER795  GLU796  ALA797  LYS798  CYS799  TRP800  GLU811  SER814 

> <Gold.Protein.RotatedAtoms>
  150.8338  134.7603  159.6875 H   0  0  0  0  0  0  0  0  0  0  0  0  # atno 6907 bound_to 6896
  152.4438  134.5532  159.9883 H   0  0  0  0  0  0  0  0  0  0  0  0  # atno 6908 bound_to 6896
  151.5687  133.3355  159.3021 H   0  0  0  0  0  0  0  0  0  0  0  0  # atno 6909 bound_to 6896
  146.1996  139.7780  142.8772 H   0  0  0  0  0  0  0  0  0  0  0  0  # atno 7974 bound_to 7965
  155.6747  140.0737  157.2507 H   0  0  0  0  0  0  0  0  0  0  0  0  # atno 8008 bound_to 7997
  154.4116  140.1692  156.1969 H   0  0  0  0  0  0  0  0  0  0  0  0  # atno 8009 bound_to 7997
  155.9586  140.3371  155.6473 H   0  0  0  0  0  0  0  0  0  0  0  0  # atno 8010 bound_to 7997
  139.7260  144.7047  151.0796 H   0  0  0  0  0  0  0  0  0  0  0  0  # atno 10167 bound_to 10162
  156.6135  130.8860  151.2942 H   0  0  0  0  0  0  0  0  0  0  0  0  # atno 10718 bound_to 10713
  154.2460  135.2773  155.2835 H   0  0  0  0  0  0  0  0  0  0  0  0  # atno 10763 bound_to 10752
  154.5505  135.5676  153.6921 H   0  0  0  0  0  0  0  0  0  0  0  0  # atno 10764 bound_to 10752
  152.9990  135.6273  154.2605 H   0  0  0  0  0  0  0  0  0  0  0  0  # atno 10765 bound_to 10752
  139.9104  134.9619  156.7482 H   0  0  0  0  0  0  0  0  0  0  0  0  # atno 11005 bound_to 11000
  145.3530  141.0311  143.3328 LP  0  0  0  0  0  0  0  0  0  0  0  0  # atno 17320 bound_to 7965
  144.8653  139.5116  143.6793 LP  0  0  0  0  0  0  0  0  0  0  0  0  # atno 17321 bound_to 7965
  140.7763  143.5104  150.9660 LP  0  0  0  0  0  0  0  0  0  0  0  0  # atno 17342 bound_to 10162
  139.8792  143.7094  152.3159 LP  0  0  0  0  0  0  0  0  0  0  0  0  # atno 17343 bound_to 10162
  157.7248  130.9607  150.1587 LP  0  0  0  0  0  0  0  0  0  0  0  0  # atno 17370 bound_to 10713
  156.2370  130.3687  149.8380 LP  0  0  0  0  0  0  0  0  0  0  0  0  # atno 17371 bound_to 10713
  140.6795  133.9487  155.7902 LP  0  0  0  0  0  0  0  0  0  0  0  0  # atno 17394 bound_to 11000
  141.0520  134.0470  157.3771 LP  0  0  0  0  0  0  0  0  0  0  0  0  # atno 17395 bound_to 11000

$$$$
