AV-unprocessed.smi:100|AV-procd|sdf|903|dock3
  -GOLD-   2262017403D 1   1.00000     0.00000
 Structure written by MMmdl.
 31 33  0  0  0  0  0  0  0  0  1 V2000
  153.6113  137.2072  157.1543 N   0  0  0  0  0  0  0  0  0  0  0  0
  152.8075  137.8728  156.3135 C   0  0  0  0  0  0  0  0  0  0  0  0
  152.7417  137.4617  155.0254 N   0  0  0  0  0  0  0  0  0  0  0  0
  151.9498  138.1114  154.1657 C   0  0  0  0  0  0  0  0  0  0  0  0
  151.1612  139.1665  154.3894 N   0  0  0  0  0  0  0  0  0  0  0  0
  151.2257  139.5749  155.6907 C   0  0  0  0  0  0  0  0  0  0  0  0
  152.0250  138.9869  156.7091 C   0  0  0  0  0  0  0  0  0  0  0  0
  151.8483  139.6730  157.9027 N   0  0  0  0  0  0  0  0  0  0  0  0
  150.9970  140.6165  157.5998 C   0  0  0  0  0  0  0  0  0  0  0  0
  150.5499  140.6147  156.2937 N   0  0  0  0  0  0  0  0  0  0  0  0
  149.5989  141.5550  155.6183 C   0  0  2  0  0  0  0  0  0  0  0  0
  148.6601  141.9757  156.5690 O   0  0  0  0  0  0  0  0  0  0  0  0
  147.3739  141.4073  156.3161 C   0  0  2  0  0  0  0  0  0  0  0  0
  147.1994  140.0618  157.0493 C   0  0  0  0  0  0  0  0  0  0  0  0
  146.9593  140.2865  158.4215 O   0  0  0  0  0  0  0  0  0  0  0  0
  147.3839  141.2656  154.7951 C   0  0  1  0  0  0  0  0  0  0  0  0
  147.1325  142.4714  154.2774 F   0  0  0  0  0  0  0  0  0  0  0  0
  148.8138  140.8324  154.5091 C   0  0  1  0  0  0  0  0  0  0  0  0
  149.1999  141.2009  153.1997 O   0  0  0  0  0  0  0  0  0  0  0  0
  153.6781  137.4958  158.1199 H   0  0  0  0  0  0  0  0  0  0  0  0
  154.1486  136.4201  156.8211 H   0  0  0  0  0  0  0  0  0  0  0  0
  151.9466  137.7310  153.1550 H   0  0  0  0  0  0  0  0  0  0  0  0
  150.6672  141.3386  158.3329 H   0  0  0  0  0  0  0  0  0  0  0  0
  150.2148  142.3896  155.2803 H   0  0  0  0  0  0  0  0  0  0  0  0
  146.5873  142.0966  156.6272 H   0  0  0  0  0  0  0  0  0  0  0  0
  146.3306  139.5352  156.6534 H   0  0  0  0  0  0  0  0  0  0  0  0
  148.0541  139.3995  156.9191 H   0  0  0  0  0  0  0  0  0  0  0  0
  146.8630  139.4503  158.8513 H   0  0  0  0  0  0  0  0  0  0  0  0
  146.6318  140.5774  154.4081 H   0  0  0  0  0  0  0  0  0  0  0  0
  148.9031  139.7518  154.6327 H   0  0  0  0  0  0  0  0  0  0  0  0
  149.0916  140.4498  152.6357 H   0  0  0  0  0  0  0  0  0  0  0  0
  1  2  1  0  0  0  0
  1 20  1  0  0  0  0
  1 21  1  0  0  0  0
  2  7  1  0  0  0  0
  2  3  2  0  0  0  0
  3  4  1  0  0  0  0
  4  5  2  0  0  0  0
  4 22  1  0  0  0  0
  5  6  1  0  0  0  0
  6 10  1  0  0  0  0
  6  7  2  0  0  0  0
  7  8  1  0  0  0  0
  8  9  2  0  0  0  0
  9 10  1  0  0  0  0
  9 23  1  0  0  0  0
 10 11  1  0  0  0  0
 11 18  1  0  0  0  0
 11 12  1  0  0  0  0
 11 24  1  0  0  0  0
 12 13  1  0  0  0  0
 13 14  1  0  0  0  0
 13 16  1  0  0  0  0
 13 25  1  0  0  0  0
 14 15  1  0  0  0  0
 14 26  1  0  0  0  0
 14 27  1  0  0  0  0
 15 28  1  0  0  0  0
 16 17  1  0  0  0  0
 16 18  1  0  0  0  0
 16 29  1  0  0  0  0
 18 19  1  0  0  0  0
 18 30  1  0  0  0  0
 19 31  1  0  0  0  0
M  END
> <s_m_source_file>
AV-unprocessed.smi

> <i_m_source_file_index>
100

> <i_lp_mmshare_version>
43012

> <i_f3d_flags>
0

> <s_epik_input>
bjFbY0hdbmMoW05IMl0pYyhjMTIpbltjSF1uMltDQEBIXTNPW0NAQEhdKFtDSDJdW09IXSlbQ0BIXShGKVtDQEhdM1tPSF0=

> <s_epik_cmdline>
J2VwaWtfcHl0aG9uJywgJy1waCcsICc3LjAnLCAnLXRuJywgJzgnLCAnLW1hJywgJzIwMCcsICctbWV0YWxfYmluZGluZycsICctaW1hZScsICc8aW5maWxlLm1hZT4nLCAnLW9tYWUnLCAnPG91dGZpbGUubWFlPic=

> <r_lp_tautomer_probability>
1

> <r_epik_Ionization_Penalty>
0.000750324

> <r_epik_Ionization_Penalty_Charging>
0

> <r_epik_Ionization_Penalty_Neutral>
0.000750324

> <r_epik_State_Penalty>
-0

> <r_epik_Charging_Adjusted_Penalty>
0

> <i_epik_Tot_Q>
0

> <i_epik_Tot_abs_Q>
0

> <r_epik_Metal_State_Penalty>
-0

> <b_epik_Metal_Only>
0

> <s_epik_Chemistry_Notes>
This compound contains an acetal/aminal-like group ( X-CH(R)-Y where X, Y are N, S, or O) that may be acid/base labile, releasing an aldehyde.

> <s_lp_Force_Field>
OPLS_2005

> <r_lp_Energy>
31.6472

> <b_lp_Chiralities_Consistent>
1

> <s_lp_Variant>
AV-unprocessed.smi:100-7

> <Gold.Version>
5.8.1

> <Gold.Id.Protein>
6NUR|6NUR_protein|mol2

> <Gold.PLP.Fitness>
38.8479

> <Gold.PLP.PLP>
-27.9656

> <Gold.PLP.part.hbond>
-5.4761

> <Gold.PLP.part.metal>
0.0000

> <Gold.PLP.part.buried>
-4.0773

> <Gold.PLP.part.nonpolar>
-20.3600

> <Gold.PLP.part.repulsive>
1.9484

> <Gold.PLP.ligand.clash>
0.0000

> <Gold.PLP.ligand.torsion>
0.8274

> <Gold.PLP.Chemscore.Hbond>
3.1680

> <Gold.PLP.Chemscore.CHOScore>
1.0000

> <Gold.PLP.Chemscore.Metal>
0.0000

> <Gold.Chemscore.Hbonds>
donor molecule, donor type, donor heavy atom, donor atom, acceptor molecule, acceptor atom, score
      L1  H    19    31       P1  7957  0.69
      P1  H  7989  7998       L1     5  1.00
      P1  H  8011  8017       L1    19  1.00
      P1  H 10752 10765       L1     3  0.46
      L1  C     4    22       P1  7949  1.00

> <Gold.PLP.Chemscore.Internal.Correction>
0.0332

> <Gold.Rescore>
     Score         DG    S(hbond)    S(metal)    S(lipo)     H(rot)  DE(clash)    DE(int)     intcor
      5.28      -7.32       2.30        0.00      19.99       3.19       0.26       1.79       ----

> <Gold.Chemscore.Fitness>
5.2786

> <Gold.Chemscore.DG>
-7.3205

> <Gold.Chemscore.ZeroCoef>
-5.4800

> <Gold.Chemscore.Hbond>
2.2957

> <Gold.Chemscore.Metal>
0.0000

> <Gold.Chemscore.Lipo>
19.9949

> <Gold.Chemscore.Internal_Hbond>
0.0000

> <Gold.Chemscore.DEClash>
0.2566

> <Gold.Chemscore.DEInternal>
1.7854

> <Gold.Chemscore.Rot>
3.1901

> <Gold.Chemscore.Internal.Correction>
   9.000000E+99

> <Gold.Chemscore.Hbonds>
donor molecule, donor type, donor heavy atom, donor atom, acceptor molecule, acceptor atom, score
      L1  H    19    31       P1  7957  0.69
      P1  H  7989  7998       L1     5  0.24
      P1  H  8011  8017       L1    19  0.64
      P1  H 10752 10765       L1     3  0.40

> <Gold.Chemscore.Hbond.Weighted>
-7.6678

> <Gold.Chemscore.Metal.Weighted>
-0.0000

> <Gold.Chemscore.Lipo.Weighted>
-2.3394

> <Gold.Chemscore.Internal_Hbond.Weighted>
0.0000

> <Gold.Chemscore.DEClash.Weighted>
0.2566

> <Gold.Chemscore.DEInternal.Weighted>
1.7854

> <Gold.Chemscore.Rot.Weighted>
8.1667

> <Gold.Chemscore.Internal.Correction.Weighted>
   9.000000E+99

> <Gold.Protein.RotatedTorsions>
[ 6907 6896 6895 6894 ] final  137.81 input  -60.11 | X-H torsion
[ 7974 7965 7964 7962 ] final   25.03 input  175.53 | X-H torsion
[ 8008 7997 7996 7995 ] final -157.39 input   59.86 | X-H torsion
[ 10167 10162 10161 10158 ] final   38.52 input  -65.29 | X-H torsion
[ 10718 10713 10712 10709 ] final -163.39 input   66.30 | X-H torsion
[ 10763 10752 10751 10750 ] final -176.10 input  -60.55 | X-H torsion
[ 11005 11000 10999 10996 ] final  -34.27 input  -57.11 | X-H torsion

> <Gold.Protein.ActiveResidues>
 VAL166  LYS551  ARG553  GLY616  TRP617  ASP618  TYR619  PRO620  LYS621  CYS622 
 ASP623  PHE694  ASN695  SER759  ASP760  ASP761  ALA762  ILE779  LEU786  VAL792 
 PHE793  MET794  SER795  GLU796  ALA797  LYS798  CYS799  TRP800  GLU811  SER814 

> <Gold.Protein.RotatedAtoms>
  152.2738  133.5407  159.5455 H   0  0  0  0  0  0  0  0  0  0  0  0  # atno 6907 bound_to 6896
  150.7169  134.0660  159.3857 H   0  0  0  0  0  0  0  0  0  0  0  0  # atno 6908 bound_to 6896
  151.8574  135.0536  160.0516 H   0  0  0  0  0  0  0  0  0  0  0  0  # atno 6909 bound_to 6896
  146.1909  139.7523  142.8833 H   0  0  0  0  0  0  0  0  0  0  0  0  # atno 7974 bound_to 7965
  155.7317  140.0803  157.2286 H   0  0  0  0  0  0  0  0  0  0  0  0  # atno 8008 bound_to 7997
  154.4032  140.1594  156.2570 H   0  0  0  0  0  0  0  0  0  0  0  0  # atno 8009 bound_to 7997
  155.9103  140.3404  155.6096 H   0  0  0  0  0  0  0  0  0  0  0  0  # atno 8010 bound_to 7997
  140.3929  144.1828  150.6131 H   0  0  0  0  0  0  0  0  0  0  0  0  # atno 10167 bound_to 10162
  156.6240  130.8902  151.2963 H   0  0  0  0  0  0  0  0  0  0  0  0  # atno 10718 bound_to 10713
  154.5764  135.2832  155.0776 H   0  0  0  0  0  0  0  0  0  0  0  0  # atno 10763 bound_to 10752
  154.2129  135.6405  153.5124 H   0  0  0  0  0  0  0  0  0  0  0  0  # atno 10764 bound_to 10752
  153.0074  135.5496  154.6404 H   0  0  0  0  0  0  0  0  0  0  0  0  # atno 10765 bound_to 10752
  140.9703  133.7113  156.1512 H   0  0  0  0  0  0  0  0  0  0  0  0  # atno 11005 bound_to 11000
  145.3796  141.0356  143.3185 LP  0  0  0  0  0  0  0  0  0  0  0  0  # atno 17320 bound_to 7965
  144.8485  139.5360  143.6867 LP  0  0  0  0  0  0  0  0  0  0  0  0  # atno 17321 bound_to 7965
  140.4821  143.2375  151.8940 LP  0  0  0  0  0  0  0  0  0  0  0  0  # atno 17342 bound_to 10162
  139.4788  144.5258  151.8737 LP  0  0  0  0  0  0  0  0  0  0  0  0  # atno 17343 bound_to 10162
  157.7219  130.9570  150.1475 LP  0  0  0  0  0  0  0  0  0  0  0  0  # atno 17370 bound_to 10713
  156.2289  130.3680  149.8468 LP  0  0  0  0  0  0  0  0  0  0  0  0  # atno 17371 bound_to 10713
  140.7339  134.4224  157.5563 LP  0  0  0  0  0  0  0  0  0  0  0  0  # atno 17394 bound_to 11000
  139.8909  134.8792  156.2344 LP  0  0  0  0  0  0  0  0  0  0  0  0  # atno 17395 bound_to 11000

$$$$
