AV-unprocessed.smi:1817|AV-procd|sdf|7378|dock3
  -GOLD-   22720 9 43D 1   1.00000     0.00000
 Structure written by MMmdl.
 41 42  0  0  0  0  0  0  0  0  2 V2000
  152.0406  143.7977  160.4137 C   0  0  0  0  0  0  0  0  0  0  0  0
  152.8891  143.2542  159.2554 C   0  0  0  0  0  0  0  0  0  0  0  0
  152.2394  142.2242  158.4478 N   0  0  0  0  0  0  0  0  0  0  0  0
  150.9222  142.6677  157.9988 C   0  0  0  0  0  0  0  0  0  0  0  0
  150.2323  141.6057  157.1239 C   0  0  0  0  0  0  0  0  0  0  0  0
  150.0508  140.3343  157.8368 N   0  0  0  0  0  0  0  0  0  0  0  0
  149.3798  139.3086  157.0084 C   0  0  2  0  0  0  0  0  0  0  0  0
  147.9795  139.7352  156.5128 C   0  0  0  0  0  0  0  0  0  0  0  0
  149.2587  137.9223  157.6951 C   0  0  0  0  0  0  0  0  0  0  0  0
  148.5064  137.9826  158.9480 N   0  0  0  0  0  0  0  0  0  0  0  0
  148.1997  136.9498  159.7463 C   0  0  0  0  0  0  0  0  0  0  0  0
  148.5768  135.8118  159.4574 O   0  0  0  0  0  0  0  0  0  0  0  0
  147.4678  137.2985  160.8292 N   0  5  0  0  0  0  0  0  0  0  0  0
  146.6803  136.3898  161.4280 C   0  0  0  0  0  0  0  0  0  0  0  0
  147.1179  135.1616  161.7487 N   0  0  0  0  0  0  0  0  0  0  0  0
  146.1487  134.3793  162.3623 N   0  0  0  0  0  0  0  0  0  0  0  0
  145.0010  135.0435  162.4954 C   0  0  0  0  0  0  0  0  0  0  0  0
  145.0014  136.6863  161.8894 S   0  0  0  0  0  0  0  0  0  0  0  0
  151.3731  139.8997  158.3082 C   0  0  0  0  0  0  0  0  0  0  0  0
  152.0647  140.9673  159.1760 C   0  0  0  0  0  0  0  0  0  0  0  0
  152.6262  144.4809  161.0291 H   0  0  0  0  0  0  0  0  0  0  0  0
  151.6917  142.9896  161.0574 H   0  0  0  0  0  0  0  0  0  0  0  0
  151.1699  144.3483  160.0588 H   0  0  0  0  0  0  0  0  0  0  0  0
  153.2094  144.0798  158.6180 H   0  0  0  0  0  0  0  0  0  0  0  0
  153.8004  142.8380  159.6868 H   0  0  0  0  0  0  0  0  0  0  0  0
  150.2908  142.8992  158.8585 H   0  0  0  0  0  0  0  0  0  0  0  0
  151.0195  143.5912  157.4270 H   0  0  0  0  0  0  0  0  0  0  0  0
  149.2692  142.0129  156.8201 H   0  0  0  0  0  0  0  0  0  0  0  0
  150.8104  141.4459  156.2124 H   0  0  0  0  0  0  0  0  0  0  0  0
  149.9859  139.1526  156.1148 H   0  0  0  0  0  0  0  0  0  0  0  0
  147.4716  138.9124  156.0091 H   0  0  0  0  0  0  0  0  0  0  0  0
  148.0300  140.5482  155.7893 H   0  0  0  0  0  0  0  0  0  0  0  0
  147.3433  140.0575  157.3378 H   0  0  0  0  0  0  0  0  0  0  0  0
  148.8134  137.2015  157.0076 H   0  0  0  0  0  0  0  0  0  0  0  0
  150.2430  137.5097  157.9122 H   0  0  0  0  0  0  0  0  0  0  0  0
  148.1681  138.8919  159.2263 H   0  0  0  0  0  0  0  0  0  0  0  0
  144.1505  134.5648  162.9570 H   0  0  0  0  0  0  0  0  0  0  0  0
  151.2846  138.9992  158.9136 H   0  0  0  0  0  0  0  0  0  0  0  0
  152.0091  139.6474  157.4582 H   0  0  0  0  0  0  0  0  0  0  0  0
  153.0316  140.5789  159.4943 H   0  0  0  0  0  0  0  0  0  0  0  0
  151.4812  141.1360  160.0827 H   0  0  0  0  0  0  0  0  0  0  0  0
  1  2  1  0  0  0  0
  1 21  1  0  0  0  0
  1 22  1  0  0  0  0
  1 23  1  0  0  0  0
  2  3  1  0  0  0  0
  2 24  1  0  0  0  0
  2 25  1  0  0  0  0
  3 20  1  0  0  0  0
  3  4  1  0  0  0  0
  4  5  1  0  0  0  0
  4 26  1  0  0  0  0
  4 27  1  0  0  0  0
  5  6  1  0  0  0  0
  5 28  1  0  0  0  0
  5 29  1  0  0  0  0
  6  7  1  0  0  0  0
  6 19  1  0  0  0  0
  7  8  1  0  0  0  0
  7  9  1  0  0  0  0
  7 30  1  0  0  0  0
  8 31  1  0  0  0  0
  8 32  1  0  0  0  0
  8 33  1  0  0  0  0
  9 10  1  0  0  0  0
  9 34  1  0  0  0  0
  9 35  1  0  0  0  0
 10 11  1  0  0  0  0
 10 36  1  0  0  0  0
 11 12  2  0  0  0  0
 11 13  1  0  0  0  0
 13 14  1  0  0  0  0
 14 18  1  0  0  0  0
 14 15  2  0  0  0  0
 15 16  1  0  0  0  0
 16 17  2  0  0  0  0
 17 18  1  0  0  0  0
 17 37  1  0  0  0  0
 19 20  1  0  0  0  0
 19 38  1  0  0  0  0
 19 39  1  0  0  0  0
 20 40  1  0  0  0  0
 20 41  1  0  0  0  0
M  CHG  1  13  -1
M  END
> <s_m_source_file>
AV-unprocessed.smi

> <i_m_source_file_index>
1817

> <i_lp_mmshare_version>
43012

> <i_f3d_flags>
0

> <s_epik_input>
W0NIM11bQ0gyXU4xW0NIMl1bQ0gyXU4oW0NIMl1bQ0gyXTEpW0NASF0oW0NIM10pW0NIMl1bTkhdQyg9TylbTkhdYzJubltjSF1zMg==

> <s_epik_cmdline>
J2VwaWtfcHl0aG9uJywgJy1waCcsICc3LjAnLCAnLXRuJywgJzgnLCAnLW1hJywgJzIwMCcsICctbWV0YWxfYmluZGluZycsICctaW1hZScsICc8aW5maWxlLm1hZT4nLCAnLW9tYWUnLCAnPG91dGZpbGUubWFlPic=

> <r_lp_tautomer_probability>
1

> <r_epik_Ionization_Penalty>
6.0391

> <r_epik_Ionization_Penalty_Charging>
3.54798

> <r_epik_Ionization_Penalty_Neutral>
2.49112

> <r_epik_State_Penalty>
5.3147

> <r_epik_Charging_Adjusted_Penalty>
8.86267

> <i_epik_Tot_Q>
-1

> <i_epik_Tot_abs_Q>
1

> <r_epik_Metal_State_Penalty>
2.29997

> <b_epik_Metal_Only>
1

> <s_lp_Force_Field>
OPLS_2005

> <r_lp_Energy>
41.9027

> <b_lp_Chiralities_Consistent>
1

> <s_lp_Variant>
AV-unprocessed.smi:1817-11

> <Gold.Version>
5.8.1

> <Gold.Id.Protein>
6NUR|6NUR_protein|mol2

> <Gold.PLP.Fitness>
43.9414

> <Gold.PLP.PLP>
-31.0347

> <Gold.PLP.part.hbond>
-3.0000

> <Gold.PLP.part.metal>
0.0000

> <Gold.PLP.part.buried>
-6.7401

> <Gold.PLP.part.nonpolar>
-22.3384

> <Gold.PLP.part.repulsive>
0.2297

> <Gold.PLP.ligand.clash>
0.0000

> <Gold.PLP.ligand.torsion>
0.6113

> <Gold.PLP.Chemscore.Hbond>
4.6800

> <Gold.PLP.Chemscore.CHOScore>
0.0000

> <Gold.PLP.Chemscore.Metal>
0.0000

> <Gold.Chemscore.Hbonds>
donor molecule, donor type, donor heavy atom, donor atom, acceptor molecule, acceptor atom, score
      P1  H  6896  6907       L1    12  0.03
      P1  H  6931  6943       L1    13  1.02
      P1  H  6934  6947       L1    13  2.00

> <Gold.PLP.Chemscore.Internal.Correction>
0.0892

> <Gold.Rescore>
     Score         DG    S(hbond)    S(metal)    S(lipo)     H(rot)  DE(clash)    DE(int)     intcor
     14.03     -16.20       2.05        0.00      73.33       1.84       0.00       2.16       ----

> <Gold.Chemscore.Fitness>
14.0347

> <Gold.Chemscore.DG>
-16.1952

> <Gold.Chemscore.ZeroCoef>
-5.4800

> <Gold.Chemscore.Hbond>
2.0465

> <Gold.Chemscore.Metal>
0.0000

> <Gold.Chemscore.Lipo>
73.3301

> <Gold.Chemscore.Internal_Hbond>
0.0000

> <Gold.Chemscore.DEClash>
0.0000

> <Gold.Chemscore.DEInternal>
2.1604

> <Gold.Chemscore.Rot>
1.8358

> <Gold.Chemscore.Internal.Correction>
   9.000000E+99

> <Gold.Chemscore.Hbonds>
donor molecule, donor type, donor heavy atom, donor atom, acceptor molecule, acceptor atom, score
      P1  H  6896  6907       L1    12  0.09
      P1  H  6931  6943       L1    13  0.08
      P1  H  6934  6947       L1    13  0.82

> <Gold.Chemscore.Hbond.Weighted>
-6.8352

> <Gold.Chemscore.Metal.Weighted>
-0.0000

> <Gold.Chemscore.Lipo.Weighted>
-8.5796

> <Gold.Chemscore.Internal_Hbond.Weighted>
0.0000

> <Gold.Chemscore.DEClash.Weighted>
0.0000

> <Gold.Chemscore.DEInternal.Weighted>
2.1604

> <Gold.Chemscore.Rot.Weighted>
4.6996

> <Gold.Chemscore.Internal.Correction.Weighted>
   9.000000E+99

> <Gold.Protein.RotatedTorsions>
[ 6907 6896 6895 6894 ] final  -62.97 input  -60.11 | X-H torsion
[ 7974 7965 7964 7962 ] final  -22.72 input  175.53 | X-H torsion
[ 8008 7997 7996 7995 ] final   75.73 input   59.86 | X-H torsion
[ 10167 10162 10161 10158 ] final -138.33 input  -65.29 | X-H torsion
[ 10718 10713 10712 10709 ] final  -71.52 input   66.30 | X-H torsion
[ 10763 10752 10751 10750 ] final -171.08 input  -60.55 | X-H torsion
[ 11005 11000 10999 10996 ] final  -47.23 input  -57.11 | X-H torsion

> <Gold.Protein.ActiveResidues>
 VAL166  LYS551  ARG553  GLY616  TRP617  ASP618  TYR619  PRO620  LYS621  CYS622 
 ASP623  PHE694  ASN695  SER759  ASP760  ASP761  ALA762  ILE779  LEU786  VAL792 
 PHE793  MET794  SER795  GLU796  ALA797  LYS798  CYS799  TRP800  GLU811  SER814 

> <Gold.Protein.RotatedAtoms>
  150.7680  134.6499  159.6281 H   0  0  0  0  0  0  0  0  0  0  0  0  # atno 6907 bound_to 6896
  152.3720  134.6716  160.0181 H   0  0  0  0  0  0  0  0  0  0  0  0  # atno 6908 bound_to 6896
  151.7073  133.3275  159.3318 H   0  0  0  0  0  0  0  0  0  0  0  0  # atno 6909 bound_to 6896
  146.1659  140.4518  142.8552 H   0  0  0  0  0  0  0  0  0  0  0  0  # atno 7974 bound_to 7965
  155.8172  140.3471  155.5492 H   0  0  0  0  0  0  0  0  0  0  0  0  # atno 8008 bound_to 7997
  155.8380  140.0937  157.1772 H   0  0  0  0  0  0  0  0  0  0  0  0  # atno 8009 bound_to 7997
  154.4004  140.1400  156.3681 H   0  0  0  0  0  0  0  0  0  0  0  0  # atno 8010 bound_to 7997
  139.8489  143.7225  152.2659 H   0  0  0  0  0  0  0  0  0  0  0  0  # atno 10167 bound_to 10162
  156.0359  130.4353  150.2457 H   0  0  0  0  0  0  0  0  0  0  0  0  # atno 10718 bound_to 10713
  154.6344  135.2890  155.0178 H   0  0  0  0  0  0  0  0  0  0  0  0  # atno 10763 bound_to 10752
  154.1327  135.6531  153.4929 H   0  0  0  0  0  0  0  0  0  0  0  0  # atno 10764 bound_to 10752
  153.0295  135.5314  154.7185 H   0  0  0  0  0  0  0  0  0  0  0  0  # atno 10765 bound_to 10752
  141.0628  133.6703  156.3268 H   0  0  0  0  0  0  0  0  0  0  0  0  # atno 11005 bound_to 11000
  144.8091  140.6354  143.6427 LP  0  0  0  0  0  0  0  0  0  0  0  0  # atno 17320 bound_to 7965
  145.4469  139.1528  143.3939 LP  0  0  0  0  0  0  0  0  0  0  0  0  # atno 17321 bound_to 7965
  139.7485  144.7540  151.0543 LP  0  0  0  0  0  0  0  0  0  0  0  0  # atno 17342 bound_to 10162
  140.7790  143.4888  150.9921 LP  0  0  0  0  0  0  0  0  0  0  0  0  # atno 17343 bound_to 10162
  157.0556  131.0075  151.3239 LP  0  0  0  0  0  0  0  0  0  0  0  0  # atno 17370 bound_to 10713
  157.5108  130.7937  149.7703 LP  0  0  0  0  0  0  0  0  0  0  0  0  # atno 17371 bound_to 10713
  140.5835  134.5722  157.5484 LP  0  0  0  0  0  0  0  0  0  0  0  0  # atno 17394 bound_to 11000
  139.9448  134.7722  156.0589 LP  0  0  0  0  0  0  0  0  0  0  0  0  # atno 17395 bound_to 11000

$$$$
