AV-unprocessed.smi:1740|AV-procd|sdf|7012|dock3
  -GOLD-   22720 8223D 1   1.00000     0.00000
 Structure written by MMmdl.
 51 53  0  0  0  0  0  0  0  0  3 V2000
  152.7553  139.8426  157.0647 N   0  5  0  0  0  0  0  0  0  0  0  0
  151.7252  139.8380  156.1946 C   0  0  0  0  0  0  0  0  0  0  0  0
  151.7069  140.2663  155.0431 O   0  0  0  0  0  0  0  0  0  0  0  0
  150.4619  139.2069  156.7900 C   0  0  0  0  0  0  0  0  0  0  0  0
  149.9703  138.1013  155.9283 N   0  3  2  0  0  0  0  0  0  0  0  0
  148.6938  137.5229  156.4181 C   0  0  0  0  0  0  0  0  0  0  0  0
  148.1347  136.4909  155.4239 C   0  0  0  0  0  0  0  0  0  0  0  0
  149.1575  135.3789  155.1392 C   0  0  1  0  0  0  0  0  0  0  0  0
  148.6326  134.4686  154.1255 N   0  0  0  0  0  0  0  0  0  0  0  0
  148.2408  133.2062  154.3504 C   0  0  0  0  0  0  0  0  0  0  0  0
  148.2583  132.6770  155.4616 O   0  0  0  0  0  0  0  0  0  0  0  0
  147.8209  132.6189  153.2172 N   0  0  0  0  0  0  0  0  0  0  0  0
  147.3391  131.2907  153.0363 C   0  0  0  0  0  0  0  0  0  0  0  0
  147.8867  130.1953  153.7487 C   0  0  0  0  0  0  0  0  0  0  0  0
  147.4221  128.8960  153.4816 C   0  0  0  0  0  0  0  0  0  0  0  0
  146.4346  128.7327  152.4962 C   0  0  0  0  0  0  0  0  0  0  0  0
  145.9130  129.7618  151.7997 N   0  0  0  0  0  0  0  0  0  0  0  0
  146.3404  131.0227  152.0567 C   0  0  0  0  0  0  0  0  0  0  0  0
  145.7451  132.0649  151.3105 N   0  0  0  0  0  0  0  0  0  0  0  0
  145.0618  133.1213  152.0515 C   0  0  0  0  0  0  0  0  0  0  0  0
  143.8272  133.4999  151.2269 C   0  0  0  0  0  0  0  0  0  0  0  0
  144.1757  133.0269  149.8192 C   0  0  0  0  0  0  0  0  0  0  0  0
  144.9946  131.7691  150.0943 C   0  0  0  0  0  0  0  0  0  0  0  0
  150.4842  136.0071  154.6736 C   0  0  0  0  0  0  0  0  0  0  0  0
  150.9920  137.0488  155.6835 C   0  0  0  0  0  0  0  0  0  0  0  0
  152.5972  139.4884  158.0158 H   0  0  0  0  0  0  0  0  0  0  0  0
  150.6507  138.8462  157.8025 H   0  0  0  0  0  0  0  0  0  0  0  0
  149.7064  139.9898  156.8747 H   0  0  0  0  0  0  0  0  0  0  0  0
  148.8527  137.0618  157.3943 H   0  0  0  0  0  0  0  0  0  0  0  0
  147.9600  138.3179  156.5572 H   0  0  0  0  0  0  0  0  0  0  0  0
  147.2140  136.0604  155.8196 H   0  0  0  0  0  0  0  0  0  0  0  0
  147.8658  136.9954  154.4945 H   0  0  0  0  0  0  0  0  0  0  0  0
  149.3290  134.8256  156.0648 H   0  0  0  0  0  0  0  0  0  0  0  0
  148.5767  134.8212  153.1812 H   0  0  0  0  0  0  0  0  0  0  0  0
  147.7687  133.2101  152.4006 H   0  0  0  0  0  0  0  0  0  0  0  0
  148.6715  130.3252  154.4779 H   0  0  0  0  0  0  0  0  0  0  0  0
  147.8229  128.0442  154.0108 H   0  0  0  0  0  0  0  0  0  0  0  0
  146.0571  127.7500  152.2557 H   0  0  0  0  0  0  0  0  0  0  0  0
  144.7865  132.8068  153.0594 H   0  0  0  0  0  0  0  0  0  0  0  0
  145.7297  133.9789  152.1360 H   0  0  0  0  0  0  0  0  0  0  0  0
  142.9592  132.9490  151.5916 H   0  0  0  0  0  0  0  0  0  0  0  0
  143.5949  134.5640  151.2749 H   0  0  0  0  0  0  0  0  0  0  0  0
  143.2983  132.8371  149.2007 H   0  0  0  0  0  0  0  0  0  0  0  0
  144.7930  133.7730  149.3168 H   0  0  0  0  0  0  0  0  0  0  0  0
  145.6609  131.5301  149.2650 H   0  0  0  0  0  0  0  0  0  0  0  0
  144.3199  130.9258  150.2463 H   0  0  0  0  0  0  0  0  0  0  0  0
  151.2409  135.2338  154.5361 H   0  0  0  0  0  0  0  0  0  0  0  0
  150.3492  136.4830  153.7010 H   0  0  0  0  0  0  0  0  0  0  0  0
  151.9100  137.4961  155.3014 H   0  0  0  0  0  0  0  0  0  0  0  0
  151.2473  136.5624  156.6261 H   0  0  0  0  0  0  0  0  0  0  0  0
  149.7668  138.5322  155.0369 H   0  0  0  0  0  0  0  0  0  0  0  0
  1  2  1  0  0  0  0
  1 26  1  0  0  0  0
  2  3  2  0  0  0  0
  2  4  1  0  0  0  0
  4  5  1  0  0  0  0
  4 27  1  0  0  0  0
  4 28  1  0  0  0  0
  5 25  1  0  0  0  0
  5  6  1  0  0  0  0
  5 51  1  0  0  0  0
  6  7  1  0  0  0  0
  6 29  1  0  0  0  0
  6 30  1  0  0  0  0
  7  8  1  0  0  0  0
  7 31  1  0  0  0  0
  7 32  1  0  0  0  0
  8  9  1  0  0  0  0
  8 24  1  0  0  0  0
  8 33  1  0  0  0  0
  9 10  1  0  0  0  0
  9 34  1  0  0  0  0
 10 11  2  0  0  0  0
 10 12  1  0  0  0  0
 12 13  1  0  0  0  0
 12 35  1  0  0  0  0
 13 18  1  0  0  0  0
 13 14  2  0  0  0  0
 14 15  1  0  0  0  0
 14 36  1  0  0  0  0
 15 16  2  0  0  0  0
 15 37  1  0  0  0  0
 16 17  1  0  0  0  0
 16 38  1  0  0  0  0
 17 18  2  0  0  0  0
 18 19  1  0  0  0  0
 19 23  1  0  0  0  0
 19 20  1  0  0  0  0
 20 21  1  0  0  0  0
 20 39  1  0  0  0  0
 20 40  1  0  0  0  0
 21 22  1  0  0  0  0
 21 41  1  0  0  0  0
 21 42  1  0  0  0  0
 22 23  1  0  0  0  0
 22 43  1  0  0  0  0
 22 44  1  0  0  0  0
 23 45  1  0  0  0  0
 23 46  1  0  0  0  0
 24 25  1  0  0  0  0
 24 47  1  0  0  0  0
 24 48  1  0  0  0  0
 25 49  1  0  0  0  0
 25 50  1  0  0  0  0
M  CHG  1   1  -1
M  CHG  1   5   1
M  END
> <s_m_source_file>
AV-unprocessed.smi

> <i_m_source_file_index>
1740

> <i_lp_mmshare_version>
43012

> <i_f3d_flags>
0

> <s_epik_input>
W05IMl1DKD1PKVtDSDJdTjFbQ0gyXVtDSDJdW0NIXShbQ0gyXVtDSDJdMSlbTkhdQyg9TylbTkhdYzJbY0hdW2NIXVtjSF1uYzJOM1tDSDJdW0NIMl1bQ0gyXVtDSDJdMw==

> <s_epik_cmdline>
J2VwaWtfcHl0aG9uJywgJy1waCcsICc3LjAnLCAnLXRuJywgJzgnLCAnLW1hJywgJzIwMCcsICctbWV0YWxfYmluZGluZycsICctaW1hZScsICc8aW5maWxlLm1hZT4nLCAnLW9tYWUnLCAnPG91dGZpbGUubWFlPic=

> <r_lp_tautomer_probability>
1

> <r_epik_Ionization_Penalty>
5.80652

> <r_epik_Ionization_Penalty_Charging>
5.7288

> <r_epik_Ionization_Penalty_Neutral>
0.0777157

> <r_epik_State_Penalty>
6.60246

> <r_epik_Charging_Adjusted_Penalty>
12.3313

> <i_epik_Tot_Q>
0

> <i_epik_Tot_abs_Q>
2

> <r_epik_Metal_State_Penalty>
2.64988

> <b_epik_Metal_Only>
1

> <s_lp_Force_Field>
OPLS_2005

> <r_lp_Energy>
35.8158

> <b_lp_Chiralities_Consistent>
1

> <s_lp_Variant>
AV-unprocessed.smi:1740-7

> <Gold.Version>
5.8.1

> <Gold.Id.Protein>
6NUR|6NUR_protein|mol2

> <Gold.PLP.Fitness>
44.0395

> <Gold.PLP.PLP>
-33.2256

> <Gold.PLP.part.hbond>
-3.0000

> <Gold.PLP.part.metal>
0.0000

> <Gold.PLP.part.buried>
-5.4511

> <Gold.PLP.part.nonpolar>
-25.4379

> <Gold.PLP.part.repulsive>
0.2812

> <Gold.PLP.ligand.clash>
0.0000

> <Gold.PLP.ligand.torsion>
0.5768

> <Gold.PLP.Chemscore.Hbond>
3.8800

> <Gold.PLP.Chemscore.CHOScore>
0.0000

> <Gold.PLP.Chemscore.Metal>
0.0000

> <Gold.Chemscore.Hbonds>
donor molecule, donor type, donor heavy atom, donor atom, acceptor molecule, acceptor atom, score
      L1  H     9    34       P1  7948  1.00
      P1  H  7989  7998       L1     3  0.91
      P1  H  7997  8010       L1     1  2.00

> <Gold.PLP.Chemscore.Internal.Correction>
0.3274

> <Gold.Rescore>
     Score         DG    S(hbond)    S(metal)    S(lipo)     H(rot)  DE(clash)    DE(int)     intcor
     15.45     -17.41       2.53        0.00      76.90       2.16       0.22       1.75       ----

> <Gold.Chemscore.Fitness>
15.4456

> <Gold.Chemscore.DG>
-17.4111

> <Gold.Chemscore.ZeroCoef>
-5.4800

> <Gold.Chemscore.Hbond>
2.5309

> <Gold.Chemscore.Metal>
0.0000

> <Gold.Chemscore.Lipo>
76.9024

> <Gold.Chemscore.Internal_Hbond>
0.0000

> <Gold.Chemscore.DEClash>
0.2150

> <Gold.Chemscore.DEInternal>
1.7505

> <Gold.Chemscore.Rot>
2.1562

> <Gold.Chemscore.Internal.Correction>
   9.000000E+99

> <Gold.Chemscore.Hbonds>
donor molecule, donor type, donor heavy atom, donor atom, acceptor molecule, acceptor atom, score
      L1  H     9    34       P1  7948  0.47
      P1  H  7989  7998       L1     3  0.88
      P1  H  7997  8010       L1     1  0.85

> <Gold.Chemscore.Hbond.Weighted>
-8.4533

> <Gold.Chemscore.Metal.Weighted>
-0.0000

> <Gold.Chemscore.Lipo.Weighted>
-8.9976

> <Gold.Chemscore.Internal_Hbond.Weighted>
0.0000

> <Gold.Chemscore.DEClash.Weighted>
0.2150

> <Gold.Chemscore.DEInternal.Weighted>
1.7505

> <Gold.Chemscore.Rot.Weighted>
5.5198

> <Gold.Chemscore.Internal.Correction.Weighted>
   9.000000E+99

> <Gold.Protein.RotatedTorsions>
[ 6907 6896 6895 6894 ] final  169.49 input  -60.11 | X-H torsion
[ 7974 7965 7964 7962 ] final  -29.51 input  175.53 | X-H torsion
[ 8008 7997 7996 7995 ] final   54.35 input   59.86 | X-H torsion
[ 10167 10162 10161 10158 ] final   41.61 input  -65.29 | X-H torsion
[ 10718 10713 10712 10709 ] final -120.58 input   66.30 | X-H torsion
[ 10763 10752 10751 10750 ] final   43.78 input  -60.55 | X-H torsion
[ 11005 11000 10999 10996 ] final -130.15 input  -57.11 | X-H torsion

> <Gold.Protein.ActiveResidues>
 VAL166  LYS551  ARG553  GLY616  TRP617  ASP618  TYR619  PRO620  LYS621  CYS622 
 ASP623  PHE694  ASN695  SER759  ASP760  ASP761  ALA762  ILE779  LEU786  VAL792 
 PHE793  MET794  SER795  GLU796  ALA797  LYS798  CYS799  TRP800  GLU811  SER814 

> <Gold.Protein.RotatedAtoms>
  151.8310  133.3408  159.3613 H   0  0  0  0  0  0  0  0  0  0  0  0  # atno 6907 bound_to 6896
  150.7264  134.5482  159.5791 H   0  0  0  0  0  0  0  0  0  0  0  0  # atno 6908 bound_to 6896
  152.2936  134.7694  160.0424 H   0  0  0  0  0  0  0  0  0  0  0  0  # atno 6909 bound_to 6896
  146.1211  140.5421  142.8735 H   0  0  0  0  0  0  0  0  0  0  0  0  # atno 7974 bound_to 7965
  155.4832  140.3469  155.4343 H   0  0  0  0  0  0  0  0  0  0  0  0  # atno 8008 bound_to 7997
  156.1025  140.1439  156.9476 H   0  0  0  0  0  0  0  0  0  0  0  0  # atno 8009 bound_to 7997
  154.4703  140.0903  156.7105 H   0  0  0  0  0  0  0  0  0  0  0  0  # atno 8010 bound_to 7997
  140.3627  144.2208  150.6137 H   0  0  0  0  0  0  0  0  0  0  0  0  # atno 10167 bound_to 10162
  156.1269  130.6366  150.9557 H   0  0  0  0  0  0  0  0  0  0  0  0  # atno 10718 bound_to 10713
  152.9854  135.6091  154.3167 H   0  0  0  0  0  0  0  0  0  0  0  0  # atno 10763 bound_to 10752
  154.2879  135.2775  155.2669 H   0  0  0  0  0  0  0  0  0  0  0  0  # atno 10764 bound_to 10752
  154.4978  135.5875  153.6564 H   0  0  0  0  0  0  0  0  0  0  0  0  # atno 10765 bound_to 10752
  140.9371  134.1243  157.4184 H   0  0  0  0  0  0  0  0  0  0  0  0  # atno 11005 bound_to 11000
  144.7598  140.5395  143.6743 LP  0  0  0  0  0  0  0  0  0  0  0  0  # atno 17320 bound_to 7965
  145.5464  139.1476  143.3418 LP  0  0  0  0  0  0  0  0  0  0  0  0  # atno 17321 bound_to 7965
  140.5111  143.2290  151.8533 LP  0  0  0  0  0  0  0  0  0  0  0  0  # atno 17342 bound_to 10162
  139.4812  144.4948  151.9138 LP  0  0  0  0  0  0  0  0  0  0  0  0  # atno 17343 bound_to 10162
  157.6450  131.0905  150.8172 LP  0  0  0  0  0  0  0  0  0  0  0  0  # atno 17370 bound_to 10713
  156.8262  130.5000  149.5337 LP  0  0  0  0  0  0  0  0  0  0  0  0  # atno 17371 bound_to 10713
  139.8810  135.0024  156.6126 LP  0  0  0  0  0  0  0  0  0  0  0  0  # atno 17394 bound_to 11000
  140.7785  133.8680  155.8548 LP  0  0  0  0  0  0  0  0  0  0  0  0  # atno 17395 bound_to 11000

$$$$
