AV-unprocessed.smi:1803|AV-procd|sdf|7287|dock8
  -GOLD-   22720 8543D 1   1.00000     0.00000
 Structure written by MMmdl.
 35 37  0  0  0  0  0  0  0  0  3 V2000
  152.6862  139.9047  156.5422 O   0  0  0  0  0  0  0  0  0  0  0  0
  152.2507  139.1236  157.3869 C   0  0  0  0  0  0  0  0  0  0  0  0
  152.3946  137.7754  157.3034 N   0  5  0  0  0  0  0  0  0  0  0  0
  151.6308  137.0124  156.4995 C   0  0  0  0  0  0  0  0  0  0  0  0
  151.8528  135.6994  156.3270 N   0  0  0  0  0  0  0  0  0  0  0  0
  150.9453  135.1014  155.4634 N   0  0  0  0  0  0  0  0  0  0  0  0
  150.0667  135.9862  154.9927 C   0  0  0  0  0  0  0  0  0  0  0  0
  150.2606  137.6275  155.5711 S   0  0  0  0  0  0  0  0  0  0  0  0
  151.5970  139.6193  158.4543 N   0  0  0  0  0  0  0  0  0  0  0  0
  151.3319  141.0289  158.7140 C   0  0  2  0  0  0  0  0  0  0  0  0
  150.6490  141.7628  157.5490 C   0  0  0  0  0  0  0  0  0  0  0  0
  151.3140  143.1521  157.4961 C   0  0  0  0  0  0  0  0  0  0  0  0
  152.2428  143.2236  158.6476 N   0  3  1  0  0  0  0  0  0  0  0  0
  151.6360  143.9214  159.8143 C   0  0  0  0  0  0  0  0  0  0  0  0
  152.4959  143.7896  161.0783 C   0  0  0  0  0  0  0  0  0  0  0  0
  152.7104  142.3129  161.4203 C   0  0  0  0  0  0  0  0  0  0  0  0
  153.3799  141.6058  160.2368 C   0  0  0  0  0  0  0  0  0  0  0  0
  152.6312  141.8156  158.9015 C   0  0  1  0  0  0  0  0  0  0  0  0
  149.2987  135.6702  154.3026 H   0  0  0  0  0  0  0  0  0  0  0  0
  151.2573  138.9572  159.1367 H   0  0  0  0  0  0  0  0  0  0  0  0
  150.7167  141.1243  159.6103 H   0  0  0  0  0  0  0  0  0  0  0  0
  150.8013  141.2419  156.6024 H   0  0  0  0  0  0  0  0  0  0  0  0
  149.5734  141.8347  157.7132 H   0  0  0  0  0  0  0  0  0  0  0  0
  151.8990  143.2409  156.5799 H   0  0  0  0  0  0  0  0  0  0  0  0
  150.5858  143.9643  157.4935 H   0  0  0  0  0  0  0  0  0  0  0  0
  151.5018  144.9749  159.5664 H   0  0  0  0  0  0  0  0  0  0  0  0
  150.6408  143.5194  160.0117 H   0  0  0  0  0  0  0  0  0  0  0  0
  153.4573  144.2831  160.9293 H   0  0  0  0  0  0  0  0  0  0  0  0
  152.0103  144.2970  161.9123 H   0  0  0  0  0  0  0  0  0  0  0  0
  153.3303  142.2185  162.3122 H   0  0  0  0  0  0  0  0  0  0  0  0
  151.7562  141.8390  161.6529 H   0  0  0  0  0  0  0  0  0  0  0  0
  154.3943  141.9928  160.1320 H   0  0  0  0  0  0  0  0  0  0  0  0
  153.4859  140.5409  160.4457 H   0  0  0  0  0  0  0  0  0  0  0  0
  153.3119  141.5310  158.0962 H   0  0  0  0  0  0  0  0  0  0  0  0
  153.0668  143.7431  158.3817 H   0  0  0  0  0  0  0  0  0  0  0  0
  1  2  2  0  0  0  0
  2  3  1  0  0  0  0
  2  9  1  0  0  0  0
  3  4  1  0  0  0  0
  4  8  1  0  0  0  0
  4  5  2  0  0  0  0
  5  6  1  0  0  0  0
  6  7  2  0  0  0  0
  7  8  1  0  0  0  0
  7 19  1  0  0  0  0
  9 10  1  0  0  0  0
  9 20  1  0  0  0  0
 10 18  1  0  0  0  0
 10 11  1  0  0  0  0
 10 21  1  0  0  0  0
 11 12  1  0  0  0  0
 11 22  1  0  0  0  0
 11 23  1  0  0  0  0
 12 13  1  0  0  0  0
 12 24  1  0  0  0  0
 12 25  1  0  0  0  0
 13 18  1  0  0  0  0
 13 14  1  0  0  0  0
 13 35  1  0  0  0  0
 14 15  1  0  0  0  0
 14 26  1  0  0  0  0
 14 27  1  0  0  0  0
 15 16  1  0  0  0  0
 15 28  1  0  0  0  0
 15 29  1  0  0  0  0
 16 17  1  0  0  0  0
 16 30  1  0  0  0  0
 16 31  1  0  0  0  0
 17 18  1  0  0  0  0
 17 32  1  0  0  0  0
 17 33  1  0  0  0  0
 18 34  1  0  0  0  0
M  CHG  1   3  -1
M  CHG  1  13   1
M  END
> <s_m_source_file>
AV-unprocessed.smi

> <i_m_source_file_index>
1803

> <i_lp_mmshare_version>
43012

> <i_f3d_flags>
0

> <s_epik_input>
czFbY0hdbm5jMVtOSF1DKD1PKVtOSF1bQ0BIXShbQ0gyXVtDSDJdMilbQ0BASF0oTjIzKVtDSDJdW0NIMl1bQ0gyXVtDSDJdMw==

> <s_epik_cmdline>
J2VwaWtfcHl0aG9uJywgJy1waCcsICc3LjAnLCAnLXRuJywgJzgnLCAnLW1hJywgJzIwMCcsICctbWV0YWxfYmluZGluZycsICctaW1hZScsICc8aW5maWxlLm1hZT4nLCAnLW9tYWUnLCAnPG91dGZpbGUubWFlPic=

> <r_lp_tautomer_probability>
1

> <r_epik_Ionization_Penalty>
3.78828

> <r_epik_Ionization_Penalty_Charging>
3.7591

> <r_epik_Ionization_Penalty_Neutral>
0.0291838

> <r_epik_State_Penalty>
3.757

> <r_epik_Charging_Adjusted_Penalty>
7.51609

> <i_epik_Tot_Q>
0

> <i_epik_Tot_abs_Q>
2

> <r_epik_Metal_State_Penalty>
0.558016

> <b_epik_Metal_Only>
1

> <s_lp_Force_Field>
OPLS_2005

> <r_lp_Energy>
31.4386

> <b_lp_Chiralities_Consistent>
1

> <s_lp_Variant>
AV-unprocessed.smi:1803-9

> <Gold.Version>
5.8.1

> <Gold.Id.Protein>
6NUR|6NUR_protein|mol2

> <Gold.PLP.Fitness>
37.8292

> <Gold.PLP.PLP>
-31.0835

> <Gold.PLP.part.hbond>
-2.8453

> <Gold.PLP.part.metal>
0.0000

> <Gold.PLP.part.buried>
-4.2984

> <Gold.PLP.part.nonpolar>
-23.7642

> <Gold.PLP.part.repulsive>
0.2323

> <Gold.PLP.ligand.clash>
0.0000

> <Gold.PLP.ligand.torsion>
0.7567

> <Gold.PLP.Chemscore.Hbond>
1.7500

> <Gold.PLP.Chemscore.CHOScore>
1.0000

> <Gold.PLP.Chemscore.Metal>
0.0000

> <Gold.Chemscore.Hbonds>
donor molecule, donor type, donor heavy atom, donor atom, acceptor molecule, acceptor atom, score
      P1  H  7997  8008       L1     1  1.00
      P1  H 10752 10763       L1     5  0.75
      L1  C     7    19       P1  7948  1.00

> <Gold.PLP.Chemscore.Internal.Correction>
0.0092

> <Gold.Rescore>
     Score         DG    S(hbond)    S(metal)    S(lipo)     H(rot)  DE(clash)    DE(int)     intcor
     13.82     -16.42       1.13        0.00      83.10       1.00       0.00       2.60       ----

> <Gold.Chemscore.Fitness>
13.8182

> <Gold.Chemscore.DG>
-16.4202

> <Gold.Chemscore.ZeroCoef>
-5.4800

> <Gold.Chemscore.Hbond>
1.1311

> <Gold.Chemscore.Metal>
0.0000

> <Gold.Chemscore.Lipo>
83.0976

> <Gold.Chemscore.Internal_Hbond>
0.0000

> <Gold.Chemscore.DEClash>
0.0000

> <Gold.Chemscore.DEInternal>
2.6020

> <Gold.Chemscore.Rot>
1.0000

> <Gold.Chemscore.Internal.Correction>
   9.000000E+99

> <Gold.Chemscore.Hbonds>
donor molecule, donor type, donor heavy atom, donor atom, acceptor molecule, acceptor atom, score
      P1  H  7997  8008       L1     1  0.97
      P1  H 10752 10763       L1     5  0.07

> <Gold.Chemscore.Hbond.Weighted>
-3.7778

> <Gold.Chemscore.Metal.Weighted>
-0.0000

> <Gold.Chemscore.Lipo.Weighted>
-9.7224

> <Gold.Chemscore.Internal_Hbond.Weighted>
0.0000

> <Gold.Chemscore.DEClash.Weighted>
0.0000

> <Gold.Chemscore.DEInternal.Weighted>
2.6020

> <Gold.Chemscore.Rot.Weighted>
2.5600

> <Gold.Chemscore.Internal.Correction.Weighted>
   9.000000E+99

> <Gold.Protein.RotatedTorsions>
[ 6907 6896 6895 6894 ] final -160.64 input  -60.11 | X-H torsion
[ 7974 7965 7964 7962 ] final  130.61 input  175.53 | X-H torsion
[ 8008 7997 7996 7995 ] final  -44.20 input   59.86 | X-H torsion
[ 10167 10162 10161 10158 ] final   84.94 input  -65.29 | X-H torsion
[ 10718 10713 10712 10709 ] final   85.82 input   66.30 | X-H torsion
[ 10763 10752 10751 10750 ] final  106.51 input  -60.55 | X-H torsion
[ 11005 11000 10999 10996 ] final  128.25 input  -57.11 | X-H torsion

> <Gold.Protein.ActiveResidues>
 VAL166  LYS551  ARG553  GLY616  TRP617  ASP618  TYR619  PRO620  LYS621  CYS622 
 ASP623  PHE694  ASN695  SER759  ASP760  ASP761  ALA762  ILE779  LEU786  VAL792 
 PHE793  MET794  SER795  GLU796  ALA797  LYS798  CYS799  TRP800  GLU811  SER814 

> <Gold.Protein.RotatedAtoms>
  151.3522  133.3921  159.2681 H   0  0  0  0  0  0  0  0  0  0  0  0  # atno 6907 bound_to 6896
  150.9792  134.9151  159.7844 H   0  0  0  0  0  0  0  0  0  0  0  0  # atno 6908 bound_to 6896
  152.5211  134.3485  159.9295 H   0  0  0  0  0  0  0  0  0  0  0  0  # atno 6909 bound_to 6896
  145.0161  139.4175  143.5221 H   0  0  0  0  0  0  0  0  0  0  0  0  # atno 7974 bound_to 7965
  154.3997  140.1428  156.3644 H   0  0  0  0  0  0  0  0  0  0  0  0  # atno 8008 bound_to 7997
  155.8151  140.3471  155.5460 H   0  0  0  0  0  0  0  0  0  0  0  0  # atno 8009 bound_to 7997
  155.8346  140.0917  157.1762 H   0  0  0  0  0  0  0  0  0  0  0  0  # atno 8010 bound_to 7997
  139.9028  144.6319  150.8619 H   0  0  0  0  0  0  0  0  0  0  0  0  # atno 10167 bound_to 10162
  157.6920  131.0190  150.2879 H   0  0  0  0  0  0  0  0  0  0  0  0  # atno 10718 bound_to 10713
  153.3939  135.3874  155.1942 H   0  0  0  0  0  0  0  0  0  0  0  0  # atno 10763 bound_to 10752
  154.8722  135.3755  154.4702 H   0  0  0  0  0  0  0  0  0  0  0  0  # atno 10764 bound_to 10752
  153.5192  135.7087  153.5802 H   0  0  0  0  0  0  0  0  0  0  0  0  # atno 10765 bound_to 10752
  139.9550  134.9614  156.8974 H   0  0  0  0  0  0  0  0  0  0  0  0  # atno 11005 bound_to 11000
  146.3478  139.9632  142.8715 LP  0  0  0  0  0  0  0  0  0  0  0  0  # atno 17320 bound_to 7965
  145.1958  140.9832  143.4184 LP  0  0  0  0  0  0  0  0  0  0  0  0  # atno 17321 bound_to 7965
  140.7703  143.3424  151.2181 LP  0  0  0  0  0  0  0  0  0  0  0  0  # atno 17342 bound_to 10162
  139.7010  143.9533  152.2905 LP  0  0  0  0  0  0  0  0  0  0  0  0  # atno 17343 bound_to 10162
  156.3415  130.3816  149.7405 LP  0  0  0  0  0  0  0  0  0  0  0  0  # atno 17370 bound_to 10713
  156.4912  130.8086  151.3095 LP  0  0  0  0  0  0  0  0  0  0  0  0  # atno 17371 bound_to 10713
  140.5630  134.0517  155.7405 LP  0  0  0  0  0  0  0  0  0  0  0  0  # atno 17394 bound_to 11000
  141.1220  133.9445  157.2710 LP  0  0  0  0  0  0  0  0  0  0  0  0  # atno 17395 bound_to 11000

$$$$
