AV-unprocessed.smi:3303|AV-procd|sdf|12660|dock8
  -GOLD-   2272018593D 1   1.00000     0.00000
 Structure written by MMmdl.
 45 46  0  0  0  0  0  0  0  0  3 V2000
  151.1229  137.8403  154.5390 C   0  0  0  0  0  0  0  0  0  0  0  0
  150.4423  139.2052  154.3401 C   0  0  1  0  0  0  0  0  0  0  0  0
  148.9556  139.0646  153.9555 C   0  0  0  0  0  0  0  0  0  0  0  0
  148.3510  140.3894  153.6641 N   0  3  1  0  0  0  0  0  0  0  0  0
  146.9972  140.2867  153.0729 C   0  0  0  0  0  0  0  0  0  0  0  0
  148.4530  141.3527  154.7981 C   0  0  1  0  0  0  0  0  0  0  0  0
  147.4836  141.0459  155.9608 C   0  0  0  0  0  0  0  0  0  0  0  0
  149.9242  141.5000  155.2518 C   0  0  0  0  0  0  0  0  0  0  0  0
  150.6327  140.1562  155.5436 C   0  0  1  0  0  0  0  0  0  0  0  0
  150.1825  139.5321  156.8121 N   0  3  0  0  0  0  0  0  0  0  0  0
  150.4069  140.3348  158.0322 C   0  0  0  0  0  0  0  0  0  0  0  0
  151.7859  141.0065  157.9986 C   0  0  0  0  0  0  0  0  0  0  0  0
  151.7129  142.4764  158.3646 C   0  0  0  0  0  0  0  0  0  0  0  0
  152.3552  142.9661  159.5217 C   0  0  0  0  0  0  0  0  0  0  0  0
  152.2601  144.3417  159.8093 C   0  0  0  0  0  0  0  0  0  0  0  0
  151.5320  145.1691  158.9326 C   0  0  0  0  0  0  0  0  0  0  0  0
  150.9283  144.5824  157.8026 C   0  0  0  0  0  0  0  0  0  0  0  0
  151.0139  143.2647  157.5172 N   0  0  0  0  0  0  0  0  0  0  0  0
  150.6518  137.2633  155.3352 H   0  0  0  0  0  0  0  0  0  0  0  0
  152.1772  137.9595  154.7908 H   0  0  0  0  0  0  0  0  0  0  0  0
  151.0705  137.2427  153.6283 H   0  0  0  0  0  0  0  0  0  0  0  0
  150.9433  139.6714  153.4897 H   0  0  0  0  0  0  0  0  0  0  0  0
  148.8741  138.4387  153.0656 H   0  0  0  0  0  0  0  0  0  0  0  0
  148.3953  138.5570  154.7415 H   0  0  0  0  0  0  0  0  0  0  0  0
  146.3037  139.7788  153.7439 H   0  0  0  0  0  0  0  0  0  0  0  0
  147.0333  139.7227  152.1404 H   0  0  0  0  0  0  0  0  0  0  0  0
  146.5975  141.2755  152.8451 H   0  0  0  0  0  0  0  0  0  0  0  0
  148.1563  142.3259  154.4039 H   0  0  0  0  0  0  0  0  0  0  0  0
  147.6454  141.7344  156.7908 H   0  0  0  0  0  0  0  0  0  0  0  0
  147.5953  140.0345  156.3483 H   0  0  0  0  0  0  0  0  0  0  0  0
  146.4440  141.1636  155.6550 H   0  0  0  0  0  0  0  0  0  0  0  0
  150.4716  141.9938  154.4477 H   0  0  0  0  0  0  0  0  0  0  0  0
  149.9956  142.1833  156.0976 H   0  0  0  0  0  0  0  0  0  0  0  0
  151.7020  140.3476  155.6472 H   0  0  0  0  0  0  0  0  0  0  0  0
  149.1997  139.3108  156.7409 H   0  0  0  0  0  0  0  0  0  0  0  0
  149.6275  141.0935  158.1152 H   0  0  0  0  0  0  0  0  0  0  0  0
  150.3342  139.6979  158.9134 H   0  0  0  0  0  0  0  0  0  0  0  0
  152.4639  140.5053  158.6916 H   0  0  0  0  0  0  0  0  0  0  0  0
  152.2291  140.9040  157.0071 H   0  0  0  0  0  0  0  0  0  0  0  0
  152.9078  142.3072  160.1758 H   0  0  0  0  0  0  0  0  0  0  0  0
  152.7378  144.7543  160.6859 H   0  0  0  0  0  0  0  0  0  0  0  0
  151.4379  146.2284  159.1217 H   0  0  0  0  0  0  0  0  0  0  0  0
  150.3624  145.1866  157.1091 H   0  0  0  0  0  0  0  0  0  0  0  0
  150.6962  138.6697  156.9271 H   0  0  0  0  0  0  0  0  0  0  0  0
  148.9241  140.7859  152.9324 H   0  0  0  0  0  0  0  0  0  0  0  0
  1  2  1  0  0  0  0
  1 19  1  0  0  0  0
  1 20  1  0  0  0  0
  1 21  1  0  0  0  0
  2  9  1  0  0  0  0
  2  3  1  0  0  0  0
  2 22  1  0  0  0  0
  3  4  1  0  0  0  0
  3 23  1  0  0  0  0
  3 24  1  0  0  0  0
  4  5  1  0  0  0  0
  4  6  1  0  0  0  0
  4 45  1  0  0  0  0
  5 25  1  0  0  0  0
  5 26  1  0  0  0  0
  5 27  1  0  0  0  0
  6  7  1  0  0  0  0
  6  8  1  0  0  0  0
  6 28  1  0  0  0  0
  7 29  1  0  0  0  0
  7 30  1  0  0  0  0
  7 31  1  0  0  0  0
  8  9  1  0  0  0  0
  8 32  1  0  0  0  0
  8 33  1  0  0  0  0
  9 10  1  0  0  0  0
  9 34  1  0  0  0  0
 10 11  1  0  0  0  0
 10 35  1  0  0  0  0
 10 44  1  0  0  0  0
 11 12  1  0  0  0  0
 11 36  1  0  0  0  0
 11 37  1  0  0  0  0
 12 13  1  0  0  0  0
 12 38  1  0  0  0  0
 12 39  1  0  0  0  0
 13 18  1  0  0  0  0
 13 14  2  0  0  0  0
 14 15  1  0  0  0  0
 14 40  1  0  0  0  0
 15 16  2  0  0  0  0
 15 41  1  0  0  0  0
 16 17  1  0  0  0  0
 16 42  1  0  0  0  0
 17 18  2  0  0  0  0
 17 43  1  0  0  0  0
M  CHG  1   4   1
M  CHG  1  10   1
M  END
> <s_m_source_file>
AV-unprocessed.smi

> <i_m_source_file_index>
3303

> <i_lp_mmshare_version>
43012

> <i_f3d_flags>
0

> <s_epik_input>
W0NIM11bQ0BASF0xW0NIMl1OKFtDSDNdKVtDQEBIXShbQ0gzXSlbQ0gyXVtDQEhdMVtOSF1bQ0gyXVtDSDJdYzJbY0hdW2NIXVtjSF1bY0hdbjI=

> <s_epik_cmdline>
J2VwaWtfcHl0aG9uJywgJy1waCcsICc3LjAnLCAnLXRuJywgJzgnLCAnLW1hJywgJzIwMCcsICctbWV0YWxfYmluZGluZycsICctaW1hZScsICc8aW5maWxlLm1hZT4nLCAnLW9tYWUnLCAnPG91dGZpbGUubWFlPic=

> <r_epik_Ionization_Penalty>
0.0769462

> <r_epik_Ionization_Penalty_Charging>
0.0759813

> <r_epik_Ionization_Penalty_Neutral>
0.000964829

> <r_epik_State_Penalty>
0.0654373

> <r_epik_Charging_Adjusted_Penalty>
0.141419

> <i_epik_Tot_Q>
2

> <i_epik_Tot_abs_Q>
2

> <r_epik_Metal_State_Penalty>
0.0656439

> <b_epik_Metal_Only>
0

> <s_lp_Force_Field>
OPLS_2005

> <r_lp_Energy>
33.2065

> <b_lp_Chiralities_Consistent>
1

> <s_lp_Variant>
AV-unprocessed.smi:3303-4

> <Gold.Version>
5.8.1

> <Gold.Id.Protein>
6NUR|6NUR_protein|mol2

> <Gold.PLP.Fitness>
45.3791

> <Gold.PLP.PLP>
-41.0333

> <Gold.PLP.part.hbond>
-1.0000

> <Gold.PLP.part.metal>
0.0000

> <Gold.PLP.part.buried>
-2.9577

> <Gold.PLP.part.nonpolar>
-36.5955

> <Gold.PLP.part.repulsive>
0.2228

> <Gold.PLP.ligand.clash>
0.0000

> <Gold.PLP.ligand.torsion>
0.4376

> <Gold.PLP.Chemscore.Hbond>
0.7360

> <Gold.PLP.Chemscore.CHOScore>
1.0000

> <Gold.PLP.Chemscore.Metal>
0.0000

> <Gold.Chemscore.Hbonds>
donor molecule, donor type, donor heavy atom, donor atom, acceptor molecule, acceptor atom, score
      L1  H     4    45       P1  7957  0.65
      L1  C    17    43       P1  8028  0.80

> <Gold.PLP.Chemscore.Internal.Correction>
0.0129

> <Gold.Rescore>
     Score         DG    S(hbond)    S(metal)    S(lipo)     H(rot)  DE(clash)    DE(int)     intcor
     18.66     -19.20       0.89        0.00     122.01       1.37       0.11       0.42       ----

> <Gold.Chemscore.Fitness>
18.6630

> <Gold.Chemscore.DG>
-19.1951

> <Gold.Chemscore.ZeroCoef>
-5.4800

> <Gold.Chemscore.Hbond>
0.8859

> <Gold.Chemscore.Metal>
0.0000

> <Gold.Chemscore.Lipo>
122.0065

> <Gold.Chemscore.Internal_Hbond>
0.0000

> <Gold.Chemscore.DEClash>
0.1072

> <Gold.Chemscore.DEInternal>
0.4249

> <Gold.Chemscore.Rot>
1.3744

> <Gold.Chemscore.Internal.Correction>
   9.000000E+99

> <Gold.Chemscore.Hbonds>
donor molecule, donor type, donor heavy atom, donor atom, acceptor molecule, acceptor atom, score
      L1  H     4    45       P1  7957  0.61

> <Gold.Chemscore.Hbond.Weighted>
-2.9588

> <Gold.Chemscore.Metal.Weighted>
-0.0000

> <Gold.Chemscore.Lipo.Weighted>
-14.2748

> <Gold.Chemscore.Internal_Hbond.Weighted>
0.0000

> <Gold.Chemscore.DEClash.Weighted>
0.1072

> <Gold.Chemscore.DEInternal.Weighted>
0.4249

> <Gold.Chemscore.Rot.Weighted>
3.5185

> <Gold.Chemscore.Internal.Correction.Weighted>
   9.000000E+99

> <Gold.Protein.RotatedTorsions>
[ 6907 6896 6895 6894 ] final  173.76 input  -60.11 | X-H torsion
[ 7974 7965 7964 7962 ] final  168.10 input  175.53 | X-H torsion
[ 8008 7997 7996 7995 ] final -158.19 input   59.86 | X-H torsion
[ 10167 10162 10161 10158 ] final  -82.44 input  -65.29 | X-H torsion
[ 10718 10713 10712 10709 ] final   46.98 input   66.30 | X-H torsion
[ 10763 10752 10751 10750 ] final   97.97 input  -60.55 | X-H torsion
[ 11005 11000 10999 10996 ] final -137.79 input  -57.11 | X-H torsion

> <Gold.Protein.ActiveResidues>
 VAL166  LYS551  ARG553  GLY616  TRP617  ASP618  TYR619  PRO620  LYS621  CYS622 
 ASP623  PHE694  ASN695  SER759  ASP760  ASP761  ALA762  ILE779  LEU786  VAL792 
 PHE793  MET794  SER795  GLU796  ALA797  LYS798  CYS799  TRP800  GLU811  SER814 

> <Gold.Protein.RotatedAtoms>
  151.7632  133.3335  159.3423 H   0  0  0  0  0  0  0  0  0  0  0  0  # atno 6907 bound_to 6896
  150.7490  134.6087  159.6084 H   0  0  0  0  0  0  0  0  0  0  0  0  # atno 6908 bound_to 6896
  152.3391  134.7160  160.0320 H   0  0  0  0  0  0  0  0  0  0  0  0  # atno 6909 bound_to 6896
  144.7400  139.8858  143.6399 H   0  0  0  0  0  0  0  0  0  0  0  0  # atno 7974 bound_to 7965
  155.7439  140.0817  157.2233 H   0  0  0  0  0  0  0  0  0  0  0  0  # atno 8008 bound_to 7997
  154.4019  140.1573  156.2702 H   0  0  0  0  0  0  0  0  0  0  0  0  # atno 8009 bound_to 7997
  155.8995  140.3410  155.6018 H   0  0  0  0  0  0  0  0  0  0  0  0  # atno 8010 bound_to 7997
  140.4320  143.2545  151.8747 H   0  0  0  0  0  0  0  0  0  0  0  0  # atno 10167 bound_to 10162
  157.4538  130.8154  149.7815 H   0  0  0  0  0  0  0  0  0  0  0  0  # atno 10718 bound_to 10713
  153.2834  135.4164  155.1100 H   0  0  0  0  0  0  0  0  0  0  0  0  # atno 10763 bound_to 10752
  154.8497  135.3501  154.6081 H   0  0  0  0  0  0  0  0  0  0  0  0  # atno 10764 bound_to 10752
  153.6502  135.7053  153.5269 H   0  0  0  0  0  0  0  0  0  0  0  0  # atno 10765 bound_to 10752
  140.8677  134.2089  157.4669 H   0  0  0  0  0  0  0  0  0  0  0  0  # atno 11005 bound_to 11000
  146.1178  139.4192  143.0247 LP  0  0  0  0  0  0  0  0  0  0  0  0  # atno 17320 bound_to 7965
  145.7349  141.0029  143.1332 LP  0  0  0  0  0  0  0  0  0  0  0  0  # atno 17321 bound_to 7965
  139.4785  144.5325  151.8647 LP  0  0  0  0  0  0  0  0  0  0  0  0  # atno 17342 bound_to 10162
  140.4417  144.1977  150.5892 LP  0  0  0  0  0  0  0  0  0  0  0  0  # atno 17343 bound_to 10162
  155.9998  130.3886  150.2650 LP  0  0  0  0  0  0  0  0  0  0  0  0  # atno 17370 bound_to 10713
  157.0823  131.0147  151.3152 LP  0  0  0  0  0  0  0  0  0  0  0  0  # atno 17371 bound_to 10713
  139.8710  134.9760  156.4903 LP  0  0  0  0  0  0  0  0  0  0  0  0  # atno 17394 bound_to 11000
  140.8609  133.8060  155.9264 LP  0  0  0  0  0  0  0  0  0  0  0  0  # atno 17395 bound_to 11000

$$$$
