AV-unprocessed.smi:1386|AV-procd|sdf|5637|dock7
  -GOLD-   22720 5253D 1   1.00000     0.00000
 Structure written by MMmdl.
 36 37  0  0  0  0  0  0  0  0  2 V2000
  149.8996  141.5777  155.2184 C   0  0  0  0  0  0  0  0  0  0  0  0
  150.8003  140.9666  156.2997 C   0  0  1  0  0  0  0  0  0  0  0  0
  151.8915  140.0676  155.6794 C   0  0  0  0  0  0  0  0  0  0  0  0
  151.3610  138.8049  155.1514 N   0  0  0  0  0  0  0  0  0  0  0  0
  151.6388  137.5362  155.5920 C   0  0  0  0  0  0  0  0  0  0  0  0
  150.9325  136.6796  154.7874 C   0  0  0  0  0  0  0  0  0  0  0  0
  150.2460  137.4609  153.8970 N   0  3  0  0  0  0  0  0  0  0  0  0
  150.5026  138.7529  154.1242 C   0  0  0  0  0  0  0  0  0  0  0  0
  151.4014  142.0439  157.0855 N   0  0  0  0  0  0  0  0  0  0  0  0
  151.9793  141.9095  158.2930 C   0  0  0  0  0  0  0  0  0  0  0  0
  151.9890  140.8381  158.9007 O   0  0  0  0  0  0  0  0  0  0  0  0
  152.5689  143.0348  158.7687 N   0  0  0  0  0  0  0  0  0  0  0  0
  153.0729  143.2302  160.1373 C   0  0  0  0  0  0  0  0  0  0  0  0
  151.9681  143.8806  160.9868 C   0  0  0  0  0  0  0  0  0  0  0  0
  151.5212  145.5212  160.3353 S   0  0  0  0  0  0  0  0  0  0  0  0
  151.2991  145.1159  158.5738 C   0  0  0  0  0  0  0  0  0  0  0  0
  152.4908  144.3043  158.0375 C   0  0  0  0  0  0  0  0  0  0  0  0
  149.4074  140.8006  154.6328 H   0  0  0  0  0  0  0  0  0  0  0  0
  150.4707  142.2014  154.5298 H   0  0  0  0  0  0  0  0  0  0  0  0
  149.1196  142.1982  155.6609 H   0  0  0  0  0  0  0  0  0  0  0  0
  150.1631  140.3525  156.9388 H   0  0  0  0  0  0  0  0  0  0  0  0
  152.3803  140.5821  154.8513 H   0  0  0  0  0  0  0  0  0  0  0  0
  152.6674  139.8402  156.4126 H   0  0  0  0  0  0  0  0  0  0  0  0
  152.3104  137.3418  156.4156 H   0  0  0  0  0  0  0  0  0  0  0  0
  150.8690  135.6011  154.7818 H   0  0  0  0  0  0  0  0  0  0  0  0
  150.1025  139.5882  153.5776 H   0  0  0  0  0  0  0  0  0  0  0  0
  151.4191  142.9590  156.6591 H   0  0  0  0  0  0  0  0  0  0  0  0
  153.4098  142.3032  160.6021 H   0  0  0  0  0  0  0  0  0  0  0  0
  153.9558  143.8709  160.1218 H   0  0  0  0  0  0  0  0  0  0  0  0
  151.0789  143.2501  161.0029 H   0  0  0  0  0  0  0  0  0  0  0  0
  152.2983  143.9931  162.0196 H   0  0  0  0  0  0  0  0  0  0  0  0
  150.3709  144.5560  158.4519 H   0  0  0  0  0  0  0  0  0  0  0  0
  151.1872  146.0436  158.0124 H   0  0  0  0  0  0  0  0  0  0  0  0
  153.4165  144.8693  158.1566 H   0  0  0  0  0  0  0  0  0  0  0  0
  152.3845  144.1487  156.9628 H   0  0  0  0  0  0  0  0  0  0  0  0
  149.6303  137.1135  153.1722 H   0  0  0  0  0  0  0  0  0  0  0  0
  1  2  1  0  0  0  0
  1 18  1  0  0  0  0
  1 19  1  0  0  0  0
  1 20  1  0  0  0  0
  2  3  1  0  0  0  0
  2  9  1  0  0  0  0
  2 21  1  0  0  0  0
  3  4  1  0  0  0  0
  3 22  1  0  0  0  0
  3 23  1  0  0  0  0
  4  8  1  0  0  0  0
  4  5  1  0  0  0  0
  5  6  2  0  0  0  0
  5 24  1  0  0  0  0
  6  7  1  0  0  0  0
  6 25  1  0  0  0  0
  7  8  2  0  0  0  0
  7 36  1  0  0  0  0
  8 26  1  0  0  0  0
  9 10  1  0  0  0  0
  9 27  1  0  0  0  0
 10 11  2  0  0  0  0
 10 12  1  0  0  0  0
 12 17  1  0  0  0  0
 12 13  1  0  0  0  0
 13 14  1  0  0  0  0
 13 28  1  0  0  0  0
 13 29  1  0  0  0  0
 14 15  1  0  0  0  0
 14 30  1  0  0  0  0
 14 31  1  0  0  0  0
 15 16  1  0  0  0  0
 16 17  1  0  0  0  0
 16 32  1  0  0  0  0
 16 33  1  0  0  0  0
 17 34  1  0  0  0  0
 17 35  1  0  0  0  0
M  CHG  1   7   1
M  END
> <s_m_source_file>
AV-unprocessed.smi

> <i_m_source_file_index>
1386

> <i_lp_mmshare_version>
43012

> <i_f3d_flags>
0

> <s_epik_input>
W2NIXTFuW2NIXVtjSF1uMVtDSDJdW0NAQEhdKFtDSDNdKVtOSF1DKD1PKU4yW0NIMl1bQ0gyXVNbQ0gyXVtDSDJdMg==

> <s_epik_cmdline>
J2VwaWtfcHl0aG9uJywgJy1waCcsICc3LjAnLCAnLXRuJywgJzgnLCAnLW1hJywgJzIwMCcsICctbWV0YWxfYmluZGluZycsICctaW1hZScsICc8aW5maWxlLm1hZT4nLCAnLW9tYWUnLCAnPG91dGZpbGUubWFlPic=

> <r_lp_tautomer_probability>
1

> <r_epik_Ionization_Penalty>
0.254941

> <r_epik_Ionization_Penalty_Charging>
0

> <r_epik_Ionization_Penalty_Neutral>
0.254941

> <r_epik_State_Penalty>
0.246388

> <r_epik_Charging_Adjusted_Penalty>
0.246388

> <i_epik_Tot_Q>
1

> <i_epik_Tot_abs_Q>
1

> <r_epik_Metal_State_Penalty>
0.536262

> <b_epik_Metal_Only>
0

> <s_lp_Force_Field>
OPLS_2005

> <r_lp_Energy>
25.7972

> <b_lp_Chiralities_Consistent>
1

> <s_lp_Variant>
AV-unprocessed.smi:1386-2

> <Gold.Version>
5.8.1

> <Gold.Id.Protein>
6NUR|6NUR_protein|mol2

> <Gold.PLP.Fitness>
49.4628

> <Gold.PLP.PLP>
-43.4373

> <Gold.PLP.part.hbond>
-2.0000

> <Gold.PLP.part.metal>
0.0000

> <Gold.PLP.part.buried>
-1.3831

> <Gold.PLP.part.nonpolar>
-39.7168

> <Gold.PLP.part.repulsive>
0.1263

> <Gold.PLP.ligand.clash>
2.3802

> <Gold.PLP.ligand.torsion>
0.3277

> <Gold.PLP.Chemscore.Hbond>
2.0000

> <Gold.PLP.Chemscore.CHOScore>
0.9971

> <Gold.PLP.Chemscore.Metal>
0.0000

> <Gold.Chemscore.Hbonds>
donor molecule, donor type, donor heavy atom, donor atom, acceptor molecule, acceptor atom, score
      L1  H     7    36       P1  7948  2.00
      L1  C     8    26       P1  7957  1.00

> <Gold.PLP.Chemscore.Internal.Correction>
0.0698

> <Gold.Rescore>
     Score         DG    S(hbond)    S(metal)    S(lipo)     H(rot)  DE(clash)    DE(int)     intcor
     15.35     -15.64       0.93        0.00      96.10       1.64       0.07       0.23       ----

> <Gold.Chemscore.Fitness>
15.3471

> <Gold.Chemscore.DG>
-15.6438

> <Gold.Chemscore.ZeroCoef>
-5.4800

> <Gold.Chemscore.Hbond>
0.9342

> <Gold.Chemscore.Metal>
0.0000

> <Gold.Chemscore.Lipo>
96.0957

> <Gold.Chemscore.Internal_Hbond>
0.0000

> <Gold.Chemscore.DEClash>
0.0652

> <Gold.Chemscore.DEInternal>
0.2315

> <Gold.Chemscore.Rot>
1.6404

> <Gold.Chemscore.Internal.Correction>
   9.000000E+99

> <Gold.Chemscore.Hbonds>
donor molecule, donor type, donor heavy atom, donor atom, acceptor molecule, acceptor atom, score
      L1  H     7    36       P1  7948  0.65

> <Gold.Chemscore.Hbond.Weighted>
-3.1201

> <Gold.Chemscore.Metal.Weighted>
-0.0000

> <Gold.Chemscore.Lipo.Weighted>
-11.2432

> <Gold.Chemscore.Internal_Hbond.Weighted>
0.0000

> <Gold.Chemscore.DEClash.Weighted>
0.0652

> <Gold.Chemscore.DEInternal.Weighted>
0.2315

> <Gold.Chemscore.Rot.Weighted>
4.1995

> <Gold.Chemscore.Internal.Correction.Weighted>
   9.000000E+99

> <Gold.Protein.RotatedTorsions>
[ 6907 6896 6895 6894 ] final -137.29 input  -60.11 | X-H torsion
[ 7974 7965 7964 7962 ] final  -27.04 input  175.53 | X-H torsion
[ 8008 7997 7996 7995 ] final  172.88 input   59.86 | X-H torsion
[ 10167 10162 10161 10158 ] final   70.94 input  -65.29 | X-H torsion
[ 10718 10713 10712 10709 ] final  123.02 input   66.30 | X-H torsion
[ 10763 10752 10751 10750 ] final  -49.58 input  -60.55 | X-H torsion
[ 11005 11000 10999 10996 ] final -113.14 input  -57.11 | X-H torsion

> <Gold.Protein.ActiveResidues>
 VAL166  LYS551  ARG553  GLY616  TRP617  ASP618  TYR619  PRO620  LYS621  CYS622 
 ASP623  PHE694  ASN695  SER759  ASP760  ASP761  ALA762  ILE779  LEU786  VAL792 
 PHE793  MET794  SER795  GLU796  ALA797  LYS798  CYS799  TRP800  GLU811  SER814 

> <Gold.Protein.RotatedAtoms>
  151.0206  133.5880  159.2671 H   0  0  0  0  0  0  0  0  0  0  0  0  # atno 6907 bound_to 6896
  151.2998  135.0764  159.9244 H   0  0  0  0  0  0  0  0  0  0  0  0  # atno 6908 bound_to 6896
  152.5322  133.9890  159.7896 H   0  0  0  0  0  0  0  0  0  0  0  0  # atno 6909 bound_to 6896
  146.1385  140.5099  142.8662 H   0  0  0  0  0  0  0  0  0  0  0  0  # atno 7974 bound_to 7965
  156.1131  140.1474  156.9310 H   0  0  0  0  0  0  0  0  0  0  0  0  # atno 8008 bound_to 7997
  154.4781  140.0888  156.7354 H   0  0  0  0  0  0  0  0  0  0  0  0  # atno 8009 bound_to 7997
  155.4561  140.3436  155.4309 H   0  0  0  0  0  0  0  0  0  0  0  0  # atno 8010 bound_to 7997
  140.0515  144.5308  150.7360 H   0  0  0  0  0  0  0  0  0  0  0  0  # atno 10167 bound_to 10162
  157.5697  131.1084  150.8389 H   0  0  0  0  0  0  0  0  0  0  0  0  # atno 10718 bound_to 10713
  154.0963  135.6570  153.4861 H   0  0  0  0  0  0  0  0  0  0  0  0  # atno 10763 bound_to 10752
  153.0304  135.5214  154.7330 H   0  0  0  0  0  0  0  0  0  0  0  0  # atno 10764 bound_to 10752
  154.6469  135.2996  155.0004 H   0  0  0  0  0  0  0  0  0  0  0  0  # atno 10765 bound_to 10752
  141.0632  133.9501  157.2627 H   0  0  0  0  0  0  0  0  0  0  0  0  # atno 11005 bound_to 11000
  144.7766  140.5752  143.6634 LP  0  0  0  0  0  0  0  0  0  0  0  0  # atno 17320 bound_to 7965
  145.5101  139.1479  143.3609 LP  0  0  0  0  0  0  0  0  0  0  0  0  # atno 17321 bound_to 7965
  140.7214  143.2593  151.4264 LP  0  0  0  0  0  0  0  0  0  0  0  0  # atno 17342 bound_to 10162
  139.5950  144.1417  152.2133 LP  0  0  0  0  0  0  0  0  0  0  0  0  # atno 17343 bound_to 10162
  156.8864  130.5197  149.5288 LP  0  0  0  0  0  0  0  0  0  0  0  0  # atno 17370 bound_to 10713
  156.0743  130.5769  150.9444 LP  0  0  0  0  0  0  0  0  0  0  0  0  # atno 17371 bound_to 10713
  139.9452  135.0185  156.8831 LP  0  0  0  0  0  0  0  0  0  0  0  0  # atno 17394 bound_to 11000
  140.5826  134.0338  155.7469 LP  0  0  0  0  0  0  0  0  0  0  0  0  # atno 17395 bound_to 11000

$$$$
