AV-unprocessed.smi:1867|AV-procd|sdf|7566|dock1
  -GOLD-   22720 9283D 1   1.00000     0.00000
 Structure written by MMmdl.
 52 55  0  0  0  0  0  0  0  0  2 V2000
  149.4905  136.8408  156.9235 O   0  0  0  0  0  0  0  0  0  0  0  0
  149.6362  137.1678  155.7481 C   0  0  0  0  0  0  0  0  0  0  0  0
  150.0879  138.3683  155.3360 N   0  0  0  0  0  0  0  0  0  0  0  0
  150.5462  139.4587  156.1216 C   0  0  0  0  0  0  0  0  0  0  0  0
  150.4137  140.7572  155.5933 C   0  0  0  0  0  0  0  0  0  0  0  0
  150.8767  141.8560  156.3411 C   0  0  0  0  0  0  0  0  0  0  0  0
  151.4726  141.6256  157.6042 C   0  0  0  0  0  0  0  0  0  0  0  0
  151.9547  142.6932  158.3875 N   0  0  0  0  0  0  0  0  0  0  0  0
  151.5950  144.0760  158.1181 C   0  0  0  0  0  0  0  0  0  0  0  0
  152.2027  144.8695  159.2745 C   0  0  0  0  0  0  0  0  0  0  0  0
  152.1486  143.8837  160.4414 C   0  0  0  0  0  0  0  0  0  0  0  0
  152.3456  142.5151  159.7806 C   0  0  0  0  0  0  0  0  0  0  0  0
  151.6196  140.3750  158.1027 N   0  0  0  0  0  0  0  0  0  0  0  0
  151.1708  139.3245  157.3839 C   0  0  0  0  0  0  0  0  0  0  0  0
  149.3277  136.3200  154.7495 N   0  0  0  0  0  0  0  0  0  0  0  0
  148.8150  134.9489  154.8368 C   0  0  2  0  0  0  0  0  0  0  0  0
  149.7223  133.9295  154.1206 C   0  0  0  0  0  0  0  0  0  0  0  0
  148.7537  132.9714  153.4202 C   0  0  0  0  0  0  0  0  0  0  0  0
  147.6310  133.8457  153.0637 N   0  3  1  0  0  0  0  0  0  0  0  0
  146.3809  133.2273  152.5777 C   0  0  0  0  0  0  0  0  0  0  0  0
  145.4381  134.3501  152.0939 C   0  0  0  0  0  0  0  0  0  0  0  0
  145.2359  135.4462  153.1648 C   0  0  0  0  0  0  0  0  0  0  0  0
  146.5807  135.9574  153.7262 C   0  0  0  0  0  0  0  0  0  0  0  0
  147.4149  134.7542  154.2032 C   0  0  2  0  0  0  0  0  0  0  0  0
  150.0613  138.5349  154.3410 H   0  0  0  0  0  0  0  0  0  0  0  0
  149.9588  140.9145  154.6261 H   0  0  0  0  0  0  0  0  0  0  0  0
  150.7701  142.8508  155.9356 H   0  0  0  0  0  0  0  0  0  0  0  0
  151.9808  144.4148  157.1562 H   0  0  0  0  0  0  0  0  0  0  0  0
  150.5087  144.1738  158.1120 H   0  0  0  0  0  0  0  0  0  0  0  0
  153.2415  145.1146  159.0488 H   0  0  0  0  0  0  0  0  0  0  0  0
  151.6716  145.8005  159.4752 H   0  0  0  0  0  0  0  0  0  0  0  0
  152.8920  144.0920  161.2113 H   0  0  0  0  0  0  0  0  0  0  0  0
  151.1630  143.9262  160.9071 H   0  0  0  0  0  0  0  0  0  0  0  0
  151.7559  141.7497  160.2865 H   0  0  0  0  0  0  0  0  0  0  0  0
  153.3939  142.2163  159.8137 H   0  0  0  0  0  0  0  0  0  0  0  0
  151.3455  138.3612  157.8370 H   0  0  0  0  0  0  0  0  0  0  0  0
  149.4677  136.6737  153.8138 H   0  0  0  0  0  0  0  0  0  0  0  0
  148.7639  134.6478  155.8847 H   0  0  0  0  0  0  0  0  0  0  0  0
  150.3365  134.4300  153.3700 H   0  0  0  0  0  0  0  0  0  0  0  0
  150.3968  133.4130  154.8042 H   0  0  0  0  0  0  0  0  0  0  0  0
  149.1933  132.4927  152.5445 H   0  0  0  0  0  0  0  0  0  0  0  0
  148.4143  132.1951  154.1079 H   0  0  0  0  0  0  0  0  0  0  0  0
  146.6023  132.5428  151.7581 H   0  0  0  0  0  0  0  0  0  0  0  0
  145.9159  132.6426  153.3726 H   0  0  0  0  0  0  0  0  0  0  0  0
  145.8581  134.8055  151.1960 H   0  0  0  0  0  0  0  0  0  0  0  0
  144.4753  133.9302  151.8014 H   0  0  0  0  0  0  0  0  0  0  0  0
  144.6647  136.2763  152.7480 H   0  0  0  0  0  0  0  0  0  0  0  0
  144.6365  135.0418  153.9815 H   0  0  0  0  0  0  0  0  0  0  0  0
  147.1194  136.5144  152.9584 H   0  0  0  0  0  0  0  0  0  0  0  0
  146.3928  136.6478  154.5485 H   0  0  0  0  0  0  0  0  0  0  0  0
  146.8212  134.2132  154.9435 H   0  0  0  0  0  0  0  0  0  0  0  0
  147.9737  134.4247  152.3102 H   0  0  0  0  0  0  0  0  0  0  0  0
  1  2  2  0  0  0  0
  2  3  1  0  0  0  0
  2 15  1  0  0  0  0
  3  4  1  0  0  0  0
  3 25  1  0  0  0  0
  4 14  1  0  0  0  0
  4  5  2  0  0  0  0
  5  6  1  0  0  0  0
  5 26  1  0  0  0  0
  6  7  2  0  0  0  0
  6 27  1  0  0  0  0
  7  8  1  0  0  0  0
  7 13  1  0  0  0  0
  8 12  1  0  0  0  0
  8  9  1  0  0  0  0
  9 10  1  0  0  0  0
  9 28  1  0  0  0  0
  9 29  1  0  0  0  0
 10 11  1  0  0  0  0
 10 30  1  0  0  0  0
 10 31  1  0  0  0  0
 11 12  1  0  0  0  0
 11 32  1  0  0  0  0
 11 33  1  0  0  0  0
 12 34  1  0  0  0  0
 12 35  1  0  0  0  0
 13 14  2  0  0  0  0
 14 36  1  0  0  0  0
 15 16  1  0  0  0  0
 15 37  1  0  0  0  0
 16 24  1  0  0  0  0
 16 17  1  0  0  0  0
 16 38  1  0  0  0  0
 17 18  1  0  0  0  0
 17 39  1  0  0  0  0
 17 40  1  0  0  0  0
 18 19  1  0  0  0  0
 18 41  1  0  0  0  0
 18 42  1  0  0  0  0
 19 24  1  0  0  0  0
 19 20  1  0  0  0  0
 19 52  1  0  0  0  0
 20 21  1  0  0  0  0
 20 43  1  0  0  0  0
 20 44  1  0  0  0  0
 21 22  1  0  0  0  0
 21 45  1  0  0  0  0
 21 46  1  0  0  0  0
 22 23  1  0  0  0  0
 22 47  1  0  0  0  0
 22 48  1  0  0  0  0
 23 24  1  0  0  0  0
 23 49  1  0  0  0  0
 23 50  1  0  0  0  0
 24 51  1  0  0  0  0
M  CHG  1  19   1
M  END
> <s_m_source_file>
AV-unprocessed.smi

> <i_m_source_file_index>
1867

> <i_lp_mmshare_version>
43012

> <i_f3d_flags>
0

> <s_epik_input>
W0NIMl0xW0NIMl1bQ0gyXVtDSDJdW0NASF0oTjEyKVtDQEBIXShbQ0gyXVtDSDJdMilbTkhdQyg9TylbTkhdYzNbY0hdW2NIXWMobltjSF0zKU40W0NIMl1bQ0gyXVtDSDJdW0NIMl00

> <s_epik_cmdline>
J2VwaWtfcHl0aG9uJywgJy1waCcsICc3LjAnLCAnLXRuJywgJzgnLCAnLW1hJywgJzIwMCcsICctbWV0YWxfYmluZGluZycsICctaW1hZScsICc8aW5maWxlLm1hZT4nLCAnLW9tYWUnLCAnPG91dGZpbGUubWFlPic=

> <r_lp_tautomer_probability>
1

> <r_epik_Ionization_Penalty>
0.0751123

> <r_epik_Ionization_Penalty_Charging>
0.000974069

> <r_epik_Ionization_Penalty_Neutral>
0.0741382

> <r_epik_State_Penalty>
0.0647261

> <r_epik_Charging_Adjusted_Penalty>
0.0657002

> <i_epik_Tot_Q>
1

> <i_epik_Tot_abs_Q>
1

> <r_epik_Metal_State_Penalty>
0.0580571

> <b_epik_Metal_Only>
0

> <s_lp_Force_Field>
OPLS_2005

> <r_lp_Energy>
77.2507

> <b_lp_Chiralities_Consistent>
1

> <s_lp_Variant>
AV-unprocessed.smi:1867-7

> <Gold.Version>
5.8.1

> <Gold.Id.Protein>
6NUR|6NUR_protein|mol2

> <Gold.PLP.Fitness>
47.6819

> <Gold.PLP.PLP>
-40.3160

> <Gold.PLP.part.hbond>
-2.0000

> <Gold.PLP.part.metal>
0.0000

> <Gold.PLP.part.buried>
-2.1526

> <Gold.PLP.part.nonpolar>
-35.4571

> <Gold.PLP.part.repulsive>
0.0431

> <Gold.PLP.ligand.clash>
0.0000

> <Gold.PLP.ligand.torsion>
0.2567

> <Gold.PLP.Chemscore.Hbond>
2.5714

> <Gold.PLP.Chemscore.CHOScore>
0.0000

> <Gold.PLP.Chemscore.Metal>
0.0000

> <Gold.Chemscore.Hbonds>
donor molecule, donor type, donor heavy atom, donor atom, acceptor molecule, acceptor atom, score
      L1  H    15    37       P1  7948  0.80
      L1  H    19    52       P1  7948  1.72

> <Gold.PLP.Chemscore.Internal.Correction>
0.1650

> <Gold.Rescore>
     Score         DG    S(hbond)    S(metal)    S(lipo)     H(rot)  DE(clash)    DE(int)     intcor
     18.87     -19.28       1.28        0.00     103.25       1.00       0.04       0.37       ----

> <Gold.Chemscore.Fitness>
18.8698

> <Gold.Chemscore.DG>
-19.2809

> <Gold.Chemscore.ZeroCoef>
-5.4800

> <Gold.Chemscore.Hbond>
1.2816

> <Gold.Chemscore.Metal>
0.0000

> <Gold.Chemscore.Lipo>
103.2523

> <Gold.Chemscore.Internal_Hbond>
0.0000

> <Gold.Chemscore.DEClash>
0.0392

> <Gold.Chemscore.DEInternal>
0.3719

> <Gold.Chemscore.Rot>
1.0000

> <Gold.Chemscore.Internal.Correction>
   9.000000E+99

> <Gold.Chemscore.Hbonds>
donor molecule, donor type, donor heavy atom, donor atom, acceptor molecule, acceptor atom, score
      L1  H    15    37       P1  7948  0.63
      L1  H    19    52       P1  7948  0.24

> <Gold.Chemscore.Hbond.Weighted>
-4.2804

> <Gold.Chemscore.Metal.Weighted>
-0.0000

> <Gold.Chemscore.Lipo.Weighted>
-12.0805

> <Gold.Chemscore.Internal_Hbond.Weighted>
0.0000

> <Gold.Chemscore.DEClash.Weighted>
0.0392

> <Gold.Chemscore.DEInternal.Weighted>
0.3719

> <Gold.Chemscore.Rot.Weighted>
2.5600

> <Gold.Chemscore.Internal.Correction.Weighted>
   9.000000E+99

> <Gold.Protein.RotatedTorsions>
[ 6907 6896 6895 6894 ] final -132.45 input  -60.11 | X-H torsion
[ 7974 7965 7964 7962 ] final -169.95 input  175.53 | X-H torsion
[ 8008 7997 7996 7995 ] final -137.16 input   59.86 | X-H torsion
[ 10167 10162 10161 10158 ] final   -6.80 input  -65.29 | X-H torsion
[ 10718 10713 10712 10709 ] final   51.15 input   66.30 | X-H torsion
[ 10763 10752 10751 10750 ] final -108.78 input  -60.55 | X-H torsion
[ 11005 11000 10999 10996 ] final   59.30 input  -57.11 | X-H torsion

> <Gold.Protein.ActiveResidues>
 VAL166  LYS551  ARG553  GLY616  TRP617  ASP618  TYR619  PRO620  LYS621  CYS622 
 ASP623  PHE694  ASN695  SER759  ASP760  ASP761  ALA762  ILE779  LEU786  VAL792 
 PHE793  MET794  SER795  GLU796  ALA797  LYS798  CYS799  TRP800  GLU811  SER814 

> <Gold.Protein.RotatedAtoms>
  150.9626  133.6429  159.2751 H   0  0  0  0  0  0  0  0  0  0  0  0  # atno 6907 bound_to 6896
  151.3746  135.0928  159.9486 H   0  0  0  0  0  0  0  0  0  0  0  0  # atno 6908 bound_to 6896
  152.5153  133.9173  159.7572 H   0  0  0  0  0  0  0  0  0  0  0  0  # atno 6909 bound_to 6896
  144.7177  140.2145  143.6323 H   0  0  0  0  0  0  0  0  0  0  0  0  # atno 7974 bound_to 7965
  155.4072  140.0510  157.3033 H   0  0  0  0  0  0  0  0  0  0  0  0  # atno 8008 bound_to 7997
  154.4963  140.2139  155.9400 H   0  0  0  0  0  0  0  0  0  0  0  0  # atno 8009 bound_to 7997
  156.1409  140.3154  155.8500 H   0  0  0  0  0  0  0  0  0  0  0  0  # atno 8010 bound_to 7997
  140.7008  143.6153  150.8665 H   0  0  0  0  0  0  0  0  0  0  0  0  # atno 10167 bound_to 10162
  157.4953  130.8402  149.8251 H   0  0  0  0  0  0  0  0  0  0  0  0  # atno 10718 bound_to 10713
  154.8155  135.4625  154.0632 H   0  0  0  0  0  0  0  0  0  0  0  0  # atno 10763 bound_to 10752
  153.2029  135.6871  153.8216 H   0  0  0  0  0  0  0  0  0  0  0  0  # atno 10764 bound_to 10752
  153.7694  135.3272  155.3326 H   0  0  0  0  0  0  0  0  0  0  0  0  # atno 10765 bound_to 10752
  140.0314  134.6006  155.9502 H   0  0  0  0  0  0  0  0  0  0  0  0  # atno 11005 bound_to 11000
  145.8560  139.2199  143.1744 LP  0  0  0  0  0  0  0  0  0  0  0  0  # atno 17320 bound_to 7965
  146.0217  140.8341  142.9920 LP  0  0  0  0  0  0  0  0  0  0  0  0  # atno 17321 bound_to 7965
  139.9875  143.5884  152.2922 LP  0  0  0  0  0  0  0  0  0  0  0  0  # atno 17342 bound_to 10162
  139.6527  144.7661  151.2117 LP  0  0  0  0  0  0  0  0  0  0  0  0  # atno 17343 bound_to 10162
  156.0197  130.3800  150.2001 LP  0  0  0  0  0  0  0  0  0  0  0  0  # atno 17370 bound_to 10713
  157.0190  130.9973  151.3345 LP  0  0  0  0  0  0  0  0  0  0  0  0  # atno 17371 bound_to 10713
  141.1833  133.6550  156.5111 LP  0  0  0  0  0  0  0  0  0  0  0  0  # atno 17394 bound_to 11000
  140.4219  134.7179  157.4894 LP  0  0  0  0  0  0  0  0  0  0  0  0  # atno 17395 bound_to 11000

$$$$
