AV-unprocessed.smi:3258|AV-procd|sdf|12469|dock7
  -GOLD-   2272018363D 1   1.00000     0.00000
 Structure written by MMmdl.
 38 39  0  0  0  0  0  0  0  0  1 V2000
  151.3792  137.4632  154.5616 C   0  0  0  0  0  0  0  0  0  0  0  0
  150.3351  137.5034  155.6886 C   0  0  1  0  0  0  0  0  0  0  0  0
  150.4703  136.2870  156.6249 C   0  0  0  0  0  0  0  0  0  0  0  0
  150.2652  135.0288  155.9286 N   0  0  0  0  0  0  0  0  0  0  0  0
  149.6732  134.8172  154.7012 C   0  0  0  0  0  0  0  0  0  0  0  0
  149.6969  133.4726  154.4652 C   0  0  0  0  0  0  0  0  0  0  0  0
  150.3339  132.9381  155.6201 C   0  0  0  0  0  0  0  0  0  0  0  0
  150.6734  133.8718  156.4941 N   0  0  0  0  0  0  0  0  0  0  0  0
  150.4730  138.7424  156.4517 N   0  0  0  0  0  0  0  0  0  0  0  0
  150.7190  139.9516  155.9292 C   0  0  0  0  0  0  0  0  0  0  0  0
  150.8843  140.1643  154.7279 O   0  0  0  0  0  0  0  0  0  0  0  0
  150.7676  140.8991  156.8759 N   0  0  0  0  0  0  0  0  0  0  0  0
  151.0294  142.3157  156.6419 C   0  0  0  0  0  0  0  0  0  0  0  0
  151.3110  143.0702  157.9547 C   0  0  2  0  0  0  0  0  0  0  0  0
  151.6573  144.5318  157.7590 C   0  0  0  0  0  0  0  0  0  0  0  0
  152.3085  144.8835  159.0932 C   0  0  0  0  0  0  0  0  0  0  0  0
  152.9371  143.6880  159.5462 O   0  0  0  0  0  0  0  0  0  0  0  0
  152.5353  142.5875  158.7359 C   0  0  0  0  0  0  0  0  0  0  0  0
  151.2823  136.5524  153.9703 H   0  0  0  0  0  0  0  0  0  0  0  0
  152.3940  137.4950  154.9599 H   0  0  0  0  0  0  0  0  0  0  0  0
  151.2608  138.3077  153.8822 H   0  0  0  0  0  0  0  0  0  0  0  0
  149.3433  137.4702  155.2335 H   0  0  0  0  0  0  0  0  0  0  0  0
  151.4678  136.2641  157.0657 H   0  0  0  0  0  0  0  0  0  0  0  0
  149.7657  136.3580  157.4553 H   0  0  0  0  0  0  0  0  0  0  0  0
  149.2863  135.6318  154.1067 H   0  0  0  0  0  0  0  0  0  0  0  0
  149.3167  132.9502  153.6000 H   0  0  0  0  0  0  0  0  0  0  0  0
  150.5576  131.9064  155.8478 H   0  0  0  0  0  0  0  0  0  0  0  0
  150.3492  138.6737  157.4513 H   0  0  0  0  0  0  0  0  0  0  0  0
  150.6150  140.6190  157.8338 H   0  0  0  0  0  0  0  0  0  0  0  0
  151.8512  142.4485  155.9359 H   0  0  0  0  0  0  0  0  0  0  0  0
  150.1463  142.7385  156.1625 H   0  0  0  0  0  0  0  0  0  0  0  0
  150.4348  143.0086  158.6026 H   0  0  0  0  0  0  0  0  0  0  0  0
  152.3795  144.6472  156.9494 H   0  0  0  0  0  0  0  0  0  0  0  0
  150.7897  145.1527  157.5341 H   0  0  0  0  0  0  0  0  0  0  0  0
  153.0232  145.7020  159.0047 H   0  0  0  0  0  0  0  0  0  0  0  0
  151.5506  145.1730  159.8221 H   0  0  0  0  0  0  0  0  0  0  0  0
  152.3250  141.7053  159.3408 H   0  0  0  0  0  0  0  0  0  0  0  0
  153.3550  142.3446  158.0583 H   0  0  0  0  0  0  0  0  0  0  0  0
  1  2  1  0  0  0  0
  1 19  1  0  0  0  0
  1 20  1  0  0  0  0
  1 21  1  0  0  0  0
  2  3  1  0  0  0  0
  2  9  1  0  0  0  0
  2 22  1  0  0  0  0
  3  4  1  0  0  0  0
  3 23  1  0  0  0  0
  3 24  1  0  0  0  0
  4  8  1  0  0  0  0
  4  5  1  0  0  0  0
  5  6  2  0  0  0  0
  5 25  1  0  0  0  0
  6  7  1  0  0  0  0
  6 26  1  0  0  0  0
  7  8  2  0  0  0  0
  7 27  1  0  0  0  0
  9 10  1  0  0  0  0
  9 28  1  0  0  0  0
 10 11  2  0  0  0  0
 10 12  1  0  0  0  0
 12 13  1  0  0  0  0
 12 29  1  0  0  0  0
 13 14  1  0  0  0  0
 13 30  1  0  0  0  0
 13 31  1  0  0  0  0
 14 18  1  0  0  0  0
 14 15  1  0  0  0  0
 14 32  1  0  0  0  0
 15 16  1  0  0  0  0
 15 33  1  0  0  0  0
 15 34  1  0  0  0  0
 16 17  1  0  0  0  0
 16 35  1  0  0  0  0
 16 36  1  0  0  0  0
 17 18  1  0  0  0  0
 18 37  1  0  0  0  0
 18 38  1  0  0  0  0
M  END
> <s_m_source_file>
AV-unprocessed.smi

> <i_m_source_file_index>
3258

> <i_lp_mmshare_version>
43012

> <i_f3d_flags>
0

> <s_epik_input>
bjFbY0hdW2NIXVtjSF1uMVtDSDJdW0NAQEhdKFtDSDNdKVtOSF1DKD1PKVtOSF1bQ0gyXVtDQEBIXTJbQ0gyXVtDSDJdT1tDSDJdMg==

> <s_epik_cmdline>
J2VwaWtfcHl0aG9uJywgJy1waCcsICc3LjAnLCAnLXRuJywgJzgnLCAnLW1hJywgJzIwMCcsICctbWV0YWxfYmluZGluZycsICctaW1hZScsICc8aW5maWxlLm1hZT4nLCAnLW9tYWUnLCAnPG91dGZpbGUubWFlPic=

> <r_lp_tautomer_probability>
1

> <r_epik_Ionization_Penalty>
6.85079e-05

> <r_epik_Ionization_Penalty_Charging>
0

> <r_epik_Ionization_Penalty_Neutral>
6.85079e-05

> <r_epik_State_Penalty>
-0

> <r_epik_Charging_Adjusted_Penalty>
0

> <i_epik_Tot_Q>
0

> <i_epik_Tot_abs_Q>
0

> <r_epik_Metal_State_Penalty>
-0

> <b_epik_Metal_Only>
0

> <s_lp_Force_Field>
OPLS_2005

> <r_lp_Energy>
17.05

> <b_lp_Chiralities_Consistent>
1

> <s_lp_Variant>
AV-unprocessed.smi:3258-2

> <Gold.Version>
5.8.1

> <Gold.Id.Protein>
6NUR|6NUR_protein|mol2

> <Gold.PLP.Fitness>
39.5669

> <Gold.PLP.PLP>
-34.6032

> <Gold.PLP.part.hbond>
-1.0000

> <Gold.PLP.part.metal>
0.0000

> <Gold.PLP.part.buried>
-5.9458

> <Gold.PLP.part.nonpolar>
-28.0956

> <Gold.PLP.part.repulsive>
0.1406

> <Gold.PLP.ligand.clash>
0.0000

> <Gold.PLP.ligand.torsion>
0.5448

> <Gold.PLP.Chemscore.Hbond>
1.0000

> <Gold.PLP.Chemscore.CHOScore>
1.0000

> <Gold.PLP.Chemscore.Metal>
0.0000

> <Gold.Chemscore.Hbonds>
donor molecule, donor type, donor heavy atom, donor atom, acceptor molecule, acceptor atom, score
      P1  H  7989  7998       L1    11  1.00
      L1  C     5    25       P1  7948  1.00

> <Gold.PLP.Chemscore.Internal.Correction>
0.0534

> <Gold.Rescore>
     Score         DG    S(hbond)    S(metal)    S(lipo)     H(rot)  DE(clash)    DE(int)     intcor
     12.44     -14.31       1.00        0.00      87.90       1.87       0.08       1.79       ----

> <Gold.Chemscore.Fitness>
12.4435

> <Gold.Chemscore.DG>
-14.3091

> <Gold.Chemscore.ZeroCoef>
-5.4800

> <Gold.Chemscore.Hbond>
0.9992

> <Gold.Chemscore.Metal>
0.0000

> <Gold.Chemscore.Lipo>
87.9048

> <Gold.Chemscore.Internal_Hbond>
0.0000

> <Gold.Chemscore.DEClash>
0.0798

> <Gold.Chemscore.DEInternal>
1.7857

> <Gold.Chemscore.Rot>
1.8724

> <Gold.Chemscore.Internal.Correction>
   9.000000E+99

> <Gold.Chemscore.Hbonds>
donor molecule, donor type, donor heavy atom, donor atom, acceptor molecule, acceptor atom, score
      P1  H  7989  7998       L1    11  0.99

> <Gold.Chemscore.Hbond.Weighted>
-3.3374

> <Gold.Chemscore.Metal.Weighted>
-0.0000

> <Gold.Chemscore.Lipo.Weighted>
-10.2849

> <Gold.Chemscore.Internal_Hbond.Weighted>
0.0000

> <Gold.Chemscore.DEClash.Weighted>
0.0798

> <Gold.Chemscore.DEInternal.Weighted>
1.7857

> <Gold.Chemscore.Rot.Weighted>
4.7933

> <Gold.Chemscore.Internal.Correction.Weighted>
   9.000000E+99

> <Gold.Protein.RotatedTorsions>
[ 6907 6896 6895 6894 ] final  137.28 input  -60.11 | X-H torsion
[ 7974 7965 7964 7962 ] final  146.26 input  175.53 | X-H torsion
[ 8008 7997 7996 7995 ] final  153.65 input   59.86 | X-H torsion
[ 10167 10162 10161 10158 ] final   56.85 input  -65.29 | X-H torsion
[ 10718 10713 10712 10709 ] final  139.69 input   66.30 | X-H torsion
[ 10763 10752 10751 10750 ] final -151.19 input  -60.55 | X-H torsion
[ 11005 11000 10999 10996 ] final  -89.80 input  -57.11 | X-H torsion

> <Gold.Protein.ActiveResidues>
 VAL166  LYS551  ARG553  GLY616  TRP617  ASP618  TYR619  PRO620  LYS621  CYS622 
 ASP623  PHE694  ASN695  SER759  ASP760  ASP761  ALA762  ILE779  LEU786  VAL792 
 PHE793  MET794  SER795  GLU796  ALA797  LYS798  CYS799  TRP800  GLU811  SER814 

> <Gold.Protein.RotatedAtoms>
  152.2799  133.5460  159.5490 H   0  0  0  0  0  0  0  0  0  0  0  0  # atno 6907 bound_to 6896
  150.7192  134.0579  159.3830 H   0  0  0  0  0  0  0  0  0  0  0  0  # atno 6908 bound_to 6896
  151.8490  135.0564  160.0507 H   0  0  0  0  0  0  0  0  0  0  0  0  # atno 6909 bound_to 6896
  144.8685  139.5884  143.5898 H   0  0  0  0  0  0  0  0  0  0  0  0  # atno 7974 bound_to 7965
  156.2571  140.1988  156.6523 H   0  0  0  0  0  0  0  0  0  0  0  0  # atno 8008 bound_to 7997
  154.6527  140.0570  156.9998 H   0  0  0  0  0  0  0  0  0  0  0  0  # atno 8009 bound_to 7997
  155.1394  140.3241  155.4458 H   0  0  0  0  0  0  0  0  0  0  0  0  # atno 8010 bound_to 7997
  140.2043  144.3956  150.6516 H   0  0  0  0  0  0  0  0  0  0  0  0  # atno 10167 bound_to 10162
  157.4116  131.1028  151.0448 H   0  0  0  0  0  0  0  0  0  0  0  0  # atno 10718 bound_to 10713
  154.8073  135.3266  154.7397 H   0  0  0  0  0  0  0  0  0  0  0  0  # atno 10763 bound_to 10752
  153.8053  135.6900  153.4853 H   0  0  0  0  0  0  0  0  0  0  0  0  # atno 10764 bound_to 10752
  153.1827  135.4580  154.9994 H   0  0  0  0  0  0  0  0  0  0  0  0  # atno 10765 bound_to 10752
  141.1578  133.7652  156.9646 H   0  0  0  0  0  0  0  0  0  0  0  0  # atno 11005 bound_to 11000
  146.2913  139.7148  142.9159 LP  0  0  0  0  0  0  0  0  0  0  0  0  # atno 17320 bound_to 7965
  145.4175  141.0403  143.2982 LP  0  0  0  0  0  0  0  0  0  0  0  0  # atno 17321 bound_to 7965
  140.6369  143.2196  151.6376 LP  0  0  0  0  0  0  0  0  0  0  0  0  # atno 17342 bound_to 10162
  139.5205  144.3222  152.0901 LP  0  0  0  0  0  0  0  0  0  0  0  0  # atno 17343 bound_to 10162
  157.1411  130.6143  149.5555 LP  0  0  0  0  0  0  0  0  0  0  0  0  # atno 17370 bound_to 10713
  155.9852  130.4881  150.7021 LP  0  0  0  0  0  0  0  0  0  0  0  0  # atno 17371 bound_to 10713
  140.1170  134.9441  157.2148 LP  0  0  0  0  0  0  0  0  0  0  0  0  # atno 17394 bound_to 11000
  140.3121  134.3012  155.7264 LP  0  0  0  0  0  0  0  0  0  0  0  0  # atno 17395 bound_to 11000

$$$$
