AV-unprocessed.smi:72|AV-procd|sdf|698|dock3
  -GOLD-   2262017 13D 1   1.00000     0.00000
 Structure written by MMmdl.
 30 31  0  0  0  0  0  0  0  0  2 V2000
  143.0703  139.8891  155.2644 N   0  0  0  0  0  0  0  0  0  0  0  0
  144.3734  139.8941  155.7163 C   0  0  0  0  0  0  0  0  0  0  0  0
  145.3785  140.0422  154.7772 N   0  3  0  0  0  0  0  0  0  0  0  0
  146.6897  140.0632  155.0504 C   0  0  0  0  0  0  0  0  0  0  0  0
  147.0857  139.9362  156.2996 N   0  0  0  0  0  0  0  0  0  0  0  0
  148.5527  139.9613  156.6409 C   0  0  1  0  0  0  0  0  0  0  0  0
  149.1740  138.9570  155.8978 O   0  0  0  0  0  0  0  0  0  0  0  0
  150.3677  139.4631  155.3106 C   0  0  1  0  0  0  0  0  0  0  0  0
  150.7921  138.6148  154.0985 C   0  0  0  0  0  0  0  0  0  0  0  0
  149.7155  138.4804  153.1958 O   0  0  0  0  0  0  0  0  0  0  0  0
  150.0567  140.9441  155.0530 C   0  0  1  0  0  0  0  0  0  0  0  0
  149.3379  141.1089  153.8414 O   0  0  0  0  0  0  0  0  0  0  0  0
  149.2207  141.3036  156.2757 C   0  0  1  0  0  0  0  0  0  0  0  0
  148.3445  142.3934  156.0422 O   0  0  0  0  0  0  0  0  0  0  0  0
  146.1279  139.7893  157.3360 C   0  0  0  0  0  0  0  0  0  0  0  0
  146.4840  139.6905  158.5093 O   0  0  0  0  0  0  0  0  0  0  0  0
  144.7794  139.7735  156.9500 N   0  0  0  0  0  0  0  0  0  0  0  0
  148.6383  139.7145  157.7000 H   0  0  0  0  0  0  0  0  0  0  0  0
  151.1442  139.4009  156.0756 H   0  0  0  0  0  0  0  0  0  0  0  0
  150.9647  141.5455  154.9953 H   0  0  0  0  0  0  0  0  0  0  0  0
  149.8856  141.5631  157.1007 H   0  0  0  0  0  0  0  0  0  0  0  0
  142.2737  139.7867  155.8775 H   0  0  0  0  0  0  0  0  0  0  0  0
  142.8074  139.9894  154.2944 H   0  0  0  0  0  0  0  0  0  0  0  0
  147.4028  140.1825  154.2451 H   0  0  0  0  0  0  0  0  0  0  0  0
  151.6177  139.1005  153.5779 H   0  0  0  0  0  0  0  0  0  0  0  0
  151.1452  137.6286  154.4000 H   0  0  0  0  0  0  0  0  0  0  0  0
  149.9592  138.8779  152.3735 H   0  0  0  0  0  0  0  0  0  0  0  0
  148.8198  140.3312  153.6965 H   0  0  0  0  0  0  0  0  0  0  0  0
  148.8577  143.1323  155.7527 H   0  0  0  0  0  0  0  0  0  0  0  0
  145.0985  140.1421  153.8120 H   0  0  0  0  0  0  0  0  0  0  0  0
  1  2  1  0  0  0  0
  1 22  1  0  0  0  0
  1 23  1  0  0  0  0
  2 17  2  0  0  0  0
  2  3  1  0  0  0  0
  3  4  2  0  0  0  0
  3 30  1  0  0  0  0
  4  5  1  0  0  0  0
  4 24  1  0  0  0  0
  5  6  1  0  0  0  0
  5 15  1  0  0  0  0
  6 18  1  0  0  0  0
  6 13  1  0  0  0  0
  6  7  1  0  0  0  0
  7  8  1  0  0  0  0
  8 19  1  0  0  0  0
  8  9  1  0  0  0  0
  8 11  1  0  0  0  0
  9 10  1  0  0  0  0
  9 25  1  0  0  0  0
  9 26  1  0  0  0  0
 10 27  1  0  0  0  0
 11 20  1  0  0  0  0
 11 12  1  0  0  0  0
 11 13  1  0  0  0  0
 12 28  1  0  0  0  0
 13 21  1  0  0  0  0
 13 14  1  0  0  0  0
 14 29  1  0  0  0  0
 15 16  2  0  0  0  0
 15 17  1  0  0  0  0
M  CHG  1   3   1
M  END
> <s_m_source_file>
AV-unprocessed.smi

> <i_m_source_file_index>
72

> <i_lp_mmshare_version>
43012

> <i_f3d_flags>
0

> <s_epik_input>
W05IMl1jMW5bY0hdbihjKD1PKW4xKVtDQEBIXTJPW0NASF0oW0NIMl1bT0hdKVtDQEBIXShbT0hdKVtDQEhdMltPSF0=

> <s_epik_cmdline>
J2VwaWtfcHl0aG9uJywgJy1waCcsICc3LjAnLCAnLXRuJywgJzgnLCAnLW1hJywgJzIwMCcsICctbWV0YWxfYmluZGluZycsICctaW1hZScsICc8aW5maWxlLm1hZT4nLCAnLW9tYWUnLCAnPG91dGZpbGUubWFlPic=

> <r_lp_tautomer_probability>
4.77166e-05

> <r_epik_Ionization_Penalty>
0.104979

> <r_epik_Ionization_Penalty_Charging>
0.0999619

> <r_epik_Ionization_Penalty_Neutral>
0.00501745

> <r_epik_State_Penalty>
2.51541

> <r_epik_Charging_Adjusted_Penalty>
2.61537

> <i_epik_Tot_Q>
1

> <i_epik_Tot_abs_Q>
1

> <r_epik_Metal_State_Penalty>
3.53763

> <b_epik_Metal_Only>
0

> <s_epik_Chemistry_Notes>
This compound contains an acetal/aminal-like group ( X-CH(R)-Y where X, Y are N, S, or O) that may be acid/base labile, releasing an aldehyde.

> <s_lp_Force_Field>
OPLS_2005

> <r_lp_Energy>
38.8596

> <b_lp_Chiralities_Consistent>
1

> <s_lp_Variant>
AV-unprocessed.smi:72-36

> <Gold.Version>
5.8.1

> <Gold.Id.Protein>
6NUR|6NUR_protein|mol2

> <Gold.PLP.Fitness>
35.8700

> <Gold.PLP.PLP>
-19.3091

> <Gold.PLP.part.hbond>
-8.5607

> <Gold.PLP.part.metal>
0.0000

> <Gold.PLP.part.buried>
-1.0723

> <Gold.PLP.part.nonpolar>
-8.5694

> <Gold.PLP.part.repulsive>
0.0231

> <Gold.PLP.ligand.clash>
0.0000

> <Gold.PLP.ligand.torsion>
0.0499

> <Gold.PLP.Chemscore.Hbond>
5.5452

> <Gold.PLP.Chemscore.CHOScore>
0.0000

> <Gold.PLP.Chemscore.Metal>
0.0000

> <Gold.Chemscore.Hbonds>
donor molecule, donor type, donor heavy atom, donor atom, acceptor molecule, acceptor atom, score
      L1  H     1    23       P1 10175  0.82
      L1  H     3    30       P1 10175  1.95
      L1  H    10    27       P1  7957  0.99
      L1  H    14    29       P1  8028  0.86
      P1  H  8011  8017       L1    12  0.87

> <Gold.PLP.Chemscore.Internal.Correction>
0.0252

> <Gold.Rescore>
     Score         DG    S(hbond)    S(metal)    S(lipo)     H(rot)  DE(clash)    DE(int)     intcor
     10.90     -11.79       4.07        0.00      27.05       4.08       0.08       0.81       ----

> <Gold.Chemscore.Fitness>
10.9011

> <Gold.Chemscore.DG>
-11.7864

> <Gold.Chemscore.ZeroCoef>
-5.4800

> <Gold.Chemscore.Hbond>
4.0665

> <Gold.Chemscore.Metal>
0.0000

> <Gold.Chemscore.Lipo>
27.0479

> <Gold.Chemscore.Internal_Hbond>
0.0000

> <Gold.Chemscore.DEClash>
0.0781

> <Gold.Chemscore.DEInternal>
0.8072

> <Gold.Chemscore.Rot>
4.0783

> <Gold.Chemscore.Internal.Correction>
   9.000000E+99

> <Gold.Chemscore.Hbonds>
donor molecule, donor type, donor heavy atom, donor atom, acceptor molecule, acceptor atom, score
      L1  H     1    23       P1 10175  0.77
      L1  H     3    30       P1 10175  0.91
      L1  H    10    27       P1  7957  0.32
      L1  H    14    29       P1  8028  0.83
      P1  H  8011  8017       L1    12  0.81

> <Gold.Chemscore.Hbond.Weighted>
-13.5822

> <Gold.Chemscore.Metal.Weighted>
-0.0000

> <Gold.Chemscore.Lipo.Weighted>
-3.1646

> <Gold.Chemscore.Internal_Hbond.Weighted>
0.0000

> <Gold.Chemscore.DEClash.Weighted>
0.0781

> <Gold.Chemscore.DEInternal.Weighted>
0.8072

> <Gold.Chemscore.Rot.Weighted>
10.4404

> <Gold.Chemscore.Internal.Correction.Weighted>
   9.000000E+99

> <Gold.Protein.RotatedTorsions>
[ 6907 6896 6895 6894 ] final  -12.48 input  -60.11 | X-H torsion
[ 7974 7965 7964 7962 ] final -164.21 input  175.53 | X-H torsion
[ 8008 7997 7996 7995 ] final -111.46 input   59.86 | X-H torsion
[ 10167 10162 10161 10158 ] final -103.70 input  -65.29 | X-H torsion
[ 10718 10713 10712 10709 ] final    5.48 input   66.30 | X-H torsion
[ 10763 10752 10751 10750 ] final   23.74 input  -60.55 | X-H torsion
[ 11005 11000 10999 10996 ] final  164.00 input  -57.11 | X-H torsion

> <Gold.Protein.ActiveResidues>
 VAL166  LYS551  ARG553  GLY616  TRP617  ASP618  TYR619  PRO620  LYS621  CYS622 
 ASP623  PHE694  ASN695  SER759  ASP760  ASP761  ALA762  ILE779  LEU786  VAL792 
 PHE793  MET794  SER795  GLU796  ALA797  LYS798  CYS799  TRP800  GLU811  SER814 

> <Gold.Protein.RotatedAtoms>
  151.3699  135.0920  159.9461 H   0  0  0  0  0  0  0  0  0  0  0  0  # atno 6907 bound_to 6896
  152.5138  133.9175  159.7528 H   0  0  0  0  0  0  0  0  0  0  0  0  # atno 6908 bound_to 6896
  150.9586  133.6415  159.2787 H   0  0  0  0  0  0  0  0  0  0  0  0  # atno 6909 bound_to 6896
  144.7303  140.2995  143.6207 H   0  0  0  0  0  0  0  0  0  0  0  0  # atno 7974 bound_to 7965
  154.9902  140.0395  157.2316 H   0  0  0  0  0  0  0  0  0  0  0  0  # atno 8008 bound_to 7997
  154.7635  140.2789  155.6172 H   0  0  0  0  0  0  0  0  0  0  0  0  # atno 8009 bound_to 7997
  156.2908  140.2624  156.2420 H   0  0  0  0  0  0  0  0  0  0  0  0  # atno 8010 bound_to 7997
  140.2171  143.3703  152.1001 H   0  0  0  0  0  0  0  0  0  0  0  0  # atno 10167 bound_to 10162
  156.9081  130.5746  149.5647 H   0  0  0  0  0  0  0  0  0  0  0  0  # atno 10718 bound_to 10713
  153.0816  135.6620  154.0034 H   0  0  0  0  0  0  0  0  0  0  0  0  # atno 10763 bound_to 10752
  153.9654  135.2970  155.3432 H   0  0  0  0  0  0  0  0  0  0  0  0  # atno 10764 bound_to 10752
  154.7216  135.5162  153.8893 H   0  0  0  0  0  0  0  0  0  0  0  0  # atno 10765 bound_to 10752
  140.2415  134.8047  157.3415 H   0  0  0  0  0  0  0  0  0  0  0  0  # atno 11005 bound_to 11000
  145.7775  139.1879  143.2177 LP  0  0  0  0  0  0  0  0  0  0  0  0  # atno 17320 bound_to 7965
  146.0861  140.7709  142.9618 LP  0  0  0  0  0  0  0  0  0  0  0  0  # atno 17321 bound_to 7965
  139.5158  144.6968  151.5608 LP  0  0  0  0  0  0  0  0  0  0  0  0  # atno 17342 bound_to 10162
  140.6282  143.9128  150.6582 LP  0  0  0  0  0  0  0  0  0  0  0  0  # atno 17343 bound_to 10162
  156.0549  130.5612  150.9070 LP  0  0  0  0  0  0  0  0  0  0  0  0  # atno 17370 bound_to 10713
  157.5984  131.0942  150.9001 LP  0  0  0  0  0  0  0  0  0  0  0  0  # atno 17371 bound_to 10713
  140.1649  134.4682  155.7870 LP  0  0  0  0  0  0  0  0  0  0  0  0  # atno 17394 bound_to 11000
  141.2210  133.6917  156.7607 LP  0  0  0  0  0  0  0  0  0  0  0  0  # atno 17395 bound_to 11000

$$$$
