AV-unprocessed.smi:2418|AV-procd|sdf|9550|dock6
  -GOLD-   2272013183D 1   1.00000     0.00000
 Structure written by MMmdl.
 34 35  0  0  0  0  0  0  0  0  1 V2000
  148.2675  138.1351  154.4918 C   0  0  0  0  0  0  0  0  0  0  0  0
  149.2982  139.0070  155.1867 C   0  0  0  0  0  0  0  0  0  0  0  0
  148.8083  140.1892  155.7489 N   0  0  0  0  0  0  0  0  0  0  0  0
  149.6138  140.9937  156.3611 C   0  0  0  0  0  0  0  0  0  0  0  0
  150.9857  140.7143  156.4838 N   0  0  0  0  0  0  0  0  0  0  0  0
  151.7938  141.7153  157.2019 C   0  0  0  0  0  0  0  0  0  0  0  0
  150.9522  142.5472  158.1955 C   0  0  2  0  0  0  0  0  0  0  0  0
  150.6358  143.7911  157.6011 O   0  0  0  0  0  0  0  0  0  0  0  0
  151.6968  142.7288  159.5124 C   0  0  0  0  0  0  0  0  0  0  0  0
  152.7376  141.8442  159.8761 C   0  0  0  0  0  0  0  0  0  0  0  0
  153.4167  142.0073  161.0989 C   0  0  0  0  0  0  0  0  0  0  0  0
  154.4136  141.1562  161.4382 F   0  0  0  0  0  0  0  0  0  0  0  0
  153.0584  143.0536  161.9695 C   0  0  0  0  0  0  0  0  0  0  0  0
  152.0174  143.9337  161.6179 C   0  0  0  0  0  0  0  0  0  0  0  0
  151.3359  143.7718  160.3957 C   0  0  0  0  0  0  0  0  0  0  0  0
  150.3292  144.6216  160.0796 F   0  0  0  0  0  0  0  0  0  0  0  0
  151.5462  139.5855  155.9614 C   0  0  0  0  0  0  0  0  0  0  0  0
  152.7509  139.3495  156.0693 O   0  0  0  0  0  0  0  0  0  0  0  0
  150.6167  138.6790  155.2675 C   0  0  0  0  0  0  0  0  0  0  0  0
  151.2064  137.4057  154.6735 C   0  0  0  0  0  0  0  0  0  0  0  0
  148.5199  138.0114  153.4385 H   0  0  0  0  0  0  0  0  0  0  0  0
  147.2716  138.5763  154.5474 H   0  0  0  0  0  0  0  0  0  0  0  0
  148.2217  137.1509  154.9589 H   0  0  0  0  0  0  0  0  0  0  0  0
  149.2844  141.9317  156.8119 H   0  0  0  0  0  0  0  0  0  0  0  0
  152.5766  141.1889  157.7524 H   0  0  0  0  0  0  0  0  0  0  0  0
  152.3430  142.3691  156.5217 H   0  0  0  0  0  0  0  0  0  0  0  0
  150.0073  142.0428  158.3997 H   0  0  0  0  0  0  0  0  0  0  0  0
  149.8055  143.7097  157.1573 H   0  0  0  0  0  0  0  0  0  0  0  0
  153.0180  141.0333  159.2196 H   0  0  0  0  0  0  0  0  0  0  0  0
  153.5789  143.1789  162.9075 H   0  0  0  0  0  0  0  0  0  0  0  0
  151.7389  144.7334  162.2884 H   0  0  0  0  0  0  0  0  0  0  0  0
  151.6730  136.8071  155.4566 H   0  0  0  0  0  0  0  0  0  0  0  0
  151.9697  137.6531  153.9349 H   0  0  0  0  0  0  0  0  0  0  0  0
  150.4658  136.7783  154.1806 H   0  0  0  0  0  0  0  0  0  0  0  0
  1  2  1  0  0  0  0
  1 21  1  0  0  0  0
  1 22  1  0  0  0  0
  1 23  1  0  0  0  0
  2 19  2  0  0  0  0
  2  3  1  0  0  0  0
  3  4  2  0  0  0  0
  4  5  1  0  0  0  0
  4 24  1  0  0  0  0
  5  6  1  0  0  0  0
  5 17  1  0  0  0  0
  6  7  1  0  0  0  0
  6 25  1  0  0  0  0
  6 26  1  0  0  0  0
  7  8  1  0  0  0  0
  7  9  1  0  0  0  0
  7 27  1  0  0  0  0
  8 28  1  0  0  0  0
  9 15  1  0  0  0  0
  9 10  2  0  0  0  0
 10 11  1  0  0  0  0
 10 29  1  0  0  0  0
 11 12  1  0  0  0  0
 11 13  2  0  0  0  0
 13 14  1  0  0  0  0
 13 30  1  0  0  0  0
 14 15  2  0  0  0  0
 14 31  1  0  0  0  0
 15 16  1  0  0  0  0
 17 18  2  0  0  0  0
 17 19  1  0  0  0  0
 19 20  1  0  0  0  0
 20 32  1  0  0  0  0
 20 33  1  0  0  0  0
 20 34  1  0  0  0  0
M  END
> <s_m_source_file>
AV-unprocessed.smi

> <i_m_source_file_index>
2418

> <i_lp_mmshare_version>
43012

> <i_f3d_flags>
0

> <s_epik_input>
W0NIM11jMW5bY0hdbihjKD1PKWMxW0NIM10pW0NIMl1bQ0BIXShbT0hdKWMyW2NIXWMoRilbY0hdW2NIXWMyRg==

> <s_epik_cmdline>
J2VwaWtfcHl0aG9uJywgJy1waCcsICc3LjAnLCAnLXRuJywgJzgnLCAnLW1hJywgJzIwMCcsICctbWV0YWxfYmluZGluZycsICctaW1hZScsICc8aW5maWxlLm1hZT4nLCAnLW9tYWUnLCAnPG91dGZpbGUubWFlPic=

> <r_lp_tautomer_probability>
1

> <r_epik_Ionization_Penalty>
5.08222e-05

> <r_epik_Ionization_Penalty_Charging>
7.56727e-08

> <r_epik_Ionization_Penalty_Neutral>
5.07465e-05

> <r_epik_State_Penalty>
-0

> <r_epik_Charging_Adjusted_Penalty>
7.56727e-08

> <i_epik_Tot_Q>
0

> <i_epik_Tot_abs_Q>
0

> <r_epik_Metal_State_Penalty>
-0

> <b_epik_Metal_Only>
0

> <s_lp_Force_Field>
OPLS_2005

> <r_lp_Energy>
19.2488

> <b_lp_Chiralities_Consistent>
1

> <s_lp_Variant>
AV-unprocessed.smi:2418-1

> <Gold.Version>
5.8.1

> <Gold.Id.Protein>
6NUR|6NUR_protein|mol2

> <Gold.PLP.Fitness>
54.3071

> <Gold.PLP.PLP>
-48.3629

> <Gold.PLP.part.hbond>
-2.0000

> <Gold.PLP.part.metal>
0.0000

> <Gold.PLP.part.buried>
-6.7173

> <Gold.PLP.part.nonpolar>
-38.6625

> <Gold.PLP.part.repulsive>
0.1067

> <Gold.PLP.ligand.clash>
0.0000

> <Gold.PLP.ligand.torsion>
1.5338

> <Gold.PLP.Chemscore.Hbond>
2.0000

> <Gold.PLP.Chemscore.CHOScore>
1.0000

> <Gold.PLP.Chemscore.Metal>
0.0000

> <Gold.Chemscore.Hbonds>
donor molecule, donor type, donor heavy atom, donor atom, acceptor molecule, acceptor atom, score
      L1  H     8    28       P1  8028  0.69
      P1  H  7997  8010       L1    18  1.00

> <Gold.PLP.Chemscore.Internal.Correction>
0.0120

> <Gold.Rescore>
     Score         DG    S(hbond)    S(metal)    S(lipo)     H(rot)  DE(clash)    DE(int)     intcor
     16.01     -20.02       1.99        0.00     113.69       2.11       1.75       2.26       ----

> <Gold.Chemscore.Fitness>
16.0070

> <Gold.Chemscore.DG>
-20.0201

> <Gold.Chemscore.ZeroCoef>
-5.4800

> <Gold.Chemscore.Hbond>
1.9879

> <Gold.Chemscore.Metal>
0.0000

> <Gold.Chemscore.Lipo>
113.6872

> <Gold.Chemscore.Internal_Hbond>
0.0000

> <Gold.Chemscore.DEClash>
1.7503

> <Gold.Chemscore.DEInternal>
2.2627

> <Gold.Chemscore.Rot>
2.1097

> <Gold.Chemscore.Internal.Correction>
   9.000000E+99

> <Gold.Chemscore.Hbonds>
donor molecule, donor type, donor heavy atom, donor atom, acceptor molecule, acceptor atom, score
      L1  H     8    28       P1  8028  0.59
      P1  H  7997  8010       L1    18  1.00

> <Gold.Chemscore.Hbond.Weighted>
-6.6396

> <Gold.Chemscore.Metal.Weighted>
-0.0000

> <Gold.Chemscore.Lipo.Weighted>
-13.3014

> <Gold.Chemscore.Internal_Hbond.Weighted>
0.0000

> <Gold.Chemscore.DEClash.Weighted>
1.7503

> <Gold.Chemscore.DEInternal.Weighted>
2.2627

> <Gold.Chemscore.Rot.Weighted>
5.4009

> <Gold.Chemscore.Internal.Correction.Weighted>
   9.000000E+99

> <Gold.Protein.RotatedTorsions>
[ 6907 6896 6895 6894 ] final  -44.06 input  -60.11 | X-H torsion
[ 7974 7965 7964 7962 ] final -109.38 input  175.53 | X-H torsion
[ 8008 7997 7996 7995 ] final   80.81 input   59.86 | X-H torsion
[ 10167 10162 10161 10158 ] final  113.10 input  -65.29 | X-H torsion
[ 10718 10713 10712 10709 ] final   58.62 input   66.30 | X-H torsion
[ 10763 10752 10751 10750 ] final  -24.10 input  -60.55 | X-H torsion
[ 11005 11000 10999 10996 ] final -159.48 input  -57.11 | X-H torsion

> <Gold.Protein.ActiveResidues>
 VAL166  LYS551  ARG553  GLY616  TRP617  ASP618  TYR619  PRO620  LYS621  CYS622 
 ASP623  PHE694  ASN695  SER759  ASP760  ASP761  ALA762  ILE779  LEU786  VAL792 
 PHE793  MET794  SER795  GLU796  ALA797  LYS798  CYS799  TRP800  GLU811  SER814 

> <Gold.Protein.RotatedAtoms>
  150.9371  134.8782  159.7587 H   0  0  0  0  0  0  0  0  0  0  0  0  # atno 6907 bound_to 6896
  152.5064  134.3996  159.9422 H   0  0  0  0  0  0  0  0  0  0  0  0  # atno 6908 bound_to 6896
  151.4019  133.3715  159.2768 H   0  0  0  0  0  0  0  0  0  0  0  0  # atno 6909 bound_to 6896
  145.1813  140.8972  143.3478 H   0  0  0  0  0  0  0  0  0  0  0  0  # atno 7974 bound_to 7965
  155.8885  140.3440  155.5939 H   0  0  0  0  0  0  0  0  0  0  0  0  # atno 8008 bound_to 7997
  155.7638  140.0836  157.2161 H   0  0  0  0  0  0  0  0  0  0  0  0  # atno 8009 bound_to 7997
  154.4031  140.1531  156.2850 H   0  0  0  0  0  0  0  0  0  0  0  0  # atno 8010 bound_to 7997
  139.6486  144.7127  151.2092 H   0  0  0  0  0  0  0  0  0  0  0  0  # atno 10167 bound_to 10162
  157.5610  130.8836  149.9112 H   0  0  0  0  0  0  0  0  0  0  0  0  # atno 10718 bound_to 10713
  153.6784  135.6968  153.5125 H   0  0  0  0  0  0  0  0  0  0  0  0  # atno 10763 bound_to 10752
  153.2504  135.4277  155.0790 H   0  0  0  0  0  0  0  0  0  0  0  0  # atno 10764 bound_to 10752
  154.8407  135.3530  154.6327 H   0  0  0  0  0  0  0  0  0  0  0  0  # atno 10765 bound_to 10752
  140.6421  134.4541  157.5233 H   0  0  0  0  0  0  0  0  0  0  0  0  # atno 11005 bound_to 11000
  145.0133  139.3490  143.6109 LP  0  0  0  0  0  0  0  0  0  0  0  0  # atno 17320 bound_to 7965
  146.3452  139.9405  142.8741 LP  0  0  0  0  0  0  0  0  0  0  0  0  # atno 17321 bound_to 7965
  140.7527  143.6188  150.8533 LP  0  0  0  0  0  0  0  0  0  0  0  0  # atno 17342 bound_to 10162
  139.9834  143.5926  152.2935 LP  0  0  0  0  0  0  0  0  0  0  0  0  # atno 17343 bound_to 10162
  156.0663  130.3692  150.0872 LP  0  0  0  0  0  0  0  0  0  0  0  0  # atno 17370 bound_to 10713
  156.9035  130.9628  151.3573 LP  0  0  0  0  0  0  0  0  0  0  0  0  # atno 17371 bound_to 10713
  139.9076  134.8414  156.1646 LP  0  0  0  0  0  0  0  0  0  0  0  0  # atno 17394 bound_to 11000
  141.0599  133.6846  156.1933 LP  0  0  0  0  0  0  0  0  0  0  0  0  # atno 17395 bound_to 11000

$$$$
