AV-unprocessed.smi:1912|AV-procd|sdf|7751|dock9
  -GOLD-   22720 9493D 1   1.00000     0.00000
 Structure written by MMmdl.
 44 46  0  0  0  0  0  0  0  0  2 V2000
  146.6057  142.2972  154.3631 C   0  0  0  0  0  0  0  0  0  0  0  0
  147.2876  142.2276  155.6071 O   0  0  0  0  0  0  0  0  0  0  0  0
  148.4867  141.5499  155.6517 C   0  0  0  0  0  0  0  0  0  0  0  0
  149.0412  140.8398  154.5615 C   0  0  0  0  0  0  0  0  0  0  0  0
  150.2667  140.1632  154.7006 C   0  0  0  0  0  0  0  0  0  0  0  0
  150.9683  140.1755  155.9317 C   0  0  0  0  0  0  0  0  0  0  0  0
  152.1594  139.5078  156.1326 O   0  0  0  0  0  0  0  0  0  0  0  0
  152.7532  138.8360  155.0313 C   0  0  0  0  0  0  0  0  0  0  0  0
  150.4204  140.8922  157.0232 C   0  0  0  0  0  0  0  0  0  0  0  0
  151.1378  140.9001  158.3727 C   0  0  1  0  0  0  0  0  0  0  0  0
  151.5464  139.6124  158.7924 O   0  0  0  0  0  0  0  0  0  0  0  0
  152.3420  141.8702  158.3991 C   0  0  0  0  0  0  0  0  0  0  0  0
  152.3835  142.7395  159.5907 N   0  0  0  0  0  0  0  0  0  0  0  0
  151.8764  143.9919  159.7890 C   0  0  0  0  0  0  0  0  0  0  0  0
  151.1329  144.8333  158.8054 C   0  0  0  0  0  0  0  0  0  0  0  0
  152.1641  144.3461  161.0725 N   0  3  0  0  0  0  0  0  0  0  0  0
  152.8668  143.3189  161.7014 C   0  0  0  0  0  0  0  0  0  0  0  0
  153.3632  143.2183  162.9974 C   0  0  0  0  0  0  0  0  0  0  0  0
  154.0387  142.0247  163.3255 C   0  0  0  0  0  0  0  0  0  0  0  0
  154.2040  140.9921  162.3801 C   0  0  0  0  0  0  0  0  0  0  0  0
  153.7002  141.1084  161.0682 C   0  0  0  0  0  0  0  0  0  0  0  0
  153.0238  142.2876  160.7529 C   0  0  0  0  0  0  0  0  0  0  0  0
  149.1895  141.5706  156.8709 C   0  0  0  0  0  0  0  0  0  0  0  0
  145.6818  142.8610  154.4906 H   0  0  0  0  0  0  0  0  0  0  0  0
  146.3383  141.3043  153.9988 H   0  0  0  0  0  0  0  0  0  0  0  0
  147.2033  142.8103  153.6084 H   0  0  0  0  0  0  0  0  0  0  0  0
  148.5430  140.7940  153.6051 H   0  0  0  0  0  0  0  0  0  0  0  0
  150.6448  139.6319  153.8408 H   0  0  0  0  0  0  0  0  0  0  0  0
  153.6834  138.3697  155.3552 H   0  0  0  0  0  0  0  0  0  0  0  0
  152.9962  139.5302  154.2255 H   0  0  0  0  0  0  0  0  0  0  0  0
  152.1056  138.0467  154.6475 H   0  0  0  0  0  0  0  0  0  0  0  0
  150.4255  141.2295  159.1296 H   0  0  0  0  0  0  0  0  0  0  0  0
  151.7354  139.6464  159.7179 H   0  0  0  0  0  0  0  0  0  0  0  0
  153.2834  141.3269  158.3165 H   0  0  0  0  0  0  0  0  0  0  0  0
  152.3052  142.5221  157.5260 H   0  0  0  0  0  0  0  0  0  0  0  0
  151.2406  145.8898  159.0518 H   0  0  0  0  0  0  0  0  0  0  0  0
  150.0726  144.5815  158.8224 H   0  0  0  0  0  0  0  0  0  0  0  0
  151.5136  144.6776  157.7963 H   0  0  0  0  0  0  0  0  0  0  0  0
  153.2387  144.0091  163.7222 H   0  0  0  0  0  0  0  0  0  0  0  0
  154.4383  141.8996  164.3213 H   0  0  0  0  0  0  0  0  0  0  0  0
  154.7270  140.0912  162.6669 H   0  0  0  0  0  0  0  0  0  0  0  0
  153.8301  140.3074  160.3564 H   0  0  0  0  0  0  0  0  0  0  0  0
  148.7592  142.1032  157.7064 H   0  0  0  0  0  0  0  0  0  0  0  0
  151.8955  145.2292  161.4869 H   0  0  0  0  0  0  0  0  0  0  0  0
  1  2  1  0  0  0  0
  1 24  1  0  0  0  0
  1 25  1  0  0  0  0
  1 26  1  0  0  0  0
  2  3  1  0  0  0  0
  3 23  1  0  0  0  0
  3  4  2  0  0  0  0
  4  5  1  0  0  0  0
  4 27  1  0  0  0  0
  5  6  2  0  0  0  0
  5 28  1  0  0  0  0
  6  7  1  0  0  0  0
  6  9  1  0  0  0  0
  7  8  1  0  0  0  0
  8 29  1  0  0  0  0
  8 30  1  0  0  0  0
  8 31  1  0  0  0  0
  9 10  1  0  0  0  0
  9 23  2  0  0  0  0
 10 11  1  0  0  0  0
 10 12  1  0  0  0  0
 10 32  1  0  0  0  0
 11 33  1  0  0  0  0
 12 13  1  0  0  0  0
 12 34  1  0  0  0  0
 12 35  1  0  0  0  0
 13 22  1  0  0  0  0
 13 14  1  0  0  0  0
 14 15  1  0  0  0  0
 14 16  2  0  0  0  0
 15 36  1  0  0  0  0
 15 37  1  0  0  0  0
 15 38  1  0  0  0  0
 16 17  1  0  0  0  0
 16 44  1  0  0  0  0
 17 22  2  0  0  0  0
 17 18  1  0  0  0  0
 18 19  2  0  0  0  0
 18 39  1  0  0  0  0
 19 20  1  0  0  0  0
 19 40  1  0  0  0  0
 20 21  2  0  0  0  0
 20 41  1  0  0  0  0
 21 22  1  0  0  0  0
 21 42  1  0  0  0  0
 23 43  1  0  0  0  0
M  CHG  1  16   1
M  END
> <s_m_source_file>
AV-unprocessed.smi

> <i_m_source_file_index>
1912

> <i_lp_mmshare_version>
43012

> <i_f3d_flags>
0

> <s_epik_input>
W0NIM11PYzFbY0hdW2NIXWMoT1tDSDNdKWMoW2NIXTEpW0NASF0oW09IXSlbQ0gyXW4oYyhuMilbQ0gzXSljKGMyMylbY0hdW2NIXVtjSF1bY0hdMw==

> <s_epik_cmdline>
J2VwaWtfcHl0aG9uJywgJy1waCcsICc3LjAnLCAnLXRuJywgJzgnLCAnLW1hJywgJzIwMCcsICctbWV0YWxfYmluZGluZycsICctaW1hZScsICc8aW5maWxlLm1hZT4nLCAnLW9tYWUnLCAnPG91dGZpbGUubWFlPic=

> <r_lp_tautomer_probability>
1

> <r_epik_Ionization_Penalty>
0.963869

> <r_epik_Ionization_Penalty_Charging>
0.963868

> <r_epik_Ionization_Penalty_Neutral>
1.34362e-06

> <r_epik_State_Penalty>
1.00924

> <r_epik_Charging_Adjusted_Penalty>
1.9731

> <i_epik_Tot_Q>
1

> <i_epik_Tot_abs_Q>
1

> <r_epik_Metal_State_Penalty>
4.98304

> <b_epik_Metal_Only>
0

> <s_lp_Force_Field>
OPLS_2005

> <r_lp_Energy>
21.1539

> <b_lp_Chiralities_Consistent>
1

> <s_lp_Variant>
AV-unprocessed.smi:1912-4

> <Gold.Version>
5.8.1

> <Gold.Id.Protein>
6NUR|6NUR_protein|mol2

> <Gold.PLP.Fitness>
51.1832

> <Gold.PLP.PLP>
-53.8793

> <Gold.PLP.part.hbond>
-0.4688

> <Gold.PLP.part.metal>
0.0000

> <Gold.PLP.part.buried>
-3.2483

> <Gold.PLP.part.nonpolar>
-50.3731

> <Gold.PLP.part.repulsive>
0.6031

> <Gold.PLP.ligand.clash>
0.0000

> <Gold.PLP.ligand.torsion>
1.3822

> <Gold.PLP.Chemscore.Hbond>
0.0000

> <Gold.PLP.Chemscore.CHOScore>
0.0000

> <Gold.PLP.Chemscore.Metal>
0.0000

> <Gold.Chemscore.Hbonds>
donor molecule, donor type, donor heavy atom, donor atom, acceptor molecule, acceptor atom, score
      P1  H  7997  8008       L1     7  0.04

> <Gold.PLP.Chemscore.Internal.Correction>
0.0685

> <Gold.Rescore>
     Score         DG    S(hbond)    S(metal)    S(lipo)     H(rot)  DE(clash)    DE(int)     intcor
     14.84     -16.36       0.00        0.00     142.10       2.24       0.15       1.37       ----

> <Gold.Chemscore.Fitness>
14.8429

> <Gold.Chemscore.DG>
-16.3588

> <Gold.Chemscore.ZeroCoef>
-5.4800

> <Gold.Chemscore.Hbond>
0.0000

> <Gold.Chemscore.Metal>
0.0000

> <Gold.Chemscore.Lipo>
142.0989

> <Gold.Chemscore.Internal_Hbond>
0.0000

> <Gold.Chemscore.DEClash>
0.1487

> <Gold.Chemscore.DEInternal>
1.3673

> <Gold.Chemscore.Rot>
2.2448

> <Gold.Chemscore.Internal.Correction>
   9.000000E+99

> <Gold.Chemscore.Hbond.Weighted>
-0.0000

> <Gold.Chemscore.Metal.Weighted>
-0.0000

> <Gold.Chemscore.Lipo.Weighted>
-16.6256

> <Gold.Chemscore.Internal_Hbond.Weighted>
0.0000

> <Gold.Chemscore.DEClash.Weighted>
0.1487

> <Gold.Chemscore.DEInternal.Weighted>
1.3673

> <Gold.Chemscore.Rot.Weighted>
5.7467

> <Gold.Chemscore.Internal.Correction.Weighted>
   9.000000E+99

> <Gold.Protein.RotatedTorsions>
[ 6907 6896 6895 6894 ] final   36.59 input  -60.11 | X-H torsion
[ 7974 7965 7964 7962 ] final   22.69 input  175.53 | X-H torsion
[ 8008 7997 7996 7995 ] final  -59.75 input   59.86 | X-H torsion
[ 10167 10162 10161 10158 ] final   83.46 input  -65.29 | X-H torsion
[ 10718 10713 10712 10709 ] final  124.04 input   66.30 | X-H torsion
[ 10763 10752 10751 10750 ] final  -24.78 input  -60.55 | X-H torsion
[ 11005 11000 10999 10996 ] final  -41.95 input  -57.11 | X-H torsion

> <Gold.Protein.ActiveResidues>
 VAL166  LYS551  ARG553  GLY616  TRP617  ASP618  TYR619  PRO620  LYS621  CYS622 
 ASP623  PHE694  ASN695  SER759  ASP760  ASP761  ALA762  ILE779  LEU786  VAL792 
 PHE793  MET794  SER795  GLU796  ALA797  LYS798  CYS799  TRP800  GLU811  SER814 

> <Gold.Protein.RotatedAtoms>
  152.1317  134.9129  160.0558 H   0  0  0  0  0  0  0  0  0  0  0  0  # atno 6907 bound_to 6896
  152.0231  133.3902  159.4274 H   0  0  0  0  0  0  0  0  0  0  0  0  # atno 6908 bound_to 6896
  150.6857  134.3525  159.4959 H   0  0  0  0  0  0  0  0  0  0  0  0  # atno 6909 bound_to 6896
  146.2018  139.7850  142.8756 H   0  0  0  0  0  0  0  0  0  0  0  0  # atno 7974 bound_to 7965
  154.4366  140.1055  156.6164 H   0  0  0  0  0  0  0  0  0  0  0  0  # atno 8008 bound_to 7997
  155.5754  140.3490  155.4507 H   0  0  0  0  0  0  0  0  0  0  0  0  # atno 8009 bound_to 7997
  156.0358  140.1271  157.0198 H   0  0  0  0  0  0  0  0  0  0  0  0  # atno 8010 bound_to 7997
  139.9182  144.6229  150.8467 H   0  0  0  0  0  0  0  0  0  0  0  0  # atno 10167 bound_to 10162
  157.5617  131.1089  150.8527 H   0  0  0  0  0  0  0  0  0  0  0  0  # atno 10718 bound_to 10713
  153.6893  135.6962  153.5094 H   0  0  0  0  0  0  0  0  0  0  0  0  # atno 10763 bound_to 10752
  153.2425  135.4301  155.0712 H   0  0  0  0  0  0  0  0  0  0  0  0  # atno 10764 bound_to 10752
  154.8377  135.3511  154.6435 H   0  0  0  0  0  0  0  0  0  0  0  0  # atno 10765 bound_to 10752
  141.0282  133.6832  156.2527 H   0  0  0  0  0  0  0  0  0  0  0  0  # atno 11005 bound_to 11000
  145.3459  141.0297  143.3366 LP  0  0  0  0  0  0  0  0  0  0  0  0  # atno 17320 bound_to 7965
  144.8700  139.5052  143.6772 LP  0  0  0  0  0  0  0  0  0  0  0  0  # atno 17321 bound_to 7965
  140.7669  143.3316  151.2398 LP  0  0  0  0  0  0  0  0  0  0  0  0  # atno 17342 bound_to 10162
  139.6884  143.9734  152.2846 LP  0  0  0  0  0  0  0  0  0  0  0  0  # atno 17343 bound_to 10162
  156.9023  130.5251  149.5282 LP  0  0  0  0  0  0  0  0  0  0  0  0  # atno 17370 bound_to 10713
  156.0669  130.5710  150.9306 LP  0  0  0  0  0  0  0  0  0  0  0  0  # atno 17371 bound_to 10713
  140.6454  134.5122  157.5573 LP  0  0  0  0  0  0  0  0  0  0  0  0  # atno 17394 bound_to 11000
  139.9190  134.8188  156.1273 LP  0  0  0  0  0  0  0  0  0  0  0  0  # atno 17395 bound_to 11000

$$$$
