AV-unprocessed.smi:1617|AV-procd|sdf|6485|dock10
  -GOLD-   22720 7143D 1   1.00000     0.00000
 Structure written by MMmdl.
 47 49  0  0  0  0  0  0  0  0  1 V2000
  149.1059  135.2617  156.2229 O   0  0  0  0  0  0  0  0  0  0  0  0
  149.1406  135.5072  155.0173 C   0  0  0  0  0  0  0  0  0  0  0  0
  149.5587  136.6608  154.4694 N   0  0  0  0  0  0  0  0  0  0  0  0
  150.0726  137.8144  155.1205 C   0  0  0  0  0  0  0  0  0  0  0  0
  150.1321  137.8091  156.5272 C   0  0  0  0  0  0  0  0  0  0  0  0
  150.6213  138.9440  157.2007 C   0  0  0  0  0  0  0  0  0  0  0  0
  151.0342  140.0683  156.4481 C   0  0  0  0  0  0  0  0  0  0  0  0
  151.5307  141.2171  157.1015 N   0  0  0  0  0  0  0  0  0  0  0  0
  150.7914  142.4533  156.8580 C   0  0  0  0  0  0  0  0  0  0  0  0
  151.5953  143.6657  157.3592 C   0  0  0  0  0  0  0  0  0  0  0  0
  151.9364  143.4860  158.7297 O   0  0  0  0  0  0  0  0  0  0  0  0
  152.7522  142.3356  158.9251 C   0  0  0  0  0  0  0  0  0  0  0  0
  151.9868  141.0770  158.4834 C   0  0  0  0  0  0  0  0  0  0  0  0
  150.9558  140.0811  155.0948 N   0  0  0  0  0  0  0  0  0  0  0  0
  150.4896  138.9895  154.4519 C   0  0  0  0  0  0  0  0  0  0  0  0
  148.7399  134.6414  154.0742 N   0  0  0  0  0  0  0  0  0  0  0  0
  148.2430  133.2859  154.3219 C   0  0  1  0  0  0  0  0  0  0  0  0
  147.9881  132.6234  152.9486 C   0  0  0  0  0  0  0  0  0  0  0  0
  146.9916  131.4522  153.0003 C   0  0  0  0  0  0  0  0  0  0  0  0
  147.4630  130.2343  153.8090 C   0  0  0  0  0  0  0  0  0  0  0  0
  147.6935  130.5332  155.3003 C   0  0  0  0  0  0  0  0  0  0  0  0
  148.9525  131.2285  155.5324 N   0  0  0  0  0  0  0  0  0  0  0  0
  149.2881  132.4540  155.1015 C   0  0  0  0  0  0  0  0  0  0  0  0
  150.4131  132.9030  155.3205 O   0  0  0  0  0  0  0  0  0  0  0  0
  149.4515  136.7410  153.4688 H   0  0  0  0  0  0  0  0  0  0  0  0
  149.8083  136.9449  157.0887 H   0  0  0  0  0  0  0  0  0  0  0  0
  150.6590  138.9442  158.2796 H   0  0  0  0  0  0  0  0  0  0  0  0
  150.5670  142.5895  155.8011 H   0  0  0  0  0  0  0  0  0  0  0  0
  149.8355  142.3988  157.3805 H   0  0  0  0  0  0  0  0  0  0  0  0
  152.4987  143.8055  156.7633 H   0  0  0  0  0  0  0  0  0  0  0  0
  151.0038  144.5755  157.2569 H   0  0  0  0  0  0  0  0  0  0  0  0
  153.6854  142.4390  158.3689 H   0  0  0  0  0  0  0  0  0  0  0  0
  153.0172  142.2623  159.9799 H   0  0  0  0  0  0  0  0  0  0  0  0
  151.1259  140.9160  159.1338 H   0  0  0  0  0  0  0  0  0  0  0  0
  152.6372  140.2067  158.5797 H   0  0  0  0  0  0  0  0  0  0  0  0
  150.4373  139.0880  153.3791 H   0  0  0  0  0  0  0  0  0  0  0  0
  148.8052  134.9287  153.1088 H   0  0  0  0  0  0  0  0  0  0  0  0
  147.3121  133.3459  154.8890 H   0  0  0  0  0  0  0  0  0  0  0  0
  147.5697  133.3665  152.2676 H   0  0  0  0  0  0  0  0  0  0  0  0
  148.9247  132.3027  152.4886 H   0  0  0  0  0  0  0  0  0  0  0  0
  146.0394  131.8048  153.3985 H   0  0  0  0  0  0  0  0  0  0  0  0
  146.7833  131.1290  151.9800 H   0  0  0  0  0  0  0  0  0  0  0  0
  146.7009  129.4588  153.7267 H   0  0  0  0  0  0  0  0  0  0  0  0
  148.3662  129.8131  153.3650 H   0  0  0  0  0  0  0  0  0  0  0  0
  146.8608  131.0958  155.7250 H   0  0  0  0  0  0  0  0  0  0  0  0
  147.7408  129.5934  155.8504 H   0  0  0  0  0  0  0  0  0  0  0  0
  149.6541  130.7176  156.0485 H   0  0  0  0  0  0  0  0  0  0  0  0
  1  2  2  0  0  0  0
  2  3  1  0  0  0  0
  2 16  1  0  0  0  0
  3  4  1  0  0  0  0
  3 25  1  0  0  0  0
  4 15  1  0  0  0  0
  4  5  2  0  0  0  0
  5  6  1  0  0  0  0
  5 26  1  0  0  0  0
  6  7  2  0  0  0  0
  6 27  1  0  0  0  0
  7  8  1  0  0  0  0
  7 14  1  0  0  0  0
  8 13  1  0  0  0  0
  8  9  1  0  0  0  0
  9 10  1  0  0  0  0
  9 28  1  0  0  0  0
  9 29  1  0  0  0  0
 10 11  1  0  0  0  0
 10 30  1  0  0  0  0
 10 31  1  0  0  0  0
 11 12  1  0  0  0  0
 12 13  1  0  0  0  0
 12 32  1  0  0  0  0
 12 33  1  0  0  0  0
 13 34  1  0  0  0  0
 13 35  1  0  0  0  0
 14 15  2  0  0  0  0
 15 36  1  0  0  0  0
 16 17  1  0  0  0  0
 16 37  1  0  0  0  0
 17 23  1  0  0  0  0
 17 18  1  0  0  0  0
 17 38  1  0  0  0  0
 18 19  1  0  0  0  0
 18 39  1  0  0  0  0
 18 40  1  0  0  0  0
 19 20  1  0  0  0  0
 19 41  1  0  0  0  0
 19 42  1  0  0  0  0
 20 21  1  0  0  0  0
 20 43  1  0  0  0  0
 20 44  1  0  0  0  0
 21 22  1  0  0  0  0
 21 45  1  0  0  0  0
 21 46  1  0  0  0  0
 22 23  1  0  0  0  0
 22 47  1  0  0  0  0
 23 24  2  0  0  0  0
M  END
> <s_m_source_file>
AV-unprocessed.smi

> <i_m_source_file_index>
1617

> <i_lp_mmshare_version>
43012

> <i_f3d_flags>
0

> <s_epik_input>
Tz1DMVtOSF1bQ0gyXVtDSDJdW0NIMl1bQ0gyXVtDQEhdMVtOSF1DKD1PKVtOSF1jMltjSF1bY0hdYyhuW2NIXTIpTjNbQ0gyXVtDSDJdT1tDSDJdW0NIMl0z

> <s_epik_cmdline>
J2VwaWtfcHl0aG9uJywgJy1waCcsICc3LjAnLCAnLXRuJywgJzgnLCAnLW1hJywgJzIwMCcsICctbWV0YWxfYmluZGluZycsICctaW1hZScsICc8aW5maWxlLm1hZT4nLCAnLW9tYWUnLCAnPG91dGZpbGUubWFlPic=

> <r_lp_tautomer_probability>
1

> <r_epik_Ionization_Penalty>
0.00171733

> <r_epik_Ionization_Penalty_Charging>
0

> <r_epik_Ionization_Penalty_Neutral>
0.00171733

> <r_epik_State_Penalty>
0.00113787

> <r_epik_Charging_Adjusted_Penalty>
0.00113787

> <i_epik_Tot_Q>
0

> <i_epik_Tot_abs_Q>
0

> <r_epik_Metal_State_Penalty>
-0

> <b_epik_Metal_Only>
0

> <s_lp_Force_Field>
OPLS_2005

> <r_lp_Energy>
26.8457

> <b_lp_Chiralities_Consistent>
1

> <s_lp_Variant>
AV-unprocessed.smi:1617-2

> <Gold.Version>
5.8.1

> <Gold.Id.Protein>
6NUR|6NUR_protein|mol2

> <Gold.PLP.Fitness>
43.4798

> <Gold.PLP.PLP>
-32.5585

> <Gold.PLP.part.hbond>
-3.0000

> <Gold.PLP.part.metal>
0.0000

> <Gold.PLP.part.buried>
-4.2038

> <Gold.PLP.part.nonpolar>
-25.3196

> <Gold.PLP.part.repulsive>
0.1378

> <Gold.PLP.ligand.clash>
0.0000

> <Gold.PLP.ligand.torsion>
0.2596

> <Gold.PLP.Chemscore.Hbond>
2.7000

> <Gold.PLP.Chemscore.CHOScore>
1.0000

> <Gold.PLP.Chemscore.Metal>
0.0000

> <Gold.Chemscore.Hbonds>
donor molecule, donor type, donor heavy atom, donor atom, acceptor molecule, acceptor atom, score
      L1  H     3    25       P1  7948  1.00
      L1  H    16    37       P1  7948  1.00
      P1  H  7989  7998       L1    14  0.70
      L1  C    15    36       P1  7957  0.98

> <Gold.PLP.Chemscore.Internal.Correction>
0.3405

> <Gold.Rescore>
     Score         DG    S(hbond)    S(metal)    S(lipo)     H(rot)  DE(clash)    DE(int)     intcor
     13.28     -17.02       1.83        0.00      74.23       1.27       0.00       3.74       ----

> <Gold.Chemscore.Fitness>
13.2784

> <Gold.Chemscore.DG>
-17.0185

> <Gold.Chemscore.ZeroCoef>
-5.4800

> <Gold.Chemscore.Hbond>
1.8265

> <Gold.Chemscore.Metal>
0.0000

> <Gold.Chemscore.Lipo>
74.2321

> <Gold.Chemscore.Internal_Hbond>
0.0000

> <Gold.Chemscore.DEClash>
0.0000

> <Gold.Chemscore.DEInternal>
3.7401

> <Gold.Chemscore.Rot>
1.2684

> <Gold.Chemscore.Internal.Correction>
   9.000000E+99

> <Gold.Chemscore.Hbonds>
donor molecule, donor type, donor heavy atom, donor atom, acceptor molecule, acceptor atom, score
      L1  H     3    25       P1  7948  0.84
      L1  H    16    37       P1  7948  0.29
      P1  H  7989  7998       L1    14  0.07

> <Gold.Chemscore.Hbond.Weighted>
-6.1004

> <Gold.Chemscore.Metal.Weighted>
-0.0000

> <Gold.Chemscore.Lipo.Weighted>
-8.6852

> <Gold.Chemscore.Internal_Hbond.Weighted>
0.0000

> <Gold.Chemscore.DEClash.Weighted>
0.0000

> <Gold.Chemscore.DEInternal.Weighted>
3.7401

> <Gold.Chemscore.Rot.Weighted>
3.2471

> <Gold.Chemscore.Internal.Correction.Weighted>
   9.000000E+99

> <Gold.Protein.RotatedTorsions>
[ 6907 6896 6895 6894 ] final -155.47 input  -60.11 | X-H torsion
[ 7974 7965 7964 7962 ] final   16.57 input  175.53 | X-H torsion
[ 8008 7997 7996 7995 ] final  -56.05 input   59.86 | X-H torsion
[ 10167 10162 10161 10158 ] final   72.37 input  -65.29 | X-H torsion
[ 10718 10713 10712 10709 ] final  101.03 input   66.30 | X-H torsion
[ 10763 10752 10751 10750 ] final   -2.62 input  -60.55 | X-H torsion
[ 11005 11000 10999 10996 ] final  -85.94 input  -57.11 | X-H torsion

> <Gold.Protein.ActiveResidues>
 VAL166  LYS551  ARG553  GLY616  TRP617  ASP618  TYR619  PRO620  LYS621  CYS622 
 ASP623  PHE694  ASN695  SER759  ASP760  ASP761  ALA762  ILE779  LEU786  VAL792 
 PHE793  MET794  SER795  GLU796  ALA797  LYS798  CYS799  TRP800  GLU811  SER814 

> <Gold.Protein.RotatedAtoms>
  151.2730  133.4246  159.2622 H   0  0  0  0  0  0  0  0  0  0  0  0  # atno 6907 bound_to 6896
  151.0428  134.9619  159.8181 H   0  0  0  0  0  0  0  0  0  0  0  0  # atno 6908 bound_to 6896
  152.5368  134.2687  159.9016 H   0  0  0  0  0  0  0  0  0  0  0  0  # atno 6909 bound_to 6896
  146.2245  139.8728  142.8584 H   0  0  0  0  0  0  0  0  0  0  0  0  # atno 7974 bound_to 7965
  154.4216  140.1138  156.5576 H   0  0  0  0  0  0  0  0  0  0  0  0  # atno 8008 bound_to 7997
  155.6345  140.3496  155.4675 H   0  0  0  0  0  0  0  0  0  0  0  0  # atno 8009 bound_to 7997
  155.9921  140.1181  157.0618 H   0  0  0  0  0  0  0  0  0  0  0  0  # atno 8010 bound_to 7997
  140.0360  144.5427  150.7470 H   0  0  0  0  0  0  0  0  0  0  0  0  # atno 10167 bound_to 10162
  157.6839  131.0715  150.5191 H   0  0  0  0  0  0  0  0  0  0  0  0  # atno 10718 bound_to 10713
  153.3605  135.6990  153.6716 H   0  0  0  0  0  0  0  0  0  0  0  0  # atno 10763 bound_to 10752
  153.5407  135.3573  155.2717 H   0  0  0  0  0  0  0  0  0  0  0  0  # atno 10764 bound_to 10752
  154.8667  135.4203  154.2861 H   0  0  0  0  0  0  0  0  0  0  0  0  # atno 10765 bound_to 10752
  141.1636  133.7426  156.9088 H   0  0  0  0  0  0  0  0  0  0  0  0  # atno 11005 bound_to 11000
  145.2591  141.0071  143.3837 LP  0  0  0  0  0  0  0  0  0  0  0  0  # atno 17320 bound_to 7965
  144.9313  139.4295  143.6494 LP  0  0  0  0  0  0  0  0  0  0  0  0  # atno 17321 bound_to 7965
  140.7281  143.2658  151.4049 LP  0  0  0  0  0  0  0  0  0  0  0  0  # atno 17342 bound_to 10162
  139.6045  144.1227  152.2233 LP  0  0  0  0  0  0  0  0  0  0  0  0  # atno 17343 bound_to 10162
  156.5505  130.4230  149.6110 LP  0  0  0  0  0  0  0  0  0  0  0  0  # atno 17370 bound_to 10713
  156.2907  130.7122  151.1970 LP  0  0  0  0  0  0  0  0  0  0  0  0  # atno 17371 bound_to 10713
  140.1531  134.9216  157.2619 LP  0  0  0  0  0  0  0  0  0  0  0  0  # atno 17394 bound_to 11000
  140.2699  134.3473  155.7377 LP  0  0  0  0  0  0  0  0  0  0  0  0  # atno 17395 bound_to 11000

$$$$
