AV-unprocessed.smi:1429|AV-procd|sdf|5818|dock9
  -GOLD-   22720 5473D 1   1.00000     0.00000
 Structure written by MMmdl.
 30 31  0  0  0  0  0  0  0  0  1 V2000
  150.9629  137.4115  158.3504 C   0  0  0  0  0  0  0  0  0  0  0  0
  150.2485  136.5174  157.3955 C   0  0  0  0  0  0  0  0  0  0  0  0
  149.6843  135.3634  157.7712 N   0  0  0  0  0  0  0  0  0  0  0  0
  149.0795  134.7036  156.7106 N   0  0  0  0  0  0  0  0  0  0  0  0
  149.2080  135.3811  155.5616 C   0  0  0  0  0  0  0  0  0  0  0  0
  148.6840  134.9346  154.3196 N   0  0  0  0  0  0  0  0  0  0  0  0
  148.1559  133.7344  154.0216 C   0  0  0  0  0  0  0  0  0  0  0  0
  148.0345  132.7944  154.8077 O   0  0  0  0  0  0  0  0  0  0  0  0
  147.7693  133.6783  152.7391 N   0  0  0  0  0  0  0  0  0  0  0  0
  147.1612  132.5160  152.0997 C   0  0  0  0  0  0  0  0  0  0  0  0
  146.0643  132.9152  151.0942 C   0  0  2  0  0  0  0  0  0  0  0  0
  144.6448  132.6922  151.5783 C   0  0  0  0  0  0  0  0  0  0  0  0
  143.8676  132.7014  150.2667 C   0  0  0  0  0  0  0  0  0  0  0  0
  144.7427  132.1283  149.3004 O   0  0  0  0  0  0  0  0  0  0  0  0
  146.0753  132.0925  149.8054 C   0  0  0  0  0  0  0  0  0  0  0  0
  150.0885  136.8948  155.6842 S   0  0  0  0  0  0  0  0  0  0  0  0
  150.4874  137.3769  159.3312 H   0  0  0  0  0  0  0  0  0  0  0  0
  150.9439  138.4406  157.9913 H   0  0  0  0  0  0  0  0  0  0  0  0
  152.0008  137.0943  158.4514 H   0  0  0  0  0  0  0  0  0  0  0  0
  148.7158  135.6088  153.5691 H   0  0  0  0  0  0  0  0  0  0  0  0
  147.9050  134.4960  152.1626 H   0  0  0  0  0  0  0  0  0  0  0  0
  147.9297  131.9214  151.6031 H   0  0  0  0  0  0  0  0  0  0  0  0
  146.7413  131.8827  152.8817 H   0  0  0  0  0  0  0  0  0  0  0  0
  146.1769  133.9675  150.8272 H   0  0  0  0  0  0  0  0  0  0  0  0
  144.5536  131.7182  152.0617 H   0  0  0  0  0  0  0  0  0  0  0  0
  144.3030  133.4558  152.2777 H   0  0  0  0  0  0  0  0  0  0  0  0
  142.9281  132.1520  150.3320 H   0  0  0  0  0  0  0  0  0  0  0  0
  143.6417  133.7254  149.9671 H   0  0  0  0  0  0  0  0  0  0  0  0
  146.7867  132.4780  149.0748 H   0  0  0  0  0  0  0  0  0  0  0  0
  146.3340  131.0524  150.0094 H   0  0  0  0  0  0  0  0  0  0  0  0
  1  2  1  0  0  0  0
  1 17  1  0  0  0  0
  1 18  1  0  0  0  0
  1 19  1  0  0  0  0
  2 16  1  0  0  0  0
  2  3  2  0  0  0  0
  3  4  1  0  0  0  0
  4  5  2  0  0  0  0
  5  6  1  0  0  0  0
  5 16  1  0  0  0  0
  6  7  1  0  0  0  0
  6 20  1  0  0  0  0
  7  8  2  0  0  0  0
  7  9  1  0  0  0  0
  9 10  1  0  0  0  0
  9 21  1  0  0  0  0
 10 11  1  0  0  0  0
 10 22  1  0  0  0  0
 10 23  1  0  0  0  0
 11 15  1  0  0  0  0
 11 12  1  0  0  0  0
 11 24  1  0  0  0  0
 12 13  1  0  0  0  0
 12 25  1  0  0  0  0
 12 26  1  0  0  0  0
 13 14  1  0  0  0  0
 13 27  1  0  0  0  0
 13 28  1  0  0  0  0
 14 15  1  0  0  0  0
 15 29  1  0  0  0  0
 15 30  1  0  0  0  0
M  END
> <s_m_source_file>
AV-unprocessed.smi

> <i_m_source_file_index>
1429

> <i_lp_mmshare_version>
43012

> <i_f3d_flags>
0

> <s_epik_input>
W0NIM11jMW5uYyhzMSlbTkhdQyg9TylbTkhdW0NIMl1bQ0BASF0yW0NIMl1bQ0gyXU9bQ0gyXTI=

> <s_epik_cmdline>
J2VwaWtfcHl0aG9uJywgJy1waCcsICc3LjAnLCAnLXRuJywgJzgnLCAnLW1hJywgJzIwMCcsICctbWV0YWxfYmluZGluZycsICctaW1hZScsICc8aW5maWxlLm1hZT4nLCAnLW9tYWUnLCAnPG91dGZpbGUubWFlPic=

> <r_lp_tautomer_probability>
1

> <r_epik_Ionization_Penalty>
0.000468089

> <r_epik_Ionization_Penalty_Charging>
0

> <r_epik_Ionization_Penalty_Neutral>
0.000468089

> <r_epik_State_Penalty>
-0

> <r_epik_Charging_Adjusted_Penalty>
0

> <i_epik_Tot_Q>
0

> <i_epik_Tot_abs_Q>
0

> <r_epik_Metal_State_Penalty>
0.211262

> <b_epik_Metal_Only>
0

> <s_lp_Force_Field>
OPLS_2005

> <r_lp_Energy>
16.548

> <b_lp_Chiralities_Consistent>
1

> <s_lp_Variant>
AV-unprocessed.smi:1429-1

> <Gold.Version>
5.8.1

> <Gold.Id.Protein>
6NUR|6NUR_protein|mol2

> <Gold.PLP.Fitness>
30.7343

> <Gold.PLP.PLP>
-23.8767

> <Gold.PLP.part.hbond>
-3.3516

> <Gold.PLP.part.metal>
0.0000

> <Gold.PLP.part.buried>
-3.4129

> <Gold.PLP.part.nonpolar>
-17.4805

> <Gold.PLP.part.repulsive>
0.1973

> <Gold.PLP.ligand.clash>
0.0000

> <Gold.PLP.ligand.torsion>
0.7854

> <Gold.PLP.Chemscore.Hbond>
2.8080

> <Gold.PLP.Chemscore.CHOScore>
0.0000

> <Gold.PLP.Chemscore.Metal>
0.0000

> <Gold.Chemscore.Hbonds>
donor molecule, donor type, donor heavy atom, donor atom, acceptor molecule, acceptor atom, score
      L1  H     6    20       P1  7948  1.00
      L1  H     9    21       P1  7948  0.94
      P1  H  6896  6909       L1     3  0.65

> <Gold.PLP.Chemscore.Internal.Correction>
0.0042

> <Gold.Rescore>
     Score         DG    S(hbond)    S(metal)    S(lipo)     H(rot)  DE(clash)    DE(int)     intcor
     13.64     -15.79       2.52        0.00      44.96       1.31       0.00       2.14       ----

> <Gold.Chemscore.Fitness>
13.6437

> <Gold.Chemscore.DG>
-15.7913

> <Gold.Chemscore.ZeroCoef>
-5.4800

> <Gold.Chemscore.Hbond>
2.5181

> <Gold.Chemscore.Metal>
0.0000

> <Gold.Chemscore.Lipo>
44.9640

> <Gold.Chemscore.Internal_Hbond>
0.0000

> <Gold.Chemscore.DEClash>
0.0029

> <Gold.Chemscore.DEInternal>
2.1447

> <Gold.Chemscore.Rot>
1.3125

> <Gold.Chemscore.Internal.Correction>
   9.000000E+99

> <Gold.Chemscore.Hbonds>
donor molecule, donor type, donor heavy atom, donor atom, acceptor molecule, acceptor atom, score
      L1  H     6    20       P1  7948  0.95
      L1  H     9    21       P1  7948  0.26
      P1  H  6896  6909       L1     3  0.55

> <Gold.Chemscore.Hbond.Weighted>
-8.4105

> <Gold.Chemscore.Metal.Weighted>
-0.0000

> <Gold.Chemscore.Lipo.Weighted>
-5.2608

> <Gold.Chemscore.Internal_Hbond.Weighted>
0.0000

> <Gold.Chemscore.DEClash.Weighted>
0.0029

> <Gold.Chemscore.DEInternal.Weighted>
2.1447

> <Gold.Chemscore.Rot.Weighted>
3.3600

> <Gold.Chemscore.Internal.Correction.Weighted>
   9.000000E+99

> <Gold.Protein.RotatedTorsions>
[ 6907 6896 6895 6894 ] final   37.99 input  -60.11 | X-H torsion
[ 7974 7965 7964 7962 ] final  -99.57 input  175.53 | X-H torsion
[ 8008 7997 7996 7995 ] final  114.76 input   59.86 | X-H torsion
[ 10167 10162 10161 10158 ] final  -10.43 input  -65.29 | X-H torsion
[ 10718 10713 10712 10709 ] final  -70.31 input   66.30 | X-H torsion
[ 10763 10752 10751 10750 ] final  112.08 input  -60.55 | X-H torsion
[ 11005 11000 10999 10996 ] final  -44.82 input  -57.11 | X-H torsion

> <Gold.Protein.ActiveResidues>
 VAL166  LYS551  ARG553  GLY616  TRP617  ASP618  TYR619  PRO620  LYS621  CYS622 
 ASP623  PHE694  ASN695  SER759  ASP760  ASP761  ALA762  ILE779  LEU786  VAL792 
 PHE793  MET794  SER795  GLU796  ALA797  LYS798  CYS799  TRP800  GLU811  SER814 

> <Gold.Protein.RotatedAtoms>
  152.1505  134.8992  160.0548 H   0  0  0  0  0  0  0  0  0  0  0  0  # atno 6907 bound_to 6896
  152.0025  133.3826  159.4195 H   0  0  0  0  0  0  0  0  0  0  0  0  # atno 6908 bound_to 6896
  150.6875  134.3740  159.5048 H   0  0  0  0  0  0  0  0  0  0  0  0  # atno 6909 bound_to 6896
  145.3059  140.9388  143.2797 H   0  0  0  0  0  0  0  0  0  0  0  0  # atno 7974 bound_to 7965
  156.2340  140.2952  156.0264 H   0  0  0  0  0  0  0  0  0  0  0  0  # atno 8008 bound_to 7997
  155.2143  140.0413  157.2955 H   0  0  0  0  0  0  0  0  0  0  0  0  # atno 8009 bound_to 7997
  154.6046  140.2436  155.7755 H   0  0  0  0  0  0  0  0  0  0  0  0  # atno 8010 bound_to 7997
  140.7113  143.5749  150.9053 H   0  0  0  0  0  0  0  0  0  0  0  0  # atno 10167 bound_to 10162
  156.0414  130.4329  150.2276 H   0  0  0  0  0  0  0  0  0  0  0  0  # atno 10718 bound_to 10713
  153.4726  135.3697  155.2399 H   0  0  0  0  0  0  0  0  0  0  0  0  # atno 10763 bound_to 10752
  154.8756  135.3935  154.3794 H   0  0  0  0  0  0  0  0  0  0  0  0  # atno 10764 bound_to 10752
  153.4385  135.7083  153.6249 H   0  0  0  0  0  0  0  0  0  0  0  0  # atno 10765 bound_to 10752
  141.0476  133.6755  156.2927 H   0  0  0  0  0  0  0  0  0  0  0  0  # atno 11005 bound_to 11000
  144.9055  139.4594  143.6612 LP  0  0  0  0  0  0  0  0  0  0  0  0  # atno 17320 bound_to 7965
  146.3135  139.7834  142.9001 LP  0  0  0  0  0  0  0  0  0  0  0  0  # atno 17321 bound_to 7965
  139.9475  143.6310  152.3038 LP  0  0  0  0  0  0  0  0  0  0  0  0  # atno 17342 bound_to 10162
  139.6817  144.7655  151.1596 LP  0  0  0  0  0  0  0  0  0  0  0  0  # atno 17343 bound_to 10162
  157.0371  131.0024  151.3295 LP  0  0  0  0  0  0  0  0  0  0  0  0  # atno 17370 bound_to 10713
  157.5236  130.8013  149.7837 LP  0  0  0  0  0  0  0  0  0  0  0  0  # atno 17371 bound_to 10713
  140.6118  134.5451  157.5534 LP  0  0  0  0  0  0  0  0  0  0  0  0  # atno 17394 bound_to 11000
  139.9324  134.7939  156.0895 LP  0  0  0  0  0  0  0  0  0  0  0  0  # atno 17395 bound_to 11000

$$$$
