AV-unprocessed.smi:1350|AV-procd|sdf|5522|dock1
  -GOLD-   22720 5113D 1   1.00000     0.00000
 Structure written by MMmdl.
 44 46  0  0  0  0  0  0  0  0  2 V2000
  149.1150  133.2887  159.3232 C   0  0  0  0  0  0  0  0  0  0  0  0
  149.9584  134.0012  158.4296 O   0  0  0  0  0  0  0  0  0  0  0  0
  149.8901  133.7076  157.0825 C   0  0  0  0  0  0  0  0  0  0  0  0
  149.0977  132.6542  156.5566 C   0  0  0  0  0  0  0  0  0  0  0  0
  149.0648  132.4002  155.1725 C   0  0  0  0  0  0  0  0  0  0  0  0
  149.8208  133.1932  154.2923 C   0  0  0  0  0  0  0  0  0  0  0  0
  150.6103  134.2401  154.7997 C   0  0  0  0  0  0  0  0  0  0  0  0
  150.6517  134.4995  156.1859 C   0  0  0  0  0  0  0  0  0  0  0  0
  151.5117  135.6526  156.6775 C   0  0  0  0  0  0  0  0  0  0  0  0
  151.3374  136.8080  155.8738 O   0  0  0  0  0  0  0  0  0  0  0  0
  152.4166  137.7213  155.9854 C   0  0  0  0  0  0  0  0  0  0  0  0
  151.8664  139.1539  155.9536 C   0  0  2  0  0  0  0  0  0  0  0  0
  152.5638  139.8847  154.9642 O   0  0  0  0  0  0  0  0  0  0  0  0
  151.9975  139.8669  157.3145 C   0  0  0  0  0  0  0  0  0  0  0  0
  151.3710  141.1948  157.3206 N   0  0  0  0  0  0  0  0  0  0  0  0
  150.4994  141.7582  156.4405 C   0  0  0  0  0  0  0  0  0  0  0  0
  150.2060  143.0080  156.8959 N   0  3  0  0  0  0  0  0  0  0  0  0
  150.9014  143.2466  158.0836 C   0  0  0  0  0  0  0  0  0  0  0  0
  150.9292  144.3608  158.9167 C   0  0  0  0  0  0  0  0  0  0  0  0
  151.7501  144.2749  160.0606 C   0  0  0  0  0  0  0  0  0  0  0  0
  152.5027  143.1152  160.3404 C   0  0  0  0  0  0  0  0  0  0  0  0
  152.4673  141.9916  159.4885 C   0  0  0  0  0  0  0  0  0  0  0  0
  151.6531  142.0853  158.3608 C   0  0  0  0  0  0  0  0  0  0  0  0
  149.2953  133.6358  160.3404 H   0  0  0  0  0  0  0  0  0  0  0  0
  149.3220  132.2179  159.2998 H   0  0  0  0  0  0  0  0  0  0  0  0
  148.0612  133.4599  159.0996 H   0  0  0  0  0  0  0  0  0  0  0  0
  148.5006  132.0222  157.1961 H   0  0  0  0  0  0  0  0  0  0  0  0
  148.4563  131.5958  154.7865 H   0  0  0  0  0  0  0  0  0  0  0  0
  149.7939  133.0004  153.2300 H   0  0  0  0  0  0  0  0  0  0  0  0
  151.1875  134.8489  154.1192 H   0  0  0  0  0  0  0  0  0  0  0  0
  151.2215  135.8745  157.7054 H   0  0  0  0  0  0  0  0  0  0  0  0
  152.5671  135.3816  156.7006 H   0  0  0  0  0  0  0  0  0  0  0  0
  152.9741  137.5452  156.9070 H   0  0  0  0  0  0  0  0  0  0  0  0
  153.1037  137.5681  155.1512 H   0  0  0  0  0  0  0  0  0  0  0  0
  150.8184  139.1210  155.6541 H   0  0  0  0  0  0  0  0  0  0  0  0
  152.9466  139.2734  154.3537 H   0  0  0  0  0  0  0  0  0  0  0  0
  151.5516  139.2732  158.1138 H   0  0  0  0  0  0  0  0  0  0  0  0
  153.0483  139.9974  157.5763 H   0  0  0  0  0  0  0  0  0  0  0  0
  150.1074  141.2958  155.5462 H   0  0  0  0  0  0  0  0  0  0  0  0
  150.3536  145.2500  158.7057 H   0  0  0  0  0  0  0  0  0  0  0  0
  151.8029  145.1152  160.7378 H   0  0  0  0  0  0  0  0  0  0  0  0
  153.1192  143.0862  161.2270 H   0  0  0  0  0  0  0  0  0  0  0  0
  153.0451  141.1066  159.7109 H   0  0  0  0  0  0  0  0  0  0  0  0
  149.5749  143.6473  156.4300 H   0  0  0  0  0  0  0  0  0  0  0  0
  1  2  1  0  0  0  0
  1 24  1  0  0  0  0
  1 25  1  0  0  0  0
  1 26  1  0  0  0  0
  2  3  1  0  0  0  0
  3  8  1  0  0  0  0
  3  4  2  0  0  0  0
  4  5  1  0  0  0  0
  4 27  1  0  0  0  0
  5  6  2  0  0  0  0
  5 28  1  0  0  0  0
  6  7  1  0  0  0  0
  6 29  1  0  0  0  0
  7  8  2  0  0  0  0
  7 30  1  0  0  0  0
  8  9  1  0  0  0  0
  9 10  1  0  0  0  0
  9 31  1  0  0  0  0
  9 32  1  0  0  0  0
 10 11  1  0  0  0  0
 11 12  1  0  0  0  0
 11 33  1  0  0  0  0
 11 34  1  0  0  0  0
 12 13  1  0  0  0  0
 12 14  1  0  0  0  0
 12 35  1  0  0  0  0
 13 36  1  0  0  0  0
 14 15  1  0  0  0  0
 14 37  1  0  0  0  0
 14 38  1  0  0  0  0
 15 23  1  0  0  0  0
 15 16  1  0  0  0  0
 16 17  2  0  0  0  0
 16 39  1  0  0  0  0
 17 18  1  0  0  0  0
 17 44  1  0  0  0  0
 18 23  2  0  0  0  0
 18 19  1  0  0  0  0
 19 20  2  0  0  0  0
 19 40  1  0  0  0  0
 20 21  1  0  0  0  0
 20 41  1  0  0  0  0
 21 22  2  0  0  0  0
 21 42  1  0  0  0  0
 22 23  1  0  0  0  0
 22 43  1  0  0  0  0
M  CHG  1  17   1
M  END
> <s_m_source_file>
AV-unprocessed.smi

> <i_m_source_file_index>
1350

> <i_lp_mmshare_version>
43012

> <i_f3d_flags>
0

> <s_epik_input>
W0NIM11PYzFbY0hdW2NIXVtjSF1bY0hdYzFbQ0gyXU9bQ0gyXVtDQEhdKFtPSF0pW0NIMl1uKFtjSF1uMiljKGMyMylbY0hdW2NIXVtjSF1bY0hdMw==

> <s_epik_cmdline>
J2VwaWtfcHl0aG9uJywgJy1waCcsICc3LjAnLCAnLXRuJywgJzgnLCAnLW1hJywgJzIwMCcsICctbWV0YWxfYmluZGluZycsICctaW1hZScsICc8aW5maWxlLm1hZT4nLCAnLW9tYWUnLCAnPG91dGZpbGUubWFlPic=

> <r_lp_tautomer_probability>
1

> <r_epik_Ionization_Penalty>
1.28975

> <r_epik_Ionization_Penalty_Charging>
1.28975

> <r_epik_Ionization_Penalty_Neutral>
1.07667e-06

> <r_epik_State_Penalty>
1.36276

> <r_epik_Charging_Adjusted_Penalty>
2.65251

> <i_epik_Tot_Q>
1

> <i_epik_Tot_abs_Q>
1

> <r_epik_Metal_State_Penalty>
5.39298

> <b_epik_Metal_Only>
0

> <s_lp_Force_Field>
OPLS_2005

> <r_lp_Energy>
23.7531

> <b_lp_Chiralities_Consistent>
1

> <s_lp_Variant>
AV-unprocessed.smi:1350-3

> <Gold.Version>
5.8.1

> <Gold.Id.Protein>
6NUR|6NUR_protein|mol2

> <Gold.PLP.Fitness>
54.0926

> <Gold.PLP.PLP>
-43.7498

> <Gold.PLP.part.hbond>
-4.0000

> <Gold.PLP.part.metal>
0.0000

> <Gold.PLP.part.buried>
-6.4506

> <Gold.PLP.part.nonpolar>
-34.3614

> <Gold.PLP.part.repulsive>
0.0923

> <Gold.PLP.ligand.clash>
0.0000

> <Gold.PLP.ligand.torsion>
1.4688

> <Gold.PLP.Chemscore.Hbond>
4.3128

> <Gold.PLP.Chemscore.CHOScore>
0.0000

> <Gold.PLP.Chemscore.Metal>
0.0000

> <Gold.Chemscore.Hbonds>
donor molecule, donor type, donor heavy atom, donor atom, acceptor molecule, acceptor atom, score
      L1  H    17    44       P1  8028  1.79
      P1  H  6896  6908       L1     2  0.01
      P1  H  7989  7998       L1    13  0.31
      P1  H  7997  8010       L1    13  0.35

> <Gold.PLP.Chemscore.Internal.Correction>
0.3419

> <Gold.Rescore>
     Score         DG    S(hbond)    S(metal)    S(lipo)     H(rot)  DE(clash)    DE(int)     intcor
     19.29     -21.27       2.84        0.00     113.82       2.74       0.00       1.97       ----

> <Gold.Chemscore.Fitness>
19.2945

> <Gold.Chemscore.DG>
-21.2653

> <Gold.Chemscore.ZeroCoef>
-5.4800

> <Gold.Chemscore.Hbond>
2.8385

> <Gold.Chemscore.Metal>
0.0000

> <Gold.Chemscore.Lipo>
113.8151

> <Gold.Chemscore.Internal_Hbond>
0.0000

> <Gold.Chemscore.DEClash>
0.0000

> <Gold.Chemscore.DEInternal>
1.9708

> <Gold.Chemscore.Rot>
2.7390

> <Gold.Chemscore.Internal.Correction>
   9.000000E+99

> <Gold.Chemscore.Hbonds>
donor molecule, donor type, donor heavy atom, donor atom, acceptor molecule, acceptor atom, score
      L1  H    17    44       P1  8028  0.86
      P1  H  7989  7998       L1    13  0.02
      P1  H  7997  8010       L1    13  0.01

> <Gold.Chemscore.Hbond.Weighted>
-9.4807

> <Gold.Chemscore.Metal.Weighted>
-0.0000

> <Gold.Chemscore.Lipo.Weighted>
-13.3164

> <Gold.Chemscore.Internal_Hbond.Weighted>
0.0000

> <Gold.Chemscore.DEClash.Weighted>
0.0000

> <Gold.Chemscore.DEInternal.Weighted>
1.9708

> <Gold.Chemscore.Rot.Weighted>
7.0118

> <Gold.Chemscore.Internal.Correction.Weighted>
   9.000000E+99

> <Gold.Protein.RotatedTorsions>
[ 6907 6896 6895 6894 ] final  135.29 input  -60.11 | X-H torsion
[ 7974 7965 7964 7962 ] final  113.15 input  175.53 | X-H torsion
[ 8008 7997 7996 7995 ] final   84.37 input   59.86 | X-H torsion
[ 10167 10162 10161 10158 ] final  -20.62 input  -65.29 | X-H torsion
[ 10718 10713 10712 10709 ] final  -19.48 input   66.30 | X-H torsion
[ 10763 10752 10751 10750 ] final   68.89 input  -60.55 | X-H torsion
[ 11005 11000 10999 10996 ] final  110.64 input  -57.11 | X-H torsion

> <Gold.Protein.ActiveResidues>
 VAL166  LYS551  ARG553  GLY616  TRP617  ASP618  TYR619  PRO620  LYS621  CYS622 
 ASP623  PHE694  ASN695  SER759  ASP760  ASP761  ALA762  ILE779  LEU786  VAL792 
 PHE793  MET794  SER795  GLU796  ALA797  LYS798  CYS799  TRP800  GLU811  SER814 

> <Gold.Protein.RotatedAtoms>
  152.3020  133.5665  159.5624 H   0  0  0  0  0  0  0  0  0  0  0  0  # atno 6907 bound_to 6896
  150.7282  134.0277  159.3731 H   0  0  0  0  0  0  0  0  0  0  0  0  # atno 6908 bound_to 6896
  151.8176  135.0662  160.0472 H   0  0  0  0  0  0  0  0  0  0  0  0  # atno 6909 bound_to 6896
  145.2205  139.2864  143.4221 H   0  0  0  0  0  0  0  0  0  0  0  0  # atno 7974 bound_to 7965
  155.9362  140.3411  155.6290 H   0  0  0  0  0  0  0  0  0  0  0  0  # atno 8008 bound_to 7997
  155.7096  140.0770  157.2395 H   0  0  0  0  0  0  0  0  0  0  0  0  # atno 8009 bound_to 7997
  154.4094  140.1625  156.2269 H   0  0  0  0  0  0  0  0  0  0  0  0  # atno 8010 bound_to 7997
  140.7277  143.4705  151.0253 H   0  0  0  0  0  0  0  0  0  0  0  0  # atno 10167 bound_to 10162
  156.5451  130.4688  149.6479 H   0  0  0  0  0  0  0  0  0  0  0  0  # atno 10718 bound_to 10713
  153.0258  135.5230  154.7204 H   0  0  0  0  0  0  0  0  0  0  0  0  # atno 10763 bound_to 10752
  154.6261  135.2894  155.0272 H   0  0  0  0  0  0  0  0  0  0  0  0  # atno 10764 bound_to 10752
  154.1241  135.6603  153.4961 H   0  0  0  0  0  0  0  0  0  0  0  0  # atno 10765 bound_to 10752
  139.8886  134.9489  156.6310 H   0  0  0  0  0  0  0  0  0  0  0  0  # atno 11005 bound_to 11000
  146.3377  140.2509  142.8598 LP  0  0  0  0  0  0  0  0  0  0  0  0  # atno 17320 bound_to 7965
  144.9770  140.8423  143.5420 LP  0  0  0  0  0  0  0  0  0  0  0  0  # atno 17321 bound_to 7965
  139.8397  143.7580  152.3180 LP  0  0  0  0  0  0  0  0  0  0  0  0  # atno 17342 bound_to 10162
  139.7725  144.7472  151.0204 LP  0  0  0  0  0  0  0  0  0  0  0  0  # atno 17343 bound_to 10162
  156.2936  130.7138  151.1992 LP  0  0  0  0  0  0  0  0  0  0  0  0  # atno 17370 bound_to 10713
  157.7398  131.0525  150.5208 LP  0  0  0  0  0  0  0  0  0  0  0  0  # atno 17371 bound_to 10713
  140.7666  133.8773  155.8459 LP  0  0  0  0  0  0  0  0  0  0  0  0  # atno 17394 bound_to 11000
  140.9877  134.1320  157.4437 LP  0  0  0  0  0  0  0  0  0  0  0  0  # atno 17395 bound_to 11000

$$$$
