AV-unprocessed.smi:1672|AV-procd|sdf|6708|dock7
  -GOLD-   22720 7453D 1   1.00000     0.00000
 Structure written by MMmdl.
 49 51  0  0  0  0  0  0  0  0  3 V2000
  137.6346  139.4973  153.9398 C   0  0  0  0  0  0  0  0  0  0  0  0
  137.6640  137.9930  154.2618 C   0  0  2  0  0  0  0  0  0  0  0  0
  138.1491  137.6987  155.6929 C   0  0  0  0  0  0  0  0  0  0  0  0
  139.6669  137.9019  155.8471 C   0  0  0  0  0  0  0  0  0  0  0  0
  140.4212  137.0807  154.8633 N   0  3  2  0  0  0  0  0  0  0  0  0
  141.8937  137.1437  155.0502 C   0  0  0  0  0  0  0  0  0  0  0  0
  142.6515  136.1145  154.1843 C   0  0  1  0  0  0  0  0  0  0  0  0
  141.8293  134.9812  153.9957 O   0  0  0  0  0  0  0  0  0  0  0  0
  143.0385  136.6457  152.7881 C   0  0  0  0  0  0  0  0  0  0  0  0
  144.2872  136.0673  152.2661 N   0  0  0  0  0  0  0  0  0  0  0  0
  145.5403  136.6004  152.1535 C   0  0  0  0  0  0  0  0  0  0  0  0
  145.9833  137.9710  152.5516 C   0  0  0  0  0  0  0  0  0  0  0  0
  147.3410  138.2095  152.2537 O   0  0  0  0  0  0  0  0  0  0  0  0
  146.3378  135.6409  151.6050 N   0  3  0  0  0  0  0  0  0  0  0  0
  145.5890  134.4927  151.3458 C   0  0  0  0  0  0  0  0  0  0  0  0
  145.9567  133.2707  150.7906 C   0  0  0  0  0  0  0  0  0  0  0  0
  144.9379  132.3049  150.6555 C   0  0  0  0  0  0  0  0  0  0  0  0
  143.6148  132.5714  151.0636 C   0  0  0  0  0  0  0  0  0  0  0  0
  143.2547  133.8137  151.6268 C   0  0  0  0  0  0  0  0  0  0  0  0
  144.2689  134.7620  151.7602 C   0  0  0  0  0  0  0  0  0  0  0  0
  140.0197  137.3957  153.4681 C   0  0  0  0  0  0  0  0  0  0  0  0
  138.5091  137.1851  153.2602 C   0  0  0  0  0  0  0  0  0  0  0  0
  138.6261  139.9475  153.9782 H   0  0  0  0  0  0  0  0  0  0  0  0
  137.0010  140.0350  154.6458 H   0  0  0  0  0  0  0  0  0  0  0  0
  137.2322  139.6738  152.9420 H   0  0  0  0  0  0  0  0  0  0  0  0
  136.6342  137.6414  154.1845 H   0  0  0  0  0  0  0  0  0  0  0  0
  137.6122  138.3213  156.4095 H   0  0  0  0  0  0  0  0  0  0  0  0
  137.9035  136.6666  155.9478 H   0  0  0  0  0  0  0  0  0  0  0  0
  139.9247  138.9542  155.7210 H   0  0  0  0  0  0  0  0  0  0  0  0
  139.9512  137.6338  156.8636 H   0  0  0  0  0  0  0  0  0  0  0  0
  142.2561  138.1397  154.7907 H   0  0  0  0  0  0  0  0  0  0  0  0
  142.1156  137.0045  156.1088 H   0  0  0  0  0  0  0  0  0  0  0  0
  143.5548  135.7846  154.6948 H   0  0  0  0  0  0  0  0  0  0  0  0
  141.7087  134.8432  153.0682 H   0  0  0  0  0  0  0  0  0  0  0  0
  142.2462  136.4502  152.0640 H   0  0  0  0  0  0  0  0  0  0  0  0
  143.1610  137.7286  152.8201 H   0  0  0  0  0  0  0  0  0  0  0  0
  145.3755  138.7114  152.0306 H   0  0  0  0  0  0  0  0  0  0  0  0
  145.8156  138.1181  153.6185 H   0  0  0  0  0  0  0  0  0  0  0  0
  147.7375  137.3927  151.9902 H   0  0  0  0  0  0  0  0  0  0  0  0
  146.9686  133.0652  150.4730 H   0  0  0  0  0  0  0  0  0  0  0  0
  145.1749  131.3415  150.2274 H   0  0  0  0  0  0  0  0  0  0  0  0
  142.8602  131.8079  150.9404 H   0  0  0  0  0  0  0  0  0  0  0  0
  142.2369  134.0077  151.9318 H   0  0  0  0  0  0  0  0  0  0  0  0
  140.3023  138.4216  153.2278 H   0  0  0  0  0  0  0  0  0  0  0  0
  140.5633  136.7513  152.7761 H   0  0  0  0  0  0  0  0  0  0  0  0
  138.2822  136.1244  153.3762 H   0  0  0  0  0  0  0  0  0  0  0  0
  138.2320  137.4421  152.2372 H   0  0  0  0  0  0  0  0  0  0  0  0
  140.1588  136.1175  155.0191 H   0  0  0  0  0  0  0  0  0  0  0  0
  147.3240  135.7683  151.4164 H   0  0  0  0  0  0  0  0  0  0  0  0
  1  2  1  0  0  0  0
  1 23  1  0  0  0  0
  1 24  1  0  0  0  0
  1 25  1  0  0  0  0
  2 22  1  0  0  0  0
  2  3  1  0  0  0  0
  2 26  1  0  0  0  0
  3  4  1  0  0  0  0
  3 27  1  0  0  0  0
  3 28  1  0  0  0  0
  4  5  1  0  0  0  0
  4 29  1  0  0  0  0
  4 30  1  0  0  0  0
  5  6  1  0  0  0  0
  5 21  1  0  0  0  0
  5 48  1  0  0  0  0
  6  7  1  0  0  0  0
  6 31  1  0  0  0  0
  6 32  1  0  0  0  0
  7  8  1  0  0  0  0
  7  9  1  0  0  0  0
  7 33  1  0  0  0  0
  8 34  1  0  0  0  0
  9 10  1  0  0  0  0
  9 35  1  0  0  0  0
  9 36  1  0  0  0  0
 10 20  1  0  0  0  0
 10 11  1  0  0  0  0
 11 12  1  0  0  0  0
 11 14  2  0  0  0  0
 12 13  1  0  0  0  0
 12 37  1  0  0  0  0
 12 38  1  0  0  0  0
 13 39  1  0  0  0  0
 14 15  1  0  0  0  0
 14 49  1  0  0  0  0
 15 20  2  0  0  0  0
 15 16  1  0  0  0  0
 16 17  2  0  0  0  0
 16 40  1  0  0  0  0
 17 18  1  0  0  0  0
 17 41  1  0  0  0  0
 18 19  2  0  0  0  0
 18 42  1  0  0  0  0
 19 20  1  0  0  0  0
 19 43  1  0  0  0  0
 21 22  1  0  0  0  0
 21 44  1  0  0  0  0
 21 45  1  0  0  0  0
 22 46  1  0  0  0  0
 22 47  1  0  0  0  0
M  CHG  1   5   1
M  CHG  1  14   1
M  END
> <s_m_source_file>
AV-unprocessed.smi

> <i_m_source_file_index>
1672

> <i_lp_mmshare_version>
43012

> <i_f3d_flags>
0

> <s_epik_input>
W0NIM11bQ0hdMVtDSDJdW0NIMl1OKFtDSDJdW0NIMl0xKVtDSDJdW0NASF0oW09IXSlbQ0gyXW4oYyhuMilbQ0gyXVtPSF0pYyhjMjMpW2NIXVtjSF1bY0hdW2NIXTM=

> <s_epik_cmdline>
J2VwaWtfcHl0aG9uJywgJy1waCcsICc3LjAnLCAnLXRuJywgJzgnLCAnLW1hJywgJzIwMCcsICctbWV0YWxfYmluZGluZycsICctaW1hZScsICc8aW5maWxlLm1hZT4nLCAnLW9tYWUnLCAnPG91dGZpbGUubWFlPic=

> <r_epik_Ionization_Penalty>
1.51642

> <r_epik_Ionization_Penalty_Charging>
1.51557

> <r_epik_Ionization_Penalty_Neutral>
0.000856474

> <r_epik_State_Penalty>
1.6048

> <r_epik_Charging_Adjusted_Penalty>
3.12037

> <i_epik_Tot_Q>
2

> <i_epik_Tot_abs_Q>
2

> <r_epik_Metal_State_Penalty>
5.65673

> <b_epik_Metal_Only>
0

> <s_lp_Force_Field>
OPLS_2005

> <r_lp_Energy>
31.8272

> <b_lp_Chiralities_Consistent>
1

> <s_lp_Variant>
AV-unprocessed.smi:1672-8

> <Gold.Version>
5.8.1

> <Gold.Id.Protein>
6NUR|6NUR_protein|mol2

> <Gold.PLP.Fitness>
50.8148

> <Gold.PLP.PLP>
-42.0287

> <Gold.PLP.part.hbond>
-4.7110

> <Gold.PLP.part.metal>
0.0000

> <Gold.PLP.part.buried>
-8.6347

> <Gold.PLP.part.nonpolar>
-30.3014

> <Gold.PLP.part.repulsive>
0.1049

> <Gold.PLP.ligand.clash>
0.0000

> <Gold.PLP.ligand.torsion>
0.9934

> <Gold.PLP.Chemscore.Hbond>
3.5829

> <Gold.PLP.Chemscore.CHOScore>
0.0000

> <Gold.PLP.Chemscore.Metal>
0.0000

> <Gold.Chemscore.Hbonds>
donor molecule, donor type, donor heavy atom, donor atom, acceptor molecule, acceptor atom, score
      L1  H    13    39       P1  7948  1.00
      L1  H    14    49       P1  7948  2.00
      P1  H 11000 11005       L1     8  0.20

> <Gold.PLP.Chemscore.Internal.Correction>
0.0241

> <Gold.Rescore>
     Score         DG    S(hbond)    S(metal)    S(lipo)     H(rot)  DE(clash)    DE(int)     intcor
     16.97     -18.08       2.74        0.00      94.02       2.96       0.11       1.00       ----

> <Gold.Chemscore.Fitness>
16.9735

> <Gold.Chemscore.DG>
-18.0807

> <Gold.Chemscore.ZeroCoef>
-5.4800

> <Gold.Chemscore.Hbond>
2.7443

> <Gold.Chemscore.Metal>
0.0000

> <Gold.Chemscore.Lipo>
94.0239

> <Gold.Chemscore.Internal_Hbond>
0.0000

> <Gold.Chemscore.DEClash>
0.1102

> <Gold.Chemscore.DEInternal>
0.9970

> <Gold.Chemscore.Rot>
2.9555

> <Gold.Chemscore.Internal.Correction>
   9.000000E+99

> <Gold.Chemscore.Hbonds>
donor molecule, donor type, donor heavy atom, donor atom, acceptor molecule, acceptor atom, score
      L1  H    13    39       P1  7948  0.99
      L1  H    14    49       P1  7948  0.96
      P1  H 11000 11005       L1     8  0.20

> <Gold.Chemscore.Hbond.Weighted>
-9.1659

> <Gold.Chemscore.Metal.Weighted>
-0.0000

> <Gold.Chemscore.Lipo.Weighted>
-11.0008

> <Gold.Chemscore.Internal_Hbond.Weighted>
0.0000

> <Gold.Chemscore.DEClash.Weighted>
0.1102

> <Gold.Chemscore.DEInternal.Weighted>
0.9970

> <Gold.Chemscore.Rot.Weighted>
7.5660

> <Gold.Chemscore.Internal.Correction.Weighted>
   9.000000E+99

> <Gold.Protein.RotatedTorsions>
[ 6907 6896 6895 6894 ] final  100.87 input  -60.11 | X-H torsion
[ 7974 7965 7964 7962 ] final -145.47 input  175.53 | X-H torsion
[ 8008 7997 7996 7995 ] final -125.84 input   59.86 | X-H torsion
[ 10167 10162 10161 10158 ] final  -46.57 input  -65.29 | X-H torsion
[ 10718 10713 10712 10709 ] final -139.47 input   66.30 | X-H torsion
[ 10763 10752 10751 10750 ] final  160.15 input  -60.55 | X-H torsion
[ 11005 11000 10999 10996 ] final    3.01 input  -57.11 | X-H torsion

> <Gold.Protein.ActiveResidues>
 VAL166  LYS551  ARG553  GLY616  TRP617  ASP618  TYR619  PRO620  LYS621  CYS622 
 ASP623  PHE694  ASN695  SER759  ASP760  ASP761  ALA762  ILE779  LEU786  VAL792 
 PHE793  MET794  SER795  GLU796  ALA797  LYS798  CYS799  TRP800  GLU811  SER814 

> <Gold.Protein.RotatedAtoms>
  152.5362  134.0212  159.7982 H   0  0  0  0  0  0  0  0  0  0  0  0  # atno 6907 bound_to 6896
  151.0398  133.5708  159.2659 H   0  0  0  0  0  0  0  0  0  0  0  0  # atno 6908 bound_to 6896
  151.2682  135.0683  159.9178 H   0  0  0  0  0  0  0  0  0  0  0  0  # atno 6909 bound_to 6896
  144.8225  140.5579  143.5569 H   0  0  0  0  0  0  0  0  0  0  0  0  # atno 7974 bound_to 7965
  155.2198  140.0421  157.2946 H   0  0  0  0  0  0  0  0  0  0  0  0  # atno 8008 bound_to 7997
  154.5957  140.2438  155.7831 H   0  0  0  0  0  0  0  0  0  0  0  0  # atno 8009 bound_to 7997
  156.2288  140.2945  156.0145 H   0  0  0  0  0  0  0  0  0  0  0  0  # atno 8010 bound_to 7997
  140.6812  143.2824  151.3802 H   0  0  0  0  0  0  0  0  0  0  0  0  # atno 10167 bound_to 10162
  156.3111  130.7482  151.1558 H   0  0  0  0  0  0  0  0  0  0  0  0  # atno 10718 bound_to 10713
  154.2430  135.2774  155.2846 H   0  0  0  0  0  0  0  0  0  0  0  0  # atno 10763 bound_to 10752
  154.5529  135.5670  153.6941 H   0  0  0  0  0  0  0  0  0  0  0  0  # atno 10764 bound_to 10752
  152.9996  135.6279  154.2575 H   0  0  0  0  0  0  0  0  0  0  0  0  # atno 10765 bound_to 10752
  140.5979  133.9863  155.8118 H   0  0  0  0  0  0  0  0  0  0  0  0  # atno 11005 bound_to 11000
  145.5073  139.1480  143.3624 LP  0  0  0  0  0  0  0  0  0  0  0  0  # atno 17320 bound_to 7965
  146.2530  140.5214  142.8885 LP  0  0  0  0  0  0  0  0  0  0  0  0  # atno 17321 bound_to 7965
  139.6135  144.1049  152.2323 LP  0  0  0  0  0  0  0  0  0  0  0  0  # atno 17342 bound_to 10162
  140.0471  144.5962  150.7365 LP  0  0  0  0  0  0  0  0  0  0  0  0  # atno 17343 bound_to 10162
  157.7391  131.0533  150.5252 LP  0  0  0  0  0  0  0  0  0  0  0  0  # atno 17370 bound_to 10713
  156.5392  130.4204  149.6162 LP  0  0  0  0  0  0  0  0  0  0  0  0  # atno 17371 bound_to 10713
  141.0891  133.9944  157.3265 LP  0  0  0  0  0  0  0  0  0  0  0  0  # atno 17394 bound_to 11000
  139.9245  135.0201  156.8185 LP  0  0  0  0  0  0  0  0  0  0  0  0  # atno 17395 bound_to 11000

$$$$
