AV-unprocessed.smi:2897|AV-procd|sdf|11140|dock2
  -GOLD-   2272016 13D 1   1.00000     0.00000
 Structure written by MMmdl.
 37 39  0  0  0  0  0  0  0  0  1 V2000
  146.1859  137.5037  154.9946 O   0  0  0  0  0  0  0  0  0  0  0  0
  147.0287  137.0816  154.2042 C   0  0  0  0  0  0  0  0  0  0  0  0
  146.8060  136.0642  153.3607 N   0  0  0  0  0  0  0  0  0  0  0  0
  145.5581  135.3133  153.2629 C   0  0  0  0  0  0  0  0  0  0  0  0
  145.1328  134.8794  151.8626 C   0  0  0  0  0  0  0  0  0  0  0  0
  145.4718  135.9551  150.8286 C   0  0  0  0  0  0  0  0  0  0  0  0
  144.7883  135.7930  149.6016 O   0  0  0  0  0  0  0  0  0  0  0  0
  145.2687  133.4103  151.5089 C   0  0  0  0  0  0  0  0  0  0  0  0
  143.8984  134.0155  151.6958 C   0  0  0  0  0  0  0  0  0  0  0  0
  148.2715  137.5711  154.0548 N   0  0  0  0  0  0  0  0  0  0  0  0
  148.9113  138.6135  154.7792 C   0  0  0  0  0  0  0  0  0  0  0  0
  149.9690  139.3163  154.1646 C   0  0  0  0  0  0  0  0  0  0  0  0
  150.6328  140.3091  154.7943 N   0  0  0  0  0  0  0  0  0  0  0  0
  150.2529  140.5899  156.0437 C   0  0  0  0  0  0  0  0  0  0  0  0
  150.9616  141.7186  156.7260 C   0  0  0  0  0  0  0  0  0  0  0  0
  151.7991  141.4745  157.9648 C   0  0  0  0  0  0  0  0  0  0  0  0
  150.4978  142.2185  158.0789 C   0  0  0  0  0  0  0  0  0  0  0  0
  149.2693  139.9994  156.7277 N   0  0  0  0  0  0  0  0  0  0  0  0
  148.5980  139.0064  156.1045 C   0  0  0  0  0  0  0  0  0  0  0  0
  147.5547  135.7847  152.7439 H   0  0  0  0  0  0  0  0  0  0  0  0
  145.6684  134.4182  153.8755 H   0  0  0  0  0  0  0  0  0  0  0  0
  144.7537  135.8886  153.7250 H   0  0  0  0  0  0  0  0  0  0  0  0
  145.2237  136.9383  151.2288 H   0  0  0  0  0  0  0  0  0  0  0  0
  146.5442  135.9430  150.6315 H   0  0  0  0  0  0  0  0  0  0  0  0
  144.4639  136.6360  149.3239 H   0  0  0  0  0  0  0  0  0  0  0  0
  145.5635  133.1419  150.4966 H   0  0  0  0  0  0  0  0  0  0  0  0
  145.6232  132.7331  152.2834 H   0  0  0  0  0  0  0  0  0  0  0  0
  143.3481  133.7362  152.5918 H   0  0  0  0  0  0  0  0  0  0  0  0
  143.2877  134.1607  150.8071 H   0  0  0  0  0  0  0  0  0  0  0  0
  148.8238  137.1583  153.3175 H   0  0  0  0  0  0  0  0  0  0  0  0
  150.2851  139.0839  153.1581 H   0  0  0  0  0  0  0  0  0  0  0  0
  151.3179  142.4543  156.0073 H   0  0  0  0  0  0  0  0  0  0  0  0
  151.8332  140.4630  158.3647 H   0  0  0  0  0  0  0  0  0  0  0  0
  152.7179  142.0479  158.0689 H   0  0  0  0  0  0  0  0  0  0  0  0
  150.5450  143.2902  158.2604 H   0  0  0  0  0  0  0  0  0  0  0  0
  149.6664  141.7013  158.5542 H   0  0  0  0  0  0  0  0  0  0  0  0
  147.8268  138.5337  156.6913 H   0  0  0  0  0  0  0  0  0  0  0  0
  1  2  2  0  0  0  0
  2  3  1  0  0  0  0
  2 10  1  0  0  0  0
  3  4  1  0  0  0  0
  3 20  1  0  0  0  0
  4  5  1  0  0  0  0
  4 21  1  0  0  0  0
  4 22  1  0  0  0  0
  5  9  1  0  0  0  0
  5  6  1  0  0  0  0
  5  8  1  0  0  0  0
  6  7  1  0  0  0  0
  6 23  1  0  0  0  0
  6 24  1  0  0  0  0
  7 25  1  0  0  0  0
  8  9  1  0  0  0  0
  8 26  1  0  0  0  0
  8 27  1  0  0  0  0
  9 28  1  0  0  0  0
  9 29  1  0  0  0  0
 10 11  1  0  0  0  0
 10 30  1  0  0  0  0
 11 19  1  0  0  0  0
 11 12  2  0  0  0  0
 12 13  1  0  0  0  0
 12 31  1  0  0  0  0
 13 14  2  0  0  0  0
 14 15  1  0  0  0  0
 14 18  1  0  0  0  0
 15 17  1  0  0  0  0
 15 16  1  0  0  0  0
 15 32  1  0  0  0  0
 16 17  1  0  0  0  0
 16 33  1  0  0  0  0
 16 34  1  0  0  0  0
 17 35  1  0  0  0  0
 17 36  1  0  0  0  0
 18 19  2  0  0  0  0
 19 37  1  0  0  0  0
M  END
> <s_m_source_file>
AV-unprocessed.smi

> <i_m_source_file_index>
2897

> <i_lp_mmshare_version>
43012

> <i_f3d_flags>
0

> <s_epik_input>
W09IXVtDSDJdQzEoW0NIMl1bQ0gyXTEpW0NIMl1bTkhdQyg9TylbTkhdYzJbY0hdbmMobltjSF0yKVtDSF0zW0NIMl1bQ0gyXTM=

> <s_epik_cmdline>
J2VwaWtfcHl0aG9uJywgJy1waCcsICc3LjAnLCAnLXRuJywgJzgnLCAnLW1hJywgJzIwMCcsICctbWV0YWxfYmluZGluZycsICctaW1hZScsICc8aW5maWxlLm1hZT4nLCAnLW9tYWUnLCAnPG91dGZpbGUubWFlPic=

> <r_lp_tautomer_probability>
1

> <r_epik_Ionization_Penalty>
2.67616e-05

> <r_epik_Ionization_Penalty_Charging>
0

> <r_epik_Ionization_Penalty_Neutral>
2.67616e-05

> <r_epik_State_Penalty>
-0

> <r_epik_Charging_Adjusted_Penalty>
0

> <i_epik_Tot_Q>
0

> <i_epik_Tot_abs_Q>
0

> <r_epik_Metal_State_Penalty>
-0

> <b_epik_Metal_Only>
0

> <s_lp_Force_Field>
OPLS_2005

> <r_lp_Energy>
23.6069

> <b_lp_Chiralities_Consistent>
1

> <s_lp_Variant>
AV-unprocessed.smi:2897-1

> <Gold.Version>
5.8.1

> <Gold.Id.Protein>
6NUR|6NUR_protein|mol2

> <Gold.PLP.Fitness>
41.4980

> <Gold.PLP.PLP>
-27.6792

> <Gold.PLP.part.hbond>
-5.0000

> <Gold.PLP.part.metal>
0.0000

> <Gold.PLP.part.buried>
-3.3257

> <Gold.PLP.part.nonpolar>
-19.2515

> <Gold.PLP.part.repulsive>
0.1274

> <Gold.PLP.ligand.clash>
0.0000

> <Gold.PLP.ligand.torsion>
1.1927

> <Gold.PLP.Chemscore.Hbond>
3.9920

> <Gold.PLP.Chemscore.CHOScore>
0.9932

> <Gold.PLP.Chemscore.Metal>
0.0000

> <Gold.Chemscore.Hbonds>
donor molecule, donor type, donor heavy atom, donor atom, acceptor molecule, acceptor atom, score
      L1  H     3    20       P1  7948  0.98
      L1  H     7    25       P1 10171  0.93
      L1  H    10    30       P1  7948  1.00
      P1  H  7989  7998       L1    13  1.00
      L1  C    12    31       P1  7957  1.00

> <Gold.PLP.Chemscore.Internal.Correction>
1.2486

> <Gold.Rescore>
     Score         DG    S(hbond)    S(metal)    S(lipo)     H(rot)  DE(clash)    DE(int)     intcor
     15.19     -17.61       3.47        0.00      56.17       2.35       0.08       2.34       ----

> <Gold.Chemscore.Fitness>
15.1885

> <Gold.Chemscore.DG>
-17.6058

> <Gold.Chemscore.ZeroCoef>
-5.4800

> <Gold.Chemscore.Hbond>
3.4676

> <Gold.Chemscore.Metal>
0.0000

> <Gold.Chemscore.Lipo>
56.1725

> <Gold.Chemscore.Internal_Hbond>
0.0000

> <Gold.Chemscore.DEClash>
0.0756

> <Gold.Chemscore.DEInternal>
2.3418

> <Gold.Chemscore.Rot>
2.3547

> <Gold.Chemscore.Internal.Correction>
   9.000000E+99

> <Gold.Chemscore.Hbonds>
donor molecule, donor type, donor heavy atom, donor atom, acceptor molecule, acceptor atom, score
      L1  H     3    20       P1  7948  0.93
      L1  H     7    25       P1 10171  0.84
      L1  H    10    30       P1  7948  0.96
      P1  H  7989  7998       L1    13  0.25

> <Gold.Chemscore.Hbond.Weighted>
-11.5817

> <Gold.Chemscore.Metal.Weighted>
-0.0000

> <Gold.Chemscore.Lipo.Weighted>
-6.5722

> <Gold.Chemscore.Internal_Hbond.Weighted>
0.0000

> <Gold.Chemscore.DEClash.Weighted>
0.0756

> <Gold.Chemscore.DEInternal.Weighted>
2.3418

> <Gold.Chemscore.Rot.Weighted>
6.0281

> <Gold.Chemscore.Internal.Correction.Weighted>
   9.000000E+99

> <Gold.Protein.RotatedTorsions>
[ 6907 6896 6895 6894 ] final  111.31 input  -60.11 | X-H torsion
[ 7974 7965 7964 7962 ] final -154.88 input  175.53 | X-H torsion
[ 8008 7997 7996 7995 ] final -169.45 input   59.86 | X-H torsion
[ 10167 10162 10161 10158 ] final  -47.27 input  -65.29 | X-H torsion
[ 10718 10713 10712 10709 ] final -165.36 input   66.30 | X-H torsion
[ 10763 10752 10751 10750 ] final   46.86 input  -60.55 | X-H torsion
[ 11005 11000 10999 10996 ] final -108.02 input  -57.11 | X-H torsion

> <Gold.Protein.ActiveResidues>
 VAL166  LYS551  ARG553  GLY616  TRP617  ASP618  TYR619  PRO620  LYS621  CYS622 
 ASP623  PHE694  ASN695  SER759  ASP760  ASP761  ALA762  ILE779  LEU786  VAL792 
 PHE793  MET794  SER795  GLU796  ALA797  LYS798  CYS799  TRP800  GLU811  SER814 

> <Gold.Protein.RotatedAtoms>
  152.4976  133.8676  159.7281 H   0  0  0  0  0  0  0  0  0  0  0  0  # atno 6907 bound_to 6896
  150.9171  133.6917  159.2847 H   0  0  0  0  0  0  0  0  0  0  0  0  # atno 6908 bound_to 6896
  151.4306  135.1013  159.9693 H   0  0  0  0  0  0  0  0  0  0  0  0  # atno 6909 bound_to 6896
  144.7667  140.4327  143.5936 H   0  0  0  0  0  0  0  0  0  0  0  0  # atno 7974 bound_to 7965
  155.9051  140.1047  157.1321 H   0  0  0  0  0  0  0  0  0  0  0  0  # atno 8008 bound_to 7997
  154.4031  140.1285  156.4550 H   0  0  0  0  0  0  0  0  0  0  0  0  # atno 8009 bound_to 7997
  155.7377  140.3467  155.5091 H   0  0  0  0  0  0  0  0  0  0  0  0  # atno 8010 bound_to 7997
  140.6782  143.2792  151.3902 H   0  0  0  0  0  0  0  0  0  0  0  0  # atno 10167 bound_to 10162
  156.6523  130.9012  151.3015 H   0  0  0  0  0  0  0  0  0  0  0  0  # atno 10718 bound_to 10713
  152.9806  135.5995  154.3668 H   0  0  0  0  0  0  0  0  0  0  0  0  # atno 10763 bound_to 10752
  154.3345  135.2768  155.2456 H   0  0  0  0  0  0  0  0  0  0  0  0  # atno 10764 bound_to 10752
  154.4565  135.5976  153.6282 H   0  0  0  0  0  0  0  0  0  0  0  0  # atno 10765 bound_to 10752
  141.0924  133.9032  157.2045 H   0  0  0  0  0  0  0  0  0  0  0  0  # atno 11005 bound_to 11000
  145.6447  139.1555  143.2896 LP  0  0  0  0  0  0  0  0  0  0  0  0  # atno 17320 bound_to 7965
  146.1781  140.6541  142.9202 LP  0  0  0  0  0  0  0  0  0  0  0  0  # atno 17321 bound_to 7965
  139.6087  144.1142  152.2276 LP  0  0  0  0  0  0  0  0  0  0  0  0  # atno 17342 bound_to 10162
  140.0550  144.5902  150.7307 LP  0  0  0  0  0  0  0  0  0  0  0  0  # atno 17343 bound_to 10162
  157.7137  130.9471  150.1178 LP  0  0  0  0  0  0  0  0  0  0  0  0  # atno 17370 bound_to 10713
  156.2075  130.3664  149.8711 LP  0  0  0  0  0  0  0  0  0  0  0  0  # atno 17371 bound_to 10713
  139.9752  135.0116  156.9614 LP  0  0  0  0  0  0  0  0  0  0  0  0  # atno 17394 bound_to 11000
  140.5221  134.0897  155.7294 LP  0  0  0  0  0  0  0  0  0  0  0  0  # atno 17395 bound_to 11000

$$$$
