AV-unprocessed.smi:3117|AV-procd|sdf|11878|dock3
  -GOLD-   2272017263D 1   1.00000     0.00000
 Structure written by MMmdl.
 37 37  0  0  0  0  0  0  0  0  2 V2000
  151.5464  141.1884  156.8894 C   0  0  0  0  0  0  0  0  0  0  0  0
  150.4733  141.8599  157.7668 C   0  0  2  0  0  0  0  0  0  0  0  0
  149.2855  142.1880  156.9447 N   0  3  0  0  0  0  0  0  0  0  0  0
  148.7769  141.0959  156.0870 C   0  0  0  0  0  0  0  0  0  0  0  0
  148.0309  141.6374  154.8492 C   0  0  0  0  0  0  0  0  0  0  0  0
  147.7704  140.5027  153.8448 C   0  0  0  0  0  0  0  0  0  0  0  0
  146.7088  142.3341  155.2237 C   0  0  0  0  0  0  0  0  0  0  0  0
  148.8661  142.5764  154.2001 O   0  0  0  0  0  0  0  0  0  0  0  0
  150.9882  143.1420  158.4713 C   0  0  2  0  0  0  0  0  0  0  0  0
  151.6419  144.1531  157.5103 C   0  0  0  0  0  0  0  0  0  0  0  0
  151.9191  142.8005  159.5426 N   0  0  0  0  0  0  0  0  0  0  0  0
  153.1416  142.1630  159.4597 C   0  0  0  0  0  0  0  0  0  0  0  0
  153.6177  142.0240  160.7318 C   0  0  0  0  0  0  0  0  0  0  0  0
  152.6002  142.6039  161.5389 C   0  0  0  0  0  0  0  0  0  0  0  0
  151.5822  143.0575  160.8260 N   0  0  0  0  0  0  0  0  0  0  0  0
  152.3987  140.8548  157.4806 H   0  0  0  0  0  0  0  0  0  0  0  0
  151.9170  141.8714  156.1242 H   0  0  0  0  0  0  0  0  0  0  0  0
  151.1563  140.3057  156.3833 H   0  0  0  0  0  0  0  0  0  0  0  0
  150.1685  141.1544  158.5416 H   0  0  0  0  0  0  0  0  0  0  0  0
  148.5401  142.4287  157.5830 H   0  0  0  0  0  0  0  0  0  0  0  0
  149.6078  140.4605  155.7787 H   0  0  0  0  0  0  0  0  0  0  0  0
  148.1002  140.4703  156.6709 H   0  0  0  0  0  0  0  0  0  0  0  0
  147.1304  139.7328  154.2775 H   0  0  0  0  0  0  0  0  0  0  0  0
  148.6992  140.0216  153.5358 H   0  0  0  0  0  0  0  0  0  0  0  0
  147.2764  140.8713  152.9448 H   0  0  0  0  0  0  0  0  0  0  0  0
  146.0389  141.6509  155.7469 H   0  0  0  0  0  0  0  0  0  0  0  0
  146.1846  142.6912  154.3363 H   0  0  0  0  0  0  0  0  0  0  0  0
  146.8703  143.1963  155.8717 H   0  0  0  0  0  0  0  0  0  0  0  0
  148.9924  143.3166  154.7748 H   0  0  0  0  0  0  0  0  0  0  0  0
  150.1337  143.6449  158.9288 H   0  0  0  0  0  0  0  0  0  0  0  0
  150.9189  144.5648  156.8067 H   0  0  0  0  0  0  0  0  0  0  0  0
  152.4463  143.6972  156.9323 H   0  0  0  0  0  0  0  0  0  0  0  0
  152.0632  144.9964  158.0588 H   0  0  0  0  0  0  0  0  0  0  0  0
  153.5666  141.8619  158.5137 H   0  0  0  0  0  0  0  0  0  0  0  0
  154.5498  141.5735  161.0394 H   0  0  0  0  0  0  0  0  0  0  0  0
  152.5683  142.7023  162.6141 H   0  0  0  0  0  0  0  0  0  0  0  0
  149.4840  142.9975  156.3739 H   0  0  0  0  0  0  0  0  0  0  0  0
  1  2  1  0  0  0  0
  1 16  1  0  0  0  0
  1 17  1  0  0  0  0
  1 18  1  0  0  0  0
  2  3  1  0  0  0  0
  2  9  1  0  0  0  0
  2 19  1  0  0  0  0
  3  4  1  0  0  0  0
  3 20  1  0  0  0  0
  3 37  1  0  0  0  0
  4  5  1  0  0  0  0
  4 21  1  0  0  0  0
  4 22  1  0  0  0  0
  5  6  1  0  0  0  0
  5  7  1  0  0  0  0
  5  8  1  0  0  0  0
  6 23  1  0  0  0  0
  6 24  1  0  0  0  0
  6 25  1  0  0  0  0
  7 26  1  0  0  0  0
  7 27  1  0  0  0  0
  7 28  1  0  0  0  0
  8 29  1  0  0  0  0
  9 10  1  0  0  0  0
  9 11  1  0  0  0  0
  9 30  1  0  0  0  0
 10 31  1  0  0  0  0
 10 32  1  0  0  0  0
 10 33  1  0  0  0  0
 11 15  1  0  0  0  0
 11 12  1  0  0  0  0
 12 13  2  0  0  0  0
 12 34  1  0  0  0  0
 13 14  1  0  0  0  0
 13 35  1  0  0  0  0
 14 15  2  0  0  0  0
 14 36  1  0  0  0  0
M  CHG  1   3   1
M  END
> <s_m_source_file>
AV-unprocessed.smi

> <i_m_source_file_index>
3117

> <i_lp_mmshare_version>
43012

> <i_f3d_flags>
0

> <s_epik_input>
W0NIM11DKFtDSDNdKShbT0hdKVtDSDJdW05IXVtDQEBIXShbQ0gzXSlbQ0BIXShbQ0gzXSluMVtjSF1bY0hdW2NIXW4x

> <s_epik_cmdline>
J2VwaWtfcHl0aG9uJywgJy1waCcsICc3LjAnLCAnLXRuJywgJzgnLCAnLW1hJywgJzIwMCcsICctbWV0YWxfYmluZGluZycsICctaW1hZScsICc8aW5maWxlLm1hZT4nLCAnLW9tYWUnLCAnPG91dGZpbGUubWFlPic=

> <r_lp_tautomer_probability>
1

> <r_epik_Ionization_Penalty>
0.0164263

> <r_epik_Ionization_Penalty_Charging>
0.0164138

> <r_epik_Ionization_Penalty_Neutral>
1.24697e-05

> <r_epik_State_Penalty>
0.0129543

> <r_epik_Charging_Adjusted_Penalty>
0.0293681

> <i_epik_Tot_Q>
1

> <i_epik_Tot_abs_Q>
1

> <r_epik_Metal_State_Penalty>
0.0129806

> <b_epik_Metal_Only>
0

> <s_lp_Force_Field>
OPLS_2005

> <r_lp_Energy>
12.2787

> <b_lp_Chiralities_Consistent>
1

> <s_lp_Variant>
AV-unprocessed.smi:3117-1

> <Gold.Version>
5.8.1

> <Gold.Id.Protein>
6NUR|6NUR_protein|mol2

> <Gold.PLP.Fitness>
45.1339

> <Gold.PLP.PLP>
-36.6565

> <Gold.PLP.part.hbond>
-4.3263

> <Gold.PLP.part.metal>
0.0000

> <Gold.PLP.part.buried>
-3.3839

> <Gold.PLP.part.nonpolar>
-29.2362

> <Gold.PLP.part.repulsive>
0.1054

> <Gold.PLP.ligand.clash>
0.0000

> <Gold.PLP.ligand.torsion>
0.4300

> <Gold.PLP.Chemscore.Hbond>
3.0719

> <Gold.PLP.Chemscore.CHOScore>
0.0000

> <Gold.PLP.Chemscore.Metal>
0.0000

> <Gold.Chemscore.Hbonds>
donor molecule, donor type, donor heavy atom, donor atom, acceptor molecule, acceptor atom, score
      L1  H     3    37       P1  8028  1.92
      L1  H     8    29       P1  8028  1.00
      P1  H  8011  8017       L1     8  0.09

> <Gold.PLP.Chemscore.Internal.Correction>
0.1218

> <Gold.Rescore>
     Score         DG    S(hbond)    S(metal)    S(lipo)     H(rot)  DE(clash)    DE(int)     intcor
     16.69     -17.06       2.13        0.00      88.00       2.27       0.05       0.31       ----

> <Gold.Chemscore.Fitness>
16.6922

> <Gold.Chemscore.DG>
-17.0602

> <Gold.Chemscore.ZeroCoef>
-5.4800

> <Gold.Chemscore.Hbond>
2.1263

> <Gold.Chemscore.Metal>
0.0000

> <Gold.Chemscore.Lipo>
87.9990

> <Gold.Chemscore.Internal_Hbond>
0.0000

> <Gold.Chemscore.DEClash>
0.0530

> <Gold.Chemscore.DEInternal>
0.3149

> <Gold.Chemscore.Rot>
2.2725

> <Gold.Chemscore.Internal.Correction>
   9.000000E+99

> <Gold.Chemscore.Hbonds>
donor molecule, donor type, donor heavy atom, donor atom, acceptor molecule, acceptor atom, score
      L1  H     3    37       P1  8028  0.91
      L1  H     8    29       P1  8028  1.00
      P1  H  8011  8017       L1     8  0.10

> <Gold.Chemscore.Hbond.Weighted>
-7.1019

> <Gold.Chemscore.Metal.Weighted>
-0.0000

> <Gold.Chemscore.Lipo.Weighted>
-10.2959

> <Gold.Chemscore.Internal_Hbond.Weighted>
0.0000

> <Gold.Chemscore.DEClash.Weighted>
0.0530

> <Gold.Chemscore.DEInternal.Weighted>
0.3149

> <Gold.Chemscore.Rot.Weighted>
5.8176

> <Gold.Chemscore.Internal.Correction.Weighted>
   9.000000E+99

> <Gold.Protein.RotatedTorsions>
[ 6907 6896 6895 6894 ] final   77.61 input  -60.11 | X-H torsion
[ 7974 7965 7964 7962 ] final   37.29 input  175.53 | X-H torsion
[ 8008 7997 7996 7995 ] final  141.17 input   59.86 | X-H torsion
[ 10167 10162 10161 10158 ] final  105.57 input  -65.29 | X-H torsion
[ 10718 10713 10712 10709 ] final   -1.38 input   66.30 | X-H torsion
[ 10763 10752 10751 10750 ] final   98.09 input  -60.55 | X-H torsion
[ 11005 11000 10999 10996 ] final  178.57 input  -57.11 | X-H torsion

> <Gold.Protein.ActiveResidues>
 VAL166  LYS551  ARG553  GLY616  TRP617  ASP618  TYR619  PRO620  LYS621  CYS622 
 ASP623  PHE694  ASN695  SER759  ASP760  ASP761  ALA762  ILE779  LEU786  VAL792 
 PHE793  MET794  SER795  GLU796  ALA797  LYS798  CYS799  TRP800  GLU811  SER814 

> <Gold.Protein.RotatedAtoms>
  152.5125  134.3790  159.9344 H   0  0  0  0  0  0  0  0  0  0  0  0  # atno 6907 bound_to 6896
  151.3747  133.3836  159.2711 H   0  0  0  0  0  0  0  0  0  0  0  0  # atno 6908 bound_to 6896
  150.9551  134.8966  159.7754 H   0  0  0  0  0  0  0  0  0  0  0  0  # atno 6909 bound_to 6896
  146.1149  139.5912  142.9328 H   0  0  0  0  0  0  0  0  0  0  0  0  # atno 7974 bound_to 7965
  156.2969  140.2322  156.4522 H   0  0  0  0  0  0  0  0  0  0  0  0  # atno 8008 bound_to 7997
  154.8092  140.0444  157.1351 H   0  0  0  0  0  0  0  0  0  0  0  0  # atno 8009 bound_to 7997
  154.9443  140.3033  155.5109 H   0  0  0  0  0  0  0  0  0  0  0  0  # atno 8010 bound_to 7997
  139.7081  144.7082  151.1072 H   0  0  0  0  0  0  0  0  0  0  0  0  # atno 10167 bound_to 10162
  156.8065  130.5410  149.5714 H   0  0  0  0  0  0  0  0  0  0  0  0  # atno 10718 bound_to 10713
  153.2849  135.4160  155.1113 H   0  0  0  0  0  0  0  0  0  0  0  0  # atno 10763 bound_to 10752
  154.8501  135.3504  154.6061 H   0  0  0  0  0  0  0  0  0  0  0  0  # atno 10764 bound_to 10752
  153.6483  135.7054  153.5275 H   0  0  0  0  0  0  0  0  0  0  0  0  # atno 10765 bound_to 10752
  140.3966  134.6815  157.4538 H   0  0  0  0  0  0  0  0  0  0  0  0  # atno 11005 bound_to 11000
  145.5588  141.0406  143.2237 LP  0  0  0  0  0  0  0  0  0  0  0  0  # atno 17320 bound_to 7965
  144.7544  139.7112  143.7260 LP  0  0  0  0  0  0  0  0  0  0  0  0  # atno 17321 bound_to 7965
  140.7726  143.5330  150.9401 LP  0  0  0  0  0  0  0  0  0  0  0  0  # atno 17342 bound_to 10162
  139.9014  143.6831  152.3130 LP  0  0  0  0  0  0  0  0  0  0  0  0  # atno 17343 bound_to 10162
  156.1070  130.6012  150.9987 LP  0  0  0  0  0  0  0  0  0  0  0  0  # atno 17370 bound_to 10713
  157.6528  131.0894  150.8014 LP  0  0  0  0  0  0  0  0  0  0  0  0  # atno 17371 bound_to 10713
  140.0367  134.6326  155.9034 LP  0  0  0  0  0  0  0  0  0  0  0  0  # atno 17394 bound_to 11000
  141.1872  133.6559  156.5271 LP  0  0  0  0  0  0  0  0  0  0  0  0  # atno 17395 bound_to 11000

$$$$
