AV-unprocessed.smi:131|AV-procd|sdf|1162|dock3
  -GOLD-   2262018303D 1   1.00000     0.00000
 Structure written by MMmdl.
 55 58  0  0  0  0  0  0  0  0  1 V2000
  149.8378  138.6740  156.9990 O   0  0  0  0  0  0  0  0  0  0  0  0
  150.8083  138.0460  156.5782 C   0  0  0  0  0  0  0  0  0  0  0  0
  152.2132  138.6319  156.8110 C   0  0  0  0  0  0  0  0  0  0  0  0
  152.2849  139.7297  157.8036 N   0  0  0  0  0  0  0  0  0  0  0  0
  152.9737  139.5016  159.0209 C   0  0  0  0  0  0  0  0  0  0  0  0
  153.5128  138.4194  159.2555 O   0  0  0  0  0  0  0  0  0  0  0  0
  153.0048  140.6273  159.9478 C   0  0  0  0  0  0  0  0  0  0  0  0
  153.6386  140.5014  161.1259 F   0  0  0  0  0  0  0  0  0  0  0  0
  152.4102  141.7983  159.6399 C   0  0  0  0  0  0  0  0  0  0  0  0
  151.7409  142.0077  158.4470 N   0  0  0  0  0  0  0  0  0  0  0  0
  151.0901  143.3340  158.1101 C   0  0  1  0  0  0  0  0  0  0  0  0
  150.1889  143.8080  159.2672 C   0  0  0  0  0  0  0  0  0  0  0  0
  150.6866  145.2164  159.5273 C   0  0  0  0  0  0  0  0  0  0  0  0
  152.1431  145.1211  159.1002 C   0  0  0  0  0  0  0  0  0  0  0  0
  152.0723  144.3147  157.9319 O   0  0  0  0  0  0  0  0  0  0  0  0
  151.6775  140.9695  157.4923 C   0  0  0  0  0  0  0  0  0  0  0  0
  151.1114  141.1449  156.4112 O   0  0  0  0  0  0  0  0  0  0  0  0
  150.7176  136.8827  155.9031 N   0  0  0  0  0  0  0  0  0  0  0  0
  149.5548  136.1395  155.5691 C   0  0  0  0  0  0  0  0  0  0  0  0
  149.6853  134.7364  155.4910 C   0  0  0  0  0  0  0  0  0  0  0  0
  148.5726  133.9307  155.1808 C   0  0  0  0  0  0  0  0  0  0  0  0
  147.3183  134.5329  154.9635 C   0  0  0  0  0  0  0  0  0  0  0  0
  145.9008  133.5251  154.5490 S   0  0  0  0  0  0  0  0  0  0  0  0
  145.4316  132.8165  155.7503 O   0  0  0  0  0  0  0  0  0  0  0  0
  144.9740  134.3624  153.7713 O   0  0  0  0  0  0  0  0  0  0  0  0
  146.5751  132.3521  153.4687 N   0  0  0  0  0  0  0  0  0  0  0  0
  146.2279  132.4046  152.0432 C   0  0  0  0  0  0  0  0  0  0  0  0
  145.9012  130.9640  151.6463 C   0  0  0  0  0  0  0  0  0  0  0  0
  146.7297  130.1328  152.6163 C   0  0  0  0  0  0  0  0  0  0  0  0
  146.6878  130.9546  153.9040 C   0  0  0  0  0  0  0  0  0  0  0  0
  147.1695  135.9300  155.0551 C   0  0  0  0  0  0  0  0  0  0  0  0
  148.2848  136.7326  155.3632 C   0  0  0  0  0  0  0  0  0  0  0  0
  152.8763  137.8130  157.0938 H   0  0  0  0  0  0  0  0  0  0  0  0
  152.6055  138.9572  155.8462 H   0  0  0  0  0  0  0  0  0  0  0  0
  152.4754  142.5920  160.3683 H   0  0  0  0  0  0  0  0  0  0  0  0
  150.5618  143.1713  157.1688 H   0  0  0  0  0  0  0  0  0  0  0  0
  149.1368  143.7709  158.9832 H   0  0  0  0  0  0  0  0  0  0  0  0
  150.3411  143.1821  160.1480 H   0  0  0  0  0  0  0  0  0  0  0  0
  150.1565  145.9262  158.8910 H   0  0  0  0  0  0  0  0  0  0  0  0
  150.5650  145.5284  160.5650 H   0  0  0  0  0  0  0  0  0  0  0  0
  152.5874  146.0943  158.8903 H   0  0  0  0  0  0  0  0  0  0  0  0
  152.7412  144.6257  159.8664 H   0  0  0  0  0  0  0  0  0  0  0  0
  151.5833  136.5255  155.5256 H   0  0  0  0  0  0  0  0  0  0  0  0
  150.6455  134.2713  155.6616 H   0  0  0  0  0  0  0  0  0  0  0  0
  148.6874  132.8591  155.1142 H   0  0  0  0  0  0  0  0  0  0  0  0
  145.3840  133.0717  151.8631 H   0  0  0  0  0  0  0  0  0  0  0  0
  147.0863  132.7812  151.4860 H   0  0  0  0  0  0  0  0  0  0  0  0
  144.8399  130.7678  151.8054 H   0  0  0  0  0  0  0  0  0  0  0  0
  146.1304  130.7506  150.6018 H   0  0  0  0  0  0  0  0  0  0  0  0
  146.3424  129.1219  152.7467 H   0  0  0  0  0  0  0  0  0  0  0  0
  147.7566  130.0575  152.2565 H   0  0  0  0  0  0  0  0  0  0  0  0
  147.5731  130.8096  154.5237 H   0  0  0  0  0  0  0  0  0  0  0  0
  145.8101  130.6847  154.4922 H   0  0  0  0  0  0  0  0  0  0  0  0
  146.2035  136.3862  154.8946 H   0  0  0  0  0  0  0  0  0  0  0  0
  148.1408  137.7984  155.4501 H   0  0  0  0  0  0  0  0  0  0  0  0
  1  2  2  0  0  0  0
  2  3  1  0  0  0  0
  2 18  1  0  0  0  0
  3  4  1  0  0  0  0
  3 33  1  0  0  0  0
  3 34  1  0  0  0  0
  4 16  1  0  0  0  0
  4  5  1  0  0  0  0
  5  6  2  0  0  0  0
  5  7  1  0  0  0  0
  7  8  1  0  0  0  0
  7  9  2  0  0  0  0
  9 10  1  0  0  0  0
  9 35  1  0  0  0  0
 10 11  1  0  0  0  0
 10 16  1  0  0  0  0
 11 15  1  0  0  0  0
 11 12  1  0  0  0  0
 11 36  1  0  0  0  0
 12 13  1  0  0  0  0
 12 37  1  0  0  0  0
 12 38  1  0  0  0  0
 13 14  1  0  0  0  0
 13 39  1  0  0  0  0
 13 40  1  0  0  0  0
 14 15  1  0  0  0  0
 14 41  1  0  0  0  0
 14 42  1  0  0  0  0
 16 17  2  0  0  0  0
 18 19  1  0  0  0  0
 18 43  1  0  0  0  0
 19 32  1  0  0  0  0
 19 20  2  0  0  0  0
 20 21  1  0  0  0  0
 20 44  1  0  0  0  0
 21 22  2  0  0  0  0
 21 45  1  0  0  0  0
 22 23  1  0  0  0  0
 22 31  1  0  0  0  0
 23 24  2  0  0  0  0
 23 25  2  0  0  0  0
 23 26  1  0  0  0  0
 26 30  1  0  0  0  0
 26 27  1  0  0  0  0
 27 28  1  0  0  0  0
 27 46  1  0  0  0  0
 27 47  1  0  0  0  0
 28 29  1  0  0  0  0
 28 48  1  0  0  0  0
 28 49  1  0  0  0  0
 29 30  1  0  0  0  0
 29 50  1  0  0  0  0
 29 51  1  0  0  0  0
 30 52  1  0  0  0  0
 30 53  1  0  0  0  0
 31 32  2  0  0  0  0
 31 54  1  0  0  0  0
 32 55  1  0  0  0  0
M  END
> <s_m_source_file>
AV-unprocessed.smi

> <i_m_source_file_index>
131

> <i_lp_mmshare_version>
43012

> <i_f3d_flags>
0

> <s_epik_input>
W0NIMl0xW0NIMl1bQ0gyXVtDSDJdTjFTKD1PKSg9TyljKFtjSF1bY0hdMilbY0hdW2NIXWMyW05IXUMoPU8pW0NIMl1uM2MoPU8pYyhGKVtjSF1uKGMzPU8pW0NAQEhdNFtDSDJdW0NIMl1bQ0gyXU80

> <s_epik_cmdline>
J2VwaWtfcHl0aG9uJywgJy1waCcsICc3LjAnLCAnLXRuJywgJzgnLCAnLW1hJywgJzIwMCcsICctbWV0YWxfYmluZGluZycsICctaW1hZScsICc8aW5maWxlLm1hZT4nLCAnLW9tYWUnLCAnPG91dGZpbGUubWFlPic=

> <r_lp_tautomer_probability>
1

> <r_epik_Ionization_Penalty>
1.92533e-06

> <r_epik_Ionization_Penalty_Charging>
3.88729e-08

> <r_epik_Ionization_Penalty_Neutral>
1.88646e-06

> <r_epik_State_Penalty>
-0

> <r_epik_Charging_Adjusted_Penalty>
3.88729e-08

> <i_epik_Tot_Q>
0

> <i_epik_Tot_abs_Q>
0

> <r_epik_Metal_State_Penalty>
-0

> <b_epik_Metal_Only>
0

> <s_epik_Chemistry_Notes>
This compound contains an acetal/aminal-like group ( X-CH(R)-Y where X, Y are N, S, or O) that may be acid/base labile, releasing an aldehyde.

> <s_lp_Force_Field>
OPLS_2005

> <r_lp_Energy>
42.789

> <b_lp_Chiralities_Consistent>
1

> <s_lp_Variant>
AV-unprocessed.smi:131-2

> <Gold.Version>
5.8.1

> <Gold.Id.Protein>
6NUR|6NUR_protein|mol2

> <Gold.PLP.Fitness>
41.3946

> <Gold.PLP.PLP>
-42.8149

> <Gold.PLP.part.hbond>
0.0000

> <Gold.PLP.part.metal>
0.0000

> <Gold.PLP.part.buried>
-7.7129

> <Gold.PLP.part.nonpolar>
-35.3524

> <Gold.PLP.part.repulsive>
0.5269

> <Gold.PLP.ligand.clash>
0.0000

> <Gold.PLP.ligand.torsion>
2.0339

> <Gold.PLP.Chemscore.Hbond>
0.0000

> <Gold.PLP.Chemscore.CHOScore>
0.0000

> <Gold.PLP.Chemscore.Metal>
0.0000

> <Gold.PLP.Chemscore.Internal.Correction>
2.6476

> <Gold.Rescore>
     Score         DG    S(hbond)    S(metal)    S(lipo)     H(rot)  DE(clash)    DE(int)     intcor
      7.04     -12.27       0.00        0.00      99.94       1.92       0.05       5.18       ----

> <Gold.Chemscore.Fitness>
7.0369

> <Gold.Chemscore.DG>
-12.2671

> <Gold.Chemscore.ZeroCoef>
-5.4800

> <Gold.Chemscore.Hbond>
0.0000

> <Gold.Chemscore.Metal>
0.0000

> <Gold.Chemscore.Lipo>
99.9440

> <Gold.Chemscore.Internal_Hbond>
0.0000

> <Gold.Chemscore.DEClash>
0.0522

> <Gold.Chemscore.DEInternal>
5.1779

> <Gold.Chemscore.Rot>
1.9166

> <Gold.Chemscore.Internal.Correction>
   9.000000E+99

> <Gold.Chemscore.Hbond.Weighted>
-0.0000

> <Gold.Chemscore.Metal.Weighted>
-0.0000

> <Gold.Chemscore.Lipo.Weighted>
-11.6934

> <Gold.Chemscore.Internal_Hbond.Weighted>
0.0000

> <Gold.Chemscore.DEClash.Weighted>
0.0522

> <Gold.Chemscore.DEInternal.Weighted>
5.1779

> <Gold.Chemscore.Rot.Weighted>
4.9064

> <Gold.Chemscore.Internal.Correction.Weighted>
   9.000000E+99

> <Gold.Protein.RotatedTorsions>
[ 6907 6896 6895 6894 ] final -117.45 input  -60.11 | X-H torsion
[ 7974 7965 7964 7962 ] final  -68.92 input  175.53 | X-H torsion
[ 8008 7997 7996 7995 ] final  153.89 input   59.86 | X-H torsion
[ 10167 10162 10161 10158 ] final -128.62 input  -65.29 | X-H torsion
[ 10718 10713 10712 10709 ] final  -54.82 input   66.30 | X-H torsion
[ 10763 10752 10751 10750 ] final   20.34 input  -60.55 | X-H torsion
[ 11005 11000 10999 10996 ] final -132.71 input  -57.11 | X-H torsion

> <Gold.Protein.ActiveResidues>
 VAL166  LYS551  ARG553  GLY616  TRP617  ASP618  TYR619  PRO620  LYS621  CYS622 
 ASP623  PHE694  ASN695  SER759  ASP760  ASP761  ALA762  ILE779  LEU786  VAL792 
 PHE793  MET794  SER795  GLU796  ALA797  LYS798  CYS799  TRP800  GLU811  SER814 

> <Gold.Protein.RotatedAtoms>
  150.8138  133.8374  159.3169 H   0  0  0  0  0  0  0  0  0  0  0  0  # atno 6907 bound_to 6896
  151.6152  135.1035  160.0099 H   0  0  0  0  0  0  0  0  0  0  0  0  # atno 6908 bound_to 6896
  152.4229  133.7106  159.6533 H   0  0  0  0  0  0  0  0  0  0  0  0  # atno 6909 bound_to 6896
  145.7104  140.9081  143.0684 H   0  0  0  0  0  0  0  0  0  0  0  0  # atno 7974 bound_to 7965
  156.2559  140.1981  156.6561 H   0  0  0  0  0  0  0  0  0  0  0  0  # atno 8008 bound_to 7997
  154.6499  140.0573  156.9969 H   0  0  0  0  0  0  0  0  0  0  0  0  # atno 8009 bound_to 7997
  155.1433  140.3244  155.4450 H   0  0  0  0  0  0  0  0  0  0  0  0  # atno 8010 bound_to 7997
  139.9484  143.6084  152.2483 H   0  0  0  0  0  0  0  0  0  0  0  0  # atno 10167 bound_to 10162
  156.1419  130.4154  150.0089 H   0  0  0  0  0  0  0  0  0  0  0  0  # atno 10718 bound_to 10713
  153.1085  135.6691  153.9542 H   0  0  0  0  0  0  0  0  0  0  0  0  # atno 10763 bound_to 10752
  153.9092  135.3027  155.3450 H   0  0  0  0  0  0  0  0  0  0  0  0  # atno 10764 bound_to 10752
  154.7506  135.5036  153.9359 H   0  0  0  0  0  0  0  0  0  0  0  0  # atno 10765 bound_to 10752
  140.9146  134.1524  157.4363 H   0  0  0  0  0  0  0  0  0  0  0  0  # atno 11005 bound_to 11000
  144.6943  139.9066  143.7461 LP  0  0  0  0  0  0  0  0  0  0  0  0  # atno 17320 bound_to 7965
  146.0718  139.3707  143.0518 LP  0  0  0  0  0  0  0  0  0  0  0  0  # atno 17321 bound_to 7965
  139.6648  144.7662  151.1894 LP  0  0  0  0  0  0  0  0  0  0  0  0  # atno 17342 bound_to 10162
  140.7590  143.5954  150.8753 LP  0  0  0  0  0  0  0  0  0  0  0  0  # atno 17343 bound_to 10162
  156.7972  130.9277  151.3646 LP  0  0  0  0  0  0  0  0  0  0  0  0  # atno 17370 bound_to 10713
  157.6583  130.8943  149.9775 LP  0  0  0  0  0  0  0  0  0  0  0  0  # atno 17371 bound_to 10713
  139.8763  134.9948  156.5715 LP  0  0  0  0  0  0  0  0  0  0  0  0  # atno 17394 bound_to 11000
  140.8066  133.8462  155.8773 LP  0  0  0  0  0  0  0  0  0  0  0  0  # atno 17395 bound_to 11000

$$$$
