AV-unprocessed.smi:38|AV-procd|sdf|344|dock10
  -GOLD-   2262016183D 1   1.00000     0.00000
 Structure written by MMmdl.
 27 28  0  0  0  0  0  0  0  0  2 V2000
  153.0015  141.4707  159.0039 O   0  0  0  0  0  0  0  0  0  0  0  0
  152.2511  141.2585  158.0525 C   0  0  0  0  0  0  0  0  0  0  0  0
  152.4640  140.2536  157.1545 N   0  5  0  0  0  0  0  0  0  0  0  0
  151.6316  140.0211  156.0975 C   0  0  0  0  0  0  0  0  0  0  0  0
  151.8180  139.1192  155.2800 O   0  0  0  0  0  0  0  0  0  0  0  0
  150.4940  140.8556  155.9196 N   0  0  0  0  0  0  0  0  0  0  0  0
  149.5759  140.5931  154.7431 C   0  0  2  0  0  0  0  0  0  0  0  0
  149.1320  141.9158  154.0995 C   0  0  0  0  0  0  0  0  0  0  0  0
  147.6324  141.7290  153.9764 C   0  0  2  0  0  0  0  0  0  0  0  0
  146.9610  142.9715  154.0206 O   0  0  0  0  0  0  0  0  0  0  0  0
  147.3187  140.8496  155.1866 C   0  0  1  0  0  0  0  0  0  0  0  0
  145.9978  140.0756  155.0594 C   0  0  0  0  0  0  0  0  0  0  0  0
  145.9789  139.3393  153.8549 O   0  0  0  0  0  0  0  0  0  0  0  0
  148.4166  139.9414  155.1784 O   0  0  0  0  0  0  0  0  0  0  0  0
  150.2521  141.8829  156.8178 C   0  0  0  0  0  0  0  0  0  0  0  0
  151.0781  142.1092  157.8601 C   0  0  0  0  0  0  0  0  0  0  0  0
  150.8179  143.1141  158.7144 F   0  0  0  0  0  0  0  0  0  0  0  0
  150.1275  139.9309  154.0736 H   0  0  0  0  0  0  0  0  0  0  0  0
  147.3956  141.2045  153.0495 H   0  0  0  0  0  0  0  0  0  0  0  0
  147.3410  141.4528  156.0966 H   0  0  0  0  0  0  0  0  0  0  0  0
  149.3686  142.7474  154.7664 H   0  0  0  0  0  0  0  0  0  0  0  0
  149.6309  142.0761  153.1434 H   0  0  0  0  0  0  0  0  0  0  0  0
  147.5825  143.6387  154.2690 H   0  0  0  0  0  0  0  0  0  0  0  0
  145.9016  139.3626  155.8785 H   0  0  0  0  0  0  0  0  0  0  0  0
  145.1389  140.7452  155.1100 H   0  0  0  0  0  0  0  0  0  0  0  0
  145.2298  139.6123  153.3478 H   0  0  0  0  0  0  0  0  0  0  0  0
  149.3929  142.5249  156.6986 H   0  0  0  0  0  0  0  0  0  0  0  0
  1  2  2  0  0  0  0
  2 16  1  0  0  0  0
  2  3  1  0  0  0  0
  3  4  1  0  0  0  0
  4  5  2  0  0  0  0
  4  6  1  0  0  0  0
  6  7  1  0  0  0  0
  6 15  1  0  0  0  0
  7 18  1  0  0  0  0
  7 14  1  0  0  0  0
  7  8  1  0  0  0  0
  8  9  1  0  0  0  0
  8 21  1  0  0  0  0
  8 22  1  0  0  0  0
  9 19  1  0  0  0  0
  9 10  1  0  0  0  0
  9 11  1  0  0  0  0
 10 23  1  0  0  0  0
 11 20  1  0  0  0  0
 11 12  1  0  0  0  0
 11 14  1  0  0  0  0
 12 13  1  0  0  0  0
 12 24  1  0  0  0  0
 12 25  1  0  0  0  0
 13 26  1  0  0  0  0
 15 16  2  0  0  0  0
 15 27  1  0  0  0  0
 16 17  1  0  0  0  0
M  CHG  1   3  -1
M  END
> <s_m_source_file>
AV-unprocessed.smi

> <i_m_source_file_index>
38

> <i_lp_mmshare_version>
43012

> <i_f3d_flags>
0

> <s_epik_input>
Tz1jMVtuSF1jKD1PKW4oW2NIXWMxRilbQ0BIXTJbQ0gyXVtDQEhdKFtPSF0pW0NASF0oTzIpW0NIMl1bT0hd

> <s_epik_cmdline>
J2VwaWtfcHl0aG9uJywgJy1waCcsICc3LjAnLCAnLXRuJywgJzgnLCAnLW1hJywgJzIwMCcsICctbWV0YWxfYmluZGluZycsICctaW1hZScsICc8aW5maWxlLm1hZT4nLCAnLW9tYWUnLCAnPG91dGZpbGUubWFlPic=

> <r_epik_Ionization_Penalty>
1.68146

> <r_epik_Ionization_Penalty_Charging>
3.4211e-08

> <r_epik_Ionization_Penalty_Neutral>
1.68146

> <r_epik_State_Penalty>
1.78593

> <r_epik_Charging_Adjusted_Penalty>
1.78593

> <i_epik_Tot_Q>
-1

> <i_epik_Tot_abs_Q>
1

> <r_epik_Metal_State_Penalty>
0.0113696

> <b_epik_Metal_Only>
0

> <s_epik_Chemistry_Notes>
This compound contains an acetal/aminal-like group ( X-CH(R)-Y where X, Y are N, S, or O) that may be acid/base labile, releasing an aldehyde.

> <s_lp_Force_Field>
OPLS_2005

> <r_lp_Energy>
37.5177

> <b_lp_Chiralities_Consistent>
1

> <s_lp_Variant>
AV-unprocessed.smi:38-10

> <Gold.Version>
5.8.1

> <Gold.Id.Protein>
6NUR|6NUR_protein|mol2

> <Gold.PLP.Fitness>
38.1262

> <Gold.PLP.PLP>
-24.1078

> <Gold.PLP.part.hbond>
-3.9336

> <Gold.PLP.part.metal>
0.0000

> <Gold.PLP.part.buried>
2.5561

> <Gold.PLP.part.nonpolar>
-19.6600

> <Gold.PLP.part.repulsive>
0.0684

> <Gold.PLP.ligand.clash>
0.0000

> <Gold.PLP.ligand.torsion>
0.4972

> <Gold.PLP.Chemscore.Hbond>
4.0000

> <Gold.PLP.Chemscore.CHOScore>
0.9989

> <Gold.PLP.Chemscore.Metal>
0.0000

> <Gold.Chemscore.Hbonds>
donor molecule, donor type, donor heavy atom, donor atom, acceptor molecule, acceptor atom, score
      L1  H    10    23       P1  8028  0.75
      L1  H    13    26       P1 10175  1.00
      P1  H  7997  8009       L1     3  2.00
      L1  C    15    27       P1  8028  1.00

> <Gold.PLP.Chemscore.Internal.Correction>
0.0161

> <Gold.Rescore>
     Score         DG    S(hbond)    S(metal)    S(lipo)     H(rot)  DE(clash)    DE(int)     intcor
      7.67      -9.72       2.24        0.00      35.21       2.88       2.01       0.03       ----

> <Gold.Chemscore.Fitness>
7.6711

> <Gold.Chemscore.DG>
-9.7161

> <Gold.Chemscore.ZeroCoef>
-5.4800

> <Gold.Chemscore.Hbond>
2.2433

> <Gold.Chemscore.Metal>
0.0000

> <Gold.Chemscore.Lipo>
35.2130

> <Gold.Chemscore.Internal_Hbond>
0.0000

> <Gold.Chemscore.DEClash>
2.0111

> <Gold.Chemscore.DEInternal>
0.0339

> <Gold.Chemscore.Rot>
2.8815

> <Gold.Chemscore.Internal.Correction>
   9.000000E+99

> <Gold.Chemscore.Hbonds>
donor molecule, donor type, donor heavy atom, donor atom, acceptor molecule, acceptor atom, score
      L1  H    10    23       P1  8028  0.22
      L1  H    13    26       P1 10175  0.98
      P1  H  7997  8009       L1     3  0.59

> <Gold.Chemscore.Hbond.Weighted>
-7.4927

> <Gold.Chemscore.Metal.Weighted>
-0.0000

> <Gold.Chemscore.Lipo.Weighted>
-4.1199

> <Gold.Chemscore.Internal_Hbond.Weighted>
0.0000

> <Gold.Chemscore.DEClash.Weighted>
2.0111

> <Gold.Chemscore.DEInternal.Weighted>
0.0339

> <Gold.Chemscore.Rot.Weighted>
7.3765

> <Gold.Chemscore.Internal.Correction.Weighted>
   9.000000E+99

> <Gold.Protein.RotatedTorsions>
[ 6907 6896 6895 6894 ] final   89.15 input  -60.11 | X-H torsion
[ 7974 7965 7964 7962 ] final  146.51 input  175.53 | X-H torsion
[ 8008 7997 7996 7995 ] final -175.60 input   59.86 | X-H torsion
[ 10167 10162 10161 10158 ] final   52.38 input  -65.29 | X-H torsion
[ 10718 10713 10712 10709 ] final   34.09 input   66.30 | X-H torsion
[ 10763 10752 10751 10750 ] final   -3.02 input  -60.55 | X-H torsion
[ 11005 11000 10999 10996 ] final    6.47 input  -57.11 | X-H torsion

> <Gold.Protein.ActiveResidues>
 VAL166  LYS551  ARG553  GLY616  TRP617  ASP618  TYR619  PRO620  LYS621  CYS622 
 ASP623  PHE694  ASN695  SER759  ASP760  ASP761  ALA762  ILE779  LEU786  VAL792 
 PHE793  MET794  SER795  GLU796  ALA797  LYS798  CYS799  TRP800  GLU811  SER814 

> <Gold.Protein.RotatedAtoms>
  152.5433  134.2010  159.8711 H   0  0  0  0  0  0  0  0  0  0  0  0  # atno 6907 bound_to 6896
  151.1999  133.4610  159.2603 H   0  0  0  0  0  0  0  0  0  0  0  0  # atno 6908 bound_to 6896
  151.1000  134.9979  159.8499 H   0  0  0  0  0  0  0  0  0  0  0  0  # atno 6909 bound_to 6896
  144.8665  139.5914  143.5906 H   0  0  0  0  0  0  0  0  0  0  0  0  # atno 7974 bound_to 7965
  155.9846  140.1188  157.0695 H   0  0  0  0  0  0  0  0  0  0  0  0  # atno 8008 bound_to 7997
  154.4193  140.1138  156.5550 H   0  0  0  0  0  0  0  0  0  0  0  0  # atno 8009 bound_to 7997
  155.6425  140.3473  155.4722 H   0  0  0  0  0  0  0  0  0  0  0  0  # atno 8010 bound_to 7997
  140.2520  144.3469  150.6345 H   0  0  0  0  0  0  0  0  0  0  0  0  # atno 10167 bound_to 10162
  157.3060  130.7375  149.6696 H   0  0  0  0  0  0  0  0  0  0  0  0  # atno 10718 bound_to 10713
  153.3657  135.6992  153.6677 H   0  0  0  0  0  0  0  0  0  0  0  0  # atno 10763 bound_to 10752
  153.5347  135.3585  155.2692 H   0  0  0  0  0  0  0  0  0  0  0  0  # atno 10764 bound_to 10752
  154.8674  135.4189  154.2925 H   0  0  0  0  0  0  0  0  0  0  0  0  # atno 10765 bound_to 10752
  140.5591  134.0210  155.7965 H   0  0  0  0  0  0  0  0  0  0  0  0  # atno 11005 bound_to 11000
  146.2900  139.7111  142.9168 LP  0  0  0  0  0  0  0  0  0  0  0  0  # atno 17320 bound_to 7965
  145.4211  141.0406  143.2963 LP  0  0  0  0  0  0  0  0  0  0  0  0  # atno 17321 bound_to 7965
  140.6033  143.2167  151.7029 LP  0  0  0  0  0  0  0  0  0  0  0  0  # atno 17342 bound_to 10162
  139.5043  144.3758  152.0425 LP  0  0  0  0  0  0  0  0  0  0  0  0  # atno 17343 bound_to 10162
  155.9674  130.4265  150.4704 LP  0  0  0  0  0  0  0  0  0  0  0  0  # atno 17370 bound_to 10713
  157.2693  131.0584  151.2270 LP  0  0  0  0  0  0  0  0  0  0  0  0  # atno 17371 bound_to 10713
  141.1126  133.9593  157.2883 LP  0  0  0  0  0  0  0  0  0  0  0  0  # atno 17394 bound_to 11000
  139.9417  135.0190  156.8728 LP  0  0  0  0  0  0  0  0  0  0  0  0  # atno 17395 bound_to 11000

$$$$
