AV-unprocessed.smi:1982|AV-procd|sdf|8024|dock4
  -GOLD-   2272010213D 1   1.00000     0.00000
 Structure written by MMmdl.
 36 37  0  0  0  0  0  0  0  0  1 V2000
  152.4268  144.5739  157.9579 C   0  0  0  0  0  0  0  0  0  0  0  0
  151.3422  143.9387  158.8522 C   0  0  2  0  0  0  0  0  0  0  0  0
  151.2876  144.6085  160.2405 C   0  0  0  0  0  0  0  0  0  0  0  0
  152.4848  144.2181  161.1211 C   0  0  0  0  0  0  0  0  0  0  0  0
  152.5936  142.6938  161.2621 C   0  0  0  0  0  0  0  0  0  0  0  0
  152.6594  141.9917  159.8921 C   0  0  1  0  0  0  0  0  0  0  0  0
  152.6850  140.5455  160.1117 N   0  0  0  0  0  0  0  0  0  0  0  0
  153.6548  139.7044  159.7191 C   0  0  0  0  0  0  0  0  0  0  0  0
  154.6557  140.0669  159.0989 O   0  0  0  0  0  0  0  0  0  0  0  0
  153.4404  138.2316  160.0880 C   0  0  0  0  0  0  0  0  0  0  0  0
  153.2078  137.3872  158.9290 N   0  0  0  0  0  0  0  0  0  0  0  0
  153.9836  137.1024  157.8809 C   0  0  0  0  0  0  0  0  0  0  0  0
  153.3840  136.2740  157.0395 N   0  0  0  0  0  0  0  0  0  0  0  0
  152.1556  136.0514  157.6390 N   0  0  0  0  0  0  0  0  0  0  0  0
  152.0450  136.7096  158.7602 N   0  0  0  0  0  0  0  0  0  0  0  0
  151.4584  142.3970  158.9966 C   0  0  2  0  0  0  0  0  0  0  0  0
  151.4507  141.6796  157.6320 C   0  0  0  0  0  0  0  0  0  0  0  0
  153.4329  144.3816  158.3288 H   0  0  0  0  0  0  0  0  0  0  0  0
  152.2995  145.6554  157.9035 H   0  0  0  0  0  0  0  0  0  0  0  0
  152.3742  144.1990  156.9360 H   0  0  0  0  0  0  0  0  0  0  0  0
  150.3882  144.1480  158.3663 H   0  0  0  0  0  0  0  0  0  0  0  0
  151.2396  145.6929  160.1362 H   0  0  0  0  0  0  0  0  0  0  0  0
  150.3657  144.3147  160.7443 H   0  0  0  0  0  0  0  0  0  0  0  0
  153.4076  144.6156  160.6977 H   0  0  0  0  0  0  0  0  0  0  0  0
  152.3817  144.6726  162.1068 H   0  0  0  0  0  0  0  0  0  0  0  0
  153.4766  142.4438  161.8515 H   0  0  0  0  0  0  0  0  0  0  0  0
  151.7342  142.3255  161.8244 H   0  0  0  0  0  0  0  0  0  0  0  0
  153.5805  142.3075  159.4002 H   0  0  0  0  0  0  0  0  0  0  0  0
  151.9008  140.1541  160.6130 H   0  0  0  0  0  0  0  0  0  0  0  0
  154.3109  137.8605  160.6317 H   0  0  0  0  0  0  0  0  0  0  0  0
  152.5814  138.1462  160.7546 H   0  0  0  0  0  0  0  0  0  0  0  0
  154.9788  137.4968  157.7381 H   0  0  0  0  0  0  0  0  0  0  0  0
  150.5537  142.0704  159.5127 H   0  0  0  0  0  0  0  0  0  0  0  0
  152.3841  141.8363  157.0912 H   0  0  0  0  0  0  0  0  0  0  0  0
  150.6342  142.0376  157.0044 H   0  0  0  0  0  0  0  0  0  0  0  0
  151.3176  140.6039  157.7471 H   0  0  0  0  0  0  0  0  0  0  0  0
  1  2  1  0  0  0  0
  1 18  1  0  0  0  0
  1 19  1  0  0  0  0
  1 20  1  0  0  0  0
  2 16  1  0  0  0  0
  2  3  1  0  0  0  0
  2 21  1  0  0  0  0
  3  4  1  0  0  0  0
  3 22  1  0  0  0  0
  3 23  1  0  0  0  0
  4  5  1  0  0  0  0
  4 24  1  0  0  0  0
  4 25  1  0  0  0  0
  5  6  1  0  0  0  0
  5 26  1  0  0  0  0
  5 27  1  0  0  0  0
  6  7  1  0  0  0  0
  6 16  1  0  0  0  0
  6 28  1  0  0  0  0
  7  8  1  0  0  0  0
  7 29  1  0  0  0  0
  8  9  2  0  0  0  0
  8 10  1  0  0  0  0
 10 11  1  0  0  0  0
 10 30  1  0  0  0  0
 10 31  1  0  0  0  0
 11 15  1  0  0  0  0
 11 12  1  0  0  0  0
 12 13  2  0  0  0  0
 12 32  1  0  0  0  0
 13 14  1  0  0  0  0
 14 15  2  0  0  0  0
 16 17  1  0  0  0  0
 16 33  1  0  0  0  0
 17 34  1  0  0  0  0
 17 35  1  0  0  0  0
 17 36  1  0  0  0  0
M  END
> <s_m_source_file>
AV-unprocessed.smi

> <i_m_source_file_index>
1982

> <i_lp_mmshare_version>
43012

> <i_f3d_flags>
0

> <s_epik_input>
W0NIM11bQ0BASF0xW0NIMl1bQ0gyXVtDSDJdW0NASF0oW0NASF0xW0NIM10pW05IXUMoPU8pW0NIMl1uMltjSF1ubm4y

> <s_epik_cmdline>
J2VwaWtfcHl0aG9uJywgJy1waCcsICc3LjAnLCAnLXRuJywgJzgnLCAnLW1hJywgJzIwMCcsICctbWV0YWxfYmluZGluZycsICctaW1hZScsICc8aW5maWxlLm1hZT4nLCAnLW9tYWUnLCAnPG91dGZpbGUubWFlPic=

> <r_lp_tautomer_probability>
1

> <r_epik_Ionization_Penalty>
5.03816e-07

> <r_epik_Ionization_Penalty_Charging>
0

> <r_epik_Ionization_Penalty_Neutral>
5.03816e-07

> <r_epik_State_Penalty>
-0

> <r_epik_Charging_Adjusted_Penalty>
0

> <i_epik_Tot_Q>
0

> <i_epik_Tot_abs_Q>
0

> <r_epik_Metal_State_Penalty>
-0

> <b_epik_Metal_Only>
0

> <s_lp_Force_Field>
OPLS_2005

> <r_lp_Energy>
16.2726

> <b_lp_Chiralities_Consistent>
1

> <s_lp_Variant>
AV-unprocessed.smi:1982-5

> <Gold.Version>
5.8.1

> <Gold.Id.Protein>
6NUR|6NUR_protein|mol2

> <Gold.PLP.Fitness>
41.7540

> <Gold.PLP.PLP>
-33.5339

> <Gold.PLP.part.hbond>
-3.8294

> <Gold.PLP.part.metal>
0.0000

> <Gold.PLP.part.buried>
-4.3123

> <Gold.PLP.part.nonpolar>
-25.5735

> <Gold.PLP.part.repulsive>
0.1454

> <Gold.PLP.ligand.clash>
0.0000

> <Gold.PLP.ligand.torsion>
0.0680

> <Gold.PLP.Chemscore.Hbond>
2.7840

> <Gold.PLP.Chemscore.CHOScore>
0.0000

> <Gold.PLP.Chemscore.Metal>
0.0000

> <Gold.Chemscore.Hbonds>
donor molecule, donor type, donor heavy atom, donor atom, acceptor molecule, acceptor atom, score
      P1  H  6896  6909       L1    15  0.66
      P1  H  7997  8009       L1     9  1.00
      P1  H 10752 10763       L1    13  1.00

> <Gold.PLP.Chemscore.Internal.Correction>
0.0041

> <Gold.Rescore>
     Score         DG    S(hbond)    S(metal)    S(lipo)     H(rot)  DE(clash)    DE(int)     intcor
     18.21     -18.39       2.17        0.00      90.02       1.91       0.15       0.03       ----

> <Gold.Chemscore.Fitness>
18.2127

> <Gold.Chemscore.DG>
-18.3891

> <Gold.Chemscore.ZeroCoef>
-5.4800

> <Gold.Chemscore.Hbond>
2.1723

> <Gold.Chemscore.Metal>
0.0000

> <Gold.Chemscore.Lipo>
90.0221

> <Gold.Chemscore.Internal_Hbond>
0.0000

> <Gold.Chemscore.DEClash>
0.1475

> <Gold.Chemscore.DEInternal>
0.0289

> <Gold.Chemscore.Rot>
1.9058

> <Gold.Chemscore.Internal.Correction>
   9.000000E+99

> <Gold.Chemscore.Hbonds>
donor molecule, donor type, donor heavy atom, donor atom, acceptor molecule, acceptor atom, score
      P1  H  6896  6909       L1    15  0.12
      P1  H  7997  8009       L1     9  0.94
      P1  H 10752 10763       L1    13  0.92

> <Gold.Chemscore.Hbond.Weighted>
-7.2554

> <Gold.Chemscore.Metal.Weighted>
-0.0000

> <Gold.Chemscore.Lipo.Weighted>
-10.5326

> <Gold.Chemscore.Internal_Hbond.Weighted>
0.0000

> <Gold.Chemscore.DEClash.Weighted>
0.1475

> <Gold.Chemscore.DEInternal.Weighted>
0.0289

> <Gold.Chemscore.Rot.Weighted>
4.8788

> <Gold.Chemscore.Internal.Correction.Weighted>
   9.000000E+99

> <Gold.Protein.RotatedTorsions>
[ 6907 6896 6895 6894 ] final  111.44 input  -60.11 | X-H torsion
[ 7974 7965 7964 7962 ] final   41.53 input  175.53 | X-H torsion
[ 8008 7997 7996 7995 ] final  119.94 input   59.86 | X-H torsion
[ 10167 10162 10161 10158 ] final  -48.21 input  -65.29 | X-H torsion
[ 10718 10713 10712 10709 ] final  115.40 input   66.30 | X-H torsion
[ 10763 10752 10751 10750 ] final  127.78 input  -60.55 | X-H torsion
[ 11005 11000 10999 10996 ] final   73.55 input  -57.11 | X-H torsion

> <Gold.Protein.ActiveResidues>
 VAL166  LYS551  ARG553  GLY616  TRP617  ASP618  TYR619  PRO620  LYS621  CYS622 
 ASP623  PHE694  ASN695  SER759  ASP760  ASP761  ALA762  ILE779  LEU786  VAL792 
 PHE793  MET794  SER795  GLU796  ALA797  LYS798  CYS799  TRP800  GLU811  SER814 

> <Gold.Protein.RotatedAtoms>
  152.4969  133.8657  159.7272 H   0  0  0  0  0  0  0  0  0  0  0  0  # atno 6907 bound_to 6896
  150.9157  133.6933  159.2850 H   0  0  0  0  0  0  0  0  0  0  0  0  # atno 6908 bound_to 6896
  151.4327  135.1016  159.9699 H   0  0  0  0  0  0  0  0  0  0  0  0  # atno 6909 bound_to 6896
  146.0816  139.5405  142.9533 H   0  0  0  0  0  0  0  0  0  0  0  0  # atno 7974 bound_to 7965
  156.2619  140.2842  156.1071 H   0  0  0  0  0  0  0  0  0  0  0  0  # atno 8008 bound_to 7997
  155.1298  140.0393  157.2789 H   0  0  0  0  0  0  0  0  0  0  0  0  # atno 8009 bound_to 7997
  154.6608  140.2566  155.7117 H   0  0  0  0  0  0  0  0  0  0  0  0  # atno 8010 bound_to 7997
  140.6741  143.2750  151.4038 H   0  0  0  0  0  0  0  0  0  0  0  0  # atno 10167 bound_to 10162
  157.6224  131.1012  150.7324 H   0  0  0  0  0  0  0  0  0  0  0  0  # atno 10718 bound_to 10713
  153.7150  135.3262  155.3254 H   0  0  0  0  0  0  0  0  0  0  0  0  # atno 10763 bound_to 10752
  154.8373  135.4486  154.1275 H   0  0  0  0  0  0  0  0  0  0  0  0  # atno 10764 bound_to 10752
  153.2380  135.6967  153.7895 H   0  0  0  0  0  0  0  0  0  0  0  0  # atno 10765 bound_to 10752
  139.9434  134.7356  156.1040 H   0  0  0  0  0  0  0  0  0  0  0  0  # atno 11005 bound_to 11000
  145.6207  141.0323  143.1916 LP  0  0  0  0  0  0  0  0  0  0  0  0  # atno 17320 bound_to 7965
  144.7297  139.7764  143.7352 LP  0  0  0  0  0  0  0  0  0  0  0  0  # atno 17321 bound_to 7965
  139.6024  144.1268  152.2212 LP  0  0  0  0  0  0  0  0  0  0  0  0  # atno 17342 bound_to 10162
  140.0656  144.5821  150.7230 LP  0  0  0  0  0  0  0  0  0  0  0  0  # atno 17343 bound_to 10162
  156.7678  130.4819  149.5424 LP  0  0  0  0  0  0  0  0  0  0  0  0  # atno 17370 bound_to 10713
  156.1377  130.6223  151.0423 LP  0  0  0  0  0  0  0  0  0  0  0  0  # atno 17371 bound_to 10713
  141.1077  133.6654  156.2903 LP  0  0  0  0  0  0  0  0  0  0  0  0  # atno 17394 bound_to 11000
  140.5894  134.5666  157.5496 LP  0  0  0  0  0  0  0  0  0  0  0  0  # atno 17395 bound_to 11000

$$$$
