AV-unprocessed.smi:3021|AV-procd|sdf|11498|dock2
  -GOLD-   2272016433D 1   1.00000     0.00000
 Structure written by MMmdl.
 35 37  0  0  0  0  0  0  0  0  1 V2000
  150.5672  139.6270  154.0941 O   0  0  0  0  0  0  0  0  0  0  0  0
  151.2402  139.4304  155.3225 C   0  0  2  0  0  0  0  0  0  0  0  0
  150.4733  138.3709  156.1283 C   0  0  0  0  0  0  0  0  0  0  0  0
  150.6043  137.1206  155.4730 O   0  0  0  0  0  0  0  0  0  0  0  0
  150.3403  136.0179  156.3260 C   0  0  0  0  0  0  0  0  0  0  0  0
  150.1714  134.8025  155.4698 C   0  0  0  0  0  0  0  0  0  0  0  0
  150.8372  133.6093  155.4101 C   0  0  0  0  0  0  0  0  0  0  0  0
  150.2071  132.8454  154.3890 C   0  0  0  0  0  0  0  0  0  0  0  0
  149.2008  133.6281  153.9001 C   0  0  0  0  0  0  0  0  0  0  0  0
  149.1640  134.8236  154.5483 O   0  0  0  0  0  0  0  0  0  0  0  0
  151.3257  140.7765  156.0683 C   0  0  0  0  0  0  0  0  0  0  0  0
  152.0913  140.6801  157.2990 N   0  0  0  0  0  0  0  0  0  0  0  0
  152.9753  139.6545  157.4562 N   0  0  0  0  0  0  0  0  0  0  0  0
  153.5473  139.7720  158.6171 N   0  0  0  0  0  0  0  0  0  0  0  0
  153.0323  140.8988  159.2362 C   0  0  0  0  0  0  0  0  0  0  0  0
  153.2998  141.4890  160.4915 C   0  0  0  0  0  0  0  0  0  0  0  0
  152.6225  142.6633  160.8871 C   0  0  0  0  0  0  0  0  0  0  0  0
  152.9777  143.3559  162.4298 Cl  0  0  0  0  0  0  0  0  0  0  0  0
  151.6680  143.2611  160.0291 C   0  0  0  0  0  0  0  0  0  0  0  0
  150.8307  144.6979  160.4974 Cl  0  0  0  0  0  0  0  0  0  0  0  0
  151.3916  142.6832  158.7739 C   0  0  0  0  0  0  0  0  0  0  0  0
  152.0759  141.5144  158.4000 C   0  0  0  0  0  0  0  0  0  0  0  0
  150.0425  138.8609  153.9170 H   0  0  0  0  0  0  0  0  0  0  0  0
  152.2505  139.0720  155.1199 H   0  0  0  0  0  0  0  0  0  0  0  0
  150.9059  138.2816  157.1261 H   0  0  0  0  0  0  0  0  0  0  0  0
  149.4252  138.6497  156.2531 H   0  0  0  0  0  0  0  0  0  0  0  0
  151.1639  135.8707  157.0256 H   0  0  0  0  0  0  0  0  0  0  0  0
  149.4334  136.1935  156.9061 H   0  0  0  0  0  0  0  0  0  0  0  0
  151.6757  133.3212  156.0268 H   0  0  0  0  0  0  0  0  0  0  0  0
  150.4579  131.8496  154.0549 H   0  0  0  0  0  0  0  0  0  0  0  0
  148.4535  133.4971  153.1314 H   0  0  0  0  0  0  0  0  0  0  0  0
  151.7802  141.5382  155.4332 H   0  0  0  0  0  0  0  0  0  0  0  0
  150.3254  141.1358  156.3145 H   0  0  0  0  0  0  0  0  0  0  0  0
  154.0279  141.0387  161.1499 H   0  0  0  0  0  0  0  0  0  0  0  0
  150.6682  143.1309  158.1085 H   0  0  0  0  0  0  0  0  0  0  0  0
  1  2  1  0  0  0  0
  1 23  1  0  0  0  0
  2  3  1  0  0  0  0
  2 11  1  0  0  0  0
  2 24  1  0  0  0  0
  3  4  1  0  0  0  0
  3 25  1  0  0  0  0
  3 26  1  0  0  0  0
  4  5  1  0  0  0  0
  5  6  1  0  0  0  0
  5 27  1  0  0  0  0
  5 28  1  0  0  0  0
  6 10  1  0  0  0  0
  6  7  2  0  0  0  0
  7  8  1  0  0  0  0
  7 29  1  0  0  0  0
  8  9  2  0  0  0  0
  8 30  1  0  0  0  0
  9 10  1  0  0  0  0
  9 31  1  0  0  0  0
 11 12  1  0  0  0  0
 11 32  1  0  0  0  0
 11 33  1  0  0  0  0
 12 22  1  0  0  0  0
 12 13  1  0  0  0  0
 13 14  2  0  0  0  0
 14 15  1  0  0  0  0
 15 22  2  0  0  0  0
 15 16  1  0  0  0  0
 16 17  2  0  0  0  0
 16 34  1  0  0  0  0
 17 18  1  0  0  0  0
 17 19  1  0  0  0  0
 19 20  1  0  0  0  0
 19 21  2  0  0  0  0
 21 22  1  0  0  0  0
 21 35  1  0  0  0  0
M  END
> <s_m_source_file>
AV-unprocessed.smi

> <i_m_source_file_index>
3021

> <i_lp_mmshare_version>
43012

> <i_f3d_flags>
0

> <s_epik_input>
W2NIXTFjKENsKWMoQ2wpW2NIXWMoYzEyKW4obm4yKVtDSDJdW0NASF0oW09IXSlbQ0gyXU9bQ0gyXWMzW2NIXVtjSF1bY0hdbzM=

> <s_epik_cmdline>
J2VwaWtfcHl0aG9uJywgJy1waCcsICc3LjAnLCAnLXRuJywgJzgnLCAnLW1hJywgJzIwMCcsICctbWV0YWxfYmluZGluZycsICctaW1hZScsICc8aW5maWxlLm1hZT4nLCAnLW9tYWUnLCAnPG91dGZpbGUubWFlPic=

> <r_lp_tautomer_probability>
1

> <r_epik_Ionization_Penalty>
6.1367e-06

> <r_epik_Ionization_Penalty_Charging>
0

> <r_epik_Ionization_Penalty_Neutral>
6.1367e-06

> <r_epik_State_Penalty>
-0

> <r_epik_Charging_Adjusted_Penalty>
0

> <i_epik_Tot_Q>
0

> <i_epik_Tot_abs_Q>
0

> <r_epik_Metal_State_Penalty>
-0

> <b_epik_Metal_Only>
0

> <s_lp_Force_Field>
OPLS_2005

> <r_lp_Energy>
8.1305

> <b_lp_Chiralities_Consistent>
1

> <s_lp_Variant>
AV-unprocessed.smi:3021-1

> <Gold.Version>
5.8.1

> <Gold.Id.Protein>
6NUR|6NUR_protein|mol2

> <Gold.PLP.Fitness>
48.3075

> <Gold.PLP.PLP>
-43.2206

> <Gold.PLP.part.hbond>
-3.6131

> <Gold.PLP.part.metal>
0.0000

> <Gold.PLP.part.buried>
-5.9899

> <Gold.PLP.part.nonpolar>
-34.2055

> <Gold.PLP.part.repulsive>
0.5950

> <Gold.PLP.ligand.clash>
0.0000

> <Gold.PLP.ligand.torsion>
0.4802

> <Gold.PLP.Chemscore.Hbond>
1.9500

> <Gold.PLP.Chemscore.CHOScore>
0.0000

> <Gold.PLP.Chemscore.Metal>
0.0000

> <Gold.Chemscore.Hbonds>
donor molecule, donor type, donor heavy atom, donor atom, acceptor molecule, acceptor atom, score
      P1  H  7989  7998       L1     1  0.85
      P1  H  7997  8008       L1    13  0.80

> <Gold.PLP.Chemscore.Internal.Correction>
0.1972

> <Gold.Rescore>
     Score         DG    S(hbond)    S(metal)    S(lipo)     H(rot)  DE(clash)    DE(int)     intcor
     16.57     -17.27       1.12        0.00     122.77       2.46       0.16       0.54       ----

> <Gold.Chemscore.Fitness>
16.5722

> <Gold.Chemscore.DG>
-17.2683

> <Gold.Chemscore.ZeroCoef>
-5.4800

> <Gold.Chemscore.Hbond>
1.1179

> <Gold.Chemscore.Metal>
0.0000

> <Gold.Chemscore.Lipo>
122.7698

> <Gold.Chemscore.Internal_Hbond>
0.0000

> <Gold.Chemscore.DEClash>
0.1605

> <Gold.Chemscore.DEInternal>
0.5355

> <Gold.Chemscore.Rot>
2.4647

> <Gold.Chemscore.Internal.Correction>
   9.000000E+99

> <Gold.Chemscore.Hbonds>
donor molecule, donor type, donor heavy atom, donor atom, acceptor molecule, acceptor atom, score
      P1  H  7989  7998       L1     1  0.15
      P1  H  7997  8008       L1    13  0.06

> <Gold.Chemscore.Hbond.Weighted>
-3.7338

> <Gold.Chemscore.Metal.Weighted>
-0.0000

> <Gold.Chemscore.Lipo.Weighted>
-14.3641

> <Gold.Chemscore.Internal_Hbond.Weighted>
0.0000

> <Gold.Chemscore.DEClash.Weighted>
0.1605

> <Gold.Chemscore.DEInternal.Weighted>
0.5355

> <Gold.Chemscore.Rot.Weighted>
6.3097

> <Gold.Chemscore.Internal.Correction.Weighted>
   9.000000E+99

> <Gold.Protein.RotatedTorsions>
[ 6907 6896 6895 6894 ] final   56.02 input  -60.11 | X-H torsion
[ 7974 7965 7964 7962 ] final  116.27 input  175.53 | X-H torsion
[ 8008 7997 7996 7995 ] final  -52.40 input   59.86 | X-H torsion
[ 10167 10162 10161 10158 ] final   -7.78 input  -65.29 | X-H torsion
[ 10718 10713 10712 10709 ] final -123.16 input   66.30 | X-H torsion
[ 10763 10752 10751 10750 ] final  136.72 input  -60.55 | X-H torsion
[ 11005 11000 10999 10996 ] final  138.38 input  -57.11 | X-H torsion

> <Gold.Protein.ActiveResidues>
 VAL166  LYS551  ARG553  GLY616  TRP617  ASP618  TYR619  PRO620  LYS621  CYS622 
 ASP623  PHE694  ASN695  SER759  ASP760  ASP761  ALA762  ILE779  LEU786  VAL792 
 PHE793  MET794  SER795  GLU796  ALA797  LYS798  CYS799  TRP800  GLU811  SER814 

> <Gold.Protein.RotatedAtoms>
  152.3596  134.6891  160.0211 H   0  0  0  0  0  0  0  0  0  0  0  0  # atno 6907 bound_to 6896
  151.7219  133.3309  159.3325 H   0  0  0  0  0  0  0  0  0  0  0  0  # atno 6908 bound_to 6896
  150.7595  134.6375  159.6263 H   0  0  0  0  0  0  0  0  0  0  0  0  # atno 6909 bound_to 6896
  145.1816  139.3047  143.4415 H   0  0  0  0  0  0  0  0  0  0  0  0  # atno 7974 bound_to 7965
  154.4106  140.1225  156.4985 H   0  0  0  0  0  0  0  0  0  0  0  0  # atno 8008 bound_to 7997
  155.6918  140.3495  155.4877 H   0  0  0  0  0  0  0  0  0  0  0  0  # atno 8009 bound_to 7997
  155.9462  140.1096  157.1005 H   0  0  0  0  0  0  0  0  0  0  0  0  # atno 8010 bound_to 7997
  140.7039  143.6043  150.8767 H   0  0  0  0  0  0  0  0  0  0  0  0  # atno 10167 bound_to 10162
  156.1479  130.6513  150.9870 H   0  0  0  0  0  0  0  0  0  0  0  0  # atno 10718 bound_to 10713
  153.8612  135.3067  155.3438 H   0  0  0  0  0  0  0  0  0  0  0  0  # atno 10763 bound_to 10752
  154.7848  135.4816  153.9925 H   0  0  0  0  0  0  0  0  0  0  0  0  # atno 10764 bound_to 10752
  153.1460  135.6834  153.9048 H   0  0  0  0  0  0  0  0  0  0  0  0  # atno 10765 bound_to 10752
  140.0180  134.9410  157.0415 H   0  0  0  0  0  0  0  0  0  0  0  0  # atno 11005 bound_to 11000
  146.3452  140.1998  142.8589 LP  0  0  0  0  0  0  0  0  0  0  0  0  # atno 17320 bound_to 7965
  145.0130  140.8730  143.5212 LP  0  0  0  0  0  0  0  0  0  0  0  0  # atno 17321 bound_to 7965
  139.9767  143.5997  152.2956 LP  0  0  0  0  0  0  0  0  0  0  0  0  # atno 17342 bound_to 10162
  139.6603  144.7662  151.1976 LP  0  0  0  0  0  0  0  0  0  0  0  0  # atno 17343 bound_to 10162
  157.6632  131.0877  150.7789 LP  0  0  0  0  0  0  0  0  0  0  0  0  # atno 17370 bound_to 10713
  156.7860  130.4874  149.5393 LP  0  0  0  0  0  0  0  0  0  0  0  0  # atno 17371 bound_to 10713
  140.4437  134.1654  155.7176 LP  0  0  0  0  0  0  0  0  0  0  0  0  # atno 17394 bound_to 11000
  141.1755  133.8522  157.1434 LP  0  0  0  0  0  0  0  0  0  0  0  0  # atno 17395 bound_to 11000

$$$$
