AV-unprocessed.smi:2562|AV-procd|sdf|10055|dock1
  -GOLD-   2272014 93D 1   1.00000     0.00000
 Structure written by MMmdl.
 29 30  0  0  0  0  0  0  0  0  2 V2000
  152.8381  142.7593  160.6716 C   0  0  0  0  0  0  0  0  0  0  0  0
  152.2947  142.3700  159.2927 C   0  0  0  0  0  0  0  0  0  0  0  0
  152.1479  140.8517  159.1222 C   0  0  0  0  0  0  0  0  0  0  0  0
  151.8830  140.4651  157.6834 C   0  0  0  0  0  0  0  0  0  0  0  0
  152.7358  139.8124  156.8740 N   0  5  0  0  0  0  0  0  0  0  0  0
  152.1668  139.6020  155.7045 N   0  0  0  0  0  0  0  0  0  0  0  0
  150.9329  140.1209  155.8079 C   0  0  0  0  0  0  0  0  0  0  0  0
  149.9062  140.1408  154.6926 C   0  0  1  0  0  0  0  0  0  0  0  0
  149.5741  138.7119  154.2160 C   0  0  0  0  0  0  0  0  0  0  0  0
  148.5738  138.7424  153.1485 N   0  0  0  0  0  0  0  0  0  0  0  0
  147.3797  139.4754  153.5624 C   0  0  0  0  0  0  0  0  0  0  0  0
  147.7617  140.8850  154.0450 C   0  0  0  0  0  0  0  0  0  0  0  0
  148.7019  140.7820  155.1082 O   0  0  0  0  0  0  0  0  0  0  0  0
  150.7479  140.6631  157.0204 N   0  0  0  0  0  0  0  0  0  0  0  0
  152.9267  143.8419  160.7626 H   0  0  0  0  0  0  0  0  0  0  0  0
  153.8254  142.3288  160.8409 H   0  0  0  0  0  0  0  0  0  0  0  0
  152.1782  142.4111  161.4665 H   0  0  0  0  0  0  0  0  0  0  0  0
  151.3266  142.8480  159.1390 H   0  0  0  0  0  0  0  0  0  0  0  0
  152.9581  142.7611  158.5205 H   0  0  0  0  0  0  0  0  0  0  0  0
  153.0528  140.3454  159.4600 H   0  0  0  0  0  0  0  0  0  0  0  0
  151.3297  140.4805  159.7401 H   0  0  0  0  0  0  0  0  0  0  0  0
  150.3390  140.7099  153.8676 H   0  0  0  0  0  0  0  0  0  0  0  0
  150.4785  138.2149  153.8639 H   0  0  0  0  0  0  0  0  0  0  0  0
  149.2006  138.1237  155.0553 H   0  0  0  0  0  0  0  0  0  0  0  0
  148.3199  137.7930  152.8954 H   0  0  0  0  0  0  0  0  0  0  0  0
  146.6737  139.5398  152.7344 H   0  0  0  0  0  0  0  0  0  0  0  0
  146.8741  138.9383  154.3657 H   0  0  0  0  0  0  0  0  0  0  0  0
  148.1750  141.4810  153.2296 H   0  0  0  0  0  0  0  0  0  0  0  0
  146.8776  141.4099  154.4066 H   0  0  0  0  0  0  0  0  0  0  0  0
  1  2  1  0  0  0  0
  1 15  1  0  0  0  0
  1 16  1  0  0  0  0
  1 17  1  0  0  0  0
  2  3  1  0  0  0  0
  2 18  1  0  0  0  0
  2 19  1  0  0  0  0
  3 20  1  0  0  0  0
  3 21  1  0  0  0  0
  3  4  1  0  0  0  0
  4 14  2  0  0  0  0
  4  5  1  0  0  0  0
  5  6  1  0  0  0  0
  6  7  2  0  0  0  0
  7 14  1  0  0  0  0
  7  8  1  0  0  0  0
  8 13  1  0  0  0  0
  8  9  1  0  0  0  0
  8 22  1  0  0  0  0
  9 10  1  0  0  0  0
  9 23  1  0  0  0  0
  9 24  1  0  0  0  0
 10 11  1  0  0  0  0
 10 25  1  0  0  0  0
 11 12  1  0  0  0  0
 11 26  1  0  0  0  0
 11 27  1  0  0  0  0
 12 13  1  0  0  0  0
 12 28  1  0  0  0  0
 12 29  1  0  0  0  0
M  CHG  1   5  -1
M  END
> <s_m_source_file>
AV-unprocessed.smi

> <i_m_source_file_index>
2562

> <i_lp_mmshare_version>
43012

> <i_f3d_flags>
0

> <s_epik_input>
W0NIM11bQ0gyXVtDSDJdYzFuW25IXWMobjEpW0NAQEhdMltDSDJdW05IXVtDSDJdW0NIMl1PMg==

> <s_epik_cmdline>
J2VwaWtfcHl0aG9uJywgJy1waCcsICc3LjAnLCAnLXRuJywgJzgnLCAnLW1hJywgJzIwMCcsICctbWV0YWxfYmluZGluZycsICctaW1hZScsICc8aW5maWxlLm1hZT4nLCAnLW9tYWUnLCAnPG91dGZpbGUubWFlPic=

> <r_epik_Ionization_Penalty>
15.949

> <r_epik_Ionization_Penalty_Charging>
14.3757

> <r_epik_Ionization_Penalty_Neutral>
1.5733

> <r_epik_State_Penalty>
7.02775

> <r_epik_Charging_Adjusted_Penalty>
21.4034

> <i_epik_Tot_Q>
-1

> <i_epik_Tot_abs_Q>
1

> <r_epik_Metal_State_Penalty>
3.10311

> <b_epik_Metal_Only>
1

> <s_lp_Force_Field>
OPLS_2005

> <r_lp_Energy>
11.7076

> <b_lp_Chiralities_Consistent>
1

> <s_lp_Variant>
AV-unprocessed.smi:2562-14

> <Gold.Version>
5.8.1

> <Gold.Id.Protein>
6NUR|6NUR_protein|mol2

> <Gold.PLP.Fitness>
35.9294

> <Gold.PLP.PLP>
-27.5139

> <Gold.PLP.part.hbond>
-2.8027

> <Gold.PLP.part.metal>
0.0000

> <Gold.PLP.part.buried>
-1.1405

> <Gold.PLP.part.nonpolar>
-22.4161

> <Gold.PLP.part.repulsive>
0.1231

> <Gold.PLP.ligand.clash>
0.0000

> <Gold.PLP.ligand.torsion>
0.1463

> <Gold.PLP.Chemscore.Hbond>
2.8960

> <Gold.PLP.Chemscore.CHOScore>
0.0000

> <Gold.PLP.Chemscore.Metal>
0.0000

> <Gold.Chemscore.Hbonds>
donor molecule, donor type, donor heavy atom, donor atom, acceptor molecule, acceptor atom, score
      L1  H    10    25       P1  7948  0.82
      P1  H  7997  8010       L1     5  2.00

> <Gold.PLP.Chemscore.Internal.Correction>
0.0201

> <Gold.Rescore>
     Score         DG    S(hbond)    S(metal)    S(lipo)     H(rot)  DE(clash)    DE(int)     intcor
     14.25     -14.51       1.86        0.00      55.78       1.44       0.05       0.22       ----

> <Gold.Chemscore.Fitness>
14.2495

> <Gold.Chemscore.DG>
-14.5125

> <Gold.Chemscore.ZeroCoef>
-5.4800

> <Gold.Chemscore.Hbond>
1.8572

> <Gold.Chemscore.Metal>
0.0000

> <Gold.Chemscore.Lipo>
55.7818

> <Gold.Chemscore.Internal_Hbond>
0.0000

> <Gold.Chemscore.DEClash>
0.0466

> <Gold.Chemscore.DEInternal>
0.2165

> <Gold.Chemscore.Rot>
1.4441

> <Gold.Chemscore.Internal.Correction>
   9.000000E+99

> <Gold.Chemscore.Hbonds>
donor molecule, donor type, donor heavy atom, donor atom, acceptor molecule, acceptor atom, score
      L1  H    10    25       P1  7948  0.80
      P1  H  7997  8010       L1     5  0.30

> <Gold.Chemscore.Hbond.Weighted>
-6.2030

> <Gold.Chemscore.Metal.Weighted>
-0.0000

> <Gold.Chemscore.Lipo.Weighted>
-6.5265

> <Gold.Chemscore.Internal_Hbond.Weighted>
0.0000

> <Gold.Chemscore.DEClash.Weighted>
0.0466

> <Gold.Chemscore.DEInternal.Weighted>
0.2165

> <Gold.Chemscore.Rot.Weighted>
3.6969

> <Gold.Chemscore.Internal.Correction.Weighted>
   9.000000E+99

> <Gold.Protein.RotatedTorsions>
[ 6907 6896 6895 6894 ] final -167.03 input  -60.11 | X-H torsion
[ 7974 7965 7964 7962 ] final  -84.23 input  175.53 | X-H torsion
[ 8008 7997 7996 7995 ] final   75.66 input   59.86 | X-H torsion
[ 10167 10162 10161 10158 ] final  174.09 input  -65.29 | X-H torsion
[ 10718 10713 10712 10709 ] final -105.55 input   66.30 | X-H torsion
[ 10763 10752 10751 10750 ] final -110.65 input  -60.55 | X-H torsion
[ 11005 11000 10999 10996 ] final   59.32 input  -57.11 | X-H torsion

> <Gold.Protein.ActiveResidues>
 VAL166  LYS551  ARG553  GLY616  TRP617  ASP618  TYR619  PRO620  LYS621  CYS622 
 ASP623  PHE694  ASN695  SER759  ASP760  ASP761  ALA762  ILE779  LEU786  VAL792 
 PHE793  MET794  SER795  GLU796  ALA797  LYS798  CYS799  TRP800  GLU811  SER814 

> <Gold.Protein.RotatedAtoms>
  151.4531  133.3612  159.2797 H   0  0  0  0  0  0  0  0  0  0  0  0  # atno 6907 bound_to 6896
  150.9077  134.8494  159.7415 H   0  0  0  0  0  0  0  0  0  0  0  0  # atno 6908 bound_to 6896
  152.4915  134.4458  159.9610 H   0  0  0  0  0  0  0  0  0  0  0  0  # atno 6909 bound_to 6896
  145.5094  140.9541  143.1716 H   0  0  0  0  0  0  0  0  0  0  0  0  # atno 7974 bound_to 7965
  155.8161  140.3471  155.5486 H   0  0  0  0  0  0  0  0  0  0  0  0  # atno 8008 bound_to 7997
  155.8390  140.0938  157.1766 H   0  0  0  0  0  0  0  0  0  0  0  0  # atno 8009 bound_to 7997
  154.4005  140.1398  156.3693 H   0  0  0  0  0  0  0  0  0  0  0  0  # atno 8010 bound_to 7997
  139.5130  144.3186  152.0224 H   0  0  0  0  0  0  0  0  0  0  0  0  # atno 10167 bound_to 10162
  156.0351  130.5569  150.7555 H   0  0  0  0  0  0  0  0  0  0  0  0  # atno 10718 bound_to 10713
  154.8259  135.4556  154.0918 H   0  0  0  0  0  0  0  0  0  0  0  0  # atno 10763 bound_to 10752
  153.2233  135.6896  153.7981 H   0  0  0  0  0  0  0  0  0  0  0  0  # atno 10764 bound_to 10752
  153.7391  135.3315  155.3277 H   0  0  0  0  0  0  0  0  0  0  0  0  # atno 10765 bound_to 10752
  140.0312  134.6009  155.9504 H   0  0  0  0  0  0  0  0  0  0  0  0  # atno 11005 bound_to 11000
  144.7736  139.6680  143.7184 LP  0  0  0  0  0  0  0  0  0  0  0  0  # atno 17320 bound_to 7965
  146.2176  139.5578  142.9639 LP  0  0  0  0  0  0  0  0  0  0  0  0  # atno 17321 bound_to 7965
  140.2629  144.4048  150.6179 LP  0  0  0  0  0  0  0  0  0  0  0  0  # atno 17342 bound_to 10162
  140.6144  143.2171  151.6821 LP  0  0  0  0  0  0  0  0  0  0  0  0  # atno 17343 bound_to 10162
  157.5088  131.0924  151.0224 LP  0  0  0  0  0  0  0  0  0  0  0  0  # atno 17370 bound_to 10713
  157.0585  130.5816  149.5382 LP  0  0  0  0  0  0  0  0  0  0  0  0  # atno 17371 bound_to 10713
  141.1832  133.6550  156.5107 LP  0  0  0  0  0  0  0  0  0  0  0  0  # atno 17394 bound_to 11000
  140.4222  134.7177  157.4896 LP  0  0  0  0  0  0  0  0  0  0  0  0  # atno 17395 bound_to 11000

$$$$
