AV-unprocessed.smi:3153|AV-procd|sdf|12020|dock9
  -GOLD-   2272017433D 1   1.00000     0.00000
 Structure written by MMmdl.
 37 38  0  0  0  0  0  0  0  0  1 V2000
  149.9065  140.8755  153.6485 O   0  0  0  0  0  0  0  0  0  0  0  0
  149.7958  140.3819  154.9719 C   0  0  0  0  0  0  0  0  0  0  0  0
  149.3955  141.5741  155.8711 C   0  0  0  0  0  0  0  0  0  0  0  0
  150.5434  142.3781  156.2878 N   0  0  0  0  0  0  0  0  0  0  0  0
  151.0310  142.0433  157.6226 C   0  0  0  0  0  0  0  0  0  0  0  0
  151.6891  143.2552  158.3019 C   0  0  0  0  0  0  0  0  0  0  0  0
  152.1039  142.9697  159.6639 N   0  0  0  0  0  0  0  0  0  0  0  0
  151.7298  143.6109  160.8262 C   0  0  0  0  0  0  0  0  0  0  0  0
  152.3740  142.9900  161.8579 C   0  0  0  0  0  0  0  0  0  0  0  0
  153.1322  141.9698  161.2179 C   0  0  0  0  0  0  0  0  0  0  0  0
  152.9698  141.9614  159.9046 N   0  0  0  0  0  0  0  0  0  0  0  0
  148.6627  139.3280  154.9828 C   0  0  0  0  0  0  0  0  0  0  0  0
  149.0112  138.0564  154.1885 C   0  0  0  0  0  0  0  0  0  0  0  0
  150.3267  137.4360  154.6779 C   0  0  0  0  0  0  0  0  0  0  0  0
  151.4702  138.4577  154.6114 C   0  0  0  0  0  0  0  0  0  0  0  0
  151.1343  139.7320  155.4070 C   0  0  0  0  0  0  0  0  0  0  0  0
  149.6936  140.1760  153.0503 H   0  0  0  0  0  0  0  0  0  0  0  0
  148.6745  142.2016  155.3448 H   0  0  0  0  0  0  0  0  0  0  0  0
  148.8818  141.1984  156.7569 H   0  0  0  0  0  0  0  0  0  0  0  0
  150.2950  143.3618  156.2579 H   0  0  0  0  0  0  0  0  0  0  0  0
  150.2117  141.6758  158.2419 H   0  0  0  0  0  0  0  0  0  0  0  0
  151.7560  141.2314  157.5556 H   0  0  0  0  0  0  0  0  0  0  0  0
  152.5678  143.5665  157.7355 H   0  0  0  0  0  0  0  0  0  0  0  0
  151.0064  144.1061  158.3107 H   0  0  0  0  0  0  0  0  0  0  0  0
  151.0422  144.4438  160.8225 H   0  0  0  0  0  0  0  0  0  0  0  0
  152.3134  143.2284  162.9094 H   0  0  0  0  0  0  0  0  0  0  0  0
  153.7912  141.2403  161.6655 H   0  0  0  0  0  0  0  0  0  0  0  0
  148.4482  139.0424  156.0138 H   0  0  0  0  0  0  0  0  0  0  0  0
  147.7398  139.7609  154.5942 H   0  0  0  0  0  0  0  0  0  0  0  0
  148.2032  137.3302  154.2805 H   0  0  0  0  0  0  0  0  0  0  0  0
  149.0905  138.2932  153.1268 H   0  0  0  0  0  0  0  0  0  0  0  0
  150.2085  137.0830  155.7031 H   0  0  0  0  0  0  0  0  0  0  0  0
  150.5730  136.5614  154.0750 H   0  0  0  0  0  0  0  0  0  0  0  0
  152.3868  138.0120  154.9981 H   0  0  0  0  0  0  0  0  0  0  0  0
  151.6705  138.7150  153.5706 H   0  0  0  0  0  0  0  0  0  0  0  0
  151.9578  140.4400  155.3074 H   0  0  0  0  0  0  0  0  0  0  0  0
  151.0801  139.4790  156.4666 H   0  0  0  0  0  0  0  0  0  0  0  0
  1  2  1  0  0  0  0
  1 17  1  0  0  0  0
  2 16  1  0  0  0  0
  2  3  1  0  0  0  0
  2 12  1  0  0  0  0
  3  4  1  0  0  0  0
  3 18  1  0  0  0  0
  3 19  1  0  0  0  0
  4  5  1  0  0  0  0
  4 20  1  0  0  0  0
  5  6  1  0  0  0  0
  5 21  1  0  0  0  0
  5 22  1  0  0  0  0
  6  7  1  0  0  0  0
  6 23  1  0  0  0  0
  6 24  1  0  0  0  0
  7 11  1  0  0  0  0
  7  8  1  0  0  0  0
  8  9  2  0  0  0  0
  8 25  1  0  0  0  0
  9 10  1  0  0  0  0
  9 26  1  0  0  0  0
 10 11  2  0  0  0  0
 10 27  1  0  0  0  0
 12 13  1  0  0  0  0
 12 28  1  0  0  0  0
 12 29  1  0  0  0  0
 13 14  1  0  0  0  0
 13 30  1  0  0  0  0
 13 31  1  0  0  0  0
 14 15  1  0  0  0  0
 14 32  1  0  0  0  0
 14 33  1  0  0  0  0
 15 16  1  0  0  0  0
 15 34  1  0  0  0  0
 15 35  1  0  0  0  0
 16 36  1  0  0  0  0
 16 37  1  0  0  0  0
M  END
> <s_m_source_file>
AV-unprocessed.smi

> <i_m_source_file_index>
3153

> <i_lp_mmshare_version>
43012

> <i_f3d_flags>
0

> <s_epik_input>
W0NIMl0xW0NIMl1bQ0gyXVtDSDJdW0NIMl1DMShbT0hdKVtDSDJdW05IXVtDSDJdW0NIMl1uMltjSF1bY0hdW2NIXW4y

> <s_epik_cmdline>
J2VwaWtfcHl0aG9uJywgJy1waCcsICc3LjAnLCAnLXRuJywgJzgnLCAnLW1hJywgJzIwMCcsICctbWV0YWxfYmluZGluZycsICctaW1hZScsICc8aW5maWxlLm1hZT4nLCAnLW9tYWUnLCAnPG91dGZpbGUubWFlPic=

> <r_lp_tautomer_probability>
1

> <r_epik_Ionization_Penalty>
1.91265

> <r_epik_Ionization_Penalty_Charging>
0

> <r_epik_Ionization_Penalty_Neutral>
1.91265

> <r_epik_State_Penalty>
2.0334

> <r_epik_Charging_Adjusted_Penalty>
2.0334

> <i_epik_Tot_Q>
0

> <i_epik_Tot_abs_Q>
0

> <r_epik_Metal_State_Penalty>
2.03214

> <b_epik_Metal_Only>
0

> <s_lp_Force_Field>
OPLS_2005

> <r_lp_Energy>
22.2281

> <b_lp_Chiralities_Consistent>
1

> <s_lp_Variant>
AV-unprocessed.smi:3153-2

> <Gold.Version>
5.8.1

> <Gold.Id.Protein>
6NUR|6NUR_protein|mol2

> <Gold.PLP.Fitness>
45.1709

> <Gold.PLP.PLP>
-37.9075

> <Gold.PLP.part.hbond>
-3.7777

> <Gold.PLP.part.metal>
0.0000

> <Gold.PLP.part.buried>
-1.6054

> <Gold.PLP.part.nonpolar>
-32.7907

> <Gold.PLP.part.repulsive>
0.0000

> <Gold.PLP.ligand.clash>
0.0000

> <Gold.PLP.ligand.torsion>
0.7720

> <Gold.PLP.Chemscore.Hbond>
2.9253

> <Gold.PLP.Chemscore.CHOScore>
0.0000

> <Gold.PLP.Chemscore.Metal>
0.0000

> <Gold.Chemscore.Hbonds>
donor molecule, donor type, donor heavy atom, donor atom, acceptor molecule, acceptor atom, score
      L1  H     1    17       P1  7957  0.67
      L1  H     4    20       P1  8028  0.89
      P1  H  7989  7998       L1     1  0.36
      P1  H  8011  8017       L1     1  0.89

> <Gold.PLP.Chemscore.Internal.Correction>
0.0314

> <Gold.Rescore>
     Score         DG    S(hbond)    S(metal)    S(lipo)     H(rot)  DE(clash)    DE(int)     intcor
     16.56     -17.35       1.83        0.00      96.75       2.18       0.10       0.70       ----

> <Gold.Chemscore.Fitness>
16.5566

> <Gold.Chemscore.DG>
-17.3544

> <Gold.Chemscore.ZeroCoef>
-5.4800

> <Gold.Chemscore.Hbond>
1.8337

> <Gold.Chemscore.Metal>
0.0000

> <Gold.Chemscore.Lipo>
96.7476

> <Gold.Chemscore.Internal_Hbond>
0.0000

> <Gold.Chemscore.DEClash>
0.1002

> <Gold.Chemscore.DEInternal>
0.6976

> <Gold.Chemscore.Rot>
2.1756

> <Gold.Chemscore.Internal.Correction>
   9.000000E+99

> <Gold.Chemscore.Hbonds>
donor molecule, donor type, donor heavy atom, donor atom, acceptor molecule, acceptor atom, score
      L1  H     1    17       P1  7957  0.68
      L1  H     4    20       P1  8028  0.82
      P1  H  7989  7998       L1     1  0.02
      P1  H  8011  8017       L1     1  0.16

> <Gold.Chemscore.Hbond.Weighted>
-6.1246

> <Gold.Chemscore.Metal.Weighted>
-0.0000

> <Gold.Chemscore.Lipo.Weighted>
-11.3195

> <Gold.Chemscore.Internal_Hbond.Weighted>
0.0000

> <Gold.Chemscore.DEClash.Weighted>
0.1002

> <Gold.Chemscore.DEInternal.Weighted>
0.6976

> <Gold.Chemscore.Rot.Weighted>
5.5696

> <Gold.Chemscore.Internal.Correction.Weighted>
   9.000000E+99

> <Gold.Protein.RotatedTorsions>
[ 6907 6896 6895 6894 ] final  -65.68 input  -60.11 | X-H torsion
[ 7974 7965 7964 7962 ] final  103.87 input  175.53 | X-H torsion
[ 8008 7997 7996 7995 ] final   27.50 input   59.86 | X-H torsion
[ 10167 10162 10161 10158 ] final   74.51 input  -65.29 | X-H torsion
[ 10718 10713 10712 10709 ] final  142.95 input   66.30 | X-H torsion
[ 10763 10752 10751 10750 ] final  -47.92 input  -60.55 | X-H torsion
[ 11005 11000 10999 10996 ] final  169.05 input  -57.11 | X-H torsion

> <Gold.Protein.ActiveResidues>
 VAL166  LYS551  ARG553  GLY616  TRP617  ASP618  TYR619  PRO620  LYS621  CYS622 
 ASP623  PHE694  ASN695  SER759  ASP760  ASP761  ALA762  ILE779  LEU786  VAL792 
 PHE793  MET794  SER795  GLU796  ALA797  LYS798  CYS799  TRP800  GLU811  SER814 

> <Gold.Protein.RotatedAtoms>
  150.7510  134.6127  159.6094 H   0  0  0  0  0  0  0  0  0  0  0  0  # atno 6907 bound_to 6896
  152.3456  134.7072  160.0260 H   0  0  0  0  0  0  0  0  0  0  0  0  # atno 6908 bound_to 6896
  151.7510  133.3291  159.3428 H   0  0  0  0  0  0  0  0  0  0  0  0  # atno 6909 bound_to 6896
  145.3402  139.2464  143.3613 H   0  0  0  0  0  0  0  0  0  0  0  0  # atno 7974 bound_to 7965
  155.0438  140.3172  155.4715 H   0  0  0  0  0  0  0  0  0  0  0  0  # atno 8008 bound_to 7997
  156.2849  140.2158  156.5506 H   0  0  0  0  0  0  0  0  0  0  0  0  # atno 8009 bound_to 7997
  154.7267  140.0485  157.0677 H   0  0  0  0  0  0  0  0  0  0  0  0  # atno 8010 bound_to 7997
  140.0129  144.5600  150.7644 H   0  0  0  0  0  0  0  0  0  0  0  0  # atno 10167 bound_to 10162
  157.3746  131.0984  151.0796 H   0  0  0  0  0  0  0  0  0  0  0  0  # atno 10718 bound_to 10713
  154.0693  135.6607  153.4822 H   0  0  0  0  0  0  0  0  0  0  0  0  # atno 10763 bound_to 10752
  153.0397  135.5153  154.7583 H   0  0  0  0  0  0  0  0  0  0  0  0  # atno 10764 bound_to 10752
  154.6643  135.3020  154.9793 H   0  0  0  0  0  0  0  0  0  0  0  0  # atno 10765 bound_to 10752
  140.2937  134.7652  157.3859 H   0  0  0  0  0  0  0  0  0  0  0  0  # atno 11005 bound_to 11000
  146.3010  140.3998  142.8704 LP  0  0  0  0  0  0  0  0  0  0  0  0  # atno 17320 bound_to 7965
  144.8796  140.7383  143.5995 LP  0  0  0  0  0  0  0  0  0  0  0  0  # atno 17321 bound_to 7965
  140.7374  143.2765  151.3726 LP  0  0  0  0  0  0  0  0  0  0  0  0  # atno 17342 bound_to 10162
  139.6192  144.0940  152.2375 LP  0  0  0  0  0  0  0  0  0  0  0  0  # atno 17343 bound_to 10162
  157.1887  130.6342  149.5697 LP  0  0  0  0  0  0  0  0  0  0  0  0  # atno 17370 bound_to 10713
  155.9762  130.4729  150.6516 LP  0  0  0  0  0  0  0  0  0  0  0  0  # atno 17371 bound_to 10713
  140.1172  134.5267  155.8215 LP  0  0  0  0  0  0  0  0  0  0  0  0  # atno 17394 bound_to 11000
  141.2141  133.6744  156.6799 LP  0  0  0  0  0  0  0  0  0  0  0  0  # atno 17395 bound_to 11000

$$$$
