AV-unprocessed.smi:3036|AV-procd|sdf|11584|dock10
  -GOLD-   2272016553D 1   1.00000     0.00000
 Structure written by MMmdl.
 41 42  0  0  0  0  0  0  0  0  1 V2000
  148.7665  142.7178  158.2776 C   0  0  0  0  0  0  0  0  0  0  0  0
  149.6685  141.9637  157.2845 C   0  0  2  0  0  0  0  0  0  0  0  0
  150.9845  142.7311  157.0443 C   0  0  0  0  0  0  0  0  0  0  0  0
  151.5434  143.2878  158.2644 N   0  0  0  0  0  0  0  0  0  0  0  0
  151.8329  144.6056  158.5505 C   0  0  0  0  0  0  0  0  0  0  0  0
  152.3322  144.6456  159.8208 C   0  0  0  0  0  0  0  0  0  0  0  0
  152.3036  143.2855  160.2380 C   0  0  0  0  0  0  0  0  0  0  0  0
  151.8274  142.4758  159.3061 N   0  0  0  0  0  0  0  0  0  0  0  0
  148.9766  141.8024  156.0099 N   0  0  0  0  0  0  0  0  0  0  0  0
  149.8701  141.3173  154.9640 C   0  0  0  0  0  0  0  0  0  0  0  0
  150.3123  139.8637  155.2324 C   0  0  0  0  0  0  0  0  0  0  0  0
  151.6876  139.7107  155.9135 C   0  0  0  0  0  0  0  0  0  0  0  0
  152.7060  139.9839  155.2758 O   0  0  0  0  0  0  0  0  0  0  0  0
  151.7406  139.2733  157.1951 N   0  0  0  0  0  0  0  0  0  0  0  0
  152.9979  139.0892  157.9267 C   0  0  0  0  0  0  0  0  0  0  0  0
  153.1736  137.5899  158.2265 C   0  0  0  0  0  0  0  0  0  0  0  0
  152.0562  137.1190  158.9756 O   0  0  0  0  0  0  0  0  0  0  0  0
  150.8145  137.3055  158.3012 C   0  0  0  0  0  0  0  0  0  0  0  0
  150.6058  138.8001  157.9955 C   0  0  0  0  0  0  0  0  0  0  0  0
  149.2893  142.8940  159.2179 H   0  0  0  0  0  0  0  0  0  0  0  0
  147.8616  142.1596  158.5161 H   0  0  0  0  0  0  0  0  0  0  0  0
  148.4641  143.6882  157.8815 H   0  0  0  0  0  0  0  0  0  0  0  0
  149.9120  140.9823  157.6945 H   0  0  0  0  0  0  0  0  0  0  0  0
  151.7291  142.0828  156.5797 H   0  0  0  0  0  0  0  0  0  0  0  0
  150.8160  143.5554  156.3496 H   0  0  0  0  0  0  0  0  0  0  0  0
  151.6628  145.3958  157.8339 H   0  0  0  0  0  0  0  0  0  0  0  0
  152.6649  145.5140  160.3695 H   0  0  0  0  0  0  0  0  0  0  0  0
  152.6107  142.8654  161.1845 H   0  0  0  0  0  0  0  0  0  0  0  0
  148.6020  142.6954  155.7231 H   0  0  0  0  0  0  0  0  0  0  0  0
  149.3526  141.3684  154.0052 H   0  0  0  0  0  0  0  0  0  0  0  0
  150.7493  141.9558  154.8822 H   0  0  0  0  0  0  0  0  0  0  0  0
  149.5520  139.3812  155.8478 H   0  0  0  0  0  0  0  0  0  0  0  0
  150.3428  139.3260  154.2841 H   0  0  0  0  0  0  0  0  0  0  0  0
  153.8671  139.4604  157.3823 H   0  0  0  0  0  0  0  0  0  0  0  0
  152.9608  139.6576  158.8571 H   0  0  0  0  0  0  0  0  0  0  0  0
  153.2728  137.0172  157.3030 H   0  0  0  0  0  0  0  0  0  0  0  0
  154.0823  137.4236  158.8053 H   0  0  0  0  0  0  0  0  0  0  0  0
  150.7962  136.7150  157.3836 H   0  0  0  0  0  0  0  0  0  0  0  0
  150.0101  136.9339  158.9360 H   0  0  0  0  0  0  0  0  0  0  0  0
  150.5607  139.3699  158.9248 H   0  0  0  0  0  0  0  0  0  0  0  0
  149.6383  138.9350  157.5159 H   0  0  0  0  0  0  0  0  0  0  0  0
  1  2  1  0  0  0  0
  1 20  1  0  0  0  0
  1 21  1  0  0  0  0
  1 22  1  0  0  0  0
  2  3  1  0  0  0  0
  2  9  1  0  0  0  0
  2 23  1  0  0  0  0
  3  4  1  0  0  0  0
  3 24  1  0  0  0  0
  3 25  1  0  0  0  0
  4  8  1  0  0  0  0
  4  5  1  0  0  0  0
  5  6  2  0  0  0  0
  5 26  1  0  0  0  0
  6  7  1  0  0  0  0
  6 27  1  0  0  0  0
  7  8  2  0  0  0  0
  7 28  1  0  0  0  0
  9 10  1  0  0  0  0
  9 29  1  0  0  0  0
 10 11  1  0  0  0  0
 10 30  1  0  0  0  0
 10 31  1  0  0  0  0
 11 12  1  0  0  0  0
 11 32  1  0  0  0  0
 11 33  1  0  0  0  0
 12 13  2  0  0  0  0
 12 14  1  0  0  0  0
 14 19  1  0  0  0  0
 14 15  1  0  0  0  0
 15 16  1  0  0  0  0
 15 34  1  0  0  0  0
 15 35  1  0  0  0  0
 16 17  1  0  0  0  0
 16 36  1  0  0  0  0
 16 37  1  0  0  0  0
 17 18  1  0  0  0  0
 18 19  1  0  0  0  0
 18 38  1  0  0  0  0
 18 39  1  0  0  0  0
 19 40  1  0  0  0  0
 19 41  1  0  0  0  0
M  END
> <s_m_source_file>
AV-unprocessed.smi

> <i_m_source_file_index>
3036

> <i_lp_mmshare_version>
43012

> <i_f3d_flags>
0

> <s_epik_input>
bjFbY0hdW2NIXVtjSF1uMVtDSDJdW0NAQEhdKFtDSDNdKVtOSF1bQ0gyXVtDSDJdQyg9TylOMltDSDJdW0NIMl1PW0NIMl1bQ0gyXTI=

> <s_epik_cmdline>
J2VwaWtfcHl0aG9uJywgJy1waCcsICc3LjAnLCAnLXRuJywgJzgnLCAnLW1hJywgJzIwMCcsICctbWV0YWxfYmluZGluZycsICctaW1hZScsICc8aW5maWxlLm1hZT4nLCAnLW9tYWUnLCAnPG91dGZpbGUubWFlPic=

> <r_lp_tautomer_probability>
1

> <r_epik_Ionization_Penalty>
2.55703

> <r_epik_Ionization_Penalty_Charging>
0

> <r_epik_Ionization_Penalty_Neutral>
2.55703

> <r_epik_State_Penalty>
2.726

> <r_epik_Charging_Adjusted_Penalty>
2.726

> <i_epik_Tot_Q>
0

> <i_epik_Tot_abs_Q>
0

> <r_epik_Metal_State_Penalty>
2.72597

> <b_epik_Metal_Only>
0

> <s_lp_Force_Field>
OPLS_2005

> <r_lp_Energy>
22.7119

> <b_lp_Chiralities_Consistent>
1

> <s_lp_Variant>
AV-unprocessed.smi:3036-3

> <Gold.Version>
5.8.1

> <Gold.Id.Protein>
6NUR|6NUR_protein|mol2

> <Gold.PLP.Fitness>
45.4217

> <Gold.PLP.PLP>
-36.8444

> <Gold.PLP.part.hbond>
-3.9471

> <Gold.PLP.part.metal>
0.0000

> <Gold.PLP.part.buried>
-4.3263

> <Gold.PLP.part.nonpolar>
-28.8381

> <Gold.PLP.part.repulsive>
0.0000

> <Gold.PLP.ligand.clash>
0.0000

> <Gold.PLP.ligand.torsion>
0.6001

> <Gold.PLP.Chemscore.Hbond>
3.2252

> <Gold.PLP.Chemscore.CHOScore>
0.0000

> <Gold.PLP.Chemscore.Metal>
0.0000

> <Gold.Chemscore.Hbonds>
donor molecule, donor type, donor heavy atom, donor atom, acceptor molecule, acceptor atom, score
      L1  H     9    29       P1  8028  0.94
      P1  H  6896  6909       L1    17  0.41
      P1  H  7989  7998       L1    13  0.22
      P1  H  7997  8009       L1    13  1.00

> <Gold.PLP.Chemscore.Internal.Correction>
0.1019

> <Gold.Rescore>
     Score         DG    S(hbond)    S(metal)    S(lipo)     H(rot)  DE(clash)    DE(int)     intcor
     19.01     -19.57       2.82        0.00      83.49       1.99       0.03       0.54       ----

> <Gold.Chemscore.Fitness>
19.0081

> <Gold.Chemscore.DG>
-19.5730

> <Gold.Chemscore.ZeroCoef>
-5.4800

> <Gold.Chemscore.Hbond>
2.8202

> <Gold.Chemscore.Metal>
0.0000

> <Gold.Chemscore.Lipo>
83.4861

> <Gold.Chemscore.Internal_Hbond>
0.0000

> <Gold.Chemscore.DEClash>
0.0281

> <Gold.Chemscore.DEInternal>
0.5368

> <Gold.Chemscore.Rot>
1.9900

> <Gold.Chemscore.Internal.Correction>
   9.000000E+99

> <Gold.Chemscore.Hbonds>
donor molecule, donor type, donor heavy atom, donor atom, acceptor molecule, acceptor atom, score
      L1  H     9    29       P1  8028  0.84
      P1  H  6896  6909       L1    17  0.08
      P1  H  7989  7998       L1    13  0.04
      P1  H  7997  8009       L1    13  1.00

> <Gold.Chemscore.Hbond.Weighted>
-9.4195

> <Gold.Chemscore.Metal.Weighted>
-0.0000

> <Gold.Chemscore.Lipo.Weighted>
-9.7679

> <Gold.Chemscore.Internal_Hbond.Weighted>
0.0000

> <Gold.Chemscore.DEClash.Weighted>
0.0281

> <Gold.Chemscore.DEInternal.Weighted>
0.5368

> <Gold.Chemscore.Rot.Weighted>
5.0944

> <Gold.Chemscore.Internal.Correction.Weighted>
   9.000000E+99

> <Gold.Protein.RotatedTorsions>
[ 6907 6896 6895 6894 ] final  119.12 input  -60.11 | X-H torsion
[ 7974 7965 7964 7962 ] final  122.90 input  175.53 | X-H torsion
[ 8008 7997 7996 7995 ] final -134.40 input   59.86 | X-H torsion
[ 10167 10162 10161 10158 ] final   30.44 input  -65.29 | X-H torsion
[ 10718 10713 10712 10709 ] final -115.30 input   66.30 | X-H torsion
[ 10763 10752 10751 10750 ] final   52.10 input  -60.55 | X-H torsion
[ 11005 11000 10999 10996 ] final -163.36 input  -57.11 | X-H torsion

> <Gold.Protein.ActiveResidues>
 VAL166  LYS551  ARG553  GLY616  TRP617  ASP618  TYR619  PRO620  LYS621  CYS622 
 ASP623  PHE694  ASN695  SER759  ASP760  ASP761  ALA762  ILE779  LEU786  VAL792 
 PHE793  MET794  SER795  GLU796  ALA797  LYS798  CYS799  TRP800  GLU811  SER814 

> <Gold.Protein.RotatedAtoms>
  152.4495  133.7601  159.6741 H   0  0  0  0  0  0  0  0  0  0  0  0  # atno 6907 bound_to 6896
  150.8403  133.7937  159.3070 H   0  0  0  0  0  0  0  0  0  0  0  0  # atno 6908 bound_to 6896
  151.5564  135.1069  160.0014 H   0  0  0  0  0  0  0  0  0  0  0  0  # atno 6909 bound_to 6896
  145.1022  139.3510  143.4806 H   0  0  0  0  0  0  0  0  0  0  0  0  # atno 7974 bound_to 7965
  155.3615  140.0483  157.3046 H   0  0  0  0  0  0  0  0  0  0  0  0  # atno 8008 bound_to 7997
  154.5176  140.2213  155.9000 H   0  0  0  0  0  0  0  0  0  0  0  0  # atno 8009 bound_to 7997
  156.1653  140.3107  155.8884 H   0  0  0  0  0  0  0  0  0  0  0  0  # atno 8010 bound_to 7997
  140.4677  144.0810  150.6229 H   0  0  0  0  0  0  0  0  0  0  0  0  # atno 10167 bound_to 10162
  156.0886  130.6073  150.8888 H   0  0  0  0  0  0  0  0  0  0  0  0  # atno 10718 bound_to 10713
  152.9787  135.5823  154.4524 H   0  0  0  0  0  0  0  0  0  0  0  0  # atno 10763 bound_to 10752
  154.4111  135.2770  155.2038 H   0  0  0  0  0  0  0  0  0  0  0  0  # atno 10764 bound_to 10752
  154.3827  135.6143  153.5854 H   0  0  0  0  0  0  0  0  0  0  0  0  # atno 10765 bound_to 10752
  140.5989  134.4968  157.5203 H   0  0  0  0  0  0  0  0  0  0  0  0  # atno 11005 bound_to 11000
  146.3529  140.0904  142.8613 LP  0  0  0  0  0  0  0  0  0  0  0  0  # atno 17320 bound_to 7965
  145.0942  140.9304  143.4751 LP  0  0  0  0  0  0  0  0  0  0  0  0  # atno 17321 bound_to 7965
  140.4015  143.2701  151.9941 LP  0  0  0  0  0  0  0  0  0  0  0  0  # atno 17342 bound_to 10162
  139.4814  144.5993  151.7634 LP  0  0  0  0  0  0  0  0  0  0  0  0  # atno 17343 bound_to 10162
  157.6029  131.0940  150.8929 LP  0  0  0  0  0  0  0  0  0  0  0  0  # atno 17370 bound_to 10713
  156.9083  130.5271  149.5281 LP  0  0  0  0  0  0  0  0  0  0  0  0  # atno 17371 bound_to 10713
  139.9241  134.8090  156.1122 LP  0  0  0  0  0  0  0  0  0  0  0  0  # atno 17394 bound_to 11000
  141.0885  133.6724  156.2489 LP  0  0  0  0  0  0  0  0  0  0  0  0  # atno 17395 bound_to 11000

$$$$
