AV-unprocessed.smi:671|AV-procd|sdf|3280|dock8
  -GOLD-   22720 0243D 1   1.00000     0.00000
 Structure written by MMmdl.
 49 50  0  0  0  0  0  0  0  0  1 V2000
  152.9228  138.3699  155.3046 C   0  0  0  0  0  0  0  0  0  0  0  0
  152.2089  139.5037  155.9834 C   0  0  0  0  0  0  0  0  0  0  0  0
  152.7550  140.0667  157.0485 N   0  0  0  0  0  0  0  0  0  0  0  0
  151.8860  141.0308  157.4131 N   0  0  0  0  0  0  0  0  0  0  0  0
  152.1845  141.8537  158.5691 C   0  0  0  0  0  0  0  0  0  0  0  0
  150.7850  141.0728  156.5800 C   0  0  0  0  0  0  0  0  0  0  0  0
  149.6718  142.0516  156.7748 C   0  0  0  0  0  0  0  0  0  0  0  0
  150.9605  140.0977  155.6349 C   0  0  0  0  0  0  0  0  0  0  0  0
  150.0510  139.7304  154.4909 C   0  0  0  0  0  0  0  0  0  0  0  0
  148.6458  139.3054  154.9716 C   0  0  1  0  0  0  0  0  0  0  0  0
  147.6735  140.4916  155.0693 C   0  0  0  0  0  0  0  0  0  0  0  0
  148.0757  138.3004  154.0709 N   0  0  0  0  0  0  0  0  0  0  0  0
  146.8197  137.8172  154.0522 C   0  0  0  0  0  0  0  0  0  0  0  0
  145.9609  138.2109  154.8390 O   0  0  0  0  0  0  0  0  0  0  0  0
  146.5896  136.8953  153.1025 N   0  0  0  0  0  0  0  0  0  0  0  0
  145.3206  136.2144  152.8662 C   0  0  1  0  0  0  0  0  0  0  0  0
  144.4866  136.9985  151.8369 C   0  0  0  0  0  0  0  0  0  0  0  0
  144.5464  136.1857  150.5448 C   0  0  0  0  0  0  0  0  0  0  0  0
  144.6372  134.7422  151.0274 C   0  0  0  0  0  0  0  0  0  0  0  0
  145.5454  134.8091  152.2605 C   0  0  2  0  0  0  0  0  0  0  0  0
  145.3035  133.6635  153.2525 C   0  0  0  0  0  0  0  0  0  0  0  0
  152.4992  137.4110  155.6025 H   0  0  0  0  0  0  0  0  0  0  0  0
  153.9846  138.3563  155.5525 H   0  0  0  0  0  0  0  0  0  0  0  0
  152.8408  138.4465  154.2206 H   0  0  0  0  0  0  0  0  0  0  0  0
  151.5934  141.5153  159.4200 H   0  0  0  0  0  0  0  0  0  0  0  0
  151.9412  142.8948  158.3569 H   0  0  0  0  0  0  0  0  0  0  0  0
  153.2434  141.7881  158.8230 H   0  0  0  0  0  0  0  0  0  0  0  0
  148.8441  141.8482  156.0963 H   0  0  0  0  0  0  0  0  0  0  0  0
  150.0145  143.0692  156.5871 H   0  0  0  0  0  0  0  0  0  0  0  0
  149.2859  142.0053  157.7933 H   0  0  0  0  0  0  0  0  0  0  0  0
  149.9553  140.5593  153.7887 H   0  0  0  0  0  0  0  0  0  0  0  0
  150.5029  138.9234  153.9135 H   0  0  0  0  0  0  0  0  0  0  0  0
  148.7251  138.8730  155.9705 H   0  0  0  0  0  0  0  0  0  0  0  0
  148.0228  141.2359  155.7853 H   0  0  0  0  0  0  0  0  0  0  0  0
  146.6873  140.1637  155.3999 H   0  0  0  0  0  0  0  0  0  0  0  0
  147.5532  140.9876  154.1056 H   0  0  0  0  0  0  0  0  0  0  0  0
  148.6929  137.9666  153.3445 H   0  0  0  0  0  0  0  0  0  0  0  0
  147.3580  136.6413  152.4992 H   0  0  0  0  0  0  0  0  0  0  0  0
  144.7520  136.1545  153.7962 H   0  0  0  0  0  0  0  0  0  0  0  0
  143.4519  137.0473  152.1785 H   0  0  0  0  0  0  0  0  0  0  0  0
  144.8232  138.0264  151.6947 H   0  0  0  0  0  0  0  0  0  0  0  0
  143.6863  136.3605  149.8980 H   0  0  0  0  0  0  0  0  0  0  0  0
  145.4460  136.4454  149.9851 H   0  0  0  0  0  0  0  0  0  0  0  0
  143.6430  134.3920  151.3088 H   0  0  0  0  0  0  0  0  0  0  0  0
  145.0212  134.0683  150.2611 H   0  0  0  0  0  0  0  0  0  0  0  0
  146.5746  134.7365  151.9038 H   0  0  0  0  0  0  0  0  0  0  0  0
  144.2832  133.6787  153.6359 H   0  0  0  0  0  0  0  0  0  0  0  0
  145.9803  133.7359  154.1040 H   0  0  0  0  0  0  0  0  0  0  0  0
  145.4683  132.6951  152.7795 H   0  0  0  0  0  0  0  0  0  0  0  0
  1  2  1  0  0  0  0
  1 22  1  0  0  0  0
  1 23  1  0  0  0  0
  1 24  1  0  0  0  0
  2  8  1  0  0  0  0
  2  3  2  0  0  0  0
  3  4  1  0  0  0  0
  4  5  1  0  0  0  0
  4  6  1  0  0  0  0
  5 25  1  0  0  0  0
  5 26  1  0  0  0  0
  5 27  1  0  0  0  0
  6  7  1  0  0  0  0
  6  8  2  0  0  0  0
  7 28  1  0  0  0  0
  7 29  1  0  0  0  0
  7 30  1  0  0  0  0
  8  9  1  0  0  0  0
  9 10  1  0  0  0  0
  9 31  1  0  0  0  0
  9 32  1  0  0  0  0
 10 11  1  0  0  0  0
 10 12  1  0  0  0  0
 10 33  1  0  0  0  0
 11 34  1  0  0  0  0
 11 35  1  0  0  0  0
 11 36  1  0  0  0  0
 12 13  1  0  0  0  0
 12 37  1  0  0  0  0
 13 14  2  0  0  0  0
 13 15  1  0  0  0  0
 15 16  1  0  0  0  0
 15 38  1  0  0  0  0
 16 20  1  0  0  0  0
 16 17  1  0  0  0  0
 16 39  1  0  0  0  0
 17 18  1  0  0  0  0
 17 40  1  0  0  0  0
 17 41  1  0  0  0  0
 18 19  1  0  0  0  0
 18 42  1  0  0  0  0
 18 43  1  0  0  0  0
 19 20  1  0  0  0  0
 19 44  1  0  0  0  0
 19 45  1  0  0  0  0
 20 21  1  0  0  0  0
 20 46  1  0  0  0  0
 21 47  1  0  0  0  0
 21 48  1  0  0  0  0
 21 49  1  0  0  0  0
M  END
> <s_m_source_file>
AV-unprocessed.smi

> <i_m_source_file_index>
671

> <i_lp_mmshare_version>
43012

> <i_f3d_flags>
0

> <s_epik_input>
W0NIM11jMW5uKFtDSDNdKWMoW0NIM10pYzFbQ0gyXVtDQEhdKFtDSDNdKVtOSF1DKD1PKVtOSF1bQ0BASF0yW0NIMl1bQ0gyXVtDSDJdW0NASF0yW0NIM10=

> <s_epik_cmdline>
J2VwaWtfcHl0aG9uJywgJy1waCcsICc3LjAnLCAnLXRuJywgJzgnLCAnLW1hJywgJzIwMCcsICctbWV0YWxfYmluZGluZycsICctaW1hZScsICc8aW5maWxlLm1hZT4nLCAnLW9tYWUnLCAnPG91dGZpbGUubWFlPic=

> <r_lp_tautomer_probability>
1

> <r_epik_Ionization_Penalty>
0.0126855

> <r_epik_Ionization_Penalty_Charging>
0

> <r_epik_Ionization_Penalty_Neutral>
0.0126855

> <r_epik_State_Penalty>
0.00977547

> <r_epik_Charging_Adjusted_Penalty>
0.00977547

> <i_epik_Tot_Q>
0

> <i_epik_Tot_abs_Q>
0

> <r_epik_Metal_State_Penalty>
0.00957132

> <b_epik_Metal_Only>
0

> <s_lp_Force_Field>
OPLS_2005

> <r_lp_Energy>
22.0213

> <b_lp_Chiralities_Consistent>
1

> <s_lp_Variant>
AV-unprocessed.smi:671-8

> <Gold.Version>
5.8.1

> <Gold.Id.Protein>
6NUR|6NUR_protein|mol2

> <Gold.PLP.Fitness>
40.2438

> <Gold.PLP.PLP>
-33.3742

> <Gold.PLP.part.hbond>
-3.0000

> <Gold.PLP.part.metal>
0.0000

> <Gold.PLP.part.buried>
-3.7232

> <Gold.PLP.part.nonpolar>
-27.4530

> <Gold.PLP.part.repulsive>
0.0616

> <Gold.PLP.ligand.clash>
0.0000

> <Gold.PLP.ligand.torsion>
0.8870

> <Gold.PLP.Chemscore.Hbond>
2.8720

> <Gold.PLP.Chemscore.CHOScore>
0.0000

> <Gold.PLP.Chemscore.Metal>
0.0000

> <Gold.Chemscore.Hbonds>
donor molecule, donor type, donor heavy atom, donor atom, acceptor molecule, acceptor atom, score
      L1  H    12    37       P1  7948  0.32
      L1  H    15    38       P1  7948  1.00
      P1  H  7997  8008       L1     3  0.70

> <Gold.PLP.Chemscore.Internal.Correction>
0.0277

> <Gold.Rescore>
     Score         DG    S(hbond)    S(metal)    S(lipo)     H(rot)  DE(clash)    DE(int)     intcor
     18.59     -20.59       2.83        0.00      79.98       1.45       0.12       1.89       ----

> <Gold.Chemscore.Fitness>
18.5852

> <Gold.Chemscore.DG>
-20.5913

> <Gold.Chemscore.ZeroCoef>
-5.4800

> <Gold.Chemscore.Hbond>
2.8341

> <Gold.Chemscore.Metal>
0.0000

> <Gold.Chemscore.Lipo>
79.9760

> <Gold.Chemscore.Internal_Hbond>
0.0000

> <Gold.Chemscore.DEClash>
0.1157

> <Gold.Chemscore.DEInternal>
1.8904

> <Gold.Chemscore.Rot>
1.4499

> <Gold.Chemscore.Internal.Correction>
   9.000000E+99

> <Gold.Chemscore.Hbonds>
donor molecule, donor type, donor heavy atom, donor atom, acceptor molecule, acceptor atom, score
      L1  H    12    37       P1  7948  0.32
      L1  H    15    38       P1  7948  1.00
      P1  H  7997  8008       L1     3  0.09

> <Gold.Chemscore.Hbond.Weighted>
-9.4660

> <Gold.Chemscore.Metal.Weighted>
-0.0000

> <Gold.Chemscore.Lipo.Weighted>
-9.3572

> <Gold.Chemscore.Internal_Hbond.Weighted>
0.0000

> <Gold.Chemscore.DEClash.Weighted>
0.1157

> <Gold.Chemscore.DEInternal.Weighted>
1.8904

> <Gold.Chemscore.Rot.Weighted>
3.7118

> <Gold.Chemscore.Internal.Correction.Weighted>
   9.000000E+99

> <Gold.Protein.RotatedTorsions>
[ 6907 6896 6895 6894 ] final  127.18 input  -60.11 | X-H torsion
[ 7974 7965 7964 7962 ] final  -50.46 input  175.53 | X-H torsion
[ 8008 7997 7996 7995 ] final  -42.80 input   59.86 | X-H torsion
[ 10167 10162 10161 10158 ] final  -76.91 input  -65.29 | X-H torsion
[ 10718 10713 10712 10709 ] final  170.75 input   66.30 | X-H torsion
[ 10763 10752 10751 10750 ] final  135.78 input  -60.55 | X-H torsion
[ 11005 11000 10999 10996 ] final   26.57 input  -57.11 | X-H torsion

> <Gold.Protein.ActiveResidues>
 VAL166  LYS551  ARG553  GLY616  TRP617  ASP618  TYR619  PRO620  LYS621  CYS622 
 ASP623  PHE694  ASN695  SER759  ASP760  ASP761  ALA762  ILE779  LEU786  VAL792 
 PHE793  MET794  SER795  GLU796  ALA797  LYS798  CYS799  TRP800  GLU811  SER814 

> <Gold.Protein.RotatedAtoms>
  152.3836  133.6580  159.6180 H   0  0  0  0  0  0  0  0  0  0  0  0  # atno 6907 bound_to 6896
  150.7760  133.9073  159.3368 H   0  0  0  0  0  0  0  0  0  0  0  0  # atno 6908 bound_to 6896
  151.6874  135.0953  160.0278 H   0  0  0  0  0  0  0  0  0  0  0  0  # atno 6909 bound_to 6896
  145.9295  140.7762  142.9606 H   0  0  0  0  0  0  0  0  0  0  0  0  # atno 7974 bound_to 7965
  154.3998  140.1464  156.3414 H   0  0  0  0  0  0  0  0  0  0  0  0  # atno 8008 bound_to 7997
  155.8353  140.3464  155.5576 H   0  0  0  0  0  0  0  0  0  0  0  0  # atno 8009 bound_to 7997
  155.8145  140.0889  157.1875 H   0  0  0  0  0  0  0  0  0  0  0  0  # atno 8010 bound_to 7997
  140.4816  143.2401  151.8049 H   0  0  0  0  0  0  0  0  0  0  0  0  # atno 10167 bound_to 10162
  157.0035  131.0183  151.2824 H   0  0  0  0  0  0  0  0  0  0  0  0  # atno 10718 bound_to 10713
  153.8457  135.3085  155.3429 H   0  0  0  0  0  0  0  0  0  0  0  0  # atno 10763 bound_to 10752
  154.7913  135.4781  154.0062 H   0  0  0  0  0  0  0  0  0  0  0  0  # atno 10764 bound_to 10752
  153.1548  135.6850  153.8921 H   0  0  0  0  0  0  0  0  0  0  0  0  # atno 10765 bound_to 10752
  140.3356  134.2389  155.7696 H   0  0  0  0  0  0  0  0  0  0  0  0  # atno 11005 bound_to 11000
  144.6763  140.2105  143.7377 LP  0  0  0  0  0  0  0  0  0  0  0  0  # atno 17320 bound_to 7965
  145.8444  139.2145  143.1808 LP  0  0  0  0  0  0  0  0  0  0  0  0  # atno 17321 bound_to 7965
  139.4834  144.4765  151.9360 LP  0  0  0  0  0  0  0  0  0  0  0  0  # atno 17342 bound_to 10162
  140.3851  144.2687  150.5905 LP  0  0  0  0  0  0  0  0  0  0  0  0  # atno 17343 bound_to 10162
  157.5373  130.8097  149.7987 LP  0  0  0  0  0  0  0  0  0  0  0  0  # atno 17370 bound_to 10713
  156.0162  130.3813  150.2103 LP  0  0  0  0  0  0  0  0  0  0  0  0  # atno 17371 bound_to 10713
  141.2052  133.7866  157.0246 LP  0  0  0  0  0  0  0  0  0  0  0  0  # atno 17394 bound_to 11000
  140.0823  134.9641  157.1645 LP  0  0  0  0  0  0  0  0  0  0  0  0  # atno 17395 bound_to 11000

$$$$
