AV-unprocessed.smi:3323|AV-procd|sdf|12778|dock5
  -GOLD-   2272019123D 1   1.00000     0.00000
 Structure written by MMmdl.
 37 38  0  0  0  0  0  0  0  0  1 V2000
  150.8190  141.0956  157.2301 C   0  0  0  0  0  0  0  0  0  0  0  0
  151.6023  142.2261  157.9067 C   0  0  1  0  0  0  0  0  0  0  0  0
  150.6812  143.1821  158.6875 C   0  0  0  0  0  0  0  0  0  0  0  0
  151.5012  144.2623  159.4168 C   0  0  1  0  0  0  0  0  0  0  0  0
  150.6281  145.2005  160.2757 C   0  0  0  0  0  0  0  0  0  0  0  0
  149.2335  145.2146  159.8460 N   0  0  0  0  0  0  0  0  0  0  0  0
  148.1940  144.8020  160.5844 C   0  0  0  0  0  0  0  0  0  0  0  0
  148.3093  144.3478  161.7223 O   0  0  0  0  0  0  0  0  0  0  0  0
  147.0391  144.9442  159.9115 N   0  0  0  0  0  0  0  0  0  0  0  0
  145.7193  144.6051  160.3170 C   0  0  0  0  0  0  0  0  0  0  0  0
  145.3936  143.9373  161.5228 C   0  0  0  0  0  0  0  0  0  0  0  0
  144.0407  143.6694  161.8072 C   0  0  0  0  0  0  0  0  0  0  0  0
  143.0631  144.0838  160.8822 C   0  0  0  0  0  0  0  0  0  0  0  0
  143.3573  144.7328  159.7361 N   0  0  0  0  0  0  0  0  0  0  0  0
  144.6564  144.9860  159.4703 C   0  0  0  0  0  0  0  0  0  0  0  0
  152.5807  143.5726  160.2656 C   0  0  0  0  0  0  0  0  0  0  0  0
  153.4049  142.5947  159.4134 C   0  0  0  0  0  0  0  0  0  0  0  0
  152.5451  141.6405  158.7998 O   0  0  0  0  0  0  0  0  0  0  0  0
  150.0879  141.4921  156.5252 H   0  0  0  0  0  0  0  0  0  0  0  0
  150.2843  140.4912  157.9635 H   0  0  0  0  0  0  0  0  0  0  0  0
  151.4874  140.4351  156.6774 H   0  0  0  0  0  0  0  0  0  0  0  0
  152.1397  142.7831  157.1370 H   0  0  0  0  0  0  0  0  0  0  0  0
  149.9702  143.6431  158.0010 H   0  0  0  0  0  0  0  0  0  0  0  0
  150.0938  142.6158  159.4116 H   0  0  0  0  0  0  0  0  0  0  0  0
  152.0094  144.8658  158.6631 H   0  0  0  0  0  0  0  0  0  0  0  0
  150.6542  144.8822  161.3182 H   0  0  0  0  0  0  0  0  0  0  0  0
  151.0288  146.2153  160.2560 H   0  0  0  0  0  0  0  0  0  0  0  0
  149.0476  145.5693  158.9194 H   0  0  0  0  0  0  0  0  0  0  0  0
  147.1216  145.2852  158.9650 H   0  0  0  0  0  0  0  0  0  0  0  0
  146.1428  143.6354  162.2376 H   0  0  0  0  0  0  0  0  0  0  0  0
  143.7586  143.1597  162.7165 H   0  0  0  0  0  0  0  0  0  0  0  0
  142.0167  143.8930  161.0698 H   0  0  0  0  0  0  0  0  0  0  0  0
  144.8545  145.5073  158.5449 H   0  0  0  0  0  0  0  0  0  0  0  0
  153.2386  144.3163  160.7164 H   0  0  0  0  0  0  0  0  0  0  0  0
  152.1142  143.0287  161.0881 H   0  0  0  0  0  0  0  0  0  0  0  0
  153.9781  143.1274  158.6530 H   0  0  0  0  0  0  0  0  0  0  0  0
  154.1236  142.0670  160.0407 H   0  0  0  0  0  0  0  0  0  0  0  0
  1  2  1  0  0  0  0
  1 19  1  0  0  0  0
  1 20  1  0  0  0  0
  1 21  1  0  0  0  0
  2 18  1  0  0  0  0
  2  3  1  0  0  0  0
  2 22  1  0  0  0  0
  3  4  1  0  0  0  0
  3 23  1  0  0  0  0
  3 24  1  0  0  0  0
  4  5  1  0  0  0  0
  4 16  1  0  0  0  0
  4 25  1  0  0  0  0
  5  6  1  0  0  0  0
  5 26  1  0  0  0  0
  5 27  1  0  0  0  0
  6  7  1  0  0  0  0
  6 28  1  0  0  0  0
  7  8  2  0  0  0  0
  7  9  1  0  0  0  0
  9 10  1  0  0  0  0
  9 29  1  0  0  0  0
 10 15  1  0  0  0  0
 10 11  2  0  0  0  0
 11 12  1  0  0  0  0
 11 30  1  0  0  0  0
 12 13  2  0  0  0  0
 12 31  1  0  0  0  0
 13 14  1  0  0  0  0
 13 32  1  0  0  0  0
 14 15  2  0  0  0  0
 15 33  1  0  0  0  0
 16 17  1  0  0  0  0
 16 34  1  0  0  0  0
 16 35  1  0  0  0  0
 17 18  1  0  0  0  0
 17 36  1  0  0  0  0
 17 37  1  0  0  0  0
M  END
> <s_m_source_file>
AV-unprocessed.smi

> <i_m_source_file_index>
3323

> <i_lp_mmshare_version>
43012

> <i_f3d_flags>
0

> <s_epik_input>
W0NIM11bQ0BASF0xW0NIMl1bQ0BIXShbQ0gyXVtDSDJdTzEpW0NIMl1bTkhdQyg9TylbTkhdYzJbY0hdW2NIXVtjSF1uW2NIXTI=

> <s_epik_cmdline>
J2VwaWtfcHl0aG9uJywgJy1waCcsICc3LjAnLCAnLXRuJywgJzgnLCAnLW1hJywgJzIwMCcsICctbWV0YWxfYmluZGluZycsICctaW1hZScsICc8aW5maWxlLm1hZT4nLCAnLW9tYWUnLCAnPG91dGZpbGUubWFlPic=

> <r_epik_Ionization_Penalty>
0.00485293

> <r_epik_Ionization_Penalty_Charging>
0

> <r_epik_Ionization_Penalty_Neutral>
0.00485293

> <r_epik_State_Penalty>
0.00349083

> <r_epik_Charging_Adjusted_Penalty>
0.00349083

> <i_epik_Tot_Q>
0

> <i_epik_Tot_abs_Q>
0

> <r_epik_Metal_State_Penalty>
-0

> <b_epik_Metal_Only>
0

> <s_lp_Force_Field>
OPLS_2005

> <r_lp_Energy>
10.9361

> <b_lp_Chiralities_Consistent>
1

> <s_lp_Variant>
AV-unprocessed.smi:3323-2

> <Gold.Version>
5.8.1

> <Gold.Id.Protein>
6NUR|6NUR_protein|mol2

> <Gold.PLP.Fitness>
43.7239

> <Gold.PLP.PLP>
-36.4249

> <Gold.PLP.part.hbond>
-3.0000

> <Gold.PLP.part.metal>
0.0000

> <Gold.PLP.part.buried>
-7.8260

> <Gold.PLP.part.nonpolar>
-26.7507

> <Gold.PLP.part.repulsive>
0.8782

> <Gold.PLP.ligand.clash>
0.0000

> <Gold.PLP.ligand.torsion>
0.5221

> <Gold.PLP.Chemscore.Hbond>
2.7800

> <Gold.PLP.Chemscore.CHOScore>
0.0000

> <Gold.PLP.Chemscore.Metal>
0.0000

> <Gold.Chemscore.Hbonds>
donor molecule, donor type, donor heavy atom, donor atom, acceptor molecule, acceptor atom, score
      L1  H     6    28       P1  8029  0.99
      L1  H     9    29       P1  8029  1.00
      P1  H  6933  6944       L1     8  0.82

> <Gold.PLP.Chemscore.Internal.Correction>
0.0032

> <Gold.Rescore>
     Score         DG    S(hbond)    S(metal)    S(lipo)     H(rot)  DE(clash)    DE(int)     intcor
     20.85     -22.23       2.88        0.00      87.92       1.23       0.03       1.35       ----

> <Gold.Chemscore.Fitness>
20.8523

> <Gold.Chemscore.DG>
-22.2333

> <Gold.Chemscore.ZeroCoef>
-5.4800

> <Gold.Chemscore.Hbond>
2.8769

> <Gold.Chemscore.Metal>
0.0000

> <Gold.Chemscore.Lipo>
87.9156

> <Gold.Chemscore.Internal_Hbond>
0.0000

> <Gold.Chemscore.DEClash>
0.0270

> <Gold.Chemscore.DEInternal>
1.3540

> <Gold.Chemscore.Rot>
1.2273

> <Gold.Chemscore.Internal.Correction>
   9.000000E+99

> <Gold.Chemscore.Hbonds>
donor molecule, donor type, donor heavy atom, donor atom, acceptor molecule, acceptor atom, score
      L1  H     6    28       P1  8029  0.91
      L1  H     9    29       P1  8029  0.99
      P1  H  6933  6944       L1     8  0.39

> <Gold.Chemscore.Hbond.Weighted>
-9.6090

> <Gold.Chemscore.Metal.Weighted>
-0.0000

> <Gold.Chemscore.Lipo.Weighted>
-10.2861

> <Gold.Chemscore.Internal_Hbond.Weighted>
0.0000

> <Gold.Chemscore.DEClash.Weighted>
0.0270

> <Gold.Chemscore.DEInternal.Weighted>
1.3540

> <Gold.Chemscore.Rot.Weighted>
3.1418

> <Gold.Chemscore.Internal.Correction.Weighted>
   9.000000E+99

> <Gold.Protein.RotatedTorsions>
[ 6907 6896 6895 6894 ] final  110.63 input  -60.11 | X-H torsion
[ 7974 7965 7964 7962 ] final   38.36 input  175.53 | X-H torsion
[ 8008 7997 7996 7995 ] final -178.04 input   59.86 | X-H torsion
[ 10167 10162 10161 10158 ] final -135.61 input  -65.29 | X-H torsion
[ 10718 10713 10712 10709 ] final -105.74 input   66.30 | X-H torsion
[ 10763 10752 10751 10750 ] final  147.82 input  -60.55 | X-H torsion
[ 11005 11000 10999 10996 ] final   47.88 input  -57.11 | X-H torsion

> <Gold.Protein.ActiveResidues>
 VAL166  LYS551  ARG553  GLY616  TRP617  ASP618  TYR619  PRO620  LYS621  CYS622 
 ASP623  PHE694  ASN695  SER759  ASP760  ASP761  ALA762  ILE779  LEU786  VAL792 
 PHE793  MET794  SER795  GLU796  ALA797  LYS798  CYS799  TRP800  GLU811  SER814 

> <Gold.Protein.RotatedAtoms>
  152.5010  133.8773  159.7328 H   0  0  0  0  0  0  0  0  0  0  0  0  # atno 6907 bound_to 6896
  150.9244  133.6832  159.2831 H   0  0  0  0  0  0  0  0  0  0  0  0  # atno 6908 bound_to 6896
  151.4198  135.1001  159.9663 H   0  0  0  0  0  0  0  0  0  0  0  0  # atno 6909 bound_to 6896
  146.1067  139.5781  142.9378 H   0  0  0  0  0  0  0  0  0  0  0  0  # atno 7974 bound_to 7965
  156.0141  140.1247  157.0424 H   0  0  0  0  0  0  0  0  0  0  0  0  # atno 8008 bound_to 7997
  154.4286  140.1082  156.5940 H   0  0  0  0  0  0  0  0  0  0  0  0  # atno 8009 bound_to 7997
  155.6038  140.3471  155.4604 H   0  0  0  0  0  0  0  0  0  0  0  0  # atno 8010 bound_to 7997
  139.8762  143.6896  152.2633 H   0  0  0  0  0  0  0  0  0  0  0  0  # atno 10167 bound_to 10162
  156.0359  130.5578  150.7582 H   0  0  0  0  0  0  0  0  0  0  0  0  # atno 10718 bound_to 10713
  154.0446  135.2887  155.3350 H   0  0  0  0  0  0  0  0  0  0  0  0  # atno 10763 bound_to 10752
  154.6908  135.5227  153.8392 H   0  0  0  0  0  0  0  0  0  0  0  0  # atno 10764 bound_to 10752
  153.0586  135.6605  154.0647 H   0  0  0  0  0  0  0  0  0  0  0  0  # atno 10765 bound_to 10752
  140.1240  134.4792  155.8574 H   0  0  0  0  0  0  0  0  0  0  0  0  # atno 11005 bound_to 11000
  145.5745  141.0390  143.2156 LP  0  0  0  0  0  0  0  0  0  0  0  0  # atno 17320 bound_to 7965
  144.7477  139.7276  143.7285 LP  0  0  0  0  0  0  0  0  0  0  0  0  # atno 17321 bound_to 7965
  139.7238  144.7597  151.0911 LP  0  0  0  0  0  0  0  0  0  0  0  0  # atno 17342 bound_to 10162
  140.7752  143.5173  150.9579 LP  0  0  0  0  0  0  0  0  0  0  0  0  # atno 17343 bound_to 10162
  157.5108  131.0925  151.0200 LP  0  0  0  0  0  0  0  0  0  0  0  0  # atno 17370 bound_to 10713
  157.0556  130.5804  149.5377 LP  0  0  0  0  0  0  0  0  0  0  0  0  # atno 17371 bound_to 10713
  141.2157  133.6771  156.6943 LP  0  0  0  0  0  0  0  0  0  0  0  0  # atno 17394 bound_to 11000
  140.2928  134.8227  157.4031 LP  0  0  0  0  0  0  0  0  0  0  0  0  # atno 17395 bound_to 11000

$$$$
