AV-unprocessed.smi:2655|AV-procd|sdf|10303|dock10
  -GOLD-   2272014323D 1   1.00000     0.00000
 Structure written by MMmdl.
 33 34  0  0  0  0  0  0  0  0  2 V2000
  146.6806  132.8855  150.9056 C   0  0  0  0  0  0  0  0  0  0  0  0
  146.1681  134.2388  151.3485 C   0  0  0  0  0  0  0  0  0  0  0  0
  145.6257  135.1216  150.4601 N   0  0  0  0  0  0  0  0  0  0  0  0
  145.3124  136.2768  151.1307 N   0  0  0  0  0  0  0  0  0  0  0  0
  145.6128  136.1437  152.4330 C   0  0  0  0  0  0  0  0  0  0  0  0
  145.4408  136.9955  153.3022 O   0  0  0  0  0  0  0  0  0  0  0  0
  146.1719  134.8025  152.5639 C   0  0  0  0  0  0  0  0  0  0  0  0
  146.7079  134.2304  153.8627 C   0  0  0  0  0  0  0  0  0  0  0  0
  148.1164  133.6372  153.6961 C   0  0  0  0  0  0  0  0  0  0  0  0
  149.1467  134.6629  153.8133 N   0  0  0  0  0  0  0  0  0  0  0  0
  150.1037  134.7101  154.7514 C   0  0  0  0  0  0  0  0  0  0  0  0
  150.1638  133.8301  155.6134 O   0  0  0  0  0  0  0  0  0  0  0  0
  150.9297  135.7757  154.6342 N   0  5  0  0  0  0  0  0  0  0  0  0
  150.5538  136.9755  155.1031 C   0  0  0  0  0  0  0  0  0  0  0  0
  151.2253  138.2088  154.8798 C   0  0  0  0  0  0  0  0  0  0  0  0
  150.4625  139.1089  155.5681 C   0  0  0  0  0  0  0  0  0  0  0  0
  150.5687  140.5823  155.7671 C   0  0  0  0  0  0  0  0  0  0  0  0
  149.4188  138.4789  156.1718 O   0  0  0  0  0  0  0  0  0  0  0  0
  149.4880  137.1127  155.8741 N   0  0  0  0  0  0  0  0  0  0  0  0
  146.1686  132.0926  151.4512 H   0  0  0  0  0  0  0  0  0  0  0  0
  147.7498  132.8040  151.1016 H   0  0  0  0  0  0  0  0  0  0  0  0
  146.5137  132.7323  149.8390 H   0  0  0  0  0  0  0  0  0  0  0  0
  144.9020  137.0541  150.6337 H   0  0  0  0  0  0  0  0  0  0  0  0
  146.0120  133.4727  154.2252 H   0  0  0  0  0  0  0  0  0  0  0  0
  146.7281  135.0171  154.6174 H   0  0  0  0  0  0  0  0  0  0  0  0
  148.2922  132.8446  154.4258 H   0  0  0  0  0  0  0  0  0  0  0  0
  148.2101  133.1780  152.7116 H   0  0  0  0  0  0  0  0  0  0  0  0
  149.1356  135.4020  153.1259 H   0  0  0  0  0  0  0  0  0  0  0  0
  152.1181  138.4004  154.3038 H   0  0  0  0  0  0  0  0  0  0  0  0
  151.4705  140.8310  156.3264 H   0  0  0  0  0  0  0  0  0  0  0  0
  149.7115  140.9680  156.3193 H   0  0  0  0  0  0  0  0  0  0  0  0
  150.6117  141.0981  154.8078 H   0  0  0  0  0  0  0  0  0  0  0  0
  145.6217  135.0570  149.4522 H   0  0  0  0  0  0  0  0  0  0  0  0
  1 20  1  0  0  0  0
  1 21  1  0  0  0  0
  1 22  1  0  0  0  0
  1  2  1  0  0  0  0
  2  7  2  0  0  0  0
  2  3  1  0  0  0  0
  3  4  1  0  0  0  0
  3 33  1  0  0  0  0
  4 23  1  0  0  0  0
  4  5  1  0  0  0  0
  5  7  1  0  0  0  0
  5  6  2  0  0  0  0
  7  8  1  0  0  0  0
  8  9  1  0  0  0  0
  8 24  1  0  0  0  0
  8 25  1  0  0  0  0
  9 10  1  0  0  0  0
  9 26  1  0  0  0  0
  9 27  1  0  0  0  0
 10 11  1  0  0  0  0
 10 28  1  0  0  0  0
 11 12  2  0  0  0  0
 11 13  1  0  0  0  0
 13 14  1  0  0  0  0
 14 19  2  0  0  0  0
 14 15  1  0  0  0  0
 15 16  2  0  0  0  0
 15 29  1  0  0  0  0
 16 17  1  0  0  0  0
 16 18  1  0  0  0  0
 17 30  1  0  0  0  0
 17 31  1  0  0  0  0
 17 32  1  0  0  0  0
 18 19  1  0  0  0  0
M  CHG  1  13  -1
M  END
> <s_m_source_file>
AV-unprocessed.smi

> <i_m_source_file_index>
2655

> <i_lp_mmshare_version>
43012

> <i_f3d_flags>
0

> <s_epik_input>
W0NIM11DMT1OW05IXUMoPU8pW0NASF0xW0NIMl1bQ0gyXVtOSF1DKD1PKVtOSF1jMltjSF1jKFtDSDNdKW9uMg==

> <s_epik_cmdline>
J2VwaWtfcHl0aG9uJywgJy1waCcsICc3LjAnLCAnLXRuJywgJzgnLCAnLW1hJywgJzIwMCcsICctbWV0YWxfYmluZGluZycsICctaW1hZScsICc8aW5maWxlLm1hZT4nLCAnLW9tYWUnLCAnPG91dGZpbGUubWFlPic=

> <r_lp_tautomer_probability>
0.00220696

> <r_epik_Ionization_Penalty>
6.47655

> <r_epik_Ionization_Penalty_Charging>
6.44485

> <r_epik_Ionization_Penalty_Neutral>
0.0316949

> <r_epik_State_Penalty>
7.07162

> <r_epik_Charging_Adjusted_Penalty>
13.5165

> <i_epik_Tot_Q>
-1

> <i_epik_Tot_abs_Q>
1

> <r_epik_Metal_State_Penalty>
4.39363

> <b_epik_Metal_Only>
1

> <s_lp_Force_Field>
OPLS_2005

> <r_lp_Energy>
11.561

> <b_lp_Chiralities_Consistent>
1

> <s_lp_Variant>
AV-unprocessed.smi:2655-6

> <Gold.Version>
5.8.1

> <Gold.Id.Protein>
6NUR|6NUR_protein|mol2

> <Gold.PLP.Fitness>
37.8545

> <Gold.PLP.PLP>
-24.8019

> <Gold.PLP.part.hbond>
-3.9778

> <Gold.PLP.part.metal>
0.0000

> <Gold.PLP.part.buried>
-2.1326

> <Gold.PLP.part.nonpolar>
-19.4301

> <Gold.PLP.part.repulsive>
0.5881

> <Gold.PLP.ligand.clash>
0.0000

> <Gold.PLP.ligand.torsion>
0.9998

> <Gold.PLP.Chemscore.Hbond>
5.0000

> <Gold.PLP.Chemscore.CHOScore>
0.0000

> <Gold.PLP.Chemscore.Metal>
0.0000

> <Gold.Chemscore.Hbonds>
donor molecule, donor type, donor heavy atom, donor atom, acceptor molecule, acceptor atom, score
      L1  H     3    33       P1  7921  1.00
      L1  H     4    23       P1 10171  1.00
      L1  H    10    28       P1  7948  0.89
      P1  H 10752 10765       L1    13  2.00

> <Gold.PLP.Chemscore.Internal.Correction>
0.0523

> <Gold.Rescore>
     Score         DG    S(hbond)    S(metal)    S(lipo)     H(rot)  DE(clash)    DE(int)     intcor
     14.97     -16.35       3.20        0.00      42.28       1.86       0.25       1.12       ----

> <Gold.Chemscore.Fitness>
14.9717

> <Gold.Chemscore.DG>
-16.3474

> <Gold.Chemscore.ZeroCoef>
-5.4800

> <Gold.Chemscore.Hbond>
3.2015

> <Gold.Chemscore.Metal>
0.0000

> <Gold.Chemscore.Lipo>
42.2757

> <Gold.Chemscore.Internal_Hbond>
0.0000

> <Gold.Chemscore.DEClash>
0.2533

> <Gold.Chemscore.DEInternal>
1.1224

> <Gold.Chemscore.Rot>
1.8640

> <Gold.Chemscore.Internal.Correction>
   9.000000E+99

> <Gold.Chemscore.Hbonds>
donor molecule, donor type, donor heavy atom, donor atom, acceptor molecule, acceptor atom, score
      L1  H     3    33       P1  7921  0.99
      L1  H     4    23       P1 10171  0.94
      L1  H    10    28       P1  7948  0.22
      P1  H 10752 10765       L1    13  0.81

> <Gold.Chemscore.Hbond.Weighted>
-10.6931

> <Gold.Chemscore.Metal.Weighted>
-0.0000

> <Gold.Chemscore.Lipo.Weighted>
-4.9463

> <Gold.Chemscore.Internal_Hbond.Weighted>
0.0000

> <Gold.Chemscore.DEClash.Weighted>
0.2533

> <Gold.Chemscore.DEInternal.Weighted>
1.1224

> <Gold.Chemscore.Rot.Weighted>
4.7719

> <Gold.Chemscore.Internal.Correction.Weighted>
   9.000000E+99

> <Gold.Protein.RotatedTorsions>
[ 6907 6896 6895 6894 ] final   -6.73 input  -60.11 | X-H torsion
[ 7974 7965 7964 7962 ] final    3.68 input  175.53 | X-H torsion
[ 8008 7997 7996 7995 ] final -122.04 input   59.86 | X-H torsion
[ 10167 10162 10161 10158 ] final  -41.77 input  -65.29 | X-H torsion
[ 10718 10713 10712 10709 ] final -127.34 input   66.30 | X-H torsion
[ 10763 10752 10751 10750 ] final  173.62 input  -60.55 | X-H torsion
[ 11005 11000 10999 10996 ] final   33.14 input  -57.11 | X-H torsion

> <Gold.Protein.ActiveResidues>
 VAL166  LYS551  ARG553  GLY616  TRP617  ASP618  TYR619  PRO620  LYS621  CYS622 
 ASP623  PHE694  ASN695  SER759  ASP760  ASP761  ALA762  ILE779  LEU786  VAL792 
 PHE793  MET794  SER795  GLU796  ALA797  LYS798  CYS799  TRP800  GLU811  SER814 

> <Gold.Protein.RotatedAtoms>
  151.4608  135.1038  159.9724 H   0  0  0  0  0  0  0  0  0  0  0  0  # atno 6907 bound_to 6896
  152.4853  133.8354  159.7135 H   0  0  0  0  0  0  0  0  0  0  0  0  # atno 6908 bound_to 6896
  150.8958  133.7123  159.2919 H   0  0  0  0  0  0  0  0  0  0  0  0  # atno 6909 bound_to 6896
  146.2445  140.0648  142.8366 H   0  0  0  0  0  0  0  0  0  0  0  0  # atno 7974 bound_to 7965
  155.1578  140.0405  157.2835 H   0  0  0  0  0  0  0  0  0  0  0  0  # atno 8008 bound_to 7997
  154.6358  140.2535  155.7353 H   0  0  0  0  0  0  0  0  0  0  0  0  # atno 8009 bound_to 7997
  156.2508  140.2866  156.0730 H   0  0  0  0  0  0  0  0  0  0  0  0  # atno 8010 bound_to 7997
  140.6991  143.3075  151.3114 H   0  0  0  0  0  0  0  0  0  0  0  0  # atno 10167 bound_to 10162
  156.1848  130.6756  151.0350 H   0  0  0  0  0  0  0  0  0  0  0  0  # atno 10718 bound_to 10713
  154.4426  135.2762  155.1837 H   0  0  0  0  0  0  0  0  0  0  0  0  # atno 10763 bound_to 10752
  154.3697  135.6111  153.5737 H   0  0  0  0  0  0  0  0  0  0  0  0  # atno 10764 bound_to 10752
  152.9842  135.5854  154.4756 H   0  0  0  0  0  0  0  0  0  0  0  0  # atno 10765 bound_to 10752
  140.2662  134.3135  155.7842 H   0  0  0  0  0  0  0  0  0  0  0  0  # atno 11005 bound_to 11000
  145.0868  140.9258  143.4793 LP  0  0  0  0  0  0  0  0  0  0  0  0  # atno 17320 bound_to 7965
  145.0812  139.2958  143.5782 LP  0  0  0  0  0  0  0  0  0  0  0  0  # atno 17321 bound_to 7965
  139.6486  144.0404  152.2610 LP  0  0  0  0  0  0  0  0  0  0  0  0  # atno 17342 bound_to 10162
  139.9933  144.6346  150.7795 LP  0  0  0  0  0  0  0  0  0  0  0  0  # atno 17343 bound_to 10162
  157.6891  131.0815  150.7157 LP  0  0  0  0  0  0  0  0  0  0  0  0  # atno 17370 bound_to 10713
  156.7214  130.4682  149.5522 LP  0  0  0  0  0  0  0  0  0  0  0  0  # atno 17371 bound_to 10713
  141.2184  133.7439  156.9263 LP  0  0  0  0  0  0  0  0  0  0  0  0  # atno 17394 bound_to 11000
  140.1417  134.9289  157.2476 LP  0  0  0  0  0  0  0  0  0  0  0  0  # atno 17395 bound_to 11000

$$$$
