AV-unprocessed.smi:1429|AV-procd|sdf|5818|dock1
  -GOLD-   22720 5473D 1   1.00000     0.00000
 Structure written by MMmdl.
 30 31  0  0  0  0  0  0  0  0  1 V2000
  145.2859  130.3811  151.7023 C   0  0  0  0  0  0  0  0  0  0  0  0
  146.2938  131.2451  152.3802 C   0  0  0  0  0  0  0  0  0  0  0  0
  147.0490  130.8120  153.3968 N   0  0  0  0  0  0  0  0  0  0  0  0
  147.9119  131.7923  153.8660 N   0  0  0  0  0  0  0  0  0  0  0  0
  147.7798  132.9407  153.1883 C   0  0  0  0  0  0  0  0  0  0  0  0
  148.5398  134.1092  153.4603 N   0  0  0  0  0  0  0  0  0  0  0  0
  149.2027  134.4283  154.5858 C   0  0  0  0  0  0  0  0  0  0  0  0
  149.2621  133.7318  155.5995 O   0  0  0  0  0  0  0  0  0  0  0  0
  149.8042  135.6213  154.4740 N   0  0  0  0  0  0  0  0  0  0  0  0
  150.6005  136.2568  155.5187 C   0  0  0  0  0  0  0  0  0  0  0  0
  151.3096  137.5283  155.0146 C   0  0  2  0  0  0  0  0  0  0  0  0
  151.9986  138.3430  156.0920 C   0  0  0  0  0  0  0  0  0  0  0  0
  152.1529  139.6947  155.4039 C   0  0  0  0  0  0  0  0  0  0  0  0
  151.0101  139.8286  154.5649 O   0  0  0  0  0  0  0  0  0  0  0  0
  150.3643  138.5672  154.4102 C   0  0  0  0  0  0  0  0  0  0  0  0
  146.5770  132.9169  151.9099 S   0  0  0  0  0  0  0  0  0  0  0  0
  145.6318  129.3474  151.6706 H   0  0  0  0  0  0  0  0  0  0  0  0
  145.1205  130.7236  150.6807 H   0  0  0  0  0  0  0  0  0  0  0  0
  144.3400  130.4190  152.2426 H   0  0  0  0  0  0  0  0  0  0  0  0
  148.5831  134.7816  152.7089 H   0  0  0  0  0  0  0  0  0  0  0  0
  149.7048  136.1275  153.6060 H   0  0  0  0  0  0  0  0  0  0  0  0
  149.9677  136.4926  156.3758 H   0  0  0  0  0  0  0  0  0  0  0  0
  151.3350  135.5316  155.8704 H   0  0  0  0  0  0  0  0  0  0  0  0
  152.0493  137.2602  154.2581 H   0  0  0  0  0  0  0  0  0  0  0  0
  151.3563  138.4393  156.9687 H   0  0  0  0  0  0  0  0  0  0  0  0
  152.9517  137.9188  156.4096 H   0  0  0  0  0  0  0  0  0  0  0  0
  152.2286  140.5198  156.1125 H   0  0  0  0  0  0  0  0  0  0  0  0
  153.0462  139.7018  154.7783 H   0  0  0  0  0  0  0  0  0  0  0  0
  150.1398  138.3624  153.3632 H   0  0  0  0  0  0  0  0  0  0  0  0
  149.4203  138.5991  154.9560 H   0  0  0  0  0  0  0  0  0  0  0  0
  1  2  1  0  0  0  0
  1 17  1  0  0  0  0
  1 18  1  0  0  0  0
  1 19  1  0  0  0  0
  2 16  1  0  0  0  0
  2  3  2  0  0  0  0
  3  4  1  0  0  0  0
  4  5  2  0  0  0  0
  5  6  1  0  0  0  0
  5 16  1  0  0  0  0
  6  7  1  0  0  0  0
  6 20  1  0  0  0  0
  7  8  2  0  0  0  0
  7  9  1  0  0  0  0
  9 10  1  0  0  0  0
  9 21  1  0  0  0  0
 10 11  1  0  0  0  0
 10 22  1  0  0  0  0
 10 23  1  0  0  0  0
 11 15  1  0  0  0  0
 11 12  1  0  0  0  0
 11 24  1  0  0  0  0
 12 13  1  0  0  0  0
 12 25  1  0  0  0  0
 12 26  1  0  0  0  0
 13 14  1  0  0  0  0
 13 27  1  0  0  0  0
 13 28  1  0  0  0  0
 14 15  1  0  0  0  0
 15 29  1  0  0  0  0
 15 30  1  0  0  0  0
M  END
> <s_m_source_file>
AV-unprocessed.smi

> <i_m_source_file_index>
1429

> <i_lp_mmshare_version>
43012

> <i_f3d_flags>
0

> <s_epik_input>
W0NIM11jMW5uYyhzMSlbTkhdQyg9TylbTkhdW0NIMl1bQ0BASF0yW0NIMl1bQ0gyXU9bQ0gyXTI=

> <s_epik_cmdline>
J2VwaWtfcHl0aG9uJywgJy1waCcsICc3LjAnLCAnLXRuJywgJzgnLCAnLW1hJywgJzIwMCcsICctbWV0YWxfYmluZGluZycsICctaW1hZScsICc8aW5maWxlLm1hZT4nLCAnLW9tYWUnLCAnPG91dGZpbGUubWFlPic=

> <r_lp_tautomer_probability>
1

> <r_epik_Ionization_Penalty>
0.000468089

> <r_epik_Ionization_Penalty_Charging>
0

> <r_epik_Ionization_Penalty_Neutral>
0.000468089

> <r_epik_State_Penalty>
-0

> <r_epik_Charging_Adjusted_Penalty>
0

> <i_epik_Tot_Q>
0

> <i_epik_Tot_abs_Q>
0

> <r_epik_Metal_State_Penalty>
0.211262

> <b_epik_Metal_Only>
0

> <s_lp_Force_Field>
OPLS_2005

> <r_lp_Energy>
16.548

> <b_lp_Chiralities_Consistent>
1

> <s_lp_Variant>
AV-unprocessed.smi:1429-1

> <Gold.Version>
5.8.1

> <Gold.Id.Protein>
6NUR|6NUR_protein|mol2

> <Gold.PLP.Fitness>
35.3325

> <Gold.PLP.PLP>
-26.9779

> <Gold.PLP.part.hbond>
-3.2240

> <Gold.PLP.part.metal>
0.0000

> <Gold.PLP.part.buried>
-2.8104

> <Gold.PLP.part.nonpolar>
-21.3484

> <Gold.PLP.part.repulsive>
0.3438

> <Gold.PLP.ligand.clash>
0.0000

> <Gold.PLP.ligand.torsion>
0.1396

> <Gold.PLP.Chemscore.Hbond>
2.8760

> <Gold.PLP.Chemscore.CHOScore>
0.0000

> <Gold.PLP.Chemscore.Metal>
0.0000

> <Gold.Chemscore.Hbonds>
donor molecule, donor type, donor heavy atom, donor atom, acceptor molecule, acceptor atom, score
      L1  H     6    20       P1  7948  0.95
      L1  H     9    21       P1  7948  0.98
      P1  H  7989  7998       L1    14  0.90

> <Gold.PLP.Chemscore.Internal.Correction>
0.0058

> <Gold.Rescore>
     Score         DG    S(hbond)    S(metal)    S(lipo)     H(rot)  DE(clash)    DE(int)     intcor
     15.18     -16.59       2.59        0.00      49.64       1.31       0.00       1.41       ----

> <Gold.Chemscore.Fitness>
15.1818

> <Gold.Chemscore.DG>
-16.5946

> <Gold.Chemscore.ZeroCoef>
-5.4800

> <Gold.Chemscore.Hbond>
2.5948

> <Gold.Chemscore.Metal>
0.0000

> <Gold.Chemscore.Lipo>
49.6394

> <Gold.Chemscore.Internal_Hbond>
0.0000

> <Gold.Chemscore.DEClash>
0.0000

> <Gold.Chemscore.DEInternal>
1.4128

> <Gold.Chemscore.Rot>
1.3125

> <Gold.Chemscore.Internal.Correction>
   9.000000E+99

> <Gold.Chemscore.Hbonds>
donor molecule, donor type, donor heavy atom, donor atom, acceptor molecule, acceptor atom, score
      L1  H     6    20       P1  7948  0.21
      L1  H     9    21       P1  7948  0.24
      P1  H  7989  7998       L1    14  0.18

> <Gold.Chemscore.Hbond.Weighted>
-8.6668

> <Gold.Chemscore.Metal.Weighted>
-0.0000

> <Gold.Chemscore.Lipo.Weighted>
-5.8078

> <Gold.Chemscore.Internal_Hbond.Weighted>
0.0000

> <Gold.Chemscore.DEClash.Weighted>
0.0000

> <Gold.Chemscore.DEInternal.Weighted>
1.4128

> <Gold.Chemscore.Rot.Weighted>
3.3600

> <Gold.Chemscore.Internal.Correction.Weighted>
   9.000000E+99

> <Gold.Protein.RotatedTorsions>
[ 6907 6896 6895 6894 ] final -141.23 input  -60.11 | X-H torsion
[ 7974 7965 7964 7962 ] final -167.43 input  175.53 | X-H torsion
[ 8008 7997 7996 7995 ] final    5.04 input   59.86 | X-H torsion
[ 10167 10162 10161 10158 ] final  162.39 input  -65.29 | X-H torsion
[ 10718 10713 10712 10709 ] final   -8.27 input   66.30 | X-H torsion
[ 10763 10752 10751 10750 ] final -146.61 input  -60.55 | X-H torsion
[ 11005 11000 10999 10996 ] final   81.30 input  -57.11 | X-H torsion

> <Gold.Protein.ActiveResidues>
 VAL166  LYS551  ARG553  GLY616  TRP617  ASP618  TYR619  PRO620  LYS621  CYS622 
 ASP623  PHE694  ASN695  SER759  ASP760  ASP761  ALA762  ILE779  LEU786  VAL792 
 PHE793  MET794  SER795  GLU796  ALA797  LYS798  CYS799  TRP800  GLU811  SER814 

> <Gold.Protein.RotatedAtoms>
  151.0711  133.5465  159.2626 H   0  0  0  0  0  0  0  0  0  0  0  0  # atno 6907 bound_to 6896
  151.2405  135.0586  159.9033 H   0  0  0  0  0  0  0  0  0  0  0  0  # atno 6908 bound_to 6896
  152.5411  134.0486  159.8154 H   0  0  0  0  0  0  0  0  0  0  0  0  # atno 6909 bound_to 6896
  144.7223  140.2520  143.6277 H   0  0  0  0  0  0  0  0  0  0  0  0  # atno 7974 bound_to 7965
  154.7234  140.2716  155.6521 H   0  0  0  0  0  0  0  0  0  0  0  0  # atno 8008 bound_to 7997
  156.2830  140.2730  156.1837 H   0  0  0  0  0  0  0  0  0  0  0  0  # atno 8009 bound_to 7997
  155.0477  140.0371  157.2522 H   0  0  0  0  0  0  0  0  0  0  0  0  # atno 8010 bound_to 7997
  139.4860  144.4442  151.8913 H   0  0  0  0  0  0  0  0  0  0  0  0  # atno 10167 bound_to 10162
  156.7050  130.5105  149.5907 H   0  0  0  0  0  0  0  0  0  0  0  0  # atno 10718 bound_to 10713
  154.8327  135.3382  154.6689 H   0  0  0  0  0  0  0  0  0  0  0  0  # atno 10763 bound_to 10752
  153.7307  135.6952  153.4994 H   0  0  0  0  0  0  0  0  0  0  0  0  # atno 10764 bound_to 10752
  153.2314  135.4415  155.0552 H   0  0  0  0  0  0  0  0  0  0  0  0  # atno 10765 bound_to 10752
  139.9103  134.7986  156.2023 H   0  0  0  0  0  0  0  0  0  0  0  0  # atno 11005 bound_to 11000
  145.8219  139.2047  143.1933 LP  0  0  0  0  0  0  0  0  0  0  0  0  # atno 17320 bound_to 7965
  146.0507  140.8073  142.9783 LP  0  0  0  0  0  0  0  0  0  0  0  0  # atno 17321 bound_to 7965
  140.3895  144.2634  150.5901 LP  0  0  0  0  0  0  0  0  0  0  0  0  # atno 17342 bound_to 10162
  140.5159  143.2278  151.8464 LP  0  0  0  0  0  0  0  0  0  0  0  0  # atno 17343 bound_to 10162
  156.1702  130.6432  151.0827 LP  0  0  0  0  0  0  0  0  0  0  0  0  # atno 17370 bound_to 10713
  157.6958  131.0794  150.6972 LP  0  0  0  0  0  0  0  0  0  0  0  0  # atno 17371 bound_to 10713
  141.0517  133.6885  156.1784 LP  0  0  0  0  0  0  0  0  0  0  0  0  # atno 17394 bound_to 11000
  140.6800  134.4777  157.5589 LP  0  0  0  0  0  0  0  0  0  0  0  0  # atno 17395 bound_to 11000

$$$$
