AV-unprocessed.smi:1376|AV-procd|sdf|5591|dock6
  -GOLD-   22720 5193D 1   1.00000     0.00000
 Structure written by MMmdl.
 42 43  0  0  0  0  0  0  0  0  1 V2000
  154.0321  141.8222  162.2901 O   0  0  0  0  0  0  0  0  0  0  0  0
  154.3177  140.9705  161.4478 C   0  0  0  0  0  0  0  0  0  0  0  0
  155.4316  139.9490  161.7154 C   0  0  0  0  0  0  0  0  0  0  0  0
  155.0316  138.8986  162.6662 N   0  0  0  0  0  0  0  0  0  0  0  0
  154.1454  137.9087  162.1967 C   0  0  0  0  0  0  0  0  0  0  0  0
  153.7183  136.9078  162.9827 C   0  0  0  0  0  0  0  0  0  0  0  0
  154.1908  136.8610  164.3459 C   0  0  0  0  0  0  0  0  0  0  0  0
  155.0422  137.8003  164.8039 C   0  0  0  0  0  0  0  0  0  0  0  0
  155.5140  138.8946  163.9475 C   0  0  0  0  0  0  0  0  0  0  0  0
  156.2937  139.7555  164.3568 O   0  0  0  0  0  0  0  0  0  0  0  0
  153.7115  140.8821  160.2542 N   0  0  0  0  0  0  0  0  0  0  0  0
  152.6219  141.7367  159.7924 C   0  0  1  0  0  0  0  0  0  0  0  0
  153.1660  143.1033  159.3314 C   0  0  0  0  0  0  0  0  0  0  0  0
  152.0463  143.9880  158.7612 C   0  0  0  0  0  0  0  0  0  0  0  0
  151.2976  143.2745  157.6247 C   0  0  0  0  0  0  0  0  0  0  0  0
  150.7354  141.9199  158.0882 C   0  0  1  0  0  0  0  0  0  0  0  0
  150.1213  141.3063  156.9621 O   0  0  0  0  0  0  0  0  0  0  0  0
  148.8031  141.7616  156.6872 C   0  0  0  0  0  0  0  0  0  0  0  0
  148.3198  141.1508  155.3667 C   0  0  0  0  0  0  0  0  0  0  0  0
  147.1585  141.7073  155.0243 F   0  0  0  0  0  0  0  0  0  0  0  0
  149.2070  141.3832  154.3999 F   0  0  0  0  0  0  0  0  0  0  0  0
  148.1405  139.8375  155.5042 F   0  0  0  0  0  0  0  0  0  0  0  0
  151.8647  141.0322  158.6514 C   0  0  0  0  0  0  0  0  0  0  0  0
  155.7525  139.4964  160.7748 H   0  0  0  0  0  0  0  0  0  0  0  0
  156.3046  140.4892  162.0837 H   0  0  0  0  0  0  0  0  0  0  0  0
  153.8448  138.0112  161.1640 H   0  0  0  0  0  0  0  0  0  0  0  0
  153.0423  136.1551  162.6044 H   0  0  0  0  0  0  0  0  0  0  0  0
  153.8619  136.0683  165.0016 H   0  0  0  0  0  0  0  0  0  0  0  0
  155.3860  137.7484  165.8266 H   0  0  0  0  0  0  0  0  0  0  0  0
  154.0189  140.1576  159.6217 H   0  0  0  0  0  0  0  0  0  0  0  0
  151.9175  141.8968  160.6113 H   0  0  0  0  0  0  0  0  0  0  0  0
  153.6499  143.6166  160.1632 H   0  0  0  0  0  0  0  0  0  0  0  0
  153.9333  142.9575  158.5696 H   0  0  0  0  0  0  0  0  0  0  0  0
  151.3448  144.2467  159.5552 H   0  0  0  0  0  0  0  0  0  0  0  0
  152.4637  144.9280  158.3988 H   0  0  0  0  0  0  0  0  0  0  0  0
  150.4875  143.9076  157.2611 H   0  0  0  0  0  0  0  0  0  0  0  0
  151.9736  143.1234  156.7819 H   0  0  0  0  0  0  0  0  0  0  0  0
  149.9893  142.1063  158.8630 H   0  0  0  0  0  0  0  0  0  0  0  0
  148.1206  141.4825  157.4898 H   0  0  0  0  0  0  0  0  0  0  0  0
  148.7928  142.8502  156.6141 H   0  0  0  0  0  0  0  0  0  0  0  0
  152.5595  140.7800  157.8489 H   0  0  0  0  0  0  0  0  0  0  0  0
  151.4614  140.0885  159.0182 H   0  0  0  0  0  0  0  0  0  0  0  0
  1  2  2  0  0  0  0
  2  3  1  0  0  0  0
  2 11  1  0  0  0  0
  3  4  1  0  0  0  0
  3 24  1  0  0  0  0
  3 25  1  0  0  0  0
  4  9  1  0  0  0  0
  4  5  1  0  0  0  0
  5  6  2  0  0  0  0
  5 26  1  0  0  0  0
  6  7  1  0  0  0  0
  6 27  1  0  0  0  0
  7  8  2  0  0  0  0
  7 28  1  0  0  0  0
  8  9  1  0  0  0  0
  8 29  1  0  0  0  0
  9 10  2  0  0  0  0
 11 12  1  0  0  0  0
 11 30  1  0  0  0  0
 12 23  1  0  0  0  0
 12 13  1  0  0  0  0
 12 31  1  0  0  0  0
 13 14  1  0  0  0  0
 13 32  1  0  0  0  0
 13 33  1  0  0  0  0
 14 15  1  0  0  0  0
 14 34  1  0  0  0  0
 14 35  1  0  0  0  0
 15 16  1  0  0  0  0
 15 36  1  0  0  0  0
 15 37  1  0  0  0  0
 16 17  1  0  0  0  0
 16 23  1  0  0  0  0
 16 38  1  0  0  0  0
 17 18  1  0  0  0  0
 18 19  1  0  0  0  0
 18 39  1  0  0  0  0
 18 40  1  0  0  0  0
 19 20  1  0  0  0  0
 19 21  1  0  0  0  0
 19 22  1  0  0  0  0
 23 41  1  0  0  0  0
 23 42  1  0  0  0  0
M  END
> <s_m_source_file>
AV-unprocessed.smi

> <i_m_source_file_index>
1376

> <i_lp_mmshare_version>
43012

> <i_f3d_flags>
0

> <s_epik_input>
Tz1jMVtjSF1bY0hdW2NIXVtjSF1uMVtDSDJdQyg9TylbTkhdW0NAQEhdMltDSDJdW0NIMl1bQ0gyXVtDQEhdKFtDSDJdMilPW0NIMl1DKEYpKEYpRg==

> <s_epik_cmdline>
J2VwaWtfcHl0aG9uJywgJy1waCcsICc3LjAnLCAnLXRuJywgJzgnLCAnLW1hJywgJzIwMCcsICctbWV0YWxfYmluZGluZycsICctaW1hZScsICc8aW5maWxlLm1hZT4nLCAnLW9tYWUnLCAnPG91dGZpbGUubWFlPic=

> <r_lp_tautomer_probability>
1

> <r_epik_Ionization_Penalty>
4.08567e-07

> <r_epik_Ionization_Penalty_Charging>
3.90028e-07

> <r_epik_Ionization_Penalty_Neutral>
1.85393e-08

> <r_epik_State_Penalty>
-0

> <r_epik_Charging_Adjusted_Penalty>
3.90028e-07

> <i_epik_Tot_Q>
0

> <i_epik_Tot_abs_Q>
0

> <r_epik_Metal_State_Penalty>
-0

> <b_epik_Metal_Only>
0

> <s_lp_Force_Field>
OPLS_2005

> <r_lp_Energy>
18.2113

> <b_lp_Chiralities_Consistent>
1

> <s_lp_Variant>
AV-unprocessed.smi:1376-2

> <Gold.Version>
5.8.1

> <Gold.Id.Protein>
6NUR|6NUR_protein|mol2

> <Gold.PLP.Fitness>
46.1848

> <Gold.PLP.PLP>
-47.9145

> <Gold.PLP.part.hbond>
-0.9960

> <Gold.PLP.part.metal>
0.0000

> <Gold.PLP.part.buried>
-4.4036

> <Gold.PLP.part.nonpolar>
-42.9460

> <Gold.PLP.part.repulsive>
0.1278

> <Gold.PLP.ligand.clash>
0.0000

> <Gold.PLP.ligand.torsion>
0.8896

> <Gold.PLP.Chemscore.Hbond>
0.0000

> <Gold.PLP.Chemscore.CHOScore>
0.0000

> <Gold.PLP.Chemscore.Metal>
0.0000

> <Gold.PLP.Chemscore.Internal.Correction>
0.0495

> <Gold.Rescore>
     Score         DG    S(hbond)    S(metal)    S(lipo)     H(rot)  DE(clash)    DE(int)     intcor
     11.69     -12.97       0.00        0.00     111.73       2.18       0.46       0.82       ----

> <Gold.Chemscore.Fitness>
11.6856

> <Gold.Chemscore.DG>
-12.9724

> <Gold.Chemscore.ZeroCoef>
-5.4800

> <Gold.Chemscore.Hbond>
0.0000

> <Gold.Chemscore.Metal>
0.0000

> <Gold.Chemscore.Lipo>
111.7309

> <Gold.Chemscore.Internal_Hbond>
0.0000

> <Gold.Chemscore.DEClash>
0.4645

> <Gold.Chemscore.DEInternal>
0.8222

> <Gold.Chemscore.Rot>
2.1797

> <Gold.Chemscore.Internal.Correction>
   9.000000E+99

> <Gold.Chemscore.Hbond.Weighted>
-0.0000

> <Gold.Chemscore.Metal.Weighted>
-0.0000

> <Gold.Chemscore.Lipo.Weighted>
-13.0725

> <Gold.Chemscore.Internal_Hbond.Weighted>
0.0000

> <Gold.Chemscore.DEClash.Weighted>
0.4645

> <Gold.Chemscore.DEInternal.Weighted>
0.8222

> <Gold.Chemscore.Rot.Weighted>
5.5802

> <Gold.Chemscore.Internal.Correction.Weighted>
   9.000000E+99

> <Gold.Protein.RotatedTorsions>
[ 6907 6896 6895 6894 ] final  113.60 input  -60.11 | X-H torsion
[ 7974 7965 7964 7962 ] final  125.55 input  175.53 | X-H torsion
[ 8008 7997 7996 7995 ] final  163.64 input   59.86 | X-H torsion
[ 10167 10162 10161 10158 ] final   52.46 input  -65.29 | X-H torsion
[ 10718 10713 10712 10709 ] final  -44.47 input   66.30 | X-H torsion
[ 10763 10752 10751 10750 ] final  -78.92 input  -60.55 | X-H torsion
[ 11005 11000 10999 10996 ] final  136.45 input  -57.11 | X-H torsion

> <Gold.Protein.ActiveResidues>
 VAL166  LYS551  ARG553  GLY616  TRP617  ASP618  TYR619  PRO620  LYS621  CYS622 
 ASP623  PHE694  ASN695  SER759  ASP760  ASP761  ALA762  ILE779  LEU786  VAL792 
 PHE793  MET794  SER795  GLU796  ALA797  LYS798  CYS799  TRP800  GLU811  SER814 

> <Gold.Protein.RotatedAtoms>
  152.4851  133.8352  159.7123 H   0  0  0  0  0  0  0  0  0  0  0  0  # atno 6907 bound_to 6896
  150.8931  133.7207  159.2906 H   0  0  0  0  0  0  0  0  0  0  0  0  # atno 6908 bound_to 6896
  151.4673  135.1047  159.9794 H   0  0  0  0  0  0  0  0  0  0  0  0  # atno 6909 bound_to 6896
  145.0717  139.3725  143.4954 H   0  0  0  0  0  0  0  0  0  0  0  0  # atno 7974 bound_to 7965
  156.1942  140.1718  156.8032 H   0  0  0  0  0  0  0  0  0  0  0  0  # atno 8008 bound_to 7997
  154.5508  140.0718  156.8696 H   0  0  0  0  0  0  0  0  0  0  0  0  # atno 8009 bound_to 7997
  155.3032  140.3363  155.4249 H   0  0  0  0  0  0  0  0  0  0  0  0  # atno 8010 bound_to 7997
  140.2511  144.3478  150.6348 H   0  0  0  0  0  0  0  0  0  0  0  0  # atno 10167 bound_to 10162
  156.2383  130.4178  149.8791 H   0  0  0  0  0  0  0  0  0  0  0  0  # atno 10718 bound_to 10713
  154.5321  135.5713  153.6767 H   0  0  0  0  0  0  0  0  0  0  0  0  # atno 10763 bound_to 10752
  152.9942  135.6207  154.2615 H   0  0  0  0  0  0  0  0  0  0  0  0  # atno 10764 bound_to 10752
  154.2542  135.2858  155.2784 H   0  0  0  0  0  0  0  0  0  0  0  0  # atno 10765 bound_to 10752
  140.0047  134.9464  157.0149 H   0  0  0  0  0  0  0  0  0  0  0  0  # atno 11005 bound_to 11000
  146.3529  140.0465  142.8639 LP  0  0  0  0  0  0  0  0  0  0  0  0  # atno 17320 bound_to 7965
  145.1285  140.9504  143.4558 LP  0  0  0  0  0  0  0  0  0  0  0  0  # atno 17321 bound_to 7965
  140.6040  143.2167  151.7017 LP  0  0  0  0  0  0  0  0  0  0  0  0  # atno 17342 bound_to 10162
  139.5046  144.3748  152.0434 LP  0  0  0  0  0  0  0  0  0  0  0  0  # atno 17343 bound_to 10162
  156.6382  130.8694  151.3509 LP  0  0  0  0  0  0  0  0  0  0  0  0  # atno 17370 bound_to 10713
  157.7164  130.9502  150.1271 LP  0  0  0  0  0  0  0  0  0  0  0  0  # atno 17371 bound_to 10713
  140.4663  134.1432  155.7197 LP  0  0  0  0  0  0  0  0  0  0  0  0  # atno 17394 bound_to 11000
  141.1668  133.8687  157.1691 LP  0  0  0  0  0  0  0  0  0  0  0  0  # atno 17395 bound_to 11000

$$$$
