AV-unprocessed.smi:877|AV-procd|sdf|4030|dock2
  -GOLD-   22720 1523D 1   1.00000     0.00000
 Structure written by MMmdl.
 44 46  0  0  0  0  0  0  0  0  2 V2000
  143.3985  142.2239  156.8415 C   0  0  0  0  0  0  0  0  0  0  0  0
  144.0684  142.4374  155.6075 O   0  0  0  0  0  0  0  0  0  0  0  0
  145.3997  142.0901  155.5239 C   0  0  0  0  0  0  0  0  0  0  0  0
  146.1605  141.5808  156.6063 C   0  0  0  0  0  0  0  0  0  0  0  0
  147.5187  141.2513  156.4316 C   0  0  0  0  0  0  0  0  0  0  0  0
  148.1377  141.4244  155.1772 C   0  0  0  0  0  0  0  0  0  0  0  0
  149.6007  141.0657  154.9871 C   0  0  0  0  0  0  0  0  0  0  0  0
  150.4609  141.5624  156.1063 C   0  0  0  0  0  0  0  0  0  0  0  0
  150.5490  142.8575  156.5225 N   0  3  0  0  0  0  0  0  0  0  0  0
  151.4309  142.9512  157.5984 C   0  0  0  0  0  0  0  0  0  0  0  0
  151.8318  144.0506  158.3510 C   0  0  0  0  0  0  0  0  0  0  0  0
  152.7475  143.8034  159.3942 C   0  0  0  0  0  0  0  0  0  0  0  0
  153.2277  142.5041  159.6555 C   0  0  0  0  0  0  0  0  0  0  0  0
  152.8149  141.3975  158.8844 C   0  0  0  0  0  0  0  0  0  0  0  0
  151.9104  141.6495  157.8517 C   0  0  0  0  0  0  0  0  0  0  0  0
  151.2887  140.8251  156.9033 N   0  0  0  0  0  0  0  0  0  0  0  0
  151.5846  139.3822  156.8842 C   0  0  0  0  0  0  0  0  0  0  0  0
  152.1726  138.8943  155.5440 C   0  0  1  0  0  0  0  0  0  0  0  0
  153.4872  138.4484  155.8034 O   0  0  0  0  0  0  0  0  0  0  0  0
  151.3836  137.7463  154.8849 C   0  0  0  0  0  0  0  0  0  0  0  0
  152.1554  137.1525  153.8622 O   0  0  0  0  0  0  0  0  0  0  0  0
  147.3854  141.9306  154.0977 C   0  0  0  0  0  0  0  0  0  0  0  0
  146.0280  142.2590  154.2733 C   0  0  0  0  0  0  0  0  0  0  0  0
  142.3628  142.5505  156.7492 H   0  0  0  0  0  0  0  0  0  0  0  0
  143.8550  142.7995  157.6481 H   0  0  0  0  0  0  0  0  0  0  0  0
  143.3877  141.1670  157.1120 H   0  0  0  0  0  0  0  0  0  0  0  0
  145.7249  141.4334  157.5827 H   0  0  0  0  0  0  0  0  0  0  0  0
  148.0823  140.8643  157.2681 H   0  0  0  0  0  0  0  0  0  0  0  0
  149.6869  139.9830  154.8988 H   0  0  0  0  0  0  0  0  0  0  0  0
  149.9716  141.4823  154.0501 H   0  0  0  0  0  0  0  0  0  0  0  0
  151.4628  145.0464  158.1537 H   0  0  0  0  0  0  0  0  0  0  0  0
  153.0871  144.6261  160.0067 H   0  0  0  0  0  0  0  0  0  0  0  0
  153.9268  142.3521  160.4653 H   0  0  0  0  0  0  0  0  0  0  0  0
  153.1892  140.4085  159.1023 H   0  0  0  0  0  0  0  0  0  0  0  0
  152.2899  139.1870  157.6930 H   0  0  0  0  0  0  0  0  0  0  0  0
  150.6843  138.8243  157.1394 H   0  0  0  0  0  0  0  0  0  0  0  0
  152.2300  139.7379  154.8562 H   0  0  0  0  0  0  0  0  0  0  0  0
  153.4824  137.9706  156.6193 H   0  0  0  0  0  0  0  0  0  0  0  0
  151.0878  136.9949  155.6178 H   0  0  0  0  0  0  0  0  0  0  0  0
  150.4719  138.1167  154.4169 H   0  0  0  0  0  0  0  0  0  0  0  0
  151.5721  136.8343  153.1900 H   0  0  0  0  0  0  0  0  0  0  0  0
  147.8440  142.0661  153.1297 H   0  0  0  0  0  0  0  0  0  0  0  0
  145.4626  142.6454  153.4379 H   0  0  0  0  0  0  0  0  0  0  0  0
  150.0334  143.6201  156.1021 H   0  0  0  0  0  0  0  0  0  0  0  0
  1  2  1  0  0  0  0
  1 24  1  0  0  0  0
  1 25  1  0  0  0  0
  1 26  1  0  0  0  0
  2  3  1  0  0  0  0
  3 23  1  0  0  0  0
  3  4  2  0  0  0  0
  4  5  1  0  0  0  0
  4 27  1  0  0  0  0
  5  6  2  0  0  0  0
  5 28  1  0  0  0  0
  6  7  1  0  0  0  0
  6 22  1  0  0  0  0
  7  8  1  0  0  0  0
  7 29  1  0  0  0  0
  7 30  1  0  0  0  0
  8 16  1  0  0  0  0
  8  9  2  0  0  0  0
  9 10  1  0  0  0  0
  9 44  1  0  0  0  0
 10 15  2  0  0  0  0
 10 11  1  0  0  0  0
 11 12  2  0  0  0  0
 11 31  1  0  0  0  0
 12 13  1  0  0  0  0
 12 32  1  0  0  0  0
 13 14  2  0  0  0  0
 13 33  1  0  0  0  0
 14 15  1  0  0  0  0
 14 34  1  0  0  0  0
 15 16  1  0  0  0  0
 16 17  1  0  0  0  0
 17 18  1  0  0  0  0
 17 35  1  0  0  0  0
 17 36  1  0  0  0  0
 18 19  1  0  0  0  0
 18 20  1  0  0  0  0
 18 37  1  0  0  0  0
 19 38  1  0  0  0  0
 20 21  1  0  0  0  0
 20 39  1  0  0  0  0
 20 40  1  0  0  0  0
 21 41  1  0  0  0  0
 22 23  2  0  0  0  0
 22 42  1  0  0  0  0
 23 43  1  0  0  0  0
M  CHG  1   9   1
M  END
> <s_m_source_file>
AV-unprocessed.smi

> <i_m_source_file_index>
877

> <i_lp_mmshare_version>
43012

> <i_f3d_flags>
0

> <s_epik_input>
W0NIM11PYzFbY0hdW2NIXWMoW2NIXVtjSF0xKVtDSDJdYyhuMiluKFtDSDJdW0NASF0oW09IXSlbQ0gyXVtPSF0pYyhjMjMpW2NIXVtjSF1bY0hdW2NIXTM=

> <s_epik_cmdline>
J2VwaWtfcHl0aG9uJywgJy1waCcsICc3LjAnLCAnLXRuJywgJzgnLCAnLW1hJywgJzIwMCcsICctbWV0YWxfYmluZGluZycsICctaW1hZScsICc8aW5maWxlLm1hZT4nLCAnLW9tYWUnLCAnPG91dGZpbGUubWFlPic=

> <r_lp_tautomer_probability>
1

> <r_epik_Ionization_Penalty>
1.37112

> <r_epik_Ionization_Penalty_Charging>
1.37111

> <r_epik_Ionization_Penalty_Neutral>
4.48252e-07

> <r_epik_State_Penalty>
1.45083

> <r_epik_Charging_Adjusted_Penalty>
2.82194

> <i_epik_Tot_Q>
1

> <i_epik_Tot_abs_Q>
1

> <r_epik_Metal_State_Penalty>
5.49009

> <b_epik_Metal_Only>
0

> <s_lp_Force_Field>
OPLS_2005

> <r_lp_Energy>
24.4283

> <b_lp_Chiralities_Consistent>
1

> <s_lp_Variant>
AV-unprocessed.smi:877-4

> <Gold.Version>
5.8.1

> <Gold.Id.Protein>
6NUR|6NUR_protein|mol2

> <Gold.PLP.Fitness>
63.7995

> <Gold.PLP.PLP>
-51.1837

> <Gold.PLP.part.hbond>
-4.0000

> <Gold.PLP.part.metal>
0.0000

> <Gold.PLP.part.buried>
-6.5583

> <Gold.PLP.part.nonpolar>
-40.9285

> <Gold.PLP.part.repulsive>
0.2210

> <Gold.PLP.ligand.clash>
0.0000

> <Gold.PLP.ligand.torsion>
1.0543

> <Gold.PLP.Chemscore.Hbond>
4.8640

> <Gold.PLP.Chemscore.CHOScore>
0.0000

> <Gold.PLP.Chemscore.Metal>
0.0000

> <Gold.Chemscore.Hbonds>
donor molecule, donor type, donor heavy atom, donor atom, acceptor molecule, acceptor atom, score
      L1  H     9    44       P1  8028  2.00
      L1  H    21    41       P1  7949  1.00
      P1  H  7997  8009       L1    19  0.78
      P1  H 10752 10763       L1    21  0.88

> <Gold.PLP.Chemscore.Internal.Correction>
0.1325

> <Gold.Rescore>
     Score         DG    S(hbond)    S(metal)    S(lipo)     H(rot)  DE(clash)    DE(int)     intcor
     19.73     -20.83       2.90        0.00     119.01       3.23       0.09       1.01       ----

> <Gold.Chemscore.Fitness>
19.7294

> <Gold.Chemscore.DG>
-20.8324

> <Gold.Chemscore.ZeroCoef>
-5.4800

> <Gold.Chemscore.Hbond>
2.9046

> <Gold.Chemscore.Metal>
0.0000

> <Gold.Chemscore.Lipo>
119.0060

> <Gold.Chemscore.Internal_Hbond>
0.0000

> <Gold.Chemscore.DEClash>
0.0930

> <Gold.Chemscore.DEInternal>
1.0100

> <Gold.Chemscore.Rot>
3.2315

> <Gold.Chemscore.Internal.Correction>
   9.000000E+99

> <Gold.Chemscore.Hbonds>
donor molecule, donor type, donor heavy atom, donor atom, acceptor molecule, acceptor atom, score
      L1  H     9    44       P1  8028  1.00
      L1  H    21    41       P1  7949  0.91
      P1  H  7997  8009       L1    19  0.08
      P1  H 10752 10763       L1    21  0.16

> <Gold.Chemscore.Hbond.Weighted>
-9.7013

> <Gold.Chemscore.Metal.Weighted>
-0.0000

> <Gold.Chemscore.Lipo.Weighted>
-13.9237

> <Gold.Chemscore.Internal_Hbond.Weighted>
0.0000

> <Gold.Chemscore.DEClash.Weighted>
0.0930

> <Gold.Chemscore.DEInternal.Weighted>
1.0100

> <Gold.Chemscore.Rot.Weighted>
8.2727

> <Gold.Chemscore.Internal.Correction.Weighted>
   9.000000E+99

> <Gold.Protein.RotatedTorsions>
[ 6907 6896 6895 6894 ] final -146.77 input  -60.11 | X-H torsion
[ 7974 7965 7964 7962 ] final -149.48 input  175.53 | X-H torsion
[ 8008 7997 7996 7995 ] final -162.81 input   59.86 | X-H torsion
[ 10167 10162 10161 10158 ] final  -99.02 input  -65.29 | X-H torsion
[ 10718 10713 10712 10709 ] final  101.21 input   66.30 | X-H torsion
[ 10763 10752 10751 10750 ] final   34.38 input  -60.55 | X-H torsion
[ 11005 11000 10999 10996 ] final   31.04 input  -57.11 | X-H torsion

> <Gold.Protein.ActiveResidues>
 VAL166  LYS551  ARG553  GLY616  TRP617  ASP618  TYR619  PRO620  LYS621  CYS622 
 ASP623  PHE694  ASN695  SER759  ASP760  ASP761  ALA762  ILE779  LEU786  VAL792 
 PHE793  MET794  SER795  GLU796  ALA797  LYS798  CYS799  TRP800  GLU811  SER814 

> <Gold.Protein.RotatedAtoms>
  151.1463  133.4937  159.2595 H   0  0  0  0  0  0  0  0  0  0  0  0  # atno 6907 bound_to 6896
  151.1601  135.0269  159.8716 H   0  0  0  0  0  0  0  0  0  0  0  0  # atno 6908 bound_to 6896
  152.5463  134.1338  159.8503 H   0  0  0  0  0  0  0  0  0  0  0  0  # atno 6909 bound_to 6896
  144.7965  140.5059  143.5737 H   0  0  0  0  0  0  0  0  0  0  0  0  # atno 7974 bound_to 7965
  155.8122  140.0907  157.1897 H   0  0  0  0  0  0  0  0  0  0  0  0  # atno 8008 bound_to 7997
  154.3980  140.1452  156.3460 H   0  0  0  0  0  0  0  0  0  0  0  0  # atno 8009 bound_to 7997
  155.8353  140.3441  155.5600 H   0  0  0  0  0  0  0  0  0  0  0  0  # atno 8010 bound_to 7997
  140.2668  143.3370  152.0573 H   0  0  0  0  0  0  0  0  0  0  0  0  # atno 10167 bound_to 10162
  157.6835  131.0720  150.5218 H   0  0  0  0  0  0  0  0  0  0  0  0  # atno 10718 bound_to 10713
  153.0167  135.6362  154.1660 H   0  0  0  0  0  0  0  0  0  0  0  0  # atno 10763 bound_to 10752
  154.1399  135.2835  155.3165 H   0  0  0  0  0  0  0  0  0  0  0  0  # atno 10764 bound_to 10752
  154.6132  135.5549  153.7557 H   0  0  0  0  0  0  0  0  0  0  0  0  # atno 10765 bound_to 10752
  140.2881  134.2896  155.7783 H   0  0  0  0  0  0  0  0  0  0  0  0  # atno 11005 bound_to 11000
  145.5661  139.1481  143.3314 LP  0  0  0  0  0  0  0  0  0  0  0  0  # atno 17320 bound_to 7965
  146.2234  140.5795  142.9007 LP  0  0  0  0  0  0  0  0  0  0  0  0  # atno 17321 bound_to 7965
  139.5000  144.6683  151.6304 LP  0  0  0  0  0  0  0  0  0  0  0  0  # atno 17342 bound_to 10162
  140.5922  143.9760  150.6331 LP  0  0  0  0  0  0  0  0  0  0  0  0  # atno 17343 bound_to 10162
  156.5531  130.4236  149.6098 LP  0  0  0  0  0  0  0  0  0  0  0  0  # atno 17370 bound_to 10713
  156.2886  130.7111  151.1954 LP  0  0  0  0  0  0  0  0  0  0  0  0  # atno 17371 bound_to 10713
  141.2151  133.7567  156.9583 LP  0  0  0  0  0  0  0  0  0  0  0  0  # atno 17394 bound_to 11000
  140.1221  134.9410  157.2218 LP  0  0  0  0  0  0  0  0  0  0  0  0  # atno 17395 bound_to 11000

$$$$
