AV-unprocessed.smi:3252|AV-procd|sdf|12441|dock6
  -GOLD-   2272018333D 1   1.00000     0.00000
 Structure written by MMmdl.
 37 38  0  0  0  0  0  0  0  0  2 V2000
  143.5665  132.5077  148.4438 C   0  0  0  0  0  0  0  0  0  0  0  0
  143.9497  132.8009  149.9010 C   0  0  0  0  0  0  0  0  0  0  0  0
  145.0233  133.8239  150.0098 N   0  3  1  0  0  0  0  0  0  0  0  0
  144.6300  135.0123  150.8048 C   0  0  0  0  0  0  0  0  0  0  0  0
  144.6946  134.7162  152.3130 C   0  0  0  0  0  0  0  0  0  0  0  0
  146.0046  134.2775  152.6463 O   0  0  0  0  0  0  0  0  0  0  0  0
  146.3614  133.0622  151.9948 C   0  0  2  0  0  0  0  0  0  0  0  0
  147.7606  132.6322  152.4704 C   0  0  0  0  0  0  0  0  0  0  0  0
  148.4249  133.6628  153.2606 N   0  0  0  0  0  0  0  0  0  0  0  0
  149.3224  133.3421  154.2898 C   0  0  0  0  0  0  0  0  0  0  0  0
  149.6248  131.9832  154.5193 C   0  0  0  0  0  0  0  0  0  0  0  0
  150.5253  131.6510  155.5505 C   0  0  0  0  0  0  0  0  0  0  0  0
  151.0921  132.6891  156.3160 C   0  0  0  0  0  0  0  0  0  0  0  0
  152.0243  132.3986  157.3916 C   0  0  0  0  0  0  0  0  0  0  0  0
  152.7665  132.1673  158.2485 N   0  0  0  0  0  0  0  0  0  0  0  0
  150.7319  134.0171  156.0114 C   0  0  0  0  0  0  0  0  0  0  0  0
  149.8703  134.3406  155.0230 N   0  0  0  0  0  0  0  0  0  0  0  0
  146.3380  133.3044  150.4688 C   0  0  0  0  0  0  0  0  0  0  0  0
  142.7127  131.8310  148.4016 H   0  0  0  0  0  0  0  0  0  0  0  0
  144.3792  132.0357  147.8929 H   0  0  0  0  0  0  0  0  0  0  0  0
  143.2882  133.4218  147.9182 H   0  0  0  0  0  0  0  0  0  0  0  0
  143.0566  133.1698  150.4068 H   0  0  0  0  0  0  0  0  0  0  0  0
  144.2311  131.8811  150.4133 H   0  0  0  0  0  0  0  0  0  0  0  0
  145.3181  135.8252  150.5694 H   0  0  0  0  0  0  0  0  0  0  0  0
  143.6370  135.3602  150.5182 H   0  0  0  0  0  0  0  0  0  0  0  0
  144.4720  135.6193  152.8816 H   0  0  0  0  0  0  0  0  0  0  0  0
  143.9567  133.9677  152.6055 H   0  0  0  0  0  0  0  0  0  0  0  0
  145.6475  132.2805  152.2590 H   0  0  0  0  0  0  0  0  0  0  0  0
  147.6642  131.7588  153.1158 H   0  0  0  0  0  0  0  0  0  0  0  0
  148.3793  132.3162  151.6300 H   0  0  0  0  0  0  0  0  0  0  0  0
  148.3395  134.6247  152.9649 H   0  0  0  0  0  0  0  0  0  0  0  0
  149.1763  131.2050  153.9188 H   0  0  0  0  0  0  0  0  0  0  0  0
  150.7719  130.6173  155.7459 H   0  0  0  0  0  0  0  0  0  0  0  0
  151.1417  134.8455  156.5715 H   0  0  0  0  0  0  0  0  0  0  0  0
  146.6086  132.3970  149.9303 H   0  0  0  0  0  0  0  0  0  0  0  0
  147.0979  134.0438  150.2116 H   0  0  0  0  0  0  0  0  0  0  0  0
  145.1605  134.1593  149.0669 H   0  0  0  0  0  0  0  0  0  0  0  0
  1  2  1  0  0  0  0
  1 19  1  0  0  0  0
  1 20  1  0  0  0  0
  1 21  1  0  0  0  0
  2  3  1  0  0  0  0
  2 22  1  0  0  0  0
  2 23  1  0  0  0  0
  3 18  1  0  0  0  0
  3  4  1  0  0  0  0
  3 37  1  0  0  0  0
  4  5  1  0  0  0  0
  4 24  1  0  0  0  0
  4 25  1  0  0  0  0
  5  6  1  0  0  0  0
  5 26  1  0  0  0  0
  5 27  1  0  0  0  0
  6  7  1  0  0  0  0
  7  8  1  0  0  0  0
  7 18  1  0  0  0  0
  7 28  1  0  0  0  0
  8  9  1  0  0  0  0
  8 29  1  0  0  0  0
  8 30  1  0  0  0  0
  9 10  1  0  0  0  0
  9 31  1  0  0  0  0
 10 17  1  0  0  0  0
 10 11  2  0  0  0  0
 11 12  1  0  0  0  0
 11 32  1  0  0  0  0
 12 13  2  0  0  0  0
 12 33  1  0  0  0  0
 13 14  1  0  0  0  0
 13 16  1  0  0  0  0
 14 15  3  0  0  0  0
 16 17  2  0  0  0  0
 16 34  1  0  0  0  0
 18 35  1  0  0  0  0
 18 36  1  0  0  0  0
M  CHG  1   3   1
M  END
> <s_m_source_file>
AV-unprocessed.smi

> <i_m_source_file_index>
3252

> <i_lp_mmshare_version>
43012

> <i_f3d_flags>
0

> <s_epik_input>
W0NIM11bQ0gyXU4xW0NIMl1bQ0gyXU9bQ0BIXShbQ0gyXTEpW0NIMl1bTkhdYzJbY0hdW2NIXWMoQyNOKVtjSF1uMg==

> <s_epik_cmdline>
J2VwaWtfcHl0aG9uJywgJy1waCcsICc3LjAnLCAnLXRuJywgJzgnLCAnLW1hJywgJzIwMCcsICctbWV0YWxfYmluZGluZycsICctaW1hZScsICc8aW5maWxlLm1hZT4nLCAnLW9tYWUnLCAnPG91dGZpbGUubWFlPic=

> <r_epik_Ionization_Penalty>
0.178512

> <r_epik_Ionization_Penalty_Charging>
0.178504

> <r_epik_Ionization_Penalty_Neutral>
8.15545e-06

> <r_epik_State_Penalty>
0.167974

> <r_epik_Charging_Adjusted_Penalty>
0.346478

> <i_epik_Tot_Q>
1

> <i_epik_Tot_abs_Q>
1

> <r_epik_Metal_State_Penalty>
0.167974

> <b_epik_Metal_Only>
0

> <s_lp_Force_Field>
OPLS_2005

> <r_lp_Energy>
19.5584

> <b_lp_Chiralities_Consistent>
1

> <s_lp_Variant>
AV-unprocessed.smi:3252-3

> <Gold.Version>
5.8.1

> <Gold.Id.Protein>
6NUR|6NUR_protein|mol2

> <Gold.PLP.Fitness>
38.1311

> <Gold.PLP.PLP>
-32.3346

> <Gold.PLP.part.hbond>
-3.0000

> <Gold.PLP.part.metal>
0.0000

> <Gold.PLP.part.buried>
-1.3445

> <Gold.PLP.part.nonpolar>
-28.7320

> <Gold.PLP.part.repulsive>
0.2923

> <Gold.PLP.ligand.clash>
0.0000

> <Gold.PLP.ligand.torsion>
1.6125

> <Gold.PLP.Chemscore.Hbond>
3.0000

> <Gold.PLP.Chemscore.CHOScore>
0.0000

> <Gold.PLP.Chemscore.Metal>
0.0000

> <Gold.Chemscore.Hbonds>
donor molecule, donor type, donor heavy atom, donor atom, acceptor molecule, acceptor atom, score
      L1  H     3    37       P1  7921  1.00
      L1  H     9    31       P1  7948  1.00
      P1  H  6896  6908       L1    15  1.00

> <Gold.PLP.Chemscore.Internal.Correction>
0.0214

> <Gold.Rescore>
     Score         DG    S(hbond)    S(metal)    S(lipo)     H(rot)  DE(clash)    DE(int)     intcor
     14.12     -16.66       1.75        0.00      77.73       1.47       0.94       1.60       ----

> <Gold.Chemscore.Fitness>
14.1236

> <Gold.Chemscore.DG>
-16.6557

> <Gold.Chemscore.ZeroCoef>
-5.4800

> <Gold.Chemscore.Hbond>
1.7484

> <Gold.Chemscore.Metal>
0.0000

> <Gold.Chemscore.Lipo>
77.7313

> <Gold.Chemscore.Internal_Hbond>
0.0000

> <Gold.Chemscore.DEClash>
0.9370

> <Gold.Chemscore.DEInternal>
1.5951

> <Gold.Chemscore.Rot>
1.4681

> <Gold.Chemscore.Internal.Correction>
   9.000000E+99

> <Gold.Chemscore.Hbonds>
donor molecule, donor type, donor heavy atom, donor atom, acceptor molecule, acceptor atom, score
      L1  H     3    37       P1  7921  0.97
      L1  H     9    31       P1  7948  0.45
      P1  H  6896  6908       L1    15  0.25

> <Gold.Chemscore.Hbond.Weighted>
-5.8396

> <Gold.Chemscore.Metal.Weighted>
-0.0000

> <Gold.Chemscore.Lipo.Weighted>
-9.0946

> <Gold.Chemscore.Internal_Hbond.Weighted>
0.0000

> <Gold.Chemscore.DEClash.Weighted>
0.9370

> <Gold.Chemscore.DEInternal.Weighted>
1.5951

> <Gold.Chemscore.Rot.Weighted>
3.7584

> <Gold.Chemscore.Internal.Correction.Weighted>
   9.000000E+99

> <Gold.Protein.RotatedTorsions>
[ 6907 6896 6895 6894 ] final   21.90 input  -60.11 | X-H torsion
[ 7974 7965 7964 7962 ] final -144.86 input  175.53 | X-H torsion
[ 8008 7997 7996 7995 ] final   47.93 input   59.86 | X-H torsion
[ 10167 10162 10161 10158 ] final -123.00 input  -65.29 | X-H torsion
[ 10718 10713 10712 10709 ] final  -17.85 input   66.30 | X-H torsion
[ 10763 10752 10751 10750 ] final  159.98 input  -60.55 | X-H torsion
[ 11005 11000 10999 10996 ] final -166.90 input  -57.11 | X-H torsion

> <Gold.Protein.ActiveResidues>
 VAL166  LYS551  ARG553  GLY616  TRP617  ASP618  TYR619  PRO620  LYS621  CYS622 
 ASP623  PHE694  ASN695  SER759  ASP760  ASP761  ALA762  ILE779  LEU786  VAL792 
 PHE793  MET794  SER795  GLU796  ALA797  LYS798  CYS799  TRP800  GLU811  SER814 

> <Gold.Protein.RotatedAtoms>
  151.9189  135.0307  160.0520 H   0  0  0  0  0  0  0  0  0  0  0  0  # atno 6907 bound_to 6896
  152.2216  133.4983  159.5174 H   0  0  0  0  0  0  0  0  0  0  0  0  # atno 6908 bound_to 6896
  150.7001  134.1251  159.4092 H   0  0  0  0  0  0  0  0  0  0  0  0  # atno 6909 bound_to 6896
  144.8268  140.5657  143.5542 H   0  0  0  0  0  0  0  0  0  0  0  0  # atno 7974 bound_to 7965
  155.3773  140.3427  155.4245 H   0  0  0  0  0  0  0  0  0  0  0  0  # atno 8008 bound_to 7997
  156.1630  140.1607  156.8614 H   0  0  0  0  0  0  0  0  0  0  0  0  # atno 8009 bound_to 7997
  154.5157  140.0779  156.8059 H   0  0  0  0  0  0  0  0  0  0  0  0  # atno 8010 bound_to 7997
  140.0082  143.5469  152.2274 H   0  0  0  0  0  0  0  0  0  0  0  0  # atno 10167 bound_to 10162
  156.5677  130.4741  149.6377 H   0  0  0  0  0  0  0  0  0  0  0  0  # atno 10718 bound_to 10713
  154.2403  135.2775  155.2856 H   0  0  0  0  0  0  0  0  0  0  0  0  # atno 10763 bound_to 10752
  154.5551  135.5663  153.6960 H   0  0  0  0  0  0  0  0  0  0  0  0  # atno 10764 bound_to 10752
  153.0001  135.6284  154.2546 H   0  0  0  0  0  0  0  0  0  0  0  0  # atno 10765 bound_to 10752
  140.5592  134.5350  157.5139 H   0  0  0  0  0  0  0  0  0  0  0  0  # atno 11005 bound_to 11000
  145.4983  139.1484  143.3671 LP  0  0  0  0  0  0  0  0  0  0  0  0  # atno 17320 bound_to 7965
  146.2573  140.5123  142.8868 LP  0  0  0  0  0  0  0  0  0  0  0  0  # atno 17321 bound_to 7965
  139.6223  144.7631  151.2713 LP  0  0  0  0  0  0  0  0  0  0  0  0  # atno 17342 bound_to 10162
  140.7392  143.6625  150.8151 LP  0  0  0  0  0  0  0  0  0  0  0  0  # atno 17343 bound_to 10162
  156.2742  130.7034  151.1840 LP  0  0  0  0  0  0  0  0  0  0  0  0  # atno 17370 bound_to 10713
  157.7355  131.0572  150.5467 LP  0  0  0  0  0  0  0  0  0  0  0  0  # atno 17371 bound_to 10713
  139.9416  134.7777  156.0664 LP  0  0  0  0  0  0  0  0  0  0  0  0  # atno 17394 bound_to 11000
  141.1125  133.6638  156.3012 LP  0  0  0  0  0  0  0  0  0  0  0  0  # atno 17395 bound_to 11000

$$$$
