AV-unprocessed.smi:1856|AV-procd|sdf|7534|dock8
  -GOLD-   22720 9253D 1   1.00000     0.00000
 Structure written by MMmdl.
 44 45  0  0  0  0  0  0  0  0  1 V2000
  145.1874  143.5914  154.1859 C   0  0  0  0  0  0  0  0  0  0  0  0
  146.5711  143.1770  154.6986 C   0  0  0  0  0  0  0  0  0  0  0  0
  146.9090  141.7140  154.3604 C   0  0  0  0  0  0  0  0  0  0  0  0
  148.3544  141.3404  154.7019 C   0  0  0  0  0  0  0  0  0  0  0  0
  149.2878  141.7741  154.0264 O   0  0  0  0  0  0  0  0  0  0  0  0
  148.5232  140.5189  155.7503 N   0  0  0  0  0  0  0  0  0  0  0  0
  149.8068  140.0137  156.2357 C   0  0  1  0  0  0  0  0  0  0  0  0
  150.6610  139.5317  155.0562 C   0  0  0  0  0  0  0  0  0  0  0  0
  150.4987  141.1006  157.0218 C   0  0  0  0  0  0  0  0  0  0  0  0
  150.5722  142.3596  156.5802 N   0  0  0  0  0  0  0  0  0  0  0  0
  151.2831  142.9956  157.5770 C   0  0  0  0  0  0  0  0  0  0  0  0
  151.6839  144.3452  157.6995 C   0  0  0  0  0  0  0  0  0  0  0  0
  152.4171  144.7724  158.8254 C   0  0  0  0  0  0  0  0  0  0  0  0
  152.7598  143.8579  159.8422 C   0  0  0  0  0  0  0  0  0  0  0  0
  152.3715  142.5083  159.7383 C   0  0  0  0  0  0  0  0  0  0  0  0
  151.6389  142.0866  158.6121 C   0  0  0  0  0  0  0  0  0  0  0  0
  151.1134  140.8615  158.2095 N   0  0  0  0  0  0  0  0  0  0  0  0
  151.2288  139.6020  158.9342 C   0  0  0  0  0  0  0  0  0  0  0  0
  152.6677  139.0456  158.9683 C   0  0  2  0  0  0  0  0  0  0  0  0
  153.5977  139.7584  159.9622 C   0  0  0  0  0  0  0  0  0  0  0  0
  153.2192  139.1603  157.6741 O   0  0  0  0  0  0  0  0  0  0  0  0
  144.9734  144.6289  154.4430 H   0  0  0  0  0  0  0  0  0  0  0  0
  144.4031  142.9722  154.6221 H   0  0  0  0  0  0  0  0  0  0  0  0
  145.1254  143.4981  153.1013 H   0  0  0  0  0  0  0  0  0  0  0  0
  147.3201  143.8435  154.2687 H   0  0  0  0  0  0  0  0  0  0  0  0
  146.6096  143.3242  155.7787 H   0  0  0  0  0  0  0  0  0  0  0  0
  146.2270  141.0497  154.8935 H   0  0  0  0  0  0  0  0  0  0  0  0
  146.7530  141.5323  153.2964 H   0  0  0  0  0  0  0  0  0  0  0  0
  147.6986  140.2014  156.2390 H   0  0  0  0  0  0  0  0  0  0  0  0
  149.6079  139.1550  156.8756 H   0  0  0  0  0  0  0  0  0  0  0  0
  151.6151  139.1349  155.4041 H   0  0  0  0  0  0  0  0  0  0  0  0
  150.8729  140.3438  154.3597 H   0  0  0  0  0  0  0  0  0  0  0  0
  150.1558  138.7399  154.5025 H   0  0  0  0  0  0  0  0  0  0  0  0
  151.4259  145.0527  156.9255 H   0  0  0  0  0  0  0  0  0  0  0  0
  152.7176  145.8066  158.9093 H   0  0  0  0  0  0  0  0  0  0  0  0
  153.3207  144.1932  160.7024 H   0  0  0  0  0  0  0  0  0  0  0  0
  152.6317  141.8073  160.5170 H   0  0  0  0  0  0  0  0  0  0  0  0
  150.8439  139.7382  159.9455 H   0  0  0  0  0  0  0  0  0  0  0  0
  150.5646  138.8773  158.4618 H   0  0  0  0  0  0  0  0  0  0  0  0
  152.6437  137.9852  159.2152 H   0  0  0  0  0  0  0  0  0  0  0  0
  153.2563  139.6288  160.9896 H   0  0  0  0  0  0  0  0  0  0  0  0
  153.6498  140.8285  159.7587 H   0  0  0  0  0  0  0  0  0  0  0  0
  154.6106  139.3588  159.9069 H   0  0  0  0  0  0  0  0  0  0  0  0
  153.2010  138.3088  157.2643 H   0  0  0  0  0  0  0  0  0  0  0  0
  1  2  1  0  0  0  0
  1 22  1  0  0  0  0
  1 23  1  0  0  0  0
  1 24  1  0  0  0  0
  2  3  1  0  0  0  0
  2 25  1  0  0  0  0
  2 26  1  0  0  0  0
  3  4  1  0  0  0  0
  3 27  1  0  0  0  0
  3 28  1  0  0  0  0
  4  5  2  0  0  0  0
  4  6  1  0  0  0  0
  6  7  1  0  0  0  0
  6 29  1  0  0  0  0
  7  8  1  0  0  0  0
  7  9  1  0  0  0  0
  7 30  1  0  0  0  0
  8 31  1  0  0  0  0
  8 32  1  0  0  0  0
  8 33  1  0  0  0  0
  9 17  1  0  0  0  0
  9 10  2  0  0  0  0
 10 11  1  0  0  0  0
 11 16  2  0  0  0  0
 11 12  1  0  0  0  0
 12 13  2  0  0  0  0
 12 34  1  0  0  0  0
 13 14  1  0  0  0  0
 13 35  1  0  0  0  0
 14 15  2  0  0  0  0
 14 36  1  0  0  0  0
 15 16  1  0  0  0  0
 15 37  1  0  0  0  0
 16 17  1  0  0  0  0
 17 18  1  0  0  0  0
 18 19  1  0  0  0  0
 18 38  1  0  0  0  0
 18 39  1  0  0  0  0
 19 20  1  0  0  0  0
 19 21  1  0  0  0  0
 19 40  1  0  0  0  0
 20 41  1  0  0  0  0
 20 42  1  0  0  0  0
 20 43  1  0  0  0  0
 21 44  1  0  0  0  0
M  END
> <s_m_source_file>
AV-unprocessed.smi

> <i_m_source_file_index>
1856

> <i_lp_mmshare_version>
43012

> <i_f3d_flags>
0

> <s_epik_input>
W0NIM11bQ0gyXVtDSDJdQyg9TylbTkhdW0NASF0oW0NIM10pYyhuMSluKFtDSDJdW0NASF0oW0NIM10pW09IXSljKGMxMilbY0hdW2NIXVtjSF1bY0hdMg==

> <s_epik_cmdline>
J2VwaWtfcHl0aG9uJywgJy1waCcsICc3LjAnLCAnLXRuJywgJzgnLCAnLW1hJywgJzIwMCcsICctbWV0YWxfYmluZGluZycsICctaW1hZScsICc8aW5maWxlLm1hZT4nLCAnLW9tYWUnLCAnPG91dGZpbGUubWFlPic=

> <r_epik_Ionization_Penalty>
0.134222

> <r_epik_Ionization_Penalty_Charging>
0

> <r_epik_Ionization_Penalty_Neutral>
0.134222

> <r_epik_State_Penalty>
0.123585

> <r_epik_Charging_Adjusted_Penalty>
0.123585

> <i_epik_Tot_Q>
0

> <i_epik_Tot_abs_Q>
0

> <r_epik_Metal_State_Penalty>
0.100548

> <b_epik_Metal_Only>
0

> <s_lp_Force_Field>
OPLS_2005

> <r_lp_Energy>
2.96492

> <b_lp_Chiralities_Consistent>
1

> <s_lp_Variant>
AV-unprocessed.smi:1856-2

> <Gold.Version>
5.8.1

> <Gold.Id.Protein>
6NUR|6NUR_protein|mol2

> <Gold.PLP.Fitness>
48.5392

> <Gold.PLP.PLP>
-45.2521

> <Gold.PLP.part.hbond>
-3.0000

> <Gold.PLP.part.metal>
0.0000

> <Gold.PLP.part.buried>
-3.1866

> <Gold.PLP.part.nonpolar>
-40.4239

> <Gold.PLP.part.repulsive>
0.3438

> <Gold.PLP.ligand.clash>
0.0000

> <Gold.PLP.ligand.torsion>
0.9593

> <Gold.PLP.Chemscore.Hbond>
1.7245

> <Gold.PLP.Chemscore.CHOScore>
0.0000

> <Gold.PLP.Chemscore.Metal>
0.0000

> <Gold.Chemscore.Hbonds>
donor molecule, donor type, donor heavy atom, donor atom, acceptor molecule, acceptor atom, score
      P1  H  7997  8008       L1    21  0.88
      P1  H  8011  8017       L1     5  0.54

> <Gold.PLP.Chemscore.Internal.Correction>
0.0322

> <Gold.Rescore>
     Score         DG    S(hbond)    S(metal)    S(lipo)     H(rot)  DE(clash)    DE(int)     intcor
     14.59     -19.34       1.88        0.00     118.34       2.45       0.56       4.20       ----

> <Gold.Chemscore.Fitness>
14.5866

> <Gold.Chemscore.DG>
-19.3438

> <Gold.Chemscore.ZeroCoef>
-5.4800

> <Gold.Chemscore.Hbond>
1.8802

> <Gold.Chemscore.Metal>
0.0000

> <Gold.Chemscore.Lipo>
118.3363

> <Gold.Chemscore.Internal_Hbond>
0.0000

> <Gold.Chemscore.DEClash>
0.5597

> <Gold.Chemscore.DEInternal>
4.1976

> <Gold.Chemscore.Rot>
2.4459

> <Gold.Chemscore.Internal.Correction>
   9.000000E+99

> <Gold.Chemscore.Hbonds>
donor molecule, donor type, donor heavy atom, donor atom, acceptor molecule, acceptor atom, score
      P1  H  7997  8008       L1    21  0.56
      P1  H  8011  8017       L1     5  0.54

> <Gold.Chemscore.Hbond.Weighted>
-6.2799

> <Gold.Chemscore.Metal.Weighted>
-0.0000

> <Gold.Chemscore.Lipo.Weighted>
-13.8453

> <Gold.Chemscore.Internal_Hbond.Weighted>
0.0000

> <Gold.Chemscore.DEClash.Weighted>
0.5597

> <Gold.Chemscore.DEInternal.Weighted>
4.1976

> <Gold.Chemscore.Rot.Weighted>
6.2614

> <Gold.Chemscore.Internal.Correction.Weighted>
   9.000000E+99

> <Gold.Protein.RotatedTorsions>
[ 6907 6896 6895 6894 ] final -155.15 input  -60.11 | X-H torsion
[ 7974 7965 7964 7962 ] final   94.27 input  175.53 | X-H torsion
[ 8008 7997 7996 7995 ] final -102.66 input   59.86 | X-H torsion
[ 10167 10162 10161 10158 ] final    2.23 input  -65.29 | X-H torsion
[ 10718 10713 10712 10709 ] final  138.83 input   66.30 | X-H torsion
[ 10763 10752 10751 10750 ] final  142.30 input  -60.55 | X-H torsion
[ 11005 11000 10999 10996 ] final  135.51 input  -57.11 | X-H torsion

> <Gold.Protein.ActiveResidues>
 VAL166  LYS551  ARG553  GLY616  TRP617  ASP618  TYR619  PRO620  LYS621  CYS622 
 ASP623  PHE694  ASN695  SER759  ASP760  ASP761  ALA762  ILE779  LEU786  VAL792 
 PHE793  MET794  SER795  GLU796  ALA797  LYS798  CYS799  TRP800  GLU811  SER814 

> <Gold.Protein.RotatedAtoms>
  151.2682  133.4268  159.2619 H   0  0  0  0  0  0  0  0  0  0  0  0  # atno 6907 bound_to 6896
  151.0469  134.9646  159.8201 H   0  0  0  0  0  0  0  0  0  0  0  0  # atno 6908 bound_to 6896
  152.5375  134.2638  159.8998 H   0  0  0  0  0  0  0  0  0  0  0  0  # atno 6909 bound_to 6896
  145.4678  139.2283  143.2952 H   0  0  0  0  0  0  0  0  0  0  0  0  # atno 7974 bound_to 7965
  154.8598  140.0427  157.1658 H   0  0  0  0  0  0  0  0  0  0  0  0  # atno 8008 bound_to 7997
  154.8852  140.2978  155.5381 H   0  0  0  0  0  0  0  0  0  0  0  0  # atno 8009 bound_to 7997
  156.2998  140.2404  156.3860 H   0  0  0  0  0  0  0  0  0  0  0  0  # atno 8010 bound_to 7997
  140.6645  143.7216  150.7801 H   0  0  0  0  0  0  0  0  0  0  0  0  # atno 10167 bound_to 10162
  157.4210  131.1038  151.0353 H   0  0  0  0  0  0  0  0  0  0  0  0  # atno 10718 bound_to 10713
  153.9536  135.2967  155.3437 H   0  0  0  0  0  0  0  0  0  0  0  0  # atno 10763 bound_to 10752
  154.7413  135.5023  153.9131 H   0  0  0  0  0  0  0  0  0  0  0  0  # atno 10764 bound_to 10752
  153.0982  135.6727  153.9832 H   0  0  0  0  0  0  0  0  0  0  0  0  # atno 10765 bound_to 10752
  139.9984  134.9488  157.0017 H   0  0  0  0  0  0  0  0  0  0  0  0  # atno 11005 bound_to 11000
  146.2414  140.5453  142.8932 LP  0  0  0  0  0  0  0  0  0  0  0  0  # atno 17320 bound_to 7965
  144.7964  140.6130  143.6507 LP  0  0  0  0  0  0  0  0  0  0  0  0  # atno 17321 bound_to 7965
  140.0891  143.4895  152.2489 LP  0  0  0  0  0  0  0  0  0  0  0  0  # atno 17342 bound_to 10162
  139.5889  144.7542  151.3450 LP  0  0  0  0  0  0  0  0  0  0  0  0  # atno 17343 bound_to 10162
  157.1283  130.6091  149.5523 LP  0  0  0  0  0  0  0  0  0  0  0  0  # atno 17370 bound_to 10713
  155.9881  130.4922  150.7153 LP  0  0  0  0  0  0  0  0  0  0  0  0  # atno 17371 bound_to 10713
  140.4774  134.1325  155.7211 LP  0  0  0  0  0  0  0  0  0  0  0  0  # atno 17394 bound_to 11000
  141.1623  133.8770  157.1814 LP  0  0  0  0  0  0  0  0  0  0  0  0  # atno 17395 bound_to 11000

$$$$
