AV-unprocessed.smi:2390|AV-procd|sdf|9477|dock3
  -GOLD-   2272013103D 1   1.00000     0.00000
 Structure written by MMmdl.
 46 47  0  0  0  0  0  0  0  0  2 V2000
  153.4904  141.3088  160.0123 C   0  0  0  0  0  0  0  0  0  0  0  0
  152.7895  142.4947  159.3828 C   0  0  0  0  0  0  0  0  0  0  0  0
  153.0704  143.8067  159.8103 C   0  0  0  0  0  0  0  0  0  0  0  0
  152.3988  144.8676  159.1780 C   0  0  0  0  0  0  0  0  0  0  0  0
  151.4752  144.5759  158.1559 C   0  0  0  0  0  0  0  0  0  0  0  0
  151.2369  143.2236  157.7992 C   0  0  0  0  0  0  0  0  0  0  0  0
  150.3319  142.9008  156.7537 N   0  0  0  0  0  0  0  0  0  0  0  0
  149.9947  141.6839  156.2936 C   0  0  0  0  0  0  0  0  0  0  0  0
  150.4328  140.6153  156.7218 O   0  0  0  0  0  0  0  0  0  0  0  0
  149.1074  141.7692  155.2908 N   0  0  0  0  0  0  0  0  0  0  0  0
  148.5337  140.6414  154.5532 C   0  0  2  0  0  0  0  0  0  0  0  0
  149.6453  139.9445  153.7510 C   0  0  0  0  0  0  0  0  0  0  0  0
  147.3174  141.0708  153.6770 C   0  0  2  0  0  0  0  0  0  0  0  0
  146.5104  142.2115  154.3462 C   0  0  0  0  0  0  0  0  0  0  0  0
  146.4883  139.8745  153.3123 N   0  3  0  0  0  0  0  0  0  0  0  0
  146.9963  139.0138  152.2103 C   0  0  0  0  0  0  0  0  0  0  0  0
  145.9903  137.8935  151.8927 C   0  0  0  0  0  0  0  0  0  0  0  0
  145.7286  137.1298  153.0619 O   0  0  0  0  0  0  0  0  0  0  0  0
  145.1567  137.9249  154.0913 C   0  0  0  0  0  0  0  0  0  0  0  0
  146.1458  139.0319  154.4883 C   0  0  0  0  0  0  0  0  0  0  0  0
  151.9058  142.2130  158.4004 N   0  0  0  0  0  0  0  0  0  0  0  0
  153.8178  141.5431  161.0257 H   0  0  0  0  0  0  0  0  0  0  0  0
  154.3660  141.0342  159.4235 H   0  0  0  0  0  0  0  0  0  0  0  0
  152.8261  140.4453  160.0641 H   0  0  0  0  0  0  0  0  0  0  0  0
  153.7864  143.9978  160.5962 H   0  0  0  0  0  0  0  0  0  0  0  0
  152.5932  145.8899  159.4668 H   0  0  0  0  0  0  0  0  0  0  0  0
  150.9762  145.3922  157.6562 H   0  0  0  0  0  0  0  0  0  0  0  0
  149.9769  143.6895  156.2330 H   0  0  0  0  0  0  0  0  0  0  0  0
  148.8089  142.6907  155.0051 H   0  0  0  0  0  0  0  0  0  0  0  0
  148.2033  139.8982  155.2789 H   0  0  0  0  0  0  0  0  0  0  0  0
  149.2490  139.1094  153.1728 H   0  0  0  0  0  0  0  0  0  0  0  0
  150.4100  139.5438  154.4176 H   0  0  0  0  0  0  0  0  0  0  0  0
  150.1447  140.6236  153.0605 H   0  0  0  0  0  0  0  0  0  0  0  0
  147.7037  141.4849  152.7440 H   0  0  0  0  0  0  0  0  0  0  0  0
  147.1450  143.0628  154.5882 H   0  0  0  0  0  0  0  0  0  0  0  0
  146.0346  141.8868  155.2721 H   0  0  0  0  0  0  0  0  0  0  0  0
  145.7355  142.6008  153.6858 H   0  0  0  0  0  0  0  0  0  0  0  0
  147.1425  139.5922  151.2986 H   0  0  0  0  0  0  0  0  0  0  0  0
  147.9606  138.5862  152.4897 H   0  0  0  0  0  0  0  0  0  0  0  0
  145.0600  138.3074  151.4993 H   0  0  0  0  0  0  0  0  0  0  0  0
  146.3939  137.2341  151.1241 H   0  0  0  0  0  0  0  0  0  0  0  0
  144.2067  138.3487  153.7614 H   0  0  0  0  0  0  0  0  0  0  0  0
  144.9409  137.2882  154.9497 H   0  0  0  0  0  0  0  0  0  0  0  0
  147.0547  138.5879  154.8977 H   0  0  0  0  0  0  0  0  0  0  0  0
  145.7033  139.6316  155.2823 H   0  0  0  0  0  0  0  0  0  0  0  0
  145.6142  140.2512  152.9720 H   0  0  0  0  0  0  0  0  0  0  0  0
  1  2  1  0  0  0  0
  1 22  1  0  0  0  0
  1 23  1  0  0  0  0
  1 24  1  0  0  0  0
  2 21  1  0  0  0  0
  2  3  2  0  0  0  0
  3  4  1  0  0  0  0
  3 25  1  0  0  0  0
  4  5  2  0  0  0  0
  4 26  1  0  0  0  0
  5  6  1  0  0  0  0
  5 27  1  0  0  0  0
  6  7  1  0  0  0  0
  6 21  2  0  0  0  0
  7  8  1  0  0  0  0
  7 28  1  0  0  0  0
  8  9  2  0  0  0  0
  8 10  1  0  0  0  0
 10 11  1  0  0  0  0
 10 29  1  0  0  0  0
 11 12  1  0  0  0  0
 11 13  1  0  0  0  0
 11 30  1  0  0  0  0
 12 31  1  0  0  0  0
 12 32  1  0  0  0  0
 12 33  1  0  0  0  0
 13 14  1  0  0  0  0
 13 15  1  0  0  0  0
 13 34  1  0  0  0  0
 14 35  1  0  0  0  0
 14 36  1  0  0  0  0
 14 37  1  0  0  0  0
 15 20  1  0  0  0  0
 15 16  1  0  0  0  0
 15 46  1  0  0  0  0
 16 17  1  0  0  0  0
 16 38  1  0  0  0  0
 16 39  1  0  0  0  0
 17 18  1  0  0  0  0
 17 40  1  0  0  0  0
 17 41  1  0  0  0  0
 18 19  1  0  0  0  0
 19 20  1  0  0  0  0
 19 42  1  0  0  0  0
 19 43  1  0  0  0  0
 20 44  1  0  0  0  0
 20 45  1  0  0  0  0
M  CHG  1  15   1
M  END
> <s_m_source_file>
AV-unprocessed.smi

> <i_m_source_file_index>
2390

> <i_lp_mmshare_version>
43012

> <i_f3d_flags>
0

> <s_epik_input>
W0NIM11jMVtjSF1bY0hdW2NIXWMobjEpW05IXUMoPU8pW05IXVtDQEhdKFtDSDNdKVtDQEhdKFtDSDNdKU4yW0NIMl1bQ0gyXU9bQ0gyXVtDSDJdMg==

> <s_epik_cmdline>
J2VwaWtfcHl0aG9uJywgJy1waCcsICc3LjAnLCAnLXRuJywgJzgnLCAnLW1hJywgJzIwMCcsICctbWV0YWxfYmluZGluZycsICctaW1hZScsICc8aW5maWxlLm1hZT4nLCAnLW9tYWUnLCAnPG91dGZpbGUubWFlPic=

> <r_epik_Ionization_Penalty>
0.60259

> <r_epik_Ionization_Penalty_Charging>
0.602531

> <r_epik_Ionization_Penalty_Neutral>
5.9516e-05

> <r_epik_State_Penalty>
0.617039

> <r_epik_Charging_Adjusted_Penalty>
1.21957

> <i_epik_Tot_Q>
1

> <i_epik_Tot_abs_Q>
1

> <r_epik_Metal_State_Penalty>
0.617047

> <b_epik_Metal_Only>
0

> <s_lp_Force_Field>
OPLS_2005

> <r_lp_Energy>
33.8136

> <b_lp_Chiralities_Consistent>
1

> <s_lp_Variant>
AV-unprocessed.smi:2390-5

> <Gold.Version>
5.8.1

> <Gold.Id.Protein>
6NUR|6NUR_protein|mol2

> <Gold.PLP.Fitness>
50.7050

> <Gold.PLP.PLP>
-41.4224

> <Gold.PLP.part.hbond>
-3.0000

> <Gold.PLP.part.metal>
0.0000

> <Gold.PLP.part.buried>
2.1503

> <Gold.PLP.part.nonpolar>
-39.6679

> <Gold.PLP.part.repulsive>
0.4231

> <Gold.PLP.ligand.clash>
0.0000

> <Gold.PLP.ligand.torsion>
0.8005

> <Gold.PLP.Chemscore.Hbond>
3.5850

> <Gold.PLP.Chemscore.CHOScore>
0.0000

> <Gold.PLP.Chemscore.Metal>
0.0000

> <Gold.Chemscore.Hbonds>
donor molecule, donor type, donor heavy atom, donor atom, acceptor molecule, acceptor atom, score
      L1  H     7    28       P1  8028  1.00
      L1  H    10    29       P1  8028  0.65
      L1  H    15    46       P1 10175  2.00

> <Gold.PLP.Chemscore.Internal.Correction>
0.1286

> <Gold.Rescore>
     Score         DG    S(hbond)    S(metal)    S(lipo)     H(rot)  DE(clash)    DE(int)     intcor
     18.90     -22.87       2.54        0.00     108.45       1.48       1.59       2.38       ----

> <Gold.Chemscore.Fitness>
18.8967

> <Gold.Chemscore.DG>
-22.8656

> <Gold.Chemscore.ZeroCoef>
-5.4800

> <Gold.Chemscore.Hbond>
2.5439

> <Gold.Chemscore.Metal>
0.0000

> <Gold.Chemscore.Lipo>
108.4519

> <Gold.Chemscore.Internal_Hbond>
0.0000

> <Gold.Chemscore.DEClash>
1.5909

> <Gold.Chemscore.DEInternal>
2.3780

> <Gold.Chemscore.Rot>
1.4844

> <Gold.Chemscore.Internal.Correction>
   9.000000E+99

> <Gold.Chemscore.Hbonds>
donor molecule, donor type, donor heavy atom, donor atom, acceptor molecule, acceptor atom, score
      L1  H     7    28       P1  8028  0.98
      L1  H    10    29       P1  8028  0.64
      L1  H    15    46       P1 10175  0.92

> <Gold.Chemscore.Hbond.Weighted>
-8.4967

> <Gold.Chemscore.Metal.Weighted>
-0.0000

> <Gold.Chemscore.Lipo.Weighted>
-12.6889

> <Gold.Chemscore.Internal_Hbond.Weighted>
0.0000

> <Gold.Chemscore.DEClash.Weighted>
1.5909

> <Gold.Chemscore.DEInternal.Weighted>
2.3780

> <Gold.Chemscore.Rot.Weighted>
3.8000

> <Gold.Chemscore.Internal.Correction.Weighted>
   9.000000E+99

> <Gold.Protein.RotatedTorsions>
[ 6907 6896 6895 6894 ] final   46.05 input  -60.11 | X-H torsion
[ 7974 7965 7964 7962 ] final  -75.75 input  175.53 | X-H torsion
[ 8008 7997 7996 7995 ] final  -56.64 input   59.86 | X-H torsion
[ 10167 10162 10161 10158 ] final    5.63 input  -65.29 | X-H torsion
[ 10718 10713 10712 10709 ] final  -88.54 input   66.30 | X-H torsion
[ 10763 10752 10751 10750 ] final  -43.29 input  -60.55 | X-H torsion
[ 11005 11000 10999 10996 ] final   66.10 input  -57.11 | X-H torsion

> <Gold.Protein.ActiveResidues>
 VAL166  LYS551  ARG553  GLY616  TRP617  ASP618  TYR619  PRO620  LYS621  CYS622 
 ASP623  PHE694  ASN695  SER759  ASP760  ASP761  ALA762  ILE779  LEU786  VAL792 
 PHE793  MET794  SER795  GLU796  ALA797  LYS798  CYS799  TRP800  GLU811  SER814 

> <Gold.Protein.RotatedAtoms>
  152.2518  134.8125  160.0444 H   0  0  0  0  0  0  0  0  0  0  0  0  # atno 6907 bound_to 6896
  151.8802  133.3488  159.3772 H   0  0  0  0  0  0  0  0  0  0  0  0  # atno 6908 bound_to 6896
  150.7086  134.4953  159.5579 H   0  0  0  0  0  0  0  0  0  0  0  0  # atno 6909 bound_to 6896
  145.6219  140.9360  143.1133 H   0  0  0  0  0  0  0  0  0  0  0  0  # atno 7974 bound_to 7965
  154.4238  140.1125  156.5670 H   0  0  0  0  0  0  0  0  0  0  0  0  # atno 8008 bound_to 7997
  155.6251  140.3495  155.4646 H   0  0  0  0  0  0  0  0  0  0  0  0  # atno 8009 bound_to 7997
  155.9993  140.1195  157.0553 H   0  0  0  0  0  0  0  0  0  0  0  0  # atno 8010 bound_to 7997
  140.6472  143.7634  150.7517 H   0  0  0  0  0  0  0  0  0  0  0  0  # atno 10167 bound_to 10162
  155.9983  130.4839  150.5034 H   0  0  0  0  0  0  0  0  0  0  0  0  # atno 10718 bound_to 10713
  153.9931  135.6703  153.4755 H   0  0  0  0  0  0  0  0  0  0  0  0  # atno 10763 bound_to 10752
  153.0696  135.4982  154.8271 H   0  0  0  0  0  0  0  0  0  0  0  0  # atno 10764 bound_to 10752
  154.7097  135.3095  154.9178 H   0  0  0  0  0  0  0  0  0  0  0  0  # atno 10765 bound_to 10752
  139.9853  134.6678  156.0188 H   0  0  0  0  0  0  0  0  0  0  0  0  # atno 11005 bound_to 11000
  144.7227  139.7975  143.7376 LP  0  0  0  0  0  0  0  0  0  0  0  0  # atno 17320 bound_to 7965
  146.1424  139.4485  143.0100 LP  0  0  0  0  0  0  0  0  0  0  0  0  # atno 17321 bound_to 7965
  140.1278  143.4554  152.2273 LP  0  0  0  0  0  0  0  0  0  0  0  0  # atno 17342 bound_to 10162
  139.5683  144.7448  151.3961 LP  0  0  0  0  0  0  0  0  0  0  0  0  # atno 17343 bound_to 10162
  157.3016  131.0646  151.2064 LP  0  0  0  0  0  0  0  0  0  0  0  0  # atno 17370 bound_to 10713
  157.3041  130.6857  149.6180 LP  0  0  0  0  0  0  0  0  0  0  0  0  # atno 17371 bound_to 10713
  141.1519  133.6547  156.4039 LP  0  0  0  0  0  0  0  0  0  0  0  0  # atno 17394 bound_to 11000
  140.5015  134.6481  157.5250 LP  0  0  0  0  0  0  0  0  0  0  0  0  # atno 17395 bound_to 11000

$$$$
