AV-unprocessed.smi:2809|AV-procd|sdf|10825|dock5
  -GOLD-   2272015263D 1   1.00000     0.00000
 Structure written by MMmdl.
 44 45  0  0  0  0  0  0  0  0  1 V2000
  152.7365  142.0316  162.6797 C   0  0  0  0  0  0  0  0  0  0  0  0
  153.6872  141.6897  161.5271 C   0  0  0  0  0  0  0  0  0  0  0  0
  152.9492  141.4648  160.2211 C   0  0  0  0  0  0  0  0  0  0  0  0
  153.0689  140.2381  159.5381 C   0  0  0  0  0  0  0  0  0  0  0  0
  152.3787  140.0330  158.3281 C   0  0  0  0  0  0  0  0  0  0  0  0
  151.5595  141.0427  157.7832 C   0  0  0  0  0  0  0  0  0  0  0  0
  150.9186  140.7552  156.5976 O   0  0  0  0  0  0  0  0  0  0  0  0
  151.5120  139.8046  155.7230 C   0  0  0  0  0  0  0  0  0  0  0  0
  150.4571  139.3441  154.7054 C   0  0  2  0  0  0  0  0  0  0  0  0
  150.0971  140.4750  153.9375 O   0  0  0  0  0  0  0  0  0  0  0  0
  149.1911  138.7849  155.3937 C   0  0  0  0  0  0  0  0  0  0  0  0
  149.3891  137.4152  155.8954 N   0  0  0  0  0  0  0  0  0  0  0  0
  149.6141  136.4238  154.9268 C   0  0  0  0  0  0  0  0  0  0  0  0
  149.7959  135.1857  155.2520 N   0  0  0  0  0  0  0  0  0  0  0  0
  149.7731  134.8075  156.5975 C   0  0  0  0  0  0  0  0  0  0  0  0
  149.9941  133.3298  156.8673 C   0  0  0  0  0  0  0  0  0  0  0  0
  149.5664  135.7208  157.5852 C   0  0  0  0  0  0  0  0  0  0  0  0
  149.5364  135.3681  159.0673 C   0  0  0  0  0  0  0  0  0  0  0  0
  149.3604  137.1345  157.2306 C   0  0  0  0  0  0  0  0  0  0  0  0
  149.1763  138.0154  158.0729 O   0  0  0  0  0  0  0  0  0  0  0  0
  151.4438  142.2751  158.4744 C   0  0  0  0  0  0  0  0  0  0  0  0
  152.1348  142.4816  159.6841 C   0  0  0  0  0  0  0  0  0  0  0  0
  153.2900  142.1895  163.6054 H   0  0  0  0  0  0  0  0  0  0  0  0
  152.0210  141.2271  162.8521 H   0  0  0  0  0  0  0  0  0  0  0  0
  152.1738  142.9417  162.4698 H   0  0  0  0  0  0  0  0  0  0  0  0
  154.4110  142.4945  161.3931 H   0  0  0  0  0  0  0  0  0  0  0  0
  154.2633  140.7976  161.7760 H   0  0  0  0  0  0  0  0  0  0  0  0
  153.6887  139.4500  159.9399 H   0  0  0  0  0  0  0  0  0  0  0  0
  152.4774  139.0886  157.8127 H   0  0  0  0  0  0  0  0  0  0  0  0
  152.3697  140.2364  155.2041 H   0  0  0  0  0  0  0  0  0  0  0  0
  151.8614  138.9498  156.3051 H   0  0  0  0  0  0  0  0  0  0  0  0
  150.9081  138.6042  154.0429 H   0  0  0  0  0  0  0  0  0  0  0  0
  149.8344  140.1837  153.0779 H   0  0  0  0  0  0  0  0  0  0  0  0
  148.9265  139.4181  156.2425 H   0  0  0  0  0  0  0  0  0  0  0  0
  148.3279  138.8635  154.7292 H   0  0  0  0  0  0  0  0  0  0  0  0
  149.6272  136.7711  153.8923 H   0  0  0  0  0  0  0  0  0  0  0  0
  149.1227  132.8979  157.3603 H   0  0  0  0  0  0  0  0  0  0  0  0
  150.8648  133.1833  157.5065 H   0  0  0  0  0  0  0  0  0  0  0  0
  150.1627  132.7774  155.9420 H   0  0  0  0  0  0  0  0  0  0  0  0
  150.3328  135.8947  159.5941 H   0  0  0  0  0  0  0  0  0  0  0  0
  149.6637  134.3039  159.2585 H   0  0  0  0  0  0  0  0  0  0  0  0
  148.5844  135.6671  159.5069 H   0  0  0  0  0  0  0  0  0  0  0  0
  150.8312  143.0795  158.0972 H   0  0  0  0  0  0  0  0  0  0  0  0
  152.0357  143.4249  160.2010 H   0  0  0  0  0  0  0  0  0  0  0  0
  1  2  1  0  0  0  0
  1 23  1  0  0  0  0
  1 24  1  0  0  0  0
  1 25  1  0  0  0  0
  2  3  1  0  0  0  0
  2 26  1  0  0  0  0
  2 27  1  0  0  0  0
  3 22  1  0  0  0  0
  3  4  2  0  0  0  0
  4  5  1  0  0  0  0
  4 28  1  0  0  0  0
  5  6  2  0  0  0  0
  5 29  1  0  0  0  0
  6  7  1  0  0  0  0
  6 21  1  0  0  0  0
  7  8  1  0  0  0  0
  8  9  1  0  0  0  0
  8 30  1  0  0  0  0
  8 31  1  0  0  0  0
  9 10  1  0  0  0  0
  9 11  1  0  0  0  0
  9 32  1  0  0  0  0
 10 33  1  0  0  0  0
 11 12  1  0  0  0  0
 11 34  1  0  0  0  0
 11 35  1  0  0  0  0
 12 19  1  0  0  0  0
 12 13  1  0  0  0  0
 13 14  2  0  0  0  0
 13 36  1  0  0  0  0
 14 15  1  0  0  0  0
 15 16  1  0  0  0  0
 15 17  2  0  0  0  0
 16 37  1  0  0  0  0
 16 38  1  0  0  0  0
 16 39  1  0  0  0  0
 17 18  1  0  0  0  0
 17 19  1  0  0  0  0
 18 40  1  0  0  0  0
 18 41  1  0  0  0  0
 18 42  1  0  0  0  0
 19 20  2  0  0  0  0
 21 22  2  0  0  0  0
 21 43  1  0  0  0  0
 22 44  1  0  0  0  0
M  END
> <s_m_source_file>
AV-unprocessed.smi

> <i_m_source_file_index>
2809

> <i_lp_mmshare_version>
43012

> <i_f3d_flags>
0

> <s_epik_input>
W0NIM11bQ0gyXWMxW2NIXVtjSF1jKFtjSF1bY0hdMSlPW0NIMl1bQ0BIXShbT0hdKVtDSDJdbjJbY0hdbmMoW0NIM10pYyhbQ0gzXSljMj1P

> <s_epik_cmdline>
J2VwaWtfcHl0aG9uJywgJy1waCcsICc3LjAnLCAnLXRuJywgJzgnLCAnLW1hJywgJzIwMCcsICctbWV0YWxfYmluZGluZycsICctaW1hZScsICc8aW5maWxlLm1hZT4nLCAnLW9tYWUnLCAnPG91dGZpbGUubWFlPic=

> <r_lp_tautomer_probability>
1

> <r_epik_Ionization_Penalty>
3.74127e-05

> <r_epik_Ionization_Penalty_Charging>
8.43242e-08

> <r_epik_Ionization_Penalty_Neutral>
3.73284e-05

> <r_epik_State_Penalty>
-0

> <r_epik_Charging_Adjusted_Penalty>
8.43242e-08

> <i_epik_Tot_Q>
0

> <i_epik_Tot_abs_Q>
0

> <r_epik_Metal_State_Penalty>
-0

> <b_epik_Metal_Only>
0

> <s_lp_Force_Field>
OPLS_2005

> <r_lp_Energy>
22.1893

> <b_lp_Chiralities_Consistent>
1

> <s_lp_Variant>
AV-unprocessed.smi:2809-1

> <Gold.Version>
5.8.1

> <Gold.Id.Protein>
6NUR|6NUR_protein|mol2

> <Gold.PLP.Fitness>
44.9104

> <Gold.PLP.PLP>
-37.9137

> <Gold.PLP.part.hbond>
-1.9987

> <Gold.PLP.part.metal>
0.0000

> <Gold.PLP.part.buried>
-4.8496

> <Gold.PLP.part.nonpolar>
-29.1974

> <Gold.PLP.part.repulsive>
0.0832

> <Gold.PLP.ligand.clash>
0.0000

> <Gold.PLP.ligand.torsion>
0.6076

> <Gold.PLP.Chemscore.Hbond>
1.6880

> <Gold.PLP.Chemscore.CHOScore>
0.9995

> <Gold.PLP.Chemscore.Metal>
0.0000

> <Gold.Chemscore.Hbonds>
donor molecule, donor type, donor heavy atom, donor atom, acceptor molecule, acceptor atom, score
      L1  H    10    33       P1  7957  1.00
      P1  H  7989  7998       L1    10  0.44
      L1  C    13    36       P1  7948  1.00

> <Gold.PLP.Chemscore.Internal.Correction>
0.1495

> <Gold.Rescore>
     Score         DG    S(hbond)    S(metal)    S(lipo)     H(rot)  DE(clash)    DE(int)     intcor
     15.52     -16.14       1.42        0.00     104.52       2.47       0.02       0.59       ----

> <Gold.Chemscore.Fitness>
15.5199

> <Gold.Chemscore.DG>
-16.1366

> <Gold.Chemscore.ZeroCoef>
-5.4800

> <Gold.Chemscore.Hbond>
1.4191

> <Gold.Chemscore.Metal>
0.0000

> <Gold.Chemscore.Lipo>
104.5196

> <Gold.Chemscore.Internal_Hbond>
0.0000

> <Gold.Chemscore.DEClash>
0.0246

> <Gold.Chemscore.DEInternal>
0.5922

> <Gold.Chemscore.Rot>
2.4657

> <Gold.Chemscore.Internal.Correction>
   9.000000E+99

> <Gold.Chemscore.Hbonds>
donor molecule, donor type, donor heavy atom, donor atom, acceptor molecule, acceptor atom, score
      L1  H    10    33       P1  7957  0.99
      P1  H  7989  7998       L1    10  0.01

> <Gold.Chemscore.Hbond.Weighted>
-4.7399

> <Gold.Chemscore.Metal.Weighted>
-0.0000

> <Gold.Chemscore.Lipo.Weighted>
-12.2288

> <Gold.Chemscore.Internal_Hbond.Weighted>
0.0000

> <Gold.Chemscore.DEClash.Weighted>
0.0246

> <Gold.Chemscore.DEInternal.Weighted>
0.5922

> <Gold.Chemscore.Rot.Weighted>
6.3121

> <Gold.Chemscore.Internal.Correction.Weighted>
   9.000000E+99

> <Gold.Protein.RotatedTorsions>
[ 6907 6896 6895 6894 ] final  -16.23 input  -60.11 | X-H torsion
[ 7974 7965 7964 7962 ] final  121.77 input  175.53 | X-H torsion
[ 8008 7997 7996 7995 ] final  -99.62 input   59.86 | X-H torsion
[ 10167 10162 10161 10158 ] final   62.08 input  -65.29 | X-H torsion
[ 10718 10713 10712 10709 ] final  -17.74 input   66.30 | X-H torsion
[ 10763 10752 10751 10750 ] final  141.12 input  -60.55 | X-H torsion
[ 11005 11000 10999 10996 ] final -149.52 input  -57.11 | X-H torsion

> <Gold.Protein.ActiveResidues>
 VAL166  LYS551  ARG553  GLY616  TRP617  ASP618  TYR619  PRO620  LYS621  CYS622 
 ASP623  PHE694  ASN695  SER759  ASP760  ASP761  ALA762  ILE779  LEU786  VAL792 
 PHE793  MET794  SER795  GLU796  ALA797  LYS798  CYS799  TRP800  GLU811  SER814 

> <Gold.Protein.RotatedAtoms>
  151.3118  135.0796  159.9274 H   0  0  0  0  0  0  0  0  0  0  0  0  # atno 6907 bound_to 6896
  152.5276  133.9728  159.7780 H   0  0  0  0  0  0  0  0  0  0  0  0  # atno 6908 bound_to 6896
  151.0033  133.5983  159.2722 H   0  0  0  0  0  0  0  0  0  0  0  0  # atno 6909 bound_to 6896
  145.1154  139.3425  143.4742 H   0  0  0  0  0  0  0  0  0  0  0  0  # atno 7974 bound_to 7965
  154.8173  140.0446  157.1385 H   0  0  0  0  0  0  0  0  0  0  0  0  # atno 8008 bound_to 7997
  154.9300  140.3038  155.5153 H   0  0  0  0  0  0  0  0  0  0  0  0  # atno 8009 bound_to 7997
  156.2977  140.2325  156.4359 H   0  0  0  0  0  0  0  0  0  0  0  0  # atno 8010 bound_to 7997
  140.1478  144.4491  150.6775 H   0  0  0  0  0  0  0  0  0  0  0  0  # atno 10167 bound_to 10162
  156.5693  130.4745  149.6370 H   0  0  0  0  0  0  0  0  0  0  0  0  # atno 10718 bound_to 10713
  153.9340  135.2987  155.3445 H   0  0  0  0  0  0  0  0  0  0  0  0  # atno 10763 bound_to 10752
  154.7512  135.4979  153.9295 H   0  0  0  0  0  0  0  0  0  0  0  0  # atno 10764 bound_to 10752
  153.1077  135.6751  153.9662 H   0  0  0  0  0  0  0  0  0  0  0  0  # atno 10765 bound_to 10752
  140.7499  134.3418  157.5128 H   0  0  0  0  0  0  0  0  0  0  0  0  # atno 11005 bound_to 11000
  146.3524  140.1090  142.8604 LP  0  0  0  0  0  0  0  0  0  0  0  0  # atno 17320 bound_to 7965
  145.0800  140.9214  143.4831 LP  0  0  0  0  0  0  0  0  0  0  0  0  # atno 17321 bound_to 7965
  140.6721  143.2290  151.5600 LP  0  0  0  0  0  0  0  0  0  0  0  0  # atno 17342 bound_to 10162
  139.5440  144.2570  152.1407 LP  0  0  0  0  0  0  0  0  0  0  0  0  # atno 17343 bound_to 10162
  156.2729  130.7027  151.1829 LP  0  0  0  0  0  0  0  0  0  0  0  0  # atno 17370 bound_to 10713
  157.7351  131.0575  150.5485 LP  0  0  0  0  0  0  0  0  0  0  0  0  # atno 17371 bound_to 10713
  139.8789  134.9135  156.3085 LP  0  0  0  0  0  0  0  0  0  0  0  0  # atno 17394 bound_to 11000
  140.9760  133.7297  156.0603 LP  0  0  0  0  0  0  0  0  0  0  0  0  # atno 17395 bound_to 11000

$$$$
