AV-unprocessed.smi:275|AV-procd|sdf|2069|dock6
  -GOLD-   2262021323D 1   1.00000     0.00000
 Structure written by MMmdl.
 65 69  0  0  0  0  0  0  0  0  1 V2000
  148.8804  141.4602  157.5265 C   0  0  0  0  0  0  0  0  0  0  0  0
  150.0159  142.4098  157.9437 C   0  0  0  0  0  0  0  0  0  0  0  0
  150.7153  142.9069  156.6636 C   0  0  0  0  0  0  0  0  0  0  0  0
  151.0238  141.7728  158.9364 C   0  0  1  0  0  0  0  0  0  0  0  0
  151.8847  140.8708  158.1662 N   0  0  0  0  0  0  0  0  0  0  0  0
  152.0980  139.5553  158.6948 C   0  0  0  0  0  0  0  0  0  0  0  0
  151.0196  138.7652  158.9508 N   0  0  0  0  0  0  0  0  0  0  0  0
  151.1556  137.5357  159.4535 C   0  0  0  0  0  0  0  0  0  0  0  0
  152.2731  136.8948  159.7918 N   0  0  0  0  0  0  0  0  0  0  0  0
  153.3656  137.6773  159.5715 C   0  0  0  0  0  0  0  0  0  0  0  0
  153.3680  139.0005  159.0402 C   0  0  0  0  0  0  0  0  0  0  0  0
  154.6759  139.4699  158.9825 N   0  0  0  0  0  0  0  0  0  0  0  0
  155.3999  138.4850  159.4367 C   0  0  0  0  0  0  0  0  0  0  0  0
  154.6926  137.3657  159.8067 N   0  0  0  0  0  0  0  0  0  0  0  0
  155.2372  136.1298  160.3409 C   0  0  0  0  0  0  0  0  0  0  0  0
  154.5383  135.6617  161.6420 C   0  0  1  0  0  0  0  0  0  0  0  0
  155.1345  134.3492  162.2071 C   0  0  0  0  0  0  0  0  0  0  0  0
  155.2503  133.3603  161.2045 O   0  0  0  0  0  0  0  0  0  0  0  0
  154.4954  136.7915  162.7016 C   0  0  1  0  0  0  0  0  0  0  0  0
  153.8612  136.4007  164.0248 C   0  0  0  0  0  0  0  0  0  0  0  0
  154.3739  137.4899  164.9606 C   0  0  0  0  0  0  0  0  0  0  0  0
  155.6687  137.8301  164.4788 O   0  0  0  0  0  0  0  0  0  0  0  0
  155.8682  137.2737  163.1829 C   0  0  0  0  0  0  0  0  0  0  0  0
  153.0058  141.8008  158.2264 C   0  0  0  0  0  0  0  0  0  0  0  0
  152.3324  142.4619  159.4377 C   0  0  0  0  0  0  0  0  0  0  0  0
  152.8838  141.9750  160.8002 C   0  0  0  0  0  0  0  0  0  0  0  0
  152.1689  142.5848  162.0144 C   0  0  0  0  0  0  0  0  0  0  0  0
  152.2842  144.1103  161.9962 C   0  0  0  0  0  0  0  0  0  0  0  0
  151.7462  144.6648  160.6758 C   0  0  0  0  0  0  0  0  0  0  0  0
  152.4253  144.0017  159.4589 C   0  0  0  0  0  0  0  0  0  0  0  0
  149.2624  140.4749  157.2579 H   0  0  0  0  0  0  0  0  0  0  0  0
  148.3396  141.8481  156.6627 H   0  0  0  0  0  0  0  0  0  0  0  0
  148.1365  141.3440  158.3102 H   0  0  0  0  0  0  0  0  0  0  0  0
  149.5458  143.2780  158.4083 H   0  0  0  0  0  0  0  0  0  0  0  0
  151.1605  142.0795  156.1108 H   0  0  0  0  0  0  0  0  0  0  0  0
  151.5050  143.6258  156.8824 H   0  0  0  0  0  0  0  0  0  0  0  0
  150.0102  143.4044  155.9974 H   0  0  0  0  0  0  0  0  0  0  0  0
  150.5230  141.2895  159.7740 H   0  0  0  0  0  0  0  0  0  0  0  0
  150.2369  136.9893  159.6078 H   0  0  0  0  0  0  0  0  0  0  0  0
  156.4761  138.5467  159.5096 H   0  0  0  0  0  0  0  0  0  0  0  0
  155.1571  135.3589  159.5733 H   0  0  0  0  0  0  0  0  0  0  0  0
  156.3029  136.2851  160.5115 H   0  0  0  0  0  0  0  0  0  0  0  0
  153.5047  135.4331  161.3781 H   0  0  0  0  0  0  0  0  0  0  0  0
  156.1193  134.5243  162.6397 H   0  0  0  0  0  0  0  0  0  0  0  0
  154.5205  133.9563  163.0176 H   0  0  0  0  0  0  0  0  0  0  0  0
  155.3531  133.7904  160.3692 H   0  0  0  0  0  0  0  0  0  0  0  0
  153.9480  137.6468  162.3019 H   0  0  0  0  0  0  0  0  0  0  0  0
  152.7720  136.3641  163.9873 H   0  0  0  0  0  0  0  0  0  0  0  0
  154.2254  135.4250  164.3505 H   0  0  0  0  0  0  0  0  0  0  0  0
  153.7381  138.3742  164.9001 H   0  0  0  0  0  0  0  0  0  0  0  0
  154.4073  137.1657  166.0012 H   0  0  0  0  0  0  0  0  0  0  0  0
  156.5630  136.4377  163.2749 H   0  0  0  0  0  0  0  0  0  0  0  0
  156.3111  138.0068  162.5083 H   0  0  0  0  0  0  0  0  0  0  0  0
  153.9925  141.3859  158.4322 H   0  0  0  0  0  0  0  0  0  0  0  0
  153.0280  142.4443  157.3458 H   0  0  0  0  0  0  0  0  0  0  0  0
  152.8190  140.8911  160.8839 H   0  0  0  0  0  0  0  0  0  0  0  0
  153.9489  142.2013  160.8679 H   0  0  0  0  0  0  0  0  0  0  0  0
  151.1186  142.2909  162.0112 H   0  0  0  0  0  0  0  0  0  0  0  0
  152.5994  142.1922  162.9358 H   0  0  0  0  0  0  0  0  0  0  0  0
  151.7376  144.5401  162.8362 H   0  0  0  0  0  0  0  0  0  0  0  0
  153.3279  144.4020  162.1200 H   0  0  0  0  0  0  0  0  0  0  0  0
  150.6711  144.5008  160.6548 H   0  0  0  0  0  0  0  0  0  0  0  0
  151.8922  145.7447  160.6395 H   0  0  0  0  0  0  0  0  0  0  0  0
  153.4760  144.2951  159.4562 H   0  0  0  0  0  0  0  0  0  0  0  0
  152.0216  144.4223  158.5387 H   0  0  0  0  0  0  0  0  0  0  0  0
  1  2  1  0  0  0  0
  1 31  1  0  0  0  0
  1 32  1  0  0  0  0
  1 33  1  0  0  0  0
  2  3  1  0  0  0  0
  2  4  1  0  0  0  0
  2 34  1  0  0  0  0
  3 35  1  0  0  0  0
  3 36  1  0  0  0  0
  3 37  1  0  0  0  0
  4 25  1  0  0  0  0
  4  5  1  0  0  0  0
  4 38  1  0  0  0  0
  5  6  1  0  0  0  0
  5 24  1  0  0  0  0
  6 11  1  0  0  0  0
  6  7  2  0  0  0  0
  7  8  1  0  0  0  0
  8  9  2  0  0  0  0
  8 39  1  0  0  0  0
  9 10  1  0  0  0  0
 10 14  1  0  0  0  0
 10 11  2  0  0  0  0
 11 12  1  0  0  0  0
 12 13  2  0  0  0  0
 13 14  1  0  0  0  0
 13 40  1  0  0  0  0
 14 15  1  0  0  0  0
 15 16  1  0  0  0  0
 15 41  1  0  0  0  0
 15 42  1  0  0  0  0
 16 17  1  0  0  0  0
 16 19  1  0  0  0  0
 16 43  1  0  0  0  0
 17 18  1  0  0  0  0
 17 44  1  0  0  0  0
 17 45  1  0  0  0  0
 18 46  1  0  0  0  0
 19 23  1  0  0  0  0
 19 20  1  0  0  0  0
 19 47  1  0  0  0  0
 20 21  1  0  0  0  0
 20 48  1  0  0  0  0
 20 49  1  0  0  0  0
 21 22  1  0  0  0  0
 21 50  1  0  0  0  0
 21 51  1  0  0  0  0
 22 23  1  0  0  0  0
 23 52  1  0  0  0  0
 23 53  1  0  0  0  0
 24 25  1  0  0  0  0
 24 54  1  0  0  0  0
 24 55  1  0  0  0  0
 25 30  1  0  0  0  0
 25 26  1  0  0  0  0
 26 27  1  0  0  0  0
 26 56  1  0  0  0  0
 26 57  1  0  0  0  0
 27 28  1  0  0  0  0
 27 58  1  0  0  0  0
 27 59  1  0  0  0  0
 28 29  1  0  0  0  0
 28 60  1  0  0  0  0
 28 61  1  0  0  0  0
 29 30  1  0  0  0  0
 29 62  1  0  0  0  0
 29 63  1  0  0  0  0
 30 64  1  0  0  0  0
 30 65  1  0  0  0  0
M  END
> <s_m_source_file>
AV-unprocessed.smi

> <i_m_source_file_index>
275

> <i_lp_mmshare_version>
43012

> <i_f3d_flags>
0

> <s_epik_input>
W0NIMl0xW0NIMl1bQ0gyXVtDSDJdW0NIMl1DMTJbQ0BIXShbQ0hdKFtDSDNdKVtDSDNdKU4oW0NIMl0yKWMobltjSF1uMyljKGMzNCluW2NIXW40W0NIMl1bQ0BIXShbQ0gyXVtPSF0pW0NAQEhdNVtDSDJdW0NIMl1PW0NIMl01

> <s_epik_cmdline>
J2VwaWtfcHl0aG9uJywgJy1waCcsICc3LjAnLCAnLXRuJywgJzgnLCAnLW1hJywgJzIwMCcsICctbWV0YWxfYmluZGluZycsICctaW1hZScsICc8aW5maWxlLm1hZT4nLCAnLW9tYWUnLCAnPG91dGZpbGUubWFlPic=

> <r_lp_tautomer_probability>
1

> <r_epik_Ionization_Penalty>
0.00375122

> <r_epik_Ionization_Penalty_Charging>
0

> <r_epik_Ionization_Penalty_Neutral>
0.00375122

> <r_epik_State_Penalty>
0.00260593

> <r_epik_Charging_Adjusted_Penalty>
0.00260593

> <i_epik_Tot_Q>
0

> <i_epik_Tot_abs_Q>
0

> <r_epik_Metal_State_Penalty>
-0

> <b_epik_Metal_Only>
0

> <s_lp_Force_Field>
OPLS_2005

> <r_lp_Energy>
68.7999

> <b_lp_Chiralities_Consistent>
1

> <s_lp_Variant>
AV-unprocessed.smi:275-8

> <Gold.Version>
5.8.1

> <Gold.Id.Protein>
6NUR|6NUR_protein|mol2

> <Gold.PLP.Fitness>
49.8764

> <Gold.PLP.PLP>
-44.8300

> <Gold.PLP.part.hbond>
-2.0000

> <Gold.PLP.part.metal>
0.0000

> <Gold.PLP.part.buried>
-2.9673

> <Gold.PLP.part.nonpolar>
-39.2749

> <Gold.PLP.part.repulsive>
0.0401

> <Gold.PLP.ligand.clash>
0.4875

> <Gold.PLP.ligand.torsion>
0.4728

> <Gold.PLP.Chemscore.Hbond>
2.0000

> <Gold.PLP.Chemscore.CHOScore>
0.0000

> <Gold.PLP.Chemscore.Metal>
0.0000

> <Gold.Chemscore.Hbonds>
donor molecule, donor type, donor heavy atom, donor atom, acceptor molecule, acceptor atom, score
      P1  H  6896  6909       L1     9  1.00
      P1  H  7997  8010       L1    12  1.00

> <Gold.PLP.Chemscore.Internal.Correction>
0.4795

> <Gold.Rescore>
     Score         DG    S(hbond)    S(metal)    S(lipo)     H(rot)  DE(clash)    DE(int)     intcor
     16.56     -22.61       1.48        0.00     159.69       2.54       3.26       2.79       ----

> <Gold.Chemscore.Fitness>
16.5591

> <Gold.Chemscore.DG>
-22.6055

> <Gold.Chemscore.ZeroCoef>
-5.4800

> <Gold.Chemscore.Hbond>
1.4787

> <Gold.Chemscore.Metal>
0.0000

> <Gold.Chemscore.Lipo>
159.6856

> <Gold.Chemscore.Internal_Hbond>
0.0000

> <Gold.Chemscore.DEClash>
3.2566

> <Gold.Chemscore.DEInternal>
2.7898

> <Gold.Chemscore.Rot>
2.5377

> <Gold.Chemscore.Internal.Correction>
   9.000000E+99

> <Gold.Chemscore.Hbonds>
donor molecule, donor type, donor heavy atom, donor atom, acceptor molecule, acceptor atom, score
      P1  H  6896  6909       L1     9  0.55
      P1  H  7997  8010       L1    12  0.71

> <Gold.Chemscore.Hbond.Weighted>
-4.9389

> <Gold.Chemscore.Metal.Weighted>
-0.0000

> <Gold.Chemscore.Lipo.Weighted>
-18.6832

> <Gold.Chemscore.Internal_Hbond.Weighted>
0.0000

> <Gold.Chemscore.DEClash.Weighted>
3.2566

> <Gold.Chemscore.DEInternal.Weighted>
2.7898

> <Gold.Chemscore.Rot.Weighted>
6.4966

> <Gold.Chemscore.Internal.Correction.Weighted>
   9.000000E+99

> <Gold.Protein.RotatedTorsions>
[ 6907 6896 6895 6894 ] final  132.03 input  -60.11 | X-H torsion
[ 7974 7965 7964 7962 ] final   76.53 input  175.53 | X-H torsion
[ 8008 7997 7996 7995 ] final    1.29 input   59.86 | X-H torsion
[ 10167 10162 10161 10158 ] final   65.33 input  -65.29 | X-H torsion
[ 10718 10713 10712 10709 ] final -147.66 input   66.30 | X-H torsion
[ 10763 10752 10751 10750 ] final -169.89 input  -60.55 | X-H torsion
[ 11005 11000 10999 10996 ] final  -29.95 input  -57.11 | X-H torsion

> <Gold.Protein.ActiveResidues>
 VAL166  LYS551  ARG553  GLY616  TRP617  ASP618  TYR619  PRO620  LYS621  CYS622 
 ASP623  PHE694  ASN695  SER759  ASP760  ASP761  ALA762  ILE779  LEU786  VAL792 
 PHE793  MET794  SER795  GLU796  ALA797  LYS798  CYS799  TRP800  GLU811  SER814 

> <Gold.Protein.RotatedAtoms>
  152.3366  133.6019  159.5846 H   0  0  0  0  0  0  0  0  0  0  0  0  # atno 6907 bound_to 6896
  150.7454  133.9786  159.3578 H   0  0  0  0  0  0  0  0  0  0  0  0  # atno 6908 bound_to 6896
  151.7655  135.0800  160.0403 H   0  0  0  0  0  0  0  0  0  0  0  0  # atno 6909 bound_to 6896
  145.7017  139.2585  143.1701 H   0  0  0  0  0  0  0  0  0  0  0  0  # atno 7974 bound_to 7965
  154.6781  140.2626  155.6937 H   0  0  0  0  0  0  0  0  0  0  0  0  # atno 8008 bound_to 7997
  156.2686  140.2816  156.1237 H   0  0  0  0  0  0  0  0  0  0  0  0  # atno 8009 bound_to 7997
  155.1071  140.0375  157.2704 H   0  0  0  0  0  0  0  0  0  0  0  0  # atno 8010 bound_to 7997
  140.1124  144.4806  150.6969 H   0  0  0  0  0  0  0  0  0  0  0  0  # atno 10167 bound_to 10162
  156.4103  130.7978  151.2195 H   0  0  0  0  0  0  0  0  0  0  0  0  # atno 10718 bound_to 10713
  154.6474  135.2907  155.0029 H   0  0  0  0  0  0  0  0  0  0  0  0  # atno 10763 bound_to 10752
  154.1134  135.6559  153.4893 H   0  0  0  0  0  0  0  0  0  0  0  0  # atno 10764 bound_to 10752
  153.0358  135.5270  154.7368 H   0  0  0  0  0  0  0  0  0  0  0  0  # atno 10765 bound_to 10752
  140.9341  133.7320  156.0979 H   0  0  0  0  0  0  0  0  0  0  0  0  # atno 11005 bound_to 11000
  146.0792  140.7783  142.9650 LP  0  0  0  0  0  0  0  0  0  0  0  0  # atno 17320 bound_to 7965
  144.6967  140.3462  143.7190 LP  0  0  0  0  0  0  0  0  0  0  0  0  # atno 17321 bound_to 7965
  140.6918  143.2380  151.5110 LP  0  0  0  0  0  0  0  0  0  0  0  0  # atno 17342 bound_to 10162
  139.5612  144.2152  152.1694 LP  0  0  0  0  0  0  0  0  0  0  0  0  # atno 17343 bound_to 10162
  157.7507  131.0259  150.3941 LP  0  0  0  0  0  0  0  0  0  0  0  0  # atno 17370 bound_to 10713
  156.4238  130.3958  149.6807 LP  0  0  0  0  0  0  0  0  0  0  0  0  # atno 17371 bound_to 10713
  140.7823  134.3711  157.5484 LP  0  0  0  0  0  0  0  0  0  0  0  0  # atno 17394 bound_to 11000
  139.8803  134.9089  156.2979 LP  0  0  0  0  0  0  0  0  0  0  0  0  # atno 17395 bound_to 11000

$$$$
