AV-unprocessed.smi:2669|AV-procd|sdf|10343|dock7
  -GOLD-   2272014363D 1   1.00000     0.00000
 Structure written by MMmdl.
 39 41  0  0  0  0  0  0  0  0  1 V2000
  146.8056  139.2749  157.9506 C   0  0  0  0  0  0  0  0  0  0  0  0
  147.6891  138.8139  156.8913 N   0  0  0  0  0  0  0  0  0  0  0  0
  148.6445  137.8196  157.1436 C   0  0  0  0  0  0  0  0  0  0  0  0
  148.6313  137.1567  158.3235 N   0  0  0  0  0  0  0  0  0  0  0  0
  149.5644  136.2175  158.5251 C   0  0  0  0  0  0  0  0  0  0  0  0
  150.5491  135.8144  157.7074 N   0  0  0  0  0  0  0  0  0  0  0  0
  150.5688  136.4623  156.5347 C   0  0  0  0  0  0  0  0  0  0  0  0
  151.4712  136.2504  155.5067 N   0  0  0  0  0  0  0  0  0  0  0  0
  151.0564  137.1294  154.5981 C   0  0  0  0  0  0  0  0  0  0  0  0
  149.9890  137.8906  154.9090 N   0  0  0  0  0  0  0  0  0  0  0  0
  149.3803  138.9009  154.0598 C   0  0  0  0  0  0  0  0  0  0  0  0
  149.3049  140.2818  154.7413 C   0  0  2  0  0  0  0  0  0  0  0  0
  149.0729  141.2883  153.7757 O   0  0  0  0  0  0  0  0  0  0  0  0
  150.5916  140.6297  155.5039 C   0  0  0  0  0  0  0  0  0  0  0  0
  150.3783  141.8200  156.2512 O   0  0  0  0  0  0  0  0  0  0  0  0
  151.0130  141.9504  157.4675 C   0  0  0  0  0  0  0  0  0  0  0  0
  151.2992  143.2611  157.9020 C   0  0  0  0  0  0  0  0  0  0  0  0
  151.9447  143.4883  159.1328 C   0  0  0  0  0  0  0  0  0  0  0  0
  152.3124  142.3998  159.9455 C   0  0  0  0  0  0  0  0  0  0  0  0
  153.1019  142.6743  161.4548 Cl  0  0  0  0  0  0  0  0  0  0  0  0
  152.0341  141.0863  159.5237 C   0  0  0  0  0  0  0  0  0  0  0  0
  151.3888  140.8597  158.2923 C   0  0  0  0  0  0  0  0  0  0  0  0
  149.6302  137.4829  156.1935 C   0  0  0  0  0  0  0  0  0  0  0  0
  146.1864  140.0952  157.5879 H   0  0  0  0  0  0  0  0  0  0  0  0
  147.3789  139.6335  158.8061 H   0  0  0  0  0  0  0  0  0  0  0  0
  146.1477  138.4707  158.2813 H   0  0  0  0  0  0  0  0  0  0  0  0
  147.7207  139.3264  156.0216 H   0  0  0  0  0  0  0  0  0  0  0  0
  149.5185  135.7147  159.4795 H   0  0  0  0  0  0  0  0  0  0  0  0
  151.5588  137.2260  153.6466 H   0  0  0  0  0  0  0  0  0  0  0  0
  149.9705  138.9703  153.1451 H   0  0  0  0  0  0  0  0  0  0  0  0
  148.3910  138.5627  153.7536 H   0  0  0  0  0  0  0  0  0  0  0  0
  148.4644  140.2980  155.4366 H   0  0  0  0  0  0  0  0  0  0  0  0
  148.9635  140.8766  152.9320 H   0  0  0  0  0  0  0  0  0  0  0  0
  150.8720  139.8039  156.1603 H   0  0  0  0  0  0  0  0  0  0  0  0
  151.4059  140.7911  154.7952 H   0  0  0  0  0  0  0  0  0  0  0  0
  151.0198  144.1027  157.2851 H   0  0  0  0  0  0  0  0  0  0  0  0
  152.1561  144.4985  159.4513 H   0  0  0  0  0  0  0  0  0  0  0  0
  152.3154  140.2484  160.1447 H   0  0  0  0  0  0  0  0  0  0  0  0
  151.1937  139.8384  158.0035 H   0  0  0  0  0  0  0  0  0  0  0  0
  1  2  1  0  0  0  0
  1 24  1  0  0  0  0
  1 25  1  0  0  0  0
  1 26  1  0  0  0  0
  2  3  1  0  0  0  0
  2 27  1  0  0  0  0
  3 23  1  0  0  0  0
  3  4  2  0  0  0  0
  4  5  1  0  0  0  0
  5  6  2  0  0  0  0
  5 28  1  0  0  0  0
  6  7  1  0  0  0  0
  7 23  2  0  0  0  0
  7  8  1  0  0  0  0
  8  9  2  0  0  0  0
  9 10  1  0  0  0  0
  9 29  1  0  0  0  0
 10 11  1  0  0  0  0
 10 23  1  0  0  0  0
 11 12  1  0  0  0  0
 11 30  1  0  0  0  0
 11 31  1  0  0  0  0
 12 13  1  0  0  0  0
 12 14  1  0  0  0  0
 12 32  1  0  0  0  0
 13 33  1  0  0  0  0
 14 15  1  0  0  0  0
 14 34  1  0  0  0  0
 14 35  1  0  0  0  0
 15 16  1  0  0  0  0
 16 22  1  0  0  0  0
 16 17  2  0  0  0  0
 17 18  1  0  0  0  0
 17 36  1  0  0  0  0
 18 19  2  0  0  0  0
 18 37  1  0  0  0  0
 19 20  1  0  0  0  0
 19 21  1  0  0  0  0
 21 22  2  0  0  0  0
 21 38  1  0  0  0  0
 22 39  1  0  0  0  0
M  END
> <s_m_source_file>
AV-unprocessed.smi

> <i_m_source_file_index>
2669

> <i_lp_mmshare_version>
43012

> <i_f3d_flags>
0

> <s_epik_input>
bjFbY0hdbmMoW05IXVtDSDNdKWMoYzEyKW4oW2NIXW4yKVtDSDJdW0NASF0oW09IXSlbQ0gyXU9jM1tjSF1bY0hdYyhDbClbY0hdW2NIXTM=

> <s_epik_cmdline>
J2VwaWtfcHl0aG9uJywgJy1waCcsICc3LjAnLCAnLXRuJywgJzgnLCAnLW1hJywgJzIwMCcsICctbWV0YWxfYmluZGluZycsICctaW1hZScsICc8aW5maWxlLm1hZT4nLCAnLW9tYWUnLCAnPG91dGZpbGUubWFlPic=

> <r_lp_tautomer_probability>
1

> <r_epik_Ionization_Penalty>
0.00733592

> <r_epik_Ionization_Penalty_Charging>
0

> <r_epik_Ionization_Penalty_Neutral>
0.00733592

> <r_epik_State_Penalty>
-0

> <r_epik_Charging_Adjusted_Penalty>
0

> <i_epik_Tot_Q>
0

> <i_epik_Tot_abs_Q>
0

> <r_epik_Metal_State_Penalty>
-0

> <b_epik_Metal_Only>
0

> <s_lp_Force_Field>
OPLS_2005

> <r_lp_Energy>
12.7517

> <b_lp_Chiralities_Consistent>
1

> <s_lp_Variant>
AV-unprocessed.smi:2669-1

> <Gold.Version>
5.8.1

> <Gold.Id.Protein>
6NUR|6NUR_protein|mol2

> <Gold.PLP.Fitness>
46.6430

> <Gold.PLP.PLP>
-39.1746

> <Gold.PLP.part.hbond>
-4.6502

> <Gold.PLP.part.metal>
0.0000

> <Gold.PLP.part.buried>
-2.3469

> <Gold.PLP.part.nonpolar>
-32.3676

> <Gold.PLP.part.repulsive>
0.2135

> <Gold.PLP.ligand.clash>
0.0000

> <Gold.PLP.ligand.torsion>
0.7984

> <Gold.PLP.Chemscore.Hbond>
2.0172

> <Gold.PLP.Chemscore.CHOScore>
0.9967

> <Gold.PLP.Chemscore.Metal>
0.0000

> <Gold.Chemscore.Hbonds>
donor molecule, donor type, donor heavy atom, donor atom, acceptor molecule, acceptor atom, score
      L1  H    13    33       P1  7957  0.94
      P1  H 10752 10764       L1     8  1.00
      L1  C     9    29       P1  7949  1.00

> <Gold.PLP.Chemscore.Internal.Correction>
0.0237

> <Gold.Rescore>
     Score         DG    S(hbond)    S(metal)    S(lipo)     H(rot)  DE(clash)    DE(int)     intcor
     12.39     -13.58       1.67        0.00      86.48       2.97       0.52       0.66       ----

> <Gold.Chemscore.Fitness>
12.3921

> <Gold.Chemscore.DG>
-13.5754

> <Gold.Chemscore.ZeroCoef>
-5.4800

> <Gold.Chemscore.Hbond>
1.6742

> <Gold.Chemscore.Metal>
0.0000

> <Gold.Chemscore.Lipo>
86.4848

> <Gold.Chemscore.Internal_Hbond>
0.0000

> <Gold.Chemscore.DEClash>
0.5214

> <Gold.Chemscore.DEInternal>
0.6619

> <Gold.Chemscore.Rot>
2.9746

> <Gold.Chemscore.Internal.Correction>
   9.000000E+99

> <Gold.Chemscore.Hbonds>
donor molecule, donor type, donor heavy atom, donor atom, acceptor molecule, acceptor atom, score
      L1  H    13    33       P1  7957  0.88
      P1  H 10752 10764       L1     8  0.30

> <Gold.Chemscore.Hbond.Weighted>
-5.5917

> <Gold.Chemscore.Metal.Weighted>
-0.0000

> <Gold.Chemscore.Lipo.Weighted>
-10.1187

> <Gold.Chemscore.Internal_Hbond.Weighted>
0.0000

> <Gold.Chemscore.DEClash.Weighted>
0.5214

> <Gold.Chemscore.DEInternal.Weighted>
0.6619

> <Gold.Chemscore.Rot.Weighted>
7.6150

> <Gold.Chemscore.Internal.Correction.Weighted>
   9.000000E+99

> <Gold.Protein.RotatedTorsions>
[ 6907 6896 6895 6894 ] final   65.79 input  -60.11 | X-H torsion
[ 7974 7965 7964 7962 ] final  177.49 input  175.53 | X-H torsion
[ 8008 7997 7996 7995 ] final  -48.98 input   59.86 | X-H torsion
[ 10167 10162 10161 10158 ] final  -92.99 input  -65.29 | X-H torsion
[ 10718 10713 10712 10709 ] final   88.77 input   66.30 | X-H torsion
[ 10763 10752 10751 10750 ] final  -54.31 input  -60.55 | X-H torsion
[ 11005 11000 10999 10996 ] final   -2.58 input  -57.11 | X-H torsion

> <Gold.Protein.ActiveResidues>
 VAL166  LYS551  ARG553  GLY616  TRP617  ASP618  TYR619  PRO620  LYS621  CYS622 
 ASP623  PHE694  ASN695  SER759  ASP760  ASP761  ALA762  ILE779  LEU786  VAL792 
 PHE793  MET794  SER795  GLU796  ALA797  LYS798  CYS799  TRP800  GLU811  SER814 

> <Gold.Protein.RotatedAtoms>
  152.4433  134.5546  159.9876 H   0  0  0  0  0  0  0  0  0  0  0  0  # atno 6907 bound_to 6896
  151.5637  133.3394  159.2984 H   0  0  0  0  0  0  0  0  0  0  0  0  # atno 6908 bound_to 6896
  150.8344  134.7644  159.6944 H   0  0  0  0  0  0  0  0  0  0  0  0  # atno 6909 bound_to 6896
  144.7168  140.0255  143.6439 H   0  0  0  0  0  0  0  0  0  0  0  0  # atno 7974 bound_to 7965
  154.4037  140.1308  156.4428 H   0  0  0  0  0  0  0  0  0  0  0  0  # atno 8008 bound_to 7997
  155.7442  140.3489  155.5099 H   0  0  0  0  0  0  0  0  0  0  0  0  # atno 8009 bound_to 7997
  155.9010  140.1019  157.1340 H   0  0  0  0  0  0  0  0  0  0  0  0  # atno 8010 bound_to 7997
  140.3292  143.3004  151.9961 H   0  0  0  0  0  0  0  0  0  0  0  0  # atno 10167 bound_to 10162
  157.6951  131.0307  150.3324 H   0  0  0  0  0  0  0  0  0  0  0  0  # atno 10718 bound_to 10713
  154.1728  135.6456  153.5014 H   0  0  0  0  0  0  0  0  0  0  0  0  # atno 10763 bound_to 10752
  153.0080  135.5387  154.6595 H   0  0  0  0  0  0  0  0  0  0  0  0  # atno 10764 bound_to 10752
  154.5939  135.2937  155.0579 H   0  0  0  0  0  0  0  0  0  0  0  0  # atno 10765 bound_to 10752
  140.6599  133.9329  155.8430 H   0  0  0  0  0  0  0  0  0  0  0  0  # atno 11005 bound_to 11000
  146.0145  139.3198  143.0850 LP  0  0  0  0  0  0  0  0  0  0  0  0  # atno 17320 bound_to 7965
  145.8642  140.9458  143.0684 LP  0  0  0  0  0  0  0  0  0  0  0  0  # atno 17321 bound_to 7965
  139.4859  144.6249  151.7185 LP  0  0  0  0  0  0  0  0  0  0  0  0  # atno 17342 bound_to 10162
  140.5413  144.0575  150.6089 LP  0  0  0  0  0  0  0  0  0  0  0  0  # atno 17343 bound_to 10162
  156.3796  130.3878  149.7112 LP  0  0  0  0  0  0  0  0  0  0  0  0  # atno 17370 bound_to 10713
  156.4499  130.7901  151.2923 LP  0  0  0  0  0  0  0  0  0  0  0  0  # atno 17371 bound_to 10713
  141.0473  134.0536  157.3828 LP  0  0  0  0  0  0  0  0  0  0  0  0  # atno 17394 bound_to 11000
  139.9016  135.0166  156.7297 LP  0  0  0  0  0  0  0  0  0  0  0  0  # atno 17395 bound_to 11000

$$$$
