AV-unprocessed.smi:2772|AV-procd|sdf|10666|dock9
  -GOLD-   2272015113D 1   1.00000     0.00000
 Structure written by MMmdl.
 55 57  0  0  0  0  0  0  0  0  3 V2000
  152.2180  144.5270  160.5649 C   0  0  0  0  0  0  0  0  0  0  0  0
  151.7591  143.5014  159.5493 C   0  0  0  0  0  0  0  0  0  0  0  0
  152.4847  142.3105  159.3411 C   0  0  0  0  0  0  0  0  0  0  0  0
  152.0060  141.3922  158.3871 C   0  0  0  0  0  0  0  0  0  0  0  0
  150.8312  141.6962  157.6689 C   0  0  0  0  0  0  0  0  0  0  0  0
  150.3510  140.7429  156.7307 N   0  0  0  0  0  0  0  0  0  0  0  0
  149.1012  140.6045  156.2558 C   0  0  0  0  0  0  0  0  0  0  0  0
  148.1628  141.3617  156.5026 O   0  0  0  0  0  0  0  0  0  0  0  0
  149.0025  139.5389  155.4469 N   0  0  0  0  0  0  0  0  0  0  0  0
  147.7881  139.1069  154.7580 C   0  0  2  0  0  0  0  0  0  0  0  0
  147.4696  137.6489  155.1004 C   0  0  0  0  0  0  0  0  0  0  0  0
  146.2247  137.1614  154.3404 C   0  0  0  0  0  0  0  0  0  0  0  0
  146.3614  137.3103  152.8597 N   0  3  1  0  0  0  0  0  0  0  0  0
  145.1760  136.7821  152.0976 C   0  0  2  0  0  0  0  0  0  0  0  0
  144.2392  135.8776  152.9381 C   0  0  0  0  0  0  0  0  0  0  0  0
  144.9126  134.5442  153.3126 C   0  0  0  0  0  0  0  0  0  0  0  0
  145.3396  133.8053  152.0979 N   0  3  2  0  0  0  0  0  0  0  0  0
  145.9159  132.4809  152.4146 C   0  0  0  0  0  0  0  0  0  0  0  0
  146.2260  134.6166  151.2264 C   0  0  0  0  0  0  0  0  0  0  0  0
  145.5554  135.9499  150.8467 C   0  0  0  0  0  0  0  0  0  0  0  0
  146.7101  138.7189  152.5018 C   0  0  0  0  0  0  0  0  0  0  0  0
  147.9605  139.2240  153.2410 C   0  0  0  0  0  0  0  0  0  0  0  0
  150.1745  142.9168  157.9634 C   0  0  0  0  0  0  0  0  0  0  0  0
  150.6261  143.8010  158.8786 N   0  0  0  0  0  0  0  0  0  0  0  0
  153.1235  144.2001  161.0767 H   0  0  0  0  0  0  0  0  0  0  0  0
  151.4436  144.6895  161.3152 H   0  0  0  0  0  0  0  0  0  0  0  0
  152.4280  145.4781  160.0750 H   0  0  0  0  0  0  0  0  0  0  0  0
  153.3850  142.1009  159.8998 H   0  0  0  0  0  0  0  0  0  0  0  0
  152.5381  140.4690  158.2096 H   0  0  0  0  0  0  0  0  0  0  0  0
  151.0467  140.1150  156.3555 H   0  0  0  0  0  0  0  0  0  0  0  0
  149.8318  138.9814  155.3016 H   0  0  0  0  0  0  0  0  0  0  0  0
  146.9384  139.7222  155.0601 H   0  0  0  0  0  0  0  0  0  0  0  0
  148.3200  137.0108  154.8546 H   0  0  0  0  0  0  0  0  0  0  0  0
  147.3062  137.5461  156.1739 H   0  0  0  0  0  0  0  0  0  0  0  0
  146.0873  136.1192  154.6181 H   0  0  0  0  0  0  0  0  0  0  0  0
  145.3414  137.7042  154.6810 H   0  0  0  0  0  0  0  0  0  0  0  0
  144.6011  137.6485  151.7667 H   0  0  0  0  0  0  0  0  0  0  0  0
  143.8492  136.3783  153.8220 H   0  0  0  0  0  0  0  0  0  0  0  0
  143.3492  135.6553  152.3473 H   0  0  0  0  0  0  0  0  0  0  0  0
  145.7728  134.7208  153.9603 H   0  0  0  0  0  0  0  0  0  0  0  0
  144.2113  133.9301  153.8791 H   0  0  0  0  0  0  0  0  0  0  0  0
  146.8357  132.5809  152.9923 H   0  0  0  0  0  0  0  0  0  0  0  0
  146.1435  131.9320  151.5002 H   0  0  0  0  0  0  0  0  0  0  0  0
  145.2113  131.8824  152.9930 H   0  0  0  0  0  0  0  0  0  0  0  0
  147.1760  134.7987  151.7313 H   0  0  0  0  0  0  0  0  0  0  0  0
  146.4526  134.0532  150.3203 H   0  0  0  0  0  0  0  0  0  0  0  0
  144.6449  135.7263  150.2887 H   0  0  0  0  0  0  0  0  0  0  0  0
  146.1682  136.5046  150.1393 H   0  0  0  0  0  0  0  0  0  0  0  0
  146.9243  138.8118  151.4398 H   0  0  0  0  0  0  0  0  0  0  0  0
  145.8607  139.3699  152.7157 H   0  0  0  0  0  0  0  0  0  0  0  0
  148.1534  140.2623  152.9670 H   0  0  0  0  0  0  0  0  0  0  0  0
  148.8314  138.6520  152.9169 H   0  0  0  0  0  0  0  0  0  0  0  0
  149.2504  143.1973  157.4826 H   0  0  0  0  0  0  0  0  0  0  0  0
  147.1548  136.7460  152.5918 H   0  0  0  0  0  0  0  0  0  0  0  0
  144.5006  133.6265  151.5638 H   0  0  0  0  0  0  0  0  0  0  0  0
  1  2  1  0  0  0  0
  1 25  1  0  0  0  0
  1 26  1  0  0  0  0
  1 27  1  0  0  0  0
  2 24  1  0  0  0  0
  2  3  2  0  0  0  0
  3  4  1  0  0  0  0
  3 28  1  0  0  0  0
  4  5  2  0  0  0  0
  4 29  1  0  0  0  0
  5  6  1  0  0  0  0
  5 23  1  0  0  0  0
  6  7  1  0  0  0  0
  6 30  1  0  0  0  0
  7  8  2  0  0  0  0
  7  9  1  0  0  0  0
  9 10  1  0  0  0  0
  9 31  1  0  0  0  0
 10 22  1  0  0  0  0
 10 11  1  0  0  0  0
 10 32  1  0  0  0  0
 11 12  1  0  0  0  0
 11 33  1  0  0  0  0
 11 34  1  0  0  0  0
 12 13  1  0  0  0  0
 12 35  1  0  0  0  0
 12 36  1  0  0  0  0
 13 14  1  0  0  0  0
 13 21  1  0  0  0  0
 13 54  1  0  0  0  0
 14 20  1  0  0  0  0
 14 15  1  0  0  0  0
 14 37  1  0  0  0  0
 15 16  1  0  0  0  0
 15 38  1  0  0  0  0
 15 39  1  0  0  0  0
 16 17  1  0  0  0  0
 16 40  1  0  0  0  0
 16 41  1  0  0  0  0
 17 18  1  0  0  0  0
 17 19  1  0  0  0  0
 17 55  1  0  0  0  0
 18 42  1  0  0  0  0
 18 43  1  0  0  0  0
 18 44  1  0  0  0  0
 19 20  1  0  0  0  0
 19 45  1  0  0  0  0
 19 46  1  0  0  0  0
 20 47  1  0  0  0  0
 20 48  1  0  0  0  0
 21 22  1  0  0  0  0
 21 49  1  0  0  0  0
 21 50  1  0  0  0  0
 22 51  1  0  0  0  0
 22 52  1  0  0  0  0
 23 24  2  0  0  0  0
 23 53  1  0  0  0  0
M  CHG  1  13   1
M  CHG  1  17   1
M  END
> <s_m_source_file>
AV-unprocessed.smi

> <i_m_source_file_index>
2772

> <i_lp_mmshare_version>
43012

> <i_f3d_flags>
0

> <s_epik_input>
W0NIM11jMVtjSF1bY0hdYyhbY0hdbjEpW05IXUMoPU8pW05IXVtDSF0yW0NIMl1bQ0gyXU4oW0NIMl1bQ0gyXTIpW0NIXTNbQ0gyXVtDSDJdTihbQ0gzXSlbQ0gyXVtDSDJdMw==

> <s_epik_cmdline>
J2VwaWtfcHl0aG9uJywgJy1waCcsICc3LjAnLCAnLXRuJywgJzgnLCAnLW1hJywgJzIwMCcsICctbWV0YWxfYmluZGluZycsICctaW1hZScsICc8aW5maWxlLm1hZT4nLCAnLW9tYWUnLCAnPG91dGZpbGUubWFlPic=

> <r_epik_Ionization_Penalty>
0.196786

> <r_epik_Ionization_Penalty_Charging>
0.180787

> <r_epik_Ionization_Penalty_Neutral>
0.0159988

> <r_epik_State_Penalty>
0.163322

> <r_epik_Charging_Adjusted_Penalty>
0.344109

> <i_epik_Tot_Q>
2

> <i_epik_Tot_abs_Q>
2

> <r_epik_Metal_State_Penalty>
0.163596

> <b_epik_Metal_Only>
0

> <s_lp_Force_Field>
OPLS_2005

> <r_lp_Energy>
49.2909

> <b_lp_Chiralities_Consistent>
1

> <s_lp_Variant>
AV-unprocessed.smi:2772-3

> <Gold.Version>
5.8.1

> <Gold.Id.Protein>
6NUR|6NUR_protein|mol2

> <Gold.PLP.Fitness>
37.8846

> <Gold.PLP.PLP>
-31.4280

> <Gold.PLP.part.hbond>
-1.0000

> <Gold.PLP.part.metal>
0.0000

> <Gold.PLP.part.buried>
-1.8762

> <Gold.PLP.part.nonpolar>
-28.4261

> <Gold.PLP.part.repulsive>
0.2949

> <Gold.PLP.ligand.clash>
0.0369

> <Gold.PLP.ligand.torsion>
1.2668

> <Gold.PLP.Chemscore.Hbond>
2.0000

> <Gold.PLP.Chemscore.CHOScore>
0.9996

> <Gold.PLP.Chemscore.Metal>
0.0000

> <Gold.Chemscore.Hbonds>
donor molecule, donor type, donor heavy atom, donor atom, acceptor molecule, acceptor atom, score
      L1  H    13    54       P1  7948  2.00
      L1  C    23    53       P1  8028  0.99

> <Gold.PLP.Chemscore.Internal.Correction>
0.0281

> <Gold.Rescore>
     Score         DG    S(hbond)    S(metal)    S(lipo)     H(rot)  DE(clash)    DE(int)     intcor
     14.37     -18.28       0.99        0.00     107.50       1.21       1.51       2.40       ----

> <Gold.Chemscore.Fitness>
14.3709

> <Gold.Chemscore.DG>
-18.2797

> <Gold.Chemscore.ZeroCoef>
-5.4800

> <Gold.Chemscore.Hbond>
0.9932

> <Gold.Chemscore.Metal>
0.0000

> <Gold.Chemscore.Lipo>
107.5043

> <Gold.Chemscore.Internal_Hbond>
0.0000

> <Gold.Chemscore.DEClash>
1.5080

> <Gold.Chemscore.DEInternal>
2.4007

> <Gold.Chemscore.Rot>
1.2092

> <Gold.Chemscore.Internal.Correction>
   9.000000E+99

> <Gold.Chemscore.Hbonds>
donor molecule, donor type, donor heavy atom, donor atom, acceptor molecule, acceptor atom, score
      L1  H    13    54       P1  7948  0.96

> <Gold.Chemscore.Hbond.Weighted>
-3.3172

> <Gold.Chemscore.Metal.Weighted>
-0.0000

> <Gold.Chemscore.Lipo.Weighted>
-12.5780

> <Gold.Chemscore.Internal_Hbond.Weighted>
0.0000

> <Gold.Chemscore.DEClash.Weighted>
1.5080

> <Gold.Chemscore.DEInternal.Weighted>
2.4007

> <Gold.Chemscore.Rot.Weighted>
3.0955

> <Gold.Chemscore.Internal.Correction.Weighted>
   9.000000E+99

> <Gold.Protein.RotatedTorsions>
[ 6907 6896 6895 6894 ] final -163.09 input  -60.11 | X-H torsion
[ 7974 7965 7964 7962 ] final   -3.02 input  175.53 | X-H torsion
[ 8008 7997 7996 7995 ] final  -86.92 input   59.86 | X-H torsion
[ 10167 10162 10161 10158 ] final  -31.46 input  -65.29 | X-H torsion
[ 10718 10713 10712 10709 ] final   -6.00 input   66.30 | X-H torsion
[ 10763 10752 10751 10750 ] final  157.86 input  -60.55 | X-H torsion
[ 11005 11000 10999 10996 ] final  -10.35 input  -57.11 | X-H torsion

> <Gold.Protein.ActiveResidues>
 VAL166  LYS551  ARG553  GLY616  TRP617  ASP618  TYR619  PRO620  LYS621  CYS622 
 ASP623  PHE694  ASN695  SER759  ASP760  ASP761  ALA762  ILE779  LEU786  VAL792 
 PHE793  MET794  SER795  GLU796  ALA797  LYS798  CYS799  TRP800  GLU811  SER814 

> <Gold.Protein.RotatedAtoms>
  151.3906  133.3790  159.2720 H   0  0  0  0  0  0  0  0  0  0  0  0  # atno 6907 bound_to 6896
  150.9508  134.8909  159.7681 H   0  0  0  0  0  0  0  0  0  0  0  0  # atno 6908 bound_to 6896
  152.5111  134.3861  159.9420 H   0  0  0  0  0  0  0  0  0  0  0  0  # atno 6909 bound_to 6896
  146.2396  140.1658  142.8332 H   0  0  0  0  0  0  0  0  0  0  0  0  # atno 7974 bound_to 7965
  154.6573  140.0572  157.0023 H   0  0  0  0  0  0  0  0  0  0  0  0  # atno 8008 bound_to 7997
  155.1280  140.3254  155.4462 H   0  0  0  0  0  0  0  0  0  0  0  0  # atno 8009 bound_to 7997
  156.2603  140.1986  156.6400 H   0  0  0  0  0  0  0  0  0  0  0  0  # atno 8010 bound_to 7997
  140.7236  143.3769  151.1673 H   0  0  0  0  0  0  0  0  0  0  0  0  # atno 10167 bound_to 10162
  156.7383  130.5202  149.5830 H   0  0  0  0  0  0  0  0  0  0  0  0  # atno 10718 bound_to 10713
  154.2069  135.2788  155.2972 H   0  0  0  0  0  0  0  0  0  0  0  0  # atno 10763 bound_to 10752
  154.5810  135.5589  153.7188 H   0  0  0  0  0  0  0  0  0  0  0  0  # atno 10764 bound_to 10752
  153.0074  135.6344  154.2208 H   0  0  0  0  0  0  0  0  0  0  0  0  # atno 10765 bound_to 10752
  140.7438  133.8648  155.8989 H   0  0  0  0  0  0  0  0  0  0  0  0  # atno 11005 bound_to 11000
  145.0052  140.8666  143.5258 LP  0  0  0  0  0  0  0  0  0  0  0  0  # atno 17320 bound_to 7965
  145.1684  139.2418  143.5355 LP  0  0  0  0  0  0  0  0  0  0  0  0  # atno 17321 bound_to 7965
  139.7351  143.9012  152.3032 LP  0  0  0  0  0  0  0  0  0  0  0  0  # atno 17342 bound_to 10162
  139.8814  144.7015  150.8874 LP  0  0  0  0  0  0  0  0  0  0  0  0  # atno 17343 bound_to 10162
  156.1482  130.6291  151.0559 LP  0  0  0  0  0  0  0  0  0  0  0  0  # atno 17370 bound_to 10713
  157.6829  131.0833  150.7321 LP  0  0  0  0  0  0  0  0  0  0  0  0  # atno 17371 bound_to 10713
  140.9813  134.1402  157.4492 LP  0  0  0  0  0  0  0  0  0  0  0  0  # atno 17394 bound_to 11000
  139.8801  135.0011  156.6049 LP  0  0  0  0  0  0  0  0  0  0  0  0  # atno 17395 bound_to 11000

$$$$
