AV-unprocessed.smi:3105|AV-procd|sdf|11822|dock7
  -GOLD-   2272017193D 1   1.00000     0.00000
 Structure written by MMmdl.
 34 34  0  0  0  0  0  0  0  0  2 V2000
  149.9330  143.9553  159.0109 C   0  0  0  0  0  0  0  0  0  0  0  0
  150.9040  142.9627  158.3446 C   0  0  1  0  0  0  0  0  0  0  0  0
  150.6844  142.9535  156.8794 N   0  3  0  0  0  0  0  0  0  0  0  0
  150.6365  141.6139  156.2530 C   0  0  0  0  0  0  0  0  0  0  0  0
  149.3602  141.4166  155.4112 C   0  0  0  0  0  0  0  0  0  0  0  0
  149.4709  140.3379  154.3238 C   0  0  0  0  0  0  0  0  0  0  0  0
  148.4188  140.1963  153.5149 N   0  0  0  0  0  0  0  0  0  0  0  0
  150.4809  139.6460  154.2054 O   0  0  0  0  0  0  0  0  0  0  0  0
  152.3917  143.2860  158.6518 C   0  0  1  0  0  0  0  0  0  0  0  0
  152.7927  144.7230  158.2692 C   0  0  0  0  0  0  0  0  0  0  0  0
  152.7151  143.0466  160.0547 N   0  0  0  0  0  0  0  0  0  0  0  0
  152.2274  143.7033  161.1660 C   0  0  0  0  0  0  0  0  0  0  0  0
  152.8092  143.1373  162.2638 C   0  0  0  0  0  0  0  0  0  0  0  0
  153.6427  142.1214  161.7193 C   0  0  0  0  0  0  0  0  0  0  0  0
  153.5821  142.0671  160.3989 N   0  0  0  0  0  0  0  0  0  0  0  0
  150.0037  143.9196  160.0976 H   0  0  0  0  0  0  0  0  0  0  0  0
  148.8960  143.7320  158.7602 H   0  0  0  0  0  0  0  0  0  0  0  0
  150.1354  144.9797  158.6968 H   0  0  0  0  0  0  0  0  0  0  0  0
  150.6900  141.9638  158.7284 H   0  0  0  0  0  0  0  0  0  0  0  0
  149.8416  143.4656  156.6631 H   0  0  0  0  0  0  0  0  0  0  0  0
  151.5179  141.4711  155.6258 H   0  0  0  0  0  0  0  0  0  0  0  0
  150.6771  140.8515  157.0308 H   0  0  0  0  0  0  0  0  0  0  0  0
  148.5413  141.1423  156.0777 H   0  0  0  0  0  0  0  0  0  0  0  0
  149.0724  142.3587  154.9432 H   0  0  0  0  0  0  0  0  0  0  0  0
  148.4335  139.5051  152.7785 H   0  0  0  0  0  0  0  0  0  0  0  0
  147.6077  140.7853  153.6400 H   0  0  0  0  0  0  0  0  0  0  0  0
  153.0125  142.6058  158.0662 H   0  0  0  0  0  0  0  0  0  0  0  0
  152.7249  144.8901  157.1947 H   0  0  0  0  0  0  0  0  0  0  0  0
  153.8239  144.9294  158.5576 H   0  0  0  0  0  0  0  0  0  0  0  0
  152.1582  145.4597  158.7629 H   0  0  0  0  0  0  0  0  0  0  0  0
  151.5163  144.5124  161.0851 H   0  0  0  0  0  0  0  0  0  0  0  0
  152.6598  143.4059  163.2991 H   0  0  0  0  0  0  0  0  0  0  0  0
  154.2850  141.4267  162.2402 H   0  0  0  0  0  0  0  0  0  0  0  0
  151.4684  143.4350  156.4608 H   0  0  0  0  0  0  0  0  0  0  0  0
  1  2  1  0  0  0  0
  1 16  1  0  0  0  0
  1 17  1  0  0  0  0
  1 18  1  0  0  0  0
  2  3  1  0  0  0  0
  2  9  1  0  0  0  0
  2 19  1  0  0  0  0
  3  4  1  0  0  0  0
  3 20  1  0  0  0  0
  3 34  1  0  0  0  0
  4  5  1  0  0  0  0
  4 21  1  0  0  0  0
  4 22  1  0  0  0  0
  5  6  1  0  0  0  0
  5 23  1  0  0  0  0
  5 24  1  0  0  0  0
  6  7  1  0  0  0  0
  6  8  2  0  0  0  0
  7 25  1  0  0  0  0
  7 26  1  0  0  0  0
  9 10  1  0  0  0  0
  9 11  1  0  0  0  0
  9 27  1  0  0  0  0
 10 28  1  0  0  0  0
 10 29  1  0  0  0  0
 10 30  1  0  0  0  0
 11 15  1  0  0  0  0
 11 12  1  0  0  0  0
 12 13  2  0  0  0  0
 12 31  1  0  0  0  0
 13 14  1  0  0  0  0
 13 32  1  0  0  0  0
 14 15  2  0  0  0  0
 14 33  1  0  0  0  0
M  CHG  1   3   1
M  END
> <s_m_source_file>
AV-unprocessed.smi

> <i_m_source_file_index>
3105

> <i_lp_mmshare_version>
43012

> <i_f3d_flags>
0

> <s_epik_input>
W05IMl1DKD1PKVtDSDJdW0NIMl1bTkhdW0NAQEhdKFtDSDNdKVtDQEhdKFtDSDNdKW4xW2NIXVtjSF1bY0hdbjE=

> <s_epik_cmdline>
J2VwaWtfcHl0aG9uJywgJy1waCcsICc3LjAnLCAnLXRuJywgJzgnLCAnLW1hJywgJzIwMCcsICctbWV0YWxfYmluZGluZycsICctaW1hZScsICc8aW5maWxlLm1hZT4nLCAnLW9tYWUnLCAnPG91dGZpbGUubWFlPic=

> <r_lp_tautomer_probability>
1

> <r_epik_Ionization_Penalty>
0.00475669

> <r_epik_Ionization_Penalty_Charging>
0.00474654

> <r_epik_Ionization_Penalty_Neutral>
1.01546e-05

> <r_epik_State_Penalty>
-0

> <r_epik_Charging_Adjusted_Penalty>
0.00474654

> <i_epik_Tot_Q>
1

> <i_epik_Tot_abs_Q>
1

> <r_epik_Metal_State_Penalty>
-0

> <b_epik_Metal_Only>
0

> <s_lp_Force_Field>
OPLS_2005

> <r_lp_Energy>
4.89455

> <b_lp_Chiralities_Consistent>
1

> <s_lp_Variant>
AV-unprocessed.smi:3105-4

> <Gold.Version>
5.8.1

> <Gold.Id.Protein>
6NUR|6NUR_protein|mol2

> <Gold.PLP.Fitness>
49.6821

> <Gold.PLP.PLP>
-42.0065

> <Gold.PLP.part.hbond>
-3.0000

> <Gold.PLP.part.metal>
0.0000

> <Gold.PLP.part.buried>
-4.8531

> <Gold.PLP.part.nonpolar>
-33.6655

> <Gold.PLP.part.repulsive>
0.3167

> <Gold.PLP.ligand.clash>
0.0000

> <Gold.PLP.ligand.torsion>
1.2058

> <Gold.PLP.Chemscore.Hbond>
3.3200

> <Gold.PLP.Chemscore.CHOScore>
0.0000

> <Gold.PLP.Chemscore.Metal>
0.0000

> <Gold.Chemscore.Hbonds>
donor molecule, donor type, donor heavy atom, donor atom, acceptor molecule, acceptor atom, score
      L1  H     3    20       P1  8028  2.00
      L1  H     7    25       P1  7957  0.27
      P1  H  7989  7998       L1     8  1.00

> <Gold.PLP.Chemscore.Internal.Correction>
0.1272

> <Gold.Rescore>
     Score         DG    S(hbond)    S(metal)    S(lipo)     H(rot)  DE(clash)    DE(int)     intcor
     15.16     -16.51       2.26        0.00      92.01       2.85       0.13       1.23       ----

> <Gold.Chemscore.Fitness>
15.1556

> <Gold.Chemscore.DG>
-16.5075

> <Gold.Chemscore.ZeroCoef>
-5.4800

> <Gold.Chemscore.Hbond>
2.2611

> <Gold.Chemscore.Metal>
0.0000

> <Gold.Chemscore.Lipo>
92.0062

> <Gold.Chemscore.Internal_Hbond>
0.0000

> <Gold.Chemscore.DEClash>
0.1251

> <Gold.Chemscore.DEInternal>
1.2267

> <Gold.Chemscore.Rot>
2.8473

> <Gold.Chemscore.Internal.Correction>
   9.000000E+99

> <Gold.Chemscore.Hbonds>
donor molecule, donor type, donor heavy atom, donor atom, acceptor molecule, acceptor atom, score
      L1  H     3    20       P1  8028  0.96
      L1  H     7    25       P1  7957  0.25
      P1  H  7989  7998       L1     8  0.26

> <Gold.Chemscore.Hbond.Weighted>
-7.5520

> <Gold.Chemscore.Metal.Weighted>
-0.0000

> <Gold.Chemscore.Lipo.Weighted>
-10.7647

> <Gold.Chemscore.Internal_Hbond.Weighted>
0.0000

> <Gold.Chemscore.DEClash.Weighted>
0.1251

> <Gold.Chemscore.DEInternal.Weighted>
1.2267

> <Gold.Chemscore.Rot.Weighted>
7.2892

> <Gold.Chemscore.Internal.Correction.Weighted>
   9.000000E+99

> <Gold.Protein.RotatedTorsions>
[ 6907 6896 6895 6894 ] final  -76.01 input  -60.11 | X-H torsion
[ 7974 7965 7964 7962 ] final  125.02 input  175.53 | X-H torsion
[ 8008 7997 7996 7995 ] final  -58.26 input   59.86 | X-H torsion
[ 10167 10162 10161 10158 ] final -165.17 input  -65.29 | X-H torsion
[ 10718 10713 10712 10709 ] final -169.49 input   66.30 | X-H torsion
[ 10763 10752 10751 10750 ] final -172.67 input  -60.55 | X-H torsion
[ 11005 11000 10999 10996 ] final  169.74 input  -57.11 | X-H torsion

> <Gold.Protein.ActiveResidues>
 VAL166  LYS551  ARG553  GLY616  TRP617  ASP618  TYR619  PRO620  LYS621  CYS622 
 ASP623  PHE694  ASN695  SER759  ASP760  ASP761  ALA762  ILE779  LEU786  VAL792 
 PHE793  MET794  SER795  GLU796  ALA797  LYS798  CYS799  TRP800  GLU811  SER814 

> <Gold.Protein.RotatedAtoms>
  150.7041  134.4636  159.5392 H   0  0  0  0  0  0  0  0  0  0  0  0  # atno 6907 bound_to 6896
  152.2306  134.8323  160.0483 H   0  0  0  0  0  0  0  0  0  0  0  0  # atno 6908 bound_to 6896
  151.9140  133.3533  159.3910 H   0  0  0  0  0  0  0  0  0  0  0  0  # atno 6909 bound_to 6896
  145.0778  139.3680  143.4925 H   0  0  0  0  0  0  0  0  0  0  0  0  # atno 7974 bound_to 7965
  154.4301  140.1088  156.5928 H   0  0  0  0  0  0  0  0  0  0  0  0  # atno 8008 bound_to 7997
  155.5994  140.3493  155.4570 H   0  0  0  0  0  0  0  0  0  0  0  0  # atno 8009 bound_to 7997
  156.0185  140.1234  157.0371 H   0  0  0  0  0  0  0  0  0  0  0  0  # atno 8010 bound_to 7997
  139.6200  144.0643  152.1924 H   0  0  0  0  0  0  0  0  0  0  0  0  # atno 10167 bound_to 10162
  156.7123  130.9238  151.3090 H   0  0  0  0  0  0  0  0  0  0  0  0  # atno 10718 bound_to 10713
  154.6166  135.2870  155.0373 H   0  0  0  0  0  0  0  0  0  0  0  0  # atno 10763 bound_to 10752
  154.1583  135.6492  153.4983 H   0  0  0  0  0  0  0  0  0  0  0  0  # atno 10764 bound_to 10752
  153.0218  135.5372  154.6940 H   0  0  0  0  0  0  0  0  0  0  0  0  # atno 10765 bound_to 10752
  140.3010  134.7595  157.3916 H   0  0  0  0  0  0  0  0  0  0  0  0  # atno 11005 bound_to 11000
  146.3530  140.0553  142.8633 LP  0  0  0  0  0  0  0  0  0  0  0  0  # atno 17320 bound_to 7965
  145.1215  140.9465  143.4597 LP  0  0  0  0  0  0  0  0  0  0  0  0  # atno 17321 bound_to 7965
  140.0283  144.6100  150.7509 LP  0  0  0  0  0  0  0  0  0  0  0  0  # atno 17342 bound_to 10162
  140.7376  143.2767  151.3720 LP  0  0  0  0  0  0  0  0  0  0  0  0  # atno 17343 bound_to 10162
  157.6931  130.9254  150.0569 LP  0  0  0  0  0  0  0  0  0  0  0  0  # atno 17370 bound_to 10713
  156.1652  130.3645  149.9242 LP  0  0  0  0  0  0  0  0  0  0  0  0  # atno 17371 bound_to 10713
  140.1109  134.5346  155.8267 LP  0  0  0  0  0  0  0  0  0  0  0  0  # atno 17394 bound_to 11000
  141.2128  133.6724  156.6688 LP  0  0  0  0  0  0  0  0  0  0  0  0  # atno 17395 bound_to 11000

$$$$
