AV-unprocessed.smi:109|AV-procd|sdf|1032|dock10
  -GOLD-   2262018 43D 1   1.00000     0.00000
 Structure written by MMmdl.
 58 61  0  0  0  0  0  0  0  0  1 V2000
  153.0835  139.7032  154.7371 O   0  0  0  0  0  0  0  0  0  0  0  0
  152.2290  139.4883  155.8393 C   0  0  0  0  0  0  0  0  0  0  0  0
  151.1090  140.5407  155.8451 C   0  0  0  0  0  0  0  0  0  0  0  0
  150.3219  140.5718  157.1704 C   0  0  1  0  0  0  0  0  0  0  0  0
  150.2480  139.2288  157.7498 N   0  0  0  0  0  0  0  0  0  0  0  0
  149.5149  138.2370  157.1957 C   0  0  0  0  0  0  0  0  0  0  0  0
  149.7342  137.8124  155.9243 N   0  0  0  0  0  0  0  0  0  0  0  0
  148.9954  136.8247  155.4107 C   0  0  0  0  0  0  0  0  0  0  0  0
  148.0062  136.1382  155.9857 N   0  0  0  0  0  0  0  0  0  0  0  0
  147.7771  136.5621  157.2623 C   0  0  0  0  0  0  0  0  0  0  0  0
  148.4841  137.5990  157.9332 C   0  0  0  0  0  0  0  0  0  0  0  0
  147.9817  137.7554  159.2180 N   0  0  0  0  0  0  0  0  0  0  0  0
  147.0353  136.8592  159.2986 C   0  0  0  0  0  0  0  0  0  0  0  0
  146.8429  136.0985  158.1665 N   0  0  0  0  0  0  0  0  0  0  0  0
  145.8461  135.0033  157.9648 C   0  0  2  0  0  0  0  0  0  0  0  0
  146.5417  133.8368  157.6473 O   0  0  0  0  0  0  0  0  0  0  0  0
  145.8656  133.1441  156.6043 C   0  0  2  0  0  0  0  0  0  0  0  0
  146.8572  132.2426  155.8539 C   0  0  0  0  0  0  0  0  0  0  0  0
  146.2201  131.6408  154.7475 O   0  0  0  0  0  0  0  0  0  0  0  0
  145.3148  134.2892  155.7525 C   0  0  1  0  0  0  0  0  0  0  0  0
  144.2570  133.8909  154.8998 O   0  0  0  0  0  0  0  0  0  0  0  0
  144.8985  135.3235  156.7964 C   0  0  1  0  0  0  0  0  0  0  0  0
  143.5469  135.1703  157.1927 O   0  0  0  0  0  0  0  0  0  0  0  0
  150.8943  141.5915  158.1869 C   0  0  0  0  0  0  0  0  0  0  0  0
  151.0433  143.0251  157.6244 C   0  0  0  0  0  0  0  0  0  0  0  0
  151.5760  143.9980  158.6893 C   0  0  0  0  0  0  0  0  0  0  0  0
  152.9033  143.5044  159.2844 C   0  0  0  0  0  0  0  0  0  0  0  0
  152.7580  142.0862  159.8560 C   0  0  0  0  0  0  0  0  0  0  0  0
  152.2311  141.1095  158.7927 C   0  0  0  0  0  0  0  0  0  0  0  0
  145.3412  134.9054  158.9271 H   0  0  0  0  0  0  0  0  0  0  0  0
  145.0404  132.5669  157.0270 H   0  0  0  0  0  0  0  0  0  0  0  0
  146.1130  134.7015  155.1353 H   0  0  0  0  0  0  0  0  0  0  0  0
  145.0449  136.3426  156.4349 H   0  0  0  0  0  0  0  0  0  0  0  0
  152.5897  139.5630  153.9436 H   0  0  0  0  0  0  0  0  0  0  0  0
  151.8127  138.4825  155.7758 H   0  0  0  0  0  0  0  0  0  0  0  0
  152.8180  139.5404  156.7554 H   0  0  0  0  0  0  0  0  0  0  0  0
  151.5324  141.5235  155.6337 H   0  0  0  0  0  0  0  0  0  0  0  0
  150.4231  140.3196  155.0262 H   0  0  0  0  0  0  0  0  0  0  0  0
  149.3289  140.9368  156.9110 H   0  0  0  0  0  0  0  0  0  0  0  0
  150.7828  139.0955  158.5962 H   0  0  0  0  0  0  0  0  0  0  0  0
  149.2316  136.5433  154.3952 H   0  0  0  0  0  0  0  0  0  0  0  0
  146.4455  136.7286  160.1944 H   0  0  0  0  0  0  0  0  0  0  0  0
  147.6873  132.8364  155.4698 H   0  0  0  0  0  0  0  0  0  0  0  0
  147.2798  131.4817  156.5110 H   0  0  0  0  0  0  0  0  0  0  0  0
  145.2979  131.5643  154.9394 H   0  0  0  0  0  0  0  0  0  0  0  0
  144.1212  132.9614  155.0026 H   0  0  0  0  0  0  0  0  0  0  0  0
  143.0072  135.1484  156.4174 H   0  0  0  0  0  0  0  0  0  0  0  0
  150.1828  141.6441  159.0127 H   0  0  0  0  0  0  0  0  0  0  0  0
  151.7204  143.0258  156.7697 H   0  0  0  0  0  0  0  0  0  0  0  0
  150.0846  143.3929  157.2593 H   0  0  0  0  0  0  0  0  0  0  0  0
  151.7104  144.9884  158.2534 H   0  0  0  0  0  0  0  0  0  0  0  0
  150.8381  144.1086  159.4849 H   0  0  0  0  0  0  0  0  0  0  0  0
  153.6753  143.5114  158.5138 H   0  0  0  0  0  0  0  0  0  0  0  0
  153.2379  144.1883  160.0650 H   0  0  0  0  0  0  0  0  0  0  0  0
  153.7189  141.7385  160.2363 H   0  0  0  0  0  0  0  0  0  0  0  0
  152.0764  142.1030  160.7074 H   0  0  0  0  0  0  0  0  0  0  0  0
  152.1042  140.1219  159.2376 H   0  0  0  0  0  0  0  0  0  0  0  0
  152.9804  140.9983  158.0080 H   0  0  0  0  0  0  0  0  0  0  0  0
  1  2  1  0  0  0  0
  1 34  1  0  0  0  0
  2  3  1  0  0  0  0
  2 35  1  0  0  0  0
  2 36  1  0  0  0  0
  3  4  1  0  0  0  0
  3 37  1  0  0  0  0
  3 38  1  0  0  0  0
  4  5  1  0  0  0  0
  4 24  1  0  0  0  0
  4 39  1  0  0  0  0
  5  6  1  0  0  0  0
  5 40  1  0  0  0  0
  6 11  1  0  0  0  0
  6  7  2  0  0  0  0
  7  8  1  0  0  0  0
  8  9  2  0  0  0  0
  8 41  1  0  0  0  0
  9 10  1  0  0  0  0
 10 14  1  0  0  0  0
 10 11  2  0  0  0  0
 11 12  1  0  0  0  0
 12 13  2  0  0  0  0
 13 14  1  0  0  0  0
 13 42  1  0  0  0  0
 14 15  1  0  0  0  0
 15 30  1  0  0  0  0
 15 22  1  0  0  0  0
 15 16  1  0  0  0  0
 16 17  1  0  0  0  0
 17 31  1  0  0  0  0
 17 18  1  0  0  0  0
 17 20  1  0  0  0  0
 18 19  1  0  0  0  0
 18 43  1  0  0  0  0
 18 44  1  0  0  0  0
 19 45  1  0  0  0  0
 20 32  1  0  0  0  0
 20 21  1  0  0  0  0
 20 22  1  0  0  0  0
 21 46  1  0  0  0  0
 22 33  1  0  0  0  0
 22 23  1  0  0  0  0
 23 47  1  0  0  0  0
 24 29  1  0  0  0  0
 24 25  1  0  0  0  0
 24 48  1  0  0  0  0
 25 26  1  0  0  0  0
 25 49  1  0  0  0  0
 25 50  1  0  0  0  0
 26 27  1  0  0  0  0
 26 51  1  0  0  0  0
 26 52  1  0  0  0  0
 27 28  1  0  0  0  0
 27 53  1  0  0  0  0
 27 54  1  0  0  0  0
 28 29  1  0  0  0  0
 28 55  1  0  0  0  0
 28 56  1  0  0  0  0
 29 57  1  0  0  0  0
 29 58  1  0  0  0  0
M  END
> <s_m_source_file>
AV-unprocessed.smi

> <i_m_source_file_index>
109

> <i_lp_mmshare_version>
43012

> <i_f3d_flags>
0

> <s_epik_input>
W0NIMl0xW0NIMl1bQ0gyXVtDSDJdW0NIMl1bQ0hdMVtDQEhdKFtDSDJdW0NIMl1bT0hdKVtOSF1jKG5bY0hdbjIpYyhjMjMpbltjSF1uM1tDQEBIXTRPW0NASF0oW0NIMl1bT0hdKVtDQEBIXShbT0hdKVtDQEhdNFtPSF0=

> <s_epik_cmdline>
J2VwaWtfcHl0aG9uJywgJy1waCcsICc3LjAnLCAnLXRuJywgJzgnLCAnLW1hJywgJzIwMCcsICctbWV0YWxfYmluZGluZycsICctaW1hZScsICc8aW5maWxlLm1hZT4nLCAnLW9tYWUnLCAnPG91dGZpbGUubWFlPic=

> <r_lp_tautomer_probability>
1

> <r_epik_Ionization_Penalty>
0.000793976

> <r_epik_Ionization_Penalty_Charging>
0

> <r_epik_Ionization_Penalty_Neutral>
0.000793976

> <r_epik_State_Penalty>
-0

> <r_epik_Charging_Adjusted_Penalty>
0

> <i_epik_Tot_Q>
0

> <i_epik_Tot_abs_Q>
0

> <r_epik_Metal_State_Penalty>
-0

> <b_epik_Metal_Only>
0

> <s_epik_Chemistry_Notes>
This compound contains an acetal/aminal-like group ( X-CH(R)-Y where X, Y are N, S, or O) that may be acid/base labile, releasing an aldehyde.

> <s_lp_Force_Field>
OPLS_2005

> <r_lp_Energy>
54.9407

> <b_lp_Chiralities_Consistent>
1

> <s_lp_Variant>
AV-unprocessed.smi:109-2

> <Gold.Version>
5.8.1

> <Gold.Id.Protein>
6NUR|6NUR_protein|mol2

> <Gold.PLP.Fitness>
45.8663

> <Gold.PLP.PLP>
-35.4226

> <Gold.PLP.part.hbond>
-5.2254

> <Gold.PLP.part.metal>
0.0000

> <Gold.PLP.part.buried>
-5.0953

> <Gold.PLP.part.nonpolar>
-26.0254

> <Gold.PLP.part.repulsive>
0.1507

> <Gold.PLP.ligand.clash>
0.0000

> <Gold.PLP.ligand.torsion>
1.1717

> <Gold.PLP.Chemscore.Hbond>
3.2093

> <Gold.PLP.Chemscore.CHOScore>
1.0000

> <Gold.PLP.Chemscore.Metal>
0.0000

> <Gold.Chemscore.Hbonds>
donor molecule, donor type, donor heavy atom, donor atom, acceptor molecule, acceptor atom, score
      L1  H    21    46       P1 10957  0.74
      P1  H  6934  6947       L1    12  0.16
      P1  H  7997  8009       L1     1  1.00
      L1  C     8    41       P1  7948  0.96

> <Gold.PLP.Chemscore.Internal.Correction>
0.1592

> <Gold.Rescore>
     Score         DG    S(hbond)    S(metal)    S(lipo)     H(rot)  DE(clash)    DE(int)     intcor
      9.00     -10.34       3.10        0.00      72.74       5.47       0.02       1.32       ----

> <Gold.Chemscore.Fitness>
9.0029

> <Gold.Chemscore.DG>
-10.3352

> <Gold.Chemscore.ZeroCoef>
-5.4800

> <Gold.Chemscore.Hbond>
3.0952

> <Gold.Chemscore.Metal>
0.0000

> <Gold.Chemscore.Lipo>
72.7419

> <Gold.Chemscore.Internal_Hbond>
0.0000

> <Gold.Chemscore.DEClash>
0.0163

> <Gold.Chemscore.DEInternal>
1.3160

> <Gold.Chemscore.Rot>
5.4662

> <Gold.Chemscore.Internal.Correction>
   9.000000E+99

> <Gold.Chemscore.Hbonds>
donor molecule, donor type, donor heavy atom, donor atom, acceptor molecule, acceptor atom, score
      L1  H    21    46       P1 10957  0.74
      P1  H  6934  6947       L1    12  0.02
      P1  H  7997  8009       L1     1  0.26

> <Gold.Chemscore.Hbond.Weighted>
-10.3379

> <Gold.Chemscore.Metal.Weighted>
-0.0000

> <Gold.Chemscore.Lipo.Weighted>
-8.5108

> <Gold.Chemscore.Internal_Hbond.Weighted>
0.0000

> <Gold.Chemscore.DEClash.Weighted>
0.0163

> <Gold.Chemscore.DEInternal.Weighted>
1.3160

> <Gold.Chemscore.Rot.Weighted>
13.9935

> <Gold.Chemscore.Internal.Correction.Weighted>
   9.000000E+99

> <Gold.Protein.RotatedTorsions>
[ 6907 6896 6895 6894 ] final  127.72 input  -60.11 | X-H torsion
[ 7974 7965 7964 7962 ] final -116.79 input  175.53 | X-H torsion
[ 8008 7997 7996 7995 ] final -117.29 input   59.86 | X-H torsion
[ 10167 10162 10161 10158 ] final  -91.08 input  -65.29 | X-H torsion
[ 10718 10713 10712 10709 ] final  174.57 input   66.30 | X-H torsion
[ 10763 10752 10751 10750 ] final -153.57 input  -60.55 | X-H torsion
[ 11005 11000 10999 10996 ] final   62.57 input  -57.11 | X-H torsion

> <Gold.Protein.ActiveResidues>
 VAL166  LYS551  ARG553  GLY616  TRP617  ASP618  TYR619  PRO620  LYS621  CYS622 
 ASP623  PHE694  ASN695  SER759  ASP760  ASP761  ALA762  ILE779  LEU786  VAL792 
 PHE793  MET794  SER795  GLU796  ALA797  LYS798  CYS799  TRP800  GLU811  SER814 

> <Gold.Protein.RotatedAtoms>
  152.3786  133.6515  159.6143 H   0  0  0  0  0  0  0  0  0  0  0  0  # atno 6907 bound_to 6896
  150.7723  133.9151  159.3390 H   0  0  0  0  0  0  0  0  0  0  0  0  # atno 6908 bound_to 6896
  151.6961  135.0939  160.0294 H   0  0  0  0  0  0  0  0  0  0  0  0  # atno 6909 bound_to 6896
  145.0926  140.8500  143.3973 H   0  0  0  0  0  0  0  0  0  0  0  0  # atno 7974 bound_to 7965
  155.0814  140.0394  157.2640 H   0  0  0  0  0  0  0  0  0  0  0  0  # atno 8008 bound_to 7997
  154.6903  140.2652  155.6794 H   0  0  0  0  0  0  0  0  0  0  0  0  # atno 8009 bound_to 7997
  156.2726  140.2761  156.1479 H   0  0  0  0  0  0  0  0  0  0  0  0  # atno 8010 bound_to 7997
  140.3485  143.2904  151.9754 H   0  0  0  0  0  0  0  0  0  0  0  0  # atno 10167 bound_to 10162
  156.9477  131.0021  151.2955 H   0  0  0  0  0  0  0  0  0  0  0  0  # atno 10718 bound_to 10713
  154.7918  135.3209  154.7759 H   0  0  0  0  0  0  0  0  0  0  0  0  # atno 10763 bound_to 10752
  153.8446  135.6868  153.4803 H   0  0  0  0  0  0  0  0  0  0  0  0  # atno 10764 bound_to 10752
  153.1592  135.4668  154.9688 H   0  0  0  0  0  0  0  0  0  0  0  0  # atno 10765 bound_to 10752
  140.0083  134.6335  155.9820 H   0  0  0  0  0  0  0  0  0  0  0  0  # atno 11005 bound_to 11000
  145.1048  139.2798  143.5668 LP  0  0  0  0  0  0  0  0  0  0  0  0  # atno 17320 bound_to 7965
  146.3531  140.0625  142.8628 LP  0  0  0  0  0  0  0  0  0  0  0  0  # atno 17321 bound_to 7965
  139.4830  144.6096  151.7457 LP  0  0  0  0  0  0  0  0  0  0  0  0  # atno 17342 bound_to 10162
  140.5242  144.0832  150.6032 LP  0  0  0  0  0  0  0  0  0  0  0  0  # atno 17343 bound_to 10162
  157.5743  130.8332  149.8434 LP  0  0  0  0  0  0  0  0  0  0  0  0  # atno 17370 bound_to 10713
  156.0376  130.3747  150.1518 LP  0  0  0  0  0  0  0  0  0  0  0  0  # atno 17371 bound_to 10713
  141.1693  133.6537  156.4592 LP  0  0  0  0  0  0  0  0  0  0  0  0  # atno 17394 bound_to 11000
  140.4601  134.6849  157.5081 LP  0  0  0  0  0  0  0  0  0  0  0  0  # atno 17395 bound_to 11000

$$$$
