AV-unprocessed.smi:2563|AV-procd|sdf|10057|dock2
  -GOLD-   2272014 93D 1   1.00000     0.00000
 Structure written by MMmdl.
 35 36  0  0  0  0  0  0  0  0  2 V2000
  153.6066  139.7978  160.1188 C   0  0  0  0  0  0  0  0  0  0  0  0
  152.4027  139.5593  159.1982 C   0  0  0  0  0  0  0  0  0  0  0  0
  152.1344  140.7068  158.3304 N   0  0  0  0  0  0  0  0  0  0  0  0
  152.0836  140.4915  156.8855 C   0  0  0  0  0  0  0  0  0  0  0  0
  150.6484  140.5556  156.3341 C   0  0  1  0  0  0  0  0  0  0  0  0
  150.1299  142.0055  156.2676 C   0  0  0  0  0  0  0  0  0  0  0  0
  148.7862  142.0404  155.6573 N   0  3  0  0  0  0  0  0  0  0  0  0
  148.7729  141.3866  154.3344 C   0  0  0  0  0  0  0  0  0  0  0  0
  149.3417  139.9624  154.4455 C   0  0  0  0  0  0  0  0  0  0  0  0
  150.6457  140.0174  155.0136 O   0  0  0  0  0  0  0  0  0  0  0  0
  152.0519  142.0132  158.8720 C   0  0  0  0  0  0  0  0  0  0  0  0
  152.2344  143.1684  158.0721 C   0  0  0  0  0  0  0  0  0  0  0  0
  152.1367  144.4266  158.6903 C   0  0  0  0  0  0  0  0  0  0  0  0
  151.8620  144.4508  160.0678 C   0  0  0  0  0  0  0  0  0  0  0  0
  151.6918  143.3242  160.7917 N   0  0  0  0  0  0  0  0  0  0  0  0
  151.7858  142.1292  160.1994 N   0  0  0  0  0  0  0  0  0  0  0  0
  153.7958  138.9224  160.7401 H   0  0  0  0  0  0  0  0  0  0  0  0
  153.4361  140.6444  160.7840 H   0  0  0  0  0  0  0  0  0  0  0  0
  154.5116  139.9993  159.5450 H   0  0  0  0  0  0  0  0  0  0  0  0
  152.6029  138.6894  158.5723 H   0  0  0  0  0  0  0  0  0  0  0  0
  151.5213  139.2971  159.7841 H   0  0  0  0  0  0  0  0  0  0  0  0
  152.7239  141.2149  156.3808 H   0  0  0  0  0  0  0  0  0  0  0  0
  152.5168  139.5178  156.6525 H   0  0  0  0  0  0  0  0  0  0  0  0
  149.9860  139.9652  156.9699 H   0  0  0  0  0  0  0  0  0  0  0  0
  150.0792  142.4419  157.2655 H   0  0  0  0  0  0  0  0  0  0  0  0
  150.8064  142.6264  155.6787 H   0  0  0  0  0  0  0  0  0  0  0  0
  148.1431  141.5522  156.2643 H   0  0  0  0  0  0  0  0  0  0  0  0
  147.7530  141.3650  153.9505 H   0  0  0  0  0  0  0  0  0  0  0  0
  149.3683  141.9768  153.6366 H   0  0  0  0  0  0  0  0  0  0  0  0
  148.6939  139.3274  155.0521 H   0  0  0  0  0  0  0  0  0  0  0  0
  149.4040  139.5034  153.4588 H   0  0  0  0  0  0  0  0  0  0  0  0
  152.4370  143.1184  157.0136 H   0  0  0  0  0  0  0  0  0  0  0  0
  152.2661  145.3403  158.1296 H   0  0  0  0  0  0  0  0  0  0  0  0
  151.7750  145.3874  160.5984 H   0  0  0  0  0  0  0  0  0  0  0  0
  148.4847  142.9997  155.5609 H   0  0  0  0  0  0  0  0  0  0  0  0
  1  2  1  0  0  0  0
  1 17  1  0  0  0  0
  1 18  1  0  0  0  0
  1 19  1  0  0  0  0
  2  3  1  0  0  0  0
  2 20  1  0  0  0  0
  2 21  1  0  0  0  0
  3  4  1  0  0  0  0
  3 11  1  0  0  0  0
  4  5  1  0  0  0  0
  4 22  1  0  0  0  0
  4 23  1  0  0  0  0
  5 10  1  0  0  0  0
  5  6  1  0  0  0  0
  5 24  1  0  0  0  0
  6  7  1  0  0  0  0
  6 25  1  0  0  0  0
  6 26  1  0  0  0  0
  7  8  1  0  0  0  0
  7 27  1  0  0  0  0
  7 35  1  0  0  0  0
  8  9  1  0  0  0  0
  8 28  1  0  0  0  0
  8 29  1  0  0  0  0
  9 10  1  0  0  0  0
  9 30  1  0  0  0  0
  9 31  1  0  0  0  0
 11 16  1  0  0  0  0
 11 12  2  0  0  0  0
 12 13  1  0  0  0  0
 12 32  1  0  0  0  0
 13 14  2  0  0  0  0
 13 33  1  0  0  0  0
 14 15  1  0  0  0  0
 14 34  1  0  0  0  0
 15 16  2  0  0  0  0
M  CHG  1   7   1
M  END
> <s_m_source_file>
AV-unprocessed.smi

> <i_m_source_file_index>
2563

> <i_lp_mmshare_version>
43012

> <i_f3d_flags>
0

> <s_epik_input>
bjFuW2NIXVtjSF1bY0hdYzFOKFtDSDJdW0NIM10pW0NIMl1bQ0BASF0yW0NIMl1bTkhdW0NIMl1bQ0gyXU8y

> <s_epik_cmdline>
J2VwaWtfcHl0aG9uJywgJy1waCcsICc3LjAnLCAnLXRuJywgJzgnLCAnLW1hJywgJzIwMCcsICctbWV0YWxfYmluZGluZycsICctaW1hZScsICc8aW5maWxlLm1hZT4nLCAnLW9tYWUnLCAnPG91dGZpbGUubWFlPic=

> <r_lp_tautomer_probability>
1

> <r_epik_Ionization_Penalty>
0.0472862

> <r_epik_Ionization_Penalty_Charging>
0.0127794

> <r_epik_Ionization_Penalty_Neutral>
0.0345068

> <r_epik_State_Penalty>
0.0614045

> <r_epik_Charging_Adjusted_Penalty>
0.0741839

> <i_epik_Tot_Q>
1

> <i_epik_Tot_abs_Q>
1

> <r_epik_Metal_State_Penalty>
0.0547208

> <b_epik_Metal_Only>
0

> <s_lp_Force_Field>
OPLS_2005

> <r_lp_Energy>
26.038

> <b_lp_Chiralities_Consistent>
1

> <s_lp_Variant>
AV-unprocessed.smi:2563-2

> <Gold.Version>
5.8.1

> <Gold.Id.Protein>
6NUR|6NUR_protein|mol2

> <Gold.PLP.Fitness>
41.0559

> <Gold.PLP.PLP>
-33.0574

> <Gold.PLP.part.hbond>
-3.1721

> <Gold.PLP.part.metal>
0.0000

> <Gold.PLP.part.buried>
-3.0602

> <Gold.PLP.part.nonpolar>
-26.2102

> <Gold.PLP.part.repulsive>
0.2836

> <Gold.PLP.ligand.clash>
0.0000

> <Gold.PLP.ligand.torsion>
0.5230

> <Gold.PLP.Chemscore.Hbond>
2.9840

> <Gold.PLP.Chemscore.CHOScore>
0.0000

> <Gold.PLP.Chemscore.Metal>
0.0000

> <Gold.Chemscore.Hbonds>
donor molecule, donor type, donor heavy atom, donor atom, acceptor molecule, acceptor atom, score
      L1  H     7    35       P1  8028  1.98
      P1  H  7989  7998       L1    10  1.00

> <Gold.PLP.Chemscore.Internal.Correction>
0.0926

> <Gold.Rescore>
     Score         DG    S(hbond)    S(metal)    S(lipo)     H(rot)  DE(clash)    DE(int)     intcor
     14.56     -17.50       1.65        0.00      86.30       1.40       2.34       0.60       ----

> <Gold.Chemscore.Fitness>
14.5596

> <Gold.Chemscore.DG>
-17.5022

> <Gold.Chemscore.ZeroCoef>
-5.4800

> <Gold.Chemscore.Hbond>
1.6521

> <Gold.Chemscore.Metal>
0.0000

> <Gold.Chemscore.Lipo>
86.2953

> <Gold.Chemscore.Internal_Hbond>
0.0000

> <Gold.Chemscore.DEClash>
2.3426

> <Gold.Chemscore.DEInternal>
0.6000

> <Gold.Chemscore.Rot>
1.4033

> <Gold.Chemscore.Internal.Correction>
   9.000000E+99

> <Gold.Chemscore.Hbonds>
donor molecule, donor type, donor heavy atom, donor atom, acceptor molecule, acceptor atom, score
      L1  H     7    35       P1  8028  0.94
      P1  H  7989  7998       L1    10  0.24

> <Gold.Chemscore.Hbond.Weighted>
-5.5181

> <Gold.Chemscore.Metal.Weighted>
-0.0000

> <Gold.Chemscore.Lipo.Weighted>
-10.0966

> <Gold.Chemscore.Internal_Hbond.Weighted>
0.0000

> <Gold.Chemscore.DEClash.Weighted>
2.3426

> <Gold.Chemscore.DEInternal.Weighted>
0.6000

> <Gold.Chemscore.Rot.Weighted>
3.5924

> <Gold.Chemscore.Internal.Correction.Weighted>
   9.000000E+99

> <Gold.Protein.RotatedTorsions>
[ 6907 6896 6895 6894 ] final  102.57 input  -60.11 | X-H torsion
[ 7974 7965 7964 7962 ] final   -2.19 input  175.53 | X-H torsion
[ 8008 7997 7996 7995 ] final  -92.39 input   59.86 | X-H torsion
[ 10167 10162 10161 10158 ] final   -3.90 input  -65.29 | X-H torsion
[ 10718 10713 10712 10709 ] final  -32.79 input   66.30 | X-H torsion
[ 10763 10752 10751 10750 ] final   48.83 input  -60.55 | X-H torsion
[ 11005 11000 10999 10996 ] final  -90.26 input  -57.11 | X-H torsion

> <Gold.Protein.ActiveResidues>
 VAL166  LYS551  ARG553  GLY616  TRP617  ASP618  TYR619  PRO620  LYS621  CYS622 
 ASP623  PHE694  ASN695  SER759  ASP760  ASP761  ALA762  ILE779  LEU786  VAL792 
 PHE793  MET794  SER795  GLU796  ALA797  LYS798  CYS799  TRP800  GLU811  SER814 

> <Gold.Protein.RotatedAtoms>
  152.5320  133.9956  159.7870 H   0  0  0  0  0  0  0  0  0  0  0  0  # atno 6907 bound_to 6896
  151.0184  133.5891  159.2681 H   0  0  0  0  0  0  0  0  0  0  0  0  # atno 6908 bound_to 6896
  151.2940  135.0757  159.9268 H   0  0  0  0  0  0  0  0  0  0  0  0  # atno 6909 bound_to 6896
  146.2408  140.1533  142.8333 H   0  0  0  0  0  0  0  0  0  0  0  0  # atno 7974 bound_to 7965
  154.7225  140.0509  157.0653 H   0  0  0  0  0  0  0  0  0  0  0  0  # atno 8008 bound_to 7997
  155.0408  140.3168  155.4706 H   0  0  0  0  0  0  0  0  0  0  0  0  # atno 8009 bound_to 7997
  156.2820  140.2133  156.5531 H   0  0  0  0  0  0  0  0  0  0  0  0  # atno 8010 bound_to 7997
  140.6908  143.6486  150.8371 H   0  0  0  0  0  0  0  0  0  0  0  0  # atno 10167 bound_to 10162
  156.3706  130.4339  149.7549 H   0  0  0  0  0  0  0  0  0  0  0  0  # atno 10718 bound_to 10713
  152.9790  135.5931  154.3989 H   0  0  0  0  0  0  0  0  0  0  0  0  # atno 10763 bound_to 10752
  154.3637  135.2767  155.2307 H   0  0  0  0  0  0  0  0  0  0  0  0  # atno 10764 bound_to 10752
  154.4294  135.6040  153.6114 H   0  0  0  0  0  0  0  0  0  0  0  0  # atno 10765 bound_to 10752
  141.1569  133.7681  156.9713 H   0  0  0  0  0  0  0  0  0  0  0  0  # atno 11005 bound_to 11000
  145.0149  140.8745  143.5201 LP  0  0  0  0  0  0  0  0  0  0  0  0  # atno 17320 bound_to 7965
  145.1573  139.2479  143.5410 LP  0  0  0  0  0  0  0  0  0  0  0  0  # atno 17321 bound_to 7965
  140.0198  143.5554  152.2805 LP  0  0  0  0  0  0  0  0  0  0  0  0  # atno 17342 bound_to 10162
  139.6308  144.7644  151.2540 LP  0  0  0  0  0  0  0  0  0  0  0  0  # atno 17343 bound_to 10162
  156.4678  130.7982  151.3001 LP  0  0  0  0  0  0  0  0  0  0  0  0  # atno 17370 bound_to 10713
  157.7483  131.0045  150.3080 LP  0  0  0  0  0  0  0  0  0  0  0  0  # atno 17371 bound_to 10713
  140.1127  134.9466  157.2090 LP  0  0  0  0  0  0  0  0  0  0  0  0  # atno 17394 bound_to 11000
  140.3172  134.2957  155.7254 LP  0  0  0  0  0  0  0  0  0  0  0  0  # atno 17395 bound_to 11000

$$$$
