AV-unprocessed.smi:1440|AV-procd|sdf|5874|dock6
  -GOLD-   22720 5553D 1   1.00000     0.00000
 Structure written by MMmdl.
 41 42  0  0  0  0  0  0  0  0  1 V2000
  148.8330  142.2608  157.9529 C   0  0  0  0  0  0  0  0  0  0  0  0
  149.7004  141.7520  156.7927 C   0  0  2  0  0  0  0  0  0  0  0  0
  148.8358  141.2022  155.6419 C   0  0  0  0  0  0  0  0  0  0  0  0
  149.6998  140.6838  154.4777 C   0  0  0  0  0  0  0  0  0  0  0  0
  150.7290  139.6324  154.9356 C   0  0  2  0  0  0  0  0  0  0  0  0
  150.0531  138.3856  155.2914 N   0  0  0  0  0  0  0  0  0  0  0  0
  150.5233  137.1503  155.0625 C   0  0  0  0  0  0  0  0  0  0  0  0
  151.6059  136.9310  154.5166 O   0  0  0  0  0  0  0  0  0  0  0  0
  149.6296  135.9999  155.5428 C   0  0  0  0  0  0  0  0  0  0  0  0
  149.2407  135.0812  154.4756 N   0  0  0  0  0  0  0  0  0  0  0  0
  149.2691  133.7411  154.5550 C   0  0  0  0  0  0  0  0  0  0  0  0
  149.6384  133.1279  155.5561 O   0  0  0  0  0  0  0  0  0  0  0  0
  148.8087  132.9747  153.3145 C   0  0  0  0  0  0  0  0  0  0  0  0
  147.3855  133.1511  153.0901 N   0  0  0  0  0  0  0  0  0  0  0  0
  146.7340  133.9111  152.2076 C   0  0  0  0  0  0  0  0  0  0  0  0
  145.4141  133.8264  152.2998 N   0  0  0  0  0  0  0  0  0  0  0  0
  145.3139  132.9341  153.3298 C   0  0  0  0  0  0  0  0  0  0  0  0
  146.4658  132.4980  153.8397 N   0  0  0  0  0  0  0  0  0  0  0  0
  151.5770  140.1730  156.1068 C   0  0  0  0  0  0  0  0  0  0  0  0
  150.7065  140.6863  157.2673 C   0  0  0  0  0  0  0  0  0  0  0  0
  148.2321  141.4580  158.3812 H   0  0  0  0  0  0  0  0  0  0  0  0
  148.1527  143.0448  157.6195 H   0  0  0  0  0  0  0  0  0  0  0  0
  149.4493  142.6773  158.7502 H   0  0  0  0  0  0  0  0  0  0  0  0
  150.2677  142.6017  156.4102 H   0  0  0  0  0  0  0  0  0  0  0  0
  148.1972  140.3988  156.0112 H   0  0  0  0  0  0  0  0  0  0  0  0
  148.1655  141.9809  155.2766 H   0  0  0  0  0  0  0  0  0  0  0  0
  149.0628  140.2727  153.6936 H   0  0  0  0  0  0  0  0  0  0  0  0
  150.2271  141.5256  154.0268 H   0  0  0  0  0  0  0  0  0  0  0  0
  151.3915  139.4249  154.0932 H   0  0  0  0  0  0  0  0  0  0  0  0
  149.1572  138.4720  155.7493 H   0  0  0  0  0  0  0  0  0  0  0  0
  150.1721  135.4316  156.2987 H   0  0  0  0  0  0  0  0  0  0  0  0
  148.7427  136.4054  156.0332 H   0  0  0  0  0  0  0  0  0  0  0  0
  148.9182  135.4963  153.6132 H   0  0  0  0  0  0  0  0  0  0  0  0
  149.3479  133.3281  152.4345 H   0  0  0  0  0  0  0  0  0  0  0  0
  149.0340  131.9128  153.4254 H   0  0  0  0  0  0  0  0  0  0  0  0
  147.2355  134.5411  151.4875 H   0  0  0  0  0  0  0  0  0  0  0  0
  144.3633  132.5963  153.7158 H   0  0  0  0  0  0  0  0  0  0  0  0
  152.2663  139.4087  156.4673 H   0  0  0  0  0  0  0  0  0  0  0  0
  152.2012  140.9905  155.7446 H   0  0  0  0  0  0  0  0  0  0  0  0
  151.3482  141.1009  158.0452 H   0  0  0  0  0  0  0  0  0  0  0  0
  150.1737  139.8508  157.7234 H   0  0  0  0  0  0  0  0  0  0  0  0
  1  2  1  0  0  0  0
  1 21  1  0  0  0  0
  1 22  1  0  0  0  0
  1 23  1  0  0  0  0
  2 20  1  0  0  0  0
  2  3  1  0  0  0  0
  2 24  1  0  0  0  0
  3  4  1  0  0  0  0
  3 25  1  0  0  0  0
  3 26  1  0  0  0  0
  4  5  1  0  0  0  0
  4 27  1  0  0  0  0
  4 28  1  0  0  0  0
  5  6  1  0  0  0  0
  5 19  1  0  0  0  0
  5 29  1  0  0  0  0
  6  7  1  0  0  0  0
  6 30  1  0  0  0  0
  7  8  2  0  0  0  0
  7  9  1  0  0  0  0
  9 10  1  0  0  0  0
  9 31  1  0  0  0  0
  9 32  1  0  0  0  0
 10 11  1  0  0  0  0
 10 33  1  0  0  0  0
 11 12  2  0  0  0  0
 11 13  1  0  0  0  0
 13 14  1  0  0  0  0
 13 34  1  0  0  0  0
 13 35  1  0  0  0  0
 14 18  1  0  0  0  0
 14 15  1  0  0  0  0
 15 16  2  0  0  0  0
 15 36  1  0  0  0  0
 16 17  1  0  0  0  0
 17 18  2  0  0  0  0
 17 37  1  0  0  0  0
 19 20  1  0  0  0  0
 19 38  1  0  0  0  0
 19 39  1  0  0  0  0
 20 40  1  0  0  0  0
 20 41  1  0  0  0  0
M  END
> <s_m_source_file>
AV-unprocessed.smi

> <i_m_source_file_index>
1440

> <i_lp_mmshare_version>
43012

> <i_f3d_flags>
0

> <s_epik_input>
W0NIM11bQ0BASF0xW0NIMl1bQ0gyXVtDQEhdKFtDSDJdW0NIMl0xKVtOSF1DKD1PKVtDSDJdW05IXUMoPU8pW0NIMl1uMltjSF1uW2NIXW4y

> <s_epik_cmdline>
J2VwaWtfcHl0aG9uJywgJy1waCcsICc3LjAnLCAnLXRuJywgJzgnLCAnLW1hJywgJzIwMCcsICctbWV0YWxfYmluZGluZycsICctaW1hZScsICc8aW5maWxlLm1hZT4nLCAnLW9tYWUnLCAnPG91dGZpbGUubWFlPic=

> <r_lp_tautomer_probability>
1

> <r_epik_Ionization_Penalty>
7.34071e-06

> <r_epik_Ionization_Penalty_Charging>
0

> <r_epik_Ionization_Penalty_Neutral>
7.34071e-06

> <r_epik_State_Penalty>
-0

> <r_epik_Charging_Adjusted_Penalty>
0

> <i_epik_Tot_Q>
0

> <i_epik_Tot_abs_Q>
0

> <r_epik_Metal_State_Penalty>
-0

> <b_epik_Metal_Only>
0

> <s_lp_Force_Field>
OPLS_2005

> <r_lp_Energy>
6.43363

> <b_lp_Chiralities_Consistent>
1

> <s_lp_Variant>
AV-unprocessed.smi:1440-2

> <Gold.Version>
5.8.1

> <Gold.Id.Protein>
6NUR|6NUR_protein|mol2

> <Gold.PLP.Fitness>
40.2613

> <Gold.PLP.PLP>
-29.6935

> <Gold.PLP.part.hbond>
-2.0000

> <Gold.PLP.part.metal>
0.0000

> <Gold.PLP.part.buried>
-1.8997

> <Gold.PLP.part.nonpolar>
-25.8682

> <Gold.PLP.part.repulsive>
0.4069

> <Gold.PLP.ligand.clash>
0.0000

> <Gold.PLP.ligand.torsion>
0.7170

> <Gold.PLP.Chemscore.Hbond>
2.0000

> <Gold.PLP.Chemscore.CHOScore>
1.9936

> <Gold.PLP.Chemscore.Metal>
0.0000

> <Gold.Chemscore.Hbonds>
donor molecule, donor type, donor heavy atom, donor atom, acceptor molecule, acceptor atom, score
      L1  H    10    33       P1  7948  1.00
      P1  H 10752 10763       L1     8  1.00
      L1  C    15    36       P1  7948  1.00
      L1  C    17    37       P1 10957  1.00

> <Gold.PLP.Chemscore.Internal.Correction>
0.0210

> <Gold.Rescore>
     Score         DG    S(hbond)    S(metal)    S(lipo)     H(rot)  DE(clash)    DE(int)     intcor
      9.26      -9.97       1.82        0.00      48.91       2.86       0.14       0.57       ----

> <Gold.Chemscore.Fitness>
9.2611

> <Gold.Chemscore.DG>
-9.9684

> <Gold.Chemscore.ZeroCoef>
-5.4800

> <Gold.Chemscore.Hbond>
1.8242

> <Gold.Chemscore.Metal>
0.0000

> <Gold.Chemscore.Lipo>
48.9110

> <Gold.Chemscore.Internal_Hbond>
0.0000

> <Gold.Chemscore.DEClash>
0.1378

> <Gold.Chemscore.DEInternal>
0.5695

> <Gold.Chemscore.Rot>
2.8621

> <Gold.Chemscore.Internal.Correction>
   9.000000E+99

> <Gold.Chemscore.Hbonds>
donor molecule, donor type, donor heavy atom, donor atom, acceptor molecule, acceptor atom, score
      L1  H    10    33       P1  7948  0.82
      P1  H 10752 10763       L1     8  0.99

> <Gold.Chemscore.Hbond.Weighted>
-6.0927

> <Gold.Chemscore.Metal.Weighted>
-0.0000

> <Gold.Chemscore.Lipo.Weighted>
-5.7226

> <Gold.Chemscore.Internal_Hbond.Weighted>
0.0000

> <Gold.Chemscore.DEClash.Weighted>
0.1378

> <Gold.Chemscore.DEInternal.Weighted>
0.5695

> <Gold.Chemscore.Rot.Weighted>
7.3270

> <Gold.Chemscore.Internal.Correction.Weighted>
   9.000000E+99

> <Gold.Protein.RotatedTorsions>
[ 6907 6896 6895 6894 ] final -169.15 input  -60.11 | X-H torsion
[ 7974 7965 7964 7962 ] final  163.85 input  175.53 | X-H torsion
[ 8008 7997 7996 7995 ] final  -18.35 input   59.86 | X-H torsion
[ 10167 10162 10161 10158 ] final  163.91 input  -65.29 | X-H torsion
[ 10718 10713 10712 10709 ] final  -34.25 input   66.30 | X-H torsion
[ 10763 10752 10751 10750 ] final   53.03 input  -60.55 | X-H torsion
[ 11005 11000 10999 10996 ] final   58.97 input  -57.11 | X-H torsion

> <Gold.Protein.ActiveResidues>
 VAL166  LYS551  ARG553  GLY616  TRP617  ASP618  TYR619  PRO620  LYS621  CYS622 
 ASP623  PHE694  ASN695  SER759  ASP760  ASP761  ALA762  ILE779  LEU786  VAL792 
 PHE793  MET794  SER795  GLU796  ALA797  LYS798  CYS799  TRP800  GLU811  SER814 

> <Gold.Protein.RotatedAtoms>
  151.4870  133.3533  159.2847 H   0  0  0  0  0  0  0  0  0  0  0  0  # atno 6907 bound_to 6896
  150.8859  134.8259  159.7270 H   0  0  0  0  0  0  0  0  0  0  0  0  # atno 6908 bound_to 6896
  152.4793  134.4774  159.9706 H   0  0  0  0  0  0  0  0  0  0  0  0  # atno 6909 bound_to 6896
  144.7571  139.8242  143.6346 H   0  0  0  0  0  0  0  0  0  0  0  0  # atno 7974 bound_to 7965
  154.4912  140.2118  155.9544 H   0  0  0  0  0  0  0  0  0  0  0  0  # atno 8008 bound_to 7997
  156.1308  140.3197  155.8314 H   0  0  0  0  0  0  0  0  0  0  0  0  # atno 8009 bound_to 7997
  155.4300  140.0503  157.3010 H   0  0  0  0  0  0  0  0  0  0  0  0  # atno 8010 bound_to 7997
  139.4881  144.4289  151.9095 H   0  0  0  0  0  0  0  0  0  0  0  0  # atno 10167 bound_to 10162
  156.3528  130.4311  149.7690 H   0  0  0  0  0  0  0  0  0  0  0  0  # atno 10718 bound_to 10713
  152.9792  135.5793  154.4674 H   0  0  0  0  0  0  0  0  0  0  0  0  # atno 10763 bound_to 10752
  154.4242  135.2772  155.1957 H   0  0  0  0  0  0  0  0  0  0  0  0  # atno 10764 bound_to 10752
  154.3693  135.6171  153.5785 H   0  0  0  0  0  0  0  0  0  0  0  0  # atno 10765 bound_to 10752
  140.0338  134.5973  155.9472 H   0  0  0  0  0  0  0  0  0  0  0  0  # atno 11005 bound_to 11000
  146.1593  139.4702  142.9998 LP  0  0  0  0  0  0  0  0  0  0  0  0  # atno 17320 bound_to 7965
  145.6743  141.0208  143.1641 LP  0  0  0  0  0  0  0  0  0  0  0  0  # atno 17321 bound_to 7965
  140.3736  144.2824  150.5917 LP  0  0  0  0  0  0  0  0  0  0  0  0  # atno 17342 bound_to 10162
  140.5297  143.2246  151.8259 LP  0  0  0  0  0  0  0  0  0  0  0  0  # atno 17343 bound_to 10162
  156.4884  130.8073  151.3084 LP  0  0  0  0  0  0  0  0  0  0  0  0  # atno 17370 bound_to 10713
  157.7463  130.9983  150.2849 LP  0  0  0  0  0  0  0  0  0  0  0  0  # atno 17371 bound_to 10713
  141.1846  133.6553  156.5162 LP  0  0  0  0  0  0  0  0  0  0  0  0  # atno 17394 bound_to 11000
  140.4182  134.7211  157.4875 LP  0  0  0  0  0  0  0  0  0  0  0  0  # atno 17395 bound_to 11000

$$$$
