AV-unprocessed.smi:2511|AV-procd|sdf|9889|dock4
  -GOLD-   2272013523D 1   1.00000     0.00000
 Structure written by MMmdl.
 40 41  0  0  0  0  0  0  0  0  1 V2000
  142.6892  132.6995  149.6175 N   0  0  0  0  0  0  0  0  0  0  0  0
  143.9144  132.7891  150.1461 C   0  0  0  0  0  0  0  0  0  0  0  0
  144.6927  131.8365  150.1598 O   0  0  0  0  0  0  0  0  0  0  0  0
  144.3107  134.1368  150.6880 C   0  0  0  0  0  0  0  0  0  0  0  0
  145.6081  134.6419  150.4433 C   0  0  0  0  0  0  0  0  0  0  0  0
  145.9636  135.9009  150.9635 C   0  0  0  0  0  0  0  0  0  0  0  0
  145.0086  136.6260  151.7141 C   0  0  0  0  0  0  0  0  0  0  0  0
  145.2452  137.8973  152.3034 N   0  0  0  0  0  0  0  0  0  0  0  0
  146.3343  138.6848  152.2060 C   0  0  0  0  0  0  0  0  0  0  0  0
  147.3456  138.4061  151.5658 O   0  0  0  0  0  0  0  0  0  0  0  0
  146.2320  139.8538  152.8646 N   0  0  0  0  0  0  0  0  0  0  0  0
  147.2150  140.9375  152.9716 C   0  0  1  0  0  0  0  0  0  0  0  0
  146.6100  142.1226  153.7484 C   0  0  0  0  0  0  0  0  0  0  0  0
  146.4308  141.8063  155.2429 C   0  0  0  0  0  0  0  0  0  0  0  0
  147.7504  141.3439  155.8803 C   0  0  0  0  0  0  0  0  0  0  0  0
  148.3476  140.1294  155.1386 C   0  0  2  0  0  0  0  0  0  0  0  0
  149.6648  139.6483  155.7818 C   0  0  0  0  0  0  0  0  0  0  0  0
  150.5024  140.6687  155.9687 F   0  0  0  0  0  0  0  0  0  0  0  0
  149.4155  139.0747  156.9591 F   0  0  0  0  0  0  0  0  0  0  0  0
  150.2530  138.7461  154.9962 F   0  0  0  0  0  0  0  0  0  0  0  0
  148.5244  140.4591  153.6389 C   0  0  0  0  0  0  0  0  0  0  0  0
  143.7492  136.0282  151.9210 C   0  0  0  0  0  0  0  0  0  0  0  0
  143.4022  134.8228  151.4235 N   0  0  0  0  0  0  0  0  0  0  0  0
  142.3647  131.8210  149.2411 H   0  0  0  0  0  0  0  0  0  0  0  0
  142.0946  133.5157  149.6028 H   0  0  0  0  0  0  0  0  0  0  0  0
  146.3280  134.0790  149.8668 H   0  0  0  0  0  0  0  0  0  0  0  0
  146.9602  136.2736  150.7860 H   0  0  0  0  0  0  0  0  0  0  0  0
  144.4638  138.2908  152.8073 H   0  0  0  0  0  0  0  0  0  0  0  0
  145.3591  140.0146  153.3463 H   0  0  0  0  0  0  0  0  0  0  0  0
  147.4439  141.2947  151.9661 H   0  0  0  0  0  0  0  0  0  0  0  0
  147.2657  142.9883  153.6454 H   0  0  0  0  0  0  0  0  0  0  0  0
  145.6546  142.4139  153.3103 H   0  0  0  0  0  0  0  0  0  0  0  0
  146.0574  142.6881  155.7641 H   0  0  0  0  0  0  0  0  0  0  0  0
  145.6729  141.0325  155.3698 H   0  0  0  0  0  0  0  0  0  0  0  0
  148.4641  142.1689  155.8751 H   0  0  0  0  0  0  0  0  0  0  0  0
  147.5763  141.0953  156.9275 H   0  0  0  0  0  0  0  0  0  0  0  0
  147.6332  139.3086  155.2195 H   0  0  0  0  0  0  0  0  0  0  0  0
  148.9222  139.5929  153.1098 H   0  0  0  0  0  0  0  0  0  0  0  0
  149.2770  141.2413  153.5322 H   0  0  0  0  0  0  0  0  0  0  0  0
  142.9909  136.5349  152.4999 H   0  0  0  0  0  0  0  0  0  0  0  0
  1  2  1  0  0  0  0
  1 24  1  0  0  0  0
  1 25  1  0  0  0  0
  2  3  2  0  0  0  0
  2  4  1  0  0  0  0
  4 23  1  0  0  0  0
  4  5  2  0  0  0  0
  5  6  1  0  0  0  0
  5 26  1  0  0  0  0
  6  7  2  0  0  0  0
  6 27  1  0  0  0  0
  7  8  1  0  0  0  0
  7 22  1  0  0  0  0
  8  9  1  0  0  0  0
  8 28  1  0  0  0  0
  9 10  2  0  0  0  0
  9 11  1  0  0  0  0
 11 12  1  0  0  0  0
 11 29  1  0  0  0  0
 12 21  1  0  0  0  0
 12 13  1  0  0  0  0
 12 30  1  0  0  0  0
 13 14  1  0  0  0  0
 13 31  1  0  0  0  0
 13 32  1  0  0  0  0
 14 15  1  0  0  0  0
 14 33  1  0  0  0  0
 14 34  1  0  0  0  0
 15 16  1  0  0  0  0
 15 35  1  0  0  0  0
 15 36  1  0  0  0  0
 16 17  1  0  0  0  0
 16 21  1  0  0  0  0
 16 37  1  0  0  0  0
 17 18  1  0  0  0  0
 17 19  1  0  0  0  0
 17 20  1  0  0  0  0
 21 38  1  0  0  0  0
 21 39  1  0  0  0  0
 22 23  2  0  0  0  0
 22 40  1  0  0  0  0
M  END
> <s_m_source_file>
AV-unprocessed.smi

> <i_m_source_file_index>
2511

> <i_lp_mmshare_version>
43012

> <i_f3d_flags>
0

> <s_epik_input>
W05IMl1DKD1PKWMxW2NIXVtjSF1jKFtjSF1uMSlbTkhdQyg9TylbTkhdW0NAQEhdMltDSDJdW0NIMl1bQ0gyXVtDQEBIXShDKEYpKEYpRilbQ0gyXTI=

> <s_epik_cmdline>
J2VwaWtfcHl0aG9uJywgJy1waCcsICc3LjAnLCAnLXRuJywgJzgnLCAnLW1hJywgJzIwMCcsICctbWV0YWxfYmluZGluZycsICctaW1hZScsICc8aW5maWxlLm1hZT4nLCAnLW9tYWUnLCAnPG91dGZpbGUubWFlPic=

> <r_lp_tautomer_probability>
1

> <r_epik_Ionization_Penalty>
4.28758e-05

> <r_epik_Ionization_Penalty_Charging>
0

> <r_epik_Ionization_Penalty_Neutral>
4.28758e-05

> <r_epik_State_Penalty>
-0

> <r_epik_Charging_Adjusted_Penalty>
0

> <i_epik_Tot_Q>
0

> <i_epik_Tot_abs_Q>
0

> <r_epik_Metal_State_Penalty>
-0

> <b_epik_Metal_Only>
0

> <s_lp_Force_Field>
OPLS_2005

> <r_lp_Energy>
27.7433

> <b_lp_Chiralities_Consistent>
1

> <s_lp_Variant>
AV-unprocessed.smi:2511-4

> <Gold.Version>
5.8.1

> <Gold.Id.Protein>
6NUR|6NUR_protein|mol2

> <Gold.PLP.Fitness>
44.8981

> <Gold.PLP.PLP>
-36.8866

> <Gold.PLP.part.hbond>
-5.6508

> <Gold.PLP.part.metal>
0.0000

> <Gold.PLP.part.buried>
-0.8328

> <Gold.PLP.part.nonpolar>
-33.5629

> <Gold.PLP.part.repulsive>
4.1517

> <Gold.PLP.ligand.clash>
0.0000

> <Gold.PLP.ligand.torsion>
0.9145

> <Gold.PLP.Chemscore.Hbond>
3.2720

> <Gold.PLP.Chemscore.CHOScore>
0.0000

> <Gold.PLP.Chemscore.Metal>
0.0000

> <Gold.Chemscore.Hbonds>
donor molecule, donor type, donor heavy atom, donor atom, acceptor molecule, acceptor atom, score
      L1  H     1    24       P1 10952  0.56
      L1  H     1    25       P1 10186  0.71
      L1  H     8    28       P1 10175  0.13
      L1  H    11    29       P1 10175  0.50
      P1  H  7954  7966       L1    10  1.00

> <Gold.PLP.Chemscore.Internal.Correction>
0.0246

> <Gold.Rescore>
     Score         DG    S(hbond)    S(metal)    S(lipo)     H(rot)  DE(clash)    DE(int)     intcor
     15.42     -21.38       3.09        0.00      69.65       1.00       3.46       2.50       ----

> <Gold.Chemscore.Fitness>
15.4230

> <Gold.Chemscore.DG>
-21.3777

> <Gold.Chemscore.ZeroCoef>
-5.4800

> <Gold.Chemscore.Hbond>
3.0864

> <Gold.Chemscore.Metal>
0.0000

> <Gold.Chemscore.Lipo>
69.6495

> <Gold.Chemscore.Internal_Hbond>
0.0000

> <Gold.Chemscore.DEClash>
3.4576

> <Gold.Chemscore.DEInternal>
2.4971

> <Gold.Chemscore.Rot>
1.0000

> <Gold.Chemscore.Internal.Correction>
   9.000000E+99

> <Gold.Chemscore.Hbonds>
donor molecule, donor type, donor heavy atom, donor atom, acceptor molecule, acceptor atom, score
      L1  H     1    24       P1 10952  0.55
      L1  H     1    25       P1 10186  0.71
      L1  H     8    28       P1 10175  0.13
      L1  H    11    29       P1 10175  0.50
      P1  H  7954  7966       L1    10  0.98

> <Gold.Chemscore.Hbond.Weighted>
-10.3087

> <Gold.Chemscore.Metal.Weighted>
-0.0000

> <Gold.Chemscore.Lipo.Weighted>
-8.1490

> <Gold.Chemscore.Internal_Hbond.Weighted>
0.0000

> <Gold.Chemscore.DEClash.Weighted>
3.4576

> <Gold.Chemscore.DEInternal.Weighted>
2.4971

> <Gold.Chemscore.Rot.Weighted>
2.5600

> <Gold.Chemscore.Internal.Correction.Weighted>
   9.000000E+99

> <Gold.Protein.RotatedTorsions>
[ 6907 6896 6895 6894 ] final  -31.61 input  -60.11 | X-H torsion
[ 7974 7965 7964 7962 ] final  -41.98 input  175.53 | X-H torsion
[ 8008 7997 7996 7995 ] final  165.51 input   59.86 | X-H torsion
[ 10167 10162 10161 10158 ] final   -6.63 input  -65.29 | X-H torsion
[ 10718 10713 10712 10709 ] final  -51.38 input   66.30 | X-H torsion
[ 10763 10752 10751 10750 ] final  168.92 input  -60.55 | X-H torsion
[ 11005 11000 10999 10996 ] final  147.37 input  -57.11 | X-H torsion

> <Gold.Protein.ActiveResidues>
 VAL166  LYS551  ARG553  GLY616  TRP617  ASP618  TYR619  PRO620  LYS621  CYS622 
 ASP623  PHE694  ASN695  SER759  ASP760  ASP761  ALA762  ILE779  LEU786  VAL792 
 PHE793  MET794  SER795  GLU796  ALA797  LYS798  CYS799  TRP800  GLU811  SER814 

> <Gold.Protein.RotatedAtoms>
  151.0897  134.9909  159.8396 H   0  0  0  0  0  0  0  0  0  0  0  0  # atno 6907 bound_to 6896
  152.5428  134.2080  159.8748 H   0  0  0  0  0  0  0  0  0  0  0  0  # atno 6908 bound_to 6896
  151.2115  133.4509  159.2632 H   0  0  0  0  0  0  0  0  0  0  0  0  # atno 6909 bound_to 6896
  146.0160  140.6908  142.9201 H   0  0  0  0  0  0  0  0  0  0  0  0  # atno 7974 bound_to 7965
  156.1794  140.1668  156.8302 H   0  0  0  0  0  0  0  0  0  0  0  0  # atno 8008 bound_to 7997
  154.5343  140.0750  156.8433 H   0  0  0  0  0  0  0  0  0  0  0  0  # atno 8009 bound_to 7997
  155.3343  140.3381  155.4241 H   0  0  0  0  0  0  0  0  0  0  0  0  # atno 8010 bound_to 7997
  140.7003  143.6173  150.8646 H   0  0  0  0  0  0  0  0  0  0  0  0  # atno 10167 bound_to 10162
  156.1715  130.4149  149.9640 H   0  0  0  0  0  0  0  0  0  0  0  0  # atno 10718 bound_to 10713
  154.3756  135.2753  155.2241 H   0  0  0  0  0  0  0  0  0  0  0  0  # atno 10763 bound_to 10752
  154.4370  135.5963  153.6108 H   0  0  0  0  0  0  0  0  0  0  0  0  # atno 10764 bound_to 10752
  152.9836  135.6009  154.3992 H   0  0  0  0  0  0  0  0  0  0  0  0  # atno 10765 bound_to 10752
  140.0870  134.9063  157.1592 H   0  0  0  0  0  0  0  0  0  0  0  0  # atno 11005 bound_to 11000
  144.6971  140.3481  143.7187 LP  0  0  0  0  0  0  0  0  0  0  0  0  # atno 17320 bound_to 7965
  145.7268  139.1725  143.2453 LP  0  0  0  0  0  0  0  0  0  0  0  0  # atno 17321 bound_to 7965
  139.9894  143.5863  152.2915 LP  0  0  0  0  0  0  0  0  0  0  0  0  # atno 17342 bound_to 10162
  139.6513  144.7661  151.2142 LP  0  0  0  0  0  0  0  0  0  0  0  0  # atno 17343 bound_to 10162
  156.7439  130.9089  151.3633 LP  0  0  0  0  0  0  0  0  0  0  0  0  # atno 17370 bound_to 10713
  157.6806  130.9136  150.0258 LP  0  0  0  0  0  0  0  0  0  0  0  0  # atno 17371 bound_to 10713
  140.3405  134.2709  155.7213 LP  0  0  0  0  0  0  0  0  0  0  0  0  # atno 17394 bound_to 11000
  141.2066  133.7829  157.0168 LP  0  0  0  0  0  0  0  0  0  0  0  0  # atno 17395 bound_to 11000

$$$$
