AV-unprocessed.smi:1088|AV-procd|sdf|4728|dock1
  -GOLD-   22720 3253D 1   1.00000     0.00000
 Structure written by MMmdl.
 48 49  0  0  0  0  0  0  0  0  2 V2000
  152.2640  144.1462  154.5865 C   0  0  0  0  0  0  0  0  0  0  0  0
  151.3733  143.6956  153.5809 O   0  0  0  0  0  0  0  0  0  0  0  0
  151.4203  142.2898  153.4019 C   0  0  0  0  0  0  0  0  0  0  0  0
  150.1983  141.8542  152.5807 C   0  0  0  0  0  0  0  0  0  0  0  0
  149.0911  141.3681  153.4396 N   0  3  2  0  0  0  0  0  0  0  0  0
  147.8858  140.9213  152.7101 C   0  0  0  0  0  0  0  0  0  0  0  0
  146.7553  141.0173  153.7252 C   0  0  0  0  0  0  0  0  0  0  0  0
  147.1182  142.2673  154.5173 C   0  0  0  0  0  0  0  0  0  0  0  0
  148.6605  142.3277  154.4883 C   0  0  1  0  0  0  0  0  0  0  0  0
  149.3400  141.9830  155.8295 C   0  0  0  0  0  0  0  0  0  0  0  0
  149.9979  143.1451  156.4187 N   0  0  0  0  0  0  0  0  0  0  0  0
  150.4670  143.2222  157.6732 C   0  0  0  0  0  0  0  0  0  0  0  0
  150.4433  142.2793  158.4651 O   0  0  0  0  0  0  0  0  0  0  0  0
  151.0502  144.5757  158.0966 C   0  0  0  0  0  0  0  0  0  0  0  0
  152.0030  144.4479  159.2068 N   0  0  0  0  0  0  0  0  0  0  0  0
  151.5357  144.3106  160.5011 C   0  0  0  0  0  0  0  0  0  0  0  0
  152.3448  144.1927  161.5763 C   0  0  0  0  0  0  0  0  0  0  0  0
  153.7949  144.2094  161.4272 C   0  0  0  0  0  0  0  0  0  0  0  0
  154.5708  144.0824  162.3752 O   0  0  0  0  0  0  0  0  0  0  0  0
  154.2470  144.3698  160.0960 N   0  0  0  0  0  0  0  0  0  0  0  0
  155.6772  144.3819  159.8667 C   0  0  0  0  0  0  0  0  0  0  0  0
  153.3957  144.4709  158.9724 C   0  0  0  0  0  0  0  0  0  0  0  0
  153.8346  144.5719  157.8236 O   0  0  0  0  0  0  0  0  0  0  0  0
  152.1898  145.2293  154.6834 H   0  0  0  0  0  0  0  0  0  0  0  0
  153.2973  143.9011  154.3374 H   0  0  0  0  0  0  0  0  0  0  0  0
  152.0225  143.7046  155.5541 H   0  0  0  0  0  0  0  0  0  0  0  0
  152.3316  142.0221  152.8651 H   0  0  0  0  0  0  0  0  0  0  0  0
  151.4517  141.7765  154.3640 H   0  0  0  0  0  0  0  0  0  0  0  0
  149.8504  142.7042  151.9921 H   0  0  0  0  0  0  0  0  0  0  0  0
  150.4781  141.0764  151.8690 H   0  0  0  0  0  0  0  0  0  0  0  0
  147.6848  141.5936  151.8742 H   0  0  0  0  0  0  0  0  0  0  0  0
  148.0011  139.9120  152.3142 H   0  0  0  0  0  0  0  0  0  0  0  0
  145.7701  141.0778  153.2617 H   0  0  0  0  0  0  0  0  0  0  0  0
  146.7684  140.1459  154.3815 H   0  0  0  0  0  0  0  0  0  0  0  0
  146.7130  143.1446  154.0108 H   0  0  0  0  0  0  0  0  0  0  0  0
  146.6874  142.2506  155.5175 H   0  0  0  0  0  0  0  0  0  0  0  0
  148.9504  143.3395  154.1984 H   0  0  0  0  0  0  0  0  0  0  0  0
  148.6162  141.5428  156.5175 H   0  0  0  0  0  0  0  0  0  0  0  0
  150.1046  141.2221  155.6689 H   0  0  0  0  0  0  0  0  0  0  0  0
  150.0706  143.9691  155.8393 H   0  0  0  0  0  0  0  0  0  0  0  0
  151.5369  145.0231  157.2291 H   0  0  0  0  0  0  0  0  0  0  0  0
  150.2494  145.2634  158.3753 H   0  0  0  0  0  0  0  0  0  0  0  0
  150.4680  144.2960  160.6657 H   0  0  0  0  0  0  0  0  0  0  0  0
  151.9136  144.0840  162.5608 H   0  0  0  0  0  0  0  0  0  0  0  0
  155.9037  144.9900  158.9898 H   0  0  0  0  0  0  0  0  0  0  0  0
  155.9837  143.3449  159.7234 H   0  0  0  0  0  0  0  0  0  0  0  0
  156.1792  144.8323  160.7242 H   0  0  0  0  0  0  0  0  0  0  0  0
  149.4345  140.5590  153.9378 H   0  0  0  0  0  0  0  0  0  0  0  0
  1  2  1  0  0  0  0
  1 24  1  0  0  0  0
  1 25  1  0  0  0  0
  1 26  1  0  0  0  0
  2  3  1  0  0  0  0
  3  4  1  0  0  0  0
  3 27  1  0  0  0  0
  3 28  1  0  0  0  0
  4  5  1  0  0  0  0
  4 29  1  0  0  0  0
  4 30  1  0  0  0  0
  5  9  1  0  0  0  0
  5  6  1  0  0  0  0
  5 48  1  0  0  0  0
  6  7  1  0  0  0  0
  6 31  1  0  0  0  0
  6 32  1  0  0  0  0
  7  8  1  0  0  0  0
  7 33  1  0  0  0  0
  7 34  1  0  0  0  0
  8  9  1  0  0  0  0
  8 35  1  0  0  0  0
  8 36  1  0  0  0  0
  9 10  1  0  0  0  0
  9 37  1  0  0  0  0
 10 11  1  0  0  0  0
 10 38  1  0  0  0  0
 10 39  1  0  0  0  0
 11 12  1  0  0  0  0
 11 40  1  0  0  0  0
 12 13  2  0  0  0  0
 12 14  1  0  0  0  0
 14 15  1  0  0  0  0
 14 41  1  0  0  0  0
 14 42  1  0  0  0  0
 15 22  1  0  0  0  0
 15 16  1  0  0  0  0
 16 17  2  0  0  0  0
 16 43  1  0  0  0  0
 17 18  1  0  0  0  0
 17 44  1  0  0  0  0
 18 19  2  0  0  0  0
 18 20  1  0  0  0  0
 20 21  1  0  0  0  0
 20 22  1  0  0  0  0
 21 45  1  0  0  0  0
 21 46  1  0  0  0  0
 21 47  1  0  0  0  0
 22 23  2  0  0  0  0
M  CHG  1   5   1
M  END
> <s_m_source_file>
AV-unprocessed.smi

> <i_m_source_file_index>
1088

> <i_lp_mmshare_version>
43012

> <i_f3d_flags>
0

> <s_epik_input>
W0NIM11PW0NIMl1bQ0gyXU4xW0NIMl1bQ0gyXVtDSDJdW0NASF0xW0NIMl1bTkhdQyg9TylbQ0gyXW4yW2NIXVtjSF1jKD1PKW4oW0NIM10pYzI9Tw==

> <s_epik_cmdline>
J2VwaWtfcHl0aG9uJywgJy1waCcsICc3LjAnLCAnLXRuJywgJzgnLCAnLW1hJywgJzIwMCcsICctbWV0YWxfYmluZGluZycsICctaW1hZScsICc8aW5maWxlLm1hZT4nLCAnLW9tYWUnLCAnPG91dGZpbGUubWFlPic=

> <r_lp_tautomer_probability>
1

> <r_epik_Ionization_Penalty>
0.0127388

> <r_epik_Ionization_Penalty_Charging>
0.0127387

> <r_epik_Ionization_Penalty_Neutral>
8.26414e-08

> <r_epik_State_Penalty>
0.00987716

> <r_epik_Charging_Adjusted_Penalty>
0.0226159

> <i_epik_Tot_Q>
1

> <i_epik_Tot_abs_Q>
1

> <r_epik_Metal_State_Penalty>
0.00987836

> <b_epik_Metal_Only>
0

> <s_lp_Force_Field>
OPLS_2005

> <r_lp_Energy>
37.5103

> <b_lp_Chiralities_Consistent>
1

> <s_lp_Variant>
AV-unprocessed.smi:1088-1

> <Gold.Version>
5.8.1

> <Gold.Id.Protein>
6NUR|6NUR_protein|mol2

> <Gold.PLP.Fitness>
49.9793

> <Gold.PLP.PLP>
-49.8119

> <Gold.PLP.part.hbond>
-2.3440

> <Gold.PLP.part.metal>
0.0000

> <Gold.PLP.part.buried>
-3.6284

> <Gold.PLP.part.nonpolar>
-42.8256

> <Gold.PLP.part.repulsive>
0.3422

> <Gold.PLP.ligand.clash>
0.0000

> <Gold.PLP.ligand.torsion>
1.6994

> <Gold.PLP.Chemscore.Hbond>
1.0000

> <Gold.PLP.Chemscore.CHOScore>
0.0000

> <Gold.PLP.Chemscore.Metal>
0.0000

> <Gold.Chemscore.Hbonds>
donor molecule, donor type, donor heavy atom, donor atom, acceptor molecule, acceptor atom, score
      L1  H    11    40       P1  8028  0.25

> <Gold.PLP.Chemscore.Internal.Correction>
0.5662

> <Gold.Rescore>
     Score         DG    S(hbond)    S(metal)    S(lipo)     H(rot)  DE(clash)    DE(int)     intcor
     11.94     -14.74       1.34        0.00      97.16       2.57       1.03       1.76       ----

> <Gold.Chemscore.Fitness>
11.9420

> <Gold.Chemscore.DG>
-14.7372

> <Gold.Chemscore.ZeroCoef>
-5.4800

> <Gold.Chemscore.Hbond>
1.3374

> <Gold.Chemscore.Metal>
0.0000

> <Gold.Chemscore.Lipo>
97.1569

> <Gold.Chemscore.Internal_Hbond>
0.0000

> <Gold.Chemscore.DEClash>
1.0345

> <Gold.Chemscore.DEInternal>
1.7608

> <Gold.Chemscore.Rot>
2.5692

> <Gold.Chemscore.Internal.Correction>
   9.000000E+99

> <Gold.Chemscore.Hbonds>
donor molecule, donor type, donor heavy atom, donor atom, acceptor molecule, acceptor atom, score
      L1  H    11    40       P1  8028  0.24

> <Gold.Chemscore.Hbond.Weighted>
-4.4670

> <Gold.Chemscore.Metal.Weighted>
-0.0000

> <Gold.Chemscore.Lipo.Weighted>
-11.3674

> <Gold.Chemscore.Internal_Hbond.Weighted>
0.0000

> <Gold.Chemscore.DEClash.Weighted>
1.0345

> <Gold.Chemscore.DEInternal.Weighted>
1.7608

> <Gold.Chemscore.Rot.Weighted>
6.5772

> <Gold.Chemscore.Internal.Correction.Weighted>
   9.000000E+99

> <Gold.Protein.RotatedTorsions>
[ 6907 6896 6895 6894 ] final -165.19 input  -60.11 | X-H torsion
[ 7974 7965 7964 7962 ] final  -50.16 input  175.53 | X-H torsion
[ 8008 7997 7996 7995 ] final   13.11 input   59.86 | X-H torsion
[ 10167 10162 10161 10158 ] final  -95.13 input  -65.29 | X-H torsion
[ 10718 10713 10712 10709 ] final   39.10 input   66.30 | X-H torsion
[ 10763 10752 10751 10750 ] final  -47.09 input  -60.55 | X-H torsion
[ 11005 11000 10999 10996 ] final -137.80 input  -57.11 | X-H torsion

> <Gold.Protein.ActiveResidues>
 VAL166  LYS551  ARG553  GLY616  TRP617  ASP618  TYR619  PRO620  LYS621  CYS622 
 ASP623  PHE694  ASN695  SER759  ASP760  ASP761  ALA762  ILE779  LEU786  VAL792 
 PHE793  MET794  SER795  GLU796  ALA797  LYS798  CYS799  TRP800  GLU811  SER814 

> <Gold.Protein.RotatedAtoms>
  151.4238  133.3690  159.2759 H   0  0  0  0  0  0  0  0  0  0  0  0  # atno 6907 bound_to 6896
  150.9274  134.8692  159.7540 H   0  0  0  0  0  0  0  0  0  0  0  0  # atno 6908 bound_to 6896
  152.5012  134.4180  159.9523 H   0  0  0  0  0  0  0  0  0  0  0  0  # atno 6909 bound_to 6896
  145.9328  140.7733  142.9591 H   0  0  0  0  0  0  0  0  0  0  0  0  # atno 7974 bound_to 7965
  154.8300  140.2898  155.5729 H   0  0  0  0  0  0  0  0  0  0  0  0  # atno 8008 bound_to 7997
  156.3004  140.2534  156.3154 H   0  0  0  0  0  0  0  0  0  0  0  0  # atno 8009 bound_to 7997
  154.9242  140.0385  157.2003 H   0  0  0  0  0  0  0  0  0  0  0  0  # atno 8010 bound_to 7997
  140.3073  143.3126  152.0185 H   0  0  0  0  0  0  0  0  0  0  0  0  # atno 10167 bound_to 10162
  157.3666  130.7678  149.7087 H   0  0  0  0  0  0  0  0  0  0  0  0  # atno 10718 bound_to 10713
  154.0557  135.6625  153.4805 H   0  0  0  0  0  0  0  0  0  0  0  0  # atno 10763 bound_to 10752
  153.0446  135.5123  154.7707 H   0  0  0  0  0  0  0  0  0  0  0  0  # atno 10764 bound_to 10752
  154.6728  135.3032  154.9686 H   0  0  0  0  0  0  0  0  0  0  0  0  # atno 10765 bound_to 10752
  140.8676  134.2090  157.4670 H   0  0  0  0  0  0  0  0  0  0  0  0  # atno 11005 bound_to 11000
  144.6767  140.2155  143.7372 LP  0  0  0  0  0  0  0  0  0  0  0  0  # atno 17320 bound_to 7965
  145.8403  139.2127  143.1831 LP  0  0  0  0  0  0  0  0  0  0  0  0  # atno 17321 bound_to 7965
  139.4901  144.6411  151.6875 LP  0  0  0  0  0  0  0  0  0  0  0  0  # atno 17342 bound_to 10162
  140.5599  144.0286  150.6165 LP  0  0  0  0  0  0  0  0  0  0  0  0  # atno 17343 bound_to 10162
  155.9747  130.4099  150.3901 LP  0  0  0  0  0  0  0  0  0  0  0  0  # atno 17370 bound_to 10713
  157.1986  131.0432  151.2662 LP  0  0  0  0  0  0  0  0  0  0  0  0  # atno 17371 bound_to 10713
  139.8710  134.9759  156.4902 LP  0  0  0  0  0  0  0  0  0  0  0  0  # atno 17394 bound_to 11000
  140.8610  133.8060  155.9265 LP  0  0  0  0  0  0  0  0  0  0  0  0  # atno 17395 bound_to 11000

$$$$
