AV-unprocessed.smi:1697|AV-procd|sdf|6806|dock6
  -GOLD-   22720 7583D 1   1.00000     0.00000
 Structure written by MMmdl.
 54 56  0  0  0  0  0  0  0  0  2 V2000
  146.2083  143.8593  159.1054 C   0  0  0  0  0  0  0  0  0  0  0  0
  145.3783  143.7710  157.8230 C   0  0  0  0  0  0  0  0  0  0  0  0
  145.3690  142.4215  157.3812 O   0  0  0  0  0  0  0  0  0  0  0  0
  144.4325  142.1413  156.3471 C   0  0  2  0  0  0  0  0  0  0  0  0
  144.4868  140.6622  155.9212 C   0  0  0  0  0  0  0  0  0  0  0  0
  145.8425  140.3101  155.2860 C   0  0  0  0  0  0  0  0  0  0  0  0
  146.1366  141.1920  154.1249 N   0  3  2  0  0  0  0  0  0  0  0  0
  147.3739  140.8103  153.3962 C   0  0  0  0  0  0  0  0  0  0  0  0
  148.4587  140.2464  154.3349 C   0  0  1  0  0  0  0  0  0  0  0  0
  149.4384  139.5884  153.5539 O   0  0  0  0  0  0  0  0  0  0  0  0
  149.1289  141.3540  155.1705 C   0  0  0  0  0  0  0  0  0  0  0  0
  149.8886  140.8208  156.2873 N   0  0  0  0  0  0  0  0  0  0  0  0
  149.9573  139.5332  156.6763 C   0  0  0  0  0  0  0  0  0  0  0  0
  150.7205  139.2542  157.7284 N   0  0  0  0  0  0  0  0  0  0  0  0
  151.2023  140.5080  158.0635 C   0  0  0  0  0  0  0  0  0  0  0  0
  152.0752  140.9074  159.0989 C   0  0  0  0  0  0  0  0  0  0  0  0
  152.4393  142.2633  159.2573 C   0  0  0  0  0  0  0  0  0  0  0  0
  153.3814  142.6477  160.3845 C   0  0  0  0  0  0  0  0  0  0  0  0
  151.9276  143.2447  158.3709 C   0  0  0  0  0  0  0  0  0  0  0  0
  152.3049  144.7076  158.5229 C   0  0  0  0  0  0  0  0  0  0  0  0
  151.0553  142.8631  157.3299 C   0  0  0  0  0  0  0  0  0  0  0  0
  150.6999  141.5104  157.1827 C   0  0  0  0  0  0  0  0  0  0  0  0
  146.1282  142.6263  154.5126 C   0  0  0  0  0  0  0  0  0  0  0  0
  144.7823  143.0278  155.1423 C   0  0  0  0  0  0  0  0  0  0  0  0
  146.2483  144.8844  159.4741 H   0  0  0  0  0  0  0  0  0  0  0  0
  147.2318  143.5262  158.9324 H   0  0  0  0  0  0  0  0  0  0  0  0
  145.7811  143.2368  159.8920 H   0  0  0  0  0  0  0  0  0  0  0  0
  144.3663  144.1257  158.0173 H   0  0  0  0  0  0  0  0  0  0  0  0
  145.8132  144.4149  157.0572 H   0  0  0  0  0  0  0  0  0  0  0  0
  143.4266  142.3972  156.6843 H   0  0  0  0  0  0  0  0  0  0  0  0
  144.2864  140.0028  156.7650 H   0  0  0  0  0  0  0  0  0  0  0  0
  143.6930  140.4687  155.1984 H   0  0  0  0  0  0  0  0  0  0  0  0
  146.6385  140.4019  156.0269 H   0  0  0  0  0  0  0  0  0  0  0  0
  145.8239  139.2662  154.9761 H   0  0  0  0  0  0  0  0  0  0  0  0
  147.1452  140.0557  152.6417 H   0  0  0  0  0  0  0  0  0  0  0  0
  147.7502  141.6772  152.8507 H   0  0  0  0  0  0  0  0  0  0  0  0
  148.0256  139.5156  155.0171 H   0  0  0  0  0  0  0  0  0  0  0  0
  149.5066  140.0267  152.7190 H   0  0  0  0  0  0  0  0  0  0  0  0
  149.7927  141.9577  154.5501 H   0  0  0  0  0  0  0  0  0  0  0  0
  148.3738  142.0333  155.5684 H   0  0  0  0  0  0  0  0  0  0  0  0
  149.4187  138.7554  156.1548 H   0  0  0  0  0  0  0  0  0  0  0  0
  152.4655  140.1595  159.7736 H   0  0  0  0  0  0  0  0  0  0  0  0
  152.9008  143.3562  161.0595 H   0  0  0  0  0  0  0  0  0  0  0  0
  154.2861  143.1070  159.9858 H   0  0  0  0  0  0  0  0  0  0  0  0
  153.6785  141.7772  160.9700 H   0  0  0  0  0  0  0  0  0  0  0  0
  151.8192  145.3247  157.7664 H   0  0  0  0  0  0  0  0  0  0  0  0
  153.3823  144.8371  158.4193 H   0  0  0  0  0  0  0  0  0  0  0  0
  152.0031  145.0802  159.5019 H   0  0  0  0  0  0  0  0  0  0  0  0
  150.6607  143.6011  156.6477 H   0  0  0  0  0  0  0  0  0  0  0  0
  146.9464  142.8216  155.2078 H   0  0  0  0  0  0  0  0  0  0  0  0
  146.3061  143.2463  153.6331 H   0  0  0  0  0  0  0  0  0  0  0  0
  143.9948  142.9453  154.3919 H   0  0  0  0  0  0  0  0  0  0  0  0
  144.8083  144.0755  155.4444 H   0  0  0  0  0  0  0  0  0  0  0  0
  145.3787  141.0762  153.4667 H   0  0  0  0  0  0  0  0  0  0  0  0
  1  2  1  0  0  0  0
  1 25  1  0  0  0  0
  1 26  1  0  0  0  0
  1 27  1  0  0  0  0
  2  3  1  0  0  0  0
  2 28  1  0  0  0  0
  2 29  1  0  0  0  0
  3  4  1  0  0  0  0
  4 24  1  0  0  0  0
  4  5  1  0  0  0  0
  4 30  1  0  0  0  0
  5  6  1  0  0  0  0
  5 31  1  0  0  0  0
  5 32  1  0  0  0  0
  6  7  1  0  0  0  0
  6 33  1  0  0  0  0
  6 34  1  0  0  0  0
  7  8  1  0  0  0  0
  7 23  1  0  0  0  0
  7 54  1  0  0  0  0
  8  9  1  0  0  0  0
  8 35  1  0  0  0  0
  8 36  1  0  0  0  0
  9 10  1  0  0  0  0
  9 11  1  0  0  0  0
  9 37  1  0  0  0  0
 10 38  1  0  0  0  0
 11 12  1  0  0  0  0
 11 39  1  0  0  0  0
 11 40  1  0  0  0  0
 12 22  1  0  0  0  0
 12 13  1  0  0  0  0
 13 14  2  0  0  0  0
 13 41  1  0  0  0  0
 14 15  1  0  0  0  0
 15 22  2  0  0  0  0
 15 16  1  0  0  0  0
 16 17  2  0  0  0  0
 16 42  1  0  0  0  0
 17 18  1  0  0  0  0
 17 19  1  0  0  0  0
 18 43  1  0  0  0  0
 18 44  1  0  0  0  0
 18 45  1  0  0  0  0
 19 20  1  0  0  0  0
 19 21  2  0  0  0  0
 20 46  1  0  0  0  0
 20 47  1  0  0  0  0
 20 48  1  0  0  0  0
 21 22  1  0  0  0  0
 21 49  1  0  0  0  0
 23 24  1  0  0  0  0
 23 50  1  0  0  0  0
 23 51  1  0  0  0  0
 24 52  1  0  0  0  0
 24 53  1  0  0  0  0
M  CHG  1   7   1
M  END
> <s_m_source_file>
AV-unprocessed.smi

> <i_m_source_file_index>
1697

> <i_lp_mmshare_version>
43012

> <i_f3d_flags>
0

> <s_epik_input>
W0NIM11bQ0gyXU9bQ0hdMVtDSDJdW0NIMl1OKFtDSDJdW0NIMl0xKVtDSDJdW0NASF0oW09IXSlbQ0gyXW4oW2NIXW4yKWMoYzIzKVtjSF1jKFtDSDNdKWMoW2NIXTMpW0NIM10=

> <s_epik_cmdline>
J2VwaWtfcHl0aG9uJywgJy1waCcsICc3LjAnLCAnLXRuJywgJzgnLCAnLW1hJywgJzIwMCcsICctbWV0YWxfYmluZGluZycsICctaW1hZScsICc8aW5maWxlLm1hZT4nLCAnLW9tYWUnLCAnPG91dGZpbGUubWFlPic=

> <r_epik_Ionization_Penalty>
0.112476

> <r_epik_Ionization_Penalty_Charging>
0.0244612

> <r_epik_Ionization_Penalty_Neutral>
0.0880147

> <r_epik_State_Penalty>
0.0961447

> <r_epik_Charging_Adjusted_Penalty>
0.120606

> <i_epik_Tot_Q>
1

> <i_epik_Tot_abs_Q>
1

> <r_epik_Metal_State_Penalty>
0.0206204

> <b_epik_Metal_Only>
0

> <s_lp_Force_Field>
OPLS_2005

> <r_lp_Energy>
22.8638

> <b_lp_Chiralities_Consistent>
1

> <s_lp_Variant>
AV-unprocessed.smi:1697-4

> <Gold.Version>
5.8.1

> <Gold.Id.Protein>
6NUR|6NUR_protein|mol2

> <Gold.PLP.Fitness>
52.1010

> <Gold.PLP.PLP>
-44.2270

> <Gold.PLP.part.hbond>
-1.7812

> <Gold.PLP.part.metal>
0.0000

> <Gold.PLP.part.buried>
-6.7899

> <Gold.PLP.part.nonpolar>
-37.6544

> <Gold.PLP.part.repulsive>
0.0585

> <Gold.PLP.ligand.clash>
0.0000

> <Gold.PLP.ligand.torsion>
0.6447

> <Gold.PLP.Chemscore.Hbond>
2.9825

> <Gold.PLP.Chemscore.CHOScore>
0.0000

> <Gold.PLP.Chemscore.Metal>
0.0000

> <Gold.Chemscore.Hbonds>
donor molecule, donor type, donor heavy atom, donor atom, acceptor molecule, acceptor atom, score
      L1  H     7    54       P1 10175  1.95
      L1  H    10    38       P1  7957  1.00

> <Gold.PLP.Chemscore.Internal.Correction>
0.2160

> <Gold.Rescore>
     Score         DG    S(hbond)    S(metal)    S(lipo)     H(rot)  DE(clash)    DE(int)     intcor
     18.58     -19.57       1.89        0.00     116.03       2.27       0.21       0.78       ----

> <Gold.Chemscore.Fitness>
18.5820

> <Gold.Chemscore.DG>
-19.5663

> <Gold.Chemscore.ZeroCoef>
-5.4800

> <Gold.Chemscore.Hbond>
1.8936

> <Gold.Chemscore.Metal>
0.0000

> <Gold.Chemscore.Lipo>
116.0302

> <Gold.Chemscore.Internal_Hbond>
0.0000

> <Gold.Chemscore.DEClash>
0.2085

> <Gold.Chemscore.DEInternal>
0.7759

> <Gold.Chemscore.Rot>
2.2710

> <Gold.Chemscore.Internal.Correction>
   9.000000E+99

> <Gold.Chemscore.Hbonds>
donor molecule, donor type, donor heavy atom, donor atom, acceptor molecule, acceptor atom, score
      L1  H     7    54       P1 10175  0.50
      L1  H    10    38       P1  7957  0.93

> <Gold.Chemscore.Hbond.Weighted>
-6.3245

> <Gold.Chemscore.Metal.Weighted>
-0.0000

> <Gold.Chemscore.Lipo.Weighted>
-13.5755

> <Gold.Chemscore.Internal_Hbond.Weighted>
0.0000

> <Gold.Chemscore.DEClash.Weighted>
0.2085

> <Gold.Chemscore.DEInternal.Weighted>
0.7759

> <Gold.Chemscore.Rot.Weighted>
5.8137

> <Gold.Chemscore.Internal.Correction.Weighted>
   9.000000E+99

> <Gold.Protein.RotatedTorsions>
[ 6907 6896 6895 6894 ] final   23.94 input  -60.11 | X-H torsion
[ 7974 7965 7964 7962 ] final  120.66 input  175.53 | X-H torsion
[ 8008 7997 7996 7995 ] final   65.19 input   59.86 | X-H torsion
[ 10167 10162 10161 10158 ] final -169.54 input  -65.29 | X-H torsion
[ 10718 10713 10712 10709 ] final   61.56 input   66.30 | X-H torsion
[ 10763 10752 10751 10750 ] final  -33.48 input  -60.55 | X-H torsion
[ 11005 11000 10999 10996 ] final   21.41 input  -57.11 | X-H torsion

> <Gold.Protein.ActiveResidues>
 VAL166  LYS551  ARG553  GLY616  TRP617  ASP618  TYR619  PRO620  LYS621  CYS622 
 ASP623  PHE694  ASN695  SER759  ASP760  ASP761  ALA762  ILE779  LEU786  VAL792 
 PHE793  MET794  SER795  GLU796  ALA797  LYS798  CYS799  TRP800  GLU811  SER814 

> <Gold.Protein.RotatedAtoms>
  151.9499  135.0174  160.0541 H   0  0  0  0  0  0  0  0  0  0  0  0  # atno 6907 bound_to 6896
  152.1962  133.4803  159.5042 H   0  0  0  0  0  0  0  0  0  0  0  0  # atno 6908 bound_to 6896
  150.6945  134.1566  159.4203 H   0  0  0  0  0  0  0  0  0  0  0  0  # atno 6909 bound_to 6896
  145.1285  139.3343  143.4677 H   0  0  0  0  0  0  0  0  0  0  0  0  # atno 7974 bound_to 7965
  155.6579  140.3497  155.4772 H   0  0  0  0  0  0  0  0  0  0  0  0  # atno 8008 bound_to 7997
  155.9793  140.1171  157.0764 H   0  0  0  0  0  0  0  0  0  0  0  0  # atno 8009 bound_to 7997
  154.4187  140.1141  156.5399 H   0  0  0  0  0  0  0  0  0  0  0  0  # atno 8010 bound_to 7997
  139.5916  144.1201  152.1641 H   0  0  0  0  0  0  0  0  0  0  0  0  # atno 10167 bound_to 10162
  157.5837  130.9002  149.9477 H   0  0  0  0  0  0  0  0  0  0  0  0  # atno 10718 bound_to 10713
  153.8310  135.6866  153.4814 H   0  0  0  0  0  0  0  0  0  0  0  0  # atno 10763 bound_to 10752
  153.1511  135.4618  154.9636 H   0  0  0  0  0  0  0  0  0  0  0  0  # atno 10764 bound_to 10752
  154.7887  135.3294  154.7773 H   0  0  0  0  0  0  0  0  0  0  0  0  # atno 10765 bound_to 10752
  140.3919  134.1810  155.7662 H   0  0  0  0  0  0  0  0  0  0  0  0  # atno 11005 bound_to 11000
  146.3516  140.1274  142.8598 LP  0  0  0  0  0  0  0  0  0  0  0  0  # atno 17320 bound_to 7965
  145.0662  140.9123  143.4909 LP  0  0  0  0  0  0  0  0  0  0  0  0  # atno 17321 bound_to 7965
  140.0776  144.5727  150.7145 LP  0  0  0  0  0  0  0  0  0  0  0  0  # atno 17342 bound_to 10162
  140.7178  143.2560  151.4378 LP  0  0  0  0  0  0  0  0  0  0  0  0  # atno 17343 bound_to 10162
  156.0884  130.3665  150.0442 LP  0  0  0  0  0  0  0  0  0  0  0  0  # atno 17370 bound_to 10713
  156.8577  130.9481  151.3620 LP  0  0  0  0  0  0  0  0  0  0  0  0  # atno 17371 bound_to 10713
  141.1888  133.8253  157.0982 LP  0  0  0  0  0  0  0  0  0  0  0  0  # atno 17394 bound_to 11000
  140.0400  134.9859  157.0944 LP  0  0  0  0  0  0  0  0  0  0  0  0  # atno 17395 bound_to 11000

$$$$
