AV-unprocessed.smi:1897|AV-procd|sdf|7693|dock1
  -GOLD-   22720 9433D 1   1.00000     0.00000
 Structure written by MMmdl.
 38 40  0  0  0  0  0  0  0  0  3 V2000
  146.2972  136.5406  162.7547 C   0  0  0  0  0  0  0  0  0  0  0  0
  147.0675  136.1273  161.5478 C   0  0  0  0  0  0  0  0  0  0  0  0
  147.8132  136.9793  160.8400 N   0  0  0  0  0  0  0  0  0  0  0  0
  148.4319  136.3620  159.7630 N   0  0  0  0  0  0  0  0  0  0  0  0
  148.1342  135.0584  159.6620 C   0  0  0  0  0  0  0  0  0  0  0  0
  148.6192  134.2800  158.6765 N   0  5  0  0  0  0  0  0  0  0  0  0
  148.6356  134.6735  157.3766 C   0  0  0  0  0  0  0  0  0  0  0  0
  148.3502  135.8127  157.0097 O   0  0  0  0  0  0  0  0  0  0  0  0
  148.9717  133.7574  156.4485 N   0  0  0  0  0  0  0  0  0  0  0  0
  148.9677  133.9627  155.0041 C   0  0  1  0  0  0  0  0  0  0  0  0
  149.2646  132.6825  154.2122 C   0  0  0  0  0  0  0  0  0  0  0  0
  148.4500  132.8170  152.9135 C   0  0  0  0  0  0  0  0  0  0  0  0
  147.7268  134.1045  153.0124 N   0  3  1  0  0  0  0  0  0  0  0  0
  146.4788  134.2255  152.2165 C   0  0  0  0  0  0  0  0  0  0  0  0
  145.2832  133.5162  152.8741 C   0  0  0  0  0  0  0  0  0  0  0  0
  145.0981  133.9943  154.3177 C   0  0  0  0  0  0  0  0  0  0  0  0
  146.3852  133.7452  155.1105 C   0  0  0  0  0  0  0  0  0  0  0  0
  147.6111  134.4296  154.4508 C   0  0  1  0  0  0  0  0  0  0  0  0
  147.0600  134.4819  160.9349 S   0  0  0  0  0  0  0  0  0  0  0  0
  145.3513  136.9917  162.4550 H   0  0  0  0  0  0  0  0  0  0  0  0
  146.8654  137.2669  163.3365 H   0  0  0  0  0  0  0  0  0  0  0  0
  146.0893  135.6760  163.3851 H   0  0  0  0  0  0  0  0  0  0  0  0
  149.2055  132.8315  156.7765 H   0  0  0  0  0  0  0  0  0  0  0  0
  149.7279  134.7015  154.7418 H   0  0  0  0  0  0  0  0  0  0  0  0
  150.3318  132.5696  154.0191 H   0  0  0  0  0  0  0  0  0  0  0  0
  148.9356  131.7986  154.7611 H   0  0  0  0  0  0  0  0  0  0  0  0
  149.0870  132.8128  152.0287 H   0  0  0  0  0  0  0  0  0  0  0  0
  147.7528  131.9829  152.8255 H   0  0  0  0  0  0  0  0  0  0  0  0
  146.2512  135.2873  152.1134 H   0  0  0  0  0  0  0  0  0  0  0  0
  146.6462  133.8456  151.2081 H   0  0  0  0  0  0  0  0  0  0  0  0
  144.3768  133.7100  152.2997 H   0  0  0  0  0  0  0  0  0  0  0  0
  145.4300  132.4357  152.8585 H   0  0  0  0  0  0  0  0  0  0  0  0
  144.8509  135.0564  154.3325 H   0  0  0  0  0  0  0  0  0  0  0  0
  144.2629  133.4705  154.7834 H   0  0  0  0  0  0  0  0  0  0  0  0
  146.2570  134.1079  156.1310 H   0  0  0  0  0  0  0  0  0  0  0  0
  146.5495  132.6697  155.1893 H   0  0  0  0  0  0  0  0  0  0  0  0
  147.5092  135.5104  154.5602 H   0  0  0  0  0  0  0  0  0  0  0  0
  148.3686  134.7884  152.6376 H   0  0  0  0  0  0  0  0  0  0  0  0
  1  2  1  0  0  0  0
  1 20  1  0  0  0  0
  1 21  1  0  0  0  0
  1 22  1  0  0  0  0
  2 19  1  0  0  0  0
  2  3  2  0  0  0  0
  3  4  1  0  0  0  0
  4  5  2  0  0  0  0
  5  6  1  0  0  0  0
  5 19  1  0  0  0  0
  6  7  1  0  0  0  0
  7  8  2  0  0  0  0
  7  9  1  0  0  0  0
  9 10  1  0  0  0  0
  9 23  1  0  0  0  0
 10 18  1  0  0  0  0
 10 11  1  0  0  0  0
 10 24  1  0  0  0  0
 11 12  1  0  0  0  0
 11 25  1  0  0  0  0
 11 26  1  0  0  0  0
 12 13  1  0  0  0  0
 12 27  1  0  0  0  0
 12 28  1  0  0  0  0
 13 18  1  0  0  0  0
 13 14  1  0  0  0  0
 13 38  1  0  0  0  0
 14 15  1  0  0  0  0
 14 29  1  0  0  0  0
 14 30  1  0  0  0  0
 15 16  1  0  0  0  0
 15 31  1  0  0  0  0
 15 32  1  0  0  0  0
 16 17  1  0  0  0  0
 16 33  1  0  0  0  0
 16 34  1  0  0  0  0
 17 18  1  0  0  0  0
 17 35  1  0  0  0  0
 17 36  1  0  0  0  0
 18 37  1  0  0  0  0
M  CHG  1   6  -1
M  CHG  1  13   1
M  END
> <s_m_source_file>
AV-unprocessed.smi

> <i_m_source_file_index>
1897

> <i_lp_mmshare_version>
43012

> <i_f3d_flags>
0

> <s_epik_input>
W0NIM11jMW5uYyhzMSlbTkhdQyg9TylbTkhdW0NASF0oW0NIMl1bQ0gyXTIpW0NAQEhdKE4yMylbQ0gyXVtDSDJdW0NIMl1bQ0gyXTM=

> <s_epik_cmdline>
J2VwaWtfcHl0aG9uJywgJy1waCcsICc3LjAnLCAnLXRuJywgJzgnLCAnLW1hJywgJzIwMCcsICctbWV0YWxfYmluZGluZycsICctaW1hZScsICc8aW5maWxlLm1hZT4nLCAnLW9tYWUnLCAnPG91dGZpbGUubWFlPic=

> <r_lp_tautomer_probability>
1

> <r_epik_Ionization_Penalty>
3.77712

> <r_epik_Ionization_Penalty_Charging>
3.67739

> <r_epik_Ionization_Penalty_Neutral>
0.0997294

> <r_epik_State_Penalty>
3.67514

> <r_epik_Charging_Adjusted_Penalty>
7.35254

> <i_epik_Tot_Q>
0

> <i_epik_Tot_abs_Q>
2

> <r_epik_Metal_State_Penalty>
0.540795

> <b_epik_Metal_Only>
1

> <s_lp_Force_Field>
OPLS_2005

> <r_lp_Energy>
30.11

> <b_lp_Chiralities_Consistent>
1

> <s_lp_Variant>
AV-unprocessed.smi:1897-10

> <Gold.Version>
5.8.1

> <Gold.Id.Protein>
6NUR|6NUR_protein|mol2

> <Gold.PLP.Fitness>
40.2472

> <Gold.PLP.PLP>
-23.7998

> <Gold.PLP.part.hbond>
-4.0000

> <Gold.PLP.part.metal>
0.0000

> <Gold.PLP.part.buried>
-3.0368

> <Gold.PLP.part.nonpolar>
-16.6383

> <Gold.PLP.part.repulsive>
0.0538

> <Gold.PLP.ligand.clash>
0.0000

> <Gold.PLP.ligand.torsion>
0.4184

> <Gold.PLP.Chemscore.Hbond>
5.7600

> <Gold.PLP.Chemscore.CHOScore>
0.0000

> <Gold.PLP.Chemscore.Metal>
0.0000

> <Gold.Chemscore.Hbonds>
donor molecule, donor type, donor heavy atom, donor atom, acceptor molecule, acceptor atom, score
      L1  H    13    38       P1  7948  2.00
      P1  H  6896  6909       L1     6  0.91
      P1  H  6931  6943       L1     3  0.90
      P1  H  6934  6947       L1     3  0.64

> <Gold.PLP.Chemscore.Internal.Correction>
0.0042

> <Gold.Rescore>
     Score         DG    S(hbond)    S(metal)    S(lipo)     H(rot)  DE(clash)    DE(int)     intcor
     14.84     -17.59       2.49        0.00      54.44       1.00       0.17       2.58       ----

> <Gold.Chemscore.Fitness>
14.8402

> <Gold.Chemscore.DG>
-17.5922

> <Gold.Chemscore.ZeroCoef>
-5.4800

> <Gold.Chemscore.Hbond>
2.4860

> <Gold.Chemscore.Metal>
0.0000

> <Gold.Chemscore.Lipo>
54.4355

> <Gold.Chemscore.Internal_Hbond>
0.0000

> <Gold.Chemscore.DEClash>
0.1728

> <Gold.Chemscore.DEInternal>
2.5792

> <Gold.Chemscore.Rot>
1.0000

> <Gold.Chemscore.Internal.Correction>
   9.000000E+99

> <Gold.Chemscore.Hbonds>
donor molecule, donor type, donor heavy atom, donor atom, acceptor molecule, acceptor atom, score
      L1  H    13    38       P1  7948  0.40
      P1  H  6896  6909       L1     6  0.03
      P1  H  6931  6943       L1     3  0.69
      P1  H  6934  6947       L1     3  0.57

> <Gold.Chemscore.Hbond.Weighted>
-8.3033

> <Gold.Chemscore.Metal.Weighted>
-0.0000

> <Gold.Chemscore.Lipo.Weighted>
-6.3690

> <Gold.Chemscore.Internal_Hbond.Weighted>
0.0000

> <Gold.Chemscore.DEClash.Weighted>
0.1728

> <Gold.Chemscore.DEInternal.Weighted>
2.5792

> <Gold.Chemscore.Rot.Weighted>
2.5600

> <Gold.Chemscore.Internal.Correction.Weighted>
   9.000000E+99

> <Gold.Protein.RotatedTorsions>
[ 6907 6896 6895 6894 ] final   35.79 input  -60.11 | X-H torsion
[ 7974 7965 7964 7962 ] final  113.40 input  175.53 | X-H torsion
[ 8008 7997 7996 7995 ] final -168.99 input   59.86 | X-H torsion
[ 10167 10162 10161 10158 ] final   98.59 input  -65.29 | X-H torsion
[ 10718 10713 10712 10709 ] final   32.73 input   66.30 | X-H torsion
[ 10763 10752 10751 10750 ] final  -39.08 input  -60.55 | X-H torsion
[ 11005 11000 10999 10996 ] final -114.60 input  -57.11 | X-H torsion

> <Gold.Protein.ActiveResidues>
 VAL166  LYS551  ARG553  GLY616  TRP617  ASP618  TYR619  PRO620  LYS621  CYS622 
 ASP623  PHE694  ASN695  SER759  ASP760  ASP761  ALA762  ILE779  LEU786  VAL792 
 PHE793  MET794  SER795  GLU796  ALA797  LYS798  CYS799  TRP800  GLU811  SER814 

> <Gold.Protein.RotatedAtoms>
  152.1209  134.9206  160.0562 H   0  0  0  0  0  0  0  0  0  0  0  0  # atno 6907 bound_to 6896
  152.0347  133.3947  159.4320 H   0  0  0  0  0  0  0  0  0  0  0  0  # atno 6908 bound_to 6896
  150.6849  134.3402  159.4908 H   0  0  0  0  0  0  0  0  0  0  0  0  # atno 6909 bound_to 6896
  145.2175  139.2877  143.4236 H   0  0  0  0  0  0  0  0  0  0  0  0  # atno 7974 bound_to 7965
  155.8989  140.1037  157.1364 H   0  0  0  0  0  0  0  0  0  0  0  0  # atno 8008 bound_to 7997
  154.4024  140.1296  156.4475 H   0  0  0  0  0  0  0  0  0  0  0  0  # atno 8009 bound_to 7997
  155.7446  140.3466  155.5123 H   0  0  0  0  0  0  0  0  0  0  0  0  # atno 8010 bound_to 7997
  139.7694  144.6927  151.0177 H   0  0  0  0  0  0  0  0  0  0  0  0  # atno 10167 bound_to 10162
  157.2889  130.7292  149.6599 H   0  0  0  0  0  0  0  0  0  0  0  0  # atno 10718 bound_to 10713
  153.9234  135.6780  153.4747 H   0  0  0  0  0  0  0  0  0  0  0  0  # atno 10763 bound_to 10752
  153.1016  135.4825  154.8875 H   0  0  0  0  0  0  0  0  0  0  0  0  # atno 10764 bound_to 10752
  154.7466  135.3174  154.8591 H   0  0  0  0  0  0  0  0  0  0  0  0  # atno 10765 bound_to 10752
  141.0541  133.9640  157.2784 H   0  0  0  0  0  0  0  0  0  0  0  0  # atno 11005 bound_to 11000
  146.3384  140.2470  142.8597 LP  0  0  0  0  0  0  0  0  0  0  0  0  # atno 17320 bound_to 7965
  144.9797  140.8448  143.5404 LP  0  0  0  0  0  0  0  0  0  0  0  0  # atno 17321 bound_to 7965
  140.7813  143.4605  151.0284 LP  0  0  0  0  0  0  0  0  0  0  0  0  # atno 17342 bound_to 10162
  139.8289  143.7717  152.3179 LP  0  0  0  0  0  0  0  0  0  0  0  0  # atno 17343 bound_to 10162
  155.9666  130.4315  150.4923 LP  0  0  0  0  0  0  0  0  0  0  0  0  # atno 17370 bound_to 10713
  157.2881  131.0620  151.2152 LP  0  0  0  0  0  0  0  0  0  0  0  0  # atno 17371 bound_to 10713
  139.9375  135.0195  156.8604 LP  0  0  0  0  0  0  0  0  0  0  0  0  # atno 17394 bound_to 11000
  140.5997  134.0183  155.7532 LP  0  0  0  0  0  0  0  0  0  0  0  0  # atno 17395 bound_to 11000

$$$$
