AV-unprocessed.smi:1672|AV-procd|sdf|6702|dock8
  -GOLD-   22720 7443D 1   1.00000     0.00000
 Structure written by MMmdl.
 48 50  0  0  0  0  0  0  0  0  2 V2000
  156.4682  138.5111  164.7447 C   0  0  0  0  0  0  0  0  0  0  0  0
  155.2438  138.5576  163.8199 C   0  0  2  0  0  0  0  0  0  0  0  0
  154.8632  137.1585  163.3068 C   0  0  0  0  0  0  0  0  0  0  0  0
  153.6608  137.2202  162.3491 C   0  0  0  0  0  0  0  0  0  0  0  0
  153.9294  138.1346  161.2101 N   0  3  1  0  0  0  0  0  0  0  0  0
  152.8493  138.1037  160.1902 C   0  0  0  0  0  0  0  0  0  0  0  0
  152.8097  139.3887  159.3407 C   0  0  1  0  0  0  0  0  0  0  0  0
  153.8373  139.3247  158.3703 O   0  0  0  0  0  0  0  0  0  0  0  0
  151.4509  139.5756  158.6378 C   0  0  0  0  0  0  0  0  0  0  0  0
  151.3590  140.8510  157.9391 N   0  0  0  0  0  0  0  0  0  0  0  0
  151.0286  141.0898  156.6440 C   0  0  0  0  0  0  0  0  0  0  0  0
  150.6838  139.9902  155.6873 C   0  0  0  0  0  0  0  0  0  0  0  0
  150.4838  140.4586  154.3711 O   0  0  0  0  0  0  0  0  0  0  0  0
  151.0265  142.3706  156.2731 N   0  0  0  0  0  0  0  0  0  0  0  0
  151.3875  143.0254  157.4342 C   0  0  0  0  0  0  0  0  0  0  0  0
  151.5646  144.4027  157.6964 C   0  0  0  0  0  0  0  0  0  0  0  0
  151.9424  144.8418  158.9824 C   0  0  0  0  0  0  0  0  0  0  0  0
  152.1472  143.9124  160.0227 C   0  0  0  0  0  0  0  0  0  0  0  0
  151.9756  142.5355  159.7830 C   0  0  0  0  0  0  0  0  0  0  0  0
  151.6002  142.1026  158.4971 C   0  0  0  0  0  0  0  0  0  0  0  0
  154.2568  139.5071  161.6806 C   0  0  0  0  0  0  0  0  0  0  0  0
  155.4734  139.4931  162.6211 C   0  0  0  0  0  0  0  0  0  0  0  0
  157.3481  138.1357  164.2209 H   0  0  0  0  0  0  0  0  0  0  0  0
  156.2892  137.8614  165.6016 H   0  0  0  0  0  0  0  0  0  0  0  0
  156.7078  139.5033  165.1281 H   0  0  0  0  0  0  0  0  0  0  0  0
  154.4050  138.9466  164.3991 H   0  0  0  0  0  0  0  0  0  0  0  0
  155.7139  136.7075  162.7938 H   0  0  0  0  0  0  0  0  0  0  0  0
  154.6280  136.5040  164.1471 H   0  0  0  0  0  0  0  0  0  0  0  0
  153.4531  136.2169  161.9754 H   0  0  0  0  0  0  0  0  0  0  0  0
  152.7685  137.5520  162.8825 H   0  0  0  0  0  0  0  0  0  0  0  0
  152.9898  137.2527  159.5217 H   0  0  0  0  0  0  0  0  0  0  0  0
  151.8922  137.9411  160.6881 H   0  0  0  0  0  0  0  0  0  0  0  0
  152.9963  140.2592  159.9682 H   0  0  0  0  0  0  0  0  0  0  0  0
  154.1498  138.4342  158.3168 H   0  0  0  0  0  0  0  0  0  0  0  0
  151.2573  138.7572  157.9447 H   0  0  0  0  0  0  0  0  0  0  0  0
  150.6467  139.5426  159.3739 H   0  0  0  0  0  0  0  0  0  0  0  0
  151.4913  139.2572  155.6755 H   0  0  0  0  0  0  0  0  0  0  0  0
  149.7925  139.4642  156.0281 H   0  0  0  0  0  0  0  0  0  0  0  0
  149.6771  140.9492  154.3446 H   0  0  0  0  0  0  0  0  0  0  0  0
  151.4099  145.1231  156.9066 H   0  0  0  0  0  0  0  0  0  0  0  0
  152.0752  145.8969  159.1716 H   0  0  0  0  0  0  0  0  0  0  0  0
  152.4361  144.2576  161.0047 H   0  0  0  0  0  0  0  0  0  0  0  0
  152.1315  141.8220  160.5780 H   0  0  0  0  0  0  0  0  0  0  0  0
  154.4734  140.1595  160.8357 H   0  0  0  0  0  0  0  0  0  0  0  0
  153.3932  139.9345  162.1927 H   0  0  0  0  0  0  0  0  0  0  0  0
  155.6762  140.5055  162.9721 H   0  0  0  0  0  0  0  0  0  0  0  0
  156.3580  139.1762  162.0668 H   0  0  0  0  0  0  0  0  0  0  0  0
  154.7554  137.7751  160.7520 H   0  0  0  0  0  0  0  0  0  0  0  0
  1  2  1  0  0  0  0
  1 23  1  0  0  0  0
  1 24  1  0  0  0  0
  1 25  1  0  0  0  0
  2 22  1  0  0  0  0
  2  3  1  0  0  0  0
  2 26  1  0  0  0  0
  3  4  1  0  0  0  0
  3 27  1  0  0  0  0
  3 28  1  0  0  0  0
  4  5  1  0  0  0  0
  4 29  1  0  0  0  0
  4 30  1  0  0  0  0
  5  6  1  0  0  0  0
  5 21  1  0  0  0  0
  5 48  1  0  0  0  0
  6  7  1  0  0  0  0
  6 31  1  0  0  0  0
  6 32  1  0  0  0  0
  7  8  1  0  0  0  0
  7  9  1  0  0  0  0
  7 33  1  0  0  0  0
  8 34  1  0  0  0  0
  9 10  1  0  0  0  0
  9 35  1  0  0  0  0
  9 36  1  0  0  0  0
 10 20  1  0  0  0  0
 10 11  1  0  0  0  0
 11 12  1  0  0  0  0
 11 14  2  0  0  0  0
 12 13  1  0  0  0  0
 12 37  1  0  0  0  0
 12 38  1  0  0  0  0
 13 39  1  0  0  0  0
 14 15  1  0  0  0  0
 15 20  2  0  0  0  0
 15 16  1  0  0  0  0
 16 17  2  0  0  0  0
 16 40  1  0  0  0  0
 17 18  1  0  0  0  0
 17 41  1  0  0  0  0
 18 19  2  0  0  0  0
 18 42  1  0  0  0  0
 19 20  1  0  0  0  0
 19 43  1  0  0  0  0
 21 22  1  0  0  0  0
 21 44  1  0  0  0  0
 21 45  1  0  0  0  0
 22 46  1  0  0  0  0
 22 47  1  0  0  0  0
M  CHG  1   5   1
M  END
> <s_m_source_file>
AV-unprocessed.smi

> <i_m_source_file_index>
1672

> <i_lp_mmshare_version>
43012

> <i_f3d_flags>
0

> <s_epik_input>
W0NIM11bQ0hdMVtDSDJdW0NIMl1OKFtDSDJdW0NIMl0xKVtDSDJdW0NASF0oW09IXSlbQ0gyXW4oYyhuMilbQ0gyXVtPSF0pYyhjMjMpW2NIXVtjSF1bY0hdW2NIXTM=

> <s_epik_cmdline>
J2VwaWtfcHl0aG9uJywgJy1waCcsICc3LjAnLCAnLXRuJywgJzgnLCAnLW1hJywgJzIwMCcsICctbWV0YWxfYmluZGluZycsICctaW1hZScsICc8aW5maWxlLm1hZT4nLCAnLW9tYWUnLCAnPG91dGZpbGUubWFlPic=

> <r_epik_Ionization_Penalty>
0.0498263

> <r_epik_Ionization_Penalty_Charging>
0.00181365

> <r_epik_Ionization_Penalty_Neutral>
0.0480127

> <r_epik_State_Penalty>
0.0408546

> <r_epik_Charging_Adjusted_Penalty>
0.0426682

> <i_epik_Tot_Q>
1

> <i_epik_Tot_abs_Q>
1

> <r_epik_Metal_State_Penalty>
4.22946e-05

> <b_epik_Metal_Only>
0

> <s_lp_Force_Field>
OPLS_2005

> <r_lp_Energy>
23.0912

> <b_lp_Chiralities_Consistent>
1

> <s_lp_Variant>
AV-unprocessed.smi:1672-2

> <Gold.Version>
5.8.1

> <Gold.Id.Protein>
6NUR|6NUR_protein|mol2

> <Gold.PLP.Fitness>
49.9639

> <Gold.PLP.PLP>
-45.1207

> <Gold.PLP.part.hbond>
-1.9378

> <Gold.PLP.part.metal>
0.0000

> <Gold.PLP.part.buried>
-4.5127

> <Gold.PLP.part.nonpolar>
-38.3478

> <Gold.PLP.part.repulsive>
0.1327

> <Gold.PLP.ligand.clash>
0.0000

> <Gold.PLP.ligand.torsion>
0.5646

> <Gold.PLP.Chemscore.Hbond>
1.9760

> <Gold.PLP.Chemscore.CHOScore>
0.0000

> <Gold.PLP.Chemscore.Metal>
0.0000

> <Gold.Chemscore.Hbonds>
donor molecule, donor type, donor heavy atom, donor atom, acceptor molecule, acceptor atom, score
      P1  H  7989  7998       L1    13  0.91
      P1  H  7997  8009       L1     8  1.00

> <Gold.PLP.Chemscore.Internal.Correction>
0.0445

> <Gold.Rescore>
     Score         DG    S(hbond)    S(metal)    S(lipo)     H(rot)  DE(clash)    DE(int)     intcor
     18.09     -18.69       1.73        0.00     126.35       2.88       0.07       0.53       ----

> <Gold.Chemscore.Fitness>
18.0914

> <Gold.Chemscore.DG>
-18.6868

> <Gold.Chemscore.ZeroCoef>
-5.4800

> <Gold.Chemscore.Hbond>
1.7337

> <Gold.Chemscore.Metal>
0.0000

> <Gold.Chemscore.Lipo>
126.3545

> <Gold.Chemscore.Internal_Hbond>
0.0000

> <Gold.Chemscore.DEClash>
0.0663

> <Gold.Chemscore.DEInternal>
0.5292

> <Gold.Chemscore.Rot>
2.8778

> <Gold.Chemscore.Internal.Correction>
   9.000000E+99

> <Gold.Chemscore.Hbonds>
donor molecule, donor type, donor heavy atom, donor atom, acceptor molecule, acceptor atom, score
      P1  H  7989  7998       L1    13  0.79
      P1  H  7997  8009       L1     8  0.33

> <Gold.Chemscore.Hbond.Weighted>
-5.7904

> <Gold.Chemscore.Metal.Weighted>
-0.0000

> <Gold.Chemscore.Lipo.Weighted>
-14.7835

> <Gold.Chemscore.Internal_Hbond.Weighted>
0.0000

> <Gold.Chemscore.DEClash.Weighted>
0.0663

> <Gold.Chemscore.DEInternal.Weighted>
0.5292

> <Gold.Chemscore.Rot.Weighted>
7.3671

> <Gold.Chemscore.Internal.Correction.Weighted>
   9.000000E+99

> <Gold.Protein.RotatedTorsions>
[ 6907 6896 6895 6894 ] final  -84.11 input  -60.11 | X-H torsion
[ 7974 7965 7964 7962 ] final -105.62 input  175.53 | X-H torsion
[ 8008 7997 7996 7995 ] final  161.28 input   59.86 | X-H torsion
[ 10167 10162 10161 10158 ] final   79.65 input  -65.29 | X-H torsion
[ 10718 10713 10712 10709 ] final  118.31 input   66.30 | X-H torsion
[ 10763 10752 10751 10750 ] final  121.91 input  -60.55 | X-H torsion
[ 11005 11000 10999 10996 ] final  147.42 input  -57.11 | X-H torsion

> <Gold.Protein.ActiveResidues>
 VAL166  LYS551  ARG553  GLY616  TRP617  ASP618  TYR619  PRO620  LYS621  CYS622 
 ASP623  PHE694  ASN695  SER759  ASP760  ASP761  ALA762  ILE779  LEU786  VAL792 
 PHE793  MET794  SER795  GLU796  ALA797  LYS798  CYS799  TRP800  GLU811  SER814 

> <Gold.Protein.RotatedAtoms>
  150.6879  134.3408  159.4866 H   0  0  0  0  0  0  0  0  0  0  0  0  # atno 6907 bound_to 6896
  152.1261  134.9167  160.0570 H   0  0  0  0  0  0  0  0  0  0  0  0  # atno 6908 bound_to 6896
  152.0354  133.3920  159.4351 H   0  0  0  0  0  0  0  0  0  0  0  0  # atno 6909 bound_to 6896
  145.2282  140.9160  143.3220 H   0  0  0  0  0  0  0  0  0  0  0  0  # atno 7974 bound_to 7965
  156.2114  140.1781  156.7687 H   0  0  0  0  0  0  0  0  0  0  0  0  # atno 8008 bound_to 7997
  154.5728  140.0679  156.9019 H   0  0  0  0  0  0  0  0  0  0  0  0  # atno 8009 bound_to 7997
  155.2643  140.3338  155.4273 H   0  0  0  0  0  0  0  0  0  0  0  0  # atno 8010 bound_to 7997
  139.9581  144.5980  150.8097 H   0  0  0  0  0  0  0  0  0  0  0  0  # atno 10167 bound_to 10162
  157.6039  131.1046  150.7738 H   0  0  0  0  0  0  0  0  0  0  0  0  # atno 10718 bound_to 10713
  153.6214  135.3412  155.3012 H   0  0  0  0  0  0  0  0  0  0  0  0  # atno 10763 bound_to 10752
  154.8599  135.4274  154.2203 H   0  0  0  0  0  0  0  0  0  0  0  0  # atno 10764 bound_to 10752
  153.3077  135.7029  153.7217 H   0  0  0  0  0  0  0  0  0  0  0  0  # atno 10765 bound_to 10752
  140.0874  134.9061  157.1597 H   0  0  0  0  0  0  0  0  0  0  0  0  # atno 11005 bound_to 11000
  144.9701  139.3888  143.6313 LP  0  0  0  0  0  0  0  0  0  0  0  0  # atno 17320 bound_to 7965
  146.3359  139.8795  142.8826 LP  0  0  0  0  0  0  0  0  0  0  0  0  # atno 17321 bound_to 7965
  140.7562  143.3061  151.2960 LP  0  0  0  0  0  0  0  0  0  0  0  0  # atno 17342 bound_to 10162
  139.6575  144.0249  152.2670 LP  0  0  0  0  0  0  0  0  0  0  0  0  # atno 17343 bound_to 10162
  156.8130  130.4959  149.5353 LP  0  0  0  0  0  0  0  0  0  0  0  0  # atno 17370 bound_to 10713
  156.1119  130.6047  151.0061 LP  0  0  0  0  0  0  0  0  0  0  0  0  # atno 17371 bound_to 10713
  140.3401  134.2714  155.7213 LP  0  0  0  0  0  0  0  0  0  0  0  0  # atno 17394 bound_to 11000
  141.2067  133.7826  157.0162 LP  0  0  0  0  0  0  0  0  0  0  0  0  # atno 17395 bound_to 11000

$$$$
