AV-unprocessed.smi:1200|AV-procd|sdf|5023|dock6
  -GOLD-   22720 4 43D 1   1.00000     0.00000
 Structure written by MMmdl.
 43 44  0  0  0  0  0  0  0  0  2 V2000
  143.5570  136.7882  152.8746 C   0  0  0  0  0  0  0  0  0  0  0  0
  144.5607  137.6482  152.2659 N   0  0  0  0  0  0  0  0  0  0  0  0
  145.8612  137.6342  152.5896 C   0  0  0  0  0  0  0  0  0  0  0  0
  146.3348  136.8888  153.4481 O   0  0  0  0  0  0  0  0  0  0  0  0
  146.7562  138.6265  151.8399 C   0  0  0  0  0  0  0  0  0  0  0  0
  147.3634  139.6483  152.7312 N   0  3  2  0  0  0  0  0  0  0  0  0
  148.3519  139.0654  153.6738 C   0  0  0  0  0  0  0  0  0  0  0  0
  149.0707  140.1653  154.4736 C   0  0  0  0  0  0  0  0  0  0  0  0
  148.0657  141.0514  155.2268 C   0  0  1  0  0  0  0  0  0  0  0  0
  148.7690  142.1375  155.9037 N   0  0  0  0  0  0  0  0  0  0  0  0
  149.5396  141.9981  156.9924 C   0  0  0  0  0  0  0  0  0  0  0  0
  149.7377  140.9166  157.5448 O   0  0  0  0  0  0  0  0  0  0  0  0
  150.0561  143.1793  157.3739 N   0  0  0  0  0  0  0  0  0  0  0  0
  150.9441  143.4679  158.4471 C   0  0  0  0  0  0  0  0  0  0  0  0
  151.9418  142.5861  158.9310 C   0  0  0  0  0  0  0  0  0  0  0  0
  152.7503  142.9992  160.0079 C   0  0  0  0  0  0  0  0  0  0  0  0
  152.5296  144.2726  160.5664 C   0  0  0  0  0  0  0  0  0  0  0  0
  151.5760  145.1186  160.1241 N   0  0  0  0  0  0  0  0  0  0  0  0
  150.8054  144.7162  159.0912 C   0  0  0  0  0  0  0  0  0  0  0  0
  147.0254  141.6080  154.2379 C   0  0  0  0  0  0  0  0  0  0  0  0
  146.3532  140.4767  153.4427 C   0  0  0  0  0  0  0  0  0  0  0  0
  142.5714  137.0254  152.4736 H   0  0  0  0  0  0  0  0  0  0  0  0
  143.5276  136.9273  153.9562 H   0  0  0  0  0  0  0  0  0  0  0  0
  143.7669  135.7387  152.6639 H   0  0  0  0  0  0  0  0  0  0  0  0
  144.2447  138.2942  151.5569 H   0  0  0  0  0  0  0  0  0  0  0  0
  147.5363  138.0986  151.2886 H   0  0  0  0  0  0  0  0  0  0  0  0
  146.1237  139.1147  151.0973 H   0  0  0  0  0  0  0  0  0  0  0  0
  147.8474  138.3736  154.3502 H   0  0  0  0  0  0  0  0  0  0  0  0
  149.0920  138.4860  153.1205 H   0  0  0  0  0  0  0  0  0  0  0  0
  149.7701  139.7112  155.1770 H   0  0  0  0  0  0  0  0  0  0  0  0
  149.6680  140.7749  153.7934 H   0  0  0  0  0  0  0  0  0  0  0  0
  147.5569  140.4323  155.9687 H   0  0  0  0  0  0  0  0  0  0  0  0
  148.6635  143.0628  155.5136 H   0  0  0  0  0  0  0  0  0  0  0  0
  149.8254  143.9690  156.7886 H   0  0  0  0  0  0  0  0  0  0  0  0
  152.1022  141.6049  158.5137 H   0  0  0  0  0  0  0  0  0  0  0  0
  153.5217  142.3522  160.3990 H   0  0  0  0  0  0  0  0  0  0  0  0
  153.1324  144.6189  161.3928 H   0  0  0  0  0  0  0  0  0  0  0  0
  150.0526  145.4193  158.7653 H   0  0  0  0  0  0  0  0  0  0  0  0
  146.2663  142.1806  154.7720 H   0  0  0  0  0  0  0  0  0  0  0  0
  147.5045  142.3014  153.5450 H   0  0  0  0  0  0  0  0  0  0  0  0
  145.6519  140.9100  152.7291 H   0  0  0  0  0  0  0  0  0  0  0  0
  145.7684  139.8448  154.1132 H   0  0  0  0  0  0  0  0  0  0  0  0
  147.8809  140.2707  152.1265 H   0  0  0  0  0  0  0  0  0  0  0  0
  1  2  1  0  0  0  0
  1 22  1  0  0  0  0
  1 23  1  0  0  0  0
  1 24  1  0  0  0  0
  2  3  1  0  0  0  0
  2 25  1  0  0  0  0
  3  4  2  0  0  0  0
  3  5  1  0  0  0  0
  5  6  1  0  0  0  0
  5 26  1  0  0  0  0
  5 27  1  0  0  0  0
  6 21  1  0  0  0  0
  6  7  1  0  0  0  0
  6 43  1  0  0  0  0
  7  8  1  0  0  0  0
  7 28  1  0  0  0  0
  7 29  1  0  0  0  0
  8  9  1  0  0  0  0
  8 30  1  0  0  0  0
  8 31  1  0  0  0  0
  9 10  1  0  0  0  0
  9 20  1  0  0  0  0
  9 32  1  0  0  0  0
 10 11  1  0  0  0  0
 10 33  1  0  0  0  0
 11 12  2  0  0  0  0
 11 13  1  0  0  0  0
 13 14  1  0  0  0  0
 13 34  1  0  0  0  0
 14 19  1  0  0  0  0
 14 15  2  0  0  0  0
 15 16  1  0  0  0  0
 15 35  1  0  0  0  0
 16 17  2  0  0  0  0
 16 36  1  0  0  0  0
 17 18  1  0  0  0  0
 17 37  1  0  0  0  0
 18 19  2  0  0  0  0
 19 38  1  0  0  0  0
 20 21  1  0  0  0  0
 20 39  1  0  0  0  0
 20 40  1  0  0  0  0
 21 41  1  0  0  0  0
 21 42  1  0  0  0  0
M  CHG  1   6   1
M  END
> <s_m_source_file>
AV-unprocessed.smi

> <i_m_source_file_index>
1200

> <i_lp_mmshare_version>
43012

> <i_f3d_flags>
0

> <s_epik_input>
W0NIM11bTkhdQyg9TylbQ0gyXU4xW0NIMl1bQ0gyXVtDSF0oW0NIMl1bQ0gyXTEpW05IXUMoPU8pW05IXWMyW2NIXVtjSF1bY0hdbltjSF0y

> <s_epik_cmdline>
J2VwaWtfcHl0aG9uJywgJy1waCcsICc3LjAnLCAnLXRuJywgJzgnLCAnLW1hJywgJzIwMCcsICctbWV0YWxfYmluZGluZycsICctaW1hZScsICc8aW5maWxlLm1hZT4nLCAnLW9tYWUnLCAnPG91dGZpbGUubWFlPic=

> <r_epik_Ionization_Penalty>
0.842849

> <r_epik_Ionization_Penalty_Charging>
0.838844

> <r_epik_Ionization_Penalty_Neutral>
0.00400543

> <r_epik_State_Penalty>
0.858736

> <r_epik_Charging_Adjusted_Penalty>
1.69758

> <i_epik_Tot_Q>
1

> <i_epik_Tot_abs_Q>
1

> <r_epik_Metal_State_Penalty>
0.860766

> <b_epik_Metal_Only>
0

> <s_lp_Force_Field>
OPLS_2005

> <r_lp_Energy>
18.0189

> <b_lp_Chiralities_Consistent>
1

> <s_lp_Variant>
AV-unprocessed.smi:1200-2

> <Gold.Version>
5.8.1

> <Gold.Id.Protein>
6NUR|6NUR_protein|mol2

> <Gold.PLP.Fitness>
50.0004

> <Gold.PLP.PLP>
-36.5239

> <Gold.PLP.part.hbond>
-5.0000

> <Gold.PLP.part.metal>
0.0000

> <Gold.PLP.part.buried>
-1.1402

> <Gold.PLP.part.nonpolar>
-32.1629

> <Gold.PLP.part.repulsive>
0.5410

> <Gold.PLP.ligand.clash>
0.0000

> <Gold.PLP.ligand.torsion>
0.3905

> <Gold.PLP.Chemscore.Hbond>
3.7600

> <Gold.PLP.Chemscore.CHOScore>
0.9869

> <Gold.PLP.Chemscore.Metal>
0.0000

> <Gold.Chemscore.Hbonds>
donor molecule, donor type, donor heavy atom, donor atom, acceptor molecule, acceptor atom, score
      L1  H     2    25       P1 10171  0.98
      L1  H     6    43       P1  7957  0.64
      L1  H    10    33       P1  8028  1.00
      L1  H    13    34       P1  8028  1.00
      L1  C    19    38       P1  8029  0.68

> <Gold.PLP.Chemscore.Internal.Correction>
0.0167

> <Gold.Rescore>
     Score         DG    S(hbond)    S(metal)    S(lipo)     H(rot)  DE(clash)    DE(int)     intcor
     23.03     -24.74       3.76        0.00      94.30       1.69       1.26       0.44       ----

> <Gold.Chemscore.Fitness>
23.0349

> <Gold.Chemscore.DG>
-24.7372

> <Gold.Chemscore.ZeroCoef>
-5.4800

> <Gold.Chemscore.Hbond>
3.7555

> <Gold.Chemscore.Metal>
0.0000

> <Gold.Chemscore.Lipo>
94.3010

> <Gold.Chemscore.Internal_Hbond>
0.0000

> <Gold.Chemscore.DEClash>
1.2630

> <Gold.Chemscore.DEInternal>
0.4393

> <Gold.Chemscore.Rot>
1.6873

> <Gold.Chemscore.Internal.Correction>
   9.000000E+99

> <Gold.Chemscore.Hbonds>
donor molecule, donor type, donor heavy atom, donor atom, acceptor molecule, acceptor atom, score
      L1  H     2    25       P1 10171  0.93
      L1  H     6    43       P1  7957  0.63
      L1  H    10    33       P1  8028  0.94
      L1  H    13    34       P1  8028  0.93

> <Gold.Chemscore.Hbond.Weighted>
-12.5433

> <Gold.Chemscore.Metal.Weighted>
-0.0000

> <Gold.Chemscore.Lipo.Weighted>
-11.0332

> <Gold.Chemscore.Internal_Hbond.Weighted>
0.0000

> <Gold.Chemscore.DEClash.Weighted>
1.2630

> <Gold.Chemscore.DEInternal.Weighted>
0.4393

> <Gold.Chemscore.Rot.Weighted>
4.3194

> <Gold.Chemscore.Internal.Correction.Weighted>
   9.000000E+99

> <Gold.Protein.RotatedTorsions>
[ 6907 6896 6895 6894 ] final  157.91 input  -60.11 | X-H torsion
[ 7974 7965 7964 7962 ] final  107.99 input  175.53 | X-H torsion
[ 8008 7997 7996 7995 ] final  -81.95 input   59.86 | X-H torsion
[ 10167 10162 10161 10158 ] final  148.71 input  -65.29 | X-H torsion
[ 10718 10713 10712 10709 ] final  -38.73 input   66.30 | X-H torsion
[ 10763 10752 10751 10750 ] final  -29.87 input  -60.55 | X-H torsion
[ 11005 11000 10999 10996 ] final  140.37 input  -57.11 | X-H torsion

> <Gold.Protein.ActiveResidues>
 VAL166  LYS551  ARG553  GLY616  TRP617  ASP618  TYR619  PRO620  LYS621  CYS622 
 ASP623  PHE694  ASN695  SER759  ASP760  ASP761  ALA762  ILE779  LEU786  VAL792 
 PHE793  MET794  SER795  GLU796  ALA797  LYS798  CYS799  TRP800  GLU811  SER814 

> <Gold.Protein.RotatedAtoms>
  152.0082  133.3851  159.4208 H   0  0  0  0  0  0  0  0  0  0  0  0  # atno 6907 bound_to 6896
  150.6902  134.3759  159.5022 H   0  0  0  0  0  0  0  0  0  0  0  0  # atno 6908 bound_to 6896
  152.1516  134.8983  160.0598 H   0  0  0  0  0  0  0  0  0  0  0  0  # atno 6909 bound_to 6896
  145.2865  139.2615  143.3887 H   0  0  0  0  0  0  0  0  0  0  0  0  # atno 7974 bound_to 7965
  154.6036  140.0640  156.9401 H   0  0  0  0  0  0  0  0  0  0  0  0  # atno 8008 bound_to 7997
  155.2091  140.3321  155.4313 H   0  0  0  0  0  0  0  0  0  0  0  0  # atno 8009 bound_to 7997
  156.2333  140.1851  156.7168 H   0  0  0  0  0  0  0  0  0  0  0  0  # atno 8010 bound_to 7997
  139.4871  144.5658  151.7146 H   0  0  0  0  0  0  0  0  0  0  0  0  # atno 10167 bound_to 10162
  156.3005  130.4239  149.8148 H   0  0  0  0  0  0  0  0  0  0  0  0  # atno 10718 bound_to 10713
  153.7717  135.6912  153.4905 H   0  0  0  0  0  0  0  0  0  0  0  0  # atno 10763 bound_to 10752
  153.1870  135.4485  155.0099 H   0  0  0  0  0  0  0  0  0  0  0  0  # atno 10764 bound_to 10752
  154.8115  135.3379  154.7226 H   0  0  0  0  0  0  0  0  0  0  0  0  # atno 10765 bound_to 10752
  140.0322  134.9346  157.0685 H   0  0  0  0  0  0  0  0  0  0  0  0  # atno 11005 bound_to 11000
  146.3199  140.3346  142.8643 LP  0  0  0  0  0  0  0  0  0  0  0  0  # atno 17320 bound_to 7965
  144.9209  140.7866  143.5749 LP  0  0  0  0  0  0  0  0  0  0  0  0  # atno 17321 bound_to 7965
  140.5236  144.0840  150.6030 LP  0  0  0  0  0  0  0  0  0  0  0  0  # atno 17342 bound_to 10162
  140.3806  143.2805  152.0174 LP  0  0  0  0  0  0  0  0  0  0  0  0  # atno 17343 bound_to 10162
  156.5528  130.8349  151.3305 LP  0  0  0  0  0  0  0  0  0  0  0  0  # atno 17370 bound_to 10713
  157.7366  130.9782  150.2148 LP  0  0  0  0  0  0  0  0  0  0  0  0  # atno 17371 bound_to 10713
  140.4206  134.1884  155.7164 LP  0  0  0  0  0  0  0  0  0  0  0  0  # atno 17394 bound_to 11000
  141.1837  133.8358  157.1164 LP  0  0  0  0  0  0  0  0  0  0  0  0  # atno 17395 bound_to 11000

$$$$
