AV-unprocessed.smi:703|AV-procd|sdf|3430|dock4
  -GOLD-   22720 0413D 1   1.00000     0.00000
 Structure written by MMmdl.
 38 39  0  0  0  0  0  0  0  0  2 V2000
  145.5524  135.7765  151.3476 C   0  0  0  0  0  0  0  0  0  0  0  0
  145.7515  136.1694  152.8176 C   0  0  0  0  0  0  0  0  0  0  0  0
  146.7713  137.2319  152.9802 N   0  3  1  0  0  0  0  0  0  0  0  0
  146.3545  138.5763  152.5389 C   0  0  0  0  0  0  0  0  0  0  0  0
  147.3846  139.5263  153.1540 C   0  0  1  0  0  0  0  0  0  0  0  0
  146.8613  140.9538  153.3615 C   0  0  0  0  0  0  0  0  0  0  0  0
  147.8217  138.8247  154.4535 C   0  0  2  0  0  0  0  0  0  0  0  0
  149.2842  138.8007  154.5548 N   0  0  0  0  0  0  0  0  0  0  0  0
  150.1046  140.2740  154.9123 S   0  0  0  0  0  0  0  0  0  0  0  0
  151.5485  140.0120  154.8111 O   0  0  0  0  0  0  0  0  0  0  0  0
  149.4901  141.3274  154.0901 O   0  0  0  0  0  0  0  0  0  0  0  0
  149.6766  140.5560  156.6822 C   0  0  0  0  0  0  0  0  0  0  0  0
  150.9353  140.7262  157.4845 C   0  0  0  0  0  0  0  0  0  0  0  0
  151.3039  141.8056  158.3345 C   0  0  0  0  0  0  0  0  0  0  0  0
  152.5326  141.4378  158.8018 C   0  0  0  0  0  0  0  0  0  0  0  0
  152.8943  140.2336  158.2916 O   0  0  0  0  0  0  0  0  0  0  0  0
  151.8671  139.7867  157.4526 N   0  0  0  0  0  0  0  0  0  0  0  0
  147.2563  137.3975  154.3651 C   0  0  0  0  0  0  0  0  0  0  0  0
  144.8493  134.9476  151.2631 H   0  0  0  0  0  0  0  0  0  0  0  0
  146.4916  135.4608  150.8923 H   0  0  0  0  0  0  0  0  0  0  0  0
  145.1537  136.6031  150.7593 H   0  0  0  0  0  0  0  0  0  0  0  0
  144.8051  136.4856  153.2585 H   0  0  0  0  0  0  0  0  0  0  0  0
  146.0776  135.2891  153.3731 H   0  0  0  0  0  0  0  0  0  0  0  0
  146.3199  138.6573  151.4522 H   0  0  0  0  0  0  0  0  0  0  0  0
  145.3579  138.7938  152.9273 H   0  0  0  0  0  0  0  0  0  0  0  0
  148.2325  139.5704  152.4676 H   0  0  0  0  0  0  0  0  0  0  0  0
  146.0007  140.9700  154.0313 H   0  0  0  0  0  0  0  0  0  0  0  0
  146.5558  141.4004  152.4150 H   0  0  0  0  0  0  0  0  0  0  0  0
  147.6324  141.5910  153.7954 H   0  0  0  0  0  0  0  0  0  0  0  0
  147.4004  139.3232  155.3283 H   0  0  0  0  0  0  0  0  0  0  0  0
  149.6058  138.0443  155.1587 H   0  0  0  0  0  0  0  0  0  0  0  0
  149.0462  141.4421  156.7504 H   0  0  0  0  0  0  0  0  0  0  0  0
  149.0941  139.7037  157.0336 H   0  0  0  0  0  0  0  0  0  0  0  0
  150.7556  142.7077  158.5615 H   0  0  0  0  0  0  0  0  0  0  0  0
  153.2414  141.9014  159.4718 H   0  0  0  0  0  0  0  0  0  0  0  0
  146.4180  137.3008  155.0574 H   0  0  0  0  0  0  0  0  0  0  0  0
  147.9830  136.6255  154.6221 H   0  0  0  0  0  0  0  0  0  0  0  0
  147.5752  136.9774  152.4243 H   0  0  0  0  0  0  0  0  0  0  0  0
  1  2  1  0  0  0  0
  1 19  1  0  0  0  0
  1 20  1  0  0  0  0
  1 21  1  0  0  0  0
  2  3  1  0  0  0  0
  2 22  1  0  0  0  0
  2 23  1  0  0  0  0
  3 18  1  0  0  0  0
  3  4  1  0  0  0  0
  3 38  1  0  0  0  0
  4  5  1  0  0  0  0
  4 24  1  0  0  0  0
  4 25  1  0  0  0  0
  5  6  1  0  0  0  0
  5  7  1  0  0  0  0
  5 26  1  0  0  0  0
  6 27  1  0  0  0  0
  6 28  1  0  0  0  0
  6 29  1  0  0  0  0
  7  8  1  0  0  0  0
  7 18  1  0  0  0  0
  7 30  1  0  0  0  0
  8  9  1  0  0  0  0
  8 31  1  0  0  0  0
  9 10  2  0  0  0  0
  9 11  2  0  0  0  0
  9 12  1  0  0  0  0
 12 13  1  0  0  0  0
 12 32  1  0  0  0  0
 12 33  1  0  0  0  0
 13 17  2  0  0  0  0
 13 14  1  0  0  0  0
 14 15  2  0  0  0  0
 14 34  1  0  0  0  0
 15 16  1  0  0  0  0
 15 35  1  0  0  0  0
 16 17  1  0  0  0  0
 18 36  1  0  0  0  0
 18 37  1  0  0  0  0
M  CHG  1   3   1
M  END
> <s_m_source_file>
AV-unprocessed.smi

> <i_m_source_file_index>
703

> <i_lp_mmshare_version>
43012

> <i_f3d_flags>
0

> <s_epik_input>
W0NIM11bQ0gyXU4xW0NIMl1bQ0BASF0oW0NIM10pW0NASF0oW0NIMl0xKVtOSF1TKD1PKSg9TylbQ0gyXWMyW2NIXVtjSF1vbjI=

> <s_epik_cmdline>
J2VwaWtfcHl0aG9uJywgJy1waCcsICc3LjAnLCAnLXRuJywgJzgnLCAnLW1hJywgJzIwMCcsICctbWV0YWxfYmluZGluZycsICctaW1hZScsICc8aW5maWxlLm1hZT4nLCAnLW9tYWUnLCAnPG91dGZpbGUubWFlPic=

> <r_epik_Ionization_Penalty>
0.00324529

> <r_epik_Ionization_Penalty_Charging>
0.0019384

> <r_epik_Ionization_Penalty_Neutral>
0.00130689

> <r_epik_State_Penalty>
0.00218682

> <r_epik_Charging_Adjusted_Penalty>
0.00412522

> <i_epik_Tot_Q>
1

> <i_epik_Tot_abs_Q>
1

> <r_epik_Metal_State_Penalty>
0.310831

> <b_epik_Metal_Only>
0

> <s_lp_Force_Field>
OPLS_2005

> <r_lp_Energy>
19.0456

> <b_lp_Chiralities_Consistent>
1

> <s_lp_Variant>
AV-unprocessed.smi:703-5

> <Gold.Version>
5.8.1

> <Gold.Id.Protein>
6NUR|6NUR_protein|mol2

> <Gold.PLP.Fitness>
37.5946

> <Gold.PLP.PLP>
-25.7084

> <Gold.PLP.part.hbond>
-4.9186

> <Gold.PLP.part.metal>
0.0000

> <Gold.PLP.part.buried>
-1.1275

> <Gold.PLP.part.nonpolar>
-19.6306

> <Gold.PLP.part.repulsive>
0.2797

> <Gold.PLP.ligand.clash>
0.0000

> <Gold.PLP.ligand.torsion>
0.4399

> <Gold.PLP.Chemscore.Hbond>
4.2020

> <Gold.PLP.Chemscore.CHOScore>
0.0000

> <Gold.PLP.Chemscore.Metal>
0.0000

> <Gold.Chemscore.Hbonds>
donor molecule, donor type, donor heavy atom, donor atom, acceptor molecule, acceptor atom, score
      L1  H     3    38       P1  7948  2.00
      P1  H  7989  7998       L1    10  0.60
      P1  H  7997  8008       L1    16  0.75
      P1  H  8011  8017       L1    11  0.63

> <Gold.PLP.Chemscore.Internal.Correction>
0.1602

> <Gold.Rescore>
     Score         DG    S(hbond)    S(metal)    S(lipo)     H(rot)  DE(clash)    DE(int)     intcor
     11.22     -16.26       2.52        0.00      62.60       1.94       0.48       4.57       ----

> <Gold.Chemscore.Fitness>
11.2154

> <Gold.Chemscore.DG>
-16.2619

> <Gold.Chemscore.ZeroCoef>
-5.4800

> <Gold.Chemscore.Hbond>
2.5222

> <Gold.Chemscore.Metal>
0.0000

> <Gold.Chemscore.Lipo>
62.5991

> <Gold.Chemscore.Internal_Hbond>
0.0000

> <Gold.Chemscore.DEClash>
0.4770

> <Gold.Chemscore.DEInternal>
4.5695

> <Gold.Chemscore.Rot>
1.9400

> <Gold.Chemscore.Internal.Correction>
   9.000000E+99

> <Gold.Chemscore.Hbonds>
donor molecule, donor type, donor heavy atom, donor atom, acceptor molecule, acceptor atom, score
      L1  H     3    38       P1  7948  1.00
      P1  H  7989  7998       L1    10  0.04
      P1  H  7997  8008       L1    16  0.18
      P1  H  8011  8017       L1    11  0.60

> <Gold.Chemscore.Hbond.Weighted>
-8.4242

> <Gold.Chemscore.Metal.Weighted>
-0.0000

> <Gold.Chemscore.Lipo.Weighted>
-7.3241

> <Gold.Chemscore.Internal_Hbond.Weighted>
0.0000

> <Gold.Chemscore.DEClash.Weighted>
0.4770

> <Gold.Chemscore.DEInternal.Weighted>
4.5695

> <Gold.Chemscore.Rot.Weighted>
4.9665

> <Gold.Chemscore.Internal.Correction.Weighted>
   9.000000E+99

> <Gold.Protein.RotatedTorsions>
[ 6907 6896 6895 6894 ] final -115.48 input  -60.11 | X-H torsion
[ 7974 7965 7964 7962 ] final -156.65 input  175.53 | X-H torsion
[ 8008 7997 7996 7995 ] final  -81.28 input   59.86 | X-H torsion
[ 10167 10162 10161 10158 ] final   87.56 input  -65.29 | X-H torsion
[ 10718 10713 10712 10709 ] final  126.17 input   66.30 | X-H torsion
[ 10763 10752 10751 10750 ] final   52.38 input  -60.55 | X-H torsion
[ 11005 11000 10999 10996 ] final  -64.56 input  -57.11 | X-H torsion

> <Gold.Protein.ActiveResidues>
 VAL166  LYS551  ARG553  GLY616  TRP617  ASP618  TYR619  PRO620  LYS621  CYS622 
 ASP623  PHE694  ASN695  SER759  ASP760  ASP761  ALA762  ILE779  LEU786  VAL792 
 PHE793  MET794  SER795  GLU796  ALA797  LYS798  CYS799  TRP800  GLU811  SER814 

> <Gold.Protein.RotatedAtoms>
  150.7981  133.8653  159.3243 H   0  0  0  0  0  0  0  0  0  0  0  0  # atno 6907 bound_to 6896
  151.6472  135.1004  160.0163 H   0  0  0  0  0  0  0  0  0  0  0  0  # atno 6908 bound_to 6896
  152.4065  133.6858  159.6396 H   0  0  0  0  0  0  0  0  0  0  0  0  # atno 6909 bound_to 6896
  144.7583  140.4079  143.5995 H   0  0  0  0  0  0  0  0  0  0  0  0  # atno 7974 bound_to 7965
  154.5967  140.0650  156.9313 H   0  0  0  0  0  0  0  0  0  0  0  0  # atno 8008 bound_to 7997
  155.2202  140.3329  155.4298 H   0  0  0  0  0  0  0  0  0  0  0  0  # atno 8009 bound_to 7997
  156.2292  140.1833  156.7271 H   0  0  0  0  0  0  0  0  0  0  0  0  # atno 8010 bound_to 7997
  139.8761  144.6466  150.8895 H   0  0  0  0  0  0  0  0  0  0  0  0  # atno 10167 bound_to 10162
  157.5442  131.1096  150.8809 H   0  0  0  0  0  0  0  0  0  0  0  0  # atno 10718 bound_to 10713
  152.9788  135.5814  154.4568 H   0  0  0  0  0  0  0  0  0  0  0  0  # atno 10763 bound_to 10752
  154.4150  135.2770  155.2014 H   0  0  0  0  0  0  0  0  0  0  0  0  # atno 10764 bound_to 10752
  154.3788  135.6151  153.5833 H   0  0  0  0  0  0  0  0  0  0  0  0  # atno 10765 bound_to 10752
  141.1428  133.6667  156.5852 H   0  0  0  0  0  0  0  0  0  0  0  0  # atno 11005 bound_to 11000
  145.6703  139.1598  143.2758 LP  0  0  0  0  0  0  0  0  0  0  0  0  # atno 17320 bound_to 7965
  146.1619  140.6775  142.9273 LP  0  0  0  0  0  0  0  0  0  0  0  0  # atno 17321 bound_to 7965
  140.7752  143.3624  151.1803 LP  0  0  0  0  0  0  0  0  0  0  0  0  # atno 17342 bound_to 10162
  139.7239  143.9180  152.2995 LP  0  0  0  0  0  0  0  0  0  0  0  0  # atno 17343 bound_to 10162
  156.9353  130.5365  149.5279 LP  0  0  0  0  0  0  0  0  0  0  0  0  # atno 17370 bound_to 10713
  156.0521  130.5589  150.9013 LP  0  0  0  0  0  0  0  0  0  0  0  0  # atno 17371 bound_to 10713
  140.3807  134.7526  157.4659 LP  0  0  0  0  0  0  0  0  0  0  0  0  # atno 17394 bound_to 11000
  140.0640  134.5955  155.8716 LP  0  0  0  0  0  0  0  0  0  0  0  0  # atno 17395 bound_to 11000

$$$$
