AV-unprocessed.smi:933|AV-procd|sdf|4201|dock2
  -GOLD-   22720 2103D 1   1.00000     0.00000
 Structure written by MMmdl.
 42 43  0  0  0  0  0  0  0  0  1 V2000
  152.5720  138.7711  155.2700 C   0  0  0  0  0  0  0  0  0  0  0  0
  151.1572  138.1994  155.4094 C   0  0  0  0  0  0  0  0  0  0  0  0
  150.1001  139.2406  155.2514 C   0  0  0  0  0  0  0  0  0  0  0  0
  148.9644  139.0409  154.5774 N   0  0  0  0  0  0  0  0  0  0  0  0
  148.1211  140.1563  154.5991 C   0  0  0  0  0  0  0  0  0  0  0  0
  146.8020  140.1101  153.8895 C   0  0  0  0  0  0  0  0  0  0  0  0
  146.9508  139.7088  152.4158 C   0  0  0  0  0  0  0  0  0  0  0  0
  147.0338  138.2566  152.2833 N   0  0  0  0  0  0  0  0  0  0  0  0
  146.0520  137.3643  152.4978 C   0  0  0  0  0  0  0  0  0  0  0  0
  144.9255  137.7089  152.8502 O   0  0  0  0  0  0  0  0  0  0  0  0
  146.4086  136.0842  152.2998 N   0  0  0  0  0  0  0  0  0  0  0  0
  145.5258  134.9311  152.4529 C   0  0  2  0  0  0  0  0  0  0  0  0
  146.2333  133.6169  152.0598 C   0  0  0  0  0  0  0  0  0  0  0  0
  145.5163  133.1004  150.8113 C   0  0  0  0  0  0  0  0  0  0  0  0
  144.1011  133.6551  150.9336 C   0  0  0  0  0  0  0  0  0  0  0  0
  144.3013  135.0546  151.5216 C   0  0  1  0  0  0  0  0  0  0  0  0
  143.0513  135.6170  152.2123 C   0  0  0  0  0  0  0  0  0  0  0  0
  148.6336  141.2079  155.3173 C   0  0  0  0  0  0  0  0  0  0  0  0
  150.1946  140.8333  155.9942 S   0  0  0  0  0  0  0  0  0  0  0  0
  153.3207  137.9877  155.3893 H   0  0  0  0  0  0  0  0  0  0  0  0
  152.7639  139.5338  156.0255 H   0  0  0  0  0  0  0  0  0  0  0  0
  152.7176  139.2254  154.2897 H   0  0  0  0  0  0  0  0  0  0  0  0
  150.9956  137.4219  154.6621 H   0  0  0  0  0  0  0  0  0  0  0  0
  151.0415  137.7241  156.3842 H   0  0  0  0  0  0  0  0  0  0  0  0
  146.1358  139.4074  154.3919 H   0  0  0  0  0  0  0  0  0  0  0  0
  146.3135  141.0834  153.9544 H   0  0  0  0  0  0  0  0  0  0  0  0
  146.0987  140.0785  151.8429 H   0  0  0  0  0  0  0  0  0  0  0  0
  147.8492  140.1646  151.9965 H   0  0  0  0  0  0  0  0  0  0  0  0
  147.9322  137.8866  152.0080 H   0  0  0  0  0  0  0  0  0  0  0  0
  147.3583  135.8958  152.0140 H   0  0  0  0  0  0  0  0  0  0  0  0
  145.1957  134.8587  153.4913 H   0  0  0  0  0  0  0  0  0  0  0  0
  147.3040  133.7344  151.8874 H   0  0  0  0  0  0  0  0  0  0  0  0
  146.1192  132.8936  152.8683 H   0  0  0  0  0  0  0  0  0  0  0  0
  145.9935  133.5074  149.9188 H   0  0  0  0  0  0  0  0  0  0  0  0
  145.5373  132.0130  150.7348 H   0  0  0  0  0  0  0  0  0  0  0  0
  143.5748  133.6727  149.9787 H   0  0  0  0  0  0  0  0  0  0  0  0
  143.5245  133.0345  151.6213 H   0  0  0  0  0  0  0  0  0  0  0  0
  144.5556  135.7140  150.6893 H   0  0  0  0  0  0  0  0  0  0  0  0
  142.7373  134.9851  153.0437 H   0  0  0  0  0  0  0  0  0  0  0  0
  142.2175  135.6878  151.5135 H   0  0  0  0  0  0  0  0  0  0  0  0
  143.2406  136.6161  152.6062 H   0  0  0  0  0  0  0  0  0  0  0  0
  148.1866  142.1750  155.4932 H   0  0  0  0  0  0  0  0  0  0  0  0
  1  2  1  0  0  0  0
  1 20  1  0  0  0  0
  1 21  1  0  0  0  0
  1 22  1  0  0  0  0
  2  3  1  0  0  0  0
  2 23  1  0  0  0  0
  2 24  1  0  0  0  0
  3 19  1  0  0  0  0
  3  4  2  0  0  0  0
  4  5  1  0  0  0  0
  5  6  1  0  0  0  0
  5 18  2  0  0  0  0
  6  7  1  0  0  0  0
  6 25  1  0  0  0  0
  6 26  1  0  0  0  0
  7  8  1  0  0  0  0
  7 27  1  0  0  0  0
  7 28  1  0  0  0  0
  8  9  1  0  0  0  0
  8 29  1  0  0  0  0
  9 10  2  0  0  0  0
  9 11  1  0  0  0  0
 11 12  1  0  0  0  0
 11 30  1  0  0  0  0
 12 16  1  0  0  0  0
 12 13  1  0  0  0  0
 12 31  1  0  0  0  0
 13 14  1  0  0  0  0
 13 32  1  0  0  0  0
 13 33  1  0  0  0  0
 14 15  1  0  0  0  0
 14 34  1  0  0  0  0
 14 35  1  0  0  0  0
 15 16  1  0  0  0  0
 15 36  1  0  0  0  0
 15 37  1  0  0  0  0
 16 17  1  0  0  0  0
 16 38  1  0  0  0  0
 17 39  1  0  0  0  0
 17 40  1  0  0  0  0
 17 41  1  0  0  0  0
 18 19  1  0  0  0  0
 18 42  1  0  0  0  0
M  END
> <s_m_source_file>
AV-unprocessed.smi

> <i_m_source_file_index>
933

> <i_lp_mmshare_version>
43012

> <i_f3d_flags>
0

> <s_epik_input>
W0NIM11bQ0gyXWMxbmMoW2NIXXMxKVtDSDJdW0NIMl1bTkhdQyg9TylbTkhdW0NAQEhdMltDSDJdW0NIMl1bQ0gyXVtDQEhdMltDSDNd

> <s_epik_cmdline>
J2VwaWtfcHl0aG9uJywgJy1waCcsICc3LjAnLCAnLXRuJywgJzgnLCAnLW1hJywgJzIwMCcsICctbWV0YWxfYmluZGluZycsICctaW1hZScsICc8aW5maWxlLm1hZT4nLCAnLW9tYWUnLCAnPG91dGZpbGUubWFlPic=

> <r_epik_Ionization_Penalty>
0.00203408

> <r_epik_Ionization_Penalty_Charging>
0

> <r_epik_Ionization_Penalty_Neutral>
0.00203408

> <r_epik_State_Penalty>
0.0013452

> <r_epik_Charging_Adjusted_Penalty>
0.0013452

> <i_epik_Tot_Q>
0

> <i_epik_Tot_abs_Q>
0

> <r_epik_Metal_State_Penalty>
-0

> <b_epik_Metal_Only>
0

> <s_lp_Force_Field>
OPLS_2005

> <r_lp_Energy>
18.2024

> <b_lp_Chiralities_Consistent>
1

> <s_lp_Variant>
AV-unprocessed.smi:933-1

> <Gold.Version>
5.8.1

> <Gold.Id.Protein>
6NUR|6NUR_protein|mol2

> <Gold.PLP.Fitness>
42.5009

> <Gold.PLP.PLP>
-35.0589

> <Gold.PLP.part.hbond>
-2.4385

> <Gold.PLP.part.metal>
0.0000

> <Gold.PLP.part.buried>
-1.9727

> <Gold.PLP.part.nonpolar>
-32.8631

> <Gold.PLP.part.repulsive>
1.0908

> <Gold.PLP.ligand.clash>
0.0000

> <Gold.PLP.ligand.torsion>
0.4482

> <Gold.PLP.Chemscore.Hbond>
1.7590

> <Gold.PLP.Chemscore.CHOScore>
1.0000

> <Gold.PLP.Chemscore.Metal>
0.0000

> <Gold.Chemscore.Hbonds>
donor molecule, donor type, donor heavy atom, donor atom, acceptor molecule, acceptor atom, score
      L1  H     8    29       P1  7948  0.88
      L1  H    11    30       P1  7948  1.00
      L1  C    18    42       P1  8028  0.75

> <Gold.PLP.Chemscore.Internal.Correction>
0.0615

> <Gold.Rescore>
     Score         DG    S(hbond)    S(metal)    S(lipo)     H(rot)  DE(clash)    DE(int)     intcor
     16.09     -17.54       1.72        0.00      87.89       1.55       0.01       1.43       ----

> <Gold.Chemscore.Fitness>
16.0904

> <Gold.Chemscore.DG>
-17.5352

> <Gold.Chemscore.ZeroCoef>
-5.4800

> <Gold.Chemscore.Hbond>
1.7171

> <Gold.Chemscore.Metal>
0.0000

> <Gold.Chemscore.Lipo>
87.8936

> <Gold.Chemscore.Internal_Hbond>
0.0000

> <Gold.Chemscore.DEClash>
0.0115

> <Gold.Chemscore.DEInternal>
1.4333

> <Gold.Chemscore.Rot>
1.5482

> <Gold.Chemscore.Internal.Correction>
   9.000000E+99

> <Gold.Chemscore.Hbonds>
donor molecule, donor type, donor heavy atom, donor atom, acceptor molecule, acceptor atom, score
      L1  H     8    29       P1  7948  0.86
      L1  H    11    30       P1  7948  0.97

> <Gold.Chemscore.Hbond.Weighted>
-5.7352

> <Gold.Chemscore.Metal.Weighted>
-0.0000

> <Gold.Chemscore.Lipo.Weighted>
-10.2835

> <Gold.Chemscore.Internal_Hbond.Weighted>
0.0000

> <Gold.Chemscore.DEClash.Weighted>
0.0115

> <Gold.Chemscore.DEInternal.Weighted>
1.4333

> <Gold.Chemscore.Rot.Weighted>
3.9635

> <Gold.Chemscore.Internal.Correction.Weighted>
   9.000000E+99

> <Gold.Protein.RotatedTorsions>
[ 6907 6896 6895 6894 ] final    0.88 input  -60.11 | X-H torsion
[ 7974 7965 7964 7962 ] final   61.74 input  175.53 | X-H torsion
[ 8008 7997 7996 7995 ] final -165.87 input   59.86 | X-H torsion
[ 10167 10162 10161 10158 ] final   62.64 input  -65.29 | X-H torsion
[ 10718 10713 10712 10709 ] final   71.91 input   66.30 | X-H torsion
[ 10763 10752 10751 10750 ] final  130.49 input  -60.55 | X-H torsion
[ 11005 11000 10999 10996 ] final  -51.92 input  -57.11 | X-H torsion

> <Gold.Protein.ActiveResidues>
 VAL166  LYS551  ARG553  GLY616  TRP617  ASP618  TYR619  PRO620  LYS621  CYS622 
 ASP623  PHE694  ASN695  SER759  ASP760  ASP761  ALA762  ILE779  LEU786  VAL792 
 PHE793  MET794  SER795  GLU796  ALA797  LYS798  CYS799  TRP800  GLU811  SER814 

> <Gold.Protein.RotatedAtoms>
  151.5836  135.1057  160.0022 H   0  0  0  0  0  0  0  0  0  0  0  0  # atno 6907 bound_to 6896
  152.4342  133.7326  159.6607 H   0  0  0  0  0  0  0  0  0  0  0  0  # atno 6908 bound_to 6896
  150.8237  133.8138  159.3150 H   0  0  0  0  0  0  0  0  0  0  0  0  # atno 6909 bound_to 6896
  145.8813  139.3445  143.0704 H   0  0  0  0  0  0  0  0  0  0  0  0  # atno 7974 bound_to 7965
  155.8559  140.0970  157.1644 H   0  0  0  0  0  0  0  0  0  0  0  0  # atno 8008 bound_to 7997
  154.3988  140.1374  156.3964 H   0  0  0  0  0  0  0  0  0  0  0  0  # atno 8009 bound_to 7997
  155.7910  140.3456  155.5351 H   0  0  0  0  0  0  0  0  0  0  0  0  # atno 8010 bound_to 7997
  140.1417  144.4547  150.6807 H   0  0  0  0  0  0  0  0  0  0  0  0  # atno 10167 bound_to 10162
  157.6475  130.9552  150.0855 H   0  0  0  0  0  0  0  0  0  0  0  0  # atno 10718 bound_to 10713
  153.7588  135.3199  155.3333 H   0  0  0  0  0  0  0  0  0  0  0  0  # atno 10763 bound_to 10752
  154.8237  135.4585  154.0858 H   0  0  0  0  0  0  0  0  0  0  0  0  # atno 10764 bound_to 10752
  153.2083  135.6932  153.8229 H   0  0  0  0  0  0  0  0  0  0  0  0  # atno 10765 bound_to 10752
  141.0897  133.6635  156.3948 H   0  0  0  0  0  0  0  0  0  0  0  0  # atno 11005 bound_to 11000
  145.9020  140.9236  143.0498 LP  0  0  0  0  0  0  0  0  0  0  0  0  # atno 17320 bound_to 7965
  144.6727  140.1045  143.7459 LP  0  0  0  0  0  0  0  0  0  0  0  0  # atno 17321 bound_to 7965
  140.6756  143.2304  151.5515 LP  0  0  0  0  0  0  0  0  0  0  0  0  # atno 17342 bound_to 10162
  139.5469  144.2498  152.1458 LP  0  0  0  0  0  0  0  0  0  0  0  0  # atno 17343 bound_to 10162
  156.1819  130.3650  149.9024 LP  0  0  0  0  0  0  0  0  0  0  0  0  # atno 17370 bound_to 10713
  156.6974  130.8920  151.3595 LP  0  0  0  0  0  0  0  0  0  0  0  0  # atno 17371 bound_to 10713
  140.5282  134.6239  157.5341 LP  0  0  0  0  0  0  0  0  0  0  0  0  # atno 17394 bound_to 11000
  139.9720  134.7277  156.0022 LP  0  0  0  0  0  0  0  0  0  0  0  0  # atno 17395 bound_to 11000

$$$$
