AV-unprocessed.smi:2413|AV-procd|sdf|9534|dock2
  -GOLD-   2272013163D 1   1.00000     0.00000
 Structure written by MMmdl.
 45 46  0  0  0  0  0  0  0  0  1 V2000
  155.3300  137.0622  160.8488 C   0  0  0  0  0  0  0  0  0  0  0  0
  154.0910  136.7746  160.0062 C   0  0  0  0  0  0  0  0  0  0  0  0
  153.0332  136.4748  160.5582 O   0  0  0  0  0  0  0  0  0  0  0  0
  154.2346  136.8667  158.6751 N   0  0  0  0  0  0  0  0  0  0  0  0
  153.1835  136.6174  157.6935 C   0  0  0  0  0  0  0  0  0  0  0  0
  152.9392  137.8445  156.7991 C   0  0  2  0  0  0  0  0  0  0  0  0
  151.9680  138.8459  157.4553 C   0  0  0  0  0  0  0  0  0  0  0  0
  151.7061  139.9565  156.5486 N   0  0  0  0  0  0  0  0  0  0  0  0
  150.9242  140.9778  157.1031 C   0  0  0  0  0  0  0  0  0  0  0  0
  149.5148  140.9851  157.0104 C   0  0  0  0  0  0  0  0  0  0  0  0
  148.8563  142.0737  157.6128 C   0  0  0  0  0  0  0  0  0  0  0  0
  149.5361  143.0570  158.2394 N   0  0  0  0  0  0  0  0  0  0  0  0
  150.8740  142.9831  158.2407 C   0  0  0  0  0  0  0  0  0  0  0  0
  151.6356  144.0210  159.0829 C   0  0  0  0  0  0  0  0  0  0  0  0
  150.6699  145.0765  159.6715 C   0  0  0  0  0  0  0  0  0  0  0  0
  152.6890  144.7197  158.2038 C   0  0  0  0  0  0  0  0  0  0  0  0
  152.3302  143.3541  160.2934 C   0  0  0  0  0  0  0  0  0  0  0  0
  151.5891  141.9714  157.7300 N   0  0  0  0  0  0  0  0  0  0  0  0
  151.2192  139.5176  155.2483 C   0  0  0  0  0  0  0  0  0  0  0  0
  152.1888  138.4886  154.6449 C   0  0  0  0  0  0  0  0  0  0  0  0
  152.3721  137.4144  155.5620 O   0  0  0  0  0  0  0  0  0  0  0  0
  156.1798  137.3526  160.2296 H   0  0  0  0  0  0  0  0  0  0  0  0
  155.6100  136.1761  161.4188 H   0  0  0  0  0  0  0  0  0  0  0  0
  155.1282  137.8714  161.5509 H   0  0  0  0  0  0  0  0  0  0  0  0
  155.1433  137.1189  158.3146 H   0  0  0  0  0  0  0  0  0  0  0  0
  153.4111  135.7381  157.0886 H   0  0  0  0  0  0  0  0  0  0  0  0
  152.2733  136.3822  158.2456 H   0  0  0  0  0  0  0  0  0  0  0  0
  153.8940  138.3383  156.6075 H   0  0  0  0  0  0  0  0  0  0  0  0
  151.0338  138.3432  157.7087 H   0  0  0  0  0  0  0  0  0  0  0  0
  152.3927  139.2269  158.3850 H   0  0  0  0  0  0  0  0  0  0  0  0
  148.9644  140.2031  156.5086 H   0  0  0  0  0  0  0  0  0  0  0  0
  147.7793  142.1539  157.5961 H   0  0  0  0  0  0  0  0  0  0  0  0
  151.1975  145.7850  160.3111 H   0  0  0  0  0  0  0  0  0  0  0  0
  149.8900  144.6091  160.2741 H   0  0  0  0  0  0  0  0  0  0  0  0
  150.1799  145.6618  158.8925 H   0  0  0  0  0  0  0  0  0  0  0  0
  152.2246  145.2264  157.3571 H   0  0  0  0  0  0  0  0  0  0  0  0
  153.4081  144.0039  157.8037 H   0  0  0  0  0  0  0  0  0  0  0  0
  153.2475  145.4667  158.7686 H   0  0  0  0  0  0  0  0  0  0  0  0
  152.8312  144.0928  160.9201 H   0  0  0  0  0  0  0  0  0  0  0  0
  153.0916  142.6373  159.9841 H   0  0  0  0  0  0  0  0  0  0  0  0
  151.6126  142.8247  160.9212 H   0  0  0  0  0  0  0  0  0  0  0  0
  150.2283  139.0744  155.3573 H   0  0  0  0  0  0  0  0  0  0  0  0
  151.1193  140.3745  154.5809 H   0  0  0  0  0  0  0  0  0  0  0  0
  151.7870  138.0948  153.7113 H   0  0  0  0  0  0  0  0  0  0  0  0
  153.1498  138.9492  154.4098 H   0  0  0  0  0  0  0  0  0  0  0  0
  1  2  1  0  0  0  0
  1 22  1  0  0  0  0
  1 23  1  0  0  0  0
  1 24  1  0  0  0  0
  2  3  2  0  0  0  0
  2  4  1  0  0  0  0
  4  5  1  0  0  0  0
  4 25  1  0  0  0  0
  5  6  1  0  0  0  0
  5 26  1  0  0  0  0
  5 27  1  0  0  0  0
  6 21  1  0  0  0  0
  6  7  1  0  0  0  0
  6 28  1  0  0  0  0
  7  8  1  0  0  0  0
  7 29  1  0  0  0  0
  7 30  1  0  0  0  0
  8  9  1  0  0  0  0
  8 19  1  0  0  0  0
  9 18  1  0  0  0  0
  9 10  2  0  0  0  0
 10 11  1  0  0  0  0
 10 31  1  0  0  0  0
 11 12  2  0  0  0  0
 11 32  1  0  0  0  0
 12 13  1  0  0  0  0
 13 14  1  0  0  0  0
 13 18  2  0  0  0  0
 14 15  1  0  0  0  0
 14 16  1  0  0  0  0
 14 17  1  0  0  0  0
 15 33  1  0  0  0  0
 15 34  1  0  0  0  0
 15 35  1  0  0  0  0
 16 36  1  0  0  0  0
 16 37  1  0  0  0  0
 16 38  1  0  0  0  0
 17 39  1  0  0  0  0
 17 40  1  0  0  0  0
 17 41  1  0  0  0  0
 19 20  1  0  0  0  0
 19 42  1  0  0  0  0
 19 43  1  0  0  0  0
 20 21  1  0  0  0  0
 20 44  1  0  0  0  0
 20 45  1  0  0  0  0
M  END
> <s_m_source_file>
AV-unprocessed.smi

> <i_m_source_file_index>
2413

> <i_lp_mmshare_version>
43012

> <i_f3d_flags>
0

> <s_epik_input>
W0NIM11DKD1PKVtOSF1bQ0gyXVtDQEBIXTFbQ0gyXU4oW0NIMl1bQ0gyXU8xKWMyW2NIXVtjSF1uYyhuMilDKFtDSDNdKShbQ0gzXSlbQ0gzXQ==

> <s_epik_cmdline>
J2VwaWtfcHl0aG9uJywgJy1waCcsICc3LjAnLCAnLXRuJywgJzgnLCAnLW1hJywgJzIwMCcsICctbWV0YWxfYmluZGluZycsICctaW1hZScsICc8aW5maWxlLm1hZT4nLCAnLW9tYWUnLCAnPG91dGZpbGUubWFlPic=

> <r_lp_tautomer_probability>
1

> <r_epik_Ionization_Penalty>
0.0132021

> <r_epik_Ionization_Penalty_Charging>
0

> <r_epik_Ionization_Penalty_Neutral>
0.0132021

> <r_epik_State_Penalty>
0.0102452

> <r_epik_Charging_Adjusted_Penalty>
0.0102452

> <i_epik_Tot_Q>
0

> <i_epik_Tot_abs_Q>
0

> <r_epik_Metal_State_Penalty>
0.0100219

> <b_epik_Metal_Only>
0

> <s_lp_Force_Field>
OPLS_2005

> <r_lp_Energy>
13.0347

> <b_lp_Chiralities_Consistent>
1

> <s_lp_Variant>
AV-unprocessed.smi:2413-1

> <Gold.Version>
5.8.1

> <Gold.Id.Protein>
6NUR|6NUR_protein|mol2

> <Gold.PLP.Fitness>
39.1125

> <Gold.PLP.PLP>
-35.6543

> <Gold.PLP.part.hbond>
-2.0000

> <Gold.PLP.part.metal>
0.0000

> <Gold.PLP.part.buried>
-5.7128

> <Gold.PLP.part.nonpolar>
-28.7102

> <Gold.PLP.part.repulsive>
0.3319

> <Gold.PLP.ligand.clash>
0.0000

> <Gold.PLP.ligand.torsion>
1.0079

> <Gold.PLP.Chemscore.Hbond>
1.7360

> <Gold.PLP.Chemscore.CHOScore>
0.0000

> <Gold.PLP.Chemscore.Metal>
0.0000

> <Gold.Chemscore.Hbonds>
donor molecule, donor type, donor heavy atom, donor atom, acceptor molecule, acceptor atom, score
      P1  H  6896  6908       L1     3  1.00
      P1  H 10752 10765       L1    21  0.62

> <Gold.PLP.Chemscore.Internal.Correction>
0.2660

> <Gold.Rescore>
     Score         DG    S(hbond)    S(metal)    S(lipo)     H(rot)  DE(clash)    DE(int)     intcor
     16.12     -17.13       1.63        0.00      90.97       1.73       0.04       0.97       ----

> <Gold.Chemscore.Fitness>
16.1216

> <Gold.Chemscore.DG>
-17.1272

> <Gold.Chemscore.ZeroCoef>
-5.4800

> <Gold.Chemscore.Hbond>
1.6291

> <Gold.Chemscore.Metal>
0.0000

> <Gold.Chemscore.Lipo>
90.9672

> <Gold.Chemscore.Internal_Hbond>
0.0000

> <Gold.Chemscore.DEClash>
0.0394

> <Gold.Chemscore.DEInternal>
0.9662

> <Gold.Chemscore.Rot>
1.7332

> <Gold.Chemscore.Internal.Correction>
   9.000000E+99

> <Gold.Chemscore.Hbonds>
donor molecule, donor type, donor heavy atom, donor atom, acceptor molecule, acceptor atom, score
      P1  H  6896  6908       L1     3  0.98
      P1  H 10752 10765       L1    21  0.53

> <Gold.Chemscore.Hbond.Weighted>
-5.4411

> <Gold.Chemscore.Metal.Weighted>
-0.0000

> <Gold.Chemscore.Lipo.Weighted>
-10.6432

> <Gold.Chemscore.Internal_Hbond.Weighted>
0.0000

> <Gold.Chemscore.DEClash.Weighted>
0.0394

> <Gold.Chemscore.DEInternal.Weighted>
0.9662

> <Gold.Chemscore.Rot.Weighted>
4.4370

> <Gold.Chemscore.Internal.Correction.Weighted>
   9.000000E+99

> <Gold.Protein.RotatedTorsions>
[ 6907 6896 6895 6894 ] final  -86.45 input  -60.11 | X-H torsion
[ 7974 7965 7964 7962 ] final  -88.88 input  175.53 | X-H torsion
[ 8008 7997 7996 7995 ] final   -3.97 input   59.86 | X-H torsion
[ 10167 10162 10161 10158 ] final -117.67 input  -65.29 | X-H torsion
[ 10718 10713 10712 10709 ] final -158.07 input   66.30 | X-H torsion
[ 10763 10752 10751 10750 ] final -166.79 input  -60.55 | X-H torsion
[ 11005 11000 10999 10996 ] final  -93.21 input  -57.11 | X-H torsion

> <Gold.Protein.ActiveResidues>
 VAL166  LYS551  ARG553  GLY616  TRP617  ASP618  TYR619  PRO620  LYS621  CYS622 
 ASP623  PHE694  ASN695  SER759  ASP760  ASP761  ALA762  ILE779  LEU786  VAL792 
 PHE793  MET794  SER795  GLU796  ALA797  LYS798  CYS799  TRP800  GLU811  SER814 

> <Gold.Protein.RotatedAtoms>
  150.6867  134.3049  159.4721 H   0  0  0  0  0  0  0  0  0  0  0  0  # atno 6907 bound_to 6896
  152.0941  134.9384  160.0580 H   0  0  0  0  0  0  0  0  0  0  0  0  # atno 6908 bound_to 6896
  152.0689  133.4062  159.4487 H   0  0  0  0  0  0  0  0  0  0  0  0  # atno 6909 bound_to 6896
  145.4473  140.9560  143.2042 H   0  0  0  0  0  0  0  0  0  0  0  0  # atno 7974 bound_to 7965
  154.6193  140.2496  155.7570 H   0  0  0  0  0  0  0  0  0  0  0  0  # atno 8008 bound_to 7997
  156.2417  140.2930  156.0412 H   0  0  0  0  0  0  0  0  0  0  0  0  # atno 8009 bound_to 7997
  155.1923  140.0392  157.2893 H   0  0  0  0  0  0  0  0  0  0  0  0  # atno 8010 bound_to 7997
  140.0658  143.4924  152.2007 H   0  0  0  0  0  0  0  0  0  0  0  0  # atno 10167 bound_to 10162
  156.5491  130.8597  151.2774 H   0  0  0  0  0  0  0  0  0  0  0  0  # atno 10718 bound_to 10713
  154.6798  135.2952  154.9629 H   0  0  0  0  0  0  0  0  0  0  0  0  # atno 10763 bound_to 10752
  154.0628  135.6629  153.4818 H   0  0  0  0  0  0  0  0  0  0  0  0  # atno 10764 bound_to 10752
  153.0539  135.5156  154.7835 H   0  0  0  0  0  0  0  0  0  0  0  0  # atno 10765 bound_to 10752
  141.1503  133.7872  157.0128 H   0  0  0  0  0  0  0  0  0  0  0  0  # atno 11005 bound_to 11000
  144.8084  139.6009  143.7040 LP  0  0  0  0  0  0  0  0  0  0  0  0  # atno 17320 bound_to 7965
  146.2524  139.6228  142.9418 LP  0  0  0  0  0  0  0  0  0  0  0  0  # atno 17321 bound_to 7965
  139.5865  144.7533  151.3506 LP  0  0  0  0  0  0  0  0  0  0  0  0  # atno 17342 bound_to 10162
  140.7149  143.7292  150.7637 LP  0  0  0  0  0  0  0  0  0  0  0  0  # atno 17343 bound_to 10162
  157.7391  130.9825  150.2292 LP  0  0  0  0  0  0  0  0  0  0  0  0  # atno 17370 bound_to 10713
  156.2901  130.3744  149.7850 LP  0  0  0  0  0  0  0  0  0  0  0  0  # atno 17371 bound_to 10713
  140.0867  134.9617  157.1711 LP  0  0  0  0  0  0  0  0  0  0  0  0  # atno 17394 bound_to 11000
  140.3502  134.2607  155.7199 LP  0  0  0  0  0  0  0  0  0  0  0  0  # atno 17395 bound_to 11000

$$$$
