AV-unprocessed.smi:3226|AV-procd|sdf|12316|dock7
  -GOLD-   2272018163D 1   1.00000     0.00000
 Structure written by MMmdl.
 41 43  0  0  0  0  0  0  0  0  2 V2000
  146.1879  142.8663  154.8367 C   0  0  0  0  0  0  0  0  0  0  0  0
  146.5809  142.1006  153.5684 C   0  0  0  0  0  0  0  0  0  0  0  0
  147.7475  141.1873  153.7869 C   0  0  0  0  0  0  0  0  0  0  0  0
  148.9824  141.6254  154.0598 N   0  0  0  0  0  0  0  0  0  0  0  0
  149.7540  140.4922  154.2201 N   0  0  0  0  0  0  0  0  0  0  0  0
  148.9061  139.4817  154.0386 C   0  0  0  0  0  0  0  0  0  0  0  0
  147.6430  139.8414  153.7617 N   0  0  0  0  0  0  0  0  0  0  0  0
  146.4963  138.9838  153.5138 C   0  0  0  0  0  0  0  0  0  0  0  0
  146.5311  138.3494  152.1138 C   0  0  0  0  0  0  0  0  0  0  0  0
  146.4263  136.8775  152.1779 N   0  3  0  0  0  0  0  0  0  0  0  0
  145.4455  136.3031  151.2367 C   0  0  0  0  0  0  0  0  0  0  0  0
  145.7513  134.8216  150.9483 C   0  0  1  0  0  0  0  0  0  0  0  0
  146.0417  133.9737  152.2275 C   0  0  0  0  0  0  0  0  0  0  0  0
  145.0235  132.8148  152.1219 C   0  0  2  0  0  0  0  0  0  0  0  0
  145.3724  131.9876  150.9024 C   0  0  0  0  0  0  0  0  0  0  0  0
  145.0860  132.7252  149.8280 C   0  0  0  0  0  0  0  0  0  0  0  0
  144.5561  134.0554  150.3229 C   0  0  1  0  0  0  0  0  0  0  0  0
  143.8162  133.5862  151.5828 C   0  0  0  0  0  0  0  0  0  0  0  0
  145.3402  143.5249  154.6465 H   0  0  0  0  0  0  0  0  0  0  0  0
  147.0135  143.4813  155.1966 H   0  0  0  0  0  0  0  0  0  0  0  0
  145.9053  142.1830  155.6379 H   0  0  0  0  0  0  0  0  0  0  0  0
  145.7300  141.5308  153.1961 H   0  0  0  0  0  0  0  0  0  0  0  0
  146.8387  142.8095  152.7807 H   0  0  0  0  0  0  0  0  0  0  0  0
  149.2163  138.4491  154.1053 H   0  0  0  0  0  0  0  0  0  0  0  0
  146.4647  138.2103  154.2825 H   0  0  0  0  0  0  0  0  0  0  0  0
  145.5877  139.5740  153.6354 H   0  0  0  0  0  0  0  0  0  0  0  0
  145.6996  138.7360  151.5232 H   0  0  0  0  0  0  0  0  0  0  0  0
  147.4478  138.6265  151.5917 H   0  0  0  0  0  0  0  0  0  0  0  0
  147.3337  136.4810  151.9782 H   0  0  0  0  0  0  0  0  0  0  0  0
  144.4411  136.4220  151.6439 H   0  0  0  0  0  0  0  0  0  0  0  0
  145.4821  136.8714  150.3063 H   0  0  0  0  0  0  0  0  0  0  0  0
  146.6019  134.7747  150.2653 H   0  0  0  0  0  0  0  0  0  0  0  0
  147.0705  133.6126  152.2571 H   0  0  0  0  0  0  0  0  0  0  0  0
  145.8675  134.5486  153.1383 H   0  0  0  0  0  0  0  0  0  0  0  0
  144.8455  132.2408  153.0315 H   0  0  0  0  0  0  0  0  0  0  0  0
  145.7996  130.9960  150.9301 H   0  0  0  0  0  0  0  0  0  0  0  0
  145.2315  132.4661  148.7896 H   0  0  0  0  0  0  0  0  0  0  0  0
  143.9519  134.6000  149.5968 H   0  0  0  0  0  0  0  0  0  0  0  0
  142.9642  132.9404  151.3601 H   0  0  0  0  0  0  0  0  0  0  0  0
  143.4791  134.3928  152.2357 H   0  0  0  0  0  0  0  0  0  0  0  0
  146.1583  136.6144  153.1155 H   0  0  0  0  0  0  0  0  0  0  0  0
  1  2  1  0  0  0  0
  1 19  1  0  0  0  0
  1 20  1  0  0  0  0
  1 21  1  0  0  0  0
  2  3  1  0  0  0  0
  2 22  1  0  0  0  0
  2 23  1  0  0  0  0
  3  7  1  0  0  0  0
  3  4  2  0  0  0  0
  4  5  1  0  0  0  0
  5  6  2  0  0  0  0
  6  7  1  0  0  0  0
  6 24  1  0  0  0  0
  7  8  1  0  0  0  0
  8  9  1  0  0  0  0
  8 25  1  0  0  0  0
  8 26  1  0  0  0  0
  9 10  1  0  0  0  0
  9 27  1  0  0  0  0
  9 28  1  0  0  0  0
 10 11  1  0  0  0  0
 10 29  1  0  0  0  0
 10 41  1  0  0  0  0
 11 12  1  0  0  0  0
 11 30  1  0  0  0  0
 11 31  1  0  0  0  0
 12 17  1  0  0  0  0
 12 13  1  0  0  0  0
 12 32  1  0  0  0  0
 13 14  1  0  0  0  0
 13 33  1  0  0  0  0
 13 34  1  0  0  0  0
 14 18  1  0  0  0  0
 14 15  1  0  0  0  0
 14 35  1  0  0  0  0
 15 16  2  0  0  0  0
 15 36  1  0  0  0  0
 16 17  1  0  0  0  0
 16 37  1  0  0  0  0
 17 18  1  0  0  0  0
 17 38  1  0  0  0  0
 18 39  1  0  0  0  0
 18 40  1  0  0  0  0
M  CHG  1  10   1
M  END
> <s_m_source_file>
AV-unprocessed.smi

> <i_m_source_file_index>
3226

> <i_lp_mmshare_version>
43012

> <i_f3d_flags>
0

> <s_epik_input>
W0NIM11bQ0gyXWMxbm5bY0hdbjFbQ0gyXVtDSDJdW05IXVtDSDJdW0NASF0oW0NIMl1bQ0BASF0yMylbQ0BASF0oW0NIMl0zKVtDSF09W0NIXTI=

> <s_epik_cmdline>
J2VwaWtfcHl0aG9uJywgJy1waCcsICc3LjAnLCAnLXRuJywgJzgnLCAnLW1hJywgJzIwMCcsICctbWV0YWxfYmluZGluZycsICctaW1hZScsICc8aW5maWxlLm1hZT4nLCAnLW9tYWUnLCAnPG91dGZpbGUubWFlPic=

> <r_lp_tautomer_probability>
1

> <r_epik_Ionization_Penalty>
0.00175008

> <r_epik_Ionization_Penalty_Charging>
0.00173932

> <r_epik_Ionization_Penalty_Neutral>
1.07546e-05

> <r_epik_State_Penalty>
-0

> <r_epik_Charging_Adjusted_Penalty>
0.00173932

> <i_epik_Tot_Q>
1

> <i_epik_Tot_abs_Q>
1

> <r_epik_Metal_State_Penalty>
-0

> <b_epik_Metal_Only>
0

> <s_lp_Force_Field>
OPLS_2005

> <r_lp_Energy>
64.6894

> <b_lp_Chiralities_Consistent>
1

> <s_lp_Variant>
AV-unprocessed.smi:3226-4

> <Gold.Version>
5.8.1

> <Gold.Id.Protein>
6NUR|6NUR_protein|mol2

> <Gold.PLP.Fitness>
45.9827

> <Gold.PLP.PLP>
-38.1228

> <Gold.PLP.part.hbond>
-3.3143

> <Gold.PLP.part.metal>
0.0000

> <Gold.PLP.part.buried>
-3.4927

> <Gold.PLP.part.nonpolar>
-31.6076

> <Gold.PLP.part.repulsive>
0.6886

> <Gold.PLP.ligand.clash>
0.0000

> <Gold.PLP.ligand.torsion>
1.1795

> <Gold.PLP.Chemscore.Hbond>
3.3705

> <Gold.PLP.Chemscore.CHOScore>
0.0000

> <Gold.PLP.Chemscore.Metal>
0.0000

> <Gold.Chemscore.Hbonds>
donor molecule, donor type, donor heavy atom, donor atom, acceptor molecule, acceptor atom, score
      L1  H    10    29       P1  7948  2.00
      P1  H  7989  7998       L1     5  0.73
      P1  H  8011  8017       L1     4  0.56

> <Gold.PLP.Chemscore.Internal.Correction>
0.1072

> <Gold.Rescore>
     Score         DG    S(hbond)    S(metal)    S(lipo)     H(rot)  DE(clash)    DE(int)     intcor
     13.26     -14.49       1.61        0.00      76.22       2.06       0.09       1.14       ----

> <Gold.Chemscore.Fitness>
13.2593

> <Gold.Chemscore.DG>
-14.4882

> <Gold.Chemscore.ZeroCoef>
-5.4800

> <Gold.Chemscore.Hbond>
1.6079

> <Gold.Chemscore.Metal>
0.0000

> <Gold.Chemscore.Lipo>
76.2173

> <Gold.Chemscore.Internal_Hbond>
0.0000

> <Gold.Chemscore.DEClash>
0.0911

> <Gold.Chemscore.DEInternal>
1.1378

> <Gold.Chemscore.Rot>
2.0623

> <Gold.Chemscore.Internal.Correction>
   9.000000E+99

> <Gold.Chemscore.Hbonds>
donor molecule, donor type, donor heavy atom, donor atom, acceptor molecule, acceptor atom, score
      L1  H    10    29       P1  7948  0.99
      P1  H  7989  7998       L1     5  0.45
      P1  H  8011  8017       L1     4  0.11

> <Gold.Chemscore.Hbond.Weighted>
-5.3704

> <Gold.Chemscore.Metal.Weighted>
-0.0000

> <Gold.Chemscore.Lipo.Weighted>
-8.9174

> <Gold.Chemscore.Internal_Hbond.Weighted>
0.0000

> <Gold.Chemscore.DEClash.Weighted>
0.0911

> <Gold.Chemscore.DEInternal.Weighted>
1.1378

> <Gold.Chemscore.Rot.Weighted>
5.2796

> <Gold.Chemscore.Internal.Correction.Weighted>
   9.000000E+99

> <Gold.Protein.RotatedTorsions>
[ 6907 6896 6895 6894 ] final -142.88 input  -60.11 | X-H torsion
[ 7974 7965 7964 7962 ] final  -55.41 input  175.53 | X-H torsion
[ 8008 7997 7996 7995 ] final  -72.69 input   59.86 | X-H torsion
[ 10167 10162 10161 10158 ] final   22.89 input  -65.29 | X-H torsion
[ 10718 10713 10712 10709 ] final -176.03 input   66.30 | X-H torsion
[ 10763 10752 10751 10750 ] final  -13.20 input  -60.55 | X-H torsion
[ 11005 11000 10999 10996 ] final -139.85 input  -57.11 | X-H torsion

> <Gold.Protein.ActiveResidues>
 VAL166  LYS551  ARG553  GLY616  TRP617  ASP618  TYR619  PRO620  LYS621  CYS622 
 ASP623  PHE694  ASN695  SER759  ASP760  ASP761  ALA762  ILE779  LEU786  VAL792 
 PHE793  MET794  SER795  GLU796  ALA797  LYS798  CYS799  TRP800  GLU811  SER814 

> <Gold.Protein.RotatedAtoms>
  151.0930  133.5301  159.2613 H   0  0  0  0  0  0  0  0  0  0  0  0  # atno 6907 bound_to 6896
  151.2161  135.0500  159.8941 H   0  0  0  0  0  0  0  0  0  0  0  0  # atno 6908 bound_to 6896
  152.5436  134.0739  159.8259 H   0  0  0  0  0  0  0  0  0  0  0  0  # atno 6909 bound_to 6896
  145.8745  140.8191  142.9871 H   0  0  0  0  0  0  0  0  0  0  0  0  # atno 7974 bound_to 7965
  154.5187  140.0792  156.8130 H   0  0  0  0  0  0  0  0  0  0  0  0  # atno 8008 bound_to 7997
  155.3625  140.3418  155.4223 H   0  0  0  0  0  0  0  0  0  0  0  0  # atno 8009 bound_to 7997
  156.1656  140.1603  156.8524 H   0  0  0  0  0  0  0  0  0  0  0  0  # atno 8010 bound_to 7997
  140.5313  143.9837  150.6467 H   0  0  0  0  0  0  0  0  0  0  0  0  # atno 10167 bound_to 10162
  156.8087  130.9578  151.3116 H   0  0  0  0  0  0  0  0  0  0  0  0  # atno 10718 bound_to 10713
  153.5098  135.7016  153.5787 H   0  0  0  0  0  0  0  0  0  0  0  0  # atno 10763 bound_to 10752
  153.3882  135.3902  155.1905 H   0  0  0  0  0  0  0  0  0  0  0  0  # atno 10764 bound_to 10752
  154.8704  135.3852  154.4577 H   0  0  0  0  0  0  0  0  0  0  0  0  # atno 10765 bound_to 10752
  140.8479  134.2321  157.4776 H   0  0  0  0  0  0  0  0  0  0  0  0  # atno 11005 bound_to 11000
  144.6726  140.1290  143.7445 LP  0  0  0  0  0  0  0  0  0  0  0  0  # atno 17320 bound_to 7965
  145.9097  139.2479  143.1445 LP  0  0  0  0  0  0  0  0  0  0  0  0  # atno 17321 bound_to 7965
  140.3212  143.3136  152.0782 LP  0  0  0  0  0  0  0  0  0  0  0  0  # atno 17342 bound_to 10162
  139.4955  144.6572  151.6546 LP  0  0  0  0  0  0  0  0  0  0  0  0  # atno 17343 bound_to 10162
  157.6517  130.8890  149.9646 LP  0  0  0  0  0  0  0  0  0  0  0  0  # atno 17370 bound_to 10713
  156.1057  130.3653  150.0137 LP  0  0  0  0  0  0  0  0  0  0  0  0  # atno 17371 bound_to 10713
  139.8703  134.9669  156.4577 LP  0  0  0  0  0  0  0  0  0  0  0  0  # atno 17394 bound_to 11000
  140.8822  133.7909  155.9479 LP  0  0  0  0  0  0  0  0  0  0  0  0  # atno 17395 bound_to 11000

$$$$
