AV-unprocessed.smi:1948|AV-procd|sdf|7876|dock9
  -GOLD-   2272010 23D 1   1.00000     0.00000
 Structure written by MMmdl.
 29 30  0  0  0  0  0  0  0  0  2 V2000
  152.7102  139.7094  156.5880 O   0  0  0  0  0  0  0  0  0  0  0  0
  151.5083  139.9790  156.6495 C   0  0  0  0  0  0  0  0  0  0  0  0
  150.5102  139.3403  155.9968 N   0  5  0  0  0  0  0  0  0  0  0  0
  149.7360  140.0133  155.1295 C   0  0  0  0  0  0  0  0  0  0  0  0
  150.0867  141.2108  154.6332 N   0  0  0  0  0  0  0  0  0  0  0  0
  149.1503  141.7317  153.7504 N   0  0  0  0  0  0  0  0  0  0  0  0
  148.1154  140.9059  153.5972 C   0  0  0  0  0  0  0  0  0  0  0  0
  148.1929  139.4155  154.5129 S   0  0  0  0  0  0  0  0  0  0  0  0
  151.0875  140.9930  157.4198 N   0  0  0  0  0  0  0  0  0  0  0  0
  151.9314  141.8659  158.2320 C   0  0  2  0  0  0  0  0  0  0  0  0
  152.5563  141.0838  159.4047 C   0  0  0  0  0  0  0  0  0  0  0  0
  153.4000  142.0005  160.3080 C   0  0  0  0  0  0  0  0  0  0  0  0
  152.6052  143.2203  160.8116 C   0  0  2  0  0  0  0  0  0  0  0  0
  151.6302  142.8121  161.7510 O   0  0  0  0  0  0  0  0  0  0  0  0
  151.9350  143.9791  159.6509 C   0  0  0  0  0  0  0  0  0  0  0  0
  151.0980  143.0508  158.7530 C   0  0  0  0  0  0  0  0  0  0  0  0
  147.3036  141.1739  152.9378 H   0  0  0  0  0  0  0  0  0  0  0  0
  150.0947  141.1743  157.4409 H   0  0  0  0  0  0  0  0  0  0  0  0
  152.7320  142.2665  157.6069 H   0  0  0  0  0  0  0  0  0  0  0  0
  151.7694  140.6123  159.9951 H   0  0  0  0  0  0  0  0  0  0  0  0
  153.1808  140.2739  159.0263 H   0  0  0  0  0  0  0  0  0  0  0  0
  153.7992  141.4336  161.1497 H   0  0  0  0  0  0  0  0  0  0  0  0
  154.2643  142.3504  159.7420 H   0  0  0  0  0  0  0  0  0  0  0  0
  153.2835  143.8961  161.3335 H   0  0  0  0  0  0  0  0  0  0  0  0
  151.6497  143.4092  162.4831 H   0  0  0  0  0  0  0  0  0  0  0  0
  151.3138  144.7883  160.0365 H   0  0  0  0  0  0  0  0  0  0  0  0
  152.7075  144.4529  159.0439 H   0  0  0  0  0  0  0  0  0  0  0  0
  150.6953  143.6203  157.9147 H   0  0  0  0  0  0  0  0  0  0  0  0
  150.2382  142.6805  159.3134 H   0  0  0  0  0  0  0  0  0  0  0  0
  1  2  2  0  0  0  0
  2  3  1  0  0  0  0
  2  9  1  0  0  0  0
  3  4  1  0  0  0  0
  4  8  1  0  0  0  0
  4  5  2  0  0  0  0
  5  6  1  0  0  0  0
  6  7  2  0  0  0  0
  7  8  1  0  0  0  0
  7 17  1  0  0  0  0
  9 10  1  0  0  0  0
  9 18  1  0  0  0  0
 10 16  1  0  0  0  0
 10 11  1  0  0  0  0
 10 19  1  0  0  0  0
 11 12  1  0  0  0  0
 11 20  1  0  0  0  0
 11 21  1  0  0  0  0
 12 13  1  0  0  0  0
 12 22  1  0  0  0  0
 12 23  1  0  0  0  0
 13 14  1  0  0  0  0
 13 15  1  0  0  0  0
 13 24  1  0  0  0  0
 14 25  1  0  0  0  0
 15 16  1  0  0  0  0
 15 26  1  0  0  0  0
 15 27  1  0  0  0  0
 16 28  1  0  0  0  0
 16 29  1  0  0  0  0
M  CHG  1   3  -1
M  END
> <s_m_source_file>
AV-unprocessed.smi

> <i_m_source_file_index>
1948

> <i_lp_mmshare_version>
43012

> <i_f3d_flags>
0

> <s_epik_input>
czFbY0hdbm5jMVtOSF1DKD1PKVtOSF1bQ0BASF0yW0NIMl1bQ0gyXVtDQEBIXShbT0hdKVtDSDJdW0NIMl0y

> <s_epik_cmdline>
J2VwaWtfcHl0aG9uJywgJy1waCcsICc3LjAnLCAnLXRuJywgJzgnLCAnLW1hJywgJzIwMCcsICctbWV0YWxfYmluZGluZycsICctaW1hZScsICc8aW5maWxlLm1hZT4nLCAnLW9tYWUnLCAnPG91dGZpbGUubWFlPic=

> <r_lp_tautomer_probability>
1

> <r_epik_Ionization_Penalty>
4.52057

> <r_epik_Ionization_Penalty_Charging>
4.4725

> <r_epik_Ionization_Penalty_Neutral>
0.048076

> <r_epik_State_Penalty>
4.47218

> <r_epik_Charging_Adjusted_Penalty>
8.94468

> <i_epik_Tot_Q>
-1

> <i_epik_Tot_abs_Q>
1

> <r_epik_Metal_State_Penalty>
0.805713

> <b_epik_Metal_Only>
1

> <s_lp_Force_Field>
OPLS_2005

> <r_lp_Energy>
8.18749

> <b_lp_Chiralities_Consistent>
1

> <s_lp_Variant>
AV-unprocessed.smi:1948-4

> <Gold.Version>
5.8.1

> <Gold.Id.Protein>
6NUR|6NUR_protein|mol2

> <Gold.PLP.Fitness>
38.6676

> <Gold.PLP.PLP>
-31.2094

> <Gold.PLP.part.hbond>
-5.8334

> <Gold.PLP.part.metal>
0.0000

> <Gold.PLP.part.buried>
-3.0515

> <Gold.PLP.part.nonpolar>
-22.3475

> <Gold.PLP.part.repulsive>
0.3946

> <Gold.PLP.ligand.clash>
0.0000

> <Gold.PLP.ligand.torsion>
0.7023

> <Gold.PLP.Chemscore.Hbond>
2.9520

> <Gold.PLP.Chemscore.CHOScore>
0.0000

> <Gold.PLP.Chemscore.Metal>
0.0000

> <Gold.Chemscore.Hbonds>
donor molecule, donor type, donor heavy atom, donor atom, acceptor molecule, acceptor atom, score
      P1  H  6933  6945       L1    14  0.65
      P1  H  7989  7998       L1     5  0.53
      P1  H  7997  8008       L1     1  1.00
      P1  H  8011  8017       L1     6  0.64

> <Gold.PLP.Chemscore.Internal.Correction>
0.0069

> <Gold.Rescore>
     Score         DG    S(hbond)    S(metal)    S(lipo)     H(rot)  DE(clash)    DE(int)     intcor
     15.23     -16.38       1.92        0.00      71.93       1.53       0.28       0.87       ----

> <Gold.Chemscore.Fitness>
15.2270

> <Gold.Chemscore.DG>
-16.3763

> <Gold.Chemscore.ZeroCoef>
-5.4800

> <Gold.Chemscore.Hbond>
1.9181

> <Gold.Chemscore.Metal>
0.0000

> <Gold.Chemscore.Lipo>
71.9326

> <Gold.Chemscore.Internal_Hbond>
0.0000

> <Gold.Chemscore.DEClash>
0.2841

> <Gold.Chemscore.DEInternal>
0.8652

> <Gold.Chemscore.Rot>
1.5337

> <Gold.Chemscore.Internal.Correction>
   9.000000E+99

> <Gold.Chemscore.Hbonds>
donor molecule, donor type, donor heavy atom, donor atom, acceptor molecule, acceptor atom, score
      P1  H  6933  6945       L1    14  0.14
      P1  H  7989  7998       L1     5  0.11
      P1  H  7997  8008       L1     1  0.97
      P1  H  8011  8017       L1     6  0.55

> <Gold.Chemscore.Hbond.Weighted>
-6.4064

> <Gold.Chemscore.Metal.Weighted>
-0.0000

> <Gold.Chemscore.Lipo.Weighted>
-8.4161

> <Gold.Chemscore.Internal_Hbond.Weighted>
0.0000

> <Gold.Chemscore.DEClash.Weighted>
0.2841

> <Gold.Chemscore.DEInternal.Weighted>
0.8652

> <Gold.Chemscore.Rot.Weighted>
3.9262

> <Gold.Chemscore.Internal.Correction.Weighted>
   9.000000E+99

> <Gold.Protein.RotatedTorsions>
[ 6907 6896 6895 6894 ] final   84.81 input  -60.11 | X-H torsion
[ 7974 7965 7964 7962 ] final  -11.08 input  175.53 | X-H torsion
[ 8008 7997 7996 7995 ] final  -33.06 input   59.86 | X-H torsion
[ 10167 10162 10161 10158 ] final -118.25 input  -65.29 | X-H torsion
[ 10718 10713 10712 10709 ] final   83.56 input   66.30 | X-H torsion
[ 10763 10752 10751 10750 ] final  -79.27 input  -60.55 | X-H torsion
[ 11005 11000 10999 10996 ] final  112.85 input  -57.11 | X-H torsion

> <Gold.Protein.ActiveResidues>
 VAL166  LYS551  ARG553  GLY616  TRP617  ASP618  TYR619  PRO620  LYS621  CYS622 
 ASP623  PHE694  ASN695  SER759  ASP760  ASP761  ALA762  ILE779  LEU786  VAL792 
 PHE793  MET794  SER795  GLU796  ALA797  LYS798  CYS799  TRP800  GLU811  SER814 

> <Gold.Protein.RotatedAtoms>
  152.5361  134.2683  159.8961 H   0  0  0  0  0  0  0  0  0  0  0  0  # atno 6907 bound_to 6896
  151.2640  133.4281  159.2625 H   0  0  0  0  0  0  0  0  0  0  0  0  # atno 6908 bound_to 6896
  151.0427  134.9633  159.8226 H   0  0  0  0  0  0  0  0  0  0  0  0  # atno 6909 bound_to 6896
  146.2199  140.2858  142.8365 H   0  0  0  0  0  0  0  0  0  0  0  0  # atno 7974 bound_to 7965
  154.4160  140.1720  156.1828 H   0  0  0  0  0  0  0  0  0  0  0  0  # atno 8008 bound_to 7997
  155.9668  140.3389  155.6516 H   0  0  0  0  0  0  0  0  0  0  0  0  # atno 8009 bound_to 7997
  155.6677  140.0708  157.2522 H   0  0  0  0  0  0  0  0  0  0  0  0  # atno 8010 bound_to 7997
  140.0595  143.4982  152.2039 H   0  0  0  0  0  0  0  0  0  0  0  0  # atno 10167 bound_to 10162
  157.6881  131.0096  150.2541 H   0  0  0  0  0  0  0  0  0  0  0  0  # atno 10718 bound_to 10713
  154.5365  135.5701  153.6803 H   0  0  0  0  0  0  0  0  0  0  0  0  # atno 10763 bound_to 10752
  152.9952  135.6217  154.2559 H   0  0  0  0  0  0  0  0  0  0  0  0  # atno 10764 bound_to 10752
  154.2488  135.2860  155.2805 H   0  0  0  0  0  0  0  0  0  0  0  0  # atno 10765 bound_to 10752
  139.8938  134.9538  156.6649 H   0  0  0  0  0  0  0  0  0  0  0  0  # atno 11005 bound_to 11000
  144.9163  140.7817  143.5776 LP  0  0  0  0  0  0  0  0  0  0  0  0  # atno 17320 bound_to 7965
  145.2792  139.1925  143.4800 LP  0  0  0  0  0  0  0  0  0  0  0  0  # atno 17321 bound_to 7965
  139.5902  144.7547  151.3418 LP  0  0  0  0  0  0  0  0  0  0  0  0  # atno 17342 bound_to 10162
  140.7179  143.7217  150.7690 LP  0  0  0  0  0  0  0  0  0  0  0  0  # atno 17343 bound_to 10162
  156.3132  130.3775  149.7642 LP  0  0  0  0  0  0  0  0  0  0  0  0  # atno 17370 bound_to 10713
  156.5236  130.8226  151.3212 LP  0  0  0  0  0  0  0  0  0  0  0  0  # atno 17371 bound_to 10713
  140.7418  133.8971  155.8283 LP  0  0  0  0  0  0  0  0  0  0  0  0  # atno 17394 bound_to 11000
  141.0071  134.1071  157.4259 LP  0  0  0  0  0  0  0  0  0  0  0  0  # atno 17395 bound_to 11000

$$$$
