AV-unprocessed.smi:144|AV-procd|sdf|1195|dock3
  -GOLD-   2262018353D 1   1.00000     0.00000
 Structure written by MMmdl.
 46 48  0  0  0  0  0  0  0  0  1 V2000
  151.6024  136.8697  154.3212 O   0  0  0  0  0  0  0  0  0  0  0  0
  151.3739  137.6371  155.2548 C   0  0  0  0  0  0  0  0  0  0  0  0
  151.9809  139.0521  155.2055 C   0  0  0  0  0  0  0  0  0  0  0  0
  152.0535  139.7487  156.5116 N   0  0  0  0  0  0  0  0  0  0  0  0
  152.7283  139.1164  157.5853 C   0  0  0  0  0  0  0  0  0  0  0  0
  153.2465  138.0075  157.4492 O   0  0  0  0  0  0  0  0  0  0  0  0
  152.7739  139.8713  158.8327 C   0  0  0  0  0  0  0  0  0  0  0  0
  153.3840  139.3436  159.9072 F   0  0  0  0  0  0  0  0  0  0  0  0
  152.2181  141.0970  158.9247 C   0  0  0  0  0  0  0  0  0  0  0  0
  151.5780  141.7098  157.8624 N   0  0  0  0  0  0  0  0  0  0  0  0
  150.9812  143.0965  157.9746 C   0  0  2  0  0  0  0  0  0  0  0  0
  152.0883  144.1656  157.9231 C   0  0  0  0  0  0  0  0  0  0  0  0
  151.7648  145.0351  159.1213 C   0  0  0  0  0  0  0  0  0  0  0  0
  151.1272  144.0328  160.0716 C   0  0  0  0  0  0  0  0  0  0  0  0
  150.3298  143.2358  159.2052 O   0  0  0  0  0  0  0  0  0  0  0  0
  151.4776  141.0366  156.6262 C   0  0  0  0  0  0  0  0  0  0  0  0
  150.9166  141.5682  155.6654 O   0  0  0  0  0  0  0  0  0  0  0  0
  150.6384  137.3144  156.3372 N   0  0  0  0  0  0  0  0  0  0  0  0
  150.0067  136.0847  156.6599 C   0  0  0  0  0  0  0  0  0  0  0  0
  149.2013  136.0666  157.8162 C   0  0  0  0  0  0  0  0  0  0  0  0
  148.5322  134.8886  158.2101 C   0  0  0  0  0  0  0  0  0  0  0  0
  147.6685  134.8664  159.4621 C   0  0  0  0  0  0  0  0  0  0  0  0
  146.3844  134.8434  159.1079 F   0  0  0  0  0  0  0  0  0  0  0  0
  147.9343  133.7803  160.1879 F   0  0  0  0  0  0  0  0  0  0  0  0
  147.8833  135.9400  160.2238 F   0  0  0  0  0  0  0  0  0  0  0  0
  148.6554  133.7263  157.4209 C   0  0  0  0  0  0  0  0  0  0  0  0
  149.4364  133.7350  156.2454 C   0  0  0  0  0  0  0  0  0  0  0  0
  149.5657  132.4831  155.3901 C   0  0  0  0  0  0  0  0  0  0  0  0
  149.2698  132.7550  154.1188 F   0  0  0  0  0  0  0  0  0  0  0  0
  150.8194  132.0367  155.4535 F   0  0  0  0  0  0  0  0  0  0  0  0
  148.7463  131.5188  155.8110 F   0  0  0  0  0  0  0  0  0  0  0  0
  150.1122  134.9156  155.8699 C   0  0  0  0  0  0  0  0  0  0  0  0
  152.9737  138.9783  154.7585 H   0  0  0  0  0  0  0  0  0  0  0  0
  151.4141  139.6360  154.4787 H   0  0  0  0  0  0  0  0  0  0  0  0
  152.2881  141.6031  159.8753 H   0  0  0  0  0  0  0  0  0  0  0  0
  150.2473  143.1728  157.1702 H   0  0  0  0  0  0  0  0  0  0  0  0
  153.0683  143.7008  158.0448 H   0  0  0  0  0  0  0  0  0  0  0  0
  152.0673  144.7074  156.9773 H   0  0  0  0  0  0  0  0  0  0  0  0
  152.6417  145.5266  159.5433 H   0  0  0  0  0  0  0  0  0  0  0  0
  151.0398  145.8021  158.8452 H   0  0  0  0  0  0  0  0  0  0  0  0
  151.8886  143.4184  160.5540 H   0  0  0  0  0  0  0  0  0  0  0  0
  150.5252  144.5081  160.8464 H   0  0  0  0  0  0  0  0  0  0  0  0
  150.6001  138.0192  157.0590 H   0  0  0  0  0  0  0  0  0  0  0  0
  149.1046  136.9654  158.4081 H   0  0  0  0  0  0  0  0  0  0  0  0
  148.1398  132.8260  157.7209 H   0  0  0  0  0  0  0  0  0  0  0  0
  150.6963  134.9075  154.9628 H   0  0  0  0  0  0  0  0  0  0  0  0
  1  2  2  0  0  0  0
  2  3  1  0  0  0  0
  2 18  1  0  0  0  0
  3  4  1  0  0  0  0
  3 33  1  0  0  0  0
  3 34  1  0  0  0  0
  4 16  1  0  0  0  0
  4  5  1  0  0  0  0
  5  6  2  0  0  0  0
  5  7  1  0  0  0  0
  7  8  1  0  0  0  0
  7  9  2  0  0  0  0
  9 10  1  0  0  0  0
  9 35  1  0  0  0  0
 10 11  1  0  0  0  0
 10 16  1  0  0  0  0
 11 15  1  0  0  0  0
 11 12  1  0  0  0  0
 11 36  1  0  0  0  0
 12 13  1  0  0  0  0
 12 37  1  0  0  0  0
 12 38  1  0  0  0  0
 13 14  1  0  0  0  0
 13 39  1  0  0  0  0
 13 40  1  0  0  0  0
 14 15  1  0  0  0  0
 14 41  1  0  0  0  0
 14 42  1  0  0  0  0
 16 17  2  0  0  0  0
 18 19  1  0  0  0  0
 18 43  1  0  0  0  0
 19 32  1  0  0  0  0
 19 20  2  0  0  0  0
 20 21  1  0  0  0  0
 20 44  1  0  0  0  0
 21 22  1  0  0  0  0
 21 26  2  0  0  0  0
 22 23  1  0  0  0  0
 22 24  1  0  0  0  0
 22 25  1  0  0  0  0
 26 27  1  0  0  0  0
 26 45  1  0  0  0  0
 27 28  1  0  0  0  0
 27 32  2  0  0  0  0
 28 29  1  0  0  0  0
 28 30  1  0  0  0  0
 28 31  1  0  0  0  0
 32 46  1  0  0  0  0
M  END
> <s_m_source_file>
AV-unprocessed.smi

> <i_m_source_file_index>
144

> <i_lp_mmshare_version>
43012

> <i_f3d_flags>
0

> <s_epik_input>
RkMoRikoRiljKFtjSF0xKVtjSF1jKEMoRikoRilGKVtjSF1jMVtOSF1DKD1PKVtDSDJdbjJjKD1PKWMoRilbY0hdbihjMj1PKVtDQEBIXTNbQ0gyXVtDSDJdW0NIMl1PMw==

> <s_epik_cmdline>
J2VwaWtfcHl0aG9uJywgJy1waCcsICc3LjAnLCAnLXRuJywgJzgnLCAnLW1hJywgJzIwMCcsICctbWV0YWxfYmluZGluZycsICctaW1hZScsICc8aW5maWxlLm1hZT4nLCAnLW9tYWUnLCAnPG91dGZpbGUubWFlPic=

> <r_lp_tautomer_probability>
1

> <r_epik_Ionization_Penalty>
3.68082e-06

> <r_epik_Ionization_Penalty_Charging>
3.88729e-08

> <r_epik_Ionization_Penalty_Neutral>
3.64194e-06

> <r_epik_State_Penalty>
-0

> <r_epik_Charging_Adjusted_Penalty>
3.88729e-08

> <i_epik_Tot_Q>
0

> <i_epik_Tot_abs_Q>
0

> <r_epik_Metal_State_Penalty>
-0

> <b_epik_Metal_Only>
0

> <s_epik_Chemistry_Notes>
This compound contains an acetal/aminal-like group ( X-CH(R)-Y where X, Y are N, S, or O) that may be acid/base labile, releasing an aldehyde.

> <s_lp_Force_Field>
OPLS_2005

> <r_lp_Energy>
34.4133

> <b_lp_Chiralities_Consistent>
1

> <s_lp_Variant>
AV-unprocessed.smi:144-1

> <Gold.Version>
5.8.1

> <Gold.Id.Protein>
6NUR|6NUR_protein|mol2

> <Gold.PLP.Fitness>
49.8414

> <Gold.PLP.PLP>
-48.5656

> <Gold.PLP.part.hbond>
-2.1807

> <Gold.PLP.part.metal>
0.0000

> <Gold.PLP.part.buried>
-4.2488

> <Gold.PLP.part.nonpolar>
-42.0423

> <Gold.PLP.part.repulsive>
0.7168

> <Gold.PLP.ligand.clash>
0.6760

> <Gold.PLP.ligand.torsion>
1.3974

> <Gold.PLP.Chemscore.Hbond>
1.0842

> <Gold.PLP.Chemscore.CHOScore>
0.0000

> <Gold.PLP.Chemscore.Metal>
0.0000

> <Gold.Chemscore.Hbonds>
donor molecule, donor type, donor heavy atom, donor atom, acceptor molecule, acceptor atom, score
      P1  H  7989  7998       L1    17  0.07
      P1  H 10752 10764       L1     1  1.00

> <Gold.PLP.Chemscore.Internal.Correction>
1.4939

> <Gold.Rescore>
     Score         DG    S(hbond)    S(metal)    S(lipo)     H(rot)  DE(clash)    DE(int)     intcor
     12.06     -14.61       1.37        0.00      79.08       1.83       0.21       2.34       ----

> <Gold.Chemscore.Fitness>
12.0608

> <Gold.Chemscore.DG>
-14.6092

> <Gold.Chemscore.ZeroCoef>
-5.4800

> <Gold.Chemscore.Hbond>
1.3677

> <Gold.Chemscore.Metal>
0.0000

> <Gold.Chemscore.Lipo>
79.0800

> <Gold.Chemscore.Internal_Hbond>
0.0000

> <Gold.Chemscore.DEClash>
0.2111

> <Gold.Chemscore.DEInternal>
2.3374

> <Gold.Chemscore.Rot>
1.8325

> <Gold.Chemscore.Internal.Correction>
   9.000000E+99

> <Gold.Chemscore.Hbonds>
donor molecule, donor type, donor heavy atom, donor atom, acceptor molecule, acceptor atom, score
      P1  H  7989  7998       L1    17  0.07
      P1  H 10752 10764       L1     1  1.00

> <Gold.Chemscore.Hbond.Weighted>
-4.5680

> <Gold.Chemscore.Metal.Weighted>
-0.0000

> <Gold.Chemscore.Lipo.Weighted>
-9.2524

> <Gold.Chemscore.Internal_Hbond.Weighted>
0.0000

> <Gold.Chemscore.DEClash.Weighted>
0.2111

> <Gold.Chemscore.DEInternal.Weighted>
2.3374

> <Gold.Chemscore.Rot.Weighted>
4.6911

> <Gold.Chemscore.Internal.Correction.Weighted>
   9.000000E+99

> <Gold.Protein.RotatedTorsions>
[ 6907 6896 6895 6894 ] final   34.83 input  -60.11 | X-H torsion
[ 7974 7965 7964 7962 ] final   -2.45 input  175.53 | X-H torsion
[ 8008 7997 7996 7995 ] final  -37.19 input   59.86 | X-H torsion
[ 10167 10162 10161 10158 ] final   43.50 input  -65.29 | X-H torsion
[ 10718 10713 10712 10709 ] final  143.03 input   66.30 | X-H torsion
[ 10763 10752 10751 10750 ] final  -78.38 input  -60.55 | X-H torsion
[ 11005 11000 10999 10996 ] final  155.26 input  -57.11 | X-H torsion

> <Gold.Protein.ActiveResidues>
 VAL166  LYS551  ARG553  GLY616  TRP617  ASP618  TYR619  PRO620  LYS621  CYS622 
 ASP623  PHE694  ASN695  SER759  ASP760  ASP761  ALA762  ILE779  LEU786  VAL792 
 PHE793  MET794  SER795  GLU796  ALA797  LYS798  CYS799  TRP800  GLU811  SER814 

> <Gold.Protein.RotatedAtoms>
  152.1078  134.9296  160.0567 H   0  0  0  0  0  0  0  0  0  0  0  0  # atno 6907 bound_to 6896
  152.0485  133.4004  159.4375 H   0  0  0  0  0  0  0  0  0  0  0  0  # atno 6908 bound_to 6896
  150.6842  134.3255  159.4848 H   0  0  0  0  0  0  0  0  0  0  0  0  # atno 6909 bound_to 6896
  146.2404  140.1573  142.8333 H   0  0  0  0  0  0  0  0  0  0  0  0  # atno 7974 bound_to 7965
  154.4058  140.1611  156.2496 H   0  0  0  0  0  0  0  0  0  0  0  0  # atno 8008 bound_to 7997
  155.9131  140.3426  155.6091 H   0  0  0  0  0  0  0  0  0  0  0  0  # atno 8009 bound_to 7997
  155.7312  140.0780  157.2278 H   0  0  0  0  0  0  0  0  0  0  0  0  # atno 8010 bound_to 7997
  140.3437  144.2438  150.6153 H   0  0  0  0  0  0  0  0  0  0  0  0  # atno 10167 bound_to 10162
  157.3736  131.0982  151.0805 H   0  0  0  0  0  0  0  0  0  0  0  0  # atno 10718 bound_to 10713
  154.5251  135.5732  153.6712 H   0  0  0  0  0  0  0  0  0  0  0  0  # atno 10763 bound_to 10752
  152.9926  135.6191  154.2703 H   0  0  0  0  0  0  0  0  0  0  0  0  # atno 10764 bound_to 10752
  154.2626  135.2855  155.2751 H   0  0  0  0  0  0  0  0  0  0  0  0  # atno 10765 bound_to 10752
  140.1565  134.8639  157.2520 H   0  0  0  0  0  0  0  0  0  0  0  0  # atno 11005 bound_to 11000
  145.0118  140.8720  143.5219 LP  0  0  0  0  0  0  0  0  0  0  0  0  # atno 17320 bound_to 7965
  145.1608  139.2459  143.5392 LP  0  0  0  0  0  0  0  0  0  0  0  0  # atno 17321 bound_to 7965
  140.5285  143.2249  151.8277 LP  0  0  0  0  0  0  0  0  0  0  0  0  # atno 17342 bound_to 10162
  139.4836  144.4750  151.9378 LP  0  0  0  0  0  0  0  0  0  0  0  0  # atno 17343 bound_to 10162
  157.1899  130.6347  149.5701 LP  0  0  0  0  0  0  0  0  0  0  0  0  # atno 17370 bound_to 10713
  155.9761  130.4725  150.6503 LP  0  0  0  0  0  0  0  0  0  0  0  0  # atno 17371 bound_to 10713
  140.2541  134.3648  155.7431 LP  0  0  0  0  0  0  0  0  0  0  0  0  # atno 17394 bound_to 11000
  141.2205  133.7333  156.8981 LP  0  0  0  0  0  0  0  0  0  0  0  0  # atno 17395 bound_to 11000

$$$$
