AV-unprocessed.smi:1389|AV-procd|sdf|5655|dock2
  -GOLD-   22720 5283D 1   1.00000     0.00000
 Structure written by MMmdl.
 52 54  0  0  0  0  0  0  0  0  4 V2000
  150.9771  137.7301  156.6930 C   0  0  0  0  0  0  0  0  0  0  0  0
  150.7804  136.9876  158.0361 C   0  0  1  0  0  0  0  0  0  0  0  0
  151.6060  137.5942  159.2039 C   0  0  0  0  0  0  0  0  0  0  0  0
  152.8695  138.1540  158.7121 N   0  5  0  0  0  0  0  0  0  0  0  0
  153.1677  139.4802  158.6750 C   0  0  0  0  0  0  0  0  0  0  0  0
  154.2769  140.0096  158.8096 O   0  0  0  0  0  0  0  0  0  0  0  0
  152.0797  140.2375  158.4549 N   0  0  0  0  0  0  0  0  0  0  0  0
  152.0130  141.6456  158.2654 C   0  0  0  0  0  0  0  0  0  0  0  0
  152.8985  142.5150  158.9512 C   0  0  0  0  0  0  0  0  0  0  0  0
  152.7667  143.9087  158.8056 C   0  0  0  0  0  0  0  0  0  0  0  0
  151.7383  144.4123  157.9903 C   0  0  0  0  0  0  0  0  0  0  0  0
  150.9023  143.5588  157.3636 N   0  3  0  0  0  0  0  0  0  0  0  0
  150.9881  142.2076  157.4515 C   0  0  0  0  0  0  0  0  0  0  0  0
  150.0508  141.4356  156.7281 N   0  0  0  0  0  0  0  0  0  0  0  0
  148.6461  141.4206  157.1198 C   0  0  0  0  0  0  0  0  0  0  0  0
  147.9094  140.8132  155.9291 C   0  0  0  0  0  0  0  0  0  0  0  0
  148.7131  141.3391  154.7436 C   0  0  0  0  0  0  0  0  0  0  0  0
  150.1504  141.3852  155.2723 C   0  0  0  0  0  0  0  0  0  0  0  0
  149.3418  136.8295  158.4174 N   0  3  0  0  0  0  0  0  0  0  0  0
  149.0632  136.3208  159.7886 C   0  0  0  0  0  0  0  0  0  0  0  0
  147.5597  136.0469  159.9500 C   0  0  0  0  0  0  0  0  0  0  0  0
  146.8304  137.2405  159.6898 O   0  0  0  0  0  0  0  0  0  0  0  0
  147.0265  137.7072  158.3602 C   0  0  0  0  0  0  0  0  0  0  0  0
  148.5136  138.0263  158.1318 C   0  0  0  0  0  0  0  0  0  0  0  0
  152.0195  137.7082  156.3693 H   0  0  0  0  0  0  0  0  0  0  0  0
  150.6742  138.7777  156.7396 H   0  0  0  0  0  0  0  0  0  0  0  0
  150.3959  137.2570  155.9012 H   0  0  0  0  0  0  0  0  0  0  0  0
  151.1854  135.9863  157.8805 H   0  0  0  0  0  0  0  0  0  0  0  0
  151.0025  138.3422  159.7197 H   0  0  0  0  0  0  0  0  0  0  0  0
  151.7909  136.8157  159.9442 H   0  0  0  0  0  0  0  0  0  0  0  0
  151.2304  139.7282  158.2591 H   0  0  0  0  0  0  0  0  0  0  0  0
  153.6661  142.1287  159.6050 H   0  0  0  0  0  0  0  0  0  0  0  0
  153.4370  144.5802  159.3219 H   0  0  0  0  0  0  0  0  0  0  0  0
  151.5564  145.4643  157.8244 H   0  0  0  0  0  0  0  0  0  0  0  0
  148.4925  140.8401  158.0300 H   0  0  0  0  0  0  0  0  0  0  0  0
  148.2862  142.4358  157.2926 H   0  0  0  0  0  0  0  0  0  0  0  0
  147.9711  139.7245  155.9661 H   0  0  0  0  0  0  0  0  0  0  0  0
  146.8564  141.0938  155.8919 H   0  0  0  0  0  0  0  0  0  0  0  0
  148.6098  140.7229  153.8501 H   0  0  0  0  0  0  0  0  0  0  0  0
  148.3806  142.3483  154.4962 H   0  0  0  0  0  0  0  0  0  0  0  0
  150.6954  142.2381  154.8652 H   0  0  0  0  0  0  0  0  0  0  0  0
  150.6818  140.4760  154.9884 H   0  0  0  0  0  0  0  0  0  0  0  0
  149.6227  135.4046  159.9788 H   0  0  0  0  0  0  0  0  0  0  0  0
  149.3770  137.0524  160.5339 H   0  0  0  0  0  0  0  0  0  0  0  0
  147.2333  135.2503  159.2792 H   0  0  0  0  0  0  0  0  0  0  0  0
  147.3450  135.7166  160.9664 H   0  0  0  0  0  0  0  0  0  0  0  0
  146.6757  136.9604  157.6460 H   0  0  0  0  0  0  0  0  0  0  0  0
  146.4227  138.6017  158.2071 H   0  0  0  0  0  0  0  0  0  0  0  0
  148.8276  138.8531  158.7704 H   0  0  0  0  0  0  0  0  0  0  0  0
  148.6573  138.3430  157.0979 H   0  0  0  0  0  0  0  0  0  0  0  0
  149.0039  136.1188  157.7827 H   0  0  0  0  0  0  0  0  0  0  0  0
  150.1652  143.9545  156.7801 H   0  0  0  0  0  0  0  0  0  0  0  0
  1  2  1  0  0  0  0
  1 25  1  0  0  0  0
  1 26  1  0  0  0  0
  1 27  1  0  0  0  0
  2  3  1  0  0  0  0
  2 19  1  0  0  0  0
  2 28  1  0  0  0  0
  3  4  1  0  0  0  0
  3 29  1  0  0  0  0
  3 30  1  0  0  0  0
  4  5  1  0  0  0  0
  5  6  2  0  0  0  0
  5  7  1  0  0  0  0
  7  8  1  0  0  0  0
  7 31  1  0  0  0  0
  8 13  1  0  0  0  0
  8  9  2  0  0  0  0
  9 10  1  0  0  0  0
  9 32  1  0  0  0  0
 10 11  2  0  0  0  0
 10 33  1  0  0  0  0
 11 12  1  0  0  0  0
 11 34  1  0  0  0  0
 12 13  2  0  0  0  0
 12 52  1  0  0  0  0
 13 14  1  0  0  0  0
 14 18  1  0  0  0  0
 14 15  1  0  0  0  0
 15 16  1  0  0  0  0
 15 35  1  0  0  0  0
 15 36  1  0  0  0  0
 16 17  1  0  0  0  0
 16 37  1  0  0  0  0
 16 38  1  0  0  0  0
 17 18  1  0  0  0  0
 17 39  1  0  0  0  0
 17 40  1  0  0  0  0
 18 41  1  0  0  0  0
 18 42  1  0  0  0  0
 19 24  1  0  0  0  0
 19 20  1  0  0  0  0
 19 51  1  0  0  0  0
 20 21  1  0  0  0  0
 20 43  1  0  0  0  0
 20 44  1  0  0  0  0
 21 22  1  0  0  0  0
 21 45  1  0  0  0  0
 21 46  1  0  0  0  0
 22 23  1  0  0  0  0
 23 24  1  0  0  0  0
 23 47  1  0  0  0  0
 23 48  1  0  0  0  0
 24 49  1  0  0  0  0
 24 50  1  0  0  0  0
M  CHG  1   4  -1
M  CHG  1  12   1
M  CHG  1  19   1
M  END
> <s_m_source_file>
AV-unprocessed.smi

> <i_m_source_file_index>
1389

> <i_lp_mmshare_version>
43012

> <i_f3d_flags>
0

> <s_epik_input>
W0NIMl0xW0NIMl1PW0NIMl1bQ0gyXU4xW0NASF0oW0NIM10pW0NIMl1bTkhdQyg9TylbTkhdYzJbY0hdW2NIXVtjSF1uYzJOM1tDSDJdW0NIMl1bQ0gyXVtDSDJdMw==

> <s_epik_cmdline>
J2VwaWtfcHl0aG9uJywgJy1waCcsICc3LjAnLCAnLXRuJywgJzgnLCAnLW1hJywgJzIwMCcsICctbWV0YWxfYmluZGluZycsICctaW1hZScsICc8aW5maWxlLm1hZT4nLCAnLW9tYWUnLCAnPG91dGZpbGUubWFlPic=

> <r_lp_tautomer_probability>
0.999994

> <r_epik_Ionization_Penalty>
8.58362

> <r_epik_Ionization_Penalty_Charging>
8.58361

> <r_epik_Ionization_Penalty_Neutral>
3.55275e-06

> <r_epik_State_Penalty>
8.57766

> <r_epik_Charging_Adjusted_Penalty>
17.1613

> <i_epik_Tot_Q>
1

> <i_epik_Tot_abs_Q>
3

> <r_epik_Metal_State_Penalty>
4.57399

> <b_epik_Metal_Only>
1

> <s_lp_Force_Field>
OPLS_2005

> <r_lp_Energy>
47.3553

> <b_lp_Chiralities_Consistent>
1

> <s_lp_Variant>
AV-unprocessed.smi:1389-10

> <Gold.Version>
5.8.1

> <Gold.Id.Protein>
6NUR|6NUR_protein|mol2

> <Gold.PLP.Fitness>
47.6662

> <Gold.PLP.PLP>
-37.2403

> <Gold.PLP.part.hbond>
-3.0000

> <Gold.PLP.part.metal>
0.0000

> <Gold.PLP.part.buried>
-5.1873

> <Gold.PLP.part.nonpolar>
-29.1693

> <Gold.PLP.part.repulsive>
0.3292

> <Gold.PLP.ligand.clash>
0.0000

> <Gold.PLP.ligand.torsion>
1.2695

> <Gold.PLP.Chemscore.Hbond>
4.0000

> <Gold.PLP.Chemscore.CHOScore>
0.0000

> <Gold.PLP.Chemscore.Metal>
0.0000

> <Gold.Chemscore.Hbonds>
donor molecule, donor type, donor heavy atom, donor atom, acceptor molecule, acceptor atom, score
      L1  H    12    52       P1  8028  2.00
      P1  H  6934  6947       L1    22  0.60
      P1  H  7997  8009       L1     6  1.00

> <Gold.PLP.Chemscore.Internal.Correction>
0.9648

> <Gold.Rescore>
     Score         DG    S(hbond)    S(metal)    S(lipo)     H(rot)  DE(clash)    DE(int)     intcor
     17.76     -20.41       2.50        0.00      91.82       1.63       0.03       2.61       ----

> <Gold.Chemscore.Fitness>
17.7623

> <Gold.Chemscore.DG>
-20.4068

> <Gold.Chemscore.ZeroCoef>
-5.4800

> <Gold.Chemscore.Hbond>
2.5026

> <Gold.Chemscore.Metal>
0.0000

> <Gold.Chemscore.Lipo>
91.8186

> <Gold.Chemscore.Internal_Hbond>
0.0000

> <Gold.Chemscore.DEClash>
0.0337

> <Gold.Chemscore.DEInternal>
2.6107

> <Gold.Chemscore.Rot>
1.6307

> <Gold.Chemscore.Internal.Correction>
   9.000000E+99

> <Gold.Chemscore.Hbonds>
donor molecule, donor type, donor heavy atom, donor atom, acceptor molecule, acceptor atom, score
      L1  H    12    52       P1  8028  1.00
      P1  H  6934  6947       L1    22  0.23
      P1  H  7997  8009       L1     6  0.66

> <Gold.Chemscore.Hbond.Weighted>
-8.3585

> <Gold.Chemscore.Metal.Weighted>
-0.0000

> <Gold.Chemscore.Lipo.Weighted>
-10.7428

> <Gold.Chemscore.Internal_Hbond.Weighted>
0.0000

> <Gold.Chemscore.DEClash.Weighted>
0.0337

> <Gold.Chemscore.DEInternal.Weighted>
2.6107

> <Gold.Chemscore.Rot.Weighted>
4.1746

> <Gold.Chemscore.Internal.Correction.Weighted>
   9.000000E+99

> <Gold.Protein.RotatedTorsions>
[ 6907 6896 6895 6894 ] final  -14.48 input  -60.11 | X-H torsion
[ 7974 7965 7964 7962 ] final   -0.68 input  175.53 | X-H torsion
[ 8008 7997 7996 7995 ] final  122.70 input   59.86 | X-H torsion
[ 10167 10162 10161 10158 ] final -148.44 input  -65.29 | X-H torsion
[ 10718 10713 10712 10709 ] final  151.89 input   66.30 | X-H torsion
[ 10763 10752 10751 10750 ] final  122.21 input  -60.55 | X-H torsion
[ 11005 11000 10999 10996 ] final  -53.72 input  -57.11 | X-H torsion

> <Gold.Protein.ActiveResidues>
 VAL166  LYS551  ARG553  GLY616  TRP617  ASP618  TYR619  PRO620  LYS621  CYS622 
 ASP623  PHE694  ASN695  SER759  ASP760  ASP761  ALA762  ILE779  LEU786  VAL792 
 PHE793  MET794  SER795  GLU796  ALA797  LYS798  CYS799  TRP800  GLU811  SER814 

> <Gold.Protein.RotatedAtoms>
  151.3388  135.0859  159.9363 H   0  0  0  0  0  0  0  0  0  0  0  0  # atno 6907 bound_to 6896
  152.5216  133.9468  159.7663 H   0  0  0  0  0  0  0  0  0  0  0  0  # atno 6908 bound_to 6896
  150.9821  133.6182  159.2751 H   0  0  0  0  0  0  0  0  0  0  0  0  # atno 6909 bound_to 6896
  146.2425  140.1307  142.8338 H   0  0  0  0  0  0  0  0  0  0  0  0  # atno 7974 bound_to 7965
  156.2738  140.2779  156.1510 H   0  0  0  0  0  0  0  0  0  0  0  0  # atno 8008 bound_to 7997
  155.0853  140.0388  157.2670 H   0  0  0  0  0  0  0  0  0  0  0  0  # atno 8009 bound_to 7997
  154.6931  140.2633  155.6798 H   0  0  0  0  0  0  0  0  0  0  0  0  # atno 8010 bound_to 7997
  139.7532  143.8487  152.2591 H   0  0  0  0  0  0  0  0  0  0  0  0  # atno 10167 bound_to 10162
  157.2648  131.0805  151.1640 H   0  0  0  0  0  0  0  0  0  0  0  0  # atno 10718 bound_to 10713
  153.6261  135.3404  155.3027 H   0  0  0  0  0  0  0  0  0  0  0  0  # atno 10763 bound_to 10752
  154.8590  135.4284  154.2155 H   0  0  0  0  0  0  0  0  0  0  0  0  # atno 10764 bound_to 10752
  153.3040  135.7026  153.7250 H   0  0  0  0  0  0  0  0  0  0  0  0  # atno 10765 bound_to 10752
  141.0990  133.6620  156.4214 H   0  0  0  0  0  0  0  0  0  0  0  0  # atno 11005 bound_to 11000
  145.0329  140.8885  143.5099 LP  0  0  0  0  0  0  0  0  0  0  0  0  # atno 17320 bound_to 7965
  145.1374  139.2594  143.5508 LP  0  0  0  0  0  0  0  0  0  0  0  0  # atno 17321 bound_to 7965
  139.8472  144.7182  150.9259 LP  0  0  0  0  0  0  0  0  0  0  0  0  # atno 17342 bound_to 10162
  140.7800  143.3931  151.1276 LP  0  0  0  0  0  0  0  0  0  0  0  0  # atno 17343 bound_to 10162
  157.3136  130.6902  149.6229 LP  0  0  0  0  0  0  0  0  0  0  0  0  # atno 17370 bound_to 10713
  155.9663  130.4356  150.5099 LP  0  0  0  0  0  0  0  0  0  0  0  0  # atno 17371 bound_to 10713
  140.5068  134.6433  157.5269 LP  0  0  0  0  0  0  0  0  0  0  0  0  # atno 17394 bound_to 11000
  139.9836  134.7098  155.9815 LP  0  0  0  0  0  0  0  0  0  0  0  0  # atno 17395 bound_to 11000

$$$$
