AV-unprocessed.smi:1044|AV-procd|sdf|4543|dock7
  -GOLD-   22720 2573D 1   1.00000     0.00000
 Structure written by MMmdl.
 45 46  0  0  0  0  0  0  0  0  1 V2000
  145.2527  134.6203  150.8943 C   0  0  0  0  0  0  0  0  0  0  0  0
  145.7966  133.3335  151.5196 C   0  0  0  0  0  0  0  0  0  0  0  0
  146.9358  133.6573  152.3107 O   0  0  0  0  0  0  0  0  0  0  0  0
  147.5977  132.6396  152.9710 C   0  0  0  0  0  0  0  0  0  0  0  0
  147.1220  131.3749  152.8492 N   0  0  0  0  0  0  0  0  0  0  0  0
  147.7701  130.3797  153.4881 C   0  0  0  0  0  0  0  0  0  0  0  0
  148.9202  130.5880  154.2706 C   0  0  0  0  0  0  0  0  0  0  0  0
  149.4153  131.8991  154.3997 C   0  0  0  0  0  0  0  0  0  0  0  0
  148.7378  132.9570  153.7458 C   0  0  0  0  0  0  0  0  0  0  0  0
  149.1599  134.3151  153.7893 N   0  0  0  0  0  0  0  0  0  0  0  0
  149.8980  134.9399  154.7224 C   0  0  0  0  0  0  0  0  0  0  0  0
  150.3270  134.4268  155.7557 O   0  0  0  0  0  0  0  0  0  0  0  0
  150.1006  136.2242  154.3956 N   0  0  0  0  0  0  0  0  0  0  0  0
  150.8590  137.1851  155.1902 C   0  0  1  0  0  0  0  0  0  0  0  0
  150.8497  138.5552  154.4982 C   0  0  0  0  0  0  0  0  0  0  0  0
  151.6230  139.5683  155.3494 C   0  0  0  0  0  0  0  0  0  0  0  0
  151.0497  139.6520  156.7745 C   0  0  0  0  0  0  0  0  0  0  0  0
  150.9744  138.3218  157.4135 N   0  0  0  0  0  0  0  0  0  0  0  0
  152.1740  137.8456  158.5808 S   0  0  0  0  0  0  0  0  0  0  0  0
  152.8376  139.4382  159.2176 C   0  0  0  0  0  0  0  0  0  0  0  0
  151.4826  137.1611  159.6839 O   0  0  0  0  0  0  0  0  0  0  0  0
  153.2541  137.1562  157.8587 O   0  0  0  0  0  0  0  0  0  0  0  0
  150.2770  137.2923  156.6166 C   0  0  0  0  0  0  0  0  0  0  0  0
  144.3770  134.4137  150.2786 H   0  0  0  0  0  0  0  0  0  0  0  0
  146.0023  135.0956  150.2610 H   0  0  0  0  0  0  0  0  0  0  0  0
  144.9596  135.3356  151.6632 H   0  0  0  0  0  0  0  0  0  0  0  0
  145.0231  132.8714  152.1352 H   0  0  0  0  0  0  0  0  0  0  0  0
  146.0681  132.6297  150.7311 H   0  0  0  0  0  0  0  0  0  0  0  0
  147.3631  129.3867  153.3667 H   0  0  0  0  0  0  0  0  0  0  0  0
  149.4147  129.7605  154.7575 H   0  0  0  0  0  0  0  0  0  0  0  0
  150.3088  132.0610  154.9823 H   0  0  0  0  0  0  0  0  0  0  0  0
  148.8104  134.8951  153.0405 H   0  0  0  0  0  0  0  0  0  0  0  0
  149.7040  136.5625  153.5312 H   0  0  0  0  0  0  0  0  0  0  0  0
  151.8938  136.8463  155.2442 H   0  0  0  0  0  0  0  0  0  0  0  0
  151.2981  138.4838  153.5066 H   0  0  0  0  0  0  0  0  0  0  0  0
  149.8242  138.8996  154.3563 H   0  0  0  0  0  0  0  0  0  0  0  0
  152.6758  139.2911  155.3841 H   0  0  0  0  0  0  0  0  0  0  0  0
  151.5831  140.5511  154.8790 H   0  0  0  0  0  0  0  0  0  0  0  0
  151.6432  140.3344  157.3823 H   0  0  0  0  0  0  0  0  0  0  0  0
  150.0439  140.0716  156.7372 H   0  0  0  0  0  0  0  0  0  0  0  0
  153.5841  139.2308  159.9835 H   0  0  0  0  0  0  0  0  0  0  0  0
  152.0345  140.0276  159.6563 H   0  0  0  0  0  0  0  0  0  0  0  0
  153.3098  139.9927  158.4079 H   0  0  0  0  0  0  0  0  0  0  0  0
  149.2202  137.5574  156.5660 H   0  0  0  0  0  0  0  0  0  0  0  0
  150.3266  136.3295  157.1255 H   0  0  0  0  0  0  0  0  0  0  0  0
  1  2  1  0  0  0  0
  1 24  1  0  0  0  0
  1 25  1  0  0  0  0
  1 26  1  0  0  0  0
  2  3  1  0  0  0  0
  2 27  1  0  0  0  0
  2 28  1  0  0  0  0
  3  4  1  0  0  0  0
  4  9  1  0  0  0  0
  4  5  2  0  0  0  0
  5  6  1  0  0  0  0
  6  7  2  0  0  0  0
  6 29  1  0  0  0  0
  7  8  1  0  0  0  0
  7 30  1  0  0  0  0
  8  9  2  0  0  0  0
  8 31  1  0  0  0  0
  9 10  1  0  0  0  0
 10 11  1  0  0  0  0
 10 32  1  0  0  0  0
 11 12  2  0  0  0  0
 11 13  1  0  0  0  0
 13 14  1  0  0  0  0
 13 33  1  0  0  0  0
 14 23  1  0  0  0  0
 14 15  1  0  0  0  0
 14 34  1  0  0  0  0
 15 16  1  0  0  0  0
 15 35  1  0  0  0  0
 15 36  1  0  0  0  0
 16 17  1  0  0  0  0
 16 37  1  0  0  0  0
 16 38  1  0  0  0  0
 17 18  1  0  0  0  0
 17 39  1  0  0  0  0
 17 40  1  0  0  0  0
 18 19  1  0  0  0  0
 18 23  1  0  0  0  0
 19 20  1  0  0  0  0
 19 21  2  0  0  0  0
 19 22  2  0  0  0  0
 20 41  1  0  0  0  0
 20 42  1  0  0  0  0
 20 43  1  0  0  0  0
 23 44  1  0  0  0  0
 23 45  1  0  0  0  0
M  END
> <s_m_source_file>
AV-unprocessed.smi

> <i_m_source_file_index>
1044

> <i_lp_mmshare_version>
43012

> <i_f3d_flags>
0

> <s_epik_input>
W0NIM11bQ0gyXU9jMW5bY0hdW2NIXVtjSF1jMVtOSF1DKD1PKVtOSF1bQ0BASF0yW0NIMl1bQ0gyXVtDSDJdTihbQ0gyXTIpUyg9TykoPU8pW0NIM10=

> <s_epik_cmdline>
J2VwaWtfcHl0aG9uJywgJy1waCcsICc3LjAnLCAnLXRuJywgJzgnLCAnLW1hJywgJzIwMCcsICctbWV0YWxfYmluZGluZycsICctaW1hZScsICc8aW5maWxlLm1hZT4nLCAnLW9tYWUnLCAnPG91dGZpbGUubWFlPic=

> <r_lp_tautomer_probability>
1

> <r_epik_Ionization_Penalty>
0.000106941

> <r_epik_Ionization_Penalty_Charging>
0

> <r_epik_Ionization_Penalty_Neutral>
0.000106941

> <r_epik_State_Penalty>
-0

> <r_epik_Charging_Adjusted_Penalty>
0

> <i_epik_Tot_Q>
0

> <i_epik_Tot_abs_Q>
0

> <r_epik_Metal_State_Penalty>
-0

> <b_epik_Metal_Only>
0

> <s_lp_Force_Field>
OPLS_2005

> <r_lp_Energy>
2.58549

> <b_lp_Chiralities_Consistent>
1

> <s_lp_Variant>
AV-unprocessed.smi:1044-2

> <Gold.Version>
5.8.1

> <Gold.Id.Protein>
6NUR|6NUR_protein|mol2

> <Gold.PLP.Fitness>
42.9908

> <Gold.PLP.PLP>
-34.7420

> <Gold.PLP.part.hbond>
-3.7884

> <Gold.PLP.part.metal>
0.0000

> <Gold.PLP.part.buried>
-3.2579

> <Gold.PLP.part.nonpolar>
-27.8808

> <Gold.PLP.part.repulsive>
0.3877

> <Gold.PLP.ligand.clash>
0.0000

> <Gold.PLP.ligand.torsion>
1.3479

> <Gold.PLP.Chemscore.Hbond>
2.9500

> <Gold.PLP.Chemscore.CHOScore>
0.0000

> <Gold.PLP.Chemscore.Metal>
0.0000

> <Gold.Chemscore.Hbonds>
donor molecule, donor type, donor heavy atom, donor atom, acceptor molecule, acceptor atom, score
      L1  H    10    32       P1  7948  1.00
      L1  H    13    33       P1  7948  0.99
      P1  H  6896  6909       L1    21  1.00

> <Gold.PLP.Chemscore.Internal.Correction>
2.0947

> <Gold.Rescore>
     Score         DG    S(hbond)    S(metal)    S(lipo)     H(rot)  DE(clash)    DE(int)     intcor
     13.91     -17.26       2.52        0.00      60.59       1.45       0.03       3.32       ----

> <Gold.Chemscore.Fitness>
13.9094

> <Gold.Chemscore.DG>
-17.2564

> <Gold.Chemscore.ZeroCoef>
-5.4800

> <Gold.Chemscore.Hbond>
2.5187

> <Gold.Chemscore.Metal>
0.0000

> <Gold.Chemscore.Lipo>
60.5853

> <Gold.Chemscore.Internal_Hbond>
0.0000

> <Gold.Chemscore.DEClash>
0.0307

> <Gold.Chemscore.DEInternal>
3.3162

> <Gold.Chemscore.Rot>
1.4549

> <Gold.Chemscore.Internal.Correction>
   9.000000E+99

> <Gold.Chemscore.Hbonds>
donor molecule, donor type, donor heavy atom, donor atom, acceptor molecule, acceptor atom, score
      L1  H    10    32       P1  7948  0.25
      L1  H    13    33       P1  7948  0.42
      P1  H  6896  6909       L1    21  0.94

> <Gold.Chemscore.Hbond.Weighted>
-8.4123

> <Gold.Chemscore.Metal.Weighted>
-0.0000

> <Gold.Chemscore.Lipo.Weighted>
-7.0885

> <Gold.Chemscore.Internal_Hbond.Weighted>
0.0000

> <Gold.Chemscore.DEClash.Weighted>
0.0307

> <Gold.Chemscore.DEInternal.Weighted>
3.3162

> <Gold.Chemscore.Rot.Weighted>
3.7244

> <Gold.Chemscore.Internal.Correction.Weighted>
   9.000000E+99

> <Gold.Protein.RotatedTorsions>
[ 6907 6896 6895 6894 ] final  107.19 input  -60.11 | X-H torsion
[ 7974 7965 7964 7962 ] final   71.62 input  175.53 | X-H torsion
[ 8008 7997 7996 7995 ] final  114.84 input   59.86 | X-H torsion
[ 10167 10162 10161 10158 ] final    4.15 input  -65.29 | X-H torsion
[ 10718 10713 10712 10709 ] final  -60.90 input   66.30 | X-H torsion
[ 10763 10752 10751 10750 ] final  -81.97 input  -60.55 | X-H torsion
[ 11005 11000 10999 10996 ] final -167.10 input  -57.11 | X-H torsion

> <Gold.Protein.ActiveResidues>
 VAL166  LYS551  ARG553  GLY616  TRP617  ASP618  TYR619  PRO620  LYS621  CYS622 
 ASP623  PHE694  ASN695  SER759  ASP760  ASP761  ALA762  ILE779  LEU786  VAL792 
 PHE793  MET794  SER795  GLU796  ALA797  LYS798  CYS799  TRP800  GLU811  SER814 

> <Gold.Protein.RotatedAtoms>
  152.5164  133.9271  159.7562 H   0  0  0  0  0  0  0  0  0  0  0  0  # atno 6907 bound_to 6896
  150.9629  133.6417  159.2758 H   0  0  0  0  0  0  0  0  0  0  0  0  # atno 6908 bound_to 6896
  151.3655  135.0918  159.9501 H   0  0  0  0  0  0  0  0  0  0  0  0  # atno 6909 bound_to 6896
  145.7636  139.2811  143.1362 H   0  0  0  0  0  0  0  0  0  0  0  0  # atno 7974 bound_to 7965
  156.2346  140.2951  156.0278 H   0  0  0  0  0  0  0  0  0  0  0  0  # atno 8008 bound_to 7997
  155.2129  140.0413  157.2953 H   0  0  0  0  0  0  0  0  0  0  0  0  # atno 8009 bound_to 7997
  154.6055  140.2438  155.7743 H   0  0  0  0  0  0  0  0  0  0  0  0  # atno 8010 bound_to 7997
  140.6549  143.7451  150.7637 H   0  0  0  0  0  0  0  0  0  0  0  0  # atno 10167 bound_to 10162
  156.0958  130.4193  150.0919 H   0  0  0  0  0  0  0  0  0  0  0  0  # atno 10718 bound_to 10713
  154.5701  135.5607  153.7087 H   0  0  0  0  0  0  0  0  0  0  0  0  # atno 10763 bound_to 10752
  153.0046  135.6295  154.2126 H   0  0  0  0  0  0  0  0  0  0  0  0  # atno 10764 bound_to 10752
  154.2065  135.2875  155.2953 H   0  0  0  0  0  0  0  0  0  0  0  0  # atno 10765 bound_to 10752
  140.5570  134.5371  157.5135 H   0  0  0  0  0  0  0  0  0  0  0  0  # atno 11005 bound_to 11000
  146.0240  140.8321  142.9909 LP  0  0  0  0  0  0  0  0  0  0  0  0  # atno 17320 bound_to 7965
  144.6826  140.2670  143.7311 LP  0  0  0  0  0  0  0  0  0  0  0  0  # atno 17321 bound_to 7965
  140.1109  143.4700  152.2370 LP  0  0  0  0  0  0  0  0  0  0  0  0  # atno 17342 bound_to 10162
  139.5770  144.7492  151.3738 LP  0  0  0  0  0  0  0  0  0  0  0  0  # atno 17343 bound_to 10162
  156.8918  130.9591  151.3587 LP  0  0  0  0  0  0  0  0  0  0  0  0  # atno 17370 bound_to 10713
  157.6119  130.8589  149.8965 LP  0  0  0  0  0  0  0  0  0  0  0  0  # atno 17371 bound_to 10713
  139.9426  134.7759  156.0640 LP  0  0  0  0  0  0  0  0  0  0  0  0  # atno 17394 bound_to 11000
  141.1137  133.6634  156.3042 LP  0  0  0  0  0  0  0  0  0  0  0  0  # atno 17395 bound_to 11000

$$$$
