AV-unprocessed.smi:2812|AV-procd|sdf|10835|dock1
  -GOLD-   2272015273D 1   1.00000     0.00000
 Structure written by MMmdl.
 55 56  0  0  0  0  0  0  0  0  2 V2000
  146.6015  140.6161  152.4753 C   0  0  0  0  0  0  0  0  0  0  0  0
  147.7625  140.5062  153.4511 C   0  0  0  0  0  0  0  0  0  0  0  0
  148.2587  141.7043  154.0957 C   0  0  0  0  0  0  0  0  0  0  0  0
  149.2917  141.6166  154.9443 C   0  0  0  0  0  0  0  0  0  0  0  0
  149.9007  140.3883  155.2390 N   0  0  0  0  0  0  0  0  0  0  0  0
  151.0122  140.3953  156.1939 C   0  0  0  0  0  0  0  0  0  0  0  0
  149.4711  139.2125  154.6967 C   0  0  0  0  0  0  0  0  0  0  0  0
  149.9795  138.1394  155.0299 O   0  0  0  0  0  0  0  0  0  0  0  0
  148.3630  139.3164  153.7166 C   0  0  0  0  0  0  0  0  0  0  0  0
  147.8701  138.1557  153.1008 N   0  0  0  0  0  0  0  0  0  0  0  0
  146.6083  137.6975  153.1738 C   0  0  0  0  0  0  0  0  0  0  0  0
  145.6854  138.2627  153.7620 O   0  0  0  0  0  0  0  0  0  0  0  0
  146.4799  136.5146  152.5562 N   0  0  0  0  0  0  0  0  0  0  0  0
  145.2503  135.7280  152.5002 C   0  0  0  0  0  0  0  0  0  0  0  0
  145.3758  134.4479  151.6224 C   0  0  2  0  0  0  0  0  0  0  0  0
  143.9794  134.0343  151.0867 C   0  0  0  0  0  0  0  0  0  0  0  0
  144.0392  132.7887  150.2015 C   0  0  0  0  0  0  0  0  0  0  0  0
  144.6993  131.6517  150.9757 C   0  0  0  0  0  0  0  0  0  0  0  0
  146.0857  132.0792  151.4715 C   0  0  0  0  0  0  0  0  0  0  0  0
  146.0256  133.2944  152.3367 N   0  3  1  0  0  0  0  0  0  0  0  0
  147.3583  133.6049  152.9392 C   0  0  0  0  0  0  0  0  0  0  0  0
  148.2058  132.3597  153.2967 C   0  0  0  0  0  0  0  0  0  0  0  0
  147.3884  131.3048  154.0616 C   0  0  0  0  0  0  0  0  0  0  0  0
  149.4413  132.7703  154.1122 C   0  0  0  0  0  0  0  0  0  0  0  0
  146.2607  141.6475  152.3819 H   0  0  0  0  0  0  0  0  0  0  0  0
  145.7580  140.0131  152.8125 H   0  0  0  0  0  0  0  0  0  0  0  0
  146.9010  140.2706  151.4854 H   0  0  0  0  0  0  0  0  0  0  0  0
  147.8082  142.6649  153.8929 H   0  0  0  0  0  0  0  0  0  0  0  0
  149.7058  142.4749  155.4531 H   0  0  0  0  0  0  0  0  0  0  0  0
  151.8816  139.8805  155.7820 H   0  0  0  0  0  0  0  0  0  0  0  0
  150.7226  139.8907  157.1167 H   0  0  0  0  0  0  0  0  0  0  0  0
  151.3334  141.4037  156.4572 H   0  0  0  0  0  0  0  0  0  0  0  0
  148.5637  137.5478  152.6904 H   0  0  0  0  0  0  0  0  0  0  0  0
  147.2930  136.1239  152.1025 H   0  0  0  0  0  0  0  0  0  0  0  0
  144.9971  135.4951  153.5334 H   0  0  0  0  0  0  0  0  0  0  0  0
  144.4556  136.3689  152.1171 H   0  0  0  0  0  0  0  0  0  0  0  0
  146.0089  134.6852  150.7658 H   0  0  0  0  0  0  0  0  0  0  0  0
  143.3050  133.8525  151.9248 H   0  0  0  0  0  0  0  0  0  0  0  0
  143.5308  134.8383  150.5031 H   0  0  0  0  0  0  0  0  0  0  0  0
  143.0362  132.4995  149.8862 H   0  0  0  0  0  0  0  0  0  0  0  0
  144.6061  133.0024  149.2943 H   0  0  0  0  0  0  0  0  0  0  0  0
  144.0744  131.3642  151.8226 H   0  0  0  0  0  0  0  0  0  0  0  0
  144.7858  130.7702  150.3397 H   0  0  0  0  0  0  0  0  0  0  0  0
  146.5061  131.2333  152.0106 H   0  0  0  0  0  0  0  0  0  0  0  0
  146.7448  132.2694  150.6228 H   0  0  0  0  0  0  0  0  0  0  0  0
  147.9102  134.2600  152.2632 H   0  0  0  0  0  0  0  0  0  0  0  0
  147.2474  134.1525  153.8700 H   0  0  0  0  0  0  0  0  0  0  0  0
  148.5898  131.8981  152.3886 H   0  0  0  0  0  0  0  0  0  0  0  0
  146.9802  131.7132  154.9869 H   0  0  0  0  0  0  0  0  0  0  0  0
  148.0059  130.4448  154.3232 H   0  0  0  0  0  0  0  0  0  0  0  0
  146.5553  130.9332  153.4649 H   0  0  0  0  0  0  0  0  0  0  0  0
  149.1585  133.2273  155.0613 H   0  0  0  0  0  0  0  0  0  0  0  0
  150.0526  133.4892  153.5659 H   0  0  0  0  0  0  0  0  0  0  0  0
  150.0709  131.9081  154.3349 H   0  0  0  0  0  0  0  0  0  0  0  0
  145.4161  133.0686  153.1095 H   0  0  0  0  0  0  0  0  0  0  0  0
  1  2  1  0  0  0  0
  1 25  1  0  0  0  0
  1 26  1  0  0  0  0
  1 27  1  0  0  0  0
  2  9  2  0  0  0  0
  2  3  1  0  0  0  0
  3  4  2  0  0  0  0
  3 28  1  0  0  0  0
  4  5  1  0  0  0  0
  4 29  1  0  0  0  0
  5  6  1  0  0  0  0
  5  7  1  0  0  0  0
  6 30  1  0  0  0  0
  6 31  1  0  0  0  0
  6 32  1  0  0  0  0
  7  8  2  0  0  0  0
  7  9  1  0  0  0  0
  9 10  1  0  0  0  0
 10 11  1  0  0  0  0
 10 33  1  0  0  0  0
 11 12  2  0  0  0  0
 11 13  1  0  0  0  0
 13 14  1  0  0  0  0
 13 34  1  0  0  0  0
 14 15  1  0  0  0  0
 14 35  1  0  0  0  0
 14 36  1  0  0  0  0
 15 20  1  0  0  0  0
 15 16  1  0  0  0  0
 15 37  1  0  0  0  0
 16 17  1  0  0  0  0
 16 38  1  0  0  0  0
 16 39  1  0  0  0  0
 17 18  1  0  0  0  0
 17 40  1  0  0  0  0
 17 41  1  0  0  0  0
 18 19  1  0  0  0  0
 18 42  1  0  0  0  0
 18 43  1  0  0  0  0
 19 20  1  0  0  0  0
 19 44  1  0  0  0  0
 19 45  1  0  0  0  0
 20 21  1  0  0  0  0
 20 55  1  0  0  0  0
 21 22  1  0  0  0  0
 21 46  1  0  0  0  0
 21 47  1  0  0  0  0
 22 23  1  0  0  0  0
 22 24  1  0  0  0  0
 22 48  1  0  0  0  0
 23 49  1  0  0  0  0
 23 50  1  0  0  0  0
 23 51  1  0  0  0  0
 24 52  1  0  0  0  0
 24 53  1  0  0  0  0
 24 54  1  0  0  0  0
M  CHG  1  20   1
M  END
> <s_m_source_file>
AV-unprocessed.smi

> <i_m_source_file_index>
2812

> <i_lp_mmshare_version>
43012

> <i_f3d_flags>
0

> <s_epik_input>
W0NIM11jMVtjSF1bY0hdbihbQ0gzXSljKD1PKWMxW05IXUMoPU8pW05IXVtDSDJdW0NAQEhdMltDSDJdW0NIMl1bQ0gyXVtDSDJdTjJbQ0gyXVtDSF0oW0NIM10pW0NIM10=

> <s_epik_cmdline>
J2VwaWtfcHl0aG9uJywgJy1waCcsICc3LjAnLCAnLXRuJywgJzgnLCAnLW1hJywgJzIwMCcsICctbWV0YWxfYmluZGluZycsICctaW1hZScsICc8aW5maWxlLm1hZT4nLCAnLW9tYWUnLCAnPG91dGZpbGUubWFlPic=

> <r_lp_tautomer_probability>
1

> <r_epik_Ionization_Penalty>
0.0010902

> <r_epik_Ionization_Penalty_Charging>
0.00107091

> <r_epik_Ionization_Penalty_Neutral>
1.92854e-05

> <r_epik_State_Penalty>
0.000697184

> <r_epik_Charging_Adjusted_Penalty>
0.0017681

> <i_epik_Tot_Q>
1

> <i_epik_Tot_abs_Q>
1

> <r_epik_Metal_State_Penalty>
-0

> <b_epik_Metal_Only>
0

> <s_lp_Force_Field>
OPLS_2005

> <r_lp_Energy>
39.8559

> <b_lp_Chiralities_Consistent>
1

> <s_lp_Variant>
AV-unprocessed.smi:2812-3

> <Gold.Version>
5.8.1

> <Gold.Id.Protein>
6NUR|6NUR_protein|mol2

> <Gold.PLP.Fitness>
47.5991

> <Gold.PLP.PLP>
-39.9770

> <Gold.PLP.part.hbond>
-2.4108

> <Gold.PLP.part.metal>
0.0000

> <Gold.PLP.part.buried>
2.3174

> <Gold.PLP.part.nonpolar>
-40.9205

> <Gold.PLP.part.repulsive>
0.3690

> <Gold.PLP.ligand.clash>
0.0000

> <Gold.PLP.ligand.torsion>
1.0719

> <Gold.PLP.Chemscore.Hbond>
1.9600

> <Gold.PLP.Chemscore.CHOScore>
0.9911

> <Gold.PLP.Chemscore.Metal>
0.0000

> <Gold.Chemscore.Hbonds>
donor molecule, donor type, donor heavy atom, donor atom, acceptor molecule, acceptor atom, score
      L1  H    10    33       P1  7948  1.00
      L1  H    13    34       P1  7948  0.96
      L1  C     4    29       P1  8028  1.00

> <Gold.PLP.Chemscore.Internal.Correction>
0.9126

> <Gold.Rescore>
     Score         DG    S(hbond)    S(metal)    S(lipo)     H(rot)  DE(clash)    DE(int)     intcor
     18.74     -20.04       1.92        0.00     102.68       1.52       0.14       1.16       ----

> <Gold.Chemscore.Fitness>
18.7445

> <Gold.Chemscore.DG>
-20.0399

> <Gold.Chemscore.ZeroCoef>
-5.4800

> <Gold.Chemscore.Hbond>
1.9240

> <Gold.Chemscore.Metal>
0.0000

> <Gold.Chemscore.Lipo>
102.6843

> <Gold.Chemscore.Internal_Hbond>
0.0000

> <Gold.Chemscore.DEClash>
0.1380

> <Gold.Chemscore.DEInternal>
1.1574

> <Gold.Chemscore.Rot>
1.5157

> <Gold.Chemscore.Internal.Correction>
   9.000000E+99

> <Gold.Chemscore.Hbonds>
donor molecule, donor type, donor heavy atom, donor atom, acceptor molecule, acceptor atom, score
      L1  H    10    33       P1  7948  0.94
      L1  H    13    34       P1  7948  0.92

> <Gold.Chemscore.Hbond.Weighted>
-6.4261

> <Gold.Chemscore.Metal.Weighted>
-0.0000

> <Gold.Chemscore.Lipo.Weighted>
-12.0141

> <Gold.Chemscore.Internal_Hbond.Weighted>
0.0000

> <Gold.Chemscore.DEClash.Weighted>
0.1380

> <Gold.Chemscore.DEInternal.Weighted>
1.1574

> <Gold.Chemscore.Rot.Weighted>
3.8803

> <Gold.Chemscore.Internal.Correction.Weighted>
   9.000000E+99

> <Gold.Protein.RotatedTorsions>
[ 6907 6896 6895 6894 ] final  -52.59 input  -60.11 | X-H torsion
[ 7974 7965 7964 7962 ] final  164.21 input  175.53 | X-H torsion
[ 8008 7997 7996 7995 ] final  -88.54 input   59.86 | X-H torsion
[ 10167 10162 10161 10158 ] final  109.96 input  -65.29 | X-H torsion
[ 10718 10713 10712 10709 ] final  133.28 input   66.30 | X-H torsion
[ 10763 10752 10751 10750 ] final   27.80 input  -60.55 | X-H torsion
[ 11005 11000 10999 10996 ] final -157.74 input  -57.11 | X-H torsion

> <Gold.Protein.ActiveResidues>
 VAL166  LYS551  ARG553  GLY616  TRP617  ASP618  TYR619  PRO620  LYS621  CYS622 
 ASP623  PHE694  ASN695  SER759  ASP760  ASP761  ALA762  ILE779  LEU786  VAL792 
 PHE793  MET794  SER795  GLU796  ALA797  LYS798  CYS799  TRP800  GLU811  SER814 

> <Gold.Protein.RotatedAtoms>
  150.8504  134.7827  159.7003 H   0  0  0  0  0  0  0  0  0  0  0  0  # atno 6907 bound_to 6896
  152.4570  134.5266  159.9808 H   0  0  0  0  0  0  0  0  0  0  0  0  # atno 6908 bound_to 6896
  151.5388  133.3398  159.2967 H   0  0  0  0  0  0  0  0  0  0  0  0  # atno 6909 bound_to 6896
  144.7555  139.8293  143.6351 H   0  0  0  0  0  0  0  0  0  0  0  0  # atno 7974 bound_to 7965
  154.6760  140.0552  157.0216 H   0  0  0  0  0  0  0  0  0  0  0  0  # atno 8008 bound_to 7997
  155.1020  140.3230  155.4526 H   0  0  0  0  0  0  0  0  0  0  0  0  # atno 8009 bound_to 7997
  156.2676  140.2029  156.6146 H   0  0  0  0  0  0  0  0  0  0  0  0  # atno 8010 bound_to 7997
  139.6725  144.7124  151.1661 H   0  0  0  0  0  0  0  0  0  0  0  0  # atno 10167 bound_to 10162
  157.4788  131.1084  150.9709 H   0  0  0  0  0  0  0  0  0  0  0  0  # atno 10718 bound_to 10713
  153.0532  135.6528  154.0641 H   0  0  0  0  0  0  0  0  0  0  0  0  # atno 10763 bound_to 10752
  154.0325  135.2910  155.3368 H   0  0  0  0  0  0  0  0  0  0  0  0  # atno 10764 bound_to 10752
  154.6833  135.5311  153.8359 H   0  0  0  0  0  0  0  0  0  0  0  0  # atno 10765 bound_to 10752
  140.6613  134.4346  157.5234 H   0  0  0  0  0  0  0  0  0  0  0  0  # atno 11005 bound_to 11000
  146.1560  139.4658  143.0019 LP  0  0  0  0  0  0  0  0  0  0  0  0  # atno 17320 bound_to 7965
  145.6794  141.0195  143.1614 LP  0  0  0  0  0  0  0  0  0  0  0  0  # atno 17321 bound_to 7965
  140.7623  143.5822  150.8883 LP  0  0  0  0  0  0  0  0  0  0  0  0  # atno 17342 bound_to 10162
  139.9488  143.6296  152.3034 LP  0  0  0  0  0  0  0  0  0  0  0  0  # atno 17343 bound_to 10162
  157.0449  130.5764  149.5361 LP  0  0  0  0  0  0  0  0  0  0  0  0  # atno 17370 bound_to 10713
  156.0110  130.5202  150.7989 LP  0  0  0  0  0  0  0  0  0  0  0  0  # atno 17371 bound_to 10713
  139.9012  134.8552  156.1889 LP  0  0  0  0  0  0  0  0  0  0  0  0  # atno 17394 bound_to 11000
  141.0463  133.6911  156.1689 LP  0  0  0  0  0  0  0  0  0  0  0  0  # atno 17395 bound_to 11000

$$$$
