AV-unprocessed.smi:49|AV-procd|sdf|479|dock8
  -GOLD-   2262016343D 1   1.00000     0.00000
 Structure written by MMmdl.
 28 29  0  0  0  0  0  0  0  0  2 V2000
  152.0772  144.0876  157.3220 C   0  0  0  0  0  0  0  0  0  0  0  0
  151.5503  142.7055  157.7224 C   0  0  0  0  0  0  0  0  0  0  0  0
  150.9124  141.9814  156.5823 C   0  0  0  0  0  0  0  0  0  0  0  0
  149.9143  142.5201  155.8673 N   0  0  0  0  0  0  0  0  0  0  0  0
  149.6260  141.5591  154.9770 C   0  0  0  0  0  0  0  0  0  0  0  0
  148.5369  141.7390  153.9583 C   0  0  2  0  0  0  0  0  0  0  0  0
  147.1643  142.0695  154.5639 C   0  0  0  0  0  0  0  0  0  0  0  0
  146.4623  140.7153  154.6502 C   0  0  1  0  0  0  0  0  0  0  0  0
  145.0560  140.8371  154.6176 O   0  0  0  0  0  0  0  0  0  0  0  0
  147.0136  139.9660  153.4375 C   0  0  0  0  0  0  0  0  0  0  0  0
  148.4136  140.4110  153.3155 N   0  3  0  0  0  0  0  0  0  0  0  0
  150.3914  140.4697  155.1239 N   0  0  0  0  0  0  0  0  0  0  0  0
  151.2382  140.7493  156.1816 N   0  0  0  0  0  0  0  0  0  0  0  0
  148.8362  142.4892  153.2250 H   0  0  0  0  0  0  0  0  0  0  0  0
  146.7594  140.2037  155.5669 H   0  0  0  0  0  0  0  0  0  0  0  0
  149.4835  143.4268  155.9789 H   0  0  0  0  0  0  0  0  0  0  0  0
  152.5350  144.5904  158.1739 H   0  0  0  0  0  0  0  0  0  0  0  0
  151.2722  144.7239  156.9533 H   0  0  0  0  0  0  0  0  0  0  0  0
  152.8296  144.0095  156.5367 H   0  0  0  0  0  0  0  0  0  0  0  0
  152.3643  142.0983  158.1199 H   0  0  0  0  0  0  0  0  0  0  0  0
  150.8184  142.8068  158.5244 H   0  0  0  0  0  0  0  0  0  0  0  0
  147.2224  142.5937  155.5186 H   0  0  0  0  0  0  0  0  0  0  0  0
  146.6211  142.7130  153.8700 H   0  0  0  0  0  0  0  0  0  0  0  0
  144.7601  140.7475  153.7244 H   0  0  0  0  0  0  0  0  0  0  0  0
  146.9400  138.8828  153.5376 H   0  0  0  0  0  0  0  0  0  0  0  0
  146.4829  140.2606  152.5310 H   0  0  0  0  0  0  0  0  0  0  0  0
  148.7020  140.4405  152.3483 H   0  0  0  0  0  0  0  0  0  0  0  0
  149.0012  139.7670  153.8269 H   0  0  0  0  0  0  0  0  0  0  0  0
  1  2  1  0  0  0  0
  1 17  1  0  0  0  0
  1 18  1  0  0  0  0
  1 19  1  0  0  0  0
  2 20  1  0  0  0  0
  2 21  1  0  0  0  0
  2  3  1  0  0  0  0
  3  4  1  0  0  0  0
  3 13  2  0  0  0  0
  4 16  1  0  0  0  0
  4  5  1  0  0  0  0
  5 12  2  0  0  0  0
  5  6  1  0  0  0  0
  6 14  1  0  0  0  0
  6 11  1  0  0  0  0
  6  7  1  0  0  0  0
  7  8  1  0  0  0  0
  7 22  1  0  0  0  0
  7 23  1  0  0  0  0
  8 15  1  0  0  0  0
  8  9  1  0  0  0  0
  8 10  1  0  0  0  0
  9 24  1  0  0  0  0
 10 11  1  0  0  0  0
 10 25  1  0  0  0  0
 10 26  1  0  0  0  0
 11 27  1  0  0  0  0
 11 28  1  0  0  0  0
 12 13  1  0  0  0  0
M  CHG  1  11   1
M  END
> <s_m_source_file>
AV-unprocessed.smi

> <i_m_source_file_index>
49

> <i_lp_mmshare_version>
43012

> <i_f3d_flags>
0

> <s_epik_input>
W0NIM11bQ0gyXWMxbmMobltuSF0xKVtDQEBIXTJbQ0gyXVtDQEBIXShbT0hdKVtDSDJdW05IXTI=

> <s_epik_cmdline>
J2VwaWtfcHl0aG9uJywgJy1waCcsICc3LjAnLCAnLXRuJywgJzgnLCAnLW1hJywgJzIwMCcsICctbWV0YWxfYmluZGluZycsICctaW1hZScsICc8aW5maWxlLm1hZT4nLCAnLW9tYWUnLCAnPG91dGZpbGUubWFlPic=

> <r_lp_tautomer_probability>
0.0517155

> <r_epik_Ionization_Penalty>
0.939819

> <r_epik_Ionization_Penalty_Charging>
0.0688988

> <r_epik_Ionization_Penalty_Neutral>
0.87092

> <r_epik_State_Penalty>
2.1224

> <r_epik_Charging_Adjusted_Penalty>
2.1913

> <i_epik_Tot_Q>
1

> <i_epik_Tot_abs_Q>
1

> <r_epik_Metal_State_Penalty>
2.39725

> <b_epik_Metal_Only>
0

> <s_lp_Force_Field>
OPLS_2005

> <r_lp_Energy>
21.4308

> <b_lp_Chiralities_Consistent>
1

> <s_lp_Variant>
AV-unprocessed.smi:49-17

> <Gold.Version>
5.8.1

> <Gold.Id.Protein>
6NUR|6NUR_protein|mol2

> <Gold.PLP.Fitness>
37.8737

> <Gold.PLP.PLP>
-26.0557

> <Gold.PLP.part.hbond>
-3.6082

> <Gold.PLP.part.metal>
0.0000

> <Gold.PLP.part.buried>
-4.0812

> <Gold.PLP.part.nonpolar>
-19.2070

> <Gold.PLP.part.repulsive>
0.3636

> <Gold.PLP.ligand.clash>
0.0000

> <Gold.PLP.ligand.torsion>
0.0994

> <Gold.PLP.Chemscore.Hbond>
4.0000

> <Gold.PLP.Chemscore.CHOScore>
0.0000

> <Gold.PLP.Chemscore.Metal>
0.0000

> <Gold.Chemscore.Hbonds>
donor molecule, donor type, donor heavy atom, donor atom, acceptor molecule, acceptor atom, score
      L1  H     4    16       P1  8028  0.83
      L1  H     9    24       P1 10175  1.00
      L1  H    11    27       P1  7957  1.00
      P1  H  7989  7998       L1    12  0.66

> <Gold.PLP.Chemscore.Internal.Correction>
0.0169

> <Gold.Rescore>
     Score         DG    S(hbond)    S(metal)    S(lipo)     H(rot)  DE(clash)    DE(int)     intcor
     15.74     -15.96       2.91        0.00      47.74       1.89       0.12       0.10       ----

> <Gold.Chemscore.Fitness>
15.7360

> <Gold.Chemscore.DG>
-15.9570

> <Gold.Chemscore.ZeroCoef>
-5.4800

> <Gold.Chemscore.Hbond>
2.9117

> <Gold.Chemscore.Metal>
0.0000

> <Gold.Chemscore.Lipo>
47.7435

> <Gold.Chemscore.Internal_Hbond>
0.0000

> <Gold.Chemscore.DEClash>
0.1181

> <Gold.Chemscore.DEInternal>
0.1029

> <Gold.Chemscore.Rot>
1.8883

> <Gold.Chemscore.Internal.Correction>
   9.000000E+99

> <Gold.Chemscore.Hbonds>
donor molecule, donor type, donor heavy atom, donor atom, acceptor molecule, acceptor atom, score
      L1  H     4    16       P1  8028  0.80
      L1  H     9    24       P1 10175  0.95
      L1  H    11    27       P1  7957  0.93
      P1  H  7989  7998       L1    12  0.02

> <Gold.Chemscore.Hbond.Weighted>
-9.7250

> <Gold.Chemscore.Metal.Weighted>
-0.0000

> <Gold.Chemscore.Lipo.Weighted>
-5.5860

> <Gold.Chemscore.Internal_Hbond.Weighted>
0.0000

> <Gold.Chemscore.DEClash.Weighted>
0.1181

> <Gold.Chemscore.DEInternal.Weighted>
0.1029

> <Gold.Chemscore.Rot.Weighted>
4.8340

> <Gold.Chemscore.Internal.Correction.Weighted>
   9.000000E+99

> <Gold.Protein.RotatedTorsions>
[ 6907 6896 6895 6894 ] final   40.65 input  -60.11 | X-H torsion
[ 7974 7965 7964 7962 ] final -166.83 input  175.53 | X-H torsion
[ 8008 7997 7996 7995 ] final  -37.96 input   59.86 | X-H torsion
[ 10167 10162 10161 10158 ] final  112.34 input  -65.29 | X-H torsion
[ 10718 10713 10712 10709 ] final  -61.25 input   66.30 | X-H torsion
[ 10763 10752 10751 10750 ] final  -20.44 input  -60.55 | X-H torsion
[ 11005 11000 10999 10996 ] final   58.41 input  -57.11 | X-H torsion

> <Gold.Protein.ActiveResidues>
 VAL166  LYS551  ARG553  GLY616  TRP617  ASP618  TYR619  PRO620  LYS621  CYS622 
 ASP623  PHE694  ASN695  SER759  ASP760  ASP761  ALA762  ILE779  LEU786  VAL792 
 PHE793  MET794  SER795  GLU796  ALA797  LYS798  CYS799  TRP800  GLU811  SER814 

> <Gold.Protein.RotatedAtoms>
  152.1852  134.8720  160.0522 H   0  0  0  0  0  0  0  0  0  0  0  0  # atno 6907 bound_to 6896
  151.9629  133.3696  159.4050 H   0  0  0  0  0  0  0  0  0  0  0  0  # atno 6908 bound_to 6896
  150.6925  134.4145  159.5220 H   0  0  0  0  0  0  0  0  0  0  0  0  # atno 6909 bound_to 6896
  144.7236  140.2608  143.6265 H   0  0  0  0  0  0  0  0  0  0  0  0  # atno 7974 bound_to 7965
  154.4044  140.1590  156.2621 H   0  0  0  0  0  0  0  0  0  0  0  0  # atno 8008 bound_to 7997
  155.9027  140.3432  155.6016 H   0  0  0  0  0  0  0  0  0  0  0  0  # atno 8009 bound_to 7997
  155.7429  140.0795  157.2228 H   0  0  0  0  0  0  0  0  0  0  0  0  # atno 8010 bound_to 7997
  139.6543  144.7129  151.1987 H   0  0  0  0  0  0  0  0  0  0  0  0  # atno 10167 bound_to 10162
  156.0934  130.4196  150.0968 H   0  0  0  0  0  0  0  0  0  0  0  0  # atno 10718 bound_to 10713
  153.6205  135.6993  153.5312 H   0  0  0  0  0  0  0  0  0  0  0  0  # atno 10763 bound_to 10752
  153.2941  135.4148  155.1193 H   0  0  0  0  0  0  0  0  0  0  0  0  # atno 10764 bound_to 10752
  154.8544  135.3632  154.5746 H   0  0  0  0  0  0  0  0  0  0  0  0  # atno 10765 bound_to 10752
  140.0379  134.5916  155.9419 H   0  0  0  0  0  0  0  0  0  0  0  0  # atno 11005 bound_to 11000
  145.8137  139.2014  143.1978 LP  0  0  0  0  0  0  0  0  0  0  0  0  # atno 17320 bound_to 7965
  146.0574  140.8007  142.9752 LP  0  0  0  0  0  0  0  0  0  0  0  0  # atno 17321 bound_to 7965
  140.7552  143.6098  150.8616 LP  0  0  0  0  0  0  0  0  0  0  0  0  # atno 17342 bound_to 10162
  139.9750  143.6015  152.2961 LP  0  0  0  0  0  0  0  0  0  0  0  0  # atno 17343 bound_to 10162
  156.8972  130.9608  151.3581 LP  0  0  0  0  0  0  0  0  0  0  0  0  # atno 17370 bound_to 10713
  157.6090  130.8568  149.8920 LP  0  0  0  0  0  0  0  0  0  0  0  0  # atno 17371 bound_to 10713
  141.1867  133.6558  156.5252 LP  0  0  0  0  0  0  0  0  0  0  0  0  # atno 17394 bound_to 11000
  140.4117  134.7267  157.4839 LP  0  0  0  0  0  0  0  0  0  0  0  0  # atno 17395 bound_to 11000

$$$$
