AV-unprocessed.smi:183|AV-procd|sdf|1457|dock8
  -GOLD-   2262019263D 1   1.00000     0.00000
 Structure written by MMmdl.
 55 57  0  0  0  0  0  0  0  0  1 V2000
  147.6734  134.6028  162.1714 C   0  0  0  0  0  0  0  0  0  0  0  0
  147.9015  135.7550  161.1991 C   0  0  0  0  0  0  0  0  0  0  0  0
  147.8927  136.9169  161.6050 O   0  0  0  0  0  0  0  0  0  0  0  0
  148.1065  135.4179  159.9169 N   0  0  0  0  0  0  0  0  0  0  0  0
  148.3380  136.3634  158.8329 C   0  0  0  0  0  0  0  0  0  0  0  0
  149.6105  136.0039  158.0406 C   0  0  0  0  0  0  0  0  0  0  0  0
  149.3427  135.5786  156.6636 N   0  0  0  0  0  0  0  0  0  0  0  0
  149.4241  134.2314  156.5359 C   0  0  0  0  0  0  0  0  0  0  0  0
  149.7951  133.5273  157.6347 N   0  0  0  0  0  0  0  0  0  0  0  0
  149.9026  132.1967  157.5740 C   0  0  0  0  0  0  0  0  0  0  0  0
  149.6941  131.3889  156.5324 N   0  0  0  0  0  0  0  0  0  0  0  0
  149.3305  132.0937  155.4228 C   0  0  0  0  0  0  0  0  0  0  0  0
  149.1758  133.5060  155.3346 C   0  0  0  0  0  0  0  0  0  0  0  0
  148.8131  133.8608  154.0403 N   0  0  0  0  0  0  0  0  0  0  0  0
  148.7514  132.7244  153.4028 C   0  0  0  0  0  0  0  0  0  0  0  0
  149.0375  131.6106  154.1593 N   0  0  0  0  0  0  0  0  0  0  0  0
  149.0417  130.2275  153.7083 C   0  0  0  0  0  0  0  0  0  0  0  0
  147.6206  129.6340  153.5217 C   0  0  1  0  0  0  0  0  0  0  0  0
  147.0470  129.4523  154.8055 O   0  0  0  0  0  0  0  0  0  0  0  0
  146.6842  130.5332  152.7181 C   0  0  0  0  0  0  0  0  0  0  0  0
  145.7343  129.5425  152.0625 C   0  0  0  0  0  0  0  0  0  0  0  0
  146.6004  128.4784  151.7118 O   0  0  0  0  0  0  0  0  0  0  0  0
  147.5343  128.2755  152.7695 C   0  0  1  0  0  0  0  0  0  0  0  0
  148.8348  127.7439  152.1463 C   0  0  0  0  0  0  0  0  0  0  0  0
  149.7977  136.4044  155.5314 C   0  0  0  0  0  0  0  0  0  0  0  0
  151.3260  136.5973  155.5410 C   0  0  0  0  0  0  0  0  0  0  0  0
  149.1245  137.7946  155.5063 C   0  0  0  0  0  0  0  0  0  0  0  0
  148.5865  134.0185  162.2877 H   0  0  0  0  0  0  0  0  0  0  0  0
  146.8846  133.9440  161.8070 H   0  0  0  0  0  0  0  0  0  0  0  0
  147.3785  134.9762  163.1524 H   0  0  0  0  0  0  0  0  0  0  0  0
  148.0995  134.4375  159.6755 H   0  0  0  0  0  0  0  0  0  0  0  0
  147.4652  136.3443  158.1807 H   0  0  0  0  0  0  0  0  0  0  0  0
  148.4011  137.3741  159.2380 H   0  0  0  0  0  0  0  0  0  0  0  0
  150.2855  136.8615  158.0293 H   0  0  0  0  0  0  0  0  0  0  0  0
  150.1615  135.2183  158.5571 H   0  0  0  0  0  0  0  0  0  0  0  0
  150.1989  131.7097  158.4913 H   0  0  0  0  0  0  0  0  0  0  0  0
  148.4906  132.6675  152.3561 H   0  0  0  0  0  0  0  0  0  0  0  0
  149.5966  130.1915  152.7707 H   0  0  0  0  0  0  0  0  0  0  0  0
  149.6104  129.6362  154.4272 H   0  0  0  0  0  0  0  0  0  0  0  0
  146.1873  129.0745  154.6992 H   0  0  0  0  0  0  0  0  0  0  0  0
  146.1726  131.2879  153.3173 H   0  0  0  0  0  0  0  0  0  0  0  0
  147.2410  131.0515  151.9365 H   0  0  0  0  0  0  0  0  0  0  0  0
  144.9808  129.1903  152.7687 H   0  0  0  0  0  0  0  0  0  0  0  0
  145.2280  129.9553  151.1899 H   0  0  0  0  0  0  0  0  0  0  0  0
  147.1273  127.5031  153.4249 H   0  0  0  0  0  0  0  0  0  0  0  0
  149.5925  127.5533  152.9064 H   0  0  0  0  0  0  0  0  0  0  0  0
  149.2467  128.4445  151.4195 H   0  0  0  0  0  0  0  0  0  0  0  0
  148.6539  126.8038  151.6249 H   0  0  0  0  0  0  0  0  0  0  0  0
  149.5410  135.8883  154.6065 H   0  0  0  0  0  0  0  0  0  0  0  0
  151.6430  137.2551  154.7312 H   0  0  0  0  0  0  0  0  0  0  0  0
  151.8558  135.6551  155.4021 H   0  0  0  0  0  0  0  0  0  0  0  0
  151.6641  137.0405  156.4782 H   0  0  0  0  0  0  0  0  0  0  0  0
  149.5063  138.3976  154.6822 H   0  0  0  0  0  0  0  0  0  0  0  0
  149.3156  138.3410  156.4305 H   0  0  0  0  0  0  0  0  0  0  0  0
  148.0448  137.7354  155.3729 H   0  0  0  0  0  0  0  0  0  0  0  0
  1  2  1  0  0  0  0
  1 28  1  0  0  0  0
  1 29  1  0  0  0  0
  1 30  1  0  0  0  0
  2  3  2  0  0  0  0
  2  4  1  0  0  0  0
  4  5  1  0  0  0  0
  4 31  1  0  0  0  0
  5  6  1  0  0  0  0
  5 32  1  0  0  0  0
  5 33  1  0  0  0  0
  6  7  1  0  0  0  0
  6 34  1  0  0  0  0
  6 35  1  0  0  0  0
  7  8  1  0  0  0  0
  7 25  1  0  0  0  0
  8 13  1  0  0  0  0
  8  9  2  0  0  0  0
  9 10  1  0  0  0  0
 10 11  2  0  0  0  0
 10 36  1  0  0  0  0
 11 12  1  0  0  0  0
 12 16  1  0  0  0  0
 12 13  2  0  0  0  0
 13 14  1  0  0  0  0
 14 15  2  0  0  0  0
 15 16  1  0  0  0  0
 15 37  1  0  0  0  0
 16 17  1  0  0  0  0
 17 18  1  0  0  0  0
 17 38  1  0  0  0  0
 17 39  1  0  0  0  0
 18 23  1  0  0  0  0
 18 19  1  0  0  0  0
 18 20  1  0  0  0  0
 19 40  1  0  0  0  0
 20 21  1  0  0  0  0
 20 41  1  0  0  0  0
 20 42  1  0  0  0  0
 21 22  1  0  0  0  0
 21 43  1  0  0  0  0
 21 44  1  0  0  0  0
 22 23  1  0  0  0  0
 23 24  1  0  0  0  0
 23 45  1  0  0  0  0
 24 46  1  0  0  0  0
 24 47  1  0  0  0  0
 24 48  1  0  0  0  0
 25 26  1  0  0  0  0
 25 27  1  0  0  0  0
 25 49  1  0  0  0  0
 26 50  1  0  0  0  0
 26 51  1  0  0  0  0
 26 52  1  0  0  0  0
 27 53  1  0  0  0  0
 27 54  1  0  0  0  0
 27 55  1  0  0  0  0
M  END
> <s_m_source_file>
AV-unprocessed.smi

> <i_m_source_file_index>
183

> <i_lp_mmshare_version>
43012

> <i_f3d_flags>
0

> <s_epik_input>
W0NIM11DKD1PKVtOSF1bQ0gyXVtDSDJdTihbQ0hdKFtDSDNdKVtDSDNdKWMobltjSF1uMSljKGMxMiluW2NIXW4yW0NIMl1bQ0BAXTMoW09IXSlbQ0gyXVtDSDJdT1tDQEhdM1tDSDNd

> <s_epik_cmdline>
J2VwaWtfcHl0aG9uJywgJy1waCcsICc3LjAnLCAnLXRuJywgJzgnLCAnLW1hJywgJzIwMCcsICctbWV0YWxfYmluZGluZycsICctaW1hZScsICc8aW5maWxlLm1hZT4nLCAnLW9tYWUnLCAnPG91dGZpbGUubWFlPic=

> <r_lp_tautomer_probability>
1

> <r_epik_Ionization_Penalty>
0.00156158

> <r_epik_Ionization_Penalty_Charging>
0

> <r_epik_Ionization_Penalty_Neutral>
0.00156158

> <r_epik_State_Penalty>
0.000865808

> <r_epik_Charging_Adjusted_Penalty>
0.000865808

> <i_epik_Tot_Q>
0

> <i_epik_Tot_abs_Q>
0

> <r_epik_Metal_State_Penalty>
-0

> <b_epik_Metal_Only>
0

> <s_lp_Force_Field>
OPLS_2005

> <r_lp_Energy>
29.4164

> <b_lp_Chiralities_Consistent>
1

> <s_lp_Variant>
AV-unprocessed.smi:183-1

> <Gold.Version>
5.8.1

> <Gold.Id.Protein>
6NUR|6NUR_protein|mol2

> <Gold.PLP.Fitness>
44.0809

> <Gold.PLP.PLP>
-36.7629

> <Gold.PLP.part.hbond>
-3.0000

> <Gold.PLP.part.metal>
0.0000

> <Gold.PLP.part.buried>
-4.1172

> <Gold.PLP.part.nonpolar>
-29.6069

> <Gold.PLP.part.repulsive>
0.5415

> <Gold.PLP.ligand.clash>
0.0000

> <Gold.PLP.ligand.torsion>
1.9285

> <Gold.PLP.Chemscore.Hbond>
2.8233

> <Gold.PLP.Chemscore.CHOScore>
0.5280

> <Gold.PLP.Chemscore.Metal>
0.0000

> <Gold.Chemscore.Hbonds>
donor molecule, donor type, donor heavy atom, donor atom, acceptor molecule, acceptor atom, score
      P1  H  6896  6908       L1     9  0.99
      P1  H  6931  6943       L1     3  1.00
      P1  H  6934  6947       L1     3  0.21
      L1  C    15    37       P1 10747  0.37

> <Gold.PLP.Chemscore.Internal.Correction>
1.1212

> <Gold.Rescore>
     Score         DG    S(hbond)    S(metal)    S(lipo)     H(rot)  DE(clash)    DE(int)     intcor
     12.01     -14.53       3.02        0.00      66.54       3.45       0.03       2.50       ----

> <Gold.Chemscore.Fitness>
12.0059

> <Gold.Chemscore.DG>
-14.5303

> <Gold.Chemscore.ZeroCoef>
-5.4800

> <Gold.Chemscore.Hbond>
3.0194

> <Gold.Chemscore.Metal>
0.0000

> <Gold.Chemscore.Lipo>
66.5390

> <Gold.Chemscore.Internal_Hbond>
0.0000

> <Gold.Chemscore.DEClash>
0.0270

> <Gold.Chemscore.DEInternal>
2.4974

> <Gold.Chemscore.Rot>
3.4451

> <Gold.Chemscore.Internal.Correction>
   9.000000E+99

> <Gold.Chemscore.Hbonds>
donor molecule, donor type, donor heavy atom, donor atom, acceptor molecule, acceptor atom, score
      P1  H  6896  6908       L1     9  0.50
      P1  H  6931  6943       L1     3  1.00
      P1  H  6934  6947       L1     3  0.21

> <Gold.Chemscore.Hbond.Weighted>
-10.0847

> <Gold.Chemscore.Metal.Weighted>
-0.0000

> <Gold.Chemscore.Lipo.Weighted>
-7.7851

> <Gold.Chemscore.Internal_Hbond.Weighted>
0.0000

> <Gold.Chemscore.DEClash.Weighted>
0.0270

> <Gold.Chemscore.DEInternal.Weighted>
2.4974

> <Gold.Chemscore.Rot.Weighted>
8.8194

> <Gold.Chemscore.Internal.Correction.Weighted>
   9.000000E+99

> <Gold.Protein.RotatedTorsions>
[ 6907 6896 6895 6894 ] final  138.49 input  -60.11 | X-H torsion
[ 7974 7965 7964 7962 ] final   76.89 input  175.53 | X-H torsion
[ 8008 7997 7996 7995 ] final  -55.56 input   59.86 | X-H torsion
[ 10167 10162 10161 10158 ] final -169.92 input  -65.29 | X-H torsion
[ 10718 10713 10712 10709 ] final  -33.10 input   66.30 | X-H torsion
[ 10763 10752 10751 10750 ] final   85.12 input  -60.55 | X-H torsion
[ 11005 11000 10999 10996 ] final  145.82 input  -57.11 | X-H torsion

> <Gold.Protein.ActiveResidues>
 VAL166  LYS551  ARG553  GLY616  TRP617  ASP618  TYR619  PRO620  LYS621  CYS622 
 ASP623  PHE694  ASN695  SER759  ASP760  ASP761  ALA762  ILE779  LEU786  VAL792 
 PHE793  MET794  SER795  GLU796  ALA797  LYS798  CYS799  TRP800  GLU811  SER814 

> <Gold.Protein.RotatedAtoms>
  152.2659  133.5339  159.5409 H   0  0  0  0  0  0  0  0  0  0  0  0  # atno 6907 bound_to 6896
  150.7142  134.0765  159.3891 H   0  0  0  0  0  0  0  0  0  0  0  0  # atno 6908 bound_to 6896
  151.8681  135.0500  160.0527 H   0  0  0  0  0  0  0  0  0  0  0  0  # atno 6909 bound_to 6896
  145.6970  139.2570  143.1727 H   0  0  0  0  0  0  0  0  0  0  0  0  # atno 7974 bound_to 7965
  154.4199  140.1150  156.5497 H   0  0  0  0  0  0  0  0  0  0  0  0  # atno 8008 bound_to 7997
  155.6423  140.3496  155.4700 H   0  0  0  0  0  0  0  0  0  0  0  0  # atno 8009 bound_to 7997
  155.9861  140.1170  157.0672 H   0  0  0  0  0  0  0  0  0  0  0  0  # atno 8010 bound_to 7997
  139.5893  144.1249  152.1614 H   0  0  0  0  0  0  0  0  0  0  0  0  # atno 10167 bound_to 10162
  156.3668  130.4333  149.7578 H   0  0  0  0  0  0  0  0  0  0  0  0  # atno 10718 bound_to 10713
  153.1445  135.4629  154.9545 H   0  0  0  0  0  0  0  0  0  0  0  0  # atno 10763 bound_to 10752
  154.7775  135.3178  154.8064 H   0  0  0  0  0  0  0  0  0  0  0  0  # atno 10764 bound_to 10752
  153.8580  135.6915  153.4840 H   0  0  0  0  0  0  0  0  0  0  0  0  # atno 10765 bound_to 10752
  140.0743  134.9134  157.1397 H   0  0  0  0  0  0  0  0  0  0  0  0  # atno 11005 bound_to 11000
  146.0831  140.7741  142.9632 LP  0  0  0  0  0  0  0  0  0  0  0  0  # atno 17320 bound_to 7965
  144.6979  140.3520  143.7180 LP  0  0  0  0  0  0  0  0  0  0  0  0  # atno 17321 bound_to 7965
  140.0819  144.5693  150.7116 LP  0  0  0  0  0  0  0  0  0  0  0  0  # atno 17342 bound_to 10162
  140.7159  143.2544  151.4436 LP  0  0  0  0  0  0  0  0  0  0  0  0  # atno 17343 bound_to 10162
  156.4721  130.8001  151.3019 LP  0  0  0  0  0  0  0  0  0  0  0  0  # atno 17370 bound_to 10713
  157.7479  131.0032  150.3031 LP  0  0  0  0  0  0  0  0  0  0  0  0  # atno 17371 bound_to 10713
  140.3581  134.2525  155.7190 LP  0  0  0  0  0  0  0  0  0  0  0  0  # atno 17394 bound_to 11000
  141.2023  133.7940  157.0395 LP  0  0  0  0  0  0  0  0  0  0  0  0  # atno 17395 bound_to 11000

$$$$
