AV-unprocessed.smi:2604|AV-procd|sdf|10190|dock4
  -GOLD-   2272014203D 1   1.00000     0.00000
 Structure written by MMmdl.
 26 27  0  0  0  0  0  0  0  0  2 V2000
  143.4807  132.7057  151.1262 C   0  0  0  0  0  0  0  0  0  0  0  0
  143.7350  132.1136  149.8734 C   0  0  0  0  0  0  0  0  0  0  0  0
  144.9759  131.9702  149.3605 N   0  0  0  0  0  0  0  0  0  0  0  0
  146.0189  132.4151  150.0933 C   0  0  0  0  0  0  0  0  0  0  0  0
  145.8785  133.0177  151.3625 C   0  0  0  0  0  0  0  0  0  0  0  0
  147.1014  133.5048  152.1226 C   0  0  1  0  0  0  0  0  0  0  0  0
  146.6946  134.3596  153.3446 C   0  0  0  0  0  0  0  0  0  0  0  0
  147.8928  134.8606  154.0481 N   0  3  0  0  0  0  0  0  0  0  0  0
  148.7877  133.7509  154.4308 C   0  0  0  0  0  0  0  0  0  0  0  0
  149.1583  132.9219  153.1877 C   0  0  0  0  0  0  0  0  0  0  0  0
  147.9471  132.3961  152.5657 N   0  0  0  0  0  0  0  0  0  0  0  0
  144.5741  133.1676  151.8835 C   0  0  0  0  0  0  0  0  0  0  0  0
  142.4707  132.8031  151.4961 H   0  0  0  0  0  0  0  0  0  0  0  0
  142.9201  131.7475  149.2666 H   0  0  0  0  0  0  0  0  0  0  0  0
  146.9958  132.2861  149.6510 H   0  0  0  0  0  0  0  0  0  0  0  0
  147.6884  134.1190  151.4375 H   0  0  0  0  0  0  0  0  0  0  0  0
  146.0946  135.2134  153.0284 H   0  0  0  0  0  0  0  0  0  0  0  0
  146.0849  133.7804  154.0398 H   0  0  0  0  0  0  0  0  0  0  0  0
  148.3944  135.4832  153.4313 H   0  0  0  0  0  0  0  0  0  0  0  0
  149.6846  134.1604  154.8961 H   0  0  0  0  0  0  0  0  0  0  0  0
  148.2959  133.1254  155.1775 H   0  0  0  0  0  0  0  0  0  0  0  0
  149.7162  133.5240  152.4690 H   0  0  0  0  0  0  0  0  0  0  0  0
  149.7996  132.0874  153.4720 H   0  0  0  0  0  0  0  0  0  0  0  0
  148.1942  131.8206  151.7723 H   0  0  0  0  0  0  0  0  0  0  0  0
  144.4104  133.6296  152.8462 H   0  0  0  0  0  0  0  0  0  0  0  0
  147.6109  135.3677  154.8749 H   0  0  0  0  0  0  0  0  0  0  0  0
  1 12  1  0  0  0  0
  1  2  2  0  0  0  0
  1 13  1  0  0  0  0
  2  3  1  0  0  0  0
  2 14  1  0  0  0  0
  3  4  2  0  0  0  0
  4  5  1  0  0  0  0
  4 15  1  0  0  0  0
  5  6  1  0  0  0  0
  5 12  2  0  0  0  0
  6 11  1  0  0  0  0
  6  7  1  0  0  0  0
  6 16  1  0  0  0  0
  7  8  1  0  0  0  0
  7 17  1  0  0  0  0
  7 18  1  0  0  0  0
  8  9  1  0  0  0  0
  8 19  1  0  0  0  0
  8 26  1  0  0  0  0
  9 10  1  0  0  0  0
  9 20  1  0  0  0  0
  9 21  1  0  0  0  0
 10 11  1  0  0  0  0
 10 22  1  0  0  0  0
 10 23  1  0  0  0  0
 11 24  1  0  0  0  0
 12 25  1  0  0  0  0
M  CHG  1   8   1
M  END
> <s_m_source_file>
AV-unprocessed.smi

> <i_m_source_file_index>
2604

> <i_lp_mmshare_version>
43012

> <i_f3d_flags>
0

> <s_epik_input>
W2NIXTFbY0hdW2NIXW5bY0hdYzFbQ0BASF0yW0NIMl1bTkhdW0NIMl1bQ0gyXVtOSF0y

> <s_epik_cmdline>
J2VwaWtfcHl0aG9uJywgJy1waCcsICc3LjAnLCAnLXRuJywgJzgnLCAnLW1hJywgJzIwMCcsICctbWV0YWxfYmluZGluZycsICctaW1hZScsICc8aW5maWxlLm1hZT4nLCAnLW9tYWUnLCAnPG91dGZpbGUubWFlPic=

> <r_epik_Ionization_Penalty>
0.0181456

> <r_epik_Ionization_Penalty_Charging>
0.010317

> <r_epik_Ionization_Penalty_Neutral>
0.00782861

> <r_epik_State_Penalty>
0.306622

> <r_epik_Charging_Adjusted_Penalty>
0.316939

> <i_epik_Tot_Q>
1

> <i_epik_Tot_abs_Q>
1

> <r_epik_Metal_State_Penalty>
0.302658

> <b_epik_Metal_Only>
0

> <s_lp_Force_Field>
OPLS_2005

> <r_lp_Energy>
10.6943

> <b_lp_Chiralities_Consistent>
1

> <s_lp_Variant>
AV-unprocessed.smi:2604-2

> <Gold.Version>
5.8.1

> <Gold.Id.Protein>
6NUR|6NUR_protein|mol2

> <Gold.PLP.Fitness>
39.2972

> <Gold.PLP.PLP>
-24.6156

> <Gold.PLP.part.hbond>
-2.4646

> <Gold.PLP.part.metal>
0.0000

> <Gold.PLP.part.buried>
-3.5928

> <Gold.PLP.part.nonpolar>
-19.3950

> <Gold.PLP.part.repulsive>
0.1614

> <Gold.PLP.ligand.clash>
0.0000

> <Gold.PLP.ligand.torsion>
0.1557

> <Gold.PLP.Chemscore.Hbond>
3.0000

> <Gold.PLP.Chemscore.CHOScore>
1.9950

> <Gold.PLP.Chemscore.Metal>
0.0000

> <Gold.Chemscore.Hbonds>
donor molecule, donor type, donor heavy atom, donor atom, acceptor molecule, acceptor atom, score
      L1  H     8    19       P1  7948  2.00
      L1  H    11    24       P1 10747  1.00
      L1  C     2    14       P1 10952  0.98
      L1  C     4    15       P1 10747  1.00

> <Gold.PLP.Chemscore.Internal.Correction>
0.0081

> <Gold.Rescore>
     Score         DG    S(hbond)    S(metal)    S(lipo)     H(rot)  DE(clash)    DE(int)     intcor
     17.17     -17.34       1.99        0.00      66.41       1.00       0.11       0.06       ----

> <Gold.Chemscore.Fitness>
17.1711

> <Gold.Chemscore.DG>
-17.3403

> <Gold.Chemscore.ZeroCoef>
-5.4800

> <Gold.Chemscore.Hbond>
1.9912

> <Gold.Chemscore.Metal>
0.0000

> <Gold.Chemscore.Lipo>
66.4088

> <Gold.Chemscore.Internal_Hbond>
0.0000

> <Gold.Chemscore.DEClash>
0.1123

> <Gold.Chemscore.DEInternal>
0.0569

> <Gold.Chemscore.Rot>
1.0000

> <Gold.Chemscore.Internal.Correction>
   9.000000E+99

> <Gold.Chemscore.Hbonds>
donor molecule, donor type, donor heavy atom, donor atom, acceptor molecule, acceptor atom, score
      L1  H     8    19       P1  7948  0.99
      L1  H    11    24       P1 10747  0.99

> <Gold.Chemscore.Hbond.Weighted>
-6.6505

> <Gold.Chemscore.Metal.Weighted>
-0.0000

> <Gold.Chemscore.Lipo.Weighted>
-7.7698

> <Gold.Chemscore.Internal_Hbond.Weighted>
0.0000

> <Gold.Chemscore.DEClash.Weighted>
0.1123

> <Gold.Chemscore.DEInternal.Weighted>
0.0569

> <Gold.Chemscore.Rot.Weighted>
2.5600

> <Gold.Chemscore.Internal.Correction.Weighted>
   9.000000E+99

> <Gold.Protein.RotatedTorsions>
[ 6907 6896 6895 6894 ] final -172.27 input  -60.11 | X-H torsion
[ 7974 7965 7964 7962 ] final -100.18 input  175.53 | X-H torsion
[ 8008 7997 7996 7995 ] final  172.84 input   59.86 | X-H torsion
[ 10167 10162 10161 10158 ] final -177.77 input  -65.29 | X-H torsion
[ 10718 10713 10712 10709 ] final -114.00 input   66.30 | X-H torsion
[ 10763 10752 10751 10750 ] final  127.04 input  -60.55 | X-H torsion
[ 11005 11000 10999 10996 ] final  -79.36 input  -57.11 | X-H torsion

> <Gold.Protein.ActiveResidues>
 VAL166  LYS551  ARG553  GLY616  TRP617  ASP618  TYR619  PRO620  LYS621  CYS622 
 ASP623  PHE694  ASN695  SER759  ASP760  ASP761  ALA762  ILE779  LEU786  VAL792 
 PHE793  MET794  SER795  GLU796  ALA797  LYS798  CYS799  TRP800  GLU811  SER814 

> <Gold.Protein.RotatedAtoms>
  151.5372  133.3439  159.2928 H   0  0  0  0  0  0  0  0  0  0  0  0  # atno 6907 bound_to 6896
  150.8557  134.7898  159.7055 H   0  0  0  0  0  0  0  0  0  0  0  0  # atno 6908 bound_to 6896
  152.4591  134.5233  159.9840 H   0  0  0  0  0  0  0  0  0  0  0  0  # atno 6909 bound_to 6896
  145.2979  140.9370  143.2840 H   0  0  0  0  0  0  0  0  0  0  0  0  # atno 7974 bound_to 7965
  156.1134  140.1475  156.9306 H   0  0  0  0  0  0  0  0  0  0  0  0  # atno 8008 bound_to 7997
  154.4783  140.0887  156.7359 H   0  0  0  0  0  0  0  0  0  0  0  0  # atno 8009 bound_to 7997
  155.4556  140.3436  155.4308 H   0  0  0  0  0  0  0  0  0  0  0  0  # atno 8010 bound_to 7997
  139.5464  144.2224  152.0996 H   0  0  0  0  0  0  0  0  0  0  0  0  # atno 10167 bound_to 10162
  156.0802  130.6003  150.8717 H   0  0  0  0  0  0  0  0  0  0  0  0  # atno 10718 bound_to 10713
  153.7031  135.3280  155.3229 H   0  0  0  0  0  0  0  0  0  0  0  0  # atno 10763 bound_to 10752
  154.8407  135.4459  154.1391 H   0  0  0  0  0  0  0  0  0  0  0  0  # atno 10764 bound_to 10752
  153.2463  135.6976  153.7806 H   0  0  0  0  0  0  0  0  0  0  0  0  # atno 10765 bound_to 10752
  141.1667  133.7102  156.8110 H   0  0  0  0  0  0  0  0  0  0  0  0  # atno 11005 bound_to 11000
  144.9118  139.4519  143.6583 LP  0  0  0  0  0  0  0  0  0  0  0  0  # atno 17320 bound_to 7965
  146.3162  139.7930  142.8981 LP  0  0  0  0  0  0  0  0  0  0  0  0  # atno 17321 bound_to 7965
  140.1712  144.4934  150.6579 LP  0  0  0  0  0  0  0  0  0  0  0  0  # atno 17342 bound_to 10162
  140.6713  143.2287  151.5617 LP  0  0  0  0  0  0  0  0  0  0  0  0  # atno 17343 bound_to 10162
  157.5915  131.0944  150.9110 LP  0  0  0  0  0  0  0  0  0  0  0  0  # atno 17370 bound_to 10713
  156.9285  130.5341  149.5279 LP  0  0  0  0  0  0  0  0  0  0  0  0  # atno 17371 bound_to 10713
  140.2187  134.8773  157.3354 LP  0  0  0  0  0  0  0  0  0  0  0  0  # atno 17394 bound_to 11000
  140.2010  134.4255  155.7663 LP  0  0  0  0  0  0  0  0  0  0  0  0  # atno 17395 bound_to 11000

$$$$
