AV-unprocessed.smi:3156|AV-procd|sdf|12029|dock8
  -GOLD-   2272017443D 1   1.00000     0.00000
 Structure written by MMmdl.
 41 42  0  0  0  0  0  0  0  0  2 V2000
  147.3109  141.4996  156.4039 C   0  0  0  0  0  0  0  0  0  0  0  0
  148.8120  141.1737  156.2757 C   0  0  2  0  0  0  0  0  0  0  0  0
  149.6231  142.2527  156.8893 N   0  3  0  0  0  0  0  0  0  0  0  0
  149.2757  142.6007  158.2831 C   0  0  0  0  0  0  0  0  0  0  0  0
  150.5107  143.0998  159.0453 C   0  0  2  0  0  0  0  0  0  0  0  0
  151.2652  144.1921  158.2626 C   0  0  0  0  0  0  0  0  0  0  0  0
  152.5373  144.6090  159.0095 C   0  0  0  0  0  0  0  0  0  0  0  0
  153.3800  143.3691  159.3258 C   0  0  0  0  0  0  0  0  0  0  0  0
  152.5260  142.3114  160.0428 C   0  0  0  0  0  0  0  0  0  0  0  0
  151.3844  141.9915  159.2523 O   0  0  0  0  0  0  0  0  0  0  0  0
  149.2451  140.9608  154.7980 C   0  0  2  0  0  0  0  0  0  0  0  0
  148.0649  140.6510  153.8582 C   0  0  0  0  0  0  0  0  0  0  0  0
  150.2532  139.9134  154.6668 N   0  0  0  0  0  0  0  0  0  0  0  0
  151.5025  139.8582  155.2502 C   0  0  0  0  0  0  0  0  0  0  0  0
  152.1011  138.7060  154.8283 C   0  0  0  0  0  0  0  0  0  0  0  0
  151.1345  138.1192  153.9653 C   0  0  0  0  0  0  0  0  0  0  0  0
  150.0335  138.8458  153.8656 N   0  0  0  0  0  0  0  0  0  0  0  0
  146.6889  140.6924  156.0187 H   0  0  0  0  0  0  0  0  0  0  0  0
  147.0539  142.4080  155.8584 H   0  0  0  0  0  0  0  0  0  0  0  0
  147.0155  141.6429  157.4427 H   0  0  0  0  0  0  0  0  0  0  0  0
  149.0106  140.2510  156.8233 H   0  0  0  0  0  0  0  0  0  0  0  0
  150.5811  141.9317  156.8971 H   0  0  0  0  0  0  0  0  0  0  0  0
  148.4920  143.3579  158.3015 H   0  0  0  0  0  0  0  0  0  0  0  0
  148.8800  141.7134  158.7789 H   0  0  0  0  0  0  0  0  0  0  0  0
  150.1946  143.4993  160.0112 H   0  0  0  0  0  0  0  0  0  0  0  0
  151.5306  143.8191  157.2724 H   0  0  0  0  0  0  0  0  0  0  0  0
  150.6237  145.0602  158.1078 H   0  0  0  0  0  0  0  0  0  0  0  0
  153.1131  145.3192  158.4153 H   0  0  0  0  0  0  0  0  0  0  0  0
  152.2695  145.1182  159.9361 H   0  0  0  0  0  0  0  0  0  0  0  0
  153.7770  142.9501  158.4005 H   0  0  0  0  0  0  0  0  0  0  0  0
  154.2385  143.6423  159.9399 H   0  0  0  0  0  0  0  0  0  0  0  0
  153.1092  141.4045  160.2025 H   0  0  0  0  0  0  0  0  0  0  0  0
  152.2134  142.6654  161.0264 H   0  0  0  0  0  0  0  0  0  0  0  0
  149.7093  141.8847  154.4488 H   0  0  0  0  0  0  0  0  0  0  0  0
  147.3679  141.4855  153.7916 H   0  0  0  0  0  0  0  0  0  0  0  0
  147.5081  139.7750  154.1925 H   0  0  0  0  0  0  0  0  0  0  0  0
  148.4157  140.4515  152.8450 H   0  0  0  0  0  0  0  0  0  0  0  0
  151.8585  140.6344  155.9117 H   0  0  0  0  0  0  0  0  0  0  0  0
  153.0830  138.3407  155.0911 H   0  0  0  0  0  0  0  0  0  0  0  0
  151.2006  137.1946  153.4107 H   0  0  0  0  0  0  0  0  0  0  0  0
  149.5694  143.0809  156.3137 H   0  0  0  0  0  0  0  0  0  0  0  0
  1  2  1  0  0  0  0
  1 18  1  0  0  0  0
  1 19  1  0  0  0  0
  1 20  1  0  0  0  0
  2  3  1  0  0  0  0
  2 11  1  0  0  0  0
  2 21  1  0  0  0  0
  3  4  1  0  0  0  0
  3 22  1  0  0  0  0
  3 41  1  0  0  0  0
  4  5  1  0  0  0  0
  4 23  1  0  0  0  0
  4 24  1  0  0  0  0
  5 10  1  0  0  0  0
  5  6  1  0  0  0  0
  5 25  1  0  0  0  0
  6  7  1  0  0  0  0
  6 26  1  0  0  0  0
  6 27  1  0  0  0  0
  7  8  1  0  0  0  0
  7 28  1  0  0  0  0
  7 29  1  0  0  0  0
  8  9  1  0  0  0  0
  8 30  1  0  0  0  0
  8 31  1  0  0  0  0
  9 10  1  0  0  0  0
  9 32  1  0  0  0  0
  9 33  1  0  0  0  0
 11 12  1  0  0  0  0
 11 13  1  0  0  0  0
 11 34  1  0  0  0  0
 12 35  1  0  0  0  0
 12 36  1  0  0  0  0
 12 37  1  0  0  0  0
 13 17  1  0  0  0  0
 13 14  1  0  0  0  0
 14 15  2  0  0  0  0
 14 38  1  0  0  0  0
 15 16  1  0  0  0  0
 15 39  1  0  0  0  0
 16 17  2  0  0  0  0
 16 40  1  0  0  0  0
M  CHG  1   3   1
M  END
> <s_m_source_file>
AV-unprocessed.smi

> <i_m_source_file_index>
3156

> <i_lp_mmshare_version>
43012

> <i_f3d_flags>
0

> <s_epik_input>
bjFbY0hdW2NIXVtjSF1uMVtDQEBIXShbQ0gzXSlbQ0BIXShbQ0gzXSlbTkhdW0NIMl1bQ0BASF0yW0NIMl1bQ0gyXVtDSDJdW0NIMl1PMg==

> <s_epik_cmdline>
J2VwaWtfcHl0aG9uJywgJy1waCcsICc3LjAnLCAnLXRuJywgJzgnLCAnLW1hJywgJzIwMCcsICctbWV0YWxfYmluZGluZycsICctaW1hZScsICc8aW5maWxlLm1hZT4nLCAnLW9tYWUnLCAnPG91dGZpbGUubWFlPic=

> <r_lp_tautomer_probability>
1

> <r_epik_Ionization_Penalty>
0.00658015

> <r_epik_Ionization_Penalty_Charging>
0.00656881

> <r_epik_Ionization_Penalty_Neutral>
1.13431e-05

> <r_epik_State_Penalty>
0.0048654

> <r_epik_Charging_Adjusted_Penalty>
0.0114342

> <i_epik_Tot_Q>
1

> <i_epik_Tot_abs_Q>
1

> <r_epik_Metal_State_Penalty>
-0

> <b_epik_Metal_Only>
0

> <s_lp_Force_Field>
OPLS_2005

> <r_lp_Energy>
17.2589

> <b_lp_Chiralities_Consistent>
1

> <s_lp_Variant>
AV-unprocessed.smi:3156-1

> <Gold.Version>
5.8.1

> <Gold.Id.Protein>
6NUR|6NUR_protein|mol2

> <Gold.PLP.Fitness>
45.5088

> <Gold.PLP.PLP>
-38.6851

> <Gold.PLP.part.hbond>
-1.0000

> <Gold.PLP.part.metal>
0.0000

> <Gold.PLP.part.buried>
-1.5293

> <Gold.PLP.part.nonpolar>
-35.8746

> <Gold.PLP.part.repulsive>
0.8412

> <Gold.PLP.ligand.clash>
0.0000

> <Gold.PLP.ligand.torsion>
1.2983

> <Gold.PLP.Chemscore.Hbond>
2.0000

> <Gold.PLP.Chemscore.CHOScore>
1.1101

> <Gold.PLP.Chemscore.Metal>
0.0000

> <Gold.Chemscore.Hbonds>
donor molecule, donor type, donor heavy atom, donor atom, acceptor molecule, acceptor atom, score
      L1  H     3    41       P1  8028  2.00
      L1  C    16    40       P1  7949  1.00

> <Gold.PLP.Chemscore.Internal.Correction>
0.0902

> <Gold.Rescore>
     Score         DG    S(hbond)    S(metal)    S(lipo)     H(rot)  DE(clash)    DE(int)     intcor
     15.94     -17.21       0.98        0.00     107.26       1.59       0.05       1.21       ----

> <Gold.Chemscore.Fitness>
15.9428

> <Gold.Chemscore.DG>
-17.2068

> <Gold.Chemscore.ZeroCoef>
-5.4800

> <Gold.Chemscore.Hbond>
0.9755

> <Gold.Chemscore.Metal>
0.0000

> <Gold.Chemscore.Lipo>
107.2557

> <Gold.Chemscore.Internal_Hbond>
0.0000

> <Gold.Chemscore.DEClash>
0.0527

> <Gold.Chemscore.DEInternal>
1.2113

> <Gold.Chemscore.Rot>
1.5938

> <Gold.Chemscore.Internal.Correction>
   9.000000E+99

> <Gold.Chemscore.Hbonds>
donor molecule, donor type, donor heavy atom, donor atom, acceptor molecule, acceptor atom, score
      L1  H     3    41       P1  8028  0.99

> <Gold.Chemscore.Hbond.Weighted>
-3.2581

> <Gold.Chemscore.Metal.Weighted>
-0.0000

> <Gold.Chemscore.Lipo.Weighted>
-12.5489

> <Gold.Chemscore.Internal_Hbond.Weighted>
0.0000

> <Gold.Chemscore.DEClash.Weighted>
0.0527

> <Gold.Chemscore.DEInternal.Weighted>
1.2113

> <Gold.Chemscore.Rot.Weighted>
4.0802

> <Gold.Chemscore.Internal.Correction.Weighted>
   9.000000E+99

> <Gold.Protein.RotatedTorsions>
[ 6907 6896 6895 6894 ] final   53.94 input  -60.11 | X-H torsion
[ 7974 7965 7964 7962 ] final -122.65 input  175.53 | X-H torsion
[ 8008 7997 7996 7995 ] final  -65.56 input   59.86 | X-H torsion
[ 10167 10162 10161 10158 ] final  -89.20 input  -65.29 | X-H torsion
[ 10718 10713 10712 10709 ] final   77.41 input   66.30 | X-H torsion
[ 10763 10752 10751 10750 ] final   61.81 input  -60.55 | X-H torsion
[ 11005 11000 10999 10996 ] final   16.17 input  -57.11 | X-H torsion

> <Gold.Protein.ActiveResidues>
 VAL166  LYS551  ARG553  GLY616  TRP617  ASP618  TYR619  PRO620  LYS621  CYS622 
 ASP623  PHE694  ASN695  SER759  ASP760  ASP761  ALA762  ILE779  LEU786  VAL792 
 PHE793  MET794  SER795  GLU796  ALA797  LYS798  CYS799  TRP800  GLU811  SER814 

> <Gold.Protein.RotatedAtoms>
  152.3388  134.7162  160.0269 H   0  0  0  0  0  0  0  0  0  0  0  0  # atno 6907 bound_to 6896
  151.7554  133.3324  159.3411 H   0  0  0  0  0  0  0  0  0  0  0  0  # atno 6908 bound_to 6896
  150.7467  134.6087  159.6119 H   0  0  0  0  0  0  0  0  0  0  0  0  # atno 6909 bound_to 6896
  145.0271  140.8037  143.4346 H   0  0  0  0  0  0  0  0  0  0  0  0  # atno 7974 bound_to 7965
  154.4679  140.0930  156.7069 H   0  0  0  0  0  0  0  0  0  0  0  0  # atno 8008 bound_to 7997
  155.4805  140.3467  155.4321 H   0  0  0  0  0  0  0  0  0  0  0  0  # atno 8009 bound_to 7997
  156.0989  140.1417  156.9482 H   0  0  0  0  0  0  0  0  0  0  0  0  # atno 8010 bound_to 7997
  140.3671  143.2812  151.9544 H   0  0  0  0  0  0  0  0  0  0  0  0  # atno 10167 bound_to 10162
  157.6709  130.9820  150.1637 H   0  0  0  0  0  0  0  0  0  0  0  0  # atno 10718 bound_to 10713
  152.9962  135.5487  154.6094 H   0  0  0  0  0  0  0  0  0  0  0  0  # atno 10763 bound_to 10752
  154.5418  135.2820  155.1091 H   0  0  0  0  0  0  0  0  0  0  0  0  # atno 10764 bound_to 10752
  154.2365  135.6424  153.5245 H   0  0  0  0  0  0  0  0  0  0  0  0  # atno 10765 bound_to 10752
  140.4501  134.1232  155.7701 H   0  0  0  0  0  0  0  0  0  0  0  0  # atno 11005 bound_to 11000
  145.1818  139.2347  143.5288 LP  0  0  0  0  0  0  0  0  0  0  0  0  # atno 17320 bound_to 7965
  146.3493  140.1594  142.8591 LP  0  0  0  0  0  0  0  0  0  0  0  0  # atno 17321 bound_to 7965
  139.4807  144.5940  151.7722 LP  0  0  0  0  0  0  0  0  0  0  0  0  # atno 17342 bound_to 10162
  140.5069  144.1083  150.5985 LP  0  0  0  0  0  0  0  0  0  0  0  0  # atno 17343 bound_to 10162
  156.2407  130.3690  149.8340 LP  0  0  0  0  0  0  0  0  0  0  0  0  # atno 17370 bound_to 10713
  156.6141  130.8599  151.3461 LP  0  0  0  0  0  0  0  0  0  0  0  0  # atno 17371 bound_to 10713
  141.1667  133.8688  157.1692 LP  0  0  0  0  0  0  0  0  0  0  0  0  # atno 17394 bound_to 11000
  140.0012  135.0027  157.0194 LP  0  0  0  0  0  0  0  0  0  0  0  0  # atno 17395 bound_to 11000

$$$$
