AV-unprocessed.smi:513|AV-procd|sdf|2775|dock10
  -GOLD-   2262023243D 1   1.00000     0.00000
 Structure written by MMmdl.
 41 43  0  0  0  0  0  0  0  0  2 V2000
  143.2547  136.1606  152.9118 C   0  0  0  0  0  0  0  0  0  0  0  0
  144.6614  136.1713  153.0724 O   0  0  0  0  0  0  0  0  0  0  0  0
  145.1885  134.8877  153.3636 C   0  0  0  0  0  0  0  0  0  0  0  0
  146.7187  134.8967  153.2306 C   0  0  0  0  0  0  0  0  0  0  0  0
  147.2805  133.5485  153.2109 N   0  0  0  0  0  0  0  0  0  0  0  0
  146.9311  132.5288  152.3876 C   0  0  0  0  0  0  0  0  0  0  0  0
  145.9466  132.6994  151.4213 N   0  0  0  0  0  0  0  0  0  0  0  0
  145.8480  133.8577  150.5407 C   0  0  0  0  0  0  0  0  0  0  0  0
  144.3842  134.3100  150.3758 C   0  0  0  0  0  0  0  0  0  0  0  0
  143.5946  133.2243  149.8051 N   0  0  0  0  0  0  0  0  0  0  0  0
  143.6565  132.0835  150.7119 C   0  0  0  0  0  0  0  0  0  0  0  0
  145.1197  131.6277  150.8788 C   0  0  0  0  0  0  0  0  0  0  0  0
  147.5981  131.3905  152.5794 N   0  0  0  0  0  0  0  0  0  0  0  0
  148.4512  131.7166  153.6240 C   0  0  0  0  0  0  0  0  0  0  0  0
  148.2804  133.0058  154.0237 C   0  0  0  0  0  0  0  0  0  0  0  0
  149.0467  133.6332  155.1222 C   0  0  0  0  0  0  0  0  0  0  0  0
  148.8540  134.8034  155.4456 O   0  0  0  0  0  0  0  0  0  0  0  0
  149.9447  132.7642  155.6859 N   0  5  0  0  0  0  0  0  0  0  0  0
  150.1512  131.4532  155.3120 C   0  0  0  0  0  0  0  0  0  0  0  0
  150.9831  130.7455  155.8805 O   0  0  0  0  0  0  0  0  0  0  0  0
  149.4185  130.9146  154.2849 N   0  0  0  0  0  0  0  0  0  0  0  0
  149.5816  129.5324  153.8235 C   0  0  0  0  0  0  0  0  0  0  0  0
  142.9050  137.1676  152.6844 H   0  0  0  0  0  0  0  0  0  0  0  0
  142.7574  135.8287  153.8240 H   0  0  0  0  0  0  0  0  0  0  0  0
  142.9560  135.5073  152.0911 H   0  0  0  0  0  0  0  0  0  0  0  0
  144.9059  134.5972  154.3758 H   0  0  0  0  0  0  0  0  0  0  0  0
  144.7645  134.1478  152.6834 H   0  0  0  0  0  0  0  0  0  0  0  0
  147.0057  135.4149  152.3158 H   0  0  0  0  0  0  0  0  0  0  0  0
  147.1719  135.4697  154.0373 H   0  0  0  0  0  0  0  0  0  0  0  0
  146.4402  134.6736  150.9565 H   0  0  0  0  0  0  0  0  0  0  0  0
  146.2861  133.6148  149.5716 H   0  0  0  0  0  0  0  0  0  0  0  0
  143.9615  134.6154  151.3339 H   0  0  0  0  0  0  0  0  0  0  0  0
  144.3314  135.1731  149.7120 H   0  0  0  0  0  0  0  0  0  0  0  0
  142.6353  133.5223  149.7001 H   0  0  0  0  0  0  0  0  0  0  0  0
  143.2196  132.3513  151.6747 H   0  0  0  0  0  0  0  0  0  0  0  0
  143.0556  131.2722  150.3011 H   0  0  0  0  0  0  0  0  0  0  0  0
  145.5312  131.3011  149.9228 H   0  0  0  0  0  0  0  0  0  0  0  0
  145.1637  130.7681  151.5484 H   0  0  0  0  0  0  0  0  0  0  0  0
  150.3469  128.9664  154.3551 H   0  0  0  0  0  0  0  0  0  0  0  0
  149.8491  129.5243  152.7666 H   0  0  0  0  0  0  0  0  0  0  0  0
  148.6412  128.9918  153.9348 H   0  0  0  0  0  0  0  0  0  0  0  0
  1  2  1  0  0  0  0
  1 23  1  0  0  0  0
  1 24  1  0  0  0  0
  1 25  1  0  0  0  0
  2  3  1  0  0  0  0
  3  4  1  0  0  0  0
  3 26  1  0  0  0  0
  3 27  1  0  0  0  0
  4  5  1  0  0  0  0
  4 28  1  0  0  0  0
  4 29  1  0  0  0  0
  5 15  1  0  0  0  0
  5  6  1  0  0  0  0
  6  7  1  0  0  0  0
  6 13  2  0  0  0  0
  7 12  1  0  0  0  0
  7  8  1  0  0  0  0
  8  9  1  0  0  0  0
  8 30  1  0  0  0  0
  8 31  1  0  0  0  0
  9 10  1  0  0  0  0
  9 32  1  0  0  0  0
  9 33  1  0  0  0  0
 10 11  1  0  0  0  0
 10 34  1  0  0  0  0
 11 12  1  0  0  0  0
 11 35  1  0  0  0  0
 11 36  1  0  0  0  0
 12 37  1  0  0  0  0
 12 38  1  0  0  0  0
 13 14  1  0  0  0  0
 14 21  1  0  0  0  0
 14 15  2  0  0  0  0
 15 16  1  0  0  0  0
 16 17  2  0  0  0  0
 16 18  1  0  0  0  0
 18 19  1  0  0  0  0
 19 20  2  0  0  0  0
 19 21  1  0  0  0  0
 21 22  1  0  0  0  0
 22 39  1  0  0  0  0
 22 40  1  0  0  0  0
 22 41  1  0  0  0  0
M  CHG  1  18  -1
M  END
> <s_m_source_file>
AV-unprocessed.smi

> <i_m_source_file_index>
513

> <i_lp_mmshare_version>
43012

> <i_f3d_flags>
0

> <s_epik_input>
W0NIM11uMWMoPU8pW25IXWMoPU8pYyhjMTIpbihbQ0gyXVtDSDJdT1tDSDNdKWMobjIpTjNbQ0gyXVtDSDJdW05IXVtDSDJdW0NIMl0z

> <s_epik_cmdline>
J2VwaWtfcHl0aG9uJywgJy1waCcsICc3LjAnLCAnLXRuJywgJzgnLCAnLW1hJywgJzIwMCcsICctbWV0YWxfYmluZGluZycsICctaW1hZScsICc8aW5maWxlLm1hZT4nLCAnLW9tYWUnLCAnPG91dGZpbGUubWFlPic=

> <r_epik_Ionization_Penalty>
8.82084

> <r_epik_Ionization_Penalty_Charging>
0.08198

> <r_epik_Ionization_Penalty_Neutral>
8.73886

> <r_epik_State_Penalty>
8.90453

> <r_epik_Charging_Adjusted_Penalty>
8.98651

> <i_epik_Tot_Q>
-1

> <i_epik_Tot_abs_Q>
1

> <r_epik_Metal_State_Penalty>
4.85612

> <b_epik_Metal_Only>
1

> <s_lp_Force_Field>
OPLS_2005

> <r_lp_Energy>
54.8501

> <b_lp_Chiralities_Consistent>
1

> <s_lp_Variant>
AV-unprocessed.smi:513-4

> <Gold.Version>
5.8.1

> <Gold.Id.Protein>
6NUR|6NUR_protein|mol2

> <Gold.PLP.Fitness>
34.1670

> <Gold.PLP.PLP>
-31.4374

> <Gold.PLP.part.hbond>
-1.0000

> <Gold.PLP.part.metal>
0.0000

> <Gold.PLP.part.buried>
-2.7124

> <Gold.PLP.part.nonpolar>
-29.5819

> <Gold.PLP.part.repulsive>
2.6780

> <Gold.PLP.ligand.clash>
0.0000

> <Gold.PLP.ligand.torsion>
0.6395

> <Gold.PLP.Chemscore.Hbond>
1.0000

> <Gold.PLP.Chemscore.CHOScore>
0.0000

> <Gold.PLP.Chemscore.Metal>
0.0000

> <Gold.Chemscore.Hbonds>
donor molecule, donor type, donor heavy atom, donor atom, acceptor molecule, acceptor atom, score
      L1  H    10    34       P1 10186  1.00

> <Gold.PLP.Chemscore.Internal.Correction>
1.0086

> <Gold.Rescore>
     Score         DG    S(hbond)    S(metal)    S(lipo)     H(rot)  DE(clash)    DE(int)     intcor
      9.18     -10.93       1.00        0.00      51.66       1.53       0.21       1.54       ----

> <Gold.Chemscore.Fitness>
9.1837

> <Gold.Chemscore.DG>
-10.9326

> <Gold.Chemscore.ZeroCoef>
-5.4800

> <Gold.Chemscore.Hbond>
0.9991

> <Gold.Chemscore.Metal>
0.0000

> <Gold.Chemscore.Lipo>
51.6635

> <Gold.Chemscore.Internal_Hbond>
0.0000

> <Gold.Chemscore.DEClash>
0.2094

> <Gold.Chemscore.DEInternal>
1.5394

> <Gold.Chemscore.Rot>
1.5348

> <Gold.Chemscore.Internal.Correction>
   9.000000E+99

> <Gold.Chemscore.Hbonds>
donor molecule, donor type, donor heavy atom, donor atom, acceptor molecule, acceptor atom, score
      L1  H    10    34       P1 10186  1.00

> <Gold.Chemscore.Hbond.Weighted>
-3.3369

> <Gold.Chemscore.Metal.Weighted>
-0.0000

> <Gold.Chemscore.Lipo.Weighted>
-6.0446

> <Gold.Chemscore.Internal_Hbond.Weighted>
0.0000

> <Gold.Chemscore.DEClash.Weighted>
0.2094

> <Gold.Chemscore.DEInternal.Weighted>
1.5394

> <Gold.Chemscore.Rot.Weighted>
3.9290

> <Gold.Chemscore.Internal.Correction.Weighted>
   9.000000E+99

> <Gold.Protein.RotatedTorsions>
[ 6907 6896 6895 6894 ] final   67.08 input  -60.11 | X-H torsion
[ 7974 7965 7964 7962 ] final   25.45 input  175.53 | X-H torsion
[ 8008 7997 7996 7995 ] final   51.73 input   59.86 | X-H torsion
[ 10167 10162 10161 10158 ] final -122.88 input  -65.29 | X-H torsion
[ 10718 10713 10712 10709 ] final -158.38 input   66.30 | X-H torsion
[ 10763 10752 10751 10750 ] final   59.81 input  -60.55 | X-H torsion
[ 11005 11000 10999 10996 ] final  -82.60 input  -57.11 | X-H torsion

> <Gold.Protein.ActiveResidues>
 VAL166  LYS551  ARG553  GLY616  TRP617  ASP618  TYR619  PRO620  LYS621  CYS622 
 ASP623  PHE694  ASN695  SER759  ASP760  ASP761  ALA762  ILE779  LEU786  VAL792 
 PHE793  MET794  SER795  GLU796  ALA797  LYS798  CYS799  TRP800  GLU811  SER814 

> <Gold.Protein.RotatedAtoms>
  152.4527  134.5359  159.9824 H   0  0  0  0  0  0  0  0  0  0  0  0  # atno 6907 bound_to 6896
  151.5427  133.3424  159.2946 H   0  0  0  0  0  0  0  0  0  0  0  0  # atno 6908 bound_to 6896
  150.8461  134.7801  159.7034 H   0  0  0  0  0  0  0  0  0  0  0  0  # atno 6909 bound_to 6896
  146.1888  139.7464  142.8847 H   0  0  0  0  0  0  0  0  0  0  0  0  # atno 7974 bound_to 7965
  155.4401  140.3454  155.4289 H   0  0  0  0  0  0  0  0  0  0  0  0  # atno 8008 bound_to 7997
  156.1284  140.1507  156.9132 H   0  0  0  0  0  0  0  0  0  0  0  0  # atno 8009 bound_to 7997
  154.4876  140.0851  156.7501 H   0  0  0  0  0  0  0  0  0  0  0  0  # atno 8010 bound_to 7997
  140.0095  143.5456  152.2269 H   0  0  0  0  0  0  0  0  0  0  0  0  # atno 10167 bound_to 10162
  156.5534  130.8615  151.2787 H   0  0  0  0  0  0  0  0  0  0  0  0  # atno 10718 bound_to 10713
  152.9904  135.5558  154.5773 H   0  0  0  0  0  0  0  0  0  0  0  0  # atno 10763 bound_to 10752
  154.5161  135.2805  155.1304 H   0  0  0  0  0  0  0  0  0  0  0  0  # atno 10764 bound_to 10752
  154.2675  135.6369  153.5350 H   0  0  0  0  0  0  0  0  0  0  0  0  # atno 10765 bound_to 10752
  141.1662  133.7253  156.8596 H   0  0  0  0  0  0  0  0  0  0  0  0  # atno 11005 bound_to 11000
  145.3858  141.0365  143.3152 LP  0  0  0  0  0  0  0  0  0  0  0  0  # atno 17320 bound_to 7965
  144.8446  139.5417  143.6884 LP  0  0  0  0  0  0  0  0  0  0  0  0  # atno 17321 bound_to 7965
  139.6215  144.7630  151.2730 LP  0  0  0  0  0  0  0  0  0  0  0  0  # atno 17342 bound_to 10162
  140.7387  143.6640  150.8139 LP  0  0  0  0  0  0  0  0  0  0  0  0  # atno 17343 bound_to 10162
  157.7383  130.9811  150.2244 LP  0  0  0  0  0  0  0  0  0  0  0  0  # atno 17370 bound_to 10713
  156.2864  130.3740  149.7884 LP  0  0  0  0  0  0  0  0  0  0  0  0  # atno 17371 bound_to 10713
  140.1858  134.9001  157.3002 LP  0  0  0  0  0  0  0  0  0  0  0  0  # atno 17394 bound_to 11000
  140.2345  134.3869  155.7507 LP  0  0  0  0  0  0  0  0  0  0  0  0  # atno 17395 bound_to 11000

$$$$
