AV-unprocessed.smi:1115|AV-procd|sdf|4802|dock4
  -GOLD-   22720 3343D 1   1.00000     0.00000
 Structure written by MMmdl.
 51 52  0  0  0  0  0  0  0  0  2 V2000
  151.1015  144.2203  158.2776 C   0  0  0  0  0  0  0  0  0  0  0  0
  151.4303  144.3347  159.6939 N   0  0  0  0  0  0  0  0  0  0  0  0
  151.2036  145.5882  160.4011 C   0  0  0  0  0  0  0  0  0  0  0  0
  152.0897  143.2717  160.3483 C   0  0  0  0  0  0  0  0  0  0  0  0
  152.4073  143.2897  161.7283 C   0  0  0  0  0  0  0  0  0  0  0  0
  153.0693  142.1896  162.3099 C   0  0  0  0  0  0  0  0  0  0  0  0
  153.4188  141.0780  161.5157 C   0  0  0  0  0  0  0  0  0  0  0  0
  154.0800  139.9958  162.1585 N   0  0  0  0  0  0  0  0  0  0  0  0
  153.9251  138.6741  161.9688 C   0  0  0  0  0  0  0  0  0  0  0  0
  153.1502  138.1536  161.1673 O   0  0  0  0  0  0  0  0  0  0  0  0
  154.7369  137.9766  162.7753 N   0  0  0  0  0  0  0  0  0  0  0  0
  154.8140  136.5184  162.8621 C   0  0  0  0  0  0  0  0  0  0  0  0
  154.5404  135.9850  164.2995 C   0  0  0  0  0  0  0  0  0  0  0  0
  155.7712  136.3756  165.1567 C   0  0  0  0  0  0  0  0  0  0  0  0
  153.3309  136.7737  164.8567 C   0  0  0  0  0  0  0  0  0  0  0  0
  154.3289  134.5096  164.3067 N   0  0  0  0  0  0  0  0  0  0  0  0
  153.8211  133.9638  165.5707 C   0  0  0  0  0  0  0  0  0  0  0  0
  153.7419  132.4277  165.5475 C   0  0  0  0  0  0  0  0  0  0  0  0
  152.9306  132.0049  164.4585 O   0  0  0  0  0  0  0  0  0  0  0  0
  153.4227  132.4637  163.2055 C   0  0  0  0  0  0  0  0  0  0  0  0
  153.4974  133.9999  163.2099 C   0  0  0  0  0  0  0  0  0  0  0  0
  153.0715  141.1026  160.1436 C   0  0  0  0  0  0  0  0  0  0  0  0
  152.4358  142.1769  159.6279 N   0  3  0  0  0  0  0  0  0  0  0  0
  150.4637  143.3538  158.1003 H   0  0  0  0  0  0  0  0  0  0  0  0
  152.0085  144.1119  157.6820 H   0  0  0  0  0  0  0  0  0  0  0  0
  150.5692  145.1023  157.9210 H   0  0  0  0  0  0  0  0  0  0  0  0
  152.1476  146.0081  160.7503 H   0  0  0  0  0  0  0  0  0  0  0  0
  150.5523  145.4306  161.2611 H   0  0  0  0  0  0  0  0  0  0  0  0
  150.7292  146.3273  159.7554 H   0  0  0  0  0  0  0  0  0  0  0  0
  152.1529  144.1313  162.3550 H   0  0  0  0  0  0  0  0  0  0  0  0
  153.3097  142.2056  163.3629 H   0  0  0  0  0  0  0  0  0  0  0  0
  154.7863  140.2608  162.8293 H   0  0  0  0  0  0  0  0  0  0  0  0
  155.3346  138.4919  163.4047 H   0  0  0  0  0  0  0  0  0  0  0  0
  154.1288  136.0549  162.1499 H   0  0  0  0  0  0  0  0  0  0  0  0
  155.8032  136.2184  162.5170 H   0  0  0  0  0  0  0  0  0  0  0  0
  156.0456  137.4210  165.0104 H   0  0  0  0  0  0  0  0  0  0  0  0
  156.6447  135.7723  164.9069 H   0  0  0  0  0  0  0  0  0  0  0  0
  155.5849  136.2576  166.2242 H   0  0  0  0  0  0  0  0  0  0  0  0
  153.5254  137.8466  164.8437 H   0  0  0  0  0  0  0  0  0  0  0  0
  153.1056  136.5087  165.8894 H   0  0  0  0  0  0  0  0  0  0  0  0
  152.4274  136.6128  164.2688 H   0  0  0  0  0  0  0  0  0  0  0  0
  154.4629  134.2479  166.4027 H   0  0  0  0  0  0  0  0  0  0  0  0
  152.8294  134.3636  165.7830 H   0  0  0  0  0  0  0  0  0  0  0  0
  154.7381  131.9911  165.4600 H   0  0  0  0  0  0  0  0  0  0  0  0
  153.3112  132.0568  166.4774 H   0  0  0  0  0  0  0  0  0  0  0  0
  154.4044  132.0295  163.0099 H   0  0  0  0  0  0  0  0  0  0  0  0
  152.7569  132.1196  162.4140 H   0  0  0  0  0  0  0  0  0  0  0  0
  152.4857  134.3986  163.2871 H   0  0  0  0  0  0  0  0  0  0  0  0
  153.8885  134.3153  162.2445 H   0  0  0  0  0  0  0  0  0  0  0  0
  153.2639  140.3134  159.4334 H   0  0  0  0  0  0  0  0  0  0  0  0
  152.2021  142.1612  158.6351 H   0  0  0  0  0  0  0  0  0  0  0  0
  1  2  1  0  0  0  0
  1 24  1  0  0  0  0
  1 25  1  0  0  0  0
  1 26  1  0  0  0  0
  2  3  1  0  0  0  0
  2  4  1  0  0  0  0
  3 27  1  0  0  0  0
  3 28  1  0  0  0  0
  3 29  1  0  0  0  0
  4 23  1  0  0  0  0
  4  5  2  0  0  0  0
  5  6  1  0  0  0  0
  5 30  1  0  0  0  0
  6  7  2  0  0  0  0
  6 31  1  0  0  0  0
  7  8  1  0  0  0  0
  7 22  1  0  0  0  0
  8  9  1  0  0  0  0
  8 32  1  0  0  0  0
  9 10  2  0  0  0  0
  9 11  1  0  0  0  0
 11 12  1  0  0  0  0
 11 33  1  0  0  0  0
 12 13  1  0  0  0  0
 12 34  1  0  0  0  0
 12 35  1  0  0  0  0
 13 14  1  0  0  0  0
 13 15  1  0  0  0  0
 13 16  1  0  0  0  0
 14 36  1  0  0  0  0
 14 37  1  0  0  0  0
 14 38  1  0  0  0  0
 15 39  1  0  0  0  0
 15 40  1  0  0  0  0
 15 41  1  0  0  0  0
 16 21  1  0  0  0  0
 16 17  1  0  0  0  0
 17 18  1  0  0  0  0
 17 42  1  0  0  0  0
 17 43  1  0  0  0  0
 18 19  1  0  0  0  0
 18 44  1  0  0  0  0
 18 45  1  0  0  0  0
 19 20  1  0  0  0  0
 20 21  1  0  0  0  0
 20 46  1  0  0  0  0
 20 47  1  0  0  0  0
 21 48  1  0  0  0  0
 21 49  1  0  0  0  0
 22 23  2  0  0  0  0
 22 50  1  0  0  0  0
 23 51  1  0  0  0  0
M  CHG  1  23   1
M  END
> <s_m_source_file>
AV-unprocessed.smi

> <i_m_source_file_index>
1115

> <i_lp_mmshare_version>
43012

> <i_f3d_flags>
0

> <s_epik_input>
W0NIM11OKFtDSDNdKWMxW2NIXVtjSF1jKFtjSF1uMSlbTkhdQyg9TylbTkhdW0NIMl1DKFtDSDNdKShbQ0gzXSlOMltDSDJdW0NIMl1PW0NIMl1bQ0gyXTI=

> <s_epik_cmdline>
J2VwaWtfcHl0aG9uJywgJy1waCcsICc3LjAnLCAnLXRuJywgJzgnLCAnLW1hJywgJzIwMCcsICctbWV0YWxfYmluZGluZycsICctaW1hZScsICc8aW5maWxlLm1hZT4nLCAnLW9tYWUnLCAnPG91dGZpbGUubWFlPic=

> <r_lp_tautomer_probability>
0.999994

> <r_epik_Ionization_Penalty>
0.525804

> <r_epik_Ionization_Penalty_Charging>
0.259793

> <r_epik_Ionization_Penalty_Neutral>
0.266011

> <r_epik_State_Penalty>
0.517093

> <r_epik_Charging_Adjusted_Penalty>
0.776886

> <i_epik_Tot_Q>
1

> <i_epik_Tot_abs_Q>
1

> <r_epik_Metal_State_Penalty>
0.804287

> <b_epik_Metal_Only>
0

> <s_lp_Force_Field>
OPLS_2005

> <r_lp_Energy>
49.9386

> <b_lp_Chiralities_Consistent>
1

> <s_lp_Variant>
AV-unprocessed.smi:1115-1

> <Gold.Version>
5.8.1

> <Gold.Id.Protein>
6NUR|6NUR_protein|mol2

> <Gold.PLP.Fitness>
49.7901

> <Gold.PLP.PLP>
-51.3026

> <Gold.PLP.part.hbond>
0.0000

> <Gold.PLP.part.metal>
0.0000

> <Gold.PLP.part.buried>
-6.1975

> <Gold.PLP.part.nonpolar>
-46.1295

> <Gold.PLP.part.repulsive>
0.1020

> <Gold.PLP.ligand.clash>
0.0000

> <Gold.PLP.ligand.torsion>
0.7918

> <Gold.PLP.Chemscore.Hbond>
0.0000

> <Gold.PLP.Chemscore.CHOScore>
0.0000

> <Gold.PLP.Chemscore.Metal>
0.0000

> <Gold.PLP.Chemscore.Internal.Correction>
0.0711

> <Gold.Rescore>
     Score         DG    S(hbond)    S(metal)    S(lipo)     H(rot)  DE(clash)    DE(int)     intcor
     15.49     -16.12       0.00        0.00     122.51       1.44       0.03       0.60       ----

> <Gold.Chemscore.Fitness>
15.4875

> <Gold.Chemscore.DG>
-16.1156

> <Gold.Chemscore.ZeroCoef>
-5.4800

> <Gold.Chemscore.Hbond>
0.0000

> <Gold.Chemscore.Metal>
0.0000

> <Gold.Chemscore.Lipo>
122.5132

> <Gold.Chemscore.Internal_Hbond>
0.0000

> <Gold.Chemscore.DEClash>
0.0294

> <Gold.Chemscore.DEInternal>
0.5987

> <Gold.Chemscore.Rot>
1.4447

> <Gold.Chemscore.Internal.Correction>
   9.000000E+99

> <Gold.Chemscore.Hbond.Weighted>
-0.0000

> <Gold.Chemscore.Metal.Weighted>
-0.0000

> <Gold.Chemscore.Lipo.Weighted>
-14.3340

> <Gold.Chemscore.Internal_Hbond.Weighted>
0.0000

> <Gold.Chemscore.DEClash.Weighted>
0.0294

> <Gold.Chemscore.DEInternal.Weighted>
0.5987

> <Gold.Chemscore.Rot.Weighted>
3.6985

> <Gold.Chemscore.Internal.Correction.Weighted>
   9.000000E+99

> <Gold.Protein.RotatedTorsions>
[ 6907 6896 6895 6894 ] final   46.97 input  -60.11 | X-H torsion
[ 7974 7965 7964 7962 ] final   27.93 input  175.53 | X-H torsion
[ 8008 7997 7996 7995 ] final   49.23 input   59.86 | X-H torsion
[ 10167 10162 10161 10158 ] final  148.16 input  -65.29 | X-H torsion
[ 10718 10713 10712 10709 ] final  -30.29 input   66.30 | X-H torsion
[ 10763 10752 10751 10750 ] final -169.91 input  -60.55 | X-H torsion
[ 11005 11000 10999 10996 ] final  -63.84 input  -57.11 | X-H torsion

> <Gold.Protein.ActiveResidues>
 VAL166  LYS551  ARG553  GLY616  TRP617  ASP618  TYR619  PRO620  LYS621  CYS622 
 ASP623  PHE694  ASN695  SER759  ASP760  ASP761  ALA762  ILE779  LEU786  VAL792 
 PHE793  MET794  SER795  GLU796  ALA797  LYS798  CYS799  TRP800  GLU811  SER814 

> <Gold.Protein.RotatedAtoms>
  152.2626  134.8018  160.0427 H   0  0  0  0  0  0  0  0  0  0  0  0  # atno 6907 bound_to 6896
  151.8659  133.3461  159.3727 H   0  0  0  0  0  0  0  0  0  0  0  0  # atno 6908 bound_to 6896
  150.7122  134.5088  159.5641 H   0  0  0  0  0  0  0  0  0  0  0  0  # atno 6909 bound_to 6896
  146.1757  139.7125  142.8936 H   0  0  0  0  0  0  0  0  0  0  0  0  # atno 7974 bound_to 7965
  155.3988  140.3437  155.4255 H   0  0  0  0  0  0  0  0  0  0  0  0  # atno 8008 bound_to 7997
  156.1515  140.1572  156.8794 H   0  0  0  0  0  0  0  0  0  0  0  0  # atno 8009 bound_to 7997
  154.5057  140.0803  156.7870 H   0  0  0  0  0  0  0  0  0  0  0  0  # atno 8010 bound_to 7997
  139.4879  144.5700  151.7072 H   0  0  0  0  0  0  0  0  0  0  0  0  # atno 10167 bound_to 10162
  156.4016  130.4391  149.7318 H   0  0  0  0  0  0  0  0  0  0  0  0  # atno 10718 bound_to 10713
  154.6472  135.2906  155.0032 H   0  0  0  0  0  0  0  0  0  0  0  0  # atno 10763 bound_to 10752
  154.1137  135.6558  153.4894 H   0  0  0  0  0  0  0  0  0  0  0  0  # atno 10764 bound_to 10752
  153.0357  135.5271  154.7364 H   0  0  0  0  0  0  0  0  0  0  0  0  # atno 10765 bound_to 10752
  141.1406  133.6657  156.5741 H   0  0  0  0  0  0  0  0  0  0  0  0  # atno 11005 bound_to 11000
  145.4218  141.0407  143.2960 LP  0  0  0  0  0  0  0  0  0  0  0  0  # atno 17320 bound_to 7965
  144.8233  139.5754  143.6977 LP  0  0  0  0  0  0  0  0  0  0  0  0  # atno 17321 bound_to 7965
  140.5286  144.0766  150.6046 LP  0  0  0  0  0  0  0  0  0  0  0  0  # atno 17342 bound_to 10162
  140.3749  143.2834  152.0236 LP  0  0  0  0  0  0  0  0  0  0  0  0  # atno 17343 bound_to 10162
  156.4332  130.7825  151.2845 LP  0  0  0  0  0  0  0  0  0  0  0  0  # atno 17370 bound_to 10713
  157.7504  131.0147  150.3477 LP  0  0  0  0  0  0  0  0  0  0  0  0  # atno 17371 bound_to 10713
  140.3889  134.7457  157.4709 LP  0  0  0  0  0  0  0  0  0  0  0  0  # atno 17394 bound_to 11000
  140.0581  134.6035  155.8781 LP  0  0  0  0  0  0  0  0  0  0  0  0  # atno 17395 bound_to 11000

$$$$
