AV-unprocessed.smi:2424|AV-procd|sdf|9559|dock2
  -GOLD-   2272013193D 1   1.00000     0.00000
 Structure written by MMmdl.
 50 51  0  0  0  0  0  0  0  0  1 V2000
  150.5240  139.5002  154.5209 C   0  0  0  0  0  0  0  0  0  0  0  0
  149.3516  139.3162  153.5438 C   0  0  0  0  0  0  0  0  0  0  0  0
  148.0088  139.9448  154.0014 C   0  0  0  0  0  0  0  0  0  0  0  0
  148.1385  141.4867  153.9324 C   0  0  0  0  0  0  0  0  0  0  0  0
  146.8209  142.2658  154.0816 C   0  0  0  0  0  0  0  0  0  0  0  0
  146.6967  139.3960  153.3671 C   0  0  1  0  0  0  0  0  0  0  0  0
  146.8143  138.0240  152.8697 N   0  0  0  0  0  0  0  0  0  0  0  0
  145.7949  137.2450  152.4870 C   0  0  0  0  0  0  0  0  0  0  0  0
  144.6172  137.5986  152.5316 O   0  0  0  0  0  0  0  0  0  0  0  0
  146.2457  136.0591  152.0411 N   0  0  0  0  0  0  0  0  0  0  0  0
  145.5109  134.9476  151.6090 C   0  0  0  0  0  0  0  0  0  0  0  0
  144.3829  135.1691  150.9124 C   0  0  0  0  0  0  0  0  0  0  0  0
  143.5944  134.1163  150.4421 N   0  0  0  0  0  0  0  0  0  0  0  0
  143.8829  132.8084  150.6289 C   0  0  0  0  0  0  0  0  0  0  0  0
  143.1333  131.9366  150.1927 O   0  0  0  0  0  0  0  0  0  0  0  0
  145.1266  132.5335  151.3669 C   0  0  0  0  0  0  0  0  0  0  0  0
  145.5239  131.0836  151.5793 C   0  0  0  0  0  0  0  0  0  0  0  0
  145.8868  133.5547  151.8259 C   0  0  0  0  0  0  0  0  0  0  0  0
  146.0283  139.4449  154.7518 C   0  0  1  0  0  0  0  0  0  0  0  0
  144.9808  138.4116  155.1632 C   0  0  0  0  0  0  0  0  0  0  0  0
  147.4450  139.4340  155.3560 C   0  0  1  0  0  0  0  0  0  0  0  0
  147.8982  138.1191  155.6610 O   0  0  0  0  0  0  0  0  0  0  0  0
  147.3686  137.6150  156.8750 C   0  0  0  0  0  0  0  0  0  0  0  0
  142.7540  134.3615  149.9392 H   0  0  0  0  0  0  0  0  0  0  0  0
  151.3880  138.9235  154.1909 H   0  0  0  0  0  0  0  0  0  0  0  0
  150.2650  139.1589  155.5232 H   0  0  0  0  0  0  0  0  0  0  0  0
  150.8410  140.5404  154.5873 H   0  0  0  0  0  0  0  0  0  0  0  0
  149.6375  139.6849  152.5594 H   0  0  0  0  0  0  0  0  0  0  0  0
  149.2385  138.2415  153.4033 H   0  0  0  0  0  0  0  0  0  0  0  0
  148.8050  141.8354  154.7212 H   0  0  0  0  0  0  0  0  0  0  0  0
  148.6347  141.7934  153.0123 H   0  0  0  0  0  0  0  0  0  0  0  0
  147.0176  143.3358  154.1485 H   0  0  0  0  0  0  0  0  0  0  0  0
  146.2802  141.9762  154.9824 H   0  0  0  0  0  0  0  0  0  0  0  0
  146.1608  142.1166  153.2278 H   0  0  0  0  0  0  0  0  0  0  0  0
  146.2273  140.0860  152.6644 H   0  0  0  0  0  0  0  0  0  0  0  0
  147.7503  137.6527  152.7961 H   0  0  0  0  0  0  0  0  0  0  0  0
  147.2482  135.9453  152.0064 H   0  0  0  0  0  0  0  0  0  0  0  0
  143.9956  136.1488  150.6724 H   0  0  0  0  0  0  0  0  0  0  0  0
  146.4631  131.0029  152.1273 H   0  0  0  0  0  0  0  0  0  0  0  0
  145.6484  130.5778  150.6211 H   0  0  0  0  0  0  0  0  0  0  0  0
  144.7559  130.5580  152.1477 H   0  0  0  0  0  0  0  0  0  0  0  0
  146.8000  133.3062  152.3424 H   0  0  0  0  0  0  0  0  0  0  0  0
  145.6094  140.4434  154.8854 H   0  0  0  0  0  0  0  0  0  0  0  0
  145.3711  137.3945  155.1263 H   0  0  0  0  0  0  0  0  0  0  0  0
  144.1123  138.4523  154.5058 H   0  0  0  0  0  0  0  0  0  0  0  0
  144.6305  138.5911  156.1796 H   0  0  0  0  0  0  0  0  0  0  0  0
  147.5929  140.1440  156.1721 H   0  0  0  0  0  0  0  0  0  0  0  0
  147.7163  136.5938  157.0280 H   0  0  0  0  0  0  0  0  0  0  0  0
  146.2786  137.6027  156.8652 H   0  0  0  0  0  0  0  0  0  0  0  0
  147.7017  138.2140  157.7232 H   0  0  0  0  0  0  0  0  0  0  0  0
  1  2  1  0  0  0  0
  1 25  1  0  0  0  0
  1 26  1  0  0  0  0
  1 27  1  0  0  0  0
  2  3  1  0  0  0  0
  2 28  1  0  0  0  0
  2 29  1  0  0  0  0
  3 21  1  0  0  0  0
  3  4  1  0  0  0  0
  3  6  1  0  0  0  0
  4  5  1  0  0  0  0
  4 30  1  0  0  0  0
  4 31  1  0  0  0  0
  5 32  1  0  0  0  0
  5 33  1  0  0  0  0
  5 34  1  0  0  0  0
  6  7  1  0  0  0  0
  6 19  1  0  0  0  0
  6 35  1  0  0  0  0
  7  8  1  0  0  0  0
  7 36  1  0  0  0  0
  8  9  2  0  0  0  0
  8 10  1  0  0  0  0
 10 11  1  0  0  0  0
 10 37  1  0  0  0  0
 11 18  1  0  0  0  0
 11 12  2  0  0  0  0
 12 13  1  0  0  0  0
 12 38  1  0  0  0  0
 13 24  1  0  0  0  0
 13 14  1  0  0  0  0
 14 15  2  0  0  0  0
 14 16  1  0  0  0  0
 16 17  1  0  0  0  0
 16 18  2  0  0  0  0
 17 39  1  0  0  0  0
 17 40  1  0  0  0  0
 17 41  1  0  0  0  0
 18 42  1  0  0  0  0
 19 20  1  0  0  0  0
 19 21  1  0  0  0  0
 19 43  1  0  0  0  0
 20 44  1  0  0  0  0
 20 45  1  0  0  0  0
 20 46  1  0  0  0  0
 21 22  1  0  0  0  0
 21 47  1  0  0  0  0
 22 23  1  0  0  0  0
 23 48  1  0  0  0  0
 23 49  1  0  0  0  0
 23 50  1  0  0  0  0
M  END
> <s_m_source_file>
AV-unprocessed.smi

> <i_m_source_file_index>
2424

> <i_lp_mmshare_version>
43012

> <i_f3d_flags>
0

> <s_epik_input>
W0NIM11PW0NAQEhdMVtDQEhdKFtDSDNdKVtDQEBIXShDMShbQ0gyXVtDSDNdKVtDSDJdW0NIM10pW05IXUMoPU8pW05IXWMyW2NIXVtuSF1jKD1PKWMoW0NIM10pW2NIXTI=

> <s_epik_cmdline>
J2VwaWtfcHl0aG9uJywgJy1waCcsICc3LjAnLCAnLXRuJywgJzgnLCAnLW1hJywgJzIwMCcsICctbWV0YWxfYmluZGluZycsICctaW1hZScsICc8aW5maWxlLm1hZT4nLCAnLW9tYWUnLCAnPG91dGZpbGUubWFlPic=

> <r_lp_tautomer_probability>
1

> <r_epik_Ionization_Penalty>
4.7326e-05

> <r_epik_Ionization_Penalty_Charging>
2.70169e-05

> <r_epik_Ionization_Penalty_Neutral>
2.0309e-05

> <r_epik_State_Penalty>
-0

> <r_epik_Charging_Adjusted_Penalty>
2.70169e-05

> <i_epik_Tot_Q>
0

> <i_epik_Tot_abs_Q>
0

> <r_epik_Metal_State_Penalty>
0.0198736

> <b_epik_Metal_Only>
0

> <s_lp_Force_Field>
OPLS_2005

> <r_lp_Energy>
37.8943

> <b_lp_Chiralities_Consistent>
1

> <s_lp_Variant>
AV-unprocessed.smi:2424-1

> <Gold.Version>
5.8.1

> <Gold.Id.Protein>
6NUR|6NUR_protein|mol2

> <Gold.PLP.Fitness>
48.0692

> <Gold.PLP.PLP>
-34.5867

> <Gold.PLP.part.hbond>
-3.9819

> <Gold.PLP.part.metal>
0.0000

> <Gold.PLP.part.buried>
-2.7668

> <Gold.PLP.part.nonpolar>
-31.4953

> <Gold.PLP.part.repulsive>
2.3913

> <Gold.PLP.ligand.clash>
0.0000

> <Gold.PLP.ligand.torsion>
0.7600

> <Gold.PLP.Chemscore.Hbond>
3.7760

> <Gold.PLP.Chemscore.CHOScore>
1.0000

> <Gold.PLP.Chemscore.Metal>
0.0000

> <Gold.Chemscore.Hbonds>
donor molecule, donor type, donor heavy atom, donor atom, acceptor molecule, acceptor atom, score
      L1  H     7    36       P1  7948  0.80
      L1  H    10    37       P1  7948  1.00
      L1  H    13    24       P1 10186  1.00
      P1  H 10785 10796       L1    15  0.31
      L1  C    12    38       P1 10171  0.90

> <Gold.PLP.Chemscore.Internal.Correction>
0.6746

> <Gold.Rescore>
     Score         DG    S(hbond)    S(metal)    S(lipo)     H(rot)  DE(clash)    DE(int)     intcor
     13.77     -21.64       3.40        0.00      75.10       1.55       3.33       4.54       ----

> <Gold.Chemscore.Fitness>
13.7742

> <Gold.Chemscore.DG>
-21.6401

> <Gold.Chemscore.ZeroCoef>
-5.4800

> <Gold.Chemscore.Hbond>
3.3958

> <Gold.Chemscore.Metal>
0.0000

> <Gold.Chemscore.Lipo>
75.0998

> <Gold.Chemscore.Internal_Hbond>
0.0000

> <Gold.Chemscore.DEClash>
3.3260

> <Gold.Chemscore.DEInternal>
4.5400

> <Gold.Chemscore.Rot>
1.5502

> <Gold.Chemscore.Internal.Correction>
   9.000000E+99

> <Gold.Chemscore.Hbonds>
donor molecule, donor type, donor heavy atom, donor atom, acceptor molecule, acceptor atom, score
      L1  H     7    36       P1  7948  0.77
      L1  H    10    37       P1  7948  1.00
      L1  H    13    24       P1 10186  0.94
      P1  H 10785 10796       L1    15  0.31

> <Gold.Chemscore.Hbond.Weighted>
-11.3419

> <Gold.Chemscore.Metal.Weighted>
-0.0000

> <Gold.Chemscore.Lipo.Weighted>
-8.7867

> <Gold.Chemscore.Internal_Hbond.Weighted>
0.0000

> <Gold.Chemscore.DEClash.Weighted>
3.3260

> <Gold.Chemscore.DEInternal.Weighted>
4.5400

> <Gold.Chemscore.Rot.Weighted>
3.9685

> <Gold.Chemscore.Internal.Correction.Weighted>
   9.000000E+99

> <Gold.Protein.RotatedTorsions>
[ 6907 6896 6895 6894 ] final -152.95 input  -60.11 | X-H torsion
[ 7974 7965 7964 7962 ] final -140.08 input  175.53 | X-H torsion
[ 8008 7997 7996 7995 ] final  -68.84 input   59.86 | X-H torsion
[ 10167 10162 10161 10158 ] final    0.36 input  -65.29 | X-H torsion
[ 10718 10713 10712 10709 ] final  167.36 input   66.30 | X-H torsion
[ 10763 10752 10751 10750 ] final  -22.58 input  -60.55 | X-H torsion
[ 11005 11000 10999 10996 ] final  -18.73 input  -57.11 | X-H torsion

> <Gold.Protein.ActiveResidues>
 VAL166  LYS551  ARG553  GLY616  TRP617  ASP618  TYR619  PRO620  LYS621  CYS622 
 ASP623  PHE694  ASN695  SER759  ASP760  ASP761  ALA762  ILE779  LEU786  VAL792 
 PHE793  MET794  SER795  GLU796  ALA797  LYS798  CYS799  TRP800  GLU811  SER814 

> <Gold.Protein.RotatedAtoms>
  151.2353  133.4428  159.2605 H   0  0  0  0  0  0  0  0  0  0  0  0  # atno 6907 bound_to 6896
  151.0756  134.9826  159.8340 H   0  0  0  0  0  0  0  0  0  0  0  0  # atno 6908 bound_to 6896
  152.5418  134.2296  159.8872 H   0  0  0  0  0  0  0  0  0  0  0  0  # atno 6909 bound_to 6896
  144.8626  140.6243  143.5318 H   0  0  0  0  0  0  0  0  0  0  0  0  # atno 7974 bound_to 7965
  154.4896  140.0865  156.7565 H   0  0  0  0  0  0  0  0  0  0  0  0  # atno 8008 bound_to 7997
  155.4263  140.3448  155.4258 H   0  0  0  0  0  0  0  0  0  0  0  0  # atno 8009 bound_to 7997
  156.1311  140.1501  156.9052 H   0  0  0  0  0  0  0  0  0  0  0  0  # atno 8010 bound_to 7997
  140.6732  143.6990  150.7967 H   0  0  0  0  0  0  0  0  0  0  0  0  # atno 10167 bound_to 10162
  157.0527  131.0318  151.2675 H   0  0  0  0  0  0  0  0  0  0  0  0  # atno 10718 bound_to 10713
  153.6541  135.6979  153.5199 H   0  0  0  0  0  0  0  0  0  0  0  0  # atno 10763 bound_to 10752
  153.2683  135.4223  155.0962 H   0  0  0  0  0  0  0  0  0  0  0  0  # atno 10764 bound_to 10752
  154.8469  135.3572  154.6086 H   0  0  0  0  0  0  0  0  0  0  0  0  # atno 10765 bound_to 10752
  140.8297  133.8006  155.9746 H   0  0  0  0  0  0  0  0  0  0  0  0  # atno 11005 bound_to 11000
  145.4283  139.1553  143.4036 LP  0  0  0  0  0  0  0  0  0  0  0  0  # atno 17320 bound_to 7965
  146.2872  140.4398  142.8753 LP  0  0  0  0  0  0  0  0  0  0  0  0  # atno 17321 bound_to 7965
  140.0679  143.5090  152.2595 LP  0  0  0  0  0  0  0  0  0  0  0  0  # atno 17342 bound_to 10162
  139.6010  144.7582  151.3171 LP  0  0  0  0  0  0  0  0  0  0  0  0  # atno 17343 bound_to 10162
  157.5018  130.7884  149.7612 LP  0  0  0  0  0  0  0  0  0  0  0  0  # atno 17370 bound_to 10713
  156.0003  130.3884  150.2633 LP  0  0  0  0  0  0  0  0  0  0  0  0  # atno 17371 bound_to 10713
  140.9011  134.2377  157.5041 LP  0  0  0  0  0  0  0  0  0  0  0  0  # atno 17394 bound_to 11000
  139.8705  134.9707  156.4710 LP  0  0  0  0  0  0  0  0  0  0  0  0  # atno 17395 bound_to 11000

$$$$
