AV-unprocessed.smi:54|AV-procd|sdf|533|dock3
  -GOLD-   2262016413D 1   1.00000     0.00000
 Structure written by MMmdl.
 44 46  0  0  0  0  0  0  0  0  1 V2000
  145.1204  135.1543  161.8974 C   0  0  0  0  0  0  0  0  0  0  0  0
  145.9780  136.3675  162.2921 C   0  0  0  0  0  0  0  0  0  0  0  0
  145.1268  137.6437  162.3941 C   0  0  0  0  0  0  0  0  0  0  0  0
  147.1266  136.5633  161.2965 C   0  0  0  0  0  0  0  0  0  0  0  0
  148.3008  136.6262  161.6593 O   0  0  0  0  0  0  0  0  0  0  0  0
  146.7353  136.6528  159.9029 N   0  0  0  0  0  0  0  0  0  0  0  0
  147.5474  136.8287  158.8357 C   0  0  0  0  0  0  0  0  0  0  0  0
  147.0981  137.0841  157.6145 N   0  0  0  0  0  0  0  0  0  0  0  0
  148.0730  137.2019  156.6612 C   0  0  0  0  0  0  0  0  0  0  0  0
  149.4336  137.0859  156.8646 C   0  0  0  0  0  0  0  0  0  0  0  0
  150.1184  137.2717  155.6697 N   0  0  0  0  0  0  0  0  0  0  0  0
  149.1750  137.4814  154.7958 C   0  0  0  0  0  0  0  0  0  0  0  0
  147.9023  137.4474  155.3120 N   0  0  0  0  0  0  0  0  0  0  0  0
  146.6192  137.6382  154.5718 C   0  0  2  0  0  0  0  0  0  0  0  0
  146.4295  136.5471  153.7309 O   0  0  0  0  0  0  0  0  0  0  0  0
  145.6824  136.9858  152.6061 C   0  0  2  0  0  0  0  0  0  0  0  0
  145.7357  135.9615  151.4593 C   0  0  0  0  0  0  0  0  0  0  0  0
  145.0422  136.4579  150.3343 O   0  0  0  0  0  0  0  0  0  0  0  0
  146.2931  138.3649  152.3089 C   0  0  2  0  0  0  0  0  0  0  0  0
  147.4504  138.2605  151.5015 O   0  0  0  0  0  0  0  0  0  0  0  0
  146.6526  138.9028  153.6944 C   0  0  1  0  0  0  0  0  0  0  0  0
  145.6662  139.8297  154.1036 O   0  0  0  0  0  0  0  0  0  0  0  0
  149.9334  136.8085  158.1801 C   0  0  0  0  0  0  0  0  0  0  0  0
  151.1012  136.6736  158.5389 O   0  0  0  0  0  0  0  0  0  0  0  0
  148.9044  136.6863  159.1209 N   0  0  0  0  0  0  0  0  0  0  0  0
  145.8456  137.6595  155.3411 H   0  0  0  0  0  0  0  0  0  0  0  0
  144.6472  137.1379  152.9195 H   0  0  0  0  0  0  0  0  0  0  0  0
  145.5847  139.0040  151.7797 H   0  0  0  0  0  0  0  0  0  0  0  0
  147.6340  139.3798  153.7166 H   0  0  0  0  0  0  0  0  0  0  0  0
  145.7251  134.2502  161.8160 H   0  0  0  0  0  0  0  0  0  0  0  0
  144.6219  135.3090  160.9394 H   0  0  0  0  0  0  0  0  0  0  0  0
  144.3484  134.9645  162.6436 H   0  0  0  0  0  0  0  0  0  0  0  0
  146.4091  136.1698  163.2746 H   0  0  0  0  0  0  0  0  0  0  0  0
  145.7357  138.5051  162.6710 H   0  0  0  0  0  0  0  0  0  0  0  0
  144.3517  137.5346  163.1531 H   0  0  0  0  0  0  0  0  0  0  0  0
  144.6323  137.8745  161.4495 H   0  0  0  0  0  0  0  0  0  0  0  0
  145.7528  136.5269  159.7101 H   0  0  0  0  0  0  0  0  0  0  0  0
  149.3822  137.6591  153.7506 H   0  0  0  0  0  0  0  0  0  0  0  0
  146.7680  135.7878  151.1545 H   0  0  0  0  0  0  0  0  0  0  0  0
  145.3165  135.0031  151.7621 H   0  0  0  0  0  0  0  0  0  0  0  0
  144.8056  137.3578  150.5000 H   0  0  0  0  0  0  0  0  0  0  0  0
  148.1295  138.8017  151.8737 H   0  0  0  0  0  0  0  0  0  0  0  0
  145.0871  139.9928  153.3750 H   0  0  0  0  0  0  0  0  0  0  0  0
  149.1828  136.4850  160.0698 H   0  0  0  0  0  0  0  0  0  0  0  0
  1  2  1  0  0  0  0
  1 30  1  0  0  0  0
  1 31  1  0  0  0  0
  1 32  1  0  0  0  0
  2  3  1  0  0  0  0
  2  4  1  0  0  0  0
  2 33  1  0  0  0  0
  3 34  1  0  0  0  0
  3 35  1  0  0  0  0
  3 36  1  0  0  0  0
  4  5  2  0  0  0  0
  4  6  1  0  0  0  0
  6 37  1  0  0  0  0
  6  7  1  0  0  0  0
  7 25  1  0  0  0  0
  7  8  2  0  0  0  0
  8  9  1  0  0  0  0
  9 13  1  0  0  0  0
  9 10  2  0  0  0  0
 10 11  1  0  0  0  0
 10 23  1  0  0  0  0
 11 12  2  0  0  0  0
 12 13  1  0  0  0  0
 12 38  1  0  0  0  0
 13 14  1  0  0  0  0
 14 26  1  0  0  0  0
 14 21  1  0  0  0  0
 14 15  1  0  0  0  0
 15 16  1  0  0  0  0
 16 27  1  0  0  0  0
 16 17  1  0  0  0  0
 16 19  1  0  0  0  0
 17 18  1  0  0  0  0
 17 39  1  0  0  0  0
 17 40  1  0  0  0  0
 18 41  1  0  0  0  0
 19 28  1  0  0  0  0
 19 20  1  0  0  0  0
 19 21  1  0  0  0  0
 20 42  1  0  0  0  0
 21 29  1  0  0  0  0
 21 22  1  0  0  0  0
 22 43  1  0  0  0  0
 23 24  2  0  0  0  0
 23 25  1  0  0  0  0
 25 44  1  0  0  0  0
M  END
> <s_m_source_file>
AV-unprocessed.smi

> <i_m_source_file_index>
54

> <i_lp_mmshare_version>
43012

> <i_f3d_flags>
0

> <s_epik_input>
W0NIM11bQ0hdKFtDSDNdKUMoPU8pW05IXWMobjEpW25IXWMoPU8pYyhjMTIpbltjSF1uMltDQEBIXTNPW0NASF0oW0NIMl1bT0hdKVtDQEBIXShbT0hdKVtDQEhdM1tPSF0=

> <s_epik_cmdline>
J2VwaWtfcHl0aG9uJywgJy1waCcsICc3LjAnLCAnLXRuJywgJzgnLCAnLW1hJywgJzIwMCcsICctbWV0YWxfYmluZGluZycsICctaW1hZScsICc8aW5maWxlLm1hZT4nLCAnLW9tYWUnLCAnPG91dGZpbGUubWFlPic=

> <r_lp_tautomer_probability>
0.85571

> <r_epik_Ionization_Penalty>
0.0316551

> <r_epik_Ionization_Penalty_Charging>
0.0316043

> <r_epik_Ionization_Penalty_Neutral>
5.07097e-05

> <r_epik_State_Penalty>
3.15494e-07

> <r_epik_Charging_Adjusted_Penalty>
0.0316047

> <i_epik_Tot_Q>
0

> <i_epik_Tot_abs_Q>
0

> <r_epik_Metal_State_Penalty>
0.421206

> <b_epik_Metal_Only>
0

> <s_epik_Chemistry_Notes>
This compound contains an acetal/aminal-like group ( X-CH(R)-Y where X, Y are N, S, or O) that may be acid/base labile, releasing an aldehyde.

> <s_lp_Force_Field>
OPLS_2005

> <r_lp_Energy>
38.1022

> <b_lp_Chiralities_Consistent>
1

> <s_lp_Variant>
AV-unprocessed.smi:54-5

> <Gold.Version>
5.8.1

> <Gold.Id.Protein>
6NUR|6NUR_protein|mol2

> <Gold.PLP.Fitness>
45.4630

> <Gold.PLP.PLP>
-27.2063

> <Gold.PLP.part.hbond>
-6.7425

> <Gold.PLP.part.metal>
0.0000

> <Gold.PLP.part.buried>
-6.3612

> <Gold.PLP.part.nonpolar>
-16.5739

> <Gold.PLP.part.repulsive>
0.4611

> <Gold.PLP.ligand.clash>
0.0000

> <Gold.PLP.ligand.torsion>
0.3185

> <Gold.PLP.Chemscore.Hbond>
5.2857

> <Gold.PLP.Chemscore.CHOScore>
1.0000

> <Gold.PLP.Chemscore.Metal>
0.0000

> <Gold.Chemscore.Hbonds>
donor molecule, donor type, donor heavy atom, donor atom, acceptor molecule, acceptor atom, score
      L1  H    18    41       P1 10171  0.77
      L1  H    20    42       P1  7957  0.70
      L1  H    22    43       P1 10175  1.00
      P1  H  6896  6908       L1    24  0.80
      P1  H  6931  6943       L1     5  1.00
      P1  H  7954  7966       L1    20  1.00
      L1  C    12    38       P1  7948  1.00

> <Gold.PLP.Chemscore.Internal.Correction>
0.0368

> <Gold.Rescore>
     Score         DG    S(hbond)    S(metal)    S(lipo)     H(rot)  DE(clash)    DE(int)     intcor
     15.32     -15.73       4.75        0.00      40.71       4.05       0.03       0.37       ----

> <Gold.Chemscore.Fitness>
15.3193

> <Gold.Chemscore.DG>
-15.7261

> <Gold.Chemscore.ZeroCoef>
-5.4800

> <Gold.Chemscore.Hbond>
4.7453

> <Gold.Chemscore.Metal>
0.0000

> <Gold.Chemscore.Lipo>
40.7096

> <Gold.Chemscore.Internal_Hbond>
0.0000

> <Gold.Chemscore.DEClash>
0.0335

> <Gold.Chemscore.DEInternal>
0.3733

> <Gold.Chemscore.Rot>
4.0493

> <Gold.Chemscore.Internal.Correction>
   9.000000E+99

> <Gold.Chemscore.Hbonds>
donor molecule, donor type, donor heavy atom, donor atom, acceptor molecule, acceptor atom, score
      L1  H    18    41       P1 10171  0.78
      L1  H    20    42       P1  7957  0.58
      L1  H    22    43       P1 10175  1.00
      P1  H  6896  6908       L1    24  0.45
      P1  H  6931  6943       L1     5  0.97
      P1  H  7954  7966       L1    20  0.25

> <Gold.Chemscore.Hbond.Weighted>
-15.8493

> <Gold.Chemscore.Metal.Weighted>
-0.0000

> <Gold.Chemscore.Lipo.Weighted>
-4.7630

> <Gold.Chemscore.Internal_Hbond.Weighted>
0.0000

> <Gold.Chemscore.DEClash.Weighted>
0.0335

> <Gold.Chemscore.DEInternal.Weighted>
0.3733

> <Gold.Chemscore.Rot.Weighted>
10.3662

> <Gold.Chemscore.Internal.Correction.Weighted>
   9.000000E+99

> <Gold.Protein.RotatedTorsions>
[ 6907 6896 6895 6894 ] final -146.77 input  -60.11 | X-H torsion
[ 7974 7965 7964 7962 ] final   -9.59 input  175.53 | X-H torsion
[ 8008 7997 7996 7995 ] final  -41.41 input   59.86 | X-H torsion
[ 10167 10162 10161 10158 ] final  152.99 input  -65.29 | X-H torsion
[ 10718 10713 10712 10709 ] final   -6.91 input   66.30 | X-H torsion
[ 10763 10752 10751 10750 ] final  143.48 input  -60.55 | X-H torsion
[ 11005 11000 10999 10996 ] final -166.69 input  -57.11 | X-H torsion

> <Gold.Protein.ActiveResidues>
 VAL166  LYS551  ARG553  GLY616  TRP617  ASP618  TYR619  PRO620  LYS621  CYS622 
 ASP623  PHE694  ASN695  SER759  ASP760  ASP761  ALA762  ILE779  LEU786  VAL792 
 PHE793  MET794  SER795  GLU796  ALA797  LYS798  CYS799  TRP800  GLU811  SER814 

> <Gold.Protein.RotatedAtoms>
  151.1463  133.4937  159.2595 H   0  0  0  0  0  0  0  0  0  0  0  0  # atno 6907 bound_to 6896
  151.1601  135.0269  159.8716 H   0  0  0  0  0  0  0  0  0  0  0  0  # atno 6908 bound_to 6896
  152.5463  134.1338  159.8503 H   0  0  0  0  0  0  0  0  0  0  0  0  # atno 6909 bound_to 6896
  146.2247  140.2639  142.8353 H   0  0  0  0  0  0  0  0  0  0  0  0  # atno 7974 bound_to 7965
  154.4004  140.1500  156.3187 H   0  0  0  0  0  0  0  0  0  0  0  0  # atno 8008 bound_to 7997
  155.8549  140.3456  155.5696 H   0  0  0  0  0  0  0  0  0  0  0  0  # atno 8009 bound_to 7997
  155.7943  140.0861  157.1982 H   0  0  0  0  0  0  0  0  0  0  0  0  # atno 8010 bound_to 7997
  139.4829  144.5311  151.7721 H   0  0  0  0  0  0  0  0  0  0  0  0  # atno 10167 bound_to 10162
  156.7249  130.5162  149.5859 H   0  0  0  0  0  0  0  0  0  0  0  0  # atno 10718 bound_to 10713
  153.9730  135.2949  155.3426 H   0  0  0  0  0  0  0  0  0  0  0  0  # atno 10763 bound_to 10752
  154.7311  135.5067  153.8969 H   0  0  0  0  0  0  0  0  0  0  0  0  # atno 10764 bound_to 10752
  153.0891  135.6702  154.0003 H   0  0  0  0  0  0  0  0  0  0  0  0  # atno 10765 bound_to 10752
  140.5617  134.5327  157.5144 H   0  0  0  0  0  0  0  0  0  0  0  0  # atno 11005 bound_to 11000
  144.9318  140.7984  143.5684 LP  0  0  0  0  0  0  0  0  0  0  0  0  # atno 17320 bound_to 7965
  145.2583  139.2002  143.4905 LP  0  0  0  0  0  0  0  0  0  0  0  0  # atno 17321 bound_to 7965
  140.4837  144.1412  150.5937 LP  0  0  0  0  0  0  0  0  0  0  0  0  # atno 17342 bound_to 10162
  140.4249  143.2594  151.9669 LP  0  0  0  0  0  0  0  0  0  0  0  0  # atno 17343 bound_to 10162
  156.1569  130.6348  151.0668 LP  0  0  0  0  0  0  0  0  0  0  0  0  # atno 17370 bound_to 10713
  157.6883  131.0818  150.7181 LP  0  0  0  0  0  0  0  0  0  0  0  0  # atno 17371 bound_to 10713
  139.9405  134.7796  156.0692 LP  0  0  0  0  0  0  0  0  0  0  0  0  # atno 17394 bound_to 11000
  141.1111  133.6643  156.2980 LP  0  0  0  0  0  0  0  0  0  0  0  0  # atno 17395 bound_to 11000

$$$$
