AV-unprocessed.smi:1168|AV-procd|sdf|4939|dock4
  -GOLD-   22720 3523D 1   1.00000     0.00000
 Structure written by MMmdl.
 32 33  0  0  0  0  0  0  0  0  1 V2000
  149.4419  143.0207  159.5890 O   0  0  0  0  0  0  0  0  0  0  0  0
  149.7184  142.4815  158.5176 C   0  0  0  0  0  0  0  0  0  0  0  0
  148.6398  141.7273  157.7372 C   0  0  0  0  0  0  0  0  0  0  0  0
  149.1490  141.2511  156.4630 N   0  0  0  0  0  0  0  0  0  0  0  0
  148.8135  141.6703  155.1931 C   0  0  0  0  0  0  0  0  0  0  0  0
  149.5540  140.9344  154.3135 C   0  0  0  0  0  0  0  0  0  0  0  0
  150.3315  140.0782  155.1463 C   0  0  0  0  0  0  0  0  0  0  0  0
  151.3421  139.0400  154.7352 C   0  0  0  0  0  0  0  0  0  0  0  0
  152.5588  139.3879  155.1544 F   0  0  0  0  0  0  0  0  0  0  0  0
  151.0252  137.8610  155.2705 F   0  0  0  0  0  0  0  0  0  0  0  0
  151.3630  138.9237  153.4075 F   0  0  0  0  0  0  0  0  0  0  0  0
  150.0848  140.2783  156.4341 N   0  0  0  0  0  0  0  0  0  0  0  0
  150.9423  142.5142  157.9677 N   0  0  0  0  0  0  0  0  0  0  0  0
  152.1032  143.1914  158.5391 C   0  0  0  0  0  0  0  0  0  0  0  0
  152.4632  142.5928  159.9130 C   0  0  0  0  0  0  0  0  0  0  0  0
  152.6137  143.7782  160.8688 C   0  0  0  0  0  0  0  0  0  0  0  0
  151.6850  144.8453  160.2985 C   0  0  0  0  0  0  0  0  0  0  0  0
  151.8231  144.6877  158.7845 C   0  0  0  0  0  0  0  0  0  0  0  0
  148.2750  140.8716  158.3072 H   0  0  0  0  0  0  0  0  0  0  0  0
  147.7872  142.3872  157.5691 H   0  0  0  0  0  0  0  0  0  0  0  0
  148.0818  142.4463  155.0235 H   0  0  0  0  0  0  0  0  0  0  0  0
  149.5432  140.9980  153.2356 H   0  0  0  0  0  0  0  0  0  0  0  0
  151.0797  142.0407  157.0866 H   0  0  0  0  0  0  0  0  0  0  0  0
  152.9539  143.0861  157.8629 H   0  0  0  0  0  0  0  0  0  0  0  0
  151.6621  141.9454  160.2740 H   0  0  0  0  0  0  0  0  0  0  0  0
  153.3694  141.9879  159.8726 H   0  0  0  0  0  0  0  0  0  0  0  0
  152.3734  143.5193  161.9002 H   0  0  0  0  0  0  0  0  0  0  0  0
  153.6426  144.1398  160.8467 H   0  0  0  0  0  0  0  0  0  0  0  0
  150.6572  144.6359  160.5978 H   0  0  0  0  0  0  0  0  0  0  0  0
  151.9356  145.8494  160.6414 H   0  0  0  0  0  0  0  0  0  0  0  0
  152.6777  145.2717  158.4402 H   0  0  0  0  0  0  0  0  0  0  0  0
  150.9474  145.0623  158.2529 H   0  0  0  0  0  0  0  0  0  0  0  0
  1  2  2  0  0  0  0
  2  3  1  0  0  0  0
  2 13  1  0  0  0  0
  3  4  1  0  0  0  0
  3 19  1  0  0  0  0
  3 20  1  0  0  0  0
  4 12  1  0  0  0  0
  4  5  1  0  0  0  0
  5  6  2  0  0  0  0
  5 21  1  0  0  0  0
  6  7  1  0  0  0  0
  6 22  1  0  0  0  0
  7  8  1  0  0  0  0
  7 12  2  0  0  0  0
  8  9  1  0  0  0  0
  8 10  1  0  0  0  0
  8 11  1  0  0  0  0
 13 14  1  0  0  0  0
 13 23  1  0  0  0  0
 14 18  1  0  0  0  0
 14 15  1  0  0  0  0
 14 24  1  0  0  0  0
 15 16  1  0  0  0  0
 15 25  1  0  0  0  0
 15 26  1  0  0  0  0
 16 17  1  0  0  0  0
 16 27  1  0  0  0  0
 16 28  1  0  0  0  0
 17 18  1  0  0  0  0
 17 29  1  0  0  0  0
 17 30  1  0  0  0  0
 18 31  1  0  0  0  0
 18 32  1  0  0  0  0
M  END
> <s_m_source_file>
AV-unprocessed.smi

> <i_m_source_file_index>
1168

> <i_lp_mmshare_version>
43012

> <i_f3d_flags>
0

> <s_epik_input>
W0NIMl0xW0NIMl1bQ0gyXVtDSDJdW0NIXTFbTkhdQyg9TylbQ0gyXW4yW2NIXVtjSF1jKG4yKUMoRikoRilG

> <s_epik_cmdline>
J2VwaWtfcHl0aG9uJywgJy1waCcsICc3LjAnLCAnLXRuJywgJzgnLCAnLW1hJywgJzIwMCcsICctbWV0YWxfYmluZGluZycsICctaW1hZScsICc8aW5maWxlLm1hZT4nLCAnLW9tYWUnLCAnPG91dGZpbGUubWFlPic=

> <r_lp_tautomer_probability>
1

> <r_epik_Ionization_Penalty>
8.05939e-08

> <r_epik_Ionization_Penalty_Charging>
0

> <r_epik_Ionization_Penalty_Neutral>
8.05939e-08

> <r_epik_State_Penalty>
-0

> <r_epik_Charging_Adjusted_Penalty>
0

> <i_epik_Tot_Q>
0

> <i_epik_Tot_abs_Q>
0

> <r_epik_Metal_State_Penalty>
-0

> <b_epik_Metal_Only>
0

> <s_lp_Force_Field>
OPLS_2005

> <r_lp_Energy>
20.3297

> <b_lp_Chiralities_Consistent>
1

> <s_lp_Variant>
AV-unprocessed.smi:1168-1

> <Gold.Version>
5.8.1

> <Gold.Id.Protein>
6NUR|6NUR_protein|mol2

> <Gold.PLP.Fitness>
39.4698

> <Gold.PLP.PLP>
-37.5513

> <Gold.PLP.part.hbond>
-1.0000

> <Gold.PLP.part.metal>
0.0000

> <Gold.PLP.part.buried>
-4.5855

> <Gold.PLP.part.nonpolar>
-32.1927

> <Gold.PLP.part.repulsive>
0.1786

> <Gold.PLP.ligand.clash>
0.0000

> <Gold.PLP.ligand.torsion>
0.1642

> <Gold.PLP.Chemscore.Hbond>
0.0198

> <Gold.PLP.Chemscore.CHOScore>
0.7250

> <Gold.PLP.Chemscore.Metal>
0.0000

> <Gold.Chemscore.Hbonds>
donor molecule, donor type, donor heavy atom, donor atom, acceptor molecule, acceptor atom, score
      P1  H  6933  6944       L1     1  0.09
      L1  C     5    21       P1  8028  0.69

> <Gold.PLP.Chemscore.Internal.Correction>
0.0125

> <Gold.Rescore>
     Score         DG    S(hbond)    S(metal)    S(lipo)     H(rot)  DE(clash)    DE(int)     intcor
      9.99     -12.52       0.30        0.00      85.98       1.57       0.12       2.41       ----

> <Gold.Chemscore.Fitness>
9.9859

> <Gold.Chemscore.DG>
-12.5153

> <Gold.Chemscore.ZeroCoef>
-5.4800

> <Gold.Chemscore.Hbond>
0.3015

> <Gold.Chemscore.Metal>
0.0000

> <Gold.Chemscore.Lipo>
85.9821

> <Gold.Chemscore.Internal_Hbond>
0.0000

> <Gold.Chemscore.DEClash>
0.1184

> <Gold.Chemscore.DEInternal>
2.4111

> <Gold.Chemscore.Rot>
1.5748

> <Gold.Chemscore.Internal.Correction>
   9.000000E+99

> <Gold.Chemscore.Hbonds>
donor molecule, donor type, donor heavy atom, donor atom, acceptor molecule, acceptor atom, score
      P1  H  6933  6944       L1     1  0.10

> <Gold.Chemscore.Hbond.Weighted>
-1.0069

> <Gold.Chemscore.Metal.Weighted>
-0.0000

> <Gold.Chemscore.Lipo.Weighted>
-10.0599

> <Gold.Chemscore.Internal_Hbond.Weighted>
0.0000

> <Gold.Chemscore.DEClash.Weighted>
0.1184

> <Gold.Chemscore.DEInternal.Weighted>
2.4111

> <Gold.Chemscore.Rot.Weighted>
4.0315

> <Gold.Chemscore.Internal.Correction.Weighted>
   9.000000E+99

> <Gold.Protein.RotatedTorsions>
[ 6907 6896 6895 6894 ] final  161.36 input  -60.11 | X-H torsion
[ 7974 7965 7964 7962 ] final   11.99 input  175.53 | X-H torsion
[ 8008 7997 7996 7995 ] final  171.94 input   59.86 | X-H torsion
[ 10167 10162 10161 10158 ] final -178.50 input  -65.29 | X-H torsion
[ 10718 10713 10712 10709 ] final -133.41 input   66.30 | X-H torsion
[ 10763 10752 10751 10750 ] final -177.79 input  -60.55 | X-H torsion
[ 11005 11000 10999 10996 ] final   40.46 input  -57.11 | X-H torsion

> <Gold.Protein.ActiveResidues>
 VAL166  LYS551  ARG553  GLY616  TRP617  ASP618  TYR619  PRO620  LYS621  CYS622 
 ASP623  PHE694  ASN695  SER759  ASP760  ASP761  ALA762  ILE779  LEU786  VAL792 
 PHE793  MET794  SER795  GLU796  ALA797  LYS798  CYS799  TRP800  GLU811  SER814 

> <Gold.Protein.RotatedAtoms>
  151.9567  133.3682  159.4019 H   0  0  0  0  0  0  0  0  0  0  0  0  # atno 6907 bound_to 6896
  150.6971  134.4283  159.5246 H   0  0  0  0  0  0  0  0  0  0  0  0  # atno 6908 bound_to 6896
  152.1966  134.8625  160.0563 H   0  0  0  0  0  0  0  0  0  0  0  0  # atno 6909 bound_to 6896
  146.2360  139.9403  142.8484 H   0  0  0  0  0  0  0  0  0  0  0  0  # atno 7974 bound_to 7965
  156.1223  140.1499  156.9186 H   0  0  0  0  0  0  0  0  0  0  0  0  # atno 8008 bound_to 7997
  154.4845  140.0869  156.7496 H   0  0  0  0  0  0  0  0  0  0  0  0  # atno 8009 bound_to 7997
  155.4406  140.3431  155.4292 H   0  0  0  0  0  0  0  0  0  0  0  0  # atno 8010 bound_to 7997
  139.5429  144.2313  152.0932 H   0  0  0  0  0  0  0  0  0  0  0  0  # atno 10167 bound_to 10162
  156.2447  130.7117  151.0992 H   0  0  0  0  0  0  0  0  0  0  0  0  # atno 10718 bound_to 10713
  154.5557  135.2816  155.0966 H   0  0  0  0  0  0  0  0  0  0  0  0  # atno 10763 bound_to 10752
  154.2394  135.6359  153.5206 H   0  0  0  0  0  0  0  0  0  0  0  0  # atno 10764 bound_to 10752
  153.0015  135.5556  154.6137 H   0  0  0  0  0  0  0  0  0  0  0  0  # atno 10765 bound_to 10752
  140.1929  134.3965  155.8137 H   0  0  0  0  0  0  0  0  0  0  0  0  # atno 11005 bound_to 11000
  145.1959  140.9832  143.4184 LP  0  0  0  0  0  0  0  0  0  0  0  0  # atno 17320 bound_to 7965
  144.9816  139.3777  143.6259 LP  0  0  0  0  0  0  0  0  0  0  0  0  # atno 17321 bound_to 7965
  140.1794  144.4859  150.6536 LP  0  0  0  0  0  0  0  0  0  0  0  0  # atno 17342 bound_to 10162
  140.6667  143.2270  151.5726 LP  0  0  0  0  0  0  0  0  0  0  0  0  # atno 17343 bound_to 10162
  157.7190  131.0693  150.6213 LP  0  0  0  0  0  0  0  0  0  0  0  0  # atno 17370 bound_to 10713
  156.6289  130.4426  149.5794 LP  0  0  0  0  0  0  0  0  0  0  0  0  # atno 17371 bound_to 10713
  141.2226  133.7055  156.8125 LP  0  0  0  0  0  0  0  0  0  0  0  0  # atno 17394 bound_to 11000
  140.2140  134.8806  157.3305 LP  0  0  0  0  0  0  0  0  0  0  0  0  # atno 17395 bound_to 11000

$$$$
