AV-unprocessed.smi:994|AV-procd|sdf|4339|dock3
  -GOLD-   22720 2233D 1   1.00000     0.00000
 Structure written by MMmdl.
 38 39  0  0  0  0  0  0  0  0  3 V2000
  151.4023  139.0150  157.7906 O   0  0  0  0  0  0  0  0  0  0  0  0
  151.3198  140.1454  157.3082 C   0  0  0  0  0  0  0  0  0  0  0  0
  151.1759  140.3793  155.9937 N   0  0  0  0  0  0  0  0  0  0  0  0
  151.0884  139.3698  154.9384 C   0  0  2  0  0  0  0  0  0  0  0  0
  149.8786  138.4324  155.1432 C   0  0  0  0  0  0  0  0  0  0  0  0
  148.5914  138.9054  154.5143 C   0  0  0  0  0  0  0  0  0  0  0  0
  147.8994  140.0938  154.6568 C   0  0  0  0  0  0  0  0  0  0  0  0
  146.7529  140.0006  153.8848 N   0  0  0  0  0  0  0  0  0  0  0  0
  146.7703  138.7978  153.3133 C   0  0  0  0  0  0  0  0  0  0  0  0
  147.8563  138.1059  153.6517 N   0  3  0  0  0  0  0  0  0  0  0  0
  152.4166  138.6165  154.8335 C   0  0  0  0  0  0  0  0  0  0  0  0
  153.4400  139.2954  154.5952 O   0  0  0  0  0  0  0  0  0  0  0  0
  152.3883  137.3774  154.9984 O   0  5  0  0  0  0  0  0  0  0  0  0
  151.4041  141.3796  158.2146 C   0  0  0  0  0  0  0  0  0  0  0  0
  150.7047  142.5895  157.5589 C   0  0  0  0  0  0  0  0  0  0  0  0
  150.7896  143.8364  158.4543 C   0  0  0  0  0  0  0  0  0  0  0  0
  152.2482  144.1730  158.8034 C   0  0  0  0  0  0  0  0  0  0  0  0
  152.9585  142.9712  159.4468 C   0  0  0  0  0  0  0  0  0  0  0  0
  152.8705  141.7253  158.5500 C   0  0  0  0  0  0  0  0  0  0  0  0
  146.0329  140.7027  153.7897 H   0  0  0  0  0  0  0  0  0  0  0  0
  151.1030  141.3404  155.6910 H   0  0  0  0  0  0  0  0  0  0  0  0
  150.9502  139.8800  153.9826 H   0  0  0  0  0  0  0  0  0  0  0  0
  150.1077  137.4582  154.7093 H   0  0  0  0  0  0  0  0  0  0  0  0
  149.7088  138.2543  156.2062 H   0  0  0  0  0  0  0  0  0  0  0  0
  148.1090  140.9789  155.2394 H   0  0  0  0  0  0  0  0  0  0  0  0
  145.9962  138.4275  152.6571 H   0  0  0  0  0  0  0  0  0  0  0  0
  150.8874  141.1539  159.1496 H   0  0  0  0  0  0  0  0  0  0  0  0
  151.1616  142.8105  156.5928 H   0  0  0  0  0  0  0  0  0  0  0  0
  149.6582  142.3559  157.3583 H   0  0  0  0  0  0  0  0  0  0  0  0
  150.3222  144.6852  157.9545 H   0  0  0  0  0  0  0  0  0  0  0  0
  150.2236  143.6673  159.3713 H   0  0  0  0  0  0  0  0  0  0  0  0
  152.7807  144.4702  157.8992 H   0  0  0  0  0  0  0  0  0  0  0  0
  152.2809  145.0297  159.4771 H   0  0  0  0  0  0  0  0  0  0  0  0
  154.0033  143.2168  159.6398 H   0  0  0  0  0  0  0  0  0  0  0  0
  152.5078  142.7558  160.4164 H   0  0  0  0  0  0  0  0  0  0  0  0
  153.3496  140.8824  159.0498 H   0  0  0  0  0  0  0  0  0  0  0  0
  153.4370  141.9026  157.6342 H   0  0  0  0  0  0  0  0  0  0  0  0
  148.0911  137.1688  153.3562 H   0  0  0  0  0  0  0  0  0  0  0  0
  1  2  2  0  0  0  0
  2  3  1  0  0  0  0
  2 14  1  0  0  0  0
  3  4  1  0  0  0  0
  3 21  1  0  0  0  0
  4  5  1  0  0  0  0
  4 11  1  0  0  0  0
  4 22  1  0  0  0  0
  5  6  1  0  0  0  0
  5 23  1  0  0  0  0
  5 24  1  0  0  0  0
  6 10  1  0  0  0  0
  6  7  2  0  0  0  0
  7  8  1  0  0  0  0
  7 25  1  0  0  0  0
  8 20  1  0  0  0  0
  8  9  1  0  0  0  0
  9 10  2  0  0  0  0
  9 26  1  0  0  0  0
 10 38  1  0  0  0  0
 11 12  2  0  0  0  0
 11 13  1  0  0  0  0
 14 19  1  0  0  0  0
 14 15  1  0  0  0  0
 14 27  1  0  0  0  0
 15 16  1  0  0  0  0
 15 28  1  0  0  0  0
 15 29  1  0  0  0  0
 16 17  1  0  0  0  0
 16 30  1  0  0  0  0
 16 31  1  0  0  0  0
 17 18  1  0  0  0  0
 17 32  1  0  0  0  0
 17 33  1  0  0  0  0
 18 19  1  0  0  0  0
 18 34  1  0  0  0  0
 18 35  1  0  0  0  0
 19 36  1  0  0  0  0
 19 37  1  0  0  0  0
M  CHG  1  10   1
M  CHG  1  13  -1
M  END
> <s_m_source_file>
AV-unprocessed.smi

> <i_m_source_file_index>
994

> <i_lp_mmshare_version>
43012

> <i_f3d_flags>
0

> <s_epik_input>
W0NIMl0xW0NIMl1bQ0gyXVtDSDJdW0NIMl1bQ0hdMUMoPU8pW05IXVtDQEBIXShDKD1PKVtPSF0pW0NIMl1jMltjSF1bbkhdW2NIXW4y

> <s_epik_cmdline>
J2VwaWtfcHl0aG9uJywgJy1waCcsICc3LjAnLCAnLXRuJywgJzgnLCAnLW1hJywgJzIwMCcsICctbWV0YWxfYmluZGluZycsICctaW1hZScsICc8aW5maWxlLm1hZT4nLCAnLW9tYWUnLCAnPG91dGZpbGUubWFlPic=

> <r_lp_tautomer_probability>
1

> <r_epik_Ionization_Penalty>
0.469853

> <r_epik_Ionization_Penalty_Charging>
5.5863e-05

> <r_epik_Ionization_Penalty_Neutral>
0.469797

> <r_epik_State_Penalty>
0.377582

> <r_epik_Charging_Adjusted_Penalty>
0.377638

> <i_epik_Tot_Q>
0

> <i_epik_Tot_abs_Q>
2

> <r_epik_Metal_State_Penalty>
0.796804

> <b_epik_Metal_Only>
0

> <s_lp_Force_Field>
OPLS_2005

> <r_lp_Energy>
7.64934

> <b_lp_Chiralities_Consistent>
1

> <s_lp_Variant>
AV-unprocessed.smi:994-1

> <Gold.Version>
5.8.1

> <Gold.Id.Protein>
6NUR|6NUR_protein|mol2

> <Gold.PLP.Fitness>
54.7731

> <Gold.PLP.PLP>
-39.4145

> <Gold.PLP.part.hbond>
-4.4971

> <Gold.PLP.part.metal>
0.0000

> <Gold.PLP.part.buried>
-3.0145

> <Gold.PLP.part.nonpolar>
-32.5331

> <Gold.PLP.part.repulsive>
0.3147

> <Gold.PLP.ligand.clash>
0.0384

> <Gold.PLP.ligand.torsion>
1.1048

> <Gold.PLP.Chemscore.Hbond>
5.8240

> <Gold.PLP.Chemscore.CHOScore>
0.0000

> <Gold.PLP.Chemscore.Metal>
0.0000

> <Gold.Chemscore.Hbonds>
donor molecule, donor type, donor heavy atom, donor atom, acceptor molecule, acceptor atom, score
      L1  H    10    38       P1  7948  1.60
      P1  H  7997  8010       L1    12  2.00
      P1  H 10752 10764       L1    13  1.31

> <Gold.PLP.Chemscore.Internal.Correction>
0.1346

> <Gold.Rescore>
     Score         DG    S(hbond)    S(metal)    S(lipo)     H(rot)  DE(clash)    DE(int)     intcor
     15.59     -17.22       2.78        0.00      80.38       2.72       0.35       1.28       ----

> <Gold.Chemscore.Fitness>
15.5885

> <Gold.Chemscore.DG>
-17.2186

> <Gold.Chemscore.ZeroCoef>
-5.4800

> <Gold.Chemscore.Hbond>
2.7841

> <Gold.Chemscore.Metal>
0.0000

> <Gold.Chemscore.Lipo>
80.3843

> <Gold.Chemscore.Internal_Hbond>
0.0000

> <Gold.Chemscore.DEClash>
0.3538

> <Gold.Chemscore.DEInternal>
1.2763

> <Gold.Chemscore.Rot>
2.7208

> <Gold.Chemscore.Internal.Correction>
   9.000000E+99

> <Gold.Chemscore.Hbonds>
donor molecule, donor type, donor heavy atom, donor atom, acceptor molecule, acceptor atom, score
      L1  H    10    38       P1  7948  0.78
      P1  H  7997  8010       L1    12  1.00
      P1  H 10752 10764       L1    13  0.66

> <Gold.Chemscore.Hbond.Weighted>
-9.2988

> <Gold.Chemscore.Metal.Weighted>
-0.0000

> <Gold.Chemscore.Lipo.Weighted>
-9.4050

> <Gold.Chemscore.Internal_Hbond.Weighted>
0.0000

> <Gold.Chemscore.DEClash.Weighted>
0.3538

> <Gold.Chemscore.DEInternal.Weighted>
1.2763

> <Gold.Chemscore.Rot.Weighted>
6.9652

> <Gold.Chemscore.Internal.Correction.Weighted>
   9.000000E+99

> <Gold.Protein.RotatedTorsions>
[ 6907 6896 6895 6894 ] final  137.26 input  -60.11 | X-H torsion
[ 7974 7965 7964 7962 ] final  107.61 input  175.53 | X-H torsion
[ 8008 7997 7996 7995 ] final  110.56 input   59.86 | X-H torsion
[ 10167 10162 10161 10158 ] final  -69.54 input  -65.29 | X-H torsion
[ 10718 10713 10712 10709 ] final -123.44 input   66.30 | X-H torsion
[ 10763 10752 10751 10750 ] final  -58.66 input  -60.55 | X-H torsion
[ 11005 11000 10999 10996 ] final -142.53 input  -57.11 | X-H torsion

> <Gold.Protein.ActiveResidues>
 VAL166  LYS551  ARG553  GLY616  TRP617  ASP618  TYR619  PRO620  LYS621  CYS622 
 ASP623  PHE694  ASN695  SER759  ASP760  ASP761  ALA762  ILE779  LEU786  VAL792 
 PHE793  MET794  SER795  GLU796  ALA797  LYS798  CYS799  TRP800  GLU811  SER814 

> <Gold.Protein.RotatedAtoms>
  152.2801  133.5462  159.5491 H   0  0  0  0  0  0  0  0  0  0  0  0  # atno 6907 bound_to 6896
  150.7192  134.0576  159.3829 H   0  0  0  0  0  0  0  0  0  0  0  0  # atno 6908 bound_to 6896
  151.8487  135.0565  160.0507 H   0  0  0  0  0  0  0  0  0  0  0  0  # atno 6909 bound_to 6896
  145.2914  139.2599  143.3863 H   0  0  0  0  0  0  0  0  0  0  0  0  # atno 7974 bound_to 7965
  156.2061  140.3036  155.9631 H   0  0  0  0  0  0  0  0  0  0  0  0  # atno 8008 bound_to 7997
  155.2837  140.0439  157.3034 H   0  0  0  0  0  0  0  0  0  0  0  0  # atno 8009 bound_to 7997
  154.5636  140.2327  155.8307 H   0  0  0  0  0  0  0  0  0  0  0  0  # atno 8010 bound_to 7997
  140.5422  143.2314  151.7067 H   0  0  0  0  0  0  0  0  0  0  0  0  # atno 10167 bound_to 10162
  156.1502  130.6529  150.9902 H   0  0  0  0  0  0  0  0  0  0  0  0  # atno 10718 bound_to 10713
  154.2415  135.6342  153.5209 H   0  0  0  0  0  0  0  0  0  0  0  0  # atno 10763 bound_to 10752
  152.9929  135.5543  154.5905 H   0  0  0  0  0  0  0  0  0  0  0  0  # atno 10764 bound_to 10752
  154.5412  135.2895  155.1069 H   0  0  0  0  0  0  0  0  0  0  0  0  # atno 10765 bound_to 10752
  140.8216  134.2624  157.4897 H   0  0  0  0  0  0  0  0  0  0  0  0  # atno 11005 bound_to 11000
  146.3183  140.3406  142.8647 LP  0  0  0  0  0  0  0  0  0  0  0  0  # atno 17320 bound_to 7965
  144.9169  140.7823  143.5772 LP  0  0  0  0  0  0  0  0  0  0  0  0  # atno 17321 bound_to 7965
  139.4993  144.3950  152.0240 LP  0  0  0  0  0  0  0  0  0  0  0  0  # atno 17342 bound_to 10162
  140.3060  144.3592  150.6047 LP  0  0  0  0  0  0  0  0  0  0  0  0  # atno 17343 bound_to 10162
  157.6650  131.0873  150.7749 LP  0  0  0  0  0  0  0  0  0  0  0  0  # atno 17370 bound_to 10713
  156.7817  130.4861  149.5400 LP  0  0  0  0  0  0  0  0  0  0  0  0  # atno 17371 bound_to 10713
  139.8708  134.9538  156.4157 LP  0  0  0  0  0  0  0  0  0  0  0  0  # atno 17394 bound_to 11000
  140.9093  133.7723  155.9772 LP  0  0  0  0  0  0  0  0  0  0  0  0  # atno 17395 bound_to 11000

$$$$
