AV-unprocessed.smi:2439|AV-procd|sdf|9610|dock3
  -GOLD-   2272013243D 1   1.00000     0.00000
 Structure written by MMmdl.
 41 43  0  0  0  0  0  0  0  0  2 V2000
  152.1280  133.1547  157.6418 N   0  0  0  0  0  0  0  0  0  0  0  0
  152.3182  132.2504  156.9456 C   0  0  0  0  0  0  0  0  0  0  0  0
  152.5583  131.1118  156.0672 C   0  0  0  0  0  0  0  0  0  0  0  0
  153.8808  130.6556  155.8865 C   0  0  0  0  0  0  0  0  0  0  0  0
  154.1182  129.5601  155.0367 C   0  0  0  0  0  0  0  0  0  0  0  0
  153.0168  128.9607  154.3997 C   0  0  0  0  0  0  0  0  0  0  0  0
  151.7470  129.3869  154.5634 N   0  0  0  0  0  0  0  0  0  0  0  0
  151.5095  130.4425  155.3806 C   0  0  0  0  0  0  0  0  0  0  0  0
  150.1752  130.8631  155.5353 N   0  0  0  0  0  0  0  0  0  0  0  0
  149.0750  130.2317  154.8163 C   0  0  0  0  0  0  0  0  0  0  0  0
  148.6194  131.0539  153.5989 C   0  0  1  0  0  0  0  0  0  0  0  0
  147.2555  130.5745  153.0710 C   0  0  0  0  0  0  0  0  0  0  0  0
  146.8065  131.4245  151.9442 N   0  3  1  0  0  0  0  0  0  0  0  0
  145.5135  130.9703  151.3730 C   0  0  0  0  0  0  0  0  0  0  0  0
  145.1242  131.8132  150.1481 C   0  0  0  0  0  0  0  0  0  0  0  0
  145.0767  133.3044  150.5049 C   0  0  0  0  0  0  0  0  0  0  0  0
  146.4139  133.7413  151.1181 C   0  0  0  0  0  0  0  0  0  0  0  0
  146.7882  132.8623  152.3281 C   0  0  2  0  0  0  0  0  0  0  0  0
  148.1557  133.2669  152.9134 C   0  0  0  0  0  0  0  0  0  0  0  0
  148.4884  132.4134  154.0008 O   0  0  0  0  0  0  0  0  0  0  0  0
  154.7075  131.1361  156.3905 H   0  0  0  0  0  0  0  0  0  0  0  0
  155.1195  129.1881  154.8779 H   0  0  0  0  0  0  0  0  0  0  0  0
  153.1583  128.1175  153.7400 H   0  0  0  0  0  0  0  0  0  0  0  0
  149.9793  131.6933  156.0766 H   0  0  0  0  0  0  0  0  0  0  0  0
  149.3729  129.2286  154.5089 H   0  0  0  0  0  0  0  0  0  0  0  0
  148.2415  130.1002  155.5067 H   0  0  0  0  0  0  0  0  0  0  0  0
  149.3602  130.9750  152.8015 H   0  0  0  0  0  0  0  0  0  0  0  0
  147.3312  129.5389  152.7370 H   0  0  0  0  0  0  0  0  0  0  0  0
  146.5117  130.6014  153.8691 H   0  0  0  0  0  0  0  0  0  0  0  0
  145.5912  129.9214  151.0838 H   0  0  0  0  0  0  0  0  0  0  0  0
  144.7344  131.0328  152.1346 H   0  0  0  0  0  0  0  0  0  0  0  0
  145.8448  131.6497  149.3457 H   0  0  0  0  0  0  0  0  0  0  0  0
  144.1555  131.4902  149.7658 H   0  0  0  0  0  0  0  0  0  0  0  0
  144.8576  133.8977  149.6166 H   0  0  0  0  0  0  0  0  0  0  0  0
  144.2677  133.4896  151.2127 H   0  0  0  0  0  0  0  0  0  0  0  0
  147.1969  133.6812  150.3607 H   0  0  0  0  0  0  0  0  0  0  0  0
  146.3557  134.7879  151.4189 H   0  0  0  0  0  0  0  0  0  0  0  0
  146.0313  132.9954  153.1035 H   0  0  0  0  0  0  0  0  0  0  0  0
  148.9382  133.2252  152.1538 H   0  0  0  0  0  0  0  0  0  0  0  0
  148.1211  134.2945  153.2760 H   0  0  0  0  0  0  0  0  0  0  0  0
  147.4976  131.3278  151.2139 H   0  0  0  0  0  0  0  0  0  0  0  0
  1  2  3  0  0  0  0
  2  3  1  0  0  0  0
  3  8  1  0  0  0  0
  3  4  2  0  0  0  0
  4  5  1  0  0  0  0
  4 21  1  0  0  0  0
  5  6  2  0  0  0  0
  5 22  1  0  0  0  0
  6  7  1  0  0  0  0
  6 23  1  0  0  0  0
  7  8  2  0  0  0  0
  8  9  1  0  0  0  0
  9 10  1  0  0  0  0
  9 24  1  0  0  0  0
 10 11  1  0  0  0  0
 10 25  1  0  0  0  0
 10 26  1  0  0  0  0
 11 20  1  0  0  0  0
 11 12  1  0  0  0  0
 11 27  1  0  0  0  0
 12 13  1  0  0  0  0
 12 28  1  0  0  0  0
 12 29  1  0  0  0  0
 13 18  1  0  0  0  0
 13 14  1  0  0  0  0
 13 41  1  0  0  0  0
 14 15  1  0  0  0  0
 14 30  1  0  0  0  0
 14 31  1  0  0  0  0
 15 16  1  0  0  0  0
 15 32  1  0  0  0  0
 15 33  1  0  0  0  0
 16 17  1  0  0  0  0
 16 34  1  0  0  0  0
 16 35  1  0  0  0  0
 17 18  1  0  0  0  0
 17 36  1  0  0  0  0
 17 37  1  0  0  0  0
 18 19  1  0  0  0  0
 18 38  1  0  0  0  0
 19 20  1  0  0  0  0
 19 39  1  0  0  0  0
 19 40  1  0  0  0  0
M  CHG  1  13   1
M  END
> <s_m_source_file>
AV-unprocessed.smi

> <i_m_source_file_index>
2439

> <i_lp_mmshare_version>
43012

> <i_f3d_flags>
0

> <s_epik_input>
TiNDYzFbY0hdW2NIXVtjSF1uYzFbTkhdW0NIMl1bQ0BIXShbQ0gyXTIpT1tDSDJdW0NAQEhdKE4yMylbQ0gyXVtDSDJdW0NIMl1bQ0gyXTM=

> <s_epik_cmdline>
J2VwaWtfcHl0aG9uJywgJy1waCcsICc3LjAnLCAnLXRuJywgJzgnLCAnLW1hJywgJzIwMCcsICctbWV0YWxfYmluZGluZycsICctaW1hZScsICc8aW5maWxlLm1hZT4nLCAnLW9tYWUnLCAnPG91dGZpbGUubWFlPic=

> <r_epik_Ionization_Penalty>
0.0803594

> <r_epik_Ionization_Penalty_Charging>
0.0803403

> <r_epik_Ionization_Penalty_Neutral>
1.90988e-05

> <r_epik_State_Penalty>
0.0711481

> <r_epik_Charging_Adjusted_Penalty>
0.151488

> <i_epik_Tot_Q>
1

> <i_epik_Tot_abs_Q>
1

> <r_epik_Metal_State_Penalty>
0.0711482

> <b_epik_Metal_Only>
0

> <s_lp_Force_Field>
OPLS_2005

> <r_lp_Energy>
27.3027

> <b_lp_Chiralities_Consistent>
1

> <s_lp_Variant>
AV-unprocessed.smi:2439-8

> <Gold.Version>
5.8.1

> <Gold.Id.Protein>
6NUR|6NUR_protein|mol2

> <Gold.PLP.Fitness>
42.1273

> <Gold.PLP.PLP>
-34.5313

> <Gold.PLP.part.hbond>
-1.9176

> <Gold.PLP.part.metal>
0.0000

> <Gold.PLP.part.buried>
-3.6547

> <Gold.PLP.part.nonpolar>
-29.2565

> <Gold.PLP.part.repulsive>
0.1729

> <Gold.PLP.ligand.clash>
0.0000

> <Gold.PLP.ligand.torsion>
0.2289

> <Gold.PLP.Chemscore.Hbond>
1.7360

> <Gold.PLP.Chemscore.CHOScore>
0.9477

> <Gold.PLP.Chemscore.Metal>
0.0000

> <Gold.Chemscore.Hbonds>
donor molecule, donor type, donor heavy atom, donor atom, acceptor molecule, acceptor atom, score
      L1  H    13    41       P1 10747  1.00
      P1  H  6896  6907       L1     1  0.74
      L1  C     6    23       P1 10737  0.95

> <Gold.PLP.Chemscore.Internal.Correction>
0.0025

> <Gold.Rescore>
     Score         DG    S(hbond)    S(metal)    S(lipo)     H(rot)  DE(clash)    DE(int)     intcor
     17.97     -18.26       1.86        0.00      83.92       1.27       0.08       0.21       ----

> <Gold.Chemscore.Fitness>
17.9683

> <Gold.Chemscore.DG>
-18.2645

> <Gold.Chemscore.ZeroCoef>
-5.4800

> <Gold.Chemscore.Hbond>
1.8582

> <Gold.Chemscore.Metal>
0.0000

> <Gold.Chemscore.Lipo>
83.9216

> <Gold.Chemscore.Internal_Hbond>
0.0000

> <Gold.Chemscore.DEClash>
0.0823

> <Gold.Chemscore.DEInternal>
0.2139

> <Gold.Chemscore.Rot>
1.2659

> <Gold.Chemscore.Internal.Correction>
   9.000000E+99

> <Gold.Chemscore.Hbonds>
donor molecule, donor type, donor heavy atom, donor atom, acceptor molecule, acceptor atom, score
      L1  H    13    41       P1 10747  1.00
      P1  H  6896  6907       L1     1  0.72

> <Gold.Chemscore.Hbond.Weighted>
-6.2064

> <Gold.Chemscore.Metal.Weighted>
-0.0000

> <Gold.Chemscore.Lipo.Weighted>
-9.8188

> <Gold.Chemscore.Internal_Hbond.Weighted>
0.0000

> <Gold.Chemscore.DEClash.Weighted>
0.0823

> <Gold.Chemscore.DEInternal.Weighted>
0.2139

> <Gold.Chemscore.Rot.Weighted>
3.2408

> <Gold.Chemscore.Internal.Correction.Weighted>
   9.000000E+99

> <Gold.Protein.RotatedTorsions>
[ 6907 6896 6895 6894 ] final  176.86 input  -60.11 | X-H torsion
[ 7974 7965 7964 7962 ] final -164.59 input  175.53 | X-H torsion
[ 8008 7997 7996 7995 ] final   68.66 input   59.86 | X-H torsion
[ 10167 10162 10161 10158 ] final -119.19 input  -65.29 | X-H torsion
[ 10718 10713 10712 10709 ] final -162.88 input   66.30 | X-H torsion
[ 10763 10752 10751 10750 ] final  169.17 input  -60.55 | X-H torsion
[ 11005 11000 10999 10996 ] final  -94.53 input  -57.11 | X-H torsion

> <Gold.Protein.ActiveResidues>
 VAL166  LYS551  ARG553  GLY616  TRP617  ASP618  TYR619  PRO620  LYS621  CYS622 
 ASP623  PHE694  ASN695  SER759  ASP760  ASP761  ALA762  ILE779  LEU786  VAL792 
 PHE793  MET794  SER795  GLU796  ALA797  LYS798  CYS799  TRP800  GLU811  SER814 

> <Gold.Protein.RotatedAtoms>
  151.7132  133.3313  159.3295 H   0  0  0  0  0  0  0  0  0  0  0  0  # atno 6907 bound_to 6896
  150.7685  134.6513  159.6299 H   0  0  0  0  0  0  0  0  0  0  0  0  # atno 6908 bound_to 6896
  152.3698  134.6753  160.0231 H   0  0  0  0  0  0  0  0  0  0  0  0  # atno 6909 bound_to 6896
  144.7292  140.2938  143.6216 H   0  0  0  0  0  0  0  0  0  0  0  0  # atno 7974 bound_to 7965
  155.7117  140.3494  155.4977 H   0  0  0  0  0  0  0  0  0  0  0  0  # atno 8008 bound_to 7997
  155.9349  140.1091  157.1124 H   0  0  0  0  0  0  0  0  0  0  0  0  # atno 8009 bound_to 7997
  154.4092  140.1224  156.4838 H   0  0  0  0  0  0  0  0  0  0  0  0  # atno 8010 bound_to 7997
  140.0494  143.5075  152.2090 H   0  0  0  0  0  0  0  0  0  0  0  0  # atno 10167 bound_to 10162
  156.6167  130.8873  151.2948 H   0  0  0  0  0  0  0  0  0  0  0  0  # atno 10718 bound_to 10713
  154.3793  135.2753  155.2221 H   0  0  0  0  0  0  0  0  0  0  0  0  # atno 10763 bound_to 10752
  154.4334  135.5972  153.6087 H   0  0  0  0  0  0  0  0  0  0  0  0  # atno 10764 bound_to 10752
  152.9835  135.6001  154.4034 H   0  0  0  0  0  0  0  0  0  0  0  0  # atno 10765 bound_to 10752
  141.1468  133.7962  157.0311 H   0  0  0  0  0  0  0  0  0  0  0  0  # atno 11005 bound_to 11000
  145.7828  139.1898  143.2148 LP  0  0  0  0  0  0  0  0  0  0  0  0  # atno 17320 bound_to 7965
  146.0820  140.7754  142.9637 LP  0  0  0  0  0  0  0  0  0  0  0  0  # atno 17321 bound_to 7965
  139.5963  144.7568  151.3279 LP  0  0  0  0  0  0  0  0  0  0  0  0  # atno 17342 bound_to 10162
  140.7224  143.7099  150.7778 LP  0  0  0  0  0  0  0  0  0  0  0  0  # atno 17343 bound_to 10162
  157.7239  130.9596  150.1552 LP  0  0  0  0  0  0  0  0  0  0  0  0  # atno 17370 bound_to 10713
  156.2345  130.3685  149.8407 LP  0  0  0  0  0  0  0  0  0  0  0  0  # atno 17371 bound_to 10713
  140.0754  134.9679  157.1536 LP  0  0  0  0  0  0  0  0  0  0  0  0  # atno 17394 bound_to 11000
  140.3652  134.2450  155.7183 LP  0  0  0  0  0  0  0  0  0  0  0  0  # atno 17395 bound_to 11000

$$$$
