AV-unprocessed.smi:248|AV-procd|sdf|1897|dock8
  -GOLD-   2262020563D 1   1.00000     0.00000
 Structure written by MMmdl.
 62 65  0  0  0  0  0  0  0  0  1 V2000
  152.3738  144.7748  158.1216 C   0  0  0  0  0  0  0  0  0  0  0  0
  151.4988  144.6663  159.3797 C   0  0  0  0  0  0  0  0  0  0  0  0
  151.6415  145.9333  160.2408 C   0  0  0  0  0  0  0  0  0  0  0  0
  151.8128  143.3582  160.1436 C   0  0  0  0  0  0  0  0  0  0  0  0
  151.8640  142.1731  159.2717 N   0  0  0  0  0  0  0  0  0  0  0  0
  150.7169  142.0296  158.3643 C   0  0  0  0  0  0  0  0  0  0  0  0
  151.0272  141.1573  157.1443 C   0  0  0  0  0  0  0  0  0  0  0  0
  151.6595  139.9212  157.5817 N   0  0  0  0  0  0  0  0  0  0  0  0
  151.7042  138.9782  156.6120 C   0  0  0  0  0  0  0  0  0  0  0  0
  152.6157  139.0781  155.6088 N   0  0  0  0  0  0  0  0  0  0  0  0
  152.6656  138.1400  154.6584 C   0  0  0  0  0  0  0  0  0  0  0  0
  151.9182  137.0412  154.5292 N   0  0  0  0  0  0  0  0  0  0  0  0
  151.0076  136.9382  155.5404 C   0  0  0  0  0  0  0  0  0  0  0  0
  150.8291  137.8608  156.6076 C   0  0  0  0  0  0  0  0  0  0  0  0
  149.8000  137.4388  157.4385 N   0  0  0  0  0  0  0  0  0  0  0  0
  149.3947  136.3238  156.8944 C   0  0  0  0  0  0  0  0  0  0  0  0
  150.0805  135.9342  155.7645 N   0  0  0  0  0  0  0  0  0  0  0  0
  149.8400  134.7435  154.9595 C   0  0  0  0  0  0  0  0  0  0  0  0
  150.1102  133.3682  155.6508 C   0  0  0  0  0  0  0  0  0  0  0  0
  149.7586  132.3173  154.5550 C   0  0  0  0  0  0  0  0  0  0  0  0
  148.4651  132.4111  154.0006 O   0  0  0  0  0  0  0  0  0  0  0  0
  151.5936  133.2671  156.1024 C   0  0  0  0  0  0  0  0  0  0  0  0
  151.8747  132.1094  157.0783 C   0  0  0  0  0  0  0  0  0  0  0  0
  151.0054  132.1980  158.1997 O   0  0  0  0  0  0  0  0  0  0  0  0
  149.6347  132.0670  157.8466 C   0  0  0  0  0  0  0  0  0  0  0  0
  149.2159  133.2186  156.9127 C   0  0  0  0  0  0  0  0  0  0  0  0
  152.9043  140.0779  158.3474 C   0  0  2  0  0  0  0  0  0  0  0  0
  153.2417  138.7791  159.1152 C   0  0  0  0  0  0  0  0  0  0  0  0
  152.9016  141.2976  159.3012 C   0  0  0  0  0  0  0  0  0  0  0  0
  153.8653  141.4489  160.0539 O   0  0  0  0  0  0  0  0  0  0  0  0
  153.4312  144.8418  158.3799 H   0  0  0  0  0  0  0  0  0  0  0  0
  152.1169  145.6592  157.5380 H   0  0  0  0  0  0  0  0  0  0  0  0
  152.2436  143.9068  157.4745 H   0  0  0  0  0  0  0  0  0  0  0  0
  150.4621  144.6159  159.0443 H   0  0  0  0  0  0  0  0  0  0  0  0
  152.6443  146.0145  160.6613 H   0  0  0  0  0  0  0  0  0  0  0  0
  150.9293  145.9415  161.0658 H   0  0  0  0  0  0  0  0  0  0  0  0
  151.4551  146.8312  159.6510 H   0  0  0  0  0  0  0  0  0  0  0  0
  152.7681  143.4632  160.6594 H   0  0  0  0  0  0  0  0  0  0  0  0
  151.0858  143.2202  160.9457 H   0  0  0  0  0  0  0  0  0  0  0  0
  149.8994  141.5804  158.9299 H   0  0  0  0  0  0  0  0  0  0  0  0
  150.3610  143.0025  158.0238 H   0  0  0  0  0  0  0  0  0  0  0  0
  150.1079  140.9492  156.5940 H   0  0  0  0  0  0  0  0  0  0  0  0
  151.6937  141.6944  156.4666 H   0  0  0  0  0  0  0  0  0  0  0  0
  153.4134  138.2898  153.8935 H   0  0  0  0  0  0  0  0  0  0  0  0
  148.5834  135.7453  157.3120 H   0  0  0  0  0  0  0  0  0  0  0  0
  148.8059  134.7873  154.6149 H   0  0  0  0  0  0  0  0  0  0  0  0
  150.4518  134.8319  154.0605 H   0  0  0  0  0  0  0  0  0  0  0  0
  150.4667  132.3887  153.7287 H   0  0  0  0  0  0  0  0  0  0  0  0
  149.8615  131.3092  154.9584 H   0  0  0  0  0  0  0  0  0  0  0  0
  148.3552  131.7130  153.3731 H   0  0  0  0  0  0  0  0  0  0  0  0
  152.2526  133.1997  155.2363 H   0  0  0  0  0  0  0  0  0  0  0  0
  151.8837  134.1728  156.6316 H   0  0  0  0  0  0  0  0  0  0  0  0
  151.7863  131.1341  156.6020 H   0  0  0  0  0  0  0  0  0  0  0  0
  152.9020  132.1778  157.4369 H   0  0  0  0  0  0  0  0  0  0  0  0
  149.4460  131.0881  157.4087 H   0  0  0  0  0  0  0  0  0  0  0  0
  149.0421  132.1067  158.7605 H   0  0  0  0  0  0  0  0  0  0  0  0
  149.2706  134.1234  157.5148 H   0  0  0  0  0  0  0  0  0  0  0  0
  148.1689  133.1102  156.6277 H   0  0  0  0  0  0  0  0  0  0  0  0
  153.7115  140.2660  157.6374 H   0  0  0  0  0  0  0  0  0  0  0  0
  154.1555  138.8805  159.7014 H   0  0  0  0  0  0  0  0  0  0  0  0
  153.4036  137.9386  158.4402 H   0  0  0  0  0  0  0  0  0  0  0  0
  152.4378  138.5060  159.8000 H   0  0  0  0  0  0  0  0  0  0  0  0
  1  2  1  0  0  0  0
  1 31  1  0  0  0  0
  1 32  1  0  0  0  0
  1 33  1  0  0  0  0
  2  3  1  0  0  0  0
  2  4  1  0  0  0  0
  2 34  1  0  0  0  0
  3 35  1  0  0  0  0
  3 36  1  0  0  0  0
  3 37  1  0  0  0  0
  4  5  1  0  0  0  0
  4 38  1  0  0  0  0
  4 39  1  0  0  0  0
  5 29  1  0  0  0  0
  5  6  1  0  0  0  0
  6  7  1  0  0  0  0
  6 40  1  0  0  0  0
  6 41  1  0  0  0  0
  7  8  1  0  0  0  0
  7 42  1  0  0  0  0
  7 43  1  0  0  0  0
  8  9  1  0  0  0  0
  8 27  1  0  0  0  0
  9 14  1  0  0  0  0
  9 10  2  0  0  0  0
 10 11  1  0  0  0  0
 11 12  2  0  0  0  0
 11 44  1  0  0  0  0
 12 13  1  0  0  0  0
 13 17  1  0  0  0  0
 13 14  2  0  0  0  0
 14 15  1  0  0  0  0
 15 16  2  0  0  0  0
 16 17  1  0  0  0  0
 16 45  1  0  0  0  0
 17 18  1  0  0  0  0
 18 19  1  0  0  0  0
 18 46  1  0  0  0  0
 18 47  1  0  0  0  0
 19 26  1  0  0  0  0
 19 20  1  0  0  0  0
 19 22  1  0  0  0  0
 20 21  1  0  0  0  0
 20 48  1  0  0  0  0
 20 49  1  0  0  0  0
 21 50  1  0  0  0  0
 22 23  1  0  0  0  0
 22 51  1  0  0  0  0
 22 52  1  0  0  0  0
 23 24  1  0  0  0  0
 23 53  1  0  0  0  0
 23 54  1  0  0  0  0
 24 25  1  0  0  0  0
 25 26  1  0  0  0  0
 25 55  1  0  0  0  0
 25 56  1  0  0  0  0
 26 57  1  0  0  0  0
 26 58  1  0  0  0  0
 27 28  1  0  0  0  0
 27 29  1  0  0  0  0
 27 59  1  0  0  0  0
 28 60  1  0  0  0  0
 28 61  1  0  0  0  0
 28 62  1  0  0  0  0
 29 30  2  0  0  0  0
M  END
> <s_m_source_file>
AV-unprocessed.smi

> <i_m_source_file_index>
248

> <i_lp_mmshare_version>
43012

> <i_f3d_flags>
0

> <s_epik_input>
W0NIM11bQ0hdKFtDSDNdKVtDSDJdTjFbQ0gyXVtDSDJdTihbQ0BASF0oW0NIM10pQzE9TyljKG5bY0hdbjIpYyhjMjMpbltjSF1uM1tDSDJdQzQoW0NIMl1bT0hdKVtDSDJdW0NIMl1PW0NIMl1bQ0gyXTQ=

> <s_epik_cmdline>
J2VwaWtfcHl0aG9uJywgJy1waCcsICc3LjAnLCAnLXRuJywgJzgnLCAnLW1hJywgJzIwMCcsICctbWV0YWxfYmluZGluZycsICctaW1hZScsICc8aW5maWxlLm1hZT4nLCAnLW9tYWUnLCAnPG91dGZpbGUubWFlPic=

> <r_lp_tautomer_probability>
1

> <r_epik_Ionization_Penalty>
0.000593973

> <r_epik_Ionization_Penalty_Charging>
0

> <r_epik_Ionization_Penalty_Neutral>
0.000593973

> <r_epik_State_Penalty>
0.000283267

> <r_epik_Charging_Adjusted_Penalty>
0.000283267

> <i_epik_Tot_Q>
0

> <i_epik_Tot_abs_Q>
0

> <r_epik_Metal_State_Penalty>
-0

> <b_epik_Metal_Only>
0

> <s_lp_Force_Field>
OPLS_2005

> <r_lp_Energy>
47.3368

> <b_lp_Chiralities_Consistent>
1

> <s_lp_Variant>
AV-unprocessed.smi:248-2

> <Gold.Version>
5.8.1

> <Gold.Id.Protein>
6NUR|6NUR_protein|mol2

> <Gold.PLP.Fitness>
56.9796

> <Gold.PLP.PLP>
-48.5579

> <Gold.PLP.part.hbond>
-3.0000

> <Gold.PLP.part.metal>
0.0000

> <Gold.PLP.part.buried>
-5.9857

> <Gold.PLP.part.nonpolar>
-40.2408

> <Gold.PLP.part.repulsive>
0.1350

> <Gold.PLP.ligand.clash>
0.0000

> <Gold.PLP.ligand.torsion>
0.4068

> <Gold.PLP.Chemscore.Hbond>
2.9510

> <Gold.PLP.Chemscore.CHOScore>
0.0000

> <Gold.PLP.Chemscore.Metal>
0.0000

> <Gold.Chemscore.Hbonds>
donor molecule, donor type, donor heavy atom, donor atom, acceptor molecule, acceptor atom, score
      P1  H  6896  6908       L1    24  1.00
      P1  H  7997  8008       L1    10  0.60
      P1  H 10752 10765       L1    12  1.00

> <Gold.PLP.Chemscore.Internal.Correction>
0.3823

> <Gold.Rescore>
     Score         DG    S(hbond)    S(metal)    S(lipo)     H(rot)  DE(clash)    DE(int)     intcor
     18.30     -19.28       2.38        0.00     110.20       2.75       0.35       0.63       ----

> <Gold.Chemscore.Fitness>
18.2961

> <Gold.Chemscore.DG>
-19.2763

> <Gold.Chemscore.ZeroCoef>
-5.4800

> <Gold.Chemscore.Hbond>
2.3798

> <Gold.Chemscore.Metal>
0.0000

> <Gold.Chemscore.Lipo>
110.2010

> <Gold.Chemscore.Internal_Hbond>
0.0000

> <Gold.Chemscore.DEClash>
0.3526

> <Gold.Chemscore.DEInternal>
0.6276

> <Gold.Chemscore.Rot>
2.7523

> <Gold.Chemscore.Internal.Correction>
   9.000000E+99

> <Gold.Chemscore.Hbonds>
donor molecule, donor type, donor heavy atom, donor atom, acceptor molecule, acceptor atom, score
      P1  H  6896  6908       L1    24  0.58
      P1  H  7997  8008       L1    10  0.32
      P1  H 10752 10765       L1    12  0.61

> <Gold.Chemscore.Hbond.Weighted>
-7.9487

> <Gold.Chemscore.Metal.Weighted>
-0.0000

> <Gold.Chemscore.Lipo.Weighted>
-12.8935

> <Gold.Chemscore.Internal_Hbond.Weighted>
0.0000

> <Gold.Chemscore.DEClash.Weighted>
0.3526

> <Gold.Chemscore.DEInternal.Weighted>
0.6276

> <Gold.Chemscore.Rot.Weighted>
7.0459

> <Gold.Chemscore.Internal.Correction.Weighted>
   9.000000E+99

> <Gold.Protein.RotatedTorsions>
[ 6907 6896 6895 6894 ] final   94.05 input  -60.11 | X-H torsion
[ 7974 7965 7964 7962 ] final  170.93 input  175.53 | X-H torsion
[ 8008 7997 7996 7995 ] final  -52.76 input   59.86 | X-H torsion
[ 10167 10162 10161 10158 ] final  171.52 input  -65.29 | X-H torsion
[ 10718 10713 10712 10709 ] final  152.89 input   66.30 | X-H torsion
[ 10763 10752 10751 10750 ] final  168.49 input  -60.55 | X-H torsion
[ 11005 11000 10999 10996 ] final  110.01 input  -57.11 | X-H torsion

> <Gold.Protein.ActiveResidues>
 VAL166  LYS551  ARG553  GLY616  TRP617  ASP618  TYR619  PRO620  LYS621  CYS622 
 ASP623  PHE694  ASN695  SER759  ASP760  ASP761  ALA762  ILE779  LEU786  VAL792 
 PHE793  MET794  SER795  GLU796  ALA797  LYS798  CYS799  TRP800  GLU811  SER814 

> <Gold.Protein.RotatedAtoms>
  152.5451  134.1253  159.8416 H   0  0  0  0  0  0  0  0  0  0  0  0  # atno 6907 bound_to 6896
  151.1305  133.5033  159.2606 H   0  0  0  0  0  0  0  0  0  0  0  0  # atno 6908 bound_to 6896
  151.1681  135.0315  159.8794 H   0  0  0  0  0  0  0  0  0  0  0  0  # atno 6909 bound_to 6896
  144.7309  139.9275  143.6423 H   0  0  0  0  0  0  0  0  0  0  0  0  # atno 7974 bound_to 7965
  154.4115  140.1216  156.5044 H   0  0  0  0  0  0  0  0  0  0  0  0  # atno 8008 bound_to 7997
  155.6862  140.3495  155.4856 H   0  0  0  0  0  0  0  0  0  0  0  0  # atno 8009 bound_to 7997
  155.9508  140.1104  157.0968 H   0  0  0  0  0  0  0  0  0  0  0  0  # atno 8010 bound_to 7997
  139.5049  144.3477  151.9955 H   0  0  0  0  0  0  0  0  0  0  0  0  # atno 10167 bound_to 10162
  157.2519  131.0780  151.1724 H   0  0  0  0  0  0  0  0  0  0  0  0  # atno 10718 bound_to 10713
  154.3693  135.2753  155.2275 H   0  0  0  0  0  0  0  0  0  0  0  0  # atno 10763 bound_to 10752
  154.4430  135.5949  153.6145 H   0  0  0  0  0  0  0  0  0  0  0  0  # atno 10764 bound_to 10752
  152.9839  135.6023  154.3922 H   0  0  0  0  0  0  0  0  0  0  0  0  # atno 10765 bound_to 10752
  139.8873  134.9473  156.6213 H   0  0  0  0  0  0  0  0  0  0  0  0  # atno 11005 bound_to 11000
  146.0883  139.3872  143.0421 LP  0  0  0  0  0  0  0  0  0  0  0  0  # atno 17320 bound_to 7965
  145.7746  140.9882  143.1131 LP  0  0  0  0  0  0  0  0  0  0  0  0  # atno 17321 bound_to 7965
  140.2914  144.3750  150.6087 LP  0  0  0  0  0  0  0  0  0  0  0  0  # atno 17342 bound_to 10162
  140.5944  143.2167  151.7193 LP  0  0  0  0  0  0  0  0  0  0  0  0  # atno 17343 bound_to 10162
  157.3269  130.6965  149.6301 LP  0  0  0  0  0  0  0  0  0  0  0  0  # atno 17370 bound_to 10713
  155.9666  130.4319  150.4939 LP  0  0  0  0  0  0  0  0  0  0  0  0  # atno 17371 bound_to 10713
  140.7737  133.8717  155.8512 LP  0  0  0  0  0  0  0  0  0  0  0  0  # atno 17394 bound_to 11000
  140.9820  134.1393  157.4486 LP  0  0  0  0  0  0  0  0  0  0  0  0  # atno 17395 bound_to 11000

$$$$
