AV-unprocessed.smi:1047|AV-procd|sdf|4603|dock4
  -GOLD-   22720 3 93D 1   1.00000     0.00000
 Structure written by MMmdl.
 57 59  0  0  0  0  0  0  0  0  3 V2000
  143.9042  133.4404  150.1760 C   0  0  0  0  0  0  0  0  0  0  0  0
  143.7666  132.6599  151.4909 C   0  0  0  0  0  0  0  0  0  0  0  0
  143.8081  133.5402  152.6853 N   0  3  2  0  0  0  0  0  0  0  0  0
  142.9720  134.7591  152.5536 C   0  0  0  0  0  0  0  0  0  0  0  0
  143.0522  135.6065  153.8338 C   0  0  0  0  0  0  0  0  0  0  0  0
  144.4100  135.9277  154.1055 O   0  0  0  0  0  0  0  0  0  0  0  0
  145.2018  134.7683  154.3436 C   0  0  2  0  0  0  0  0  0  0  0  0
  146.6209  135.2302  154.7054 C   0  0  0  0  0  0  0  0  0  0  0  0
  146.9577  136.4770  154.0262 N   0  0  0  0  0  0  0  0  0  0  0  0
  147.3196  137.5562  154.9404 C   0  0  0  0  0  0  0  0  0  0  0  0
  148.8439  137.6462  155.1282 C   0  0  1  0  0  0  0  0  0  0  0  0
  149.4130  136.3926  154.8058 O   0  0  0  0  0  0  0  0  0  0  0  0
  149.4652  138.7325  154.2281 C   0  0  0  0  0  0  0  0  0  0  0  0
  149.5244  140.0480  154.8821 N   0  0  0  0  0  0  0  0  0  0  0  0
  148.8733  141.2002  154.5665 C   0  0  0  0  0  0  0  0  0  0  0  0
  149.2542  142.1481  155.4663 N   0  3  0  0  0  0  0  0  0  0  0  0
  150.1627  141.5940  156.3702 C   0  0  0  0  0  0  0  0  0  0  0  0
  150.8239  142.1579  157.4548 C   0  0  0  0  0  0  0  0  0  0  0  0
  151.6929  141.3188  158.1876 C   0  0  0  0  0  0  0  0  0  0  0  0
  152.4301  141.9031  159.3807 C   0  0  0  0  0  0  0  0  0  0  0  0
  151.8753  139.9601  157.8222 C   0  0  0  0  0  0  0  0  0  0  0  0
  152.8120  139.0671  158.6179 C   0  0  0  0  0  0  0  0  0  0  0  0
  151.1933  139.4052  156.7155 C   0  0  0  0  0  0  0  0  0  0  0  0
  150.3410  140.2457  156.0026 C   0  0  0  0  0  0  0  0  0  0  0  0
  145.1940  133.9038  153.0673 C   0  0  0  0  0  0  0  0  0  0  0  0
  143.7804  132.7744  149.3217 H   0  0  0  0  0  0  0  0  0  0  0  0
  144.8833  133.9086  150.0783 H   0  0  0  0  0  0  0  0  0  0  0  0
  143.1462  134.2203  150.0988 H   0  0  0  0  0  0  0  0  0  0  0  0
  142.8096  132.1366  151.4687 H   0  0  0  0  0  0  0  0  0  0  0  0
  144.5379  131.8918  151.5645 H   0  0  0  0  0  0  0  0  0  0  0  0
  143.3111  135.3461  151.6986 H   0  0  0  0  0  0  0  0  0  0  0  0
  141.9322  134.4926  152.3668 H   0  0  0  0  0  0  0  0  0  0  0  0
  142.4893  136.5315  153.7080 H   0  0  0  0  0  0  0  0  0  0  0  0
  142.6119  135.0789  154.6816 H   0  0  0  0  0  0  0  0  0  0  0  0
  144.7836  134.1946  155.1735 H   0  0  0  0  0  0  0  0  0  0  0  0
  146.6916  135.3777  155.7837 H   0  0  0  0  0  0  0  0  0  0  0  0
  147.3382  134.4494  154.4493 H   0  0  0  0  0  0  0  0  0  0  0  0
  147.7161  136.3154  153.3710 H   0  0  0  0  0  0  0  0  0  0  0  0
  146.9154  138.5098  154.5977 H   0  0  0  0  0  0  0  0  0  0  0  0
  146.8595  137.3594  155.9097 H   0  0  0  0  0  0  0  0  0  0  0  0
  149.0787  137.8793  156.1682 H   0  0  0  0  0  0  0  0  0  0  0  0
  149.2995  136.2394  153.8804 H   0  0  0  0  0  0  0  0  0  0  0  0
  150.4609  138.4480  153.8875 H   0  0  0  0  0  0  0  0  0  0  0  0
  148.8608  138.8561  153.3284 H   0  0  0  0  0  0  0  0  0  0  0  0
  148.1790  141.3381  153.7500 H   0  0  0  0  0  0  0  0  0  0  0  0
  150.6789  143.1931  157.7276 H   0  0  0  0  0  0  0  0  0  0  0  0
  153.5084  141.8501  159.2279 H   0  0  0  0  0  0  0  0  0  0  0  0
  152.1806  141.3560  160.2901 H   0  0  0  0  0  0  0  0  0  0  0  0
  152.1669  142.9493  159.5392 H   0  0  0  0  0  0  0  0  0  0  0  0
  152.8526  138.0596  158.2027 H   0  0  0  0  0  0  0  0  0  0  0  0
  152.4775  138.9882  159.6526 H   0  0  0  0  0  0  0  0  0  0  0  0
  153.8248  139.4708  158.6101 H   0  0  0  0  0  0  0  0  0  0  0  0
  151.3302  138.3696  156.4432 H   0  0  0  0  0  0  0  0  0  0  0  0
  145.7767  132.9971  153.2361 H   0  0  0  0  0  0  0  0  0  0  0  0
  145.6688  134.4412  152.2442 H   0  0  0  0  0  0  0  0  0  0  0  0
  143.4332  133.0042  153.4551 H   0  0  0  0  0  0  0  0  0  0  0  0
  148.9163  143.1020  155.4623 H   0  0  0  0  0  0  0  0  0  0  0  0
  1  2  1  0  0  0  0
  1 26  1  0  0  0  0
  1 27  1  0  0  0  0
  1 28  1  0  0  0  0
  2  3  1  0  0  0  0
  2 29  1  0  0  0  0
  2 30  1  0  0  0  0
  3 25  1  0  0  0  0
  3  4  1  0  0  0  0
  3 56  1  0  0  0  0
  4  5  1  0  0  0  0
  4 31  1  0  0  0  0
  4 32  1  0  0  0  0
  5  6  1  0  0  0  0
  5 33  1  0  0  0  0
  5 34  1  0  0  0  0
  6  7  1  0  0  0  0
  7  8  1  0  0  0  0
  7 25  1  0  0  0  0
  7 35  1  0  0  0  0
  8  9  1  0  0  0  0
  8 36  1  0  0  0  0
  8 37  1  0  0  0  0
  9 10  1  0  0  0  0
  9 38  1  0  0  0  0
 10 11  1  0  0  0  0
 10 39  1  0  0  0  0
 10 40  1  0  0  0  0
 11 12  1  0  0  0  0
 11 13  1  0  0  0  0
 11 41  1  0  0  0  0
 12 42  1  0  0  0  0
 13 14  1  0  0  0  0
 13 43  1  0  0  0  0
 13 44  1  0  0  0  0
 14 24  1  0  0  0  0
 14 15  1  0  0  0  0
 15 16  2  0  0  0  0
 15 45  1  0  0  0  0
 16 17  1  0  0  0  0
 16 57  1  0  0  0  0
 17 24  2  0  0  0  0
 17 18  1  0  0  0  0
 18 19  2  0  0  0  0
 18 46  1  0  0  0  0
 19 20  1  0  0  0  0
 19 21  1  0  0  0  0
 20 47  1  0  0  0  0
 20 48  1  0  0  0  0
 20 49  1  0  0  0  0
 21 22  1  0  0  0  0
 21 23  2  0  0  0  0
 22 50  1  0  0  0  0
 22 51  1  0  0  0  0
 22 52  1  0  0  0  0
 23 24  1  0  0  0  0
 23 53  1  0  0  0  0
 25 54  1  0  0  0  0
 25 55  1  0  0  0  0
M  CHG  1   3   1
M  CHG  1  16   1
M  END
> <s_m_source_file>
AV-unprocessed.smi

> <i_m_source_file_index>
1047

> <i_lp_mmshare_version>
43012

> <i_f3d_flags>
0

> <s_epik_input>
W0NIM11bQ0gyXU4xW0NIMl1bQ0gyXU9bQ0BIXShbQ0gyXTEpW0NIMl1bTkhdW0NIMl1bQ0BIXShbT0hdKVtDSDJdbihbY0hdbjIpYyhjMjMpW2NIXWMoW0NIM10pYyhbY0hdMylbQ0gzXQ==

> <s_epik_cmdline>
J2VwaWtfcHl0aG9uJywgJy1waCcsICc3LjAnLCAnLXRuJywgJzgnLCAnLW1hJywgJzIwMCcsICctbWV0YWxfYmluZGluZycsICctaW1hZScsICc8aW5maWxlLm1hZT4nLCAnLW9tYWUnLCAnPG91dGZpbGUubWFlPic=

> <r_epik_Ionization_Penalty>
2.03028

> <r_epik_Ionization_Penalty_Charging>
1.21256

> <r_epik_Ionization_Penalty_Neutral>
0.817715

> <r_epik_State_Penalty>
2.54959

> <r_epik_Charging_Adjusted_Penalty>
3.76215

> <i_epik_Tot_Q>
2

> <i_epik_Tot_abs_Q>
2

> <r_epik_Metal_State_Penalty>
6.52811

> <b_epik_Metal_Only>
0

> <s_lp_Force_Field>
OPLS_2005

> <r_lp_Energy>
34.649

> <b_lp_Chiralities_Consistent>
1

> <s_lp_Variant>
AV-unprocessed.smi:1047-44

> <Gold.Version>
5.8.1

> <Gold.Id.Protein>
6NUR|6NUR_protein|mol2

> <Gold.PLP.Fitness>
55.7593

> <Gold.PLP.PLP>
-40.6001

> <Gold.PLP.part.hbond>
-4.0000

> <Gold.PLP.part.metal>
0.0000

> <Gold.PLP.part.buried>
-3.3351

> <Gold.PLP.part.nonpolar>
-33.4014

> <Gold.PLP.part.repulsive>
0.2550

> <Gold.PLP.ligand.clash>
0.0000

> <Gold.PLP.ligand.torsion>
2.0362

> <Gold.PLP.Chemscore.Hbond>
6.0000

> <Gold.PLP.Chemscore.CHOScore>
0.3222

> <Gold.PLP.Chemscore.Metal>
0.0000

> <Gold.Chemscore.Hbonds>
donor molecule, donor type, donor heavy atom, donor atom, acceptor molecule, acceptor atom, score
      L1  H     3    56       P1 10957  2.00
      L1  H     9    38       P1  7948  1.00
      L1  H    12    42       P1  7948  1.00
      L1  H    16    57       P1  8028  2.00

> <Gold.PLP.Chemscore.Internal.Correction>
0.2652

> <Gold.Rescore>
     Score         DG    S(hbond)    S(metal)    S(lipo)     H(rot)  DE(clash)    DE(int)     intcor
     20.31     -22.68       3.85        0.00      96.35       2.71       0.21       2.16       ----

> <Gold.Chemscore.Fitness>
20.3116

> <Gold.Chemscore.DG>
-22.6817

> <Gold.Chemscore.ZeroCoef>
-5.4800

> <Gold.Chemscore.Hbond>
3.8513

> <Gold.Chemscore.Metal>
0.0000

> <Gold.Chemscore.Lipo>
96.3490

> <Gold.Chemscore.Internal_Hbond>
0.0000

> <Gold.Chemscore.DEClash>
0.2071

> <Gold.Chemscore.DEInternal>
2.1630

> <Gold.Chemscore.Rot>
2.7088

> <Gold.Chemscore.Internal.Correction>
   9.000000E+99

> <Gold.Chemscore.Hbonds>
donor molecule, donor type, donor heavy atom, donor atom, acceptor molecule, acceptor atom, score
      L1  H     3    56       P1 10957  0.84
      L1  H     9    38       P1  7948  0.99
      L1  H    12    42       P1  7948  0.82
      L1  H    16    57       P1  8028  0.99

> <Gold.Chemscore.Hbond.Weighted>
-12.8635

> <Gold.Chemscore.Metal.Weighted>
-0.0000

> <Gold.Chemscore.Lipo.Weighted>
-11.2728

> <Gold.Chemscore.Internal_Hbond.Weighted>
0.0000

> <Gold.Chemscore.DEClash.Weighted>
0.2071

> <Gold.Chemscore.DEInternal.Weighted>
2.1630

> <Gold.Chemscore.Rot.Weighted>
6.9346

> <Gold.Chemscore.Internal.Correction.Weighted>
   9.000000E+99

> <Gold.Protein.RotatedTorsions>
[ 6907 6896 6895 6894 ] final -162.39 input  -60.11 | X-H torsion
[ 7974 7965 7964 7962 ] final   30.33 input  175.53 | X-H torsion
[ 8008 7997 7996 7995 ] final   21.39 input   59.86 | X-H torsion
[ 10167 10162 10161 10158 ] final -165.74 input  -65.29 | X-H torsion
[ 10718 10713 10712 10709 ] final  -90.92 input   66.30 | X-H torsion
[ 10763 10752 10751 10750 ] final -150.91 input  -60.55 | X-H torsion
[ 11005 11000 10999 10996 ] final  -52.05 input  -57.11 | X-H torsion

> <Gold.Protein.ActiveResidues>
 VAL166  LYS551  ARG553  GLY616  TRP617  ASP618  TYR619  PRO620  LYS621  CYS622 
 ASP623  PHE694  ASN695  SER759  ASP760  ASP761  ALA762  ILE779  LEU786  VAL792 
 PHE793  MET794  SER795  GLU796  ALA797  LYS798  CYS799  TRP800  GLU811  SER814 

> <Gold.Protein.RotatedAtoms>
  151.3795  133.3826  159.2708 H   0  0  0  0  0  0  0  0  0  0  0  0  # atno 6907 bound_to 6896
  150.9588  134.8980  159.7728 H   0  0  0  0  0  0  0  0  0  0  0  0  # atno 6908 bound_to 6896
  152.5141  134.3754  159.9385 H   0  0  0  0  0  0  0  0  0  0  0  0  # atno 6909 bound_to 6896
  146.1618  139.6803  142.9028 H   0  0  0  0  0  0  0  0  0  0  0  0  # atno 7974 bound_to 7965
  154.9498  140.3064  155.5080 H   0  0  0  0  0  0  0  0  0  0  0  0  # atno 8008 bound_to 7997
  156.2988  140.2321  156.4513 H   0  0  0  0  0  0  0  0  0  0  0  0  # atno 8009 bound_to 7997
  154.8065  140.0431  157.1300 H   0  0  0  0  0  0  0  0  0  0  0  0  # atno 8010 bound_to 7997
  139.6162  144.0716  152.1889 H   0  0  0  0  0  0  0  0  0  0  0  0  # atno 10167 bound_to 10162
  155.9990  130.4928  150.5396 H   0  0  0  0  0  0  0  0  0  0  0  0  # atno 10718 bound_to 10713
  154.8090  135.3273  154.7354 H   0  0  0  0  0  0  0  0  0  0  0  0  # atno 10763 bound_to 10752
  153.8007  135.6903  153.4860 H   0  0  0  0  0  0  0  0  0  0  0  0  # atno 10764 bound_to 10752
  153.1856  135.4570  155.0029 H   0  0  0  0  0  0  0  0  0  0  0  0  # atno 10765 bound_to 10752
  141.0904  133.6634  156.3967 H   0  0  0  0  0  0  0  0  0  0  0  0  # atno 11005 bound_to 11000
  145.4569  141.0431  143.2773 LP  0  0  0  0  0  0  0  0  0  0  0  0  # atno 17320 bound_to 7965
  144.8037  139.6091  143.7060 LP  0  0  0  0  0  0  0  0  0  0  0  0  # atno 17321 bound_to 7965
  140.0346  144.6054  150.7460 LP  0  0  0  0  0  0  0  0  0  0  0  0  # atno 17342 bound_to 10162
  140.7352  143.2738  151.3805 LP  0  0  0  0  0  0  0  0  0  0  0  0  # atno 17343 bound_to 10162
  157.3334  131.0703  151.1843 LP  0  0  0  0  0  0  0  0  0  0  0  0  # atno 17370 bound_to 10713
  157.2716  130.6707  149.6022 LP  0  0  0  0  0  0  0  0  0  0  0  0  # atno 17371 bound_to 10713
  140.5266  134.6253  157.5336 LP  0  0  0  0  0  0  0  0  0  0  0  0  # atno 17394 bound_to 11000
  139.9728  134.7264  156.0007 LP  0  0  0  0  0  0  0  0  0  0  0  0  # atno 17395 bound_to 11000

$$$$
