AV-unprocessed.smi:1443|AV-procd|sdf|5880|dock5
  -GOLD-   22720 5553D 1   1.00000     0.00000
 Structure written by MMmdl.
 27 28  0  0  0  0  0  0  0  0  1 V2000
  149.3225  136.2870  155.9514 C   0  0  0  0  0  0  0  0  0  0  0  0
  150.2361  137.4169  154.8653 S   0  0  0  0  0  0  0  0  0  0  0  0
  149.5143  139.0081  155.1062 C   0  0  0  0  0  0  0  0  0  0  0  0
  148.2644  139.2665  154.6802 N   0  0  0  0  0  0  0  0  0  0  0  0
  147.8858  140.8693  155.0635 S   0  0  0  0  0  0  0  0  0  0  0  0
  149.4513  141.0988  155.7857 C   0  0  0  0  0  0  0  0  0  0  0  0
  149.8546  142.3375  156.3642 N   0  0  0  0  0  0  0  0  0  0  0  0
  150.7170  142.6101  157.3674 C   0  0  0  0  0  0  0  0  0  0  0  0
  151.3128  141.7080  157.9539 O   0  0  0  0  0  0  0  0  0  0  0  0
  150.8743  143.9077  157.6732 N   0  0  0  0  0  0  0  0  0  0  0  0
  151.7151  144.4346  158.6964 C   0  0  1  0  0  0  0  0  0  0  0  0
  151.3126  145.7665  159.2915 C   0  0  0  0  0  0  0  0  0  0  0  0
  151.1519  144.5081  160.1013 C   0  0  2  0  0  0  0  0  0  0  0  0
  152.0335  144.2678  161.3074 C   0  0  0  0  0  0  0  0  0  0  0  0
  150.1940  139.9941  155.7172 N   0  0  0  0  0  0  0  0  0  0  0  0
  149.7162  135.2750  155.8582 H   0  0  0  0  0  0  0  0  0  0  0  0
  148.2655  136.2729  155.6843 H   0  0  0  0  0  0  0  0  0  0  0  0
  149.4145  136.5995  156.9918 H   0  0  0  0  0  0  0  0  0  0  0  0
  149.4346  143.1524  155.9408 H   0  0  0  0  0  0  0  0  0  0  0  0
  150.3443  144.5786  157.1352 H   0  0  0  0  0  0  0  0  0  0  0  0
  152.7855  144.2529  158.6095 H   0  0  0  0  0  0  0  0  0  0  0  0
  152.1118  146.4511  159.5690 H   0  0  0  0  0  0  0  0  0  0  0  0
  150.4059  146.2394  158.9183 H   0  0  0  0  0  0  0  0  0  0  0  0
  150.1305  144.1532  160.2304 H   0  0  0  0  0  0  0  0  0  0  0  0
  153.0451  144.6329  161.1278 H   0  0  0  0  0  0  0  0  0  0  0  0
  152.0834  143.2011  161.5263 H   0  0  0  0  0  0  0  0  0  0  0  0
  151.6261  144.7832  162.1774 H   0  0  0  0  0  0  0  0  0  0  0  0
  1  2  1  0  0  0  0
  1 16  1  0  0  0  0
  1 17  1  0  0  0  0
  1 18  1  0  0  0  0
  2  3  1  0  0  0  0
  3 15  1  0  0  0  0
  3  4  2  0  0  0  0
  4  5  1  0  0  0  0
  5  6  1  0  0  0  0
  6  7  1  0  0  0  0
  6 15  2  0  0  0  0
  7  8  1  0  0  0  0
  7 19  1  0  0  0  0
  8  9  2  0  0  0  0
  8 10  1  0  0  0  0
 10 11  1  0  0  0  0
 10 20  1  0  0  0  0
 11 13  1  0  0  0  0
 11 12  1  0  0  0  0
 11 21  1  0  0  0  0
 12 13  1  0  0  0  0
 12 22  1  0  0  0  0
 12 23  1  0  0  0  0
 13 14  1  0  0  0  0
 13 24  1  0  0  0  0
 14 25  1  0  0  0  0
 14 26  1  0  0  0  0
 14 27  1  0  0  0  0
M  END
> <s_m_source_file>
AV-unprocessed.smi

> <i_m_source_file_index>
1443

> <i_lp_mmshare_version>
43012

> <i_f3d_flags>
0

> <s_epik_input>
W0NIM11TYzFuc2MobjEpW05IXUMoPU8pW05IXVtDQEBIXTJbQ0gyXVtDQEhdMltDSDNd

> <s_epik_cmdline>
J2VwaWtfcHl0aG9uJywgJy1waCcsICc3LjAnLCAnLXRuJywgJzgnLCAnLW1hJywgJzIwMCcsICctbWV0YWxfYmluZGluZycsICctaW1hZScsICc8aW5maWxlLm1hZT4nLCAnLW9tYWUnLCAnPG91dGZpbGUubWFlPic=

> <r_lp_tautomer_probability>
1

> <r_epik_Ionization_Penalty>
2.74658e-05

> <r_epik_Ionization_Penalty_Charging>
0

> <r_epik_Ionization_Penalty_Neutral>
2.74658e-05

> <r_epik_State_Penalty>
-0

> <r_epik_Charging_Adjusted_Penalty>
0

> <i_epik_Tot_Q>
0

> <i_epik_Tot_abs_Q>
0

> <r_epik_Metal_State_Penalty>
-0

> <b_epik_Metal_Only>
0

> <s_lp_Force_Field>
OPLS_2005

> <r_lp_Energy>
20.7485

> <b_lp_Chiralities_Consistent>
1

> <s_lp_Variant>
AV-unprocessed.smi:1443-4

> <Gold.Version>
5.8.1

> <Gold.Id.Protein>
6NUR|6NUR_protein|mol2

> <Gold.PLP.Fitness>
38.6823

> <Gold.PLP.PLP>
-32.9105

> <Gold.PLP.part.hbond>
-3.0000

> <Gold.PLP.part.metal>
0.0000

> <Gold.PLP.part.buried>
-3.2523

> <Gold.PLP.part.nonpolar>
-27.5837

> <Gold.PLP.part.repulsive>
0.5451

> <Gold.PLP.ligand.clash>
0.0000

> <Gold.PLP.ligand.torsion>
0.6100

> <Gold.PLP.Chemscore.Hbond>
2.3197

> <Gold.PLP.Chemscore.CHOScore>
0.0000

> <Gold.PLP.Chemscore.Metal>
0.0000

> <Gold.Chemscore.Hbonds>
donor molecule, donor type, donor heavy atom, donor atom, acceptor molecule, acceptor atom, score
      L1  H     7    19       P1  8028  1.00
      L1  H    10    20       P1  8028  0.86

> <Gold.PLP.Chemscore.Internal.Correction>
0.0326

> <Gold.Rescore>
     Score         DG    S(hbond)    S(metal)    S(lipo)     H(rot)  DE(clash)    DE(int)     intcor
     13.63     -15.66       1.62        0.00      68.66       1.27       0.62       1.42       ----

> <Gold.Chemscore.Fitness>
13.6274

> <Gold.Chemscore.DG>
-15.6633

> <Gold.Chemscore.ZeroCoef>
-5.4800

> <Gold.Chemscore.Hbond>
1.6171

> <Gold.Chemscore.Metal>
0.0000

> <Gold.Chemscore.Lipo>
68.6604

> <Gold.Chemscore.Internal_Hbond>
0.0000

> <Gold.Chemscore.DEClash>
0.6168

> <Gold.Chemscore.DEInternal>
1.4192

> <Gold.Chemscore.Rot>
1.2699

> <Gold.Chemscore.Internal.Correction>
   9.000000E+99

> <Gold.Chemscore.Hbonds>
donor molecule, donor type, donor heavy atom, donor atom, acceptor molecule, acceptor atom, score
      L1  H     7    19       P1  8028  1.00
      L1  H    10    20       P1  8028  0.48

> <Gold.Chemscore.Hbond.Weighted>
-5.4010

> <Gold.Chemscore.Metal.Weighted>
-0.0000

> <Gold.Chemscore.Lipo.Weighted>
-8.0333

> <Gold.Chemscore.Internal_Hbond.Weighted>
0.0000

> <Gold.Chemscore.DEClash.Weighted>
0.6168

> <Gold.Chemscore.DEInternal.Weighted>
1.4192

> <Gold.Chemscore.Rot.Weighted>
3.2509

> <Gold.Chemscore.Internal.Correction.Weighted>
   9.000000E+99

> <Gold.Protein.RotatedTorsions>
[ 6907 6896 6895 6894 ] final    0.83 input  -60.11 | X-H torsion
[ 7974 7965 7964 7962 ] final -100.54 input  175.53 | X-H torsion
[ 8008 7997 7996 7995 ] final -128.14 input   59.86 | X-H torsion
[ 10167 10162 10161 10158 ] final -140.41 input  -65.29 | X-H torsion
[ 10718 10713 10712 10709 ] final  161.90 input   66.30 | X-H torsion
[ 10763 10752 10751 10750 ] final  152.95 input  -60.55 | X-H torsion
[ 11005 11000 10999 10996 ] final  -93.95 input  -57.11 | X-H torsion

> <Gold.Protein.ActiveResidues>
 VAL166  LYS551  ARG553  GLY616  TRP617  ASP618  TYR619  PRO620  LYS621  CYS622 
 ASP623  PHE694  ASN695  SER759  ASP760  ASP761  ALA762  ILE779  LEU786  VAL792 
 PHE793  MET794  SER795  GLU796  ALA797  LYS798  CYS799  TRP800  GLU811  SER814 

> <Gold.Protein.RotatedAtoms>
  151.5829  135.1057  160.0021 H   0  0  0  0  0  0  0  0  0  0  0  0  # atno 6907 bound_to 6896
  152.4345  133.7332  159.6610 H   0  0  0  0  0  0  0  0  0  0  0  0  # atno 6908 bound_to 6896
  150.8241  133.8131  159.3149 H   0  0  0  0  0  0  0  0  0  0  0  0  # atno 6909 bound_to 6896
  145.2932  140.9358  143.2866 H   0  0  0  0  0  0  0  0  0  0  0  0  # atno 7974 bound_to 7965
  155.2577  140.0435  157.2994 H   0  0  0  0  0  0  0  0  0  0  0  0  # atno 8008 bound_to 7997
  154.5730  140.2379  155.8133 H   0  0  0  0  0  0  0  0  0  0  0  0  # atno 8009 bound_to 7997
  156.2137  140.2991  155.9797 H   0  0  0  0  0  0  0  0  0  0  0  0  # atno 8010 bound_to 7997
  139.8284  143.7480  152.2666 H   0  0  0  0  0  0  0  0  0  0  0  0  # atno 10167 bound_to 10162
  157.1300  131.0514  151.2376 H   0  0  0  0  0  0  0  0  0  0  0  0  # atno 10718 bound_to 10713
  154.1282  135.2828  155.3191 H   0  0  0  0  0  0  0  0  0  0  0  0  # atno 10763 bound_to 10752
  154.6374  135.5414  153.7753 H   0  0  0  0  0  0  0  0  0  0  0  0  # atno 10764 bound_to 10752
  153.0290  135.6478  154.1434 H   0  0  0  0  0  0  0  0  0  0  0  0  # atno 10765 bound_to 10752
  141.1484  133.7922  157.0230 H   0  0  0  0  0  0  0  0  0  0  0  0  # atno 11005 bound_to 11000
  144.9155  139.4475  143.6566 LP  0  0  0  0  0  0  0  0  0  0  0  0  # atno 17320 bound_to 7965
  146.3178  139.7987  142.8970 LP  0  0  0  0  0  0  0  0  0  0  0  0  # atno 17321 bound_to 7965
  139.7680  144.7486  151.0267 LP  0  0  0  0  0  0  0  0  0  0  0  0  # atno 17342 bound_to 10162
  140.7808  143.4677  151.0189 LP  0  0  0  0  0  0  0  0  0  0  0  0  # atno 17343 bound_to 10162
  157.4401  130.7539  149.7062 LP  0  0  0  0  0  0  0  0  0  0  0  0  # atno 17370 bound_to 10713
  155.9810  130.4024  150.3497 LP  0  0  0  0  0  0  0  0  0  0  0  0  # atno 17371 bound_to 10713
  140.0803  134.9652  157.1613 LP  0  0  0  0  0  0  0  0  0  0  0  0  # atno 17394 bound_to 11000
  140.3586  134.2519  155.7189 LP  0  0  0  0  0  0  0  0  0  0  0  0  # atno 17395 bound_to 11000

$$$$
