AV-unprocessed.smi:2850|AV-procd|sdf|10965|dock7
  -GOLD-   2272015413D 1   1.00000     0.00000
 Structure written by MMmdl.
 45 46  0  0  0  0  0  0  0  0  2 V2000
  151.8712  139.9730  158.7659 C   0  0  0  0  0  0  0  0  0  0  0  0
  152.3279  140.2190  157.0274 S   0  0  0  0  0  0  0  0  0  0  0  0
  151.7398  138.8161  156.1280 C   0  0  0  0  0  0  0  0  0  0  0  0
  150.8291  138.9751  155.0684 C   0  0  0  0  0  0  0  0  0  0  0  0
  150.4143  137.8087  154.4027 C   0  0  0  0  0  0  0  0  0  0  0  0
  150.9409  136.5782  154.8450 C   0  0  0  0  0  0  0  0  0  0  0  0
  150.5477  135.4022  154.1905 N   0  0  0  0  0  0  0  0  0  0  0  0
  149.9832  134.2685  154.9144 C   0  0  0  0  0  0  0  0  0  0  0  0
  149.6257  133.0819  153.9997 C   0  0  2  0  0  0  0  0  0  0  0  0
  148.1814  133.1504  153.4614 C   0  0  0  0  0  0  0  0  0  0  0  0
  147.8713  131.9477  152.6532 N   0  3  2  0  0  0  0  0  0  0  0  0
  146.5189  132.0064  152.0412 C   0  0  0  0  0  0  0  0  0  0  0  0
  146.4468  132.9467  150.8183 C   0  0  0  0  0  0  0  0  0  0  0  0
  146.0963  134.3894  151.2210 C   0  0  0  0  0  0  0  0  0  0  0  0
  145.4359  132.4177  149.7902 C   0  0  0  0  0  0  0  0  0  0  0  0
  148.1174  130.7181  153.4456 C   0  0  0  0  0  0  0  0  0  0  0  0
  149.5517  130.7184  153.9987 C   0  0  0  0  0  0  0  0  0  0  0  0
  149.7660  131.8934  154.7704 O   0  0  0  0  0  0  0  0  0  0  0  0
  151.8171  136.5037  155.8789 N   0  0  0  0  0  0  0  0  0  0  0  0
  152.2159  137.6108  156.5150 N   0  0  0  0  0  0  0  0  0  0  0  0
  152.2117  140.8173  159.3652 H   0  0  0  0  0  0  0  0  0  0  0  0
  152.3303  139.0652  159.1577 H   0  0  0  0  0  0  0  0  0  0  0  0
  150.7888  139.8916  158.8685 H   0  0  0  0  0  0  0  0  0  0  0  0
  150.4639  139.9489  154.7774 H   0  0  0  0  0  0  0  0  0  0  0  0
  149.7171  137.8602  153.5793 H   0  0  0  0  0  0  0  0  0  0  0  0
  150.6533  135.3326  153.1885 H   0  0  0  0  0  0  0  0  0  0  0  0
  150.6833  133.9491  155.6874 H   0  0  0  0  0  0  0  0  0  0  0  0
  149.0902  134.6105  155.4382 H   0  0  0  0  0  0  0  0  0  0  0  0
  150.3269  133.0411  153.1647 H   0  0  0  0  0  0  0  0  0  0  0  0
  147.4712  133.2314  154.2861 H   0  0  0  0  0  0  0  0  0  0  0  0
  148.0603  134.0411  152.8437 H   0  0  0  0  0  0  0  0  0  0  0  0
  146.2038  130.9974  151.7706 H   0  0  0  0  0  0  0  0  0  0  0  0
  145.8014  132.3584  152.7842 H   0  0  0  0  0  0  0  0  0  0  0  0
  147.4167  132.9632  150.3221 H   0  0  0  0  0  0  0  0  0  0  0  0
  145.1304  134.4379  151.7250 H   0  0  0  0  0  0  0  0  0  0  0  0
  146.0462  135.0385  150.3463 H   0  0  0  0  0  0  0  0  0  0  0  0
  146.8444  134.8110  151.8928 H   0  0  0  0  0  0  0  0  0  0  0  0
  144.4286  132.3804  150.2064 H   0  0  0  0  0  0  0  0  0  0  0  0
  145.6975  131.4116  149.4609 H   0  0  0  0  0  0  0  0  0  0  0  0
  145.4057  133.0537  148.9049 H   0  0  0  0  0  0  0  0  0  0  0  0
  147.4018  130.6623  154.2673 H   0  0  0  0  0  0  0  0  0  0  0  0
  147.9709  129.8292  152.8331 H   0  0  0  0  0  0  0  0  0  0  0  0
  149.7098  129.8459  154.6327 H   0  0  0  0  0  0  0  0  0  0  0  0
  150.2820  130.6604  153.1898 H   0  0  0  0  0  0  0  0  0  0  0  0
  148.5316  131.9455  151.8887 H   0  0  0  0  0  0  0  0  0  0  0  0
  1  2  1  0  0  0  0
  1 21  1  0  0  0  0
  1 22  1  0  0  0  0
  1 23  1  0  0  0  0
  2  3  1  0  0  0  0
  3 20  1  0  0  0  0
  3  4  2  0  0  0  0
  4  5  1  0  0  0  0
  4 24  1  0  0  0  0
  5  6  2  0  0  0  0
  5 25  1  0  0  0  0
  6  7  1  0  0  0  0
  6 19  1  0  0  0  0
  7  8  1  0  0  0  0
  7 26  1  0  0  0  0
  8  9  1  0  0  0  0
  8 27  1  0  0  0  0
  8 28  1  0  0  0  0
  9 18  1  0  0  0  0
  9 10  1  0  0  0  0
  9 29  1  0  0  0  0
 10 11  1  0  0  0  0
 10 30  1  0  0  0  0
 10 31  1  0  0  0  0
 11 12  1  0  0  0  0
 11 16  1  0  0  0  0
 11 45  1  0  0  0  0
 12 13  1  0  0  0  0
 12 32  1  0  0  0  0
 12 33  1  0  0  0  0
 13 14  1  0  0  0  0
 13 15  1  0  0  0  0
 13 34  1  0  0  0  0
 14 35  1  0  0  0  0
 14 36  1  0  0  0  0
 14 37  1  0  0  0  0
 15 38  1  0  0  0  0
 15 39  1  0  0  0  0
 15 40  1  0  0  0  0
 16 17  1  0  0  0  0
 16 41  1  0  0  0  0
 16 42  1  0  0  0  0
 17 18  1  0  0  0  0
 17 43  1  0  0  0  0
 17 44  1  0  0  0  0
 19 20  2  0  0  0  0
M  CHG  1  11   1
M  END
> <s_m_source_file>
AV-unprocessed.smi

> <i_m_source_file_index>
2850

> <i_lp_mmshare_version>
43012

> <i_f3d_flags>
0

> <s_epik_input>
W0NIM11TYzFbY0hdW2NIXWMobm4xKVtOSF1bQ0gyXVtDQEBIXTJbQ0gyXU4oW0NIMl1bQ0gyXU8yKVtDSDJdW0NIXShbQ0gzXSlbQ0gzXQ==

> <s_epik_cmdline>
J2VwaWtfcHl0aG9uJywgJy1waCcsICc3LjAnLCAnLXRuJywgJzgnLCAnLW1hJywgJzIwMCcsICctbWV0YWxfYmluZGluZycsICctaW1hZScsICc8aW5maWxlLm1hZT4nLCAnLW9tYWUnLCAnPG91dGZpbGUubWFlPic=

> <r_lp_tautomer_probability>
0.999978

> <r_epik_Ionization_Penalty>
0.0874875

> <r_epik_Ionization_Penalty_Charging>
0.0831532

> <r_epik_Ionization_Penalty_Neutral>
0.00433433

> <r_epik_State_Penalty>
0.0738301

> <r_epik_Charging_Adjusted_Penalty>
0.156983

> <i_epik_Tot_Q>
1

> <i_epik_Tot_abs_Q>
1

> <r_epik_Metal_State_Penalty>
0.073888

> <b_epik_Metal_Only>
0

> <s_lp_Force_Field>
OPLS_2005

> <r_lp_Energy>
24.5925

> <b_lp_Chiralities_Consistent>
1

> <s_lp_Variant>
AV-unprocessed.smi:2850-1

> <Gold.Version>
5.8.1

> <Gold.Id.Protein>
6NUR|6NUR_protein|mol2

> <Gold.PLP.Fitness>
38.7759

> <Gold.PLP.PLP>
-35.6869

> <Gold.PLP.part.hbond>
-4.0000

> <Gold.PLP.part.metal>
0.0000

> <Gold.PLP.part.buried>
-1.9921

> <Gold.PLP.part.nonpolar>
-29.9101

> <Gold.PLP.part.repulsive>
0.1264

> <Gold.PLP.ligand.clash>
0.0000

> <Gold.PLP.ligand.torsion>
1.4449

> <Gold.PLP.Chemscore.Hbond>
1.9660

> <Gold.PLP.Chemscore.CHOScore>
0.0000

> <Gold.PLP.Chemscore.Metal>
0.0000

> <Gold.Chemscore.Hbonds>
donor molecule, donor type, donor heavy atom, donor atom, acceptor molecule, acceptor atom, score
      L1  H     7    26       P1  7949  0.20
      L1  H    11    45       P1 10747  0.80
      P1  H 10752 10763       L1    19  1.00

> <Gold.PLP.Chemscore.Internal.Correction>
0.0809

> <Gold.Rescore>
     Score         DG    S(hbond)    S(metal)    S(lipo)     H(rot)  DE(clash)    DE(int)     intcor
     15.18     -17.16       1.54        0.00      90.99       1.60       0.67       1.31       ----

> <Gold.Chemscore.Fitness>
15.1807

> <Gold.Chemscore.DG>
-17.1556

> <Gold.Chemscore.ZeroCoef>
-5.4800

> <Gold.Chemscore.Hbond>
1.5350

> <Gold.Chemscore.Metal>
0.0000

> <Gold.Chemscore.Lipo>
90.9868

> <Gold.Chemscore.Internal_Hbond>
0.0000

> <Gold.Chemscore.DEClash>
0.6666

> <Gold.Chemscore.DEInternal>
1.3083

> <Gold.Chemscore.Rot>
1.6003

> <Gold.Chemscore.Internal.Correction>
   9.000000E+99

> <Gold.Chemscore.Hbonds>
donor molecule, donor type, donor heavy atom, donor atom, acceptor molecule, acceptor atom, score
      L1  H    11    45       P1 10747  0.77
      P1  H 10752 10763       L1    19  0.26

> <Gold.Chemscore.Hbond.Weighted>
-5.1270

> <Gold.Chemscore.Metal.Weighted>
-0.0000

> <Gold.Chemscore.Lipo.Weighted>
-10.6455

> <Gold.Chemscore.Internal_Hbond.Weighted>
0.0000

> <Gold.Chemscore.DEClash.Weighted>
0.6666

> <Gold.Chemscore.DEInternal.Weighted>
1.3083

> <Gold.Chemscore.Rot.Weighted>
4.0968

> <Gold.Chemscore.Internal.Correction.Weighted>
   9.000000E+99

> <Gold.Protein.RotatedTorsions>
[ 6907 6896 6895 6894 ] final   51.57 input  -60.11 | X-H torsion
[ 7974 7965 7964 7962 ] final  139.43 input  175.53 | X-H torsion
[ 8008 7997 7996 7995 ] final   97.51 input   59.86 | X-H torsion
[ 10167 10162 10161 10158 ] final  -60.81 input  -65.29 | X-H torsion
[ 10718 10713 10712 10709 ] final  119.04 input   66.30 | X-H torsion
[ 10763 10752 10751 10750 ] final   95.36 input  -60.55 | X-H torsion
[ 11005 11000 10999 10996 ] final  -64.74 input  -57.11 | X-H torsion

> <Gold.Protein.ActiveResidues>
 VAL166  LYS551  ARG553  GLY616  TRP617  ASP618  TYR619  PRO620  LYS621  CYS622 
 ASP623  PHE694  ASN695  SER759  ASP760  ASP761  ALA762  ILE779  LEU786  VAL792 
 PHE793  MET794  SER795  GLU796  ALA797  LYS798  CYS799  TRP800  GLU811  SER814 

> <Gold.Protein.RotatedAtoms>
  152.3141  134.7461  160.0329 H   0  0  0  0  0  0  0  0  0  0  0  0  # atno 6907 bound_to 6896
  151.7932  133.3356  159.3513 H   0  0  0  0  0  0  0  0  0  0  0  0  # atno 6908 bound_to 6896
  150.7335  134.5753  159.5956 H   0  0  0  0  0  0  0  0  0  0  0  0  # atno 6909 bound_to 6896
  144.9279  139.5084  143.5632 H   0  0  0  0  0  0  0  0  0  0  0  0  # atno 7974 bound_to 7965
  156.0908  140.3257  155.7814 H   0  0  0  0  0  0  0  0  0  0  0  0  # atno 8008 bound_to 7997
  155.4999  140.0568  157.2958 H   0  0  0  0  0  0  0  0  0  0  0  0  # atno 8009 bound_to 7997
  154.4637  140.1979  156.0192 H   0  0  0  0  0  0  0  0  0  0  0  0  # atno 8010 bound_to 7997
  140.6047  143.2370  151.5849 H   0  0  0  0  0  0  0  0  0  0  0  0  # atno 10167 bound_to 10162
  157.5989  131.1054  150.7841 H   0  0  0  0  0  0  0  0  0  0  0  0  # atno 10718 bound_to 10713
  153.2523  135.4257  155.0810 H   0  0  0  0  0  0  0  0  0  0  0  0  # atno 10763 bound_to 10752
  154.8387  135.3429  154.6495 H   0  0  0  0  0  0  0  0  0  0  0  0  # atno 10764 bound_to 10752
  153.6916  135.7033  153.5145 H   0  0  0  0  0  0  0  0  0  0  0  0  # atno 10765 bound_to 10752
  141.1434  133.6670  156.5879 H   0  0  0  0  0  0  0  0  0  0  0  0  # atno 11005 bound_to 11000
  146.3234  139.8208  142.8927 LP  0  0  0  0  0  0  0  0  0  0  0  0  # atno 17320 bound_to 7965
  145.3189  141.0239  143.3512 LP  0  0  0  0  0  0  0  0  0  0  0  0  # atno 17321 bound_to 7965
  139.5316  144.2900  152.1160 LP  0  0  0  0  0  0  0  0  0  0  0  0  # atno 17342 bound_to 10162
  140.2087  144.4585  150.6396 LP  0  0  0  0  0  0  0  0  0  0  0  0  # atno 17343 bound_to 10162
  156.8245  130.4995  149.5339 LP  0  0  0  0  0  0  0  0  0  0  0  0  # atno 17370 bound_to 10713
  156.1057  130.6003  150.9967 LP  0  0  0  0  0  0  0  0  0  0  0  0  # atno 17371 bound_to 10713
  140.3786  134.7543  157.4646 LP  0  0  0  0  0  0  0  0  0  0  0  0  # atno 17394 bound_to 11000
  140.0655  134.5936  155.8700 LP  0  0  0  0  0  0  0  0  0  0  0  0  # atno 17395 bound_to 11000

$$$$
