AV-unprocessed.smi:517|AV-procd|sdf|2791|dock1
  -GOLD-   2262023263D 1   1.00000     0.00000
 Structure written by MMmdl.
 36 37  0  0  0  0  0  0  0  0  2 V2000
  155.2027  138.1129  159.0070 C   0  0  0  0  0  0  0  0  0  0  0  0
  153.7229  138.1974  158.6271 C   0  0  0  0  0  0  0  0  0  0  0  0
  153.6147  138.7358  157.3209 O   0  0  0  0  0  0  0  0  0  0  0  0
  152.2732  138.8076  156.8648 C   0  0  0  0  0  0  0  0  0  0  0  0
  151.4220  139.5576  157.8988 C   0  0  0  0  0  0  0  0  0  0  0  0
  151.1757  140.9526  157.5026 N   0  0  0  0  0  0  0  0  0  0  0  0
  150.4451  141.4710  156.4711 C   0  0  0  0  0  0  0  0  0  0  0  0
  149.6847  140.7165  155.4235 C   0  0  1  0  0  0  0  0  0  0  0  0
  148.9104  141.6694  154.5026 C   0  0  0  0  0  0  0  0  0  0  0  0
  150.5396  139.9191  154.6326 O   0  0  0  0  0  0  0  0  0  0  0  0
  150.5436  142.8289  156.5547 N   0  3  0  0  0  0  0  0  0  0  0  0
  151.3202  143.1827  157.6579 C   0  0  0  0  0  0  0  0  0  0  0  0
  151.6863  144.4306  158.1526 C   0  0  0  0  0  0  0  0  0  0  0  0
  152.4883  144.4407  159.3126 C   0  0  0  0  0  0  0  0  0  0  0  0
  152.8955  143.2422  159.9340 C   0  0  0  0  0  0  0  0  0  0  0  0
  152.5192  141.9830  159.4217 C   0  0  0  0  0  0  0  0  0  0  0  0
  151.7270  141.9820  158.2738 C   0  0  0  0  0  0  0  0  0  0  0  0
  155.3241  137.7026  160.0098 H   0  0  0  0  0  0  0  0  0  0  0  0
  155.6684  139.0985  158.9897 H   0  0  0  0  0  0  0  0  0  0  0  0
  155.7487  137.4710  158.3152 H   0  0  0  0  0  0  0  0  0  0  0  0
  153.2740  137.2038  158.6632 H   0  0  0  0  0  0  0  0  0  0  0  0
  153.1897  138.8280  159.3401 H   0  0  0  0  0  0  0  0  0  0  0  0
  152.2331  139.3257  155.9054 H   0  0  0  0  0  0  0  0  0  0  0  0
  151.8737  137.8042  156.7114 H   0  0  0  0  0  0  0  0  0  0  0  0
  150.4665  139.0569  158.0568 H   0  0  0  0  0  0  0  0  0  0  0  0
  151.9218  139.5634  158.8670 H   0  0  0  0  0  0  0  0  0  0  0  0
  148.9689  140.0510  155.9041 H   0  0  0  0  0  0  0  0  0  0  0  0
  148.2133  142.2823  155.0741 H   0  0  0  0  0  0  0  0  0  0  0  0
  148.3301  141.1153  153.7640 H   0  0  0  0  0  0  0  0  0  0  0  0
  149.5791  142.3405  153.9624 H   0  0  0  0  0  0  0  0  0  0  0  0
  150.3011  139.0127  154.7535 H   0  0  0  0  0  0  0  0  0  0  0  0
  151.3735  145.3499  157.6794 H   0  0  0  0  0  0  0  0  0  0  0  0
  152.7957  145.3863  159.7352 H   0  0  0  0  0  0  0  0  0  0  0  0
  153.5086  143.2891  160.8225 H   0  0  0  0  0  0  0  0  0  0  0  0
  152.8345  141.0715  159.9073 H   0  0  0  0  0  0  0  0  0  0  0  0
  150.1018  143.4639  155.9023 H   0  0  0  0  0  0  0  0  0  0  0  0
  1  2  1  0  0  0  0
  1 18  1  0  0  0  0
  1 19  1  0  0  0  0
  1 20  1  0  0  0  0
  2  3  1  0  0  0  0
  2 21  1  0  0  0  0
  2 22  1  0  0  0  0
  3  4  1  0  0  0  0
  4  5  1  0  0  0  0
  4 23  1  0  0  0  0
  4 24  1  0  0  0  0
  5  6  1  0  0  0  0
  5 25  1  0  0  0  0
  5 26  1  0  0  0  0
  6 17  1  0  0  0  0
  6  7  1  0  0  0  0
  7  8  1  0  0  0  0
  7 11  2  0  0  0  0
  8  9  1  0  0  0  0
  8 10  1  0  0  0  0
  8 27  1  0  0  0  0
  9 28  1  0  0  0  0
  9 29  1  0  0  0  0
  9 30  1  0  0  0  0
 10 31  1  0  0  0  0
 11 12  1  0  0  0  0
 11 36  1  0  0  0  0
 12 17  2  0  0  0  0
 12 13  1  0  0  0  0
 13 14  2  0  0  0  0
 13 32  1  0  0  0  0
 14 15  1  0  0  0  0
 14 33  1  0  0  0  0
 15 16  2  0  0  0  0
 15 34  1  0  0  0  0
 16 17  1  0  0  0  0
 16 35  1  0  0  0  0
M  CHG  1  11   1
M  END
> <s_m_source_file>
AV-unprocessed.smi

> <i_m_source_file_index>
517

> <i_lp_mmshare_version>
43012

> <i_f3d_flags>
0

> <s_epik_input>
W0NIM11bQ0gyXU9bQ0gyXVtDSDJdbihjKG4xKVtDQEhdKFtDSDNdKVtPSF0pYyhjMTIpW2NIXVtjSF1bY0hdW2NIXTI=

> <s_epik_cmdline>
J2VwaWtfcHl0aG9uJywgJy1waCcsICc3LjAnLCAnLXRuJywgJzgnLCAnLW1hJywgJzIwMCcsICctbWV0YWxfYmluZGluZycsICctaW1hZScsICc8aW5maWxlLm1hZT4nLCAnLW9tYWUnLCAnPG91dGZpbGUubWFlPic=

> <r_epik_Ionization_Penalty>
1.46962

> <r_epik_Ionization_Penalty_Charging>
1.46959

> <r_epik_Ionization_Penalty_Neutral>
2.92192e-05

> <r_epik_State_Penalty>
1.55729

> <r_epik_Charging_Adjusted_Penalty>
3.02688

> <i_epik_Tot_Q>
1

> <i_epik_Tot_abs_Q>
1

> <r_epik_Metal_State_Penalty>
5.60569

> <b_epik_Metal_Only>
0

> <s_lp_Force_Field>
OPLS_2005

> <r_lp_Energy>
10.1165

> <b_lp_Chiralities_Consistent>
1

> <s_lp_Variant>
AV-unprocessed.smi:517-4

> <Gold.Version>
5.8.1

> <Gold.Id.Protein>
6NUR|6NUR_protein|mol2

> <Gold.PLP.Fitness>
49.0608

> <Gold.PLP.PLP>
-37.8334

> <Gold.PLP.part.hbond>
-2.8305

> <Gold.PLP.part.metal>
0.0000

> <Gold.PLP.part.buried>
-4.2485

> <Gold.PLP.part.nonpolar>
-31.5169

> <Gold.PLP.part.repulsive>
0.0647

> <Gold.PLP.ligand.clash>
0.0000

> <Gold.PLP.ligand.torsion>
0.3801

> <Gold.PLP.Chemscore.Hbond>
3.9840

> <Gold.PLP.Chemscore.CHOScore>
0.0000

> <Gold.PLP.Chemscore.Metal>
0.0000

> <Gold.Chemscore.Hbonds>
donor molecule, donor type, donor heavy atom, donor atom, acceptor molecule, acceptor atom, score
      L1  H    11    36       P1  8028  1.89
      P1  H  7989  7998       L1    10  1.00
      P1  H  7997  8008       L1     3  1.00

> <Gold.PLP.Chemscore.Internal.Correction>
0.0355

> <Gold.Rescore>
     Score         DG    S(hbond)    S(metal)    S(lipo)     H(rot)  DE(clash)    DE(int)     intcor
     20.44     -21.09       2.85        0.00      99.64       2.18       0.20       0.45       ----

> <Gold.Chemscore.Fitness>
20.4419

> <Gold.Chemscore.DG>
-21.0869

> <Gold.Chemscore.ZeroCoef>
-5.4800

> <Gold.Chemscore.Hbond>
2.8532

> <Gold.Chemscore.Metal>
0.0000

> <Gold.Chemscore.Lipo>
99.6366

> <Gold.Chemscore.Internal_Hbond>
0.0000

> <Gold.Chemscore.DEClash>
0.1963

> <Gold.Chemscore.DEInternal>
0.4488

> <Gold.Chemscore.Rot>
2.1797

> <Gold.Chemscore.Internal.Correction>
   9.000000E+99

> <Gold.Chemscore.Hbonds>
donor molecule, donor type, donor heavy atom, donor atom, acceptor molecule, acceptor atom, score
      L1  H    11    36       P1  8028  0.91
      P1  H  7989  7998       L1    10  0.88
      P1  H  7997  8008       L1     3  0.81

> <Gold.Chemscore.Hbond.Weighted>
-9.5296

> <Gold.Chemscore.Metal.Weighted>
-0.0000

> <Gold.Chemscore.Lipo.Weighted>
-11.6575

> <Gold.Chemscore.Internal_Hbond.Weighted>
0.0000

> <Gold.Chemscore.DEClash.Weighted>
0.1963

> <Gold.Chemscore.DEInternal.Weighted>
0.4488

> <Gold.Chemscore.Rot.Weighted>
5.5801

> <Gold.Chemscore.Internal.Correction.Weighted>
   9.000000E+99

> <Gold.Protein.RotatedTorsions>
[ 6907 6896 6895 6894 ] final   37.73 input  -60.11 | X-H torsion
[ 7974 7965 7964 7962 ] final   95.17 input  175.53 | X-H torsion
[ 8008 7997 7996 7995 ] final  -76.30 input   59.86 | X-H torsion
[ 10167 10162 10161 10158 ] final -153.82 input  -65.29 | X-H torsion
[ 10718 10713 10712 10709 ] final -112.08 input   66.30 | X-H torsion
[ 10763 10752 10751 10750 ] final  -71.17 input  -60.55 | X-H torsion
[ 11005 11000 10999 10996 ] final -129.69 input  -57.11 | X-H torsion

> <Gold.Protein.ActiveResidues>
 VAL166  LYS551  ARG553  GLY616  TRP617  ASP618  TYR619  PRO620  LYS621  CYS622 
 ASP623  PHE694  ASN695  SER759  ASP760  ASP761  ALA762  ILE779  LEU786  VAL792 
 PHE793  MET794  SER795  GLU796  ALA797  LYS798  CYS799  TRP800  GLU811  SER814 

> <Gold.Protein.RotatedAtoms>
  152.1471  134.9017  160.0550 H   0  0  0  0  0  0  0  0  0  0  0  0  # atno 6907 bound_to 6896
  152.0063  133.3839  159.4210 H   0  0  0  0  0  0  0  0  0  0  0  0  # atno 6908 bound_to 6896
  150.6871  134.3701  159.5032 H   0  0  0  0  0  0  0  0  0  0  0  0  # atno 6909 bound_to 6896
  145.4558  139.2290  143.3015 H   0  0  0  0  0  0  0  0  0  0  0  0  # atno 7974 bound_to 7965
  154.5493  140.0729  156.8641 H   0  0  0  0  0  0  0  0  0  0  0  0  # atno 8008 bound_to 7997
  155.3025  140.3385  155.4229 H   0  0  0  0  0  0  0  0  0  0  0  0  # atno 8009 bound_to 7997
  156.1946  140.1699  156.8009 H   0  0  0  0  0  0  0  0  0  0  0  0  # atno 8010 bound_to 7997
  139.7065  143.9178  152.2451 H   0  0  0  0  0  0  0  0  0  0  0  0  # atno 10167 bound_to 10162
  156.0684  130.5901  150.8460 H   0  0  0  0  0  0  0  0  0  0  0  0  # atno 10718 bound_to 10713
  154.4280  135.5970  153.6051 H   0  0  0  0  0  0  0  0  0  0  0  0  # atno 10763 bound_to 10752
  152.9797  135.5968  154.3874 H   0  0  0  0  0  0  0  0  0  0  0  0  # atno 10764 bound_to 10752
  154.3708  135.2841  155.2246 H   0  0  0  0  0  0  0  0  0  0  0  0  # atno 10765 bound_to 10752
  140.9410  134.1193  157.4151 H   0  0  0  0  0  0  0  0  0  0  0  0  # atno 11005 bound_to 11000
  146.2479  140.5322  142.8906 LP  0  0  0  0  0  0  0  0  0  0  0  0  # atno 17320 bound_to 7965
  144.8033  140.6254  143.6463 LP  0  0  0  0  0  0  0  0  0  0  0  0  # atno 17321 bound_to 7965
  139.9035  144.6898  150.8639 LP  0  0  0  0  0  0  0  0  0  0  0  0  # atno 17342 bound_to 10162
  140.7723  143.3496  151.2041 LP  0  0  0  0  0  0  0  0  0  0  0  0  # atno 17343 bound_to 10162
  157.5741  131.0946  150.9373 LP  0  0  0  0  0  0  0  0  0  0  0  0  # atno 17370 bound_to 10713
  156.9583  130.5445  149.5285 LP  0  0  0  0  0  0  0  0  0  0  0  0  # atno 17371 bound_to 10713
  139.8820  135.0036  156.6199 LP  0  0  0  0  0  0  0  0  0  0  0  0  # atno 17394 bound_to 11000
  140.7734  133.8719  155.8510 LP  0  0  0  0  0  0  0  0  0  0  0  0  # atno 17395 bound_to 11000

$$$$
