AV-unprocessed.smi:2460|AV-procd|sdf|9714|dock1
  -GOLD-   2272013353D 1   1.00000     0.00000
 Structure written by MMmdl.
 46 48  0  0  0  0  0  0  0  0  1 V2000
  146.4732  130.6911  152.7965 C   0  0  0  0  0  0  0  0  0  0  0  0
  147.6117  131.1162  153.7366 C   0  0  0  0  0  0  0  0  0  0  0  0
  148.5265  129.9250  154.0685 C   0  0  0  0  0  0  0  0  0  0  0  0
  148.4033  132.3107  153.1900 C   0  0  0  0  0  0  0  0  0  0  0  0
  148.7399  133.1035  154.4377 C   0  0  1  0  0  0  0  0  0  0  0  0
  148.9954  134.5086  154.1268 N   0  0  0  0  0  0  0  0  0  0  0  0
  149.4043  135.4327  155.0063 C   0  0  0  0  0  0  0  0  0  0  0  0
  149.6379  135.1897  156.1897 O   0  0  0  0  0  0  0  0  0  0  0  0
  149.5355  136.6338  154.4193 N   0  0  0  0  0  0  0  0  0  0  0  0
  149.8893  137.8730  155.0167 C   0  0  0  0  0  0  0  0  0  0  0  0
  150.4401  138.9824  154.3284 C   0  0  0  0  0  0  0  0  0  0  0  0
  150.7695  140.1238  154.9716 N   0  0  0  0  0  0  0  0  0  0  0  0
  150.5667  140.1566  156.2914 C   0  0  0  0  0  0  0  0  0  0  0  0
  150.8913  141.4404  156.9896 C   0  0  0  0  0  0  0  0  0  0  0  0
  151.9271  141.4821  158.0945 C   0  0  0  0  0  0  0  0  0  0  0  0
  150.4734  141.6693  158.4278 C   0  0  0  0  0  0  0  0  0  0  0  0
  150.0549  139.1774  157.0426 N   0  0  0  0  0  0  0  0  0  0  0  0
  149.7246  138.0324  156.4085 C   0  0  0  0  0  0  0  0  0  0  0  0
  147.4948  132.8709  155.3221 C   0  0  0  0  0  0  0  0  0  0  0  0
  147.8327  132.8529  156.8212 C   0  0  0  0  0  0  0  0  0  0  0  0
  146.3239  133.8355  155.0389 C   0  0  0  0  0  0  0  0  0  0  0  0
  147.0408  131.5665  154.9643 O   0  0  0  0  0  0  0  0  0  0  0  0
  146.8611  130.3552  151.8344 H   0  0  0  0  0  0  0  0  0  0  0  0
  145.7851  131.5161  152.6091 H   0  0  0  0  0  0  0  0  0  0  0  0
  145.8931  129.8735  153.2256 H   0  0  0  0  0  0  0  0  0  0  0  0
  149.0095  129.5367  153.1716 H   0  0  0  0  0  0  0  0  0  0  0  0
  147.9606  129.1092  154.5195 H   0  0  0  0  0  0  0  0  0  0  0  0
  149.3106  130.2067  154.7717 H   0  0  0  0  0  0  0  0  0  0  0  0
  149.2876  132.0169  152.6230 H   0  0  0  0  0  0  0  0  0  0  0  0
  147.7757  132.9083  152.5267 H   0  0  0  0  0  0  0  0  0  0  0  0
  149.6205  132.6514  154.8990 H   0  0  0  0  0  0  0  0  0  0  0  0
  148.8345  134.7980  153.1733 H   0  0  0  0  0  0  0  0  0  0  0  0
  149.3911  136.6593  153.4204 H   0  0  0  0  0  0  0  0  0  0  0  0
  150.6429  138.9719  153.2692 H   0  0  0  0  0  0  0  0  0  0  0  0
  150.8441  142.2852  156.3052 H   0  0  0  0  0  0  0  0  0  0  0  0
  152.3914  140.5437  158.3919 H   0  0  0  0  0  0  0  0  0  0  0  0
  152.5717  142.3573  158.1437 H   0  0  0  0  0  0  0  0  0  0  0  0
  150.1438  142.6698  158.7000 H   0  0  0  0  0  0  0  0  0  0  0  0
  149.9705  140.8554  158.9466 H   0  0  0  0  0  0  0  0  0  0  0  0
  149.3215  137.2382  157.0196 H   0  0  0  0  0  0  0  0  0  0  0  0
  148.1715  133.8304  157.1642 H   0  0  0  0  0  0  0  0  0  0  0  0
  148.6197  132.1309  157.0415 H   0  0  0  0  0  0  0  0  0  0  0  0
  146.9614  132.5787  157.4166 H   0  0  0  0  0  0  0  0  0  0  0  0
  146.5683  134.8593  155.3237 H   0  0  0  0  0  0  0  0  0  0  0  0
  145.4370  133.5456  155.6031 H   0  0  0  0  0  0  0  0  0  0  0  0
  146.0497  133.8385  153.9840 H   0  0  0  0  0  0  0  0  0  0  0  0
  1  2  1  0  0  0  0
  1 23  1  0  0  0  0
  1 24  1  0  0  0  0
  1 25  1  0  0  0  0
  2 22  1  0  0  0  0
  2  3  1  0  0  0  0
  2  4  1  0  0  0  0
  3 26  1  0  0  0  0
  3 27  1  0  0  0  0
  3 28  1  0  0  0  0
  4  5  1  0  0  0  0
  4 29  1  0  0  0  0
  4 30  1  0  0  0  0
  5  6  1  0  0  0  0
  5 19  1  0  0  0  0
  5 31  1  0  0  0  0
  6  7  1  0  0  0  0
  6 32  1  0  0  0  0
  7  8  2  0  0  0  0
  7  9  1  0  0  0  0
  9 10  1  0  0  0  0
  9 33  1  0  0  0  0
 10 18  1  0  0  0  0
 10 11  2  0  0  0  0
 11 12  1  0  0  0  0
 11 34  1  0  0  0  0
 12 13  2  0  0  0  0
 13 14  1  0  0  0  0
 13 17  1  0  0  0  0
 14 16  1  0  0  0  0
 14 15  1  0  0  0  0
 14 35  1  0  0  0  0
 15 16  1  0  0  0  0
 15 36  1  0  0  0  0
 15 37  1  0  0  0  0
 16 38  1  0  0  0  0
 16 39  1  0  0  0  0
 17 18  2  0  0  0  0
 18 40  1  0  0  0  0
 19 20  1  0  0  0  0
 19 21  1  0  0  0  0
 19 22  1  0  0  0  0
 20 41  1  0  0  0  0
 20 42  1  0  0  0  0
 20 43  1  0  0  0  0
 21 44  1  0  0  0  0
 21 45  1  0  0  0  0
 21 46  1  0  0  0  0
M  END
> <s_m_source_file>
AV-unprocessed.smi

> <i_m_source_file_index>
2460

> <i_lp_mmshare_version>
43012

> <i_f3d_flags>
0

> <s_epik_input>
W0NIM11DMShbQ0gzXSlbQ0gyXVtDQEhdKEMoTzEpKFtDSDNdKVtDSDNdKVtOSF1DKD1PKVtOSF1jMltjSF1uYyhuW2NIXTIpW0NIXTNbQ0gyXVtDSDJdMw==

> <s_epik_cmdline>
J2VwaWtfcHl0aG9uJywgJy1waCcsICc3LjAnLCAnLXRuJywgJzgnLCAnLW1hJywgJzIwMCcsICctbWV0YWxfYmluZGluZycsICctaW1hZScsICc8aW5maWxlLm1hZT4nLCAnLW9tYWUnLCAnPG91dGZpbGUubWFlPic=

> <r_lp_tautomer_probability>
1

> <r_epik_Ionization_Penalty>
2.38399e-05

> <r_epik_Ionization_Penalty_Charging>
0

> <r_epik_Ionization_Penalty_Neutral>
2.38399e-05

> <r_epik_State_Penalty>
-0

> <r_epik_Charging_Adjusted_Penalty>
0

> <i_epik_Tot_Q>
0

> <i_epik_Tot_abs_Q>
0

> <r_epik_Metal_State_Penalty>
-0

> <b_epik_Metal_Only>
0

> <s_lp_Force_Field>
OPLS_2005

> <r_lp_Energy>
18.1124

> <b_lp_Chiralities_Consistent>
1

> <s_lp_Variant>
AV-unprocessed.smi:2460-1

> <Gold.Version>
5.8.1

> <Gold.Id.Protein>
6NUR|6NUR_protein|mol2

> <Gold.PLP.Fitness>
38.6288

> <Gold.PLP.PLP>
-27.7595

> <Gold.PLP.part.hbond>
-3.0000

> <Gold.PLP.part.metal>
0.0000

> <Gold.PLP.part.buried>
-4.5836

> <Gold.PLP.part.nonpolar>
-20.1067

> <Gold.PLP.part.repulsive>
0.1701

> <Gold.PLP.ligand.clash>
0.0000

> <Gold.PLP.ligand.torsion>
0.2466

> <Gold.PLP.Chemscore.Hbond>
2.7440

> <Gold.PLP.Chemscore.CHOScore>
1.0000

> <Gold.PLP.Chemscore.Metal>
0.0000

> <Gold.Chemscore.Hbonds>
donor molecule, donor type, donor heavy atom, donor atom, acceptor molecule, acceptor atom, score
      L1  H     6    32       P1  7948  0.91
      L1  H     9    33       P1  7948  1.00
      P1  H  7989  7998       L1    12  0.70
      L1  C    11    34       P1  7957  0.92

> <Gold.PLP.Chemscore.Internal.Correction>
0.1304

> <Gold.Rescore>
     Score         DG    S(hbond)    S(metal)    S(lipo)     H(rot)  DE(clash)    DE(int)     intcor
     13.43     -16.08       1.81        0.00      64.77       1.18       0.23       2.42       ----

> <Gold.Chemscore.Fitness>
13.4262

> <Gold.Chemscore.DG>
-16.0806

> <Gold.Chemscore.ZeroCoef>
-5.4800

> <Gold.Chemscore.Hbond>
1.8080

> <Gold.Chemscore.Metal>
0.0000

> <Gold.Chemscore.Lipo>
64.7743

> <Gold.Chemscore.Internal_Hbond>
0.0000

> <Gold.Chemscore.DEClash>
0.2306

> <Gold.Chemscore.DEInternal>
2.4238

> <Gold.Chemscore.Rot>
1.1785

> <Gold.Chemscore.Internal.Correction>
   9.000000E+99

> <Gold.Chemscore.Hbonds>
donor molecule, donor type, donor heavy atom, donor atom, acceptor molecule, acceptor atom, score
      L1  H     6    32       P1  7948  0.20
      L1  H     9    33       P1  7948  0.88
      P1  H  7989  7998       L1    12  0.07

> <Gold.Chemscore.Hbond.Weighted>
-6.0389

> <Gold.Chemscore.Metal.Weighted>
-0.0000

> <Gold.Chemscore.Lipo.Weighted>
-7.5786

> <Gold.Chemscore.Internal_Hbond.Weighted>
0.0000

> <Gold.Chemscore.DEClash.Weighted>
0.2306

> <Gold.Chemscore.DEInternal.Weighted>
2.4238

> <Gold.Chemscore.Rot.Weighted>
3.0169

> <Gold.Chemscore.Internal.Correction.Weighted>
   9.000000E+99

> <Gold.Protein.RotatedTorsions>
[ 6907 6896 6895 6894 ] final  174.35 input  -60.11 | X-H torsion
[ 7974 7965 7964 7962 ] final   21.35 input  175.53 | X-H torsion
[ 8008 7997 7996 7995 ] final -113.47 input   59.86 | X-H torsion
[ 10167 10162 10161 10158 ] final   68.48 input  -65.29 | X-H torsion
[ 10718 10713 10712 10709 ] final  -74.89 input   66.30 | X-H torsion
[ 10763 10752 10751 10750 ] final -124.30 input  -60.55 | X-H torsion
[ 11005 11000 10999 10996 ] final -152.23 input  -57.11 | X-H torsion

> <Gold.Protein.ActiveResidues>
 VAL166  LYS551  ARG553  GLY616  TRP617  ASP618  TYR619  PRO620  LYS621  CYS622 
 ASP623  PHE694  ASN695  SER759  ASP760  ASP761  ALA762  ILE779  LEU786  VAL792 
 PHE793  MET794  SER795  GLU796  ALA797  LYS798  CYS799  TRP800  GLU811  SER814 

> <Gold.Protein.RotatedAtoms>
  151.7537  133.3329  159.3398 H   0  0  0  0  0  0  0  0  0  0  0  0  # atno 6907 bound_to 6896
  150.7525  134.6169  159.6125 H   0  0  0  0  0  0  0  0  0  0  0  0  # atno 6908 bound_to 6896
  152.3452  134.7083  160.0304 H   0  0  0  0  0  0  0  0  0  0  0  0  # atno 6909 bound_to 6896
  146.2075  139.8040  142.8715 H   0  0  0  0  0  0  0  0  0  0  0  0  # atno 7974 bound_to 7965
  155.0213  140.0393  157.2438 H   0  0  0  0  0  0  0  0  0  0  0  0  # atno 8008 bound_to 7997
  154.7375  140.2742  155.6378 H   0  0  0  0  0  0  0  0  0  0  0  0  # atno 8009 bound_to 7997
  156.2856  140.2672  156.2093 H   0  0  0  0  0  0  0  0  0  0  0  0  # atno 8010 bound_to 7997
  140.0782  144.5094  150.7180 H   0  0  0  0  0  0  0  0  0  0  0  0  # atno 10167 bound_to 10162
  156.0226  130.4427  150.2960 H   0  0  0  0  0  0  0  0  0  0  0  0  # atno 10718 bound_to 10713
  154.8721  135.4068  154.3084 H   0  0  0  0  0  0  0  0  0  0  0  0  # atno 10763 bound_to 10752
  153.3931  135.7015  153.6485 H   0  0  0  0  0  0  0  0  0  0  0  0  # atno 10764 bound_to 10752
  153.5259  135.3677  155.2625 H   0  0  0  0  0  0  0  0  0  0  0  0  # atno 10765 bound_to 10752
  140.7211  134.3726  157.5183 H   0  0  0  0  0  0  0  0  0  0  0  0  # atno 11005 bound_to 11000
  145.3266  141.0257  143.3470 LP  0  0  0  0  0  0  0  0  0  0  0  0  # atno 17320 bound_to 7965
  144.8828  139.4880  143.6715 LP  0  0  0  0  0  0  0  0  0  0  0  0  # atno 17321 bound_to 7965
  140.7091  143.2491  151.4636 LP  0  0  0  0  0  0  0  0  0  0  0  0  # atno 17342 bound_to 10162
  139.5795  144.1742  152.1949 LP  0  0  0  0  0  0  0  0  0  0  0  0  # atno 17343 bound_to 10162
  157.1063  131.0209  151.3065 LP  0  0  0  0  0  0  0  0  0  0  0  0  # atno 17370 bound_to 10713
  157.4740  130.7725  149.7350 LP  0  0  0  0  0  0  0  0  0  0  0  0  # atno 17371 bound_to 10713
  139.8848  134.8955  156.2682 LP  0  0  0  0  0  0  0  0  0  0  0  0  # atno 17394 bound_to 11000
  141.0003  133.7155  156.0949 LP  0  0  0  0  0  0  0  0  0  0  0  0  # atno 17395 bound_to 11000

$$$$
