AV-unprocessed.smi:1225|AV-procd|sdf|5137|dock6
  -GOLD-   22720 4203D 1   1.00000     0.00000
 Structure written by MMmdl.
 48 50  0  0  0  0  0  0  0  0  1 V2000
  142.9532  147.0271  154.6990 C   0  0  0  0  0  0  0  0  0  0  0  0
  143.8489  145.8359  154.7099 C   0  0  0  0  0  0  0  0  0  0  0  0
  144.1968  145.1821  155.8207 N   0  0  0  0  0  0  0  0  0  0  0  0
  145.0433  144.1022  155.5603 C   0  0  0  0  0  0  0  0  0  0  0  0
  145.3403  143.9385  154.2295 C   0  0  0  0  0  0  0  0  0  0  0  0
  146.2098  142.8907  153.6131 C   0  0  0  0  0  0  0  0  0  0  0  0
  147.1504  142.2836  154.5596 N   0  0  0  0  0  0  0  0  0  0  0  0
  146.4534  141.3280  155.4173 C   0  0  0  0  0  0  0  0  0  0  0  0
  148.2732  141.6361  153.8753 C   0  0  0  0  0  0  0  0  0  0  0  0
  149.3418  141.0078  154.7976 C   0  0  1  0  0  0  0  0  0  0  0  0
  149.9317  139.9420  154.0787 O   0  0  0  0  0  0  0  0  0  0  0  0
  150.4505  141.9667  155.2813 C   0  0  0  0  0  0  0  0  0  0  0  0
  151.2083  141.4347  156.4005 N   0  0  0  0  0  0  0  0  0  0  0  0
  151.7882  140.2223  156.4887 C   0  0  0  0  0  0  0  0  0  0  0  0
  152.4445  139.9414  157.6106 N   0  0  0  0  0  0  0  0  0  0  0  0
  152.2729  141.1093  158.3338 C   0  0  0  0  0  0  0  0  0  0  0  0
  152.7307  141.4660  159.6210 C   0  0  0  0  0  0  0  0  0  0  0  0
  152.4346  142.7341  160.1699 C   0  0  0  0  0  0  0  0  0  0  0  0
  152.9490  143.0758  161.5571 C   0  0  0  0  0  0  0  0  0  0  0  0
  151.6665  143.6677  159.4283 C   0  0  0  0  0  0  0  0  0  0  0  0
  151.3329  145.0345  159.9993 C   0  0  0  0  0  0  0  0  0  0  0  0
  151.2037  143.3282  158.1398 C   0  0  0  0  0  0  0  0  0  0  0  0
  151.5054  142.0636  157.6045 C   0  0  0  0  0  0  0  0  0  0  0  0
  144.5578  145.1528  153.2519 S   0  0  0  0  0  0  0  0  0  0  0  0
  142.4843  147.1644  155.6739 H   0  0  0  0  0  0  0  0  0  0  0  0
  142.1709  146.8990  153.9508 H   0  0  0  0  0  0  0  0  0  0  0  0
  143.5272  147.9218  154.4579 H   0  0  0  0  0  0  0  0  0  0  0  0
  145.3895  143.4967  156.3851 H   0  0  0  0  0  0  0  0  0  0  0  0
  145.5886  142.1141  153.1643 H   0  0  0  0  0  0  0  0  0  0  0  0
  146.7391  143.3453  152.7800 H   0  0  0  0  0  0  0  0  0  0  0  0
  147.1331  140.9040  156.1571 H   0  0  0  0  0  0  0  0  0  0  0  0
  146.0323  140.5080  154.8336 H   0  0  0  0  0  0  0  0  0  0  0  0
  145.6417  141.8063  155.9659 H   0  0  0  0  0  0  0  0  0  0  0  0
  147.8862  140.8191  153.2639 H   0  0  0  0  0  0  0  0  0  0  0  0
  148.7336  142.3270  153.1672 H   0  0  0  0  0  0  0  0  0  0  0  0
  148.8436  140.5718  155.6644 H   0  0  0  0  0  0  0  0  0  0  0  0
  149.5093  139.8777  153.2360 H   0  0  0  0  0  0  0  0  0  0  0  0
  151.1417  142.1938  154.4682 H   0  0  0  0  0  0  0  0  0  0  0  0
  150.0161  142.9110  155.6086 H   0  0  0  0  0  0  0  0  0  0  0  0
  151.7244  139.5046  155.6839 H   0  0  0  0  0  0  0  0  0  0  0  0
  153.3150  140.7545  160.1859 H   0  0  0  0  0  0  0  0  0  0  0  0
  152.1172  143.2293  162.2447 H   0  0  0  0  0  0  0  0  0  0  0  0
  153.5500  143.9850  161.5308 H   0  0  0  0  0  0  0  0  0  0  0  0
  153.5727  142.2765  161.9583 H   0  0  0  0  0  0  0  0  0  0  0  0
  150.6802  145.5965  159.3305 H   0  0  0  0  0  0  0  0  0  0  0  0
  152.2423  145.6168  160.1486 H   0  0  0  0  0  0  0  0  0  0  0  0
  150.8225  144.9365  160.9577 H   0  0  0  0  0  0  0  0  0  0  0  0
  150.6196  144.0300  157.5626 H   0  0  0  0  0  0  0  0  0  0  0  0
  1  2  1  0  0  0  0
  1 25  1  0  0  0  0
  1 26  1  0  0  0  0
  1 27  1  0  0  0  0
  2 24  1  0  0  0  0
  2  3  2  0  0  0  0
  3  4  1  0  0  0  0
  4  5  2  0  0  0  0
  4 28  1  0  0  0  0
  5  6  1  0  0  0  0
  5 24  1  0  0  0  0
  6  7  1  0  0  0  0
  6 29  1  0  0  0  0
  6 30  1  0  0  0  0
  7  8  1  0  0  0  0
  7  9  1  0  0  0  0
  8 31  1  0  0  0  0
  8 32  1  0  0  0  0
  8 33  1  0  0  0  0
  9 10  1  0  0  0  0
  9 34  1  0  0  0  0
  9 35  1  0  0  0  0
 10 11  1  0  0  0  0
 10 12  1  0  0  0  0
 10 36  1  0  0  0  0
 11 37  1  0  0  0  0
 12 13  1  0  0  0  0
 12 38  1  0  0  0  0
 12 39  1  0  0  0  0
 13 23  1  0  0  0  0
 13 14  1  0  0  0  0
 14 15  2  0  0  0  0
 14 40  1  0  0  0  0
 15 16  1  0  0  0  0
 16 23  2  0  0  0  0
 16 17  1  0  0  0  0
 17 18  2  0  0  0  0
 17 41  1  0  0  0  0
 18 19  1  0  0  0  0
 18 20  1  0  0  0  0
 19 42  1  0  0  0  0
 19 43  1  0  0  0  0
 19 44  1  0  0  0  0
 20 21  1  0  0  0  0
 20 22  2  0  0  0  0
 21 45  1  0  0  0  0
 21 46  1  0  0  0  0
 21 47  1  0  0  0  0
 22 23  1  0  0  0  0
 22 48  1  0  0  0  0
M  END
> <s_m_source_file>
AV-unprocessed.smi

> <i_m_source_file_index>
1225

> <i_lp_mmshare_version>
43012

> <i_f3d_flags>
0

> <s_epik_input>
W0NIM11jMW5bY0hdYyhzMSlbQ0gyXU4oW0NIM10pW0NIMl1bQ0BIXShbT0hdKVtDSDJdbihbY0hdbjIpYyhjMjMpW2NIXWMoW0NIM10pYyhbY0hdMylbQ0gzXQ==

> <s_epik_cmdline>
J2VwaWtfcHl0aG9uJywgJy1waCcsICc3LjAnLCAnLXRuJywgJzgnLCAnLW1hJywgJzIwMCcsICctbWV0YWxfYmluZGluZycsICctaW1hZScsICc8aW5maWxlLm1hZT4nLCAnLW9tYWUnLCAnPG91dGZpbGUubWFlPic=

> <r_epik_Ionization_Penalty>
0.12717

> <r_epik_Ionization_Penalty_Charging>
0

> <r_epik_Ionization_Penalty_Neutral>
0.12717

> <r_epik_State_Penalty>
0.11216

> <r_epik_Charging_Adjusted_Penalty>
0.11216

> <i_epik_Tot_Q>
0

> <i_epik_Tot_abs_Q>
0

> <r_epik_Metal_State_Penalty>
0.099641

> <b_epik_Metal_Only>
0

> <s_lp_Force_Field>
OPLS_2005

> <r_lp_Energy>
16.9623

> <b_lp_Chiralities_Consistent>
1

> <s_lp_Variant>
AV-unprocessed.smi:1225-2

> <Gold.Version>
5.8.1

> <Gold.Id.Protein>
6NUR|6NUR_protein|mol2

> <Gold.PLP.Fitness>
60.1649

> <Gold.PLP.PLP>
-53.2102

> <Gold.PLP.part.hbond>
-3.0000

> <Gold.PLP.part.metal>
0.0000

> <Gold.PLP.part.buried>
-5.5112

> <Gold.PLP.part.nonpolar>
-42.5982

> <Gold.PLP.part.repulsive>
0.2204

> <Gold.PLP.ligand.clash>
0.0000

> <Gold.PLP.ligand.torsion>
0.9730

> <Gold.PLP.Chemscore.Hbond>
2.8880

> <Gold.PLP.Chemscore.CHOScore>
0.0000

> <Gold.PLP.Chemscore.Metal>
0.0000

> <Gold.Chemscore.Hbonds>
donor molecule, donor type, donor heavy atom, donor atom, acceptor molecule, acceptor atom, score
      L1  H    11    37       P1  7957  0.85
      P1  H  7989  7998       L1    11  0.79
      P1  H  7997  8008       L1    15  0.61

> <Gold.PLP.Chemscore.Internal.Correction>
0.2366

> <Gold.Rescore>
     Score         DG    S(hbond)    S(metal)    S(lipo)     H(rot)  DE(clash)    DE(int)     intcor
     17.82     -21.56       1.51        0.00     144.19       2.28       2.76       0.98       ----

> <Gold.Chemscore.Fitness>
17.8235

> <Gold.Chemscore.DG>
-21.5612

> <Gold.Chemscore.ZeroCoef>
-5.4800

> <Gold.Chemscore.Hbond>
1.5145

> <Gold.Chemscore.Metal>
0.0000

> <Gold.Chemscore.Lipo>
144.1946

> <Gold.Chemscore.Internal_Hbond>
0.0000

> <Gold.Chemscore.DEClash>
2.7616

> <Gold.Chemscore.DEInternal>
0.9761

> <Gold.Chemscore.Rot>
2.2844

> <Gold.Chemscore.Internal.Correction>
   9.000000E+99

> <Gold.Chemscore.Hbonds>
donor molecule, donor type, donor heavy atom, donor atom, acceptor molecule, acceptor atom, score
      L1  H    11    37       P1  7957  0.78
      P1  H  7989  7998       L1    11  0.03
      P1  H  7997  8008       L1    15  0.06

> <Gold.Chemscore.Hbond.Weighted>
-5.0584

> <Gold.Chemscore.Metal.Weighted>
-0.0000

> <Gold.Chemscore.Lipo.Weighted>
-16.8708

> <Gold.Chemscore.Internal_Hbond.Weighted>
0.0000

> <Gold.Chemscore.DEClash.Weighted>
2.7616

> <Gold.Chemscore.DEInternal.Weighted>
0.9761

> <Gold.Chemscore.Rot.Weighted>
5.8480

> <Gold.Chemscore.Internal.Correction.Weighted>
   9.000000E+99

> <Gold.Protein.RotatedTorsions>
[ 6907 6896 6895 6894 ] final   99.70 input  -60.11 | X-H torsion
[ 7974 7965 7964 7962 ] final   75.52 input  175.53 | X-H torsion
[ 8008 7997 7996 7995 ] final  -71.85 input   59.86 | X-H torsion
[ 10167 10162 10161 10158 ] final   82.30 input  -65.29 | X-H torsion
[ 10718 10713 10712 10709 ] final  107.14 input   66.30 | X-H torsion
[ 10763 10752 10751 10750 ] final -110.49 input  -60.55 | X-H torsion
[ 11005 11000 10999 10996 ] final   47.93 input  -57.11 | X-H torsion

> <Gold.Protein.ActiveResidues>
 VAL166  LYS551  ARG553  GLY616  TRP617  ASP618  TYR619  PRO620  LYS621  CYS622 
 ASP623  PHE694  ASN695  SER759  ASP760  ASP761  ALA762  ILE779  LEU786  VAL792 
 PHE793  MET794  SER795  GLU796  ALA797  LYS798  CYS799  TRP800  GLU811  SER814 

> <Gold.Protein.RotatedAtoms>
  152.5387  134.0388  159.8057 H   0  0  0  0  0  0  0  0  0  0  0  0  # atno 6907 bound_to 6896
  151.0548  133.5586  159.2646 H   0  0  0  0  0  0  0  0  0  0  0  0  # atno 6908 bound_to 6896
  151.2507  135.0629  159.9114 H   0  0  0  0  0  0  0  0  0  0  0  0  # atno 6909 bound_to 6896
  145.7146  139.2626  143.1631 H   0  0  0  0  0  0  0  0  0  0  0  0  # atno 7974 bound_to 7965
  154.5120  140.0808  156.8008 H   0  0  0  0  0  0  0  0  0  0  0  0  # atno 8008 bound_to 7997
  155.3764  140.3425  155.4227 H   0  0  0  0  0  0  0  0  0  0  0  0  # atno 8009 bound_to 7997
  156.1584  140.1580  156.8641 H   0  0  0  0  0  0  0  0  0  0  0  0  # atno 8010 bound_to 7997
  139.9303  144.6156  150.8352 H   0  0  0  0  0  0  0  0  0  0  0  0  # atno 10167 bound_to 10162
  157.6640  131.0866  150.6111 H   0  0  0  0  0  0  0  0  0  0  0  0  # atno 10718 bound_to 10713
  154.8250  135.4562  154.0893 H   0  0  0  0  0  0  0  0  0  0  0  0  # atno 10763 bound_to 10752
  153.2214  135.6894  153.8002 H   0  0  0  0  0  0  0  0  0  0  0  0  # atno 10764 bound_to 10752
  153.7417  135.3311  155.3282 H   0  0  0  0  0  0  0  0  0  0  0  0  # atno 10765 bound_to 10752
  140.1235  134.4798  155.8578 H   0  0  0  0  0  0  0  0  0  0  0  0  # atno 11005 bound_to 11000
  146.0681  140.7898  142.9701 LP  0  0  0  0  0  0  0  0  0  0  0  0  # atno 17320 bound_to 7965
  144.6933  140.3300  143.7217 LP  0  0  0  0  0  0  0  0  0  0  0  0  # atno 17321 bound_to 7965
  140.7639  143.3235  151.2568 LP  0  0  0  0  0  0  0  0  0  0  0  0  # atno 17342 bound_to 10162
  139.6788  143.9891  152.2796 LP  0  0  0  0  0  0  0  0  0  0  0  0  # atno 17343 bound_to 10162
  156.6413  130.4459  149.5751 LP  0  0  0  0  0  0  0  0  0  0  0  0  # atno 17370 bound_to 10713
  156.2207  130.6735  151.1365 LP  0  0  0  0  0  0  0  0  0  0  0  0  # atno 17371 bound_to 10713
  141.2156  133.6769  156.6934 LP  0  0  0  0  0  0  0  0  0  0  0  0  # atno 17394 bound_to 11000
  140.2934  134.8222  157.4036 LP  0  0  0  0  0  0  0  0  0  0  0  0  # atno 17395 bound_to 11000

$$$$
