AV-unprocessed.smi:412|AV-procd|sdf|2511|dock1
  -GOLD-   2262022463D 1   1.00000     0.00000
 Structure written by MMmdl.
 36 38  0  0  0  0  0  0  0  0  1 V2000
  154.0795  139.9679  160.9772 C   0  0  0  0  0  0  0  0  0  0  0  0
  153.3505  140.9243  160.1530 N   0  0  0  0  0  0  0  0  0  0  0  0
  152.9586  140.7618  158.8678 C   0  0  0  0  0  0  0  0  0  0  0  0
  153.1552  139.7671  158.1696 O   0  0  0  0  0  0  0  0  0  0  0  0
  152.3049  141.8838  158.4832 N   0  0  0  0  0  0  0  0  0  0  0  0
  151.7082  142.1357  157.1719 C   0  0  0  0  0  0  0  0  0  0  0  0
  150.4349  141.2961  156.9473 C   0  0  1  0  0  0  0  0  0  0  0  0
  149.3973  142.1568  156.5193 O   0  0  0  0  0  0  0  0  0  0  0  0
  150.6877  140.1816  155.9427 C   0  0  0  0  0  0  0  0  0  0  0  0
  149.6110  139.5184  155.3123 C   0  0  0  0  0  0  0  0  0  0  0  0
  149.8569  138.4925  154.3791 C   0  0  0  0  0  0  0  0  0  0  0  0
  151.1800  138.1273  154.0660 C   0  0  0  0  0  0  0  0  0  0  0  0
  152.2572  138.7897  154.6848 C   0  0  0  0  0  0  0  0  0  0  0  0
  152.0118  139.8140  155.6201 C   0  0  0  0  0  0  0  0  0  0  0  0
  152.2727  142.7869  159.5559 C   0  0  0  0  0  0  0  0  0  0  0  0
  151.7114  144.0709  159.6722 C   0  0  0  0  0  0  0  0  0  0  0  0
  151.8523  144.7281  160.9170 C   0  0  0  0  0  0  0  0  0  0  0  0
  152.5334  144.1055  161.9953 C   0  0  0  0  0  0  0  0  0  0  0  0
  153.0870  142.8115  161.8522 C   0  0  0  0  0  0  0  0  0  0  0  0
  152.9319  142.1820  160.6053 C   0  0  0  0  0  0  0  0  0  0  0  0
  154.3270  139.0581  160.4289 H   0  0  0  0  0  0  0  0  0  0  0  0
  153.4814  139.6860  161.8439 H   0  0  0  0  0  0  0  0  0  0  0  0
  155.0106  140.4099  161.3330 H   0  0  0  0  0  0  0  0  0  0  0  0
  151.5117  143.1979  157.0221 H   0  0  0  0  0  0  0  0  0  0  0  0
  152.4534  141.8675  156.4210 H   0  0  0  0  0  0  0  0  0  0  0  0
  150.1174  140.8409  157.8866 H   0  0  0  0  0  0  0  0  0  0  0  0
  149.7635  143.0150  156.3699 H   0  0  0  0  0  0  0  0  0  0  0  0
  148.5923  139.7957  155.5407 H   0  0  0  0  0  0  0  0  0  0  0  0
  149.0300  137.9869  153.9024 H   0  0  0  0  0  0  0  0  0  0  0  0
  151.3687  137.3411  153.3498 H   0  0  0  0  0  0  0  0  0  0  0  0
  153.2725  138.5130  154.4413 H   0  0  0  0  0  0  0  0  0  0  0  0
  152.8453  140.3182  156.0873 H   0  0  0  0  0  0  0  0  0  0  0  0
  151.1906  144.5398  158.8507 H   0  0  0  0  0  0  0  0  0  0  0  0
  151.4352  145.7155  161.0486 H   0  0  0  0  0  0  0  0  0  0  0  0
  152.6291  144.6254  162.9370 H   0  0  0  0  0  0  0  0  0  0  0  0
  153.6051  142.3296  162.6682 H   0  0  0  0  0  0  0  0  0  0  0  0
  1  2  1  0  0  0  0
  1 21  1  0  0  0  0
  1 22  1  0  0  0  0
  1 23  1  0  0  0  0
  2 20  1  0  0  0  0
  2  3  1  0  0  0  0
  3  4  2  0  0  0  0
  3  5  1  0  0  0  0
  5  6  1  0  0  0  0
  5 15  1  0  0  0  0
  6  7  1  0  0  0  0
  6 24  1  0  0  0  0
  6 25  1  0  0  0  0
  7  8  1  0  0  0  0
  7  9  1  0  0  0  0
  7 26  1  0  0  0  0
  8 27  1  0  0  0  0
  9 14  1  0  0  0  0
  9 10  2  0  0  0  0
 10 11  1  0  0  0  0
 10 28  1  0  0  0  0
 11 12  2  0  0  0  0
 11 29  1  0  0  0  0
 12 13  1  0  0  0  0
 12 30  1  0  0  0  0
 13 14  2  0  0  0  0
 13 31  1  0  0  0  0
 14 32  1  0  0  0  0
 15 20  2  0  0  0  0
 15 16  1  0  0  0  0
 16 17  2  0  0  0  0
 16 33  1  0  0  0  0
 17 18  1  0  0  0  0
 17 34  1  0  0  0  0
 18 19  2  0  0  0  0
 18 35  1  0  0  0  0
 19 20  1  0  0  0  0
 19 36  1  0  0  0  0
M  END
> <s_m_source_file>
AV-unprocessed.smi

> <i_m_source_file_index>
412

> <i_lp_mmshare_version>
43012

> <i_f3d_flags>
0

> <s_epik_input>
W2NIXTFbY0hdW2NIXVtjSF1jKGMxMiluKFtDSDNdKWMoPU8pbjJbQ0gyXVtDQEhdKFtPSF0pYzNbY0hdW2NIXVtjSF1bY0hdW2NIXTM=

> <s_epik_cmdline>
J2VwaWtfcHl0aG9uJywgJy1waCcsICc3LjAnLCAnLXRuJywgJzgnLCAnLW1hJywgJzIwMCcsICctbWV0YWxfYmluZGluZycsICctaW1hZScsICc8aW5maWxlLm1hZT4nLCAnLW9tYWUnLCAnPG91dGZpbGUubWFlPic=

> <r_lp_tautomer_probability>
1

> <r_epik_Ionization_Penalty>
1.34619e-06

> <r_epik_Ionization_Penalty_Charging>
2.57375e-09

> <r_epik_Ionization_Penalty_Neutral>
1.34362e-06

> <r_epik_State_Penalty>
-0

> <r_epik_Charging_Adjusted_Penalty>
2.57375e-09

> <i_epik_Tot_Q>
0

> <i_epik_Tot_abs_Q>
0

> <r_epik_Metal_State_Penalty>
-0

> <b_epik_Metal_Only>
0

> <s_lp_Force_Field>
OPLS_2005

> <r_lp_Energy>
43.5229

> <b_lp_Chiralities_Consistent>
1

> <s_lp_Variant>
AV-unprocessed.smi:412-2

> <Gold.Version>
5.8.1

> <Gold.Id.Protein>
6NUR|6NUR_protein|mol2

> <Gold.PLP.Fitness>
51.3882

> <Gold.PLP.PLP>
-49.6095

> <Gold.PLP.part.hbond>
-2.0000

> <Gold.PLP.part.metal>
0.0000

> <Gold.PLP.part.buried>
-5.9854

> <Gold.PLP.part.nonpolar>
-40.8688

> <Gold.PLP.part.repulsive>
0.0000

> <Gold.PLP.ligand.clash>
0.0000

> <Gold.PLP.ligand.torsion>
1.2835

> <Gold.PLP.Chemscore.Hbond>
1.4446

> <Gold.PLP.Chemscore.CHOScore>
0.0000

> <Gold.PLP.Chemscore.Metal>
0.0000

> <Gold.Chemscore.Hbonds>
donor molecule, donor type, donor heavy atom, donor atom, acceptor molecule, acceptor atom, score
      L1  H     8    27       P1  8028  0.58
      P1  H  7997  8009       L1     4  1.00

> <Gold.PLP.Chemscore.Internal.Correction>
0.0120

> <Gold.Rescore>
     Score         DG    S(hbond)    S(metal)    S(lipo)     H(rot)  DE(clash)    DE(int)     intcor
     18.39     -21.19       1.32        0.00     134.91       1.76       1.81       1.00       ----

> <Gold.Chemscore.Fitness>
18.3865

> <Gold.Chemscore.DG>
-21.1895

> <Gold.Chemscore.ZeroCoef>
-5.4800

> <Gold.Chemscore.Hbond>
1.3233

> <Gold.Chemscore.Metal>
0.0000

> <Gold.Chemscore.Lipo>
134.9053

> <Gold.Chemscore.Internal_Hbond>
0.0000

> <Gold.Chemscore.DEClash>
1.8065

> <Gold.Chemscore.DEInternal>
0.9965

> <Gold.Chemscore.Rot>
1.7555

> <Gold.Chemscore.Internal.Correction>
   9.000000E+99

> <Gold.Chemscore.Hbonds>
donor molecule, donor type, donor heavy atom, donor atom, acceptor molecule, acceptor atom, score
      L1  H     8    27       P1  8028  0.55
      P1  H  7997  8009       L1     4  0.78

> <Gold.Chemscore.Hbond.Weighted>
-4.4198

> <Gold.Chemscore.Metal.Weighted>
-0.0000

> <Gold.Chemscore.Lipo.Weighted>
-15.7839

> <Gold.Chemscore.Internal_Hbond.Weighted>
0.0000

> <Gold.Chemscore.DEClash.Weighted>
1.8065

> <Gold.Chemscore.DEInternal.Weighted>
0.9965

> <Gold.Chemscore.Rot.Weighted>
4.4942

> <Gold.Chemscore.Internal.Correction.Weighted>
   9.000000E+99

> <Gold.Protein.RotatedTorsions>
[ 6907 6896 6895 6894 ] final -170.39 input  -60.11 | X-H torsion
[ 7974 7965 7964 7962 ] final   79.49 input  175.53 | X-H torsion
[ 8008 7997 7996 7995 ] final  155.86 input   59.86 | X-H torsion
[ 10167 10162 10161 10158 ] final   92.94 input  -65.29 | X-H torsion
[ 10718 10713 10712 10709 ] final   -6.51 input   66.30 | X-H torsion
[ 10763 10752 10751 10750 ] final  -60.07 input  -60.55 | X-H torsion
[ 11005 11000 10999 10996 ] final  -74.43 input  -57.11 | X-H torsion

> <Gold.Protein.ActiveResidues>
 VAL166  LYS551  ARG553  GLY616  TRP617  ASP618  TYR619  PRO620  LYS621  CYS622 
 ASP623  PHE694  ASN695  SER759  ASP760  ASP761  ALA762  ILE779  LEU786  VAL792 
 PHE793  MET794  SER795  GLU796  ALA797  LYS798  CYS799  TRP800  GLU811  SER814 

> <Gold.Protein.RotatedAtoms>
  151.5069  133.3493  159.2878 H   0  0  0  0  0  0  0  0  0  0  0  0  # atno 6907 bound_to 6896
  150.8737  134.8118  159.7185 H   0  0  0  0  0  0  0  0  0  0  0  0  # atno 6908 bound_to 6896
  152.4716  134.4957  159.9761 H   0  0  0  0  0  0  0  0  0  0  0  0  # atno 6909 bound_to 6896
  145.6635  139.2477  143.1909 H   0  0  0  0  0  0  0  0  0  0  0  0  # atno 7974 bound_to 7965
  156.2455  140.1928  156.6867 H   0  0  0  0  0  0  0  0  0  0  0  0  # atno 8008 bound_to 7997
  154.6282  140.0599  156.9725 H   0  0  0  0  0  0  0  0  0  0  0  0  # atno 8009 bound_to 7997
  155.1753  140.3272  155.4387 H   0  0  0  0  0  0  0  0  0  0  0  0  # atno 8010 bound_to 7997
  139.8228  144.6723  150.9498 H   0  0  0  0  0  0  0  0  0  0  0  0  # atno 10167 bound_to 10162
  156.7309  130.5180  149.5846 H   0  0  0  0  0  0  0  0  0  0  0  0  # atno 10718 bound_to 10713
  154.2635  135.6304  153.5283 H   0  0  0  0  0  0  0  0  0  0  0  0  # atno 10763 bound_to 10752
  152.9892  135.5593  154.5678 H   0  0  0  0  0  0  0  0  0  0  0  0  # atno 10764 bound_to 10752
  154.5232  135.2884  155.1219 H   0  0  0  0  0  0  0  0  0  0  0  0  # atno 10765 bound_to 10752
  141.1635  133.6911  156.7363 H   0  0  0  0  0  0  0  0  0  0  0  0  # atno 11005 bound_to 11000
  146.1106  140.7433  142.9505 LP  0  0  0  0  0  0  0  0  0  0  0  0  # atno 17320 bound_to 7965
  144.7081  140.3932  143.7102 LP  0  0  0  0  0  0  0  0  0  0  0  0  # atno 17321 bound_to 7965
  140.7812  143.4076  151.1046 LP  0  0  0  0  0  0  0  0  0  0  0  0  # atno 17342 bound_to 10162
  139.7735  143.8460  152.3125 LP  0  0  0  0  0  0  0  0  0  0  0  0  # atno 17343 bound_to 10162
  156.1530  130.6322  151.0620 LP  0  0  0  0  0  0  0  0  0  0  0  0  # atno 17370 bound_to 10713
  157.6859  131.0825  150.7243 LP  0  0  0  0  0  0  0  0  0  0  0  0  # atno 17371 bound_to 10713
  140.2707  134.8394  157.3844 LP  0  0  0  0  0  0  0  0  0  0  0  0  # atno 17394 bound_to 11000
  140.1524  134.4833  155.7952 LP  0  0  0  0  0  0  0  0  0  0  0  0  # atno 17395 bound_to 11000

$$$$
