AV-unprocessed.smi:86|AV-procd|sdf|814|dock7
  -GOLD-   2262017213D 1   1.00000     0.00000
 Structure written by MMmdl.
 51 55  0  0  0  0  0  0  0  0  1 V2000
  148.7236  134.0041  153.6452 O   0  0  0  0  0  0  0  0  0  0  0  0
  149.8075  133.3525  154.2767 C   0  0  0  0  0  0  0  0  0  0  0  0
  150.6588  134.3145  155.1301 C   0  0  0  0  0  0  0  0  0  0  0  0
  151.0677  135.5154  154.2573 C   0  0  0  0  0  0  0  0  0  0  0  0
  151.3800  136.7166  155.0169 N   0  0  0  0  0  0  0  0  0  0  0  0
  152.2967  136.8339  156.0364 C   0  0  0  0  0  0  0  0  0  0  0  0
  152.3885  138.0222  156.5668 N   0  0  0  0  0  0  0  0  0  0  0  0
  151.4632  138.7870  155.8644 C   0  0  0  0  0  0  0  0  0  0  0  0
  151.0417  140.1485  155.9207 C   0  0  0  0  0  0  0  0  0  0  0  0
  151.5449  141.0677  156.7833 N   0  0  0  0  0  0  0  0  0  0  0  0
  152.4403  140.7003  157.8785 C   0  0  0  0  0  0  0  0  0  0  0  0
  152.6183  142.0095  158.6430 C   0  0  2  0  0  0  0  0  0  0  0  0
  153.0726  141.9576  160.1056 C   0  0  0  0  0  0  0  0  0  0  0  0
  153.0857  143.3924  160.6798 C   0  0  0  0  0  0  0  0  0  0  0  0
  151.7484  144.1501  160.4744 C   0  0  2  0  0  0  0  0  0  0  0  0
  150.7745  143.6327  161.3591 O   0  0  0  0  0  0  0  0  0  0  0  0
  151.2268  144.0718  159.0184 C   0  0  0  0  0  0  0  0  0  0  0  0
  151.2264  142.6145  158.5362 C   0  0  1  0  0  0  0  0  0  0  0  0
  150.8507  142.3183  157.0830 C   0  0  0  0  0  0  0  0  0  0  0  0
  150.0594  140.5311  155.0624 N   0  0  0  0  0  0  0  0  0  0  0  0
  149.5352  139.6586  154.1976 C   0  0  0  0  0  0  0  0  0  0  0  0
  149.8368  138.3709  154.0269 N   0  0  0  0  0  0  0  0  0  0  0  0
  150.8124  137.9733  154.8926 C   0  0  0  0  0  0  0  0  0  0  0  0
  150.0919  134.6828  156.5088 C   0  0  0  0  0  0  0  0  0  0  0  0
  151.0424  133.8369  157.1931 O   0  0  0  0  0  0  0  0  0  0  0  0
  151.7773  133.6691  155.9605 C   0  0  0  0  0  0  0  0  0  0  0  0
  148.6867  134.8959  153.9558 H   0  0  0  0  0  0  0  0  0  0  0  0
  149.3884  132.5513  154.8852 H   0  0  0  0  0  0  0  0  0  0  0  0
  150.4145  132.8796  153.5041 H   0  0  0  0  0  0  0  0  0  0  0  0
  151.9302  135.2622  153.6396 H   0  0  0  0  0  0  0  0  0  0  0  0
  150.2704  135.7679  153.5570 H   0  0  0  0  0  0  0  0  0  0  0  0
  152.8983  136.0055  156.3807 H   0  0  0  0  0  0  0  0  0  0  0  0
  151.9710  139.9411  158.5061 H   0  0  0  0  0  0  0  0  0  0  0  0
  153.3910  140.3125  157.5108 H   0  0  0  0  0  0  0  0  0  0  0  0
  153.3205  142.6307  158.0826 H   0  0  0  0  0  0  0  0  0  0  0  0
  152.4009  141.3258  160.6880 H   0  0  0  0  0  0  0  0  0  0  0  0
  154.0655  141.5128  160.1782 H   0  0  0  0  0  0  0  0  0  0  0  0
  153.3501  143.3704  161.7377 H   0  0  0  0  0  0  0  0  0  0  0  0
  153.8799  143.9541  160.1863 H   0  0  0  0  0  0  0  0  0  0  0  0
  151.8895  145.1971  160.7444 H   0  0  0  0  0  0  0  0  0  0  0  0
  150.1577  144.3197  161.5608 H   0  0  0  0  0  0  0  0  0  0  0  0
  150.2278  144.5026  158.9429 H   0  0  0  0  0  0  0  0  0  0  0  0
  151.8705  144.6680  158.3704 H   0  0  0  0  0  0  0  0  0  0  0  0
  150.5473  142.0388  159.1685 H   0  0  0  0  0  0  0  0  0  0  0  0
  151.2118  143.0985  156.4119 H   0  0  0  0  0  0  0  0  0  0  0  0
  149.7693  142.2347  156.9718 H   0  0  0  0  0  0  0  0  0  0  0  0
  148.7633  140.0482  153.5503 H   0  0  0  0  0  0  0  0  0  0  0  0
  150.2219  135.7328  156.7752 H   0  0  0  0  0  0  0  0  0  0  0  0
  149.0596  134.3713  156.6708 H   0  0  0  0  0  0  0  0  0  0  0  0
  151.9640  132.6217  155.7215 H   0  0  0  0  0  0  0  0  0  0  0  0
  152.7088  134.2356  155.9718 H   0  0  0  0  0  0  0  0  0  0  0  0
  1  2  1  0  0  0  0
  1 27  1  0  0  0  0
  2  3  1  0  0  0  0
  2 28  1  0  0  0  0
  2 29  1  0  0  0  0
  3 26  1  0  0  0  0
  3  4  1  0  0  0  0
  3 24  1  0  0  0  0
  4  5  1  0  0  0  0
  4 30  1  0  0  0  0
  4 31  1  0  0  0  0
  5 23  1  0  0  0  0
  5  6  1  0  0  0  0
  6  7  2  0  0  0  0
  6 32  1  0  0  0  0
  7  8  1  0  0  0  0
  8 23  2  0  0  0  0
  8  9  1  0  0  0  0
  9 10  1  0  0  0  0
  9 20  2  0  0  0  0
 10 19  1  0  0  0  0
 10 11  1  0  0  0  0
 11 12  1  0  0  0  0
 11 33  1  0  0  0  0
 11 34  1  0  0  0  0
 12 18  1  0  0  0  0
 12 13  1  0  0  0  0
 12 35  1  0  0  0  0
 13 14  1  0  0  0  0
 13 36  1  0  0  0  0
 13 37  1  0  0  0  0
 14 15  1  0  0  0  0
 14 38  1  0  0  0  0
 14 39  1  0  0  0  0
 15 16  1  0  0  0  0
 15 17  1  0  0  0  0
 15 40  1  0  0  0  0
 16 41  1  0  0  0  0
 17 18  1  0  0  0  0
 17 42  1  0  0  0  0
 17 43  1  0  0  0  0
 18 19  1  0  0  0  0
 18 44  1  0  0  0  0
 19 45  1  0  0  0  0
 19 46  1  0  0  0  0
 20 21  1  0  0  0  0
 21 22  2  0  0  0  0
 21 47  1  0  0  0  0
 22 23  1  0  0  0  0
 24 25  1  0  0  0  0
 24 48  1  0  0  0  0
 24 49  1  0  0  0  0
 25 26  1  0  0  0  0
 26 50  1  0  0  0  0
 26 51  1  0  0  0  0
M  END
> <s_m_source_file>
AV-unprocessed.smi

> <i_m_source_file_index>
86

> <i_lp_mmshare_version>
43012

> <i_f3d_flags>
0

> <s_epik_input>
W0NIMl0xT1tDSDJdQzEoW0NIMl1bT0hdKVtDSDJdbihbY0hdbjIpYyhjMjMpbltjSF1uYzNOKFtDSDJdNClbQ0gyXVtDQEBIXShbQ0BIXTQ1KVtDSDJdW0NASF0oW09IXSlbQ0gyXVtDSDJdNQ==

> <s_epik_cmdline>
J2VwaWtfcHl0aG9uJywgJy1waCcsICc3LjAnLCAnLXRuJywgJzgnLCAnLW1hJywgJzIwMCcsICctbWV0YWxfYmluZGluZycsICctaW1hZScsICc8aW5maWxlLm1hZT4nLCAnLW9tYWUnLCAnPG91dGZpbGUubWFlPic=

> <r_lp_tautomer_probability>
1

> <r_epik_Ionization_Penalty>
0.00425795

> <r_epik_Ionization_Penalty_Charging>
0

> <r_epik_Ionization_Penalty_Neutral>
0.00425795

> <r_epik_State_Penalty>
0.00299946

> <r_epik_Charging_Adjusted_Penalty>
0.00299946

> <i_epik_Tot_Q>
0

> <i_epik_Tot_abs_Q>
0

> <r_epik_Metal_State_Penalty>
-0

> <b_epik_Metal_Only>
0

> <s_lp_Force_Field>
OPLS_2005

> <r_lp_Energy>
55.6071

> <b_lp_Chiralities_Consistent>
1

> <s_lp_Variant>
AV-unprocessed.smi:86-3

> <Gold.Version>
5.8.1

> <Gold.Id.Protein>
6NUR|6NUR_protein|mol2

> <Gold.PLP.Fitness>
50.9777

> <Gold.PLP.PLP>
-45.0972

> <Gold.PLP.part.hbond>
-3.9612

> <Gold.PLP.part.metal>
0.0000

> <Gold.PLP.part.buried>
-4.2749

> <Gold.PLP.part.nonpolar>
-37.8312

> <Gold.PLP.part.repulsive>
0.3668

> <Gold.PLP.ligand.clash>
0.0000

> <Gold.PLP.ligand.torsion>
0.6139

> <Gold.PLP.Chemscore.Hbond>
1.2360

> <Gold.PLP.Chemscore.CHOScore>
0.9744

> <Gold.PLP.Chemscore.Metal>
0.0000

> <Gold.Chemscore.Hbonds>
donor molecule, donor type, donor heavy atom, donor atom, acceptor molecule, acceptor atom, score
      P1  H  6896  6908       L1    25  0.44
      P1  H  6933  6945       L1    16  0.10
      P1  H  7989  7998       L1    20  0.06
      L1  C    21    47       P1  7957  0.58

> <Gold.PLP.Chemscore.Internal.Correction>
0.4771

> <Gold.Rescore>
     Score         DG    S(hbond)    S(metal)    S(lipo)     H(rot)  DE(clash)    DE(int)     intcor
     11.64     -13.68       0.98        0.00     102.45       2.76       0.27       1.77       ----

> <Gold.Chemscore.Fitness>
11.6427

> <Gold.Chemscore.DG>
-13.6801

> <Gold.Chemscore.ZeroCoef>
-5.4800

> <Gold.Chemscore.Hbond>
0.9841

> <Gold.Chemscore.Metal>
0.0000

> <Gold.Chemscore.Lipo>
102.4483

> <Gold.Chemscore.Internal_Hbond>
0.0000

> <Gold.Chemscore.DEClash>
0.2717

> <Gold.Chemscore.DEInternal>
1.7657

> <Gold.Chemscore.Rot>
2.7630

> <Gold.Chemscore.Internal.Correction>
   9.000000E+99

> <Gold.Chemscore.Hbonds>
donor molecule, donor type, donor heavy atom, donor atom, acceptor molecule, acceptor atom, score
      P1  H  6896  6908       L1    25  0.36
      P1  H  6933  6945       L1    16  0.06

> <Gold.Chemscore.Hbond.Weighted>
-3.2870

> <Gold.Chemscore.Metal.Weighted>
-0.0000

> <Gold.Chemscore.Lipo.Weighted>
-11.9864

> <Gold.Chemscore.Internal_Hbond.Weighted>
0.0000

> <Gold.Chemscore.DEClash.Weighted>
0.2717

> <Gold.Chemscore.DEInternal.Weighted>
1.7657

> <Gold.Chemscore.Rot.Weighted>
7.0734

> <Gold.Chemscore.Internal.Correction.Weighted>
   9.000000E+99

> <Gold.Protein.RotatedTorsions>
[ 6907 6896 6895 6894 ] final  122.70 input  -60.11 | X-H torsion
[ 7974 7965 7964 7962 ] final    8.22 input  175.53 | X-H torsion
[ 8008 7997 7996 7995 ] final  159.73 input   59.86 | X-H torsion
[ 10167 10162 10161 10158 ] final   55.85 input  -65.29 | X-H torsion
[ 10718 10713 10712 10709 ] final  -43.14 input   66.30 | X-H torsion
[ 10763 10752 10751 10750 ] final  138.86 input  -60.55 | X-H torsion
[ 11005 11000 10999 10996 ] final -129.47 input  -57.11 | X-H torsion

> <Gold.Protein.ActiveResidues>
 VAL166  LYS551  ARG553  GLY616  TRP617  ASP618  TYR619  PRO620  LYS621  CYS622 
 ASP623  PHE694  ASN695  SER759  ASP760  ASP761  ALA762  ILE779  LEU786  VAL792 
 PHE793  MET794  SER795  GLU796  ALA797  LYS798  CYS799  TRP800  GLU811  SER814 

> <Gold.Protein.RotatedAtoms>
  152.4222  133.7135  159.6492 H   0  0  0  0  0  0  0  0  0  0  0  0  # atno 6907 bound_to 6896
  150.8098  133.8432  159.3194 H   0  0  0  0  0  0  0  0  0  0  0  0  # atno 6908 bound_to 6896
  151.6145  135.1039  160.0140 H   0  0  0  0  0  0  0  0  0  0  0  0  # atno 6909 bound_to 6896
  146.2418  139.9966  142.8420 H   0  0  0  0  0  0  0  0  0  0  0  0  # atno 7974 bound_to 7965
  156.2220  140.1823  156.7455 H   0  0  0  0  0  0  0  0  0  0  0  0  # atno 8008 bound_to 7997
  154.5880  140.0655  156.9227 H   0  0  0  0  0  0  0  0  0  0  0  0  # atno 8009 bound_to 7997
  155.2386  140.3320  155.4297 H   0  0  0  0  0  0  0  0  0  0  0  0  # atno 8010 bound_to 7997
  140.2150  144.3848  150.6473 H   0  0  0  0  0  0  0  0  0  0  0  0  # atno 10167 bound_to 10162
  156.2521  130.4189  149.8638 H   0  0  0  0  0  0  0  0  0  0  0  0  # atno 10718 bound_to 10713
  153.8965  135.3027  155.3448 H   0  0  0  0  0  0  0  0  0  0  0  0  # atno 10763 bound_to 10752
  154.7691  135.4895  153.9616 H   0  0  0  0  0  0  0  0  0  0  0  0  # atno 10764 bound_to 10752
  153.1268  135.6795  153.9342 H   0  0  0  0  0  0  0  0  0  0  0  0  # atno 10765 bound_to 10752
  140.9428  134.1170  157.4134 H   0  0  0  0  0  0  0  0  0  0  0  0  # atno 11005 bound_to 11000
  145.1454  140.9594  143.4464 LP  0  0  0  0  0  0  0  0  0  0  0  0  # atno 17320 bound_to 7965
  145.0256  139.3386  143.6050 LP  0  0  0  0  0  0  0  0  0  0  0  0  # atno 17321 bound_to 7965
  140.6296  143.2185  151.6524 LP  0  0  0  0  0  0  0  0  0  0  0  0  # atno 17342 bound_to 10162
  139.5165  144.3344  152.0797 LP  0  0  0  0  0  0  0  0  0  0  0  0  # atno 17343 bound_to 10162
  156.6183  130.8615  151.3470 LP  0  0  0  0  0  0  0  0  0  0  0  0  # atno 17370 bound_to 10713
  157.7218  130.9569  150.1471 LP  0  0  0  0  0  0  0  0  0  0  0  0  # atno 17371 bound_to 10713
  139.8825  135.0042  156.6234 LP  0  0  0  0  0  0  0  0  0  0  0  0  # atno 17394 bound_to 11000
  140.7710  133.8738  155.8492 LP  0  0  0  0  0  0  0  0  0  0  0  0  # atno 17395 bound_to 11000

$$$$
