AV-unprocessed.smi:2061|AV-procd|sdf|8388|dock4
  -GOLD-   2272011 73D 1   1.00000     0.00000
 Structure written by MMmdl.
 45 46  0  0  0  0  0  0  0  0  3 V2000
  147.2770  133.4514  162.0634 C   0  0  0  0  0  0  0  0  0  0  0  0
  147.6212  134.7624  161.4435 C   0  0  0  0  0  0  0  0  0  0  0  0
  148.1381  135.1086  160.2269 C   0  0  0  0  0  0  0  0  0  0  0  0
  148.2115  136.5251  160.3000 C   0  0  0  0  0  0  0  0  0  0  0  0
  148.7038  137.2826  159.2043 N   0  0  0  0  0  0  0  0  0  0  0  0
  149.6137  136.9297  158.2782 C   0  0  0  0  0  0  0  0  0  0  0  0
  150.1208  135.8016  158.2985 O   0  0  0  0  0  0  0  0  0  0  0  0
  149.8682  137.9334  157.3932 N   0  5  0  0  0  0  0  0  0  0  0  0
  150.9443  138.9167  157.5320 C   0  0  0  0  0  0  0  0  0  0  0  0
  150.3830  140.3142  157.9183 C   0  0  2  0  0  0  0  0  0  0  0  0
  149.4389  140.9343  156.8579 C   0  0  0  0  0  0  0  0  0  0  0  0
  151.4945  141.2317  158.3195 N   0  3  1  0  0  0  0  0  0  0  0  0
  151.1458  142.6698  158.4871 C   0  0  0  0  0  0  0  0  0  0  0  0
  152.4209  143.4987  158.7233 C   0  0  1  0  0  0  0  0  0  0  0  0
  152.1122  144.9804  158.9629 C   0  0  0  0  0  0  0  0  0  0  0  0
  153.0915  142.9942  159.8738 O   0  0  0  0  0  0  0  0  0  0  0  0
  153.5035  141.6402  159.7191 C   0  0  1  0  0  0  0  0  0  0  0  0
  154.2867  141.2313  160.9712 C   0  0  0  0  0  0  0  0  0  0  0  0
  152.2645  140.7527  159.4938 C   0  0  0  0  0  0  0  0  0  0  0  0
  147.7772  136.9997  161.4583 N   0  0  0  0  0  0  0  0  0  0  0  0
  147.3979  135.8728  162.1970 O   0  0  0  0  0  0  0  0  0  0  0  0
  147.1815  132.6754  161.3037 H   0  0  0  0  0  0  0  0  0  0  0  0
  146.3320  133.5133  162.6031 H   0  0  0  0  0  0  0  0  0  0  0  0
  148.0500  133.1436  162.7676 H   0  0  0  0  0  0  0  0  0  0  0  0
  148.4182  134.4529  159.4161 H   0  0  0  0  0  0  0  0  0  0  0  0
  148.3269  138.2146  159.1143 H   0  0  0  0  0  0  0  0  0  0  0  0
  151.6690  138.6070  158.2869 H   0  0  0  0  0  0  0  0  0  0  0  0
  151.5191  139.0085  156.6102 H   0  0  0  0  0  0  0  0  0  0  0  0
  149.7798  140.1583  158.8140 H   0  0  0  0  0  0  0  0  0  0  0  0
  148.5523  140.3185  156.6959 H   0  0  0  0  0  0  0  0  0  0  0  0
  149.9215  141.0676  155.8880 H   0  0  0  0  0  0  0  0  0  0  0  0
  149.0808  141.9114  157.1821 H   0  0  0  0  0  0  0  0  0  0  0  0
  150.6267  143.0417  157.6033 H   0  0  0  0  0  0  0  0  0  0  0  0
  150.4702  142.7957  159.3344 H   0  0  0  0  0  0  0  0  0  0  0  0
  153.0794  143.4174  157.8566 H   0  0  0  0  0  0  0  0  0  0  0  0
  151.6020  145.4183  158.1047 H   0  0  0  0  0  0  0  0  0  0  0  0
  153.0284  145.5475  159.1294 H   0  0  0  0  0  0  0  0  0  0  0  0
  151.4742  145.1149  159.8369 H   0  0  0  0  0  0  0  0  0  0  0  0
  154.1681  141.5662  158.8563 H   0  0  0  0  0  0  0  0  0  0  0  0
  154.6383  140.2020  160.8950 H   0  0  0  0  0  0  0  0  0  0  0  0
  153.6695  141.3091  161.8667 H   0  0  0  0  0  0  0  0  0  0  0  0
  155.1589  141.8701  161.1116 H   0  0  0  0  0  0  0  0  0  0  0  0
  151.6243  140.7562  160.3775 H   0  0  0  0  0  0  0  0  0  0  0  0
  152.5864  139.7229  159.3335 H   0  0  0  0  0  0  0  0  0  0  0  0
  152.1436  141.1901  157.5465 H   0  0  0  0  0  0  0  0  0  0  0  0
  1  2  1  0  0  0  0
  1 22  1  0  0  0  0
  1 23  1  0  0  0  0
  1 24  1  0  0  0  0
  2 21  1  0  0  0  0
  2  3  2  0  0  0  0
  3  4  1  0  0  0  0
  3 25  1  0  0  0  0
  4  5  1  0  0  0  0
  4 20  2  0  0  0  0
  5  6  1  0  0  0  0
  5 26  1  0  0  0  0
  6  7  2  0  0  0  0
  6  8  1  0  0  0  0
  8  9  1  0  0  0  0
  9 10  1  0  0  0  0
  9 27  1  0  0  0  0
  9 28  1  0  0  0  0
 10 11  1  0  0  0  0
 10 12  1  0  0  0  0
 10 29  1  0  0  0  0
 11 30  1  0  0  0  0
 11 31  1  0  0  0  0
 11 32  1  0  0  0  0
 12 19  1  0  0  0  0
 12 13  1  0  0  0  0
 12 45  1  0  0  0  0
 13 14  1  0  0  0  0
 13 33  1  0  0  0  0
 13 34  1  0  0  0  0
 14 15  1  0  0  0  0
 14 16  1  0  0  0  0
 14 35  1  0  0  0  0
 15 36  1  0  0  0  0
 15 37  1  0  0  0  0
 15 38  1  0  0  0  0
 16 17  1  0  0  0  0
 17 18  1  0  0  0  0
 17 19  1  0  0  0  0
 17 39  1  0  0  0  0
 18 40  1  0  0  0  0
 18 41  1  0  0  0  0
 18 42  1  0  0  0  0
 19 43  1  0  0  0  0
 19 44  1  0  0  0  0
 20 21  1  0  0  0  0
M  CHG  1   8  -1
M  CHG  1  12   1
M  END
> <s_m_source_file>
AV-unprocessed.smi

> <i_m_source_file_index>
2061

> <i_lp_mmshare_version>
43012

> <i_f3d_flags>
0

> <s_epik_input>
W0NIM11jMVtjSF1jKG5vMSlbTkhdQyg9TylbTkhdW0NIMl1bQ0BIXShbQ0gzXSlOMltDSDJdW0NAQEhdKFtDSDNdKU9bQ0BASF0oW0NIM10pW0NIMl0y

> <s_epik_cmdline>
J2VwaWtfcHl0aG9uJywgJy1waCcsICc3LjAnLCAnLXRuJywgJzgnLCAnLW1hJywgJzIwMCcsICctbWV0YWxfYmluZGluZycsICctaW1hZScsICc8aW5maWxlLm1hZT4nLCAnLW9tYWUnLCAnPG91dGZpbGUubWFlPic=

> <r_epik_Ionization_Penalty>
6.8073

> <r_epik_Ionization_Penalty_Charging>
6.80729

> <r_epik_Ionization_Penalty_Neutral>
5.65391e-06

> <r_epik_State_Penalty>
7.47323

> <r_epik_Charging_Adjusted_Penalty>
14.2805

> <i_epik_Tot_Q>
0

> <i_epik_Tot_abs_Q>
2

> <r_epik_Metal_State_Penalty>
3.40035

> <b_epik_Metal_Only>
1

> <s_lp_Force_Field>
OPLS_2005

> <r_lp_Energy>
16.5553

> <b_lp_Chiralities_Consistent>
1

> <s_lp_Variant>
AV-unprocessed.smi:2061-29

> <Gold.Version>
5.8.1

> <Gold.Id.Protein>
6NUR|6NUR_protein|mol2

> <Gold.PLP.Fitness>
46.1371

> <Gold.PLP.PLP>
-39.9182

> <Gold.PLP.part.hbond>
-3.0000

> <Gold.PLP.part.metal>
0.0000

> <Gold.PLP.part.buried>
-6.5111

> <Gold.PLP.part.nonpolar>
-31.1904

> <Gold.PLP.part.repulsive>
0.3083

> <Gold.PLP.ligand.clash>
0.0000

> <Gold.PLP.ligand.torsion>
1.1816

> <Gold.PLP.Chemscore.Hbond>
2.8160

> <Gold.PLP.Chemscore.CHOScore>
0.0000

> <Gold.PLP.Chemscore.Metal>
0.0000

> <Gold.Chemscore.Hbonds>
donor molecule, donor type, donor heavy atom, donor atom, acceptor molecule, acceptor atom, score
      P1  H  6896  6908       L1     7  0.94
      P1  H  6931  6943       L1    20  1.00
      P1  H  6934  6947       L1    20  0.51

> <Gold.PLP.Chemscore.Internal.Correction>
0.1341

> <Gold.Rescore>
     Score         DG    S(hbond)    S(metal)    S(lipo)     H(rot)  DE(clash)    DE(int)     intcor
     16.41     -18.96       1.84        0.00      96.77       1.56       0.00       2.55       ----

> <Gold.Chemscore.Fitness>
16.4054

> <Gold.Chemscore.DG>
-18.9598

> <Gold.Chemscore.ZeroCoef>
-5.4800

> <Gold.Chemscore.Hbond>
1.8379

> <Gold.Chemscore.Metal>
0.0000

> <Gold.Chemscore.Lipo>
96.7700

> <Gold.Chemscore.Internal_Hbond>
0.0000

> <Gold.Chemscore.DEClash>
0.0029

> <Gold.Chemscore.DEInternal>
2.5515

> <Gold.Chemscore.Rot>
1.5550

> <Gold.Chemscore.Internal.Correction>
   9.000000E+99

> <Gold.Chemscore.Hbonds>
donor molecule, donor type, donor heavy atom, donor atom, acceptor molecule, acceptor atom, score
      P1  H  6896  6908       L1     7  0.91
      P1  H  6931  6943       L1    20  0.44
      P1  H  6934  6947       L1    20  0.20

> <Gold.Chemscore.Hbond.Weighted>
-6.1386

> <Gold.Chemscore.Metal.Weighted>
-0.0000

> <Gold.Chemscore.Lipo.Weighted>
-11.3221

> <Gold.Chemscore.Internal_Hbond.Weighted>
0.0000

> <Gold.Chemscore.DEClash.Weighted>
0.0029

> <Gold.Chemscore.DEInternal.Weighted>
2.5515

> <Gold.Chemscore.Rot.Weighted>
3.9809

> <Gold.Chemscore.Internal.Correction.Weighted>
   9.000000E+99

> <Gold.Protein.RotatedTorsions>
[ 6907 6896 6895 6894 ] final  176.29 input  -60.11 | X-H torsion
[ 7974 7965 7964 7962 ] final   42.93 input  175.53 | X-H torsion
[ 8008 7997 7996 7995 ] final    4.56 input   59.86 | X-H torsion
[ 10167 10162 10161 10158 ] final -109.97 input  -65.29 | X-H torsion
[ 10718 10713 10712 10709 ] final  135.07 input   66.30 | X-H torsion
[ 10763 10752 10751 10750 ] final -110.34 input  -60.55 | X-H torsion
[ 11005 11000 10999 10996 ] final  163.41 input  -57.11 | X-H torsion

> <Gold.Protein.ActiveResidues>
 VAL166  LYS551  ARG553  GLY616  TRP617  ASP618  TYR619  PRO620  LYS621  CYS622 
 ASP623  PHE694  ASN695  SER759  ASP760  ASP761  ALA762  ILE779  LEU786  VAL792 
 PHE793  MET794  SER795  GLU796  ALA797  LYS798  CYS799  TRP800  GLU811  SER814 

> <Gold.Protein.RotatedAtoms>
  151.7224  133.3315  159.3318 H   0  0  0  0  0  0  0  0  0  0  0  0  # atno 6907 bound_to 6896
  150.7647  134.6436  159.6259 H   0  0  0  0  0  0  0  0  0  0  0  0  # atno 6908 bound_to 6896
  152.3643  134.6829  160.0249 H   0  0  0  0  0  0  0  0  0  0  0  0  # atno 6909 bound_to 6896
  146.0699  139.5244  142.9604 H   0  0  0  0  0  0  0  0  0  0  0  0  # atno 7974 bound_to 7965
  154.7174  140.2705  155.6573 H   0  0  0  0  0  0  0  0  0  0  0  0  # atno 8008 bound_to 7997
  156.2813  140.2741  156.1759 H   0  0  0  0  0  0  0  0  0  0  0  0  # atno 8009 bound_to 7997
  155.0553  140.0371  157.2548 H   0  0  0  0  0  0  0  0  0  0  0  0  # atno 8010 bound_to 7997
  140.1495  143.4211  152.1505 H   0  0  0  0  0  0  0  0  0  0  0  0  # atno 10167 bound_to 10162
  157.4608  131.1073  150.9922 H   0  0  0  0  0  0  0  0  0  0  0  0  # atno 10718 bound_to 10713
  154.8242  135.4568  154.0870 H   0  0  0  0  0  0  0  0  0  0  0  0  # atno 10763 bound_to 10752
  153.2198  135.6892  153.8020 H   0  0  0  0  0  0  0  0  0  0  0  0  # atno 10764 bound_to 10752
  153.7441  135.3308  155.3286 H   0  0  0  0  0  0  0  0  0  0  0  0  # atno 10765 bound_to 10752
  140.2355  134.8091  157.3360 H   0  0  0  0  0  0  0  0  0  0  0  0  # atno 11005 bound_to 11000
  145.6411  141.0284  143.1811 LP  0  0  0  0  0  0  0  0  0  0  0  0  # atno 17320 bound_to 7965
  144.7225  139.7983  143.7377 LP  0  0  0  0  0  0  0  0  0  0  0  0  # atno 17321 bound_to 7965
  139.5433  144.7276  151.4665 LP  0  0  0  0  0  0  0  0  0  0  0  0  # atno 17342 bound_to 10162
  140.6711  143.8292  150.7000 LP  0  0  0  0  0  0  0  0  0  0  0  0  # atno 17343 bound_to 10162
  157.0720  130.5868  149.5404 LP  0  0  0  0  0  0  0  0  0  0  0  0  # atno 17370 bound_to 10713
  156.0028  130.5110  150.7723 LP  0  0  0  0  0  0  0  0  0  0  0  0  # atno 17371 bound_to 10713
  140.1706  134.4613  155.7834 LP  0  0  0  0  0  0  0  0  0  0  0  0  # atno 17394 bound_to 11000
  141.2214  133.6940  156.7701 LP  0  0  0  0  0  0  0  0  0  0  0  0  # atno 17395 bound_to 11000

$$$$
