AV-unprocessed.smi:877|AV-procd|sdf|4027|dock2
  -GOLD-   22720 1513D 1   1.00000     0.00000
 Structure written by MMmdl.
 43 45  0  0  0  0  0  0  0  0  1 V2000
  153.2625  143.4164  163.6187 C   0  0  0  0  0  0  0  0  0  0  0  0
  152.6194  144.1749  162.6050 O   0  0  0  0  0  0  0  0  0  0  0  0
  152.3953  143.5706  161.3865 C   0  0  0  0  0  0  0  0  0  0  0  0
  152.6050  142.1921  161.1300 C   0  0  0  0  0  0  0  0  0  0  0  0
  152.3481  141.6567  159.8530 C   0  0  0  0  0  0  0  0  0  0  0  0
  151.8801  142.4864  158.8141 C   0  0  0  0  0  0  0  0  0  0  0  0
  151.6030  141.9098  157.4364 C   0  0  0  0  0  0  0  0  0  0  0  0
  150.9349  140.5632  157.4833 C   0  0  0  0  0  0  0  0  0  0  0  0
  151.3933  139.5794  158.2602 N   0  0  0  0  0  0  0  0  0  0  0  0
  150.5100  138.5493  158.0068 C   0  0  0  0  0  0  0  0  0  0  0  0
  150.4543  137.2376  158.5298 C   0  0  0  0  0  0  0  0  0  0  0  0
  149.4418  136.3469  158.1170 C   0  0  0  0  0  0  0  0  0  0  0  0
  148.4732  136.7541  157.1770 C   0  0  0  0  0  0  0  0  0  0  0  0
  148.5123  138.0562  156.6421 C   0  0  0  0  0  0  0  0  0  0  0  0
  149.5249  138.9419  157.0579 C   0  0  0  0  0  0  0  0  0  0  0  0
  149.8409  140.2592  156.7373 N   0  0  0  0  0  0  0  0  0  0  0  0
  149.1261  141.1030  155.7877 C   0  0  0  0  0  0  0  0  0  0  0  0
  148.8544  140.3961  154.4446 C   0  0  2  0  0  0  0  0  0  0  0  0
  149.7855  140.8542  153.4827 O   0  0  0  0  0  0  0  0  0  0  0  0
  147.4338  140.6810  153.9296 C   0  0  0  0  0  0  0  0  0  0  0  0
  147.3174  140.2903  152.5781 O   0  0  0  0  0  0  0  0  0  0  0  0
  151.6718  143.8577  159.0631 C   0  0  0  0  0  0  0  0  0  0  0  0
  151.9274  144.3917  160.3403 C   0  0  0  0  0  0  0  0  0  0  0  0
  153.3610  144.0267  164.5163 H   0  0  0  0  0  0  0  0  0  0  0  0
  154.2652  143.1132  163.3144 H   0  0  0  0  0  0  0  0  0  0  0  0
  152.6814  142.5320  163.8835 H   0  0  0  0  0  0  0  0  0  0  0  0
  152.9621  141.5226  161.8976 H   0  0  0  0  0  0  0  0  0  0  0  0
  152.5110  140.6036  159.6760 H   0  0  0  0  0  0  0  0  0  0  0  0
  150.9974  142.6322  156.8923 H   0  0  0  0  0  0  0  0  0  0  0  0
  152.5353  141.8106  156.8797 H   0  0  0  0  0  0  0  0  0  0  0  0
  151.1913  136.9166  159.2510 H   0  0  0  0  0  0  0  0  0  0  0  0
  149.4079  135.3470  158.5242 H   0  0  0  0  0  0  0  0  0  0  0  0
  147.7000  136.0667  156.8664 H   0  0  0  0  0  0  0  0  0  0  0  0
  147.7703  138.3701  155.9230 H   0  0  0  0  0  0  0  0  0  0  0  0
  148.1942  141.4351  156.2458 H   0  0  0  0  0  0  0  0  0  0  0  0
  149.7094  142.0095  155.6215 H   0  0  0  0  0  0  0  0  0  0  0  0
  148.9864  139.3214  154.5710 H   0  0  0  0  0  0  0  0  0  0  0  0
  149.7919  140.2462  152.7590 H   0  0  0  0  0  0  0  0  0  0  0  0
  146.7032  140.1073  154.5009 H   0  0  0  0  0  0  0  0  0  0  0  0
  147.1729  141.7344  154.0397 H   0  0  0  0  0  0  0  0  0  0  0  0
  148.1759  140.3295  152.1841 H   0  0  0  0  0  0  0  0  0  0  0  0
  151.3110  144.5042  158.2769 H   0  0  0  0  0  0  0  0  0  0  0  0
  151.7615  145.4438  160.5197 H   0  0  0  0  0  0  0  0  0  0  0  0
  1  2  1  0  0  0  0
  1 24  1  0  0  0  0
  1 25  1  0  0  0  0
  1 26  1  0  0  0  0
  2  3  1  0  0  0  0
  3 23  1  0  0  0  0
  3  4  2  0  0  0  0
  4  5  1  0  0  0  0
  4 27  1  0  0  0  0
  5  6  2  0  0  0  0
  5 28  1  0  0  0  0
  6  7  1  0  0  0  0
  6 22  1  0  0  0  0
  7  8  1  0  0  0  0
  7 29  1  0  0  0  0
  7 30  1  0  0  0  0
  8 16  1  0  0  0  0
  8  9  2  0  0  0  0
  9 10  1  0  0  0  0
 10 15  2  0  0  0  0
 10 11  1  0  0  0  0
 11 12  2  0  0  0  0
 11 31  1  0  0  0  0
 12 13  1  0  0  0  0
 12 32  1  0  0  0  0
 13 14  2  0  0  0  0
 13 33  1  0  0  0  0
 14 15  1  0  0  0  0
 14 34  1  0  0  0  0
 15 16  1  0  0  0  0
 16 17  1  0  0  0  0
 17 18  1  0  0  0  0
 17 35  1  0  0  0  0
 17 36  1  0  0  0  0
 18 19  1  0  0  0  0
 18 20  1  0  0  0  0
 18 37  1  0  0  0  0
 19 38  1  0  0  0  0
 20 21  1  0  0  0  0
 20 39  1  0  0  0  0
 20 40  1  0  0  0  0
 21 41  1  0  0  0  0
 22 23  2  0  0  0  0
 22 42  1  0  0  0  0
 23 43  1  0  0  0  0
M  END
> <s_m_source_file>
AV-unprocessed.smi

> <i_m_source_file_index>
877

> <i_lp_mmshare_version>
43012

> <i_f3d_flags>
0

> <s_epik_input>
W0NIM11PYzFbY0hdW2NIXWMoW2NIXVtjSF0xKVtDSDJdYyhuMiluKFtDSDJdW0NASF0oW09IXSlbQ0gyXVtPSF0pYyhjMjMpW2NIXVtjSF1bY0hdW2NIXTM=

> <s_epik_cmdline>
J2VwaWtfcHl0aG9uJywgJy1waCcsICc3LjAnLCAnLXRuJywgJzgnLCAnLW1hJywgJzIwMCcsICctbWV0YWxfYmluZGluZycsICctaW1hZScsICc8aW5maWxlLm1hZT4nLCAnLW9tYWUnLCAnPG91dGZpbGUubWFlPic=

> <r_lp_tautomer_probability>
1

> <r_epik_Ionization_Penalty>
0.0616669

> <r_epik_Ionization_Penalty_Charging>
0

> <r_epik_Ionization_Penalty_Neutral>
0.0616669

> <r_epik_State_Penalty>
0.0535415

> <r_epik_Charging_Adjusted_Penalty>
0.0535415

> <i_epik_Tot_Q>
0

> <i_epik_Tot_abs_Q>
0

> <r_epik_Metal_State_Penalty>
5.60326e-05

> <b_epik_Metal_Only>
0

> <s_lp_Force_Field>
OPLS_2005

> <r_lp_Energy>
20.6154

> <b_lp_Chiralities_Consistent>
1

> <s_lp_Variant>
AV-unprocessed.smi:877-1

> <Gold.Version>
5.8.1

> <Gold.Id.Protein>
6NUR|6NUR_protein|mol2

> <Gold.PLP.Fitness>
47.7017

> <Gold.PLP.PLP>
-41.5107

> <Gold.PLP.part.hbond>
-3.4176

> <Gold.PLP.part.metal>
0.0000

> <Gold.PLP.part.buried>
-3.9954

> <Gold.PLP.part.nonpolar>
-31.8258

> <Gold.PLP.part.repulsive>
0.1824

> <Gold.PLP.ligand.clash>
0.0000

> <Gold.PLP.ligand.torsion>
1.2831

> <Gold.PLP.Chemscore.Hbond>
2.8928

> <Gold.PLP.Chemscore.CHOScore>
0.0000

> <Gold.PLP.Chemscore.Metal>
0.0000

> <Gold.Chemscore.Hbonds>
donor molecule, donor type, donor heavy atom, donor atom, acceptor molecule, acceptor atom, score
      L1  H    19    38       P1  7957  0.93
      L1  H    21    41       P1  7957  1.00
      P1  H  7989  7998       L1    19  0.16
      P1  H  8011  8017       L1    19  0.65

> <Gold.PLP.Chemscore.Internal.Correction>
0.0789

> <Gold.Rescore>
     Score         DG    S(hbond)    S(metal)    S(lipo)     H(rot)  DE(clash)    DE(int)     intcor
     14.73     -17.69       1.98        0.00     116.77       3.15       0.28       2.69       ----

> <Gold.Chemscore.Fitness>
14.7293

> <Gold.Chemscore.DG>
-17.6916

> <Gold.Chemscore.ZeroCoef>
-5.4800

> <Gold.Chemscore.Hbond>
1.9791

> <Gold.Chemscore.Metal>
0.0000

> <Gold.Chemscore.Lipo>
116.7723

> <Gold.Chemscore.Internal_Hbond>
0.0000

> <Gold.Chemscore.DEClash>
0.2764

> <Gold.Chemscore.DEInternal>
2.6859

> <Gold.Chemscore.Rot>
3.1488

> <Gold.Chemscore.Internal.Correction>
   9.000000E+99

> <Gold.Chemscore.Hbonds>
donor molecule, donor type, donor heavy atom, donor atom, acceptor molecule, acceptor atom, score
      L1  H    19    38       P1  7957  0.89
      L1  H    21    41       P1  7957  1.00
      P1  H  7989  7998       L1    19  0.01
      P1  H  8011  8017       L1    19  0.05

> <Gold.Chemscore.Hbond.Weighted>
-6.6101

> <Gold.Chemscore.Metal.Weighted>
-0.0000

> <Gold.Chemscore.Lipo.Weighted>
-13.6624

> <Gold.Chemscore.Internal_Hbond.Weighted>
0.0000

> <Gold.Chemscore.DEClash.Weighted>
0.2764

> <Gold.Chemscore.DEInternal.Weighted>
2.6859

> <Gold.Chemscore.Rot.Weighted>
8.0608

> <Gold.Chemscore.Internal.Correction.Weighted>
   9.000000E+99

> <Gold.Protein.RotatedTorsions>
[ 6907 6896 6895 6894 ] final  -52.24 input  -60.11 | X-H torsion
[ 7974 7965 7964 7962 ] final -114.42 input  175.53 | X-H torsion
[ 8008 7997 7996 7995 ] final  118.85 input   59.86 | X-H torsion
[ 10167 10162 10161 10158 ] final  -45.74 input  -65.29 | X-H torsion
[ 10718 10713 10712 10709 ] final   71.17 input   66.30 | X-H torsion
[ 10763 10752 10751 10750 ] final   92.70 input  -60.55 | X-H torsion
[ 11005 11000 10999 10996 ] final  -20.49 input  -57.11 | X-H torsion

> <Gold.Protein.ActiveResidues>
 VAL166  LYS551  ARG553  GLY616  TRP617  ASP618  TYR619  PRO620  LYS621  CYS622 
 ASP623  PHE694  ASN695  SER759  ASP760  ASP761  ALA762  ILE779  LEU786  VAL792 
 PHE793  MET794  SER795  GLU796  ALA797  LYS798  CYS799  TRP800  GLU811  SER814 

> <Gold.Protein.RotatedAtoms>
  150.8536  134.7868  159.7027 H   0  0  0  0  0  0  0  0  0  0  0  0  # atno 6907 bound_to 6896
  152.4594  134.5216  159.9794 H   0  0  0  0  0  0  0  0  0  0  0  0  # atno 6908 bound_to 6896
  151.5332  133.3407  159.2957 H   0  0  0  0  0  0  0  0  0  0  0  0  # atno 6909 bound_to 6896
  145.1204  140.8665  143.3817 H   0  0  0  0  0  0  0  0  0  0  0  0  # atno 7974 bound_to 7965
  156.2567  140.2866  156.0899 H   0  0  0  0  0  0  0  0  0  0  0  0  # atno 8008 bound_to 7997
  155.1474  140.0397  157.2830 H   0  0  0  0  0  0  0  0  0  0  0  0  # atno 8009 bound_to 7997
  154.6485  140.2539  155.7247 H   0  0  0  0  0  0  0  0  0  0  0  0  # atno 8010 bound_to 7997
  140.6846  143.2864  151.3683 H   0  0  0  0  0  0  0  0  0  0  0  0  # atno 10167 bound_to 10162
  157.6438  130.9514  150.0752 H   0  0  0  0  0  0  0  0  0  0  0  0  # atno 10718 bound_to 10713
  153.2220  135.4352  155.0500 H   0  0  0  0  0  0  0  0  0  0  0  0  # atno 10763 bound_to 10752
  154.8255  135.3358  154.6913 H   0  0  0  0  0  0  0  0  0  0  0  0  # atno 10764 bound_to 10752
  153.7344  135.7009  153.5037 H   0  0  0  0  0  0  0  0  0  0  0  0  # atno 10765 bound_to 10752
  140.8470  133.7884  155.9923 H   0  0  0  0  0  0  0  0  0  0  0  0  # atno 11005 bound_to 11000
  145.0747  139.3005  143.5814 LP  0  0  0  0  0  0  0  0  0  0  0  0  # atno 17320 bound_to 7965
  146.3521  140.0233  142.8656 LP  0  0  0  0  0  0  0  0  0  0  0  0  # atno 17321 bound_to 7965
  139.6193  144.0938  152.2376 LP  0  0  0  0  0  0  0  0  0  0  0  0  # atno 17342 bound_to 10162
  140.0378  144.6031  150.7436 LP  0  0  0  0  0  0  0  0  0  0  0  0  # atno 17343 bound_to 10162
  156.1744  130.3647  149.9120 LP  0  0  0  0  0  0  0  0  0  0  0  0  # atno 17370 bound_to 10713
  156.7088  130.8962  151.3607 LP  0  0  0  0  0  0  0  0  0  0  0  0  # atno 17371 bound_to 10713
  140.8832  134.2585  157.5133 LP  0  0  0  0  0  0  0  0  0  0  0  0  # atno 17394 bound_to 11000
  139.8703  134.9625  156.4432 LP  0  0  0  0  0  0  0  0  0  0  0  0  # atno 17395 bound_to 11000

$$$$
