AV-unprocessed.smi:1927|AV-procd|sdf|7796|dock3
  -GOLD-   22720 9543D 1   1.00000     0.00000
 Structure written by MMmdl.
 34 35  0  0  0  0  0  0  0  0  1 V2000
  147.8530  133.3063  152.5096 C   0  0  0  0  0  0  0  0  0  0  0  0
  146.4105  133.3085  152.0297 C   0  0  0  0  0  0  0  0  0  0  0  0
  145.7430  132.0794  151.8426 C   0  0  0  0  0  0  0  0  0  0  0  0
  144.4100  132.0839  151.3973 C   0  0  0  0  0  0  0  0  0  0  0  0
  143.7971  133.3255  151.1568 C   0  0  0  0  0  0  0  0  0  0  0  0
  144.4271  134.5047  151.3336 N   0  0  0  0  0  0  0  0  0  0  0  0
  145.7140  134.5181  151.7630 C   0  0  0  0  0  0  0  0  0  0  0  0
  146.4410  135.7233  151.9757 N   0  0  0  0  0  0  0  0  0  0  0  0
  145.9661  136.9545  152.2347 C   0  0  0  0  0  0  0  0  0  0  0  0
  144.7756  137.2586  152.3146 O   0  0  0  0  0  0  0  0  0  0  0  0
  146.9672  137.8324  152.3948 N   0  0  0  0  0  0  0  0  0  0  0  0
  146.8111  139.2544  152.6838 C   0  0  0  0  0  0  0  0  0  0  0  0
  147.7540  139.7151  153.8103 C   0  0  2  0  0  0  0  0  0  0  0  0
  147.9292  141.2181  153.8839 C   0  0  0  0  0  0  0  0  0  0  0  0
  149.2041  141.3525  154.7123 C   0  0  0  0  0  0  0  0  0  0  0  0
  149.9697  140.1793  154.4500 O   0  0  0  0  0  0  0  0  0  0  0  0
  149.2089  139.2652  153.6669 C   0  0  0  0  0  0  0  0  0  0  0  0
  148.2197  132.2907  152.6626 H   0  0  0  0  0  0  0  0  0  0  0  0
  147.9422  133.8415  153.4554 H   0  0  0  0  0  0  0  0  0  0  0  0
  148.4999  133.7880  151.7757 H   0  0  0  0  0  0  0  0  0  0  0  0
  146.2433  131.1421  152.0375 H   0  0  0  0  0  0  0  0  0  0  0  0
  143.8716  131.1603  151.2446 H   0  0  0  0  0  0  0  0  0  0  0  0
  142.7736  133.3741  150.8156 H   0  0  0  0  0  0  0  0  0  0  0  0
  147.4450  135.6337  151.9318 H   0  0  0  0  0  0  0  0  0  0  0  0
  147.9136  137.4911  152.3107 H   0  0  0  0  0  0  0  0  0  0  0  0
  146.9601  139.8557  151.7851 H   0  0  0  0  0  0  0  0  0  0  0  0
  145.7768  139.4160  152.9881 H   0  0  0  0  0  0  0  0  0  0  0  0
  147.3715  139.3653  154.7709 H   0  0  0  0  0  0  0  0  0  0  0  0
  148.0872  141.6320  152.8866 H   0  0  0  0  0  0  0  0  0  0  0  0
  147.0763  141.7280  154.3326 H   0  0  0  0  0  0  0  0  0  0  0  0
  149.7633  142.2557  154.4672 H   0  0  0  0  0  0  0  0  0  0  0  0
  148.9666  141.3804  155.7764 H   0  0  0  0  0  0  0  0  0  0  0  0
  149.3655  138.2366  153.9923 H   0  0  0  0  0  0  0  0  0  0  0  0
  149.5370  139.3451  152.6295 H   0  0  0  0  0  0  0  0  0  0  0  0
  1  2  1  0  0  0  0
  1 18  1  0  0  0  0
  1 19  1  0  0  0  0
  1 20  1  0  0  0  0
  2  7  1  0  0  0  0
  2  3  2  0  0  0  0
  3  4  1  0  0  0  0
  3 21  1  0  0  0  0
  4  5  2  0  0  0  0
  4 22  1  0  0  0  0
  5  6  1  0  0  0  0
  5 23  1  0  0  0  0
  6  7  2  0  0  0  0
  7  8  1  0  0  0  0
  8  9  1  0  0  0  0
  8 24  1  0  0  0  0
  9 10  2  0  0  0  0
  9 11  1  0  0  0  0
 11 12  1  0  0  0  0
 11 25  1  0  0  0  0
 12 13  1  0  0  0  0
 12 26  1  0  0  0  0
 12 27  1  0  0  0  0
 13 17  1  0  0  0  0
 13 14  1  0  0  0  0
 13 28  1  0  0  0  0
 14 15  1  0  0  0  0
 14 29  1  0  0  0  0
 14 30  1  0  0  0  0
 15 16  1  0  0  0  0
 15 31  1  0  0  0  0
 15 32  1  0  0  0  0
 16 17  1  0  0  0  0
 17 33  1  0  0  0  0
 17 34  1  0  0  0  0
M  END
> <s_m_source_file>
AV-unprocessed.smi

> <i_m_source_file_index>
1927

> <i_lp_mmshare_version>
43012

> <i_f3d_flags>
0

> <s_epik_input>
W0NIM11jMVtjSF1bY0hdW2NIXW5jMVtOSF1DKD1PKVtOSF1bQ0gyXVtDQEBIXTJbQ0gyXVtDSDJdT1tDSDJdMg==

> <s_epik_cmdline>
J2VwaWtfcHl0aG9uJywgJy1waCcsICc3LjAnLCAnLXRuJywgJzgnLCAnLW1hJywgJzIwMCcsICctbWV0YWxfYmluZGluZycsICctaW1hZScsICc8aW5maWxlLm1hZT4nLCAnLW9tYWUnLCAnPG91dGZpbGUubWFlPic=

> <r_lp_tautomer_probability>
1

> <r_epik_Ionization_Penalty>
5.84082e-05

> <r_epik_Ionization_Penalty_Charging>
0

> <r_epik_Ionization_Penalty_Neutral>
5.84082e-05

> <r_epik_State_Penalty>
-0

> <r_epik_Charging_Adjusted_Penalty>
0

> <i_epik_Tot_Q>
0

> <i_epik_Tot_abs_Q>
0

> <r_epik_Metal_State_Penalty>
-0

> <b_epik_Metal_Only>
0

> <s_lp_Force_Field>
OPLS_2005

> <r_lp_Energy>
21.003

> <b_lp_Chiralities_Consistent>
1

> <s_lp_Variant>
AV-unprocessed.smi:1927-1

> <Gold.Version>
5.8.1

> <Gold.Id.Protein>
6NUR|6NUR_protein|mol2

> <Gold.PLP.Fitness>
40.8923

> <Gold.PLP.PLP>
-29.6538

> <Gold.PLP.part.hbond>
-3.0000

> <Gold.PLP.part.metal>
0.0000

> <Gold.PLP.part.buried>
-0.0557

> <Gold.PLP.part.nonpolar>
-27.3102

> <Gold.PLP.part.repulsive>
1.7208

> <Gold.PLP.ligand.clash>
0.0000

> <Gold.PLP.ligand.torsion>
0.3116

> <Gold.PLP.Chemscore.Hbond>
2.9520

> <Gold.PLP.Chemscore.CHOScore>
1.0000

> <Gold.PLP.Chemscore.Metal>
0.0000

> <Gold.Chemscore.Hbonds>
donor molecule, donor type, donor heavy atom, donor atom, acceptor molecule, acceptor atom, score
      L1  H     8    24       P1  7948  1.00
      L1  H    11    25       P1  7948  0.98
      P1  H  7989  7998       L1    16  0.99
      L1  C     5    23       P1 10186  1.00

> <Gold.PLP.Chemscore.Internal.Correction>
0.0057

> <Gold.Rescore>
     Score         DG    S(hbond)    S(metal)    S(lipo)     H(rot)  DE(clash)    DE(int)     intcor
     16.02     -19.15       2.61        0.00      69.42       1.23       1.71       1.42       ----

> <Gold.Chemscore.Fitness>
16.0190

> <Gold.Chemscore.DG>
-19.1549

> <Gold.Chemscore.ZeroCoef>
-5.4800

> <Gold.Chemscore.Hbond>
2.6079

> <Gold.Chemscore.Metal>
0.0000

> <Gold.Chemscore.Lipo>
69.4235

> <Gold.Chemscore.Internal_Hbond>
0.0000

> <Gold.Chemscore.DEClash>
1.7143

> <Gold.Chemscore.DEInternal>
1.4216

> <Gold.Chemscore.Rot>
1.2337

> <Gold.Chemscore.Internal.Correction>
   9.000000E+99

> <Gold.Chemscore.Hbonds>
donor molecule, donor type, donor heavy atom, donor atom, acceptor molecule, acceptor atom, score
      L1  H     8    24       P1  7948  0.96
      L1  H    11    25       P1  7948  0.92
      P1  H  7989  7998       L1    16  0.33

> <Gold.Chemscore.Hbond.Weighted>
-8.7105

> <Gold.Chemscore.Metal.Weighted>
-0.0000

> <Gold.Chemscore.Lipo.Weighted>
-8.1226

> <Gold.Chemscore.Internal_Hbond.Weighted>
0.0000

> <Gold.Chemscore.DEClash.Weighted>
1.7143

> <Gold.Chemscore.DEInternal.Weighted>
1.4216

> <Gold.Chemscore.Rot.Weighted>
3.1582

> <Gold.Chemscore.Internal.Correction.Weighted>
   9.000000E+99

> <Gold.Protein.RotatedTorsions>
[ 6907 6896 6895 6894 ] final  -16.58 input  -60.11 | X-H torsion
[ 7974 7965 7964 7962 ] final  178.60 input  175.53 | X-H torsion
[ 8008 7997 7996 7995 ] final -113.61 input   59.86 | X-H torsion
[ 10167 10162 10161 10158 ] final   27.09 input  -65.29 | X-H torsion
[ 10718 10713 10712 10709 ] final -153.73 input   66.30 | X-H torsion
[ 10763 10752 10751 10750 ] final  -46.91 input  -60.55 | X-H torsion
[ 11005 11000 10999 10996 ] final   62.73 input  -57.11 | X-H torsion

> <Gold.Protein.ActiveResidues>
 VAL166  LYS551  ARG553  GLY616  TRP617  ASP618  TYR619  PRO620  LYS621  CYS622 
 ASP623  PHE694  ASN695  SER759  ASP760  ASP761  ALA762  ILE779  LEU786  VAL792 
 PHE793  MET794  SER795  GLU796  ALA797  LYS798  CYS799  TRP800  GLU811  SER814 

> <Gold.Protein.RotatedAtoms>
  151.3065  135.0782  159.9256 H   0  0  0  0  0  0  0  0  0  0  0  0  # atno 6907 bound_to 6896
  152.5287  133.9780  159.7803 H   0  0  0  0  0  0  0  0  0  0  0  0  # atno 6908 bound_to 6896
  151.0076  133.5944  159.2717 H   0  0  0  0  0  0  0  0  0  0  0  0  # atno 6909 bound_to 6896
  144.7154  140.0422  143.6437 H   0  0  0  0  0  0  0  0  0  0  0  0  # atno 7974 bound_to 7965
  155.0235  140.0393  157.2446 H   0  0  0  0  0  0  0  0  0  0  0  0  # atno 8008 bound_to 7997
  154.7358  140.2739  155.6393 H   0  0  0  0  0  0  0  0  0  0  0  0  # atno 8009 bound_to 7997
  156.2852  140.2675  156.2071 H   0  0  0  0  0  0  0  0  0  0  0  0  # atno 8010 bound_to 7997
  140.4967  144.0380  150.6317 H   0  0  0  0  0  0  0  0  0  0  0  0  # atno 10167 bound_to 10162
  156.4898  130.8342  151.2565 H   0  0  0  0  0  0  0  0  0  0  0  0  # atno 10718 bound_to 10713
  154.0527  135.6629  153.4802 H   0  0  0  0  0  0  0  0  0  0  0  0  # atno 10763 bound_to 10752
  153.0457  135.5116  154.7735 H   0  0  0  0  0  0  0  0  0  0  0  0  # atno 10764 bound_to 10752
  154.6747  135.3035  154.9662 H   0  0  0  0  0  0  0  0  0  0  0  0  # atno 10765 bound_to 10752
  140.0072  134.6351  155.9836 H   0  0  0  0  0  0  0  0  0  0  0  0  # atno 11005 bound_to 11000
  146.0014  139.3094  143.0925 LP  0  0  0  0  0  0  0  0  0  0  0  0  # atno 17320 bound_to 7965
  145.8789  140.9375  143.0612 LP  0  0  0  0  0  0  0  0  0  0  0  0  # atno 17321 bound_to 7965
  140.3664  143.2879  152.0326 LP  0  0  0  0  0  0  0  0  0  0  0  0  # atno 17342 bound_to 10162
  139.4863  144.6263  151.7157 LP  0  0  0  0  0  0  0  0  0  0  0  0  # atno 17343 bound_to 10162
  157.7475  131.0017  150.2974 LP  0  0  0  0  0  0  0  0  0  0  0  0  # atno 17370 bound_to 10713
  156.3438  130.3819  149.7386 LP  0  0  0  0  0  0  0  0  0  0  0  0  # atno 17371 bound_to 10713
  141.1685  133.6537  156.4567 LP  0  0  0  0  0  0  0  0  0  0  0  0  # atno 17394 bound_to 11000
  140.4619  134.6833  157.5089 LP  0  0  0  0  0  0  0  0  0  0  0  0  # atno 17395 bound_to 11000

$$$$
