AV-unprocessed.smi:1543|AV-procd|sdf|6206|dock8
  -GOLD-   22720 6373D 1   1.00000     0.00000
 Structure written by MMmdl.
 48 49  0  0  0  0  0  0  0  0  1 V2000
  152.1916  144.9521  158.9440 C   0  0  0  0  0  0  0  0  0  0  0  0
  151.8768  143.4751  159.2030 C   0  0  1  0  0  0  0  0  0  0  0  0
  151.4324  142.7418  157.9239 C   0  0  0  0  0  0  0  0  0  0  0  0
  151.1939  141.3140  158.1610 N   0  0  0  0  0  0  0  0  0  0  0  0
  150.6374  140.5696  156.9957 C   0  0  0  0  0  0  0  0  0  0  0  0
  149.1981  141.0061  156.6299 C   0  0  0  0  0  0  0  0  0  0  0  0
  151.5116  140.7791  155.7329 C   0  0  0  0  0  0  0  0  0  0  0  0
  150.5970  139.0345  157.2568 C   0  0  0  0  0  0  0  0  0  0  0  0
  149.5740  138.6483  158.2286 N   0  0  0  0  0  0  0  0  0  0  0  0
  149.2700  137.3950  158.5936 C   0  0  0  0  0  0  0  0  0  0  0  0
  149.8291  136.3980  158.1376 O   0  0  0  0  0  0  0  0  0  0  0  0
  148.3025  137.3873  159.5265 N   0  0  0  0  0  0  0  0  0  0  0  0
  147.6866  136.2752  160.1621 C   0  0  0  0  0  0  0  0  0  0  0  0
  147.1918  136.2831  161.4893 C   0  0  0  0  0  0  0  0  0  0  0  0
  146.6194  135.1054  162.0078 C   0  0  0  0  0  0  0  0  0  0  0  0
  146.5680  133.9631  161.1856 C   0  0  0  0  0  0  0  0  0  0  0  0
  147.0460  133.9378  159.9238 N   0  0  0  0  0  0  0  0  0  0  0  0
  147.5937  135.0702  159.4335 C   0  0  0  0  0  0  0  0  0  0  0  0
  152.4066  140.7299  158.7447 C   0  0  0  0  0  0  0  0  0  0  0  0
  152.8572  141.4717  160.0174 C   0  0  1  0  0  0  0  0  0  0  0  0
  154.1710  140.9154  160.5766 C   0  0  0  0  0  0  0  0  0  0  0  0
  153.0485  142.8496  159.7147 O   0  0  0  0  0  0  0  0  0  0  0  0
  151.3163  145.4783  158.5626 H   0  0  0  0  0  0  0  0  0  0  0  0
  152.9936  145.0625  158.2137 H   0  0  0  0  0  0  0  0  0  0  0  0
  152.5051  145.4502  159.8618 H   0  0  0  0  0  0  0  0  0  0  0  0
  151.0858  143.4133  159.9525 H   0  0  0  0  0  0  0  0  0  0  0  0
  150.5309  143.2302  157.5591 H   0  0  0  0  0  0  0  0  0  0  0  0
  152.1957  142.8728  157.1567 H   0  0  0  0  0  0  0  0  0  0  0  0
  148.8266  140.4454  155.7714 H   0  0  0  0  0  0  0  0  0  0  0  0
  149.1415  142.0608  156.3617 H   0  0  0  0  0  0  0  0  0  0  0  0
  148.4954  140.8330  157.4447 H   0  0  0  0  0  0  0  0  0  0  0  0
  151.2217  140.1021  154.9287 H   0  0  0  0  0  0  0  0  0  0  0  0
  152.5679  140.6036  155.9396 H   0  0  0  0  0  0  0  0  0  0  0  0
  151.4195  141.7868  155.3281 H   0  0  0  0  0  0  0  0  0  0  0  0
  150.3998  138.4877  156.3350 H   0  0  0  0  0  0  0  0  0  0  0  0
  151.5796  138.6798  157.5734 H   0  0  0  0  0  0  0  0  0  0  0  0
  149.0696  139.4031  158.6700 H   0  0  0  0  0  0  0  0  0  0  0  0
  148.0008  138.2925  159.8563 H   0  0  0  0  0  0  0  0  0  0  0  0
  147.2500  137.1549  162.1218 H   0  0  0  0  0  0  0  0  0  0  0  0
  146.2319  135.0771  163.0154 H   0  0  0  0  0  0  0  0  0  0  0  0
  146.1367  133.0439  161.5532 H   0  0  0  0  0  0  0  0  0  0  0  0
  147.9675  135.0118  158.4215 H   0  0  0  0  0  0  0  0  0  0  0  0
  152.2442  139.6868  159.0103 H   0  0  0  0  0  0  0  0  0  0  0  0
  153.2192  140.7490  158.0182 H   0  0  0  0  0  0  0  0  0  0  0  0
  152.0854  141.3822  160.7839 H   0  0  0  0  0  0  0  0  0  0  0  0
  154.0721  139.8613  160.8368 H   0  0  0  0  0  0  0  0  0  0  0  0
  154.4697  141.4532  161.4767 H   0  0  0  0  0  0  0  0  0  0  0  0
  154.9793  141.0065  159.8502 H   0  0  0  0  0  0  0  0  0  0  0  0
  1  2  1  0  0  0  0
  1 23  1  0  0  0  0
  1 24  1  0  0  0  0
  1 25  1  0  0  0  0
  2 22  1  0  0  0  0
  2  3  1  0  0  0  0
  2 26  1  0  0  0  0
  3  4  1  0  0  0  0
  3 27  1  0  0  0  0
  3 28  1  0  0  0  0
  4  5  1  0  0  0  0
  4 19  1  0  0  0  0
  5  6  1  0  0  0  0
  5  7  1  0  0  0  0
  5  8  1  0  0  0  0
  6 29  1  0  0  0  0
  6 30  1  0  0  0  0
  6 31  1  0  0  0  0
  7 32  1  0  0  0  0
  7 33  1  0  0  0  0
  7 34  1  0  0  0  0
  8  9  1  0  0  0  0
  8 35  1  0  0  0  0
  8 36  1  0  0  0  0
  9 10  1  0  0  0  0
  9 37  1  0  0  0  0
 10 11  2  0  0  0  0
 10 12  1  0  0  0  0
 12 13  1  0  0  0  0
 12 38  1  0  0  0  0
 13 18  1  0  0  0  0
 13 14  2  0  0  0  0
 14 15  1  0  0  0  0
 14 39  1  0  0  0  0
 15 16  2  0  0  0  0
 15 40  1  0  0  0  0
 16 17  1  0  0  0  0
 16 41  1  0  0  0  0
 17 18  2  0  0  0  0
 18 42  1  0  0  0  0
 19 20  1  0  0  0  0
 19 43  1  0  0  0  0
 19 44  1  0  0  0  0
 20 21  1  0  0  0  0
 20 22  1  0  0  0  0
 20 45  1  0  0  0  0
 21 46  1  0  0  0  0
 21 47  1  0  0  0  0
 21 48  1  0  0  0  0
M  END
> <s_m_source_file>
AV-unprocessed.smi

> <i_m_source_file_index>
1543

> <i_lp_mmshare_version>
43012

> <i_f3d_flags>
0

> <s_epik_input>
W0NIM11bQ0BASF0xW0NIMl1OKFtDSDJdW0NASF0oTzEpW0NIM10pQyhbQ0gzXSkoW0NIM10pW0NIMl1bTkhdQyg9TylbTkhdYzJbY0hdW2NIXVtjSF1uW2NIXTI=

> <s_epik_cmdline>
J2VwaWtfcHl0aG9uJywgJy1waCcsICc3LjAnLCAnLXRuJywgJzgnLCAnLW1hJywgJzIwMCcsICctbWV0YWxfYmluZGluZycsICctaW1hZScsICc8aW5maWxlLm1hZT4nLCAnLW9tYWUnLCAnPG91dGZpbGUubWFlPic=

> <r_epik_Ionization_Penalty>
0.270794

> <r_epik_Ionization_Penalty_Charging>
0

> <r_epik_Ionization_Penalty_Neutral>
0.270794

> <r_epik_State_Penalty>
0.268291

> <r_epik_Charging_Adjusted_Penalty>
0.268291

> <i_epik_Tot_Q>
0

> <i_epik_Tot_abs_Q>
0

> <r_epik_Metal_State_Penalty>
0.264827

> <b_epik_Metal_Only>
0

> <s_lp_Force_Field>
OPLS_2005

> <r_lp_Energy>
43.3582

> <b_lp_Chiralities_Consistent>
1

> <s_lp_Variant>
AV-unprocessed.smi:1543-2

> <Gold.Version>
5.8.1

> <Gold.Id.Protein>
6NUR|6NUR_protein|mol2

> <Gold.PLP.Fitness>
46.5329

> <Gold.PLP.PLP>
-44.4286

> <Gold.PLP.part.hbond>
-1.0000

> <Gold.PLP.part.metal>
0.0000

> <Gold.PLP.part.buried>
-7.0681

> <Gold.PLP.part.nonpolar>
-38.6319

> <Gold.PLP.part.repulsive>
1.8474

> <Gold.PLP.ligand.clash>
0.0000

> <Gold.PLP.ligand.torsion>
0.4764

> <Gold.PLP.Chemscore.Hbond>
1.0000

> <Gold.PLP.Chemscore.CHOScore>
0.0000

> <Gold.PLP.Chemscore.Metal>
0.0000

> <Gold.Chemscore.Hbonds>
donor molecule, donor type, donor heavy atom, donor atom, acceptor molecule, acceptor atom, score
      P1  H  6896  6908       L1    11  0.08

> <Gold.PLP.Chemscore.Internal.Correction>
0.0571

> <Gold.Rescore>
     Score         DG    S(hbond)    S(metal)    S(lipo)     H(rot)  DE(clash)    DE(int)     intcor
     16.20     -17.96       1.00        0.00     109.42       1.43       0.11       1.65       ----

> <Gold.Chemscore.Fitness>
16.2031

> <Gold.Chemscore.DG>
-17.9638

> <Gold.Chemscore.ZeroCoef>
-5.4800

> <Gold.Chemscore.Hbond>
1.0000

> <Gold.Chemscore.Metal>
0.0000

> <Gold.Chemscore.Lipo>
109.4221

> <Gold.Chemscore.Internal_Hbond>
0.0000

> <Gold.Chemscore.DEClash>
0.1120

> <Gold.Chemscore.DEInternal>
1.6487

> <Gold.Chemscore.Rot>
1.4291

> <Gold.Chemscore.Internal.Correction>
   9.000000E+99

> <Gold.Chemscore.Hbonds>
donor molecule, donor type, donor heavy atom, donor atom, acceptor molecule, acceptor atom, score
      P1  H  6896  6908       L1    11  0.11

> <Gold.Chemscore.Hbond.Weighted>
-3.3400

> <Gold.Chemscore.Metal.Weighted>
-0.0000

> <Gold.Chemscore.Lipo.Weighted>
-12.8024

> <Gold.Chemscore.Internal_Hbond.Weighted>
0.0000

> <Gold.Chemscore.DEClash.Weighted>
0.1120

> <Gold.Chemscore.DEInternal.Weighted>
1.6487

> <Gold.Chemscore.Rot.Weighted>
3.6586

> <Gold.Chemscore.Internal.Correction.Weighted>
   9.000000E+99

> <Gold.Protein.RotatedTorsions>
[ 6907 6896 6895 6894 ] final -174.97 input  -60.11 | X-H torsion
[ 7974 7965 7964 7962 ] final   44.92 input  175.53 | X-H torsion
[ 8008 7997 7996 7995 ] final -107.44 input   59.86 | X-H torsion
[ 10167 10162 10161 10158 ] final    6.62 input  -65.29 | X-H torsion
[ 10718 10713 10712 10709 ] final  161.09 input   66.30 | X-H torsion
[ 10763 10752 10751 10750 ] final -106.62 input  -60.55 | X-H torsion
[ 11005 11000 10999 10996 ] final  -38.27 input  -57.11 | X-H torsion

> <Gold.Protein.ActiveResidues>
 VAL166  LYS551  ARG553  GLY616  TRP617  ASP618  TYR619  PRO620  LYS621  CYS622 
 ASP623  PHE694  ASN695  SER759  ASP760  ASP761  ALA762  ILE779  LEU786  VAL792 
 PHE793  MET794  SER795  GLU796  ALA797  LYS798  CYS799  TRP800  GLU811  SER814 

> <Gold.Protein.RotatedAtoms>
  151.5809  133.3378  159.3008 H   0  0  0  0  0  0  0  0  0  0  0  0  # atno 6907 bound_to 6896
  150.8314  134.7571  159.6868 H   0  0  0  0  0  0  0  0  0  0  0  0  # atno 6908 bound_to 6896
  152.4397  134.5623  159.9949 H   0  0  0  0  0  0  0  0  0  0  0  0  # atno 6909 bound_to 6896
  146.0526  139.5021  142.9709 H   0  0  0  0  0  0  0  0  0  0  0  0  # atno 7974 bound_to 7965
  154.9294  140.0405  157.2040 H   0  0  0  0  0  0  0  0  0  0  0  0  # atno 8008 bound_to 7997
  154.8175  140.2878  155.5788 H   0  0  0  0  0  0  0  0  0  0  0  0  # atno 8009 bound_to 7997
  156.2977  140.2525  156.3076 H   0  0  0  0  0  0  0  0  0  0  0  0  # atno 8010 bound_to 7997
  140.6418  143.7757  150.7439 H   0  0  0  0  0  0  0  0  0  0  0  0  # atno 10167 bound_to 10162
  157.1413  131.0541  151.2325 H   0  0  0  0  0  0  0  0  0  0  0  0  # atno 10718 bound_to 10713
  154.8024  135.4705  154.0307 H   0  0  0  0  0  0  0  0  0  0  0  0  # atno 10763 bound_to 10752
  153.1803  135.6839  153.8494 H   0  0  0  0  0  0  0  0  0  0  0  0  # atno 10764 bound_to 10752
  153.8047  135.3225  155.3371 H   0  0  0  0  0  0  0  0  0  0  0  0  # atno 10765 bound_to 10752
  141.0015  133.6953  156.2031 H   0  0  0  0  0  0  0  0  0  0  0  0  # atno 11005 bound_to 11000
  145.6698  141.0219  143.1663 LP  0  0  0  0  0  0  0  0  0  0  0  0  # atno 17320 bound_to 7965
  144.7131  139.8298  143.7408 LP  0  0  0  0  0  0  0  0  0  0  0  0  # atno 17321 bound_to 7965
  140.1390  143.4458  152.2206 LP  0  0  0  0  0  0  0  0  0  0  0  0  # atno 17342 bound_to 10162
  139.5627  144.7416  151.4110 LP  0  0  0  0  0  0  0  0  0  0  0  0  # atno 17343 bound_to 10162
  157.4304  130.7487  149.6985 LP  0  0  0  0  0  0  0  0  0  0  0  0  # atno 17370 bound_to 10713
  155.9788  130.4047  150.3627 LP  0  0  0  0  0  0  0  0  0  0  0  0  # atno 17371 bound_to 10713
  140.6881  134.4695  157.5589 LP  0  0  0  0  0  0  0  0  0  0  0  0  # atno 17394 bound_to 11000
  139.9041  134.8488  156.1775 LP  0  0  0  0  0  0  0  0  0  0  0  0  # atno 17395 bound_to 11000

$$$$
