AV-unprocessed.smi:3116|AV-procd|sdf|11872|dock5
  -GOLD-   2272017253D 1   1.00000     0.00000
 Structure written by MMmdl.
 33 33  0  0  0  0  0  0  0  0  1 V2000
  152.4984  139.2513  155.5973 C   0  0  0  0  0  0  0  0  0  0  0  0
  151.0802  138.8831  155.1351 C   0  0  2  0  0  0  0  0  0  0  0  0
  150.0928  139.6636  155.8999 N   0  0  0  0  0  0  0  0  0  0  0  0
  150.4090  141.0824  156.0724 C   0  0  1  0  0  0  0  0  0  0  0  0
  149.5052  141.8937  155.1270 C   0  0  0  0  0  0  0  0  0  0  0  0
  150.2539  141.4946  157.5607 C   0  0  2  0  0  0  0  0  0  0  0  0
  148.7950  141.7802  157.9615 C   0  0  0  0  0  0  0  0  0  0  0  0
  151.1400  142.5872  157.9543 N   0  0  0  0  0  0  0  0  0  0  0  0
  151.2280  143.8655  157.4380 C   0  0  0  0  0  0  0  0  0  0  0  0
  152.2188  144.5153  158.1158 C   0  0  0  0  0  0  0  0  0  0  0  0
  152.6911  143.5409  159.0376 C   0  0  0  0  0  0  0  0  0  0  0  0
  152.0475  142.3897  158.9368 N   0  0  0  0  0  0  0  0  0  0  0  0
  150.8589  137.3654  155.2391 C   0  0  0  0  0  0  0  0  0  0  0  0
  149.7509  136.9508  155.8583 N   0  0  0  0  0  0  0  0  0  0  0  0
  151.6855  136.5790  154.7806 O   0  0  0  0  0  0  0  0  0  0  0  0
  153.2543  138.7043  155.0325 H   0  0  0  0  0  0  0  0  0  0  0  0
  152.6477  139.0300  156.6550 H   0  0  0  0  0  0  0  0  0  0  0  0
  152.6908  140.3150  155.4533 H   0  0  0  0  0  0  0  0  0  0  0  0
  150.9943  139.1738  154.0864 H   0  0  0  0  0  0  0  0  0  0  0  0
  149.1599  139.5587  155.5265 H   0  0  0  0  0  0  0  0  0  0  0  0
  151.4456  141.2794  155.7954 H   0  0  0  0  0  0  0  0  0  0  0  0
  149.6802  142.9633  155.2455 H   0  0  0  0  0  0  0  0  0  0  0  0
  148.4472  141.7087  155.3167 H   0  0  0  0  0  0  0  0  0  0  0  0
  149.6992  141.6472  154.0830 H   0  0  0  0  0  0  0  0  0  0  0  0
  150.5521  140.6248  158.1491 H   0  0  0  0  0  0  0  0  0  0  0  0
  148.1557  140.9243  157.7435 H   0  0  0  0  0  0  0  0  0  0  0  0
  148.3867  142.6399  157.4299 H   0  0  0  0  0  0  0  0  0  0  0  0
  148.7172  141.9845  159.0299 H   0  0  0  0  0  0  0  0  0  0  0  0
  150.5862  144.2033  156.6377 H   0  0  0  0  0  0  0  0  0  0  0  0
  152.5567  145.5309  157.9731 H   0  0  0  0  0  0  0  0  0  0  0  0
  153.4785  143.6343  159.7708 H   0  0  0  0  0  0  0  0  0  0  0  0
  149.5639  135.9630  155.9513 H   0  0  0  0  0  0  0  0  0  0  0  0
  149.1035  137.6293  156.2327 H   0  0  0  0  0  0  0  0  0  0  0  0
  1  2  1  0  0  0  0
  1 16  1  0  0  0  0
  1 17  1  0  0  0  0
  1 18  1  0  0  0  0
  2  3  1  0  0  0  0
  2 13  1  0  0  0  0
  2 19  1  0  0  0  0
  3  4  1  0  0  0  0
  3 20  1  0  0  0  0
  4  5  1  0  0  0  0
  4  6  1  0  0  0  0
  4 21  1  0  0  0  0
  5 22  1  0  0  0  0
  5 23  1  0  0  0  0
  5 24  1  0  0  0  0
  6  7  1  0  0  0  0
  6  8  1  0  0  0  0
  6 25  1  0  0  0  0
  7 26  1  0  0  0  0
  7 27  1  0  0  0  0
  7 28  1  0  0  0  0
  8 12  1  0  0  0  0
  8  9  1  0  0  0  0
  9 10  2  0  0  0  0
  9 29  1  0  0  0  0
 10 11  1  0  0  0  0
 10 30  1  0  0  0  0
 11 12  2  0  0  0  0
 11 31  1  0  0  0  0
 13 14  1  0  0  0  0
 13 15  2  0  0  0  0
 14 32  1  0  0  0  0
 14 33  1  0  0  0  0
M  END
> <s_m_source_file>
AV-unprocessed.smi

> <i_m_source_file_index>
3116

> <i_lp_mmshare_version>
43012

> <i_f3d_flags>
0

> <s_epik_input>
W05IMl1DKD1PKVtDQEhdKFtDSDNdKVtOSF1bQ0BIXShbQ0gzXSlbQ0BIXShbQ0gzXSluMVtjSF1bY0hdW2NIXW4x

> <s_epik_cmdline>
J2VwaWtfcHl0aG9uJywgJy1waCcsICc3LjAnLCAnLXRuJywgJzgnLCAnLW1hJywgJzIwMCcsICctbWV0YWxfYmluZGluZycsICctaW1hZScsICc8aW5maWxlLm1hZT4nLCAnLW9tYWUnLCAnPG91dGZpbGUubWFlPic=

> <r_lp_tautomer_probability>
1

> <r_epik_Ionization_Penalty>
0.865977

> <r_epik_Ionization_Penalty_Charging>
0

> <r_epik_Ionization_Penalty_Neutral>
0.865977

> <r_epik_State_Penalty>
0.901888

> <r_epik_Charging_Adjusted_Penalty>
0.901888

> <i_epik_Tot_Q>
0

> <i_epik_Tot_abs_Q>
0

> <r_epik_Metal_State_Penalty>
0.901181

> <b_epik_Metal_Only>
0

> <s_lp_Force_Field>
OPLS_2005

> <r_lp_Energy>
10.1697

> <b_lp_Chiralities_Consistent>
1

> <s_lp_Variant>
AV-unprocessed.smi:3116-11

> <Gold.Version>
5.8.1

> <Gold.Id.Protein>
6NUR|6NUR_protein|mol2

> <Gold.PLP.Fitness>
33.9598

> <Gold.PLP.PLP>
-30.8919

> <Gold.PLP.part.hbond>
-1.0000

> <Gold.PLP.part.metal>
0.0000

> <Gold.PLP.part.buried>
-0.7241

> <Gold.PLP.part.nonpolar>
-30.1292

> <Gold.PLP.part.repulsive>
0.8630

> <Gold.PLP.ligand.clash>
0.0000

> <Gold.PLP.ligand.torsion>
1.5657

> <Gold.PLP.Chemscore.Hbond>
1.0000

> <Gold.PLP.Chemscore.CHOScore>
1.0000

> <Gold.PLP.Chemscore.Metal>
0.0000

> <Gold.Chemscore.Hbonds>
donor molecule, donor type, donor heavy atom, donor atom, acceptor molecule, acceptor atom, score
      P1  H 10752 10765       L1    15  1.00
      L1  C     9    29       P1  8028  0.93

> <Gold.PLP.Chemscore.Internal.Correction>
0.1993

> <Gold.Rescore>
     Score         DG    S(hbond)    S(metal)    S(lipo)     H(rot)  DE(clash)    DE(int)     intcor
     10.11     -11.68       1.00        0.00      76.62       2.38       0.58       0.99       ----

> <Gold.Chemscore.Fitness>
10.1086

> <Gold.Chemscore.DG>
-11.6829

> <Gold.Chemscore.ZeroCoef>
-5.4800

> <Gold.Chemscore.Hbond>
1.0000

> <Gold.Chemscore.Metal>
0.0000

> <Gold.Chemscore.Lipo>
76.6234

> <Gold.Chemscore.Internal_Hbond>
0.0000

> <Gold.Chemscore.DEClash>
0.5844

> <Gold.Chemscore.DEInternal>
0.9899

> <Gold.Chemscore.Rot>
2.3836

> <Gold.Chemscore.Internal.Correction>
   9.000000E+99

> <Gold.Chemscore.Hbonds>
donor molecule, donor type, donor heavy atom, donor atom, acceptor molecule, acceptor atom, score
      P1  H 10752 10765       L1    15  0.98

> <Gold.Chemscore.Hbond.Weighted>
-3.3399

> <Gold.Chemscore.Metal.Weighted>
-0.0000

> <Gold.Chemscore.Lipo.Weighted>
-8.9649

> <Gold.Chemscore.Internal_Hbond.Weighted>
0.0000

> <Gold.Chemscore.DEClash.Weighted>
0.5844

> <Gold.Chemscore.DEInternal.Weighted>
0.9899

> <Gold.Chemscore.Rot.Weighted>
6.1020

> <Gold.Chemscore.Internal.Correction.Weighted>
   9.000000E+99

> <Gold.Protein.RotatedTorsions>
[ 6907 6896 6895 6894 ] final -135.76 input  -60.11 | X-H torsion
[ 7974 7965 7964 7962 ] final  -94.43 input  175.53 | X-H torsion
[ 8008 7997 7996 7995 ] final   -8.99 input   59.86 | X-H torsion
[ 10167 10162 10161 10158 ] final  116.08 input  -65.29 | X-H torsion
[ 10718 10713 10712 10709 ] final   16.65 input   66.30 | X-H torsion
[ 10763 10752 10751 10750 ] final  171.11 input  -60.55 | X-H torsion
[ 11005 11000 10999 10996 ] final  -63.70 input  -57.11 | X-H torsion

> <Gold.Protein.ActiveResidues>
 VAL166  LYS551  ARG553  GLY616  TRP617  ASP618  TYR619  PRO620  LYS621  CYS622 
 ASP623  PHE694  ASN695  SER759  ASP760  ASP761  ALA762  ILE779  LEU786  VAL792 
 PHE793  MET794  SER795  GLU796  ALA797  LYS798  CYS799  TRP800  GLU811  SER814 

> <Gold.Protein.RotatedAtoms>
  151.0018  133.6049  159.2693 H   0  0  0  0  0  0  0  0  0  0  0  0  # atno 6907 bound_to 6896
  151.3233  135.0823  159.9323 H   0  0  0  0  0  0  0  0  0  0  0  0  # atno 6908 bound_to 6896
  152.5276  133.9661  159.7794 H   0  0  0  0  0  0  0  0  0  0  0  0  # atno 6909 bound_to 6896
  145.3734  140.9508  143.2434 H   0  0  0  0  0  0  0  0  0  0  0  0  # atno 7974 bound_to 7965
  154.5688  140.2366  155.8222 H   0  0  0  0  0  0  0  0  0  0  0  0  # atno 8008 bound_to 7997
  156.2090  140.3031  155.9649 H   0  0  0  0  0  0  0  0  0  0  0  0  # atno 8009 bound_to 7997
  155.2750  140.0420  157.3001 H   0  0  0  0  0  0  0  0  0  0  0  0  # atno 8010 bound_to 7997
  139.6272  144.7110  151.2508 H   0  0  0  0  0  0  0  0  0  0  0  0  # atno 10167 bound_to 10162
  157.0708  130.6347  149.5805 H   0  0  0  0  0  0  0  0  0  0  0  0  # atno 10718 bound_to 10713
  154.4073  135.2756  155.2059 H   0  0  0  0  0  0  0  0  0  0  0  0  # atno 10763 bound_to 10752
  154.4060  135.6033  153.5928 H   0  0  0  0  0  0  0  0  0  0  0  0  # atno 10764 bound_to 10752
  152.9831  135.5938  154.4349 H   0  0  0  0  0  0  0  0  0  0  0  0  # atno 10765 bound_to 10752
  141.1401  133.6655  156.5720 H   0  0  0  0  0  0  0  0  0  0  0  0  # atno 11005 bound_to 11000
  144.8560  139.5249  143.6834 LP  0  0  0  0  0  0  0  0  0  0  0  0  # atno 17320 bound_to 7965
  146.2875  139.7045  142.9185 LP  0  0  0  0  0  0  0  0  0  0  0  0  # atno 17321 bound_to 7965
  140.7418  143.6546  150.8218 LP  0  0  0  0  0  0  0  0  0  0  0  0  # atno 17342 bound_to 10162
  140.0166  143.5587  152.2818 LP  0  0  0  0  0  0  0  0  0  0  0  0  # atno 17343 bound_to 10162
  155.9951  130.5016  150.7445 LP  0  0  0  0  0  0  0  0  0  0  0  0  # atno 17370 bound_to 10713
  157.4879  131.0908  151.0461 LP  0  0  0  0  0  0  0  0  0  0  0  0  # atno 17371 bound_to 10713
  140.3906  134.7444  157.4719 LP  0  0  0  0  0  0  0  0  0  0  0  0  # atno 17394 bound_to 11000
  140.0569  134.6050  155.8794 LP  0  0  0  0  0  0  0  0  0  0  0  0  # atno 17395 bound_to 11000

$$$$
