AV-unprocessed.smi:212|AV-procd|sdf|1619|dock1
  -GOLD-   2262019553D 1   1.00000     0.00000
 Structure written by MMmdl.
 65 68  0  0  0  0  0  0  0  0  2 V2000
  143.2956  136.4264  153.2195 C   0  0  0  0  0  0  0  0  0  0  0  0
  144.7325  136.8801  152.9116 C   0  0  2  0  0  0  0  0  0  0  0  0
  145.3108  136.1771  151.6648 C   0  0  0  0  0  0  0  0  0  0  0  0
  145.6234  134.7468  151.9339 N   0  3  1  0  0  0  0  0  0  0  0  0
  146.0925  133.9941  150.7380 C   0  0  0  0  0  0  0  0  0  0  0  0
  145.4280  132.6046  150.5518 C   0  0  0  0  0  0  0  0  0  0  0  0
  145.6984  131.7278  151.7869 C   0  0  0  0  0  0  0  0  0  0  0  0
  143.9130  132.6948  150.2880 C   0  0  0  0  0  0  0  0  0  0  0  0
  146.0311  131.9293  149.4670 O   0  0  0  0  0  0  0  0  0  0  0  0
  146.5443  134.5946  153.0905 C   0  0  0  0  0  0  0  0  0  0  0  0
  145.9945  135.2989  154.3444 C   0  0  0  0  0  0  0  0  0  0  0  0
  145.6193  136.6836  154.0599 N   0  0  0  0  0  0  0  0  0  0  0  0
  146.5344  137.6650  154.2674 C   0  0  0  0  0  0  0  0  0  0  0  0
  146.9484  138.4414  153.2314 N   0  0  0  0  0  0  0  0  0  0  0  0
  147.8354  139.4195  153.4359 C   0  0  0  0  0  0  0  0  0  0  0  0
  148.4247  139.7855  154.5754 N   0  0  0  0  0  0  0  0  0  0  0  0
  148.0183  139.0081  155.6189 C   0  0  0  0  0  0  0  0  0  0  0  0
  147.0882  137.9330  155.5503 C   0  0  0  0  0  0  0  0  0  0  0  0
  146.9351  137.3574  156.8050 N   0  0  0  0  0  0  0  0  0  0  0  0
  147.7284  138.0537  157.5719 C   0  0  0  0  0  0  0  0  0  0  0  0
  148.4030  139.0803  156.9479 N   0  0  0  0  0  0  0  0  0  0  0  0
  149.3399  140.0101  157.5662 C   0  0  0  0  0  0  0  0  0  0  0  0
  150.7176  140.0950  156.8566 C   0  0  2  0  0  0  0  0  0  0  0  0
  151.3782  138.6974  156.7792 C   0  0  0  0  0  0  0  0  0  0  0  0
  152.6990  138.7626  156.2835 O   0  0  0  0  0  0  0  0  0  0  0  0
  151.6399  141.1631  157.5082 C   0  0  2  0  0  0  0  0  0  0  0  0
  151.8544  140.9789  159.0022 C   0  0  0  0  0  0  0  0  0  0  0  0
  152.3909  142.3410  159.4308 C   0  0  0  0  0  0  0  0  0  0  0  0
  151.8279  143.2829  158.5244 O   0  0  0  0  0  0  0  0  0  0  0  0
  151.1068  142.5990  157.5058 C   0  0  0  0  0  0  0  0  0  0  0  0
  142.6347  136.6307  152.3767 H   0  0  0  0  0  0  0  0  0  0  0  0
  142.8975  136.9589  154.0838 H   0  0  0  0  0  0  0  0  0  0  0  0
  143.2372  135.3584  153.4298 H   0  0  0  0  0  0  0  0  0  0  0  0
  144.6745  137.9427  152.6738 H   0  0  0  0  0  0  0  0  0  0  0  0
  144.6019  136.2771  150.8457 H   0  0  0  0  0  0  0  0  0  0  0  0
  146.2238  136.6841  151.3482 H   0  0  0  0  0  0  0  0  0  0  0  0
  145.9899  134.6073  149.8410 H   0  0  0  0  0  0  0  0  0  0  0  0
  147.1638  133.8206  150.8514 H   0  0  0  0  0  0  0  0  0  0  0  0
  145.2497  132.1585  152.6829 H   0  0  0  0  0  0  0  0  0  0  0  0
  146.7677  131.6218  151.9746 H   0  0  0  0  0  0  0  0  0  0  0  0
  145.2851  130.7256  151.6655 H   0  0  0  0  0  0  0  0  0  0  0  0
  143.4045  133.2291  151.0913 H   0  0  0  0  0  0  0  0  0  0  0  0
  143.4635  131.7035  150.2178 H   0  0  0  0  0  0  0  0  0  0  0  0
  143.6929  133.2124  149.3535 H   0  0  0  0  0  0  0  0  0  0  0  0
  146.8016  131.4805  149.7811 H   0  0  0  0  0  0  0  0  0  0  0  0
  146.6909  133.5374  153.3146 H   0  0  0  0  0  0  0  0  0  0  0  0
  147.5220  134.9992  152.8248 H   0  0  0  0  0  0  0  0  0  0  0  0
  145.1111  134.7711  154.7044 H   0  0  0  0  0  0  0  0  0  0  0  0
  146.7191  135.2512  155.1586 H   0  0  0  0  0  0  0  0  0  0  0  0
  148.1103  139.9926  152.5627 H   0  0  0  0  0  0  0  0  0  0  0  0
  147.8385  137.8363  158.6244 H   0  0  0  0  0  0  0  0  0  0  0  0
  148.8724  140.9953  157.5774 H   0  0  0  0  0  0  0  0  0  0  0  0
  149.4634  139.7350  158.6137 H   0  0  0  0  0  0  0  0  0  0  0  0
  150.5115  140.4110  155.8324 H   0  0  0  0  0  0  0  0  0  0  0  0
  151.3781  138.2074  157.7533 H   0  0  0  0  0  0  0  0  0  0  0  0
  150.8229  138.0540  156.0963 H   0  0  0  0  0  0  0  0  0  0  0  0
  152.8788  137.9710  155.7993 H   0  0  0  0  0  0  0  0  0  0  0  0
  152.6099  141.1661  157.0091 H   0  0  0  0  0  0  0  0  0  0  0  0
  150.9036  140.7831  159.4998 H   0  0  0  0  0  0  0  0  0  0  0  0
  152.5360  140.1688  159.2557 H   0  0  0  0  0  0  0  0  0  0  0  0
  152.1363  142.5802  160.4635 H   0  0  0  0  0  0  0  0  0  0  0  0
  153.4768  142.3726  159.3329 H   0  0  0  0  0  0  0  0  0  0  0  0
  151.2325  143.0932  156.5421 H   0  0  0  0  0  0  0  0  0  0  0  0
  150.0473  142.6194  157.7650 H   0  0  0  0  0  0  0  0  0  0  0  0
  144.7563  134.3123  152.2152 H   0  0  0  0  0  0  0  0  0  0  0  0
  1  2  1  0  0  0  0
  1 31  1  0  0  0  0
  1 32  1  0  0  0  0
  1 33  1  0  0  0  0
  2 12  1  0  0  0  0
  2  3  1  0  0  0  0
  2 34  1  0  0  0  0
  3  4  1  0  0  0  0
  3 35  1  0  0  0  0
  3 36  1  0  0  0  0
  4  5  1  0  0  0  0
  4 10  1  0  0  0  0
  4 65  1  0  0  0  0
  5  6  1  0  0  0  0
  5 37  1  0  0  0  0
  5 38  1  0  0  0  0
  6  7  1  0  0  0  0
  6  8  1  0  0  0  0
  6  9  1  0  0  0  0
  7 39  1  0  0  0  0
  7 40  1  0  0  0  0
  7 41  1  0  0  0  0
  8 42  1  0  0  0  0
  8 43  1  0  0  0  0
  8 44  1  0  0  0  0
  9 45  1  0  0  0  0
 10 11  1  0  0  0  0
 10 46  1  0  0  0  0
 10 47  1  0  0  0  0
 11 12  1  0  0  0  0
 11 48  1  0  0  0  0
 11 49  1  0  0  0  0
 12 13  1  0  0  0  0
 13 18  1  0  0  0  0
 13 14  2  0  0  0  0
 14 15  1  0  0  0  0
 15 16  2  0  0  0  0
 15 50  1  0  0  0  0
 16 17  1  0  0  0  0
 17 21  1  0  0  0  0
 17 18  2  0  0  0  0
 18 19  1  0  0  0  0
 19 20  2  0  0  0  0
 20 21  1  0  0  0  0
 20 51  1  0  0  0  0
 21 22  1  0  0  0  0
 22 23  1  0  0  0  0
 22 52  1  0  0  0  0
 22 53  1  0  0  0  0
 23 24  1  0  0  0  0
 23 26  1  0  0  0  0
 23 54  1  0  0  0  0
 24 25  1  0  0  0  0
 24 55  1  0  0  0  0
 24 56  1  0  0  0  0
 25 57  1  0  0  0  0
 26 30  1  0  0  0  0
 26 27  1  0  0  0  0
 26 58  1  0  0  0  0
 27 28  1  0  0  0  0
 27 59  1  0  0  0  0
 27 60  1  0  0  0  0
 28 29  1  0  0  0  0
 28 61  1  0  0  0  0
 28 62  1  0  0  0  0
 29 30  1  0  0  0  0
 30 63  1  0  0  0  0
 30 64  1  0  0  0  0
M  CHG  1   4   1
M  END
> <s_m_source_file>
AV-unprocessed.smi

> <i_m_source_file_index>
212

> <i_lp_mmshare_version>
43012

> <i_f3d_flags>
0

> <s_epik_input>
W0NIM11bQ0BASF0xW0NIMl1OKFtDSDJdQyhbQ0gzXSkoW0NIM10pW09IXSlbQ0gyXVtDSDJdTjFjKG5bY0hdbjIpYyhjMjMpbltjSF1uM1tDSDJdW0NASF0oW0NIMl1bT0hdKVtDQEBIXTRbQ0gyXVtDSDJdT1tDSDJdNA==

> <s_epik_cmdline>
J2VwaWtfcHl0aG9uJywgJy1waCcsICc3LjAnLCAnLXRuJywgJzgnLCAnLW1hJywgJzIwMCcsICctbWV0YWxfYmluZGluZycsICctaW1hZScsICc8aW5maWxlLm1hZT4nLCAnLW9tYWUnLCAnPG91dGZpbGUubWFlPic=

> <r_lp_tautomer_probability>
1

> <r_epik_Ionization_Penalty>
0.00182193

> <r_epik_Ionization_Penalty_Charging>
0.00173996

> <r_epik_Ionization_Penalty_Neutral>
8.19718e-05

> <r_epik_State_Penalty>
-0

> <r_epik_Charging_Adjusted_Penalty>
0.00173996

> <i_epik_Tot_Q>
1

> <i_epik_Tot_abs_Q>
1

> <r_epik_Metal_State_Penalty>
-0

> <b_epik_Metal_Only>
0

> <s_lp_Force_Field>
OPLS_2005

> <r_lp_Energy>
58.2747

> <b_lp_Chiralities_Consistent>
1

> <s_lp_Variant>
AV-unprocessed.smi:212-3

> <Gold.Version>
5.8.1

> <Gold.Id.Protein>
6NUR|6NUR_protein|mol2

> <Gold.PLP.Fitness>
42.4742

> <Gold.PLP.PLP>
-35.7145

> <Gold.PLP.part.hbond>
-2.0000

> <Gold.PLP.part.metal>
0.0000

> <Gold.PLP.part.buried>
-6.4402

> <Gold.PLP.part.nonpolar>
-27.2159

> <Gold.PLP.part.repulsive>
0.3902

> <Gold.PLP.ligand.clash>
0.0000

> <Gold.PLP.ligand.torsion>
1.4651

> <Gold.PLP.Chemscore.Hbond>
2.0000

> <Gold.PLP.Chemscore.CHOScore>
1.0000

> <Gold.PLP.Chemscore.Metal>
0.0000

> <Gold.Chemscore.Hbonds>
donor molecule, donor type, donor heavy atom, donor atom, acceptor molecule, acceptor atom, score
      L1  H     9    45       P1 10747  0.32
      P1  H  7997  8010       L1    25  0.71
      L1  C    15    50       P1  7957  1.00

> <Gold.PLP.Chemscore.Internal.Correction>
0.6898

> <Gold.Rescore>
     Score         DG    S(hbond)    S(metal)    S(lipo)     H(rot)  DE(clash)    DE(int)     intcor
     12.58     -14.05       1.96        0.00      91.63       3.40       0.18       1.29       ----

> <Gold.Chemscore.Fitness>
12.5789

> <Gold.Chemscore.DG>
-14.0517

> <Gold.Chemscore.ZeroCoef>
-5.4800

> <Gold.Chemscore.Hbond>
1.9615

> <Gold.Chemscore.Metal>
0.0000

> <Gold.Chemscore.Lipo>
91.6294

> <Gold.Chemscore.Internal_Hbond>
0.0000

> <Gold.Chemscore.DEClash>
0.1843

> <Gold.Chemscore.DEInternal>
1.2884

> <Gold.Chemscore.Rot>
3.3986

> <Gold.Chemscore.Internal.Correction>
   9.000000E+99

> <Gold.Chemscore.Hbonds>
donor molecule, donor type, donor heavy atom, donor atom, acceptor molecule, acceptor atom, score
      L1  H     9    45       P1 10747  0.33
      P1  H  7997  8010       L1    25  0.55

> <Gold.Chemscore.Hbond.Weighted>
-6.5515

> <Gold.Chemscore.Metal.Weighted>
-0.0000

> <Gold.Chemscore.Lipo.Weighted>
-10.7206

> <Gold.Chemscore.Internal_Hbond.Weighted>
0.0000

> <Gold.Chemscore.DEClash.Weighted>
0.1843

> <Gold.Chemscore.DEInternal.Weighted>
1.2884

> <Gold.Chemscore.Rot.Weighted>
8.7005

> <Gold.Chemscore.Internal.Correction.Weighted>
   9.000000E+99

> <Gold.Protein.RotatedTorsions>
[ 6907 6896 6895 6894 ] final   70.87 input  -60.11 | X-H torsion
[ 7974 7965 7964 7962 ] final  -64.87 input  175.53 | X-H torsion
[ 8008 7997 7996 7995 ] final   85.78 input   59.86 | X-H torsion
[ 10167 10162 10161 10158 ] final -108.68 input  -65.29 | X-H torsion
[ 10718 10713 10712 10709 ] final -126.88 input   66.30 | X-H torsion
[ 10763 10752 10751 10750 ] final  167.33 input  -60.55 | X-H torsion
[ 11005 11000 10999 10996 ] final   91.18 input  -57.11 | X-H torsion

> <Gold.Protein.ActiveResidues>
 VAL166  LYS551  ARG553  GLY616  TRP617  ASP618  TYR619  PRO620  LYS621  CYS622 
 ASP623  PHE694  ASN695  SER759  ASP760  ASP761  ALA762  ILE779  LEU786  VAL792 
 PHE793  MET794  SER795  GLU796  ALA797  LYS798  CYS799  TRP800  GLU811  SER814 

> <Gold.Protein.RotatedAtoms>
  152.4776  134.4804  159.9663 H   0  0  0  0  0  0  0  0  0  0  0  0  # atno 6907 bound_to 6896
  151.4817  133.3539  159.2847 H   0  0  0  0  0  0  0  0  0  0  0  0  # atno 6908 bound_to 6896
  150.8825  134.8244  159.7296 H   0  0  0  0  0  0  0  0  0  0  0  0  # atno 6909 bound_to 6896
  145.7614  140.8859  143.0428 H   0  0  0  0  0  0  0  0  0  0  0  0  # atno 7974 bound_to 7965
  155.9543  140.3398  155.6435 H   0  0  0  0  0  0  0  0  0  0  0  0  # atno 8008 bound_to 7997
  155.6879  140.0745  157.2478 H   0  0  0  0  0  0  0  0  0  0  0  0  # atno 8009 bound_to 7997
  154.4129  140.1662  156.2042 H   0  0  0  0  0  0  0  0  0  0  0  0  # atno 8010 bound_to 7997
  140.1635  143.4101  152.1408 H   0  0  0  0  0  0  0  0  0  0  0  0  # atno 10167 bound_to 10162
  156.1805  130.6729  151.0299 H   0  0  0  0  0  0  0  0  0  0  0  0  # atno 10718 bound_to 10713
  154.3522  135.2753  155.2366 H   0  0  0  0  0  0  0  0  0  0  0  0  # atno 10763 bound_to 10752
  154.4590  135.5912  153.6246 H   0  0  0  0  0  0  0  0  0  0  0  0  # atno 10764 bound_to 10752
  152.9849  135.6060  154.3734 H   0  0  0  0  0  0  0  0  0  0  0  0  # atno 10765 bound_to 10752
  139.8843  134.8658  156.3390 H   0  0  0  0  0  0  0  0  0  0  0  0  # atno 11005 bound_to 11000
  144.6830  139.9728  143.7482 LP  0  0  0  0  0  0  0  0  0  0  0  0  # atno 17320 bound_to 7965
  146.0260  139.3293  143.0784 LP  0  0  0  0  0  0  0  0  0  0  0  0  # atno 17321 bound_to 7965
  139.5370  144.7219  151.4859 LP  0  0  0  0  0  0  0  0  0  0  0  0  # atno 17342 bound_to 10162
  140.6628  143.8462  150.6907 LP  0  0  0  0  0  0  0  0  0  0  0  0  # atno 17343 bound_to 10162
  157.6865  131.0823  150.7228 LP  0  0  0  0  0  0  0  0  0  0  0  0  # atno 17370 bound_to 10713
  156.7285  130.4702  149.5505 LP  0  0  0  0  0  0  0  0  0  0  0  0  # atno 17371 bound_to 10713
  140.9671  133.7351  156.0482 LP  0  0  0  0  0  0  0  0  0  0  0  0  # atno 17394 bound_to 11000
  140.7917  134.3610  157.5463 LP  0  0  0  0  0  0  0  0  0  0  0  0  # atno 17395 bound_to 11000

$$$$
