AV-unprocessed.smi:1116|AV-procd|sdf|4812|dock1
  -GOLD-   22720 3363D 1   1.00000     0.00000
 Structure written by MMmdl.
 35 36  0  0  0  0  0  0  0  0  2 V2000
  152.8573  143.3046  160.9814 C   0  0  0  0  0  0  0  0  0  0  0  0
  152.2546  143.2435  159.6199 C   0  0  0  0  0  0  0  0  0  0  0  0
  151.4843  142.2376  159.1971 N   0  0  0  0  0  0  0  0  0  0  0  0
  151.0454  142.4121  157.8807 C   0  0  0  0  0  0  0  0  0  0  0  0
  150.1773  141.3741  157.2367 C   0  0  0  0  0  0  0  0  0  0  0  0
  150.4152  141.2799  155.7203 C   0  0  0  0  0  0  0  0  0  0  0  0
  150.5169  139.8947  155.2749 N   0  0  0  0  0  0  0  0  0  0  0  0
  151.6603  139.1990  155.1788 C   0  0  0  0  0  0  0  0  0  0  0  0
  152.7630  139.6747  155.4506 O   0  0  0  0  0  0  0  0  0  0  0  0
  151.5377  137.7517  154.6936 C   0  0  0  0  0  0  0  0  0  0  0  0
  151.0907  136.7857  155.8076 C   0  0  0  0  0  0  0  0  0  0  0  0
  149.5587  136.6413  155.8989 C   0  0  1  0  0  0  0  0  0  0  0  0
  149.0201  136.0307  154.7026 N   0  0  0  0  0  0  0  0  0  0  0  0
  148.3570  134.9111  154.9853 C   0  0  0  0  0  0  0  0  0  0  0  0
  147.8067  134.2476  154.1094 O   0  0  0  0  0  0  0  0  0  0  0  0
  148.4055  134.6639  156.3087 N   0  5  0  0  0  0  0  0  0  0  0  0
  149.1031  135.6274  156.9483 C   0  0  0  0  0  0  0  0  0  0  0  0
  149.3671  135.7585  158.1425 O   0  0  0  0  0  0  0  0  0  0  0  0
  151.4949  143.5771  157.3104 C   0  0  0  0  0  0  0  0  0  0  0  0
  152.4888  144.4964  158.4069 S   0  0  0  0  0  0  0  0  0  0  0  0
  152.7560  142.3453  161.4898 H   0  0  0  0  0  0  0  0  0  0  0  0
  152.3586  144.0708  161.5751 H   0  0  0  0  0  0  0  0  0  0  0  0
  153.9170  143.5502  160.9096 H   0  0  0  0  0  0  0  0  0  0  0  0
  150.3607  140.4017  157.6957 H   0  0  0  0  0  0  0  0  0  0  0  0
  149.1283  141.6018  157.4300 H   0  0  0  0  0  0  0  0  0  0  0  0
  149.6185  141.7905  155.1766 H   0  0  0  0  0  0  0  0  0  0  0  0
  151.3435  141.7879  155.4573 H   0  0  0  0  0  0  0  0  0  0  0  0
  149.6554  139.4291  155.0287 H   0  0  0  0  0  0  0  0  0  0  0  0
  150.8300  137.7036  153.8643 H   0  0  0  0  0  0  0  0  0  0  0  0
  152.5058  137.4456  154.2959 H   0  0  0  0  0  0  0  0  0  0  0  0
  151.5443  135.8037  155.6605 H   0  0  0  0  0  0  0  0  0  0  0  0
  151.4688  137.1537  156.7630 H   0  0  0  0  0  0  0  0  0  0  0  0
  149.0764  137.6025  156.0826 H   0  0  0  0  0  0  0  0  0  0  0  0
  149.1245  136.4234  153.7789 H   0  0  0  0  0  0  0  0  0  0  0  0
  151.3038  143.9480  156.3142 H   0  0  0  0  0  0  0  0  0  0  0  0
  1  2  1  0  0  0  0
  1 21  1  0  0  0  0
  1 22  1  0  0  0  0
  1 23  1  0  0  0  0
  2 20  1  0  0  0  0
  2  3  2  0  0  0  0
  3  4  1  0  0  0  0
  4  5  1  0  0  0  0
  4 19  2  0  0  0  0
  5  6  1  0  0  0  0
  5 24  1  0  0  0  0
  5 25  1  0  0  0  0
  6  7  1  0  0  0  0
  6 26  1  0  0  0  0
  6 27  1  0  0  0  0
  7  8  1  0  0  0  0
  7 28  1  0  0  0  0
  8  9  2  0  0  0  0
  8 10  1  0  0  0  0
 10 11  1  0  0  0  0
 10 29  1  0  0  0  0
 10 30  1  0  0  0  0
 11 12  1  0  0  0  0
 11 31  1  0  0  0  0
 11 32  1  0  0  0  0
 12 17  1  0  0  0  0
 12 13  1  0  0  0  0
 12 33  1  0  0  0  0
 13 14  1  0  0  0  0
 13 34  1  0  0  0  0
 14 15  2  0  0  0  0
 14 16  1  0  0  0  0
 16 17  1  0  0  0  0
 17 18  2  0  0  0  0
 19 20  1  0  0  0  0
 19 35  1  0  0  0  0
M  CHG  1  16  -1
M  END
> <s_m_source_file>
AV-unprocessed.smi

> <i_m_source_file_index>
1116

> <i_lp_mmshare_version>
43012

> <i_f3d_flags>
0

> <s_epik_input>
W0NIM11jMW5jKFtjSF1zMSlbQ0gyXVtDSDJdW05IXUMoPU8pW0NIMl1bQ0gyXVtDQEBIXTJbTkhdQyg9TylbTkhdQzI9Tw==

> <s_epik_cmdline>
J2VwaWtfcHl0aG9uJywgJy1waCcsICc3LjAnLCAnLXRuJywgJzgnLCAnLW1hJywgJzIwMCcsICctbWV0YWxfYmluZGluZycsICctaW1hZScsICc8aW5maWxlLm1hZT4nLCAnLW9tYWUnLCAnPG91dGZpbGUubWFlPic=

> <r_lp_tautomer_probability>
1

> <r_epik_Ionization_Penalty>
2.5713

> <r_epik_Ionization_Penalty_Charging>
2.57023

> <r_epik_Ionization_Penalty_Neutral>
0.00106405

> <r_epik_State_Penalty>
2.56828

> <r_epik_Charging_Adjusted_Penalty>
5.13851

> <i_epik_Tot_Q>
-1

> <i_epik_Tot_abs_Q>
1

> <r_epik_Metal_State_Penalty>
0.44525

> <b_epik_Metal_Only>
1

> <s_lp_Force_Field>
OPLS_2005

> <r_lp_Energy>
2.19092

> <b_lp_Chiralities_Consistent>
1

> <s_lp_Variant>
AV-unprocessed.smi:1116-6

> <Gold.Version>
5.8.1

> <Gold.Id.Protein>
6NUR|6NUR_protein|mol2

> <Gold.PLP.Fitness>
45.5405

> <Gold.PLP.PLP>
-36.2617

> <Gold.PLP.part.hbond>
-3.8212

> <Gold.PLP.part.metal>
0.0000

> <Gold.PLP.part.buried>
-4.0616

> <Gold.PLP.part.nonpolar>
-30.2151

> <Gold.PLP.part.repulsive>
0.5221

> <Gold.PLP.ligand.clash>
0.0000

> <Gold.PLP.ligand.torsion>
1.3496

> <Gold.PLP.Chemscore.Hbond>
2.9440

> <Gold.PLP.Chemscore.CHOScore>
1.0000

> <Gold.PLP.Chemscore.Metal>
0.0000

> <Gold.Chemscore.Hbonds>
donor molecule, donor type, donor heavy atom, donor atom, acceptor molecule, acceptor atom, score
      L1  H    13    34       P1  7948  0.99
      P1  H  6896  6909       L1    18  0.39
      P1  H  7997  8009       L1     9  1.00
      L1  C    19    35       P1  8028  0.67

> <Gold.PLP.Chemscore.Internal.Correction>
0.1461

> <Gold.Rescore>
     Score         DG    S(hbond)    S(metal)    S(lipo)     H(rot)  DE(clash)    DE(int)     intcor
     16.26     -17.57       2.87        0.00      81.88       2.77       0.00       1.31       ----

> <Gold.Chemscore.Fitness>
16.2630

> <Gold.Chemscore.DG>
-17.5691

> <Gold.Chemscore.ZeroCoef>
-5.4800

> <Gold.Chemscore.Hbond>
2.8736

> <Gold.Chemscore.Metal>
0.0000

> <Gold.Chemscore.Lipo>
81.8821

> <Gold.Chemscore.Internal_Hbond>
0.0000

> <Gold.Chemscore.DEClash>
0.0000

> <Gold.Chemscore.DEInternal>
1.3061

> <Gold.Chemscore.Rot>
2.7691

> <Gold.Chemscore.Internal.Correction>
   9.000000E+99

> <Gold.Chemscore.Hbonds>
donor molecule, donor type, donor heavy atom, donor atom, acceptor molecule, acceptor atom, score
      L1  H    13    34       P1  7948  0.91
      P1  H  6896  6909       L1    18  0.39
      P1  H  7997  8009       L1     9  0.99

> <Gold.Chemscore.Hbond.Weighted>
-9.5978

> <Gold.Chemscore.Metal.Weighted>
-0.0000

> <Gold.Chemscore.Lipo.Weighted>
-9.5802

> <Gold.Chemscore.Internal_Hbond.Weighted>
0.0000

> <Gold.Chemscore.DEClash.Weighted>
0.0000

> <Gold.Chemscore.DEInternal.Weighted>
1.3061

> <Gold.Chemscore.Rot.Weighted>
7.0889

> <Gold.Chemscore.Internal.Correction.Weighted>
   9.000000E+99

> <Gold.Protein.RotatedTorsions>
[ 6907 6896 6895 6894 ] final   38.99 input  -60.11 | X-H torsion
[ 7974 7965 7964 7962 ] final  125.46 input  175.53 | X-H torsion
[ 8008 7997 7996 7995 ] final -161.27 input   59.86 | X-H torsion
[ 10167 10162 10161 10158 ] final   -5.63 input  -65.29 | X-H torsion
[ 10718 10713 10712 10709 ] final  111.31 input   66.30 | X-H torsion
[ 10763 10752 10751 10750 ] final   -4.43 input  -60.55 | X-H torsion
[ 11005 11000 10999 10996 ] final  -90.00 input  -57.11 | X-H torsion

> <Gold.Protein.ActiveResidues>
 VAL166  LYS551  ARG553  GLY616  TRP617  ASP618  TYR619  PRO620  LYS621  CYS622 
 ASP623  PHE694  ASN695  SER759  ASP760  ASP761  ALA762  ILE779  LEU786  VAL792 
 PHE793  MET794  SER795  GLU796  ALA797  LYS798  CYS799  TRP800  GLU811  SER814 

> <Gold.Protein.RotatedAtoms>
  152.1637  134.8891  160.0539 H   0  0  0  0  0  0  0  0  0  0  0  0  # atno 6907 bound_to 6896
  151.9877  133.3775  159.4140 H   0  0  0  0  0  0  0  0  0  0  0  0  # atno 6908 bound_to 6896
  150.6891  134.3893  159.5113 H   0  0  0  0  0  0  0  0  0  0  0  0  # atno 6909 bound_to 6896
  145.0728  139.3717  143.4949 H   0  0  0  0  0  0  0  0  0  0  0  0  # atno 7974 bound_to 7965
  155.7897  140.0876  157.2015 H   0  0  0  0  0  0  0  0  0  0  0  0  # atno 8008 bound_to 7997
  154.3986  140.1492  156.3206 H   0  0  0  0  0  0  0  0  0  0  0  0  # atno 8009 bound_to 7997
  155.8571  140.3432  155.5734 H   0  0  0  0  0  0  0  0  0  0  0  0  # atno 8010 bound_to 7997
  140.6970  143.6286  150.8545 H   0  0  0  0  0  0  0  0  0  0  0  0  # atno 10167 bound_to 10162
  157.6451  131.0948  150.6730 H   0  0  0  0  0  0  0  0  0  0  0  0  # atno 10718 bound_to 10713
  153.3848  135.6999  153.6538 H   0  0  0  0  0  0  0  0  0  0  0  0  # atno 10763 bound_to 10752
  153.5135  135.3627  155.2598 H   0  0  0  0  0  0  0  0  0  0  0  0  # atno 10764 bound_to 10752
  154.8696  135.4140  154.3153 H   0  0  0  0  0  0  0  0  0  0  0  0  # atno 10765 bound_to 10752
  141.1574  133.7665  156.9675 H   0  0  0  0  0  0  0  0  0  0  0  0  # atno 11005 bound_to 11000
  146.3529  140.0481  142.8638 LP  0  0  0  0  0  0  0  0  0  0  0  0  # atno 17320 bound_to 7965
  145.1272  140.9497  143.4566 LP  0  0  0  0  0  0  0  0  0  0  0  0  # atno 17321 bound_to 7965
  140.0004  143.5750  152.2877 LP  0  0  0  0  0  0  0  0  0  0  0  0  # atno 17342 bound_to 10162
  139.6437  144.7656  151.2286 LP  0  0  0  0  0  0  0  0  0  0  0  0  # atno 17343 bound_to 10162
  156.7048  130.4634  149.5563 LP  0  0  0  0  0  0  0  0  0  0  0  0  # atno 17370 bound_to 10713
  156.1770  130.6474  151.0906 LP  0  0  0  0  0  0  0  0  0  0  0  0  # atno 17371 bound_to 10713
  140.1151  134.9452  157.2123 LP  0  0  0  0  0  0  0  0  0  0  0  0  # atno 17394 bound_to 11000
  140.3143  134.2988  155.7260 LP  0  0  0  0  0  0  0  0  0  0  0  0  # atno 17395 bound_to 11000

$$$$
