AV-unprocessed.smi:129|AV-procd|sdf|1157|dock8
  -GOLD-   2262018293D 1   1.00000     0.00000
 Structure written by MMmdl.
 58 61  0  0  0  0  0  0  0  0  1 V2000
  152.8027  143.7397  163.1318 C   0  0  0  0  0  0  0  0  0  0  0  0
  152.9719  142.9049  161.9955 O   0  0  0  0  0  0  0  0  0  0  0  0
  152.5568  143.3778  160.7662 C   0  0  0  0  0  0  0  0  0  0  0  0
  152.1112  144.7074  160.5507 C   0  0  0  0  0  0  0  0  0  0  0  0
  151.7058  145.1290  159.2712 C   0  0  0  0  0  0  0  0  0  0  0  0
  151.7468  144.2333  158.1894 C   0  0  0  0  0  0  0  0  0  0  0  0
  152.1864  142.9124  158.3881 C   0  0  0  0  0  0  0  0  0  0  0  0
  152.5777  142.4737  159.6766 C   0  0  0  0  0  0  0  0  0  0  0  0
  153.0458  141.1532  159.9264 N   0  0  0  0  0  0  0  0  0  0  0  0
  153.1817  140.1308  159.0603 C   0  0  0  0  0  0  0  0  0  0  0  0
  152.9664  140.2000  157.8501 O   0  0  0  0  0  0  0  0  0  0  0  0
  153.6818  138.8490  159.6650 C   0  0  0  0  0  0  0  0  0  0  0  0
  153.8430  137.7047  158.8538 C   0  0  0  0  0  0  0  0  0  0  0  0
  154.2805  136.4887  159.4118 C   0  0  0  0  0  0  0  0  0  0  0  0
  154.5658  136.3927  160.7887 C   0  0  0  0  0  0  0  0  0  0  0  0
  154.9749  135.1226  161.2785 N   0  0  0  0  0  0  0  0  0  0  0  0
  154.8982  133.9198  160.6807 C   0  0  0  0  0  0  0  0  0  0  0  0
  154.3953  133.7201  159.5741 O   0  0  0  0  0  0  0  0  0  0  0  0
  155.4710  132.7528  161.5013 C   0  0  0  0  0  0  0  0  0  0  0  0
  154.6644  132.4115  162.6936 N   0  0  0  0  0  0  0  0  0  0  0  0
  154.6033  133.3403  163.7621 C   0  0  0  0  0  0  0  0  0  0  0  0
  155.2098  134.4113  163.7129 O   0  0  0  0  0  0  0  0  0  0  0  0
  153.7805  132.9401  164.8977 C   0  0  0  0  0  0  0  0  0  0  0  0
  153.6783  133.7519  165.9637 F   0  0  0  0  0  0  0  0  0  0  0  0
  153.1192  131.7644  164.8976 C   0  0  0  0  0  0  0  0  0  0  0  0
  153.1713  130.8758  163.8384 N   0  0  0  0  0  0  0  0  0  0  0  0
  152.4158  129.5632  163.8495 C   0  0  2  0  0  0  0  0  0  0  0  0
  150.8969  129.8121  163.9211 C   0  0  0  0  0  0  0  0  0  0  0  0
  150.4696  128.9509  165.0933 C   0  0  0  0  0  0  0  0  0  0  0  0
  151.7253  128.9393  165.9516 C   0  0  0  0  0  0  0  0  0  0  0  0
  152.7621  128.8239  164.9861 O   0  0  0  0  0  0  0  0  0  0  0  0
  153.9591  131.1846  162.7082 C   0  0  0  0  0  0  0  0  0  0  0  0
  154.0223  130.4044  161.7553 O   0  0  0  0  0  0  0  0  0  0  0  0
  154.3845  137.5317  161.6094 C   0  0  0  0  0  0  0  0  0  0  0  0
  153.9473  138.7484  161.0503 C   0  0  0  0  0  0  0  0  0  0  0  0
  153.1799  143.2245  164.0150 H   0  0  0  0  0  0  0  0  0  0  0  0
  151.7503  143.9663  163.3070 H   0  0  0  0  0  0  0  0  0  0  0  0
  153.3621  144.6706  163.0303 H   0  0  0  0  0  0  0  0  0  0  0  0
  152.0719  145.4282  161.3530 H   0  0  0  0  0  0  0  0  0  0  0  0
  151.3697  146.1440  159.1184 H   0  0  0  0  0  0  0  0  0  0  0  0
  151.4469  144.5602  157.2047 H   0  0  0  0  0  0  0  0  0  0  0  0
  152.2288  142.2558  157.5329 H   0  0  0  0  0  0  0  0  0  0  0  0
  153.2016  140.9287  160.8985 H   0  0  0  0  0  0  0  0  0  0  0  0
  153.6313  137.7505  157.7951 H   0  0  0  0  0  0  0  0  0  0  0  0
  154.3963  135.6252  158.7729 H   0  0  0  0  0  0  0  0  0  0  0  0
  155.3248  135.1195  162.2255 H   0  0  0  0  0  0  0  0  0  0  0  0
  155.5759  131.8875  160.8448 H   0  0  0  0  0  0  0  0  0  0  0  0
  156.4974  132.9971  161.7795 H   0  0  0  0  0  0  0  0  0  0  0  0
  152.5312  131.5282  165.7711 H   0  0  0  0  0  0  0  0  0  0  0  0
  152.7402  129.0284  162.9551 H   0  0  0  0  0  0  0  0  0  0  0  0
  150.6945  130.8644  164.1276 H   0  0  0  0  0  0  0  0  0  0  0  0
  150.4110  129.5347  162.9853 H   0  0  0  0  0  0  0  0  0  0  0  0
  149.5978  129.3438  165.6169 H   0  0  0  0  0  0  0  0  0  0  0  0
  150.2403  127.9400  164.7538 H   0  0  0  0  0  0  0  0  0  0  0  0
  151.8258  129.8738  166.5051 H   0  0  0  0  0  0  0  0  0  0  0  0
  151.7443  128.1135  166.6629 H   0  0  0  0  0  0  0  0  0  0  0  0
  154.5540  137.4928  162.6742 H   0  0  0  0  0  0  0  0  0  0  0  0
  153.8057  139.5983  161.7024 H   0  0  0  0  0  0  0  0  0  0  0  0
  1  2  1  0  0  0  0
  1 36  1  0  0  0  0
  1 37  1  0  0  0  0
  1 38  1  0  0  0  0
  2  3  1  0  0  0  0
  3  8  1  0  0  0  0
  3  4  2  0  0  0  0
  4  5  1  0  0  0  0
  4 39  1  0  0  0  0
  5  6  2  0  0  0  0
  5 40  1  0  0  0  0
  6  7  1  0  0  0  0
  6 41  1  0  0  0  0
  7  8  2  0  0  0  0
  7 42  1  0  0  0  0
  8  9  1  0  0  0  0
  9 10  1  0  0  0  0
  9 43  1  0  0  0  0
 10 11  2  0  0  0  0
 10 12  1  0  0  0  0
 12 35  1  0  0  0  0
 12 13  2  0  0  0  0
 13 14  1  0  0  0  0
 13 44  1  0  0  0  0
 14 15  2  0  0  0  0
 14 45  1  0  0  0  0
 15 16  1  0  0  0  0
 15 34  1  0  0  0  0
 16 17  1  0  0  0  0
 16 46  1  0  0  0  0
 17 18  2  0  0  0  0
 17 19  1  0  0  0  0
 19 20  1  0  0  0  0
 19 47  1  0  0  0  0
 19 48  1  0  0  0  0
 20 32  1  0  0  0  0
 20 21  1  0  0  0  0
 21 22  2  0  0  0  0
 21 23  1  0  0  0  0
 23 24  1  0  0  0  0
 23 25  2  0  0  0  0
 25 26  1  0  0  0  0
 25 49  1  0  0  0  0
 26 27  1  0  0  0  0
 26 32  1  0  0  0  0
 27 31  1  0  0  0  0
 27 28  1  0  0  0  0
 27 50  1  0  0  0  0
 28 29  1  0  0  0  0
 28 51  1  0  0  0  0
 28 52  1  0  0  0  0
 29 30  1  0  0  0  0
 29 53  1  0  0  0  0
 29 54  1  0  0  0  0
 30 31  1  0  0  0  0
 30 55  1  0  0  0  0
 30 56  1  0  0  0  0
 32 33  2  0  0  0  0
 34 35  2  0  0  0  0
 34 57  1  0  0  0  0
 35 58  1  0  0  0  0
M  END
> <s_m_source_file>
AV-unprocessed.smi

> <i_m_source_file_index>
129

> <i_lp_mmshare_version>
43012

> <i_f3d_flags>
0

> <s_epik_input>
W0NIM11PYzFbY0hdW2NIXVtjSF1bY0hdYzFbTkhdQyg9TyljMltjSF1bY0hdYyhbY0hdW2NIXTIpW05IXUMoPU8pW0NIMl1uM2MoPU8pYyhGKVtjSF1uKGMzPU8pW0NAQEhdNFtDSDJdW0NIMl1bQ0gyXU80

> <s_epik_cmdline>
J2VwaWtfcHl0aG9uJywgJy1waCcsICc3LjAnLCAnLXRuJywgJzgnLCAnLW1hJywgJzIwMCcsICctbWV0YWxfYmluZGluZycsICctaW1hZScsICc8aW5maWxlLm1hZT4nLCAnLW9tYWUnLCAnPG91dGZpbGUubWFlPic=

> <r_lp_tautomer_probability>
1

> <r_epik_Ionization_Penalty>
2.57954e-06

> <r_epik_Ionization_Penalty_Charging>
3.88729e-08

> <r_epik_Ionization_Penalty_Neutral>
2.54066e-06

> <r_epik_State_Penalty>
-0

> <r_epik_Charging_Adjusted_Penalty>
3.88729e-08

> <i_epik_Tot_Q>
0

> <i_epik_Tot_abs_Q>
0

> <r_epik_Metal_State_Penalty>
-0

> <b_epik_Metal_Only>
0

> <s_epik_Chemistry_Notes>
This compound contains an acetal/aminal-like group ( X-CH(R)-Y where X, Y are N, S, or O) that may be acid/base labile, releasing an aldehyde.

> <s_lp_Force_Field>
OPLS_2005

> <r_lp_Energy>
50.6218

> <b_lp_Chiralities_Consistent>
1

> <s_lp_Variant>
AV-unprocessed.smi:129-1

> <Gold.Version>
5.8.1

> <Gold.Id.Protein>
6NUR|6NUR_protein|mol2

> <Gold.PLP.Fitness>
61.8478

> <Gold.PLP.PLP>
-56.3873

> <Gold.PLP.part.hbond>
-2.0000

> <Gold.PLP.part.metal>
0.0000

> <Gold.PLP.part.buried>
-0.9089

> <Gold.PLP.part.nonpolar>
-53.1182

> <Gold.PLP.part.repulsive>
0.3026

> <Gold.PLP.ligand.clash>
0.0000

> <Gold.PLP.ligand.torsion>
0.3003

> <Gold.PLP.Chemscore.Hbond>
1.9920

> <Gold.PLP.Chemscore.CHOScore>
0.0000

> <Gold.PLP.Chemscore.Metal>
0.0000

> <Gold.Chemscore.Hbonds>
donor molecule, donor type, donor heavy atom, donor atom, acceptor molecule, acceptor atom, score
      P1  H  6896  6908       L1    18  1.00
      P1  H  7997  8008       L1    11  0.99

> <Gold.PLP.Chemscore.Internal.Correction>
0.0851

> <Gold.Rescore>
     Score         DG    S(hbond)    S(metal)    S(lipo)     H(rot)  DE(clash)    DE(int)     intcor
     18.75     -25.13       1.76        0.00     160.32       1.94       1.66       4.73       ----

> <Gold.Chemscore.Fitness>
18.7457

> <Gold.Chemscore.DG>
-25.1321

> <Gold.Chemscore.ZeroCoef>
-5.4800

> <Gold.Chemscore.Hbond>
1.7571

> <Gold.Chemscore.Metal>
0.0000

> <Gold.Chemscore.Lipo>
160.3216

> <Gold.Chemscore.Internal_Hbond>
0.0000

> <Gold.Chemscore.DEClash>
1.6578

> <Gold.Chemscore.DEInternal>
4.7286

> <Gold.Chemscore.Rot>
1.9430

> <Gold.Chemscore.Internal.Correction>
   9.000000E+99

> <Gold.Chemscore.Hbonds>
donor molecule, donor type, donor heavy atom, donor atom, acceptor molecule, acceptor atom, score
      P1  H  6896  6908       L1    18  0.29
      P1  H  7997  8008       L1    11  0.80

> <Gold.Chemscore.Hbond.Weighted>
-5.8686

> <Gold.Chemscore.Metal.Weighted>
-0.0000

> <Gold.Chemscore.Lipo.Weighted>
-18.7576

> <Gold.Chemscore.Internal_Hbond.Weighted>
0.0000

> <Gold.Chemscore.DEClash.Weighted>
1.6578

> <Gold.Chemscore.DEInternal.Weighted>
4.7286

> <Gold.Chemscore.Rot.Weighted>
4.9741

> <Gold.Chemscore.Internal.Correction.Weighted>
   9.000000E+99

> <Gold.Protein.RotatedTorsions>
[ 6907 6896 6895 6894 ] final  -37.02 input  -60.11 | X-H torsion
[ 7974 7965 7964 7962 ] final   53.13 input  175.53 | X-H torsion
[ 8008 7997 7996 7995 ] final  -73.89 input   59.86 | X-H torsion
[ 10167 10162 10161 10158 ] final -173.67 input  -65.29 | X-H torsion
[ 10718 10713 10712 10709 ] final -160.54 input   66.30 | X-H torsion
[ 10763 10752 10751 10750 ] final   60.39 input  -60.55 | X-H torsion
[ 11005 11000 10999 10996 ] final  158.08 input  -57.11 | X-H torsion

> <Gold.Protein.ActiveResidues>
 VAL166  LYS551  ARG553  GLY616  TRP617  ASP618  TYR619  PRO620  LYS621  CYS622 
 ASP623  PHE694  ASN695  SER759  ASP760  ASP761  ALA762  ILE779  LEU786  VAL792 
 PHE793  MET794  SER795  GLU796  ALA797  LYS798  CYS799  TRP800  GLU811  SER814 

> <Gold.Protein.RotatedAtoms>
  151.0199  134.9461  159.8053 H   0  0  0  0  0  0  0  0  0  0  0  0  # atno 6907 bound_to 6896
  152.5323  134.2917  159.9055 H   0  0  0  0  0  0  0  0  0  0  0  0  # atno 6908 bound_to 6896
  151.2924  133.4117  159.2668 H   0  0  0  0  0  0  0  0  0  0  0  0  # atno 6909 bound_to 6896
  145.9743  139.4179  143.0171 H   0  0  0  0  0  0  0  0  0  0  0  0  # atno 7974 bound_to 7965
  154.5284  140.0771  156.8301 H   0  0  0  0  0  0  0  0  0  0  0  0  # atno 8008 bound_to 7997
  155.3426  140.3408  155.4221 H   0  0  0  0  0  0  0  0  0  0  0  0  # atno 8009 bound_to 7997
  156.1756  140.1634  156.8355 H   0  0  0  0  0  0  0  0  0  0  0  0  # atno 8010 bound_to 7997
  139.5675  144.1720  152.1335 H   0  0  0  0  0  0  0  0  0  0  0  0  # atno 10167 bound_to 10162
  156.5836  130.8740  151.2871 H   0  0  0  0  0  0  0  0  0  0  0  0  # atno 10718 bound_to 10713
  152.9920  135.5538  154.5865 H   0  0  0  0  0  0  0  0  0  0  0  0  # atno 10763 bound_to 10752
  154.5236  135.2809  155.1243 H   0  0  0  0  0  0  0  0  0  0  0  0  # atno 10764 bound_to 10752
  154.2587  135.6385  153.5319 H   0  0  0  0  0  0  0  0  0  0  0  0  # atno 10765 bound_to 10752
  140.1830  134.8462  157.2825 H   0  0  0  0  0  0  0  0  0  0  0  0  # atno 11005 bound_to 11000
  145.7861  140.9835  143.1073 LP  0  0  0  0  0  0  0  0  0  0  0  0  # atno 17320 bound_to 7965
  144.6845  139.9625  143.7480 LP  0  0  0  0  0  0  0  0  0  0  0  0  # atno 17321 bound_to 7965
  140.1246  144.5343  150.6841 LP  0  0  0  0  0  0  0  0  0  0  0  0  # atno 17342 bound_to 10162
  140.6959  143.2404  151.5001 LP  0  0  0  0  0  0  0  0  0  0  0  0  # atno 17343 bound_to 10162
  157.7320  130.9709  150.1909 LP  0  0  0  0  0  0  0  0  0  0  0  0  # atno 17370 bound_to 10713
  156.2610  130.3711  149.8131 LP  0  0  0  0  0  0  0  0  0  0  0  0  # atno 17371 bound_to 10713
  140.2245  134.3983  155.7550 LP  0  0  0  0  0  0  0  0  0  0  0  0  # atno 17394 bound_to 11000
  141.2224  133.7183  156.8543 LP  0  0  0  0  0  0  0  0  0  0  0  0  # atno 17395 bound_to 11000

$$$$
