AV-unprocessed.smi:1613|AV-procd|sdf|6479|dock1
  -GOLD-   22720 7143D 1   1.00000     0.00000
 Structure written by MMmdl.
 53 55  0  0  0  0  0  0  0  0  2 V2000
  151.5870  136.5134  154.8576 O   0  0  0  0  0  0  0  0  0  0  0  0
  150.5083  136.8296  155.3568 C   0  0  0  0  0  0  0  0  0  0  0  0
  149.7103  135.7901  156.1641 C   0  0  0  0  0  0  0  0  0  0  0  0
  149.7467  134.4241  155.6060 N   0  0  0  0  0  0  0  0  0  0  0  0
  149.0505  134.1944  154.4071 C   0  0  0  0  0  0  0  0  0  0  0  0
  149.0161  132.9732  153.8543 C   0  0  0  0  0  0  0  0  0  0  0  0
  149.7383  131.9123  154.5685 C   0  0  0  0  0  0  0  0  0  0  0  0
  150.3744  132.1186  155.6604 N   0  0  0  0  0  0  0  0  0  0  0  0
  150.4122  133.4014  156.2376 C   0  0  0  0  0  0  0  0  0  0  0  0
  151.0145  133.6036  157.2920 O   0  0  0  0  0  0  0  0  0  0  0  0
  149.9910  138.0644  155.2567 N   0  0  0  0  0  0  0  0  0  0  0  0
  150.6262  139.2313  154.6523 C   0  0  2  0  0  0  0  0  0  0  0  0
  151.7236  139.8087  155.5687 C   0  0  0  0  0  0  0  0  0  0  0  0
  151.1330  140.3639  156.8775 C   0  0  0  0  0  0  0  0  0  0  0  0
  150.0845  141.3805  156.6046 N   0  3  2  0  0  0  0  0  0  0  0  0
  149.5867  142.0887  157.8146 C   0  0  0  0  0  0  0  0  0  0  0  0
  150.6374  142.9727  158.5401 C   0  0  0  0  0  0  0  0  0  0  0  0
  149.9533  144.1097  159.3275 C   0  0  0  0  0  0  0  0  0  0  0  0
  150.9760  144.9931  160.0601 C   0  0  0  0  0  0  0  0  0  0  0  0
  152.0080  145.5757  159.0838 C   0  0  0  0  0  0  0  0  0  0  0  0
  152.6977  144.4631  158.2814 C   0  0  0  0  0  0  0  0  0  0  0  0
  151.6698  143.5763  157.5597 C   0  0  0  0  0  0  0  0  0  0  0  0
  148.9997  140.8761  155.7204 C   0  0  0  0  0  0  0  0  0  0  0  0
  149.5684  140.3198  154.4003 C   0  0  0  0  0  0  0  0  0  0  0  0
  150.0910  135.7929  157.1865 H   0  0  0  0  0  0  0  0  0  0  0  0
  148.6765  136.1309  156.2450 H   0  0  0  0  0  0  0  0  0  0  0  0
  148.5549  135.0551  153.9820 H   0  0  0  0  0  0  0  0  0  0  0  0
  148.4997  132.7282  152.9382 H   0  0  0  0  0  0  0  0  0  0  0  0
  149.6973  130.9237  154.1042 H   0  0  0  0  0  0  0  0  0  0  0  0
  149.0909  138.2165  155.6884 H   0  0  0  0  0  0  0  0  0  0  0  0
  151.0650  138.9343  153.6982 H   0  0  0  0  0  0  0  0  0  0  0  0
  152.4760  139.0516  155.7924 H   0  0  0  0  0  0  0  0  0  0  0  0
  152.2485  140.6074  155.0432 H   0  0  0  0  0  0  0  0  0  0  0  0
  150.7172  139.5462  157.4658 H   0  0  0  0  0  0  0  0  0  0  0  0
  151.9280  140.8133  157.4733 H   0  0  0  0  0  0  0  0  0  0  0  0
  148.7179  142.6873  157.5381 H   0  0  0  0  0  0  0  0  0  0  0  0
  149.1996  141.3292  158.4953 H   0  0  0  0  0  0  0  0  0  0  0  0
  151.1797  142.3725  159.2694 H   0  0  0  0  0  0  0  0  0  0  0  0
  149.3608  144.7250  158.6491 H   0  0  0  0  0  0  0  0  0  0  0  0
  149.2558  143.6921  160.0544 H   0  0  0  0  0  0  0  0  0  0  0  0
  150.4628  145.8009  160.5828 H   0  0  0  0  0  0  0  0  0  0  0  0
  151.4859  144.4064  160.8249 H   0  0  0  0  0  0  0  0  0  0  0  0
  151.5148  146.2678  158.4001 H   0  0  0  0  0  0  0  0  0  0  0  0
  152.7512  146.1572  159.6300 H   0  0  0  0  0  0  0  0  0  0  0  0
  153.3842  144.9009  157.5561 H   0  0  0  0  0  0  0  0  0  0  0  0
  153.3058  143.8535  158.9495 H   0  0  0  0  0  0  0  0  0  0  0  0
  152.1977  142.7910  157.0206 H   0  0  0  0  0  0  0  0  0  0  0  0
  151.1553  144.1703  156.8031 H   0  0  0  0  0  0  0  0  0  0  0  0
  148.4224  140.1036  156.2287 H   0  0  0  0  0  0  0  0  0  0  0  0
  148.3052  141.6869  155.4980 H   0  0  0  0  0  0  0  0  0  0  0  0
  150.0166  141.1337  153.8290 H   0  0  0  0  0  0  0  0  0  0  0  0
  148.7602  139.9255  153.7829 H   0  0  0  0  0  0  0  0  0  0  0  0
  150.5483  142.0955  156.0623 H   0  0  0  0  0  0  0  0  0  0  0  0
  1  2  2  0  0  0  0
  2  3  1  0  0  0  0
  2 11  1  0  0  0  0
  3  4  1  0  0  0  0
  3 25  1  0  0  0  0
  3 26  1  0  0  0  0
  4  9  1  0  0  0  0
  4  5  1  0  0  0  0
  5  6  2  0  0  0  0
  5 27  1  0  0  0  0
  6  7  1  0  0  0  0
  6 28  1  0  0  0  0
  7  8  2  0  0  0  0
  7 29  1  0  0  0  0
  8  9  1  0  0  0  0
  9 10  2  0  0  0  0
 11 12  1  0  0  0  0
 11 30  1  0  0  0  0
 12 24  1  0  0  0  0
 12 13  1  0  0  0  0
 12 31  1  0  0  0  0
 13 14  1  0  0  0  0
 13 32  1  0  0  0  0
 13 33  1  0  0  0  0
 14 15  1  0  0  0  0
 14 34  1  0  0  0  0
 14 35  1  0  0  0  0
 15 16  1  0  0  0  0
 15 23  1  0  0  0  0
 15 53  1  0  0  0  0
 16 17  1  0  0  0  0
 16 36  1  0  0  0  0
 16 37  1  0  0  0  0
 17 22  1  0  0  0  0
 17 18  1  0  0  0  0
 17 38  1  0  0  0  0
 18 19  1  0  0  0  0
 18 39  1  0  0  0  0
 18 40  1  0  0  0  0
 19 20  1  0  0  0  0
 19 41  1  0  0  0  0
 19 42  1  0  0  0  0
 20 21  1  0  0  0  0
 20 43  1  0  0  0  0
 20 44  1  0  0  0  0
 21 22  1  0  0  0  0
 21 45  1  0  0  0  0
 21 46  1  0  0  0  0
 22 47  1  0  0  0  0
 22 48  1  0  0  0  0
 23 24  1  0  0  0  0
 23 49  1  0  0  0  0
 23 50  1  0  0  0  0
 24 51  1  0  0  0  0
 24 52  1  0  0  0  0
M  CHG  1  15   1
M  END
> <s_m_source_file>
AV-unprocessed.smi

> <i_m_source_file_index>
1613

> <i_lp_mmshare_version>
43012

> <i_f3d_flags>
0

> <s_epik_input>
Tz1jMW5bY0hdW2NIXVtjSF1uMVtDSDJdQyg9TylbTkhdW0NIXTJbQ0gyXVtDSDJdTihbQ0gyXVtDSDJdMilbQ0gyXVtDSF0zW0NIMl1bQ0gyXVtDSDJdW0NIMl1bQ0gyXTM=

> <s_epik_cmdline>
J2VwaWtfcHl0aG9uJywgJy1waCcsICc3LjAnLCAnLXRuJywgJzgnLCAnLW1hJywgJzIwMCcsICctbWV0YWxfYmluZGluZycsICctaW1hZScsICc8aW5maWxlLm1hZT4nLCAnLW9tYWUnLCAnPG91dGZpbGUubWFlPic=

> <r_lp_tautomer_probability>
1

> <r_epik_Ionization_Penalty>
0.00530026

> <r_epik_Ionization_Penalty_Charging>
0.00529416

> <r_epik_Ionization_Penalty_Neutral>
6.10215e-06

> <r_epik_State_Penalty>
0.00386377

> <r_epik_Charging_Adjusted_Penalty>
0.00915793

> <i_epik_Tot_Q>
1

> <i_epik_Tot_abs_Q>
1

> <r_epik_Metal_State_Penalty>
-0

> <b_epik_Metal_Only>
0

> <s_lp_Force_Field>
OPLS_2005

> <r_lp_Energy>
26.8521

> <b_lp_Chiralities_Consistent>
1

> <s_lp_Variant>
AV-unprocessed.smi:1613-2

> <Gold.Version>
5.8.1

> <Gold.Id.Protein>
6NUR|6NUR_protein|mol2

> <Gold.PLP.Fitness>
54.6611

> <Gold.PLP.PLP>
-49.0902

> <Gold.PLP.part.hbond>
-2.0000

> <Gold.PLP.part.metal>
0.0000

> <Gold.PLP.part.buried>
-4.3199

> <Gold.PLP.part.nonpolar>
-42.3052

> <Gold.PLP.part.repulsive>
0.1908

> <Gold.PLP.ligand.clash>
0.0000

> <Gold.PLP.ligand.torsion>
0.9872

> <Gold.PLP.Chemscore.Hbond>
1.4960

> <Gold.PLP.Chemscore.CHOScore>
0.9887

> <Gold.PLP.Chemscore.Metal>
0.0000

> <Gold.Chemscore.Hbonds>
donor molecule, donor type, donor heavy atom, donor atom, acceptor molecule, acceptor atom, score
      P1  H  6896  6907       L1    10  0.50
      P1  H 10752 10763       L1     1  1.00
      L1  C     5    27       P1  7948  0.98

> <Gold.PLP.Chemscore.Internal.Correction>
0.0913

> <Gold.Rescore>
     Score         DG    S(hbond)    S(metal)    S(lipo)     H(rot)  DE(clash)    DE(int)     intcor
     19.78     -20.60       1.61        0.00     123.69       1.84       0.01       0.81       ----

> <Gold.Chemscore.Fitness>
19.7821

> <Gold.Chemscore.DG>
-20.5994

> <Gold.Chemscore.ZeroCoef>
-5.4800

> <Gold.Chemscore.Hbond>
1.6054

> <Gold.Chemscore.Metal>
0.0000

> <Gold.Chemscore.Lipo>
123.6912

> <Gold.Chemscore.Internal_Hbond>
0.0000

> <Gold.Chemscore.DEClash>
0.0077

> <Gold.Chemscore.DEInternal>
0.8096

> <Gold.Chemscore.Rot>
1.8417

> <Gold.Chemscore.Internal.Correction>
   9.000000E+99

> <Gold.Chemscore.Hbonds>
donor molecule, donor type, donor heavy atom, donor atom, acceptor molecule, acceptor atom, score
      P1  H  6896  6907       L1    10  0.48
      P1  H 10752 10763       L1     1  1.00

> <Gold.Chemscore.Hbond.Weighted>
-5.3622

> <Gold.Chemscore.Metal.Weighted>
-0.0000

> <Gold.Chemscore.Lipo.Weighted>
-14.4719

> <Gold.Chemscore.Internal_Hbond.Weighted>
0.0000

> <Gold.Chemscore.DEClash.Weighted>
0.0077

> <Gold.Chemscore.DEInternal.Weighted>
0.8096

> <Gold.Chemscore.Rot.Weighted>
4.7147

> <Gold.Chemscore.Internal.Correction.Weighted>
   9.000000E+99

> <Gold.Protein.RotatedTorsions>
[ 6907 6896 6895 6894 ] final -169.86 input  -60.11 | X-H torsion
[ 7974 7965 7964 7962 ] final   58.92 input  175.53 | X-H torsion
[ 8008 7997 7996 7995 ] final   43.35 input   59.86 | X-H torsion
[ 10167 10162 10161 10158 ] final   51.44 input  -65.29 | X-H torsion
[ 10718 10713 10712 10709 ] final   -3.72 input   66.30 | X-H torsion
[ 10763 10752 10751 10750 ] final   60.06 input  -60.55 | X-H torsion
[ 11005 11000 10999 10996 ] final -107.28 input  -57.11 | X-H torsion

> <Gold.Protein.ActiveResidues>
 VAL166  LYS551  ARG553  GLY616  TRP617  ASP618  TYR619  PRO620  LYS621  CYS622 
 ASP623  PHE694  ASN695  SER759  ASP760  ASP761  ALA762  ILE779  LEU786  VAL792 
 PHE793  MET794  SER795  GLU796  ALA797  LYS798  CYS799  TRP800  GLU811  SER814 

> <Gold.Protein.RotatedAtoms>
  151.4984  133.3509  159.2864 H   0  0  0  0  0  0  0  0  0  0  0  0  # atno 6907 bound_to 6896
  150.8789  134.8179  159.7221 H   0  0  0  0  0  0  0  0  0  0  0  0  # atno 6908 bound_to 6896
  152.4749  134.4879  159.9738 H   0  0  0  0  0  0  0  0  0  0  0  0  # atno 6909 bound_to 6896
  145.9129  139.3668  143.0525 H   0  0  0  0  0  0  0  0  0  0  0  0  # atno 7974 bound_to 7965
  155.3013  140.3385  155.4247 H   0  0  0  0  0  0  0  0  0  0  0  0  # atno 8008 bound_to 7997
  156.2000  140.1729  156.7958 H   0  0  0  0  0  0  0  0  0  0  0  0  # atno 8009 bound_to 7997
  154.5547  140.0699  156.8708 H   0  0  0  0  0  0  0  0  0  0  0  0  # atno 8010 bound_to 7997
  140.2619  144.3363  150.6315 H   0  0  0  0  0  0  0  0  0  0  0  0  # atno 10167 bound_to 10162
  156.7719  130.5303  149.5766 H   0  0  0  0  0  0  0  0  0  0  0  0  # atno 10718 bound_to 10713
  152.9911  135.5549  154.5814 H   0  0  0  0  0  0  0  0  0  0  0  0  # atno 10763 bound_to 10752
  154.5194  135.2807  155.1277 H   0  0  0  0  0  0  0  0  0  0  0  0  # atno 10764 bound_to 10752
  154.2637  135.6376  153.5337 H   0  0  0  0  0  0  0  0  0  0  0  0  # atno 10765 bound_to 10752
  141.0962  133.8967  157.1958 H   0  0  0  0  0  0  0  0  0  0  0  0  # atno 11005 bound_to 11000
  145.8649  140.9454  143.0681 LP  0  0  0  0  0  0  0  0  0  0  0  0  # atno 17320 bound_to 7965
  144.6745  140.0578  143.7477 LP  0  0  0  0  0  0  0  0  0  0  0  0  # atno 17321 bound_to 7965
  140.5959  143.2167  151.7165 LP  0  0  0  0  0  0  0  0  0  0  0  0  # atno 17342 bound_to 10162
  139.5014  144.3868  152.0320 LP  0  0  0  0  0  0  0  0  0  0  0  0  # atno 17343 bound_to 10162
  156.1272  130.6152  151.0281 LP  0  0  0  0  0  0  0  0  0  0  0  0  # atno 17370 bound_to 10713
  157.6687  131.0866  150.7666 LP  0  0  0  0  0  0  0  0  0  0  0  0  # atno 17371 bound_to 10713
  139.9799  135.0101  156.9724 LP  0  0  0  0  0  0  0  0  0  0  0  0  # atno 17394 bound_to 11000
  140.5135  134.0978  155.7275 LP  0  0  0  0  0  0  0  0  0  0  0  0  # atno 17395 bound_to 11000

$$$$
