AV-unprocessed.smi:1947|AV-procd|sdf|7870|dock5
  -GOLD-   2272010 23D 1   1.00000     0.00000
 Structure written by MMmdl.
 38 39  0  0  0  0  0  0  0  0  2 V2000
  148.1099  141.2629  154.3076 C   0  0  0  0  0  0  0  0  0  0  0  0
  149.5545  140.9470  154.7235 C   0  0  1  0  0  0  0  0  0  0  0  0
  149.8279  141.3670  156.1819 C   0  0  0  0  0  0  0  0  0  0  0  0
  151.2904  141.1111  156.5780 C   0  0  0  0  0  0  0  0  0  0  0  0
  151.6834  139.6448  156.3440 C   0  0  0  0  0  0  0  0  0  0  0  0
  151.4114  139.2174  154.8912 C   0  0  0  0  0  0  0  0  0  0  0  0
  149.9473  139.4676  154.4841 C   0  0  1  0  0  0  0  0  0  0  0  0
  149.1378  138.6053  155.2731 O   0  0  0  0  0  0  0  0  0  0  0  0
  149.1432  137.2417  154.8788 C   0  0  0  0  0  0  0  0  0  0  0  0
  149.4507  136.3665  156.1034 C   0  0  0  0  0  0  0  0  0  0  0  0
  148.7621  136.8650  157.2904 N   0  0  0  0  0  0  0  0  0  0  0  0
  148.6887  136.2410  158.4752 C   0  0  0  0  0  0  0  0  0  0  0  0
  149.1450  135.1024  158.6024 O   0  0  0  0  0  0  0  0  0  0  0  0
  148.1092  136.9820  159.4467 N   0  5  0  0  0  0  0  0  0  0  0  0
  147.7531  136.4004  160.6039 C   0  0  0  0  0  0  0  0  0  0  0  0
  147.4871  137.1131  161.7108 N   0  0  0  0  0  0  0  0  0  0  0  0
  147.1444  136.3232  162.7996 N   0  0  0  0  0  0  0  0  0  0  0  0
  147.1509  135.0290  162.4813 C   0  0  0  0  0  0  0  0  0  0  0  0
  147.5731  134.6580  160.8228 S   0  0  0  0  0  0  0  0  0  0  0  0
  147.3897  140.7395  154.9364 H   0  0  0  0  0  0  0  0  0  0  0  0
  147.9254  140.9750  153.2724 H   0  0  0  0  0  0  0  0  0  0  0  0
  147.9029  142.3296  154.3947 H   0  0  0  0  0  0  0  0  0  0  0  0
  150.1989  141.5547  154.0865 H   0  0  0  0  0  0  0  0  0  0  0  0
  149.5935  142.4234  156.3173 H   0  0  0  0  0  0  0  0  0  0  0  0
  149.1670  140.8214  156.8560 H   0  0  0  0  0  0  0  0  0  0  0  0
  151.9451  141.7627  155.9980 H   0  0  0  0  0  0  0  0  0  0  0  0
  151.4415  141.3735  157.6254 H   0  0  0  0  0  0  0  0  0  0  0  0
  152.7371  139.4999  156.5831 H   0  0  0  0  0  0  0  0  0  0  0  0
  151.1225  139.0046  157.0263 H   0  0  0  0  0  0  0  0  0  0  0  0
  152.0722  139.7710  154.2232 H   0  0  0  0  0  0  0  0  0  0  0  0
  151.6581  138.1631  154.7619 H   0  0  0  0  0  0  0  0  0  0  0  0
  149.8463  139.2272  153.4240 H   0  0  0  0  0  0  0  0  0  0  0  0
  148.1863  136.9493  154.4447 H   0  0  0  0  0  0  0  0  0  0  0  0
  149.9041  137.0979  154.1108 H   0  0  0  0  0  0  0  0  0  0  0  0
  149.0995  135.3510  155.9203 H   0  0  0  0  0  0  0  0  0  0  0  0
  150.5265  136.2964  156.2707 H   0  0  0  0  0  0  0  0  0  0  0  0
  148.3657  137.7912  157.2316 H   0  0  0  0  0  0  0  0  0  0  0  0
  146.9033  134.2884  163.2268 H   0  0  0  0  0  0  0  0  0  0  0  0
  1  2  1  0  0  0  0
  1 20  1  0  0  0  0
  1 21  1  0  0  0  0
  1 22  1  0  0  0  0
  2  7  1  0  0  0  0
  2  3  1  0  0  0  0
  2 23  1  0  0  0  0
  3  4  1  0  0  0  0
  3 24  1  0  0  0  0
  3 25  1  0  0  0  0
  4  5  1  0  0  0  0
  4 26  1  0  0  0  0
  4 27  1  0  0  0  0
  5  6  1  0  0  0  0
  5 28  1  0  0  0  0
  5 29  1  0  0  0  0
  6  7  1  0  0  0  0
  6 30  1  0  0  0  0
  6 31  1  0  0  0  0
  7  8  1  0  0  0  0
  7 32  1  0  0  0  0
  8  9  1  0  0  0  0
  9 10  1  0  0  0  0
  9 33  1  0  0  0  0
  9 34  1  0  0  0  0
 10 11  1  0  0  0  0
 10 35  1  0  0  0  0
 10 36  1  0  0  0  0
 11 12  1  0  0  0  0
 11 37  1  0  0  0  0
 12 13  2  0  0  0  0
 12 14  1  0  0  0  0
 14 15  1  0  0  0  0
 15 19  1  0  0  0  0
 15 16  2  0  0  0  0
 16 17  1  0  0  0  0
 17 18  2  0  0  0  0
 18 19  1  0  0  0  0
 18 38  1  0  0  0  0
M  CHG  1  14  -1
M  END
> <s_m_source_file>
AV-unprocessed.smi

> <i_m_source_file_index>
1947

> <i_lp_mmshare_version>
43012

> <i_f3d_flags>
0

> <s_epik_input>
W0NIM11bQ0BASF0xW0NIMl1bQ0gyXVtDSDJdW0NIMl1bQ0BIXTFPW0NIMl1bQ0gyXVtOSF1DKD1PKVtOSF1jMm5uW2NIXXMy

> <s_epik_cmdline>
J2VwaWtfcHl0aG9uJywgJy1waCcsICc3LjAnLCAnLXRuJywgJzgnLCAnLW1hJywgJzIwMCcsICctbWV0YWxfYmluZGluZycsICctaW1hZScsICc8aW5maWxlLm1hZT4nLCAnLW9tYWUnLCAnPG91dGZpbGUubWFlPic=

> <r_lp_tautomer_probability>
1

> <r_epik_Ionization_Penalty>
3.35961

> <r_epik_Ionization_Penalty_Charging>
3.31977

> <r_epik_Ionization_Penalty_Neutral>
0.0398394

> <r_epik_State_Penalty>
3.31759

> <r_epik_Charging_Adjusted_Penalty>
6.63736

> <i_epik_Tot_Q>
-1

> <i_epik_Tot_abs_Q>
1

> <r_epik_Metal_State_Penalty>
0.484557

> <b_epik_Metal_Only>
1

> <s_lp_Force_Field>
OPLS_2005

> <r_lp_Energy>
8.55413

> <b_lp_Chiralities_Consistent>
1

> <s_lp_Variant>
AV-unprocessed.smi:1947-6

> <Gold.Version>
5.8.1

> <Gold.Id.Protein>
6NUR|6NUR_protein|mol2

> <Gold.PLP.Fitness>
39.5338

> <Gold.PLP.PLP>
-32.7307

> <Gold.PLP.part.hbond>
-3.0000

> <Gold.PLP.part.metal>
0.0000

> <Gold.PLP.part.buried>
-2.4806

> <Gold.PLP.part.nonpolar>
-26.7942

> <Gold.PLP.part.repulsive>
0.0851

> <Gold.PLP.ligand.clash>
0.0000

> <Gold.PLP.ligand.torsion>
0.7103

> <Gold.PLP.Chemscore.Hbond>
2.7056

> <Gold.PLP.Chemscore.CHOScore>
0.0000

> <Gold.PLP.Chemscore.Metal>
0.0000

> <Gold.Chemscore.Hbonds>
donor molecule, donor type, donor heavy atom, donor atom, acceptor molecule, acceptor atom, score
      P1  H  6896  6908       L1    13  1.00
      P1  H  6931  6943       L1    16  0.98
      P1  H  6934  6947       L1    16  0.70

> <Gold.PLP.Chemscore.Internal.Correction>
0.1070

> <Gold.Rescore>
     Score         DG    S(hbond)    S(metal)    S(lipo)     H(rot)  DE(clash)    DE(int)     intcor
     13.00     -15.28       1.84        0.00      72.73       1.90       0.10       2.19       ----

> <Gold.Chemscore.Fitness>
12.9968

> <Gold.Chemscore.DG>
-15.2813

> <Gold.Chemscore.ZeroCoef>
-5.4800

> <Gold.Chemscore.Hbond>
1.8420

> <Gold.Chemscore.Metal>
0.0000

> <Gold.Chemscore.Lipo>
72.7255

> <Gold.Chemscore.Internal_Hbond>
0.0000

> <Gold.Chemscore.DEClash>
0.0954

> <Gold.Chemscore.DEInternal>
2.1890

> <Gold.Chemscore.Rot>
1.8984

> <Gold.Chemscore.Internal.Correction>
   9.000000E+99

> <Gold.Chemscore.Hbonds>
donor molecule, donor type, donor heavy atom, donor atom, acceptor molecule, acceptor atom, score
      P1  H  6896  6908       L1    13  0.99
      P1  H  6931  6943       L1    16  0.39
      P1  H  6934  6947       L1    16  0.27

> <Gold.Chemscore.Hbond.Weighted>
-6.1522

> <Gold.Chemscore.Metal.Weighted>
-0.0000

> <Gold.Chemscore.Lipo.Weighted>
-8.5089

> <Gold.Chemscore.Internal_Hbond.Weighted>
0.0000

> <Gold.Chemscore.DEClash.Weighted>
0.0954

> <Gold.Chemscore.DEInternal.Weighted>
2.1890

> <Gold.Chemscore.Rot.Weighted>
4.8598

> <Gold.Chemscore.Internal.Correction.Weighted>
   9.000000E+99

> <Gold.Protein.RotatedTorsions>
[ 6907 6896 6895 6894 ] final  146.82 input  -60.11 | X-H torsion
[ 7974 7965 7964 7962 ] final   28.99 input  175.53 | X-H torsion
[ 8008 7997 7996 7995 ] final  -35.35 input   59.86 | X-H torsion
[ 10167 10162 10161 10158 ] final  144.78 input  -65.29 | X-H torsion
[ 10718 10713 10712 10709 ] final  -66.26 input   66.30 | X-H torsion
[ 10763 10752 10751 10750 ] final  160.41 input  -60.55 | X-H torsion
[ 11005 11000 10999 10996 ] final  161.95 input  -57.11 | X-H torsion

> <Gold.Protein.ActiveResidues>
 VAL166  LYS551  ARG553  GLY616  TRP617  ASP618  TYR619  PRO620  LYS621  CYS622 
 ASP623  PHE694  ASN695  SER759  ASP760  ASP761  ALA762  ILE779  LEU786  VAL792 
 PHE793  MET794  SER795  GLU796  ALA797  LYS798  CYS799  TRP800  GLU811  SER814 

> <Gold.Protein.RotatedAtoms>
  152.1629  133.4593  159.4869 H   0  0  0  0  0  0  0  0  0  0  0  0  # atno 6907 bound_to 6896
  150.6909  134.2049  159.4345 H   0  0  0  0  0  0  0  0  0  0  0  0  # atno 6908 bound_to 6896
  151.9952  134.9957  160.0613 H   0  0  0  0  0  0  0  0  0  0  0  0  # atno 6909 bound_to 6896
  146.1697  139.6982  142.8976 H   0  0  0  0  0  0  0  0  0  0  0  0  # atno 7974 bound_to 7965
  154.4098  140.1660  156.2197 H   0  0  0  0  0  0  0  0  0  0  0  0  # atno 8008 bound_to 7997
  155.9374  140.3410  155.6276 H   0  0  0  0  0  0  0  0  0  0  0  0  # atno 8009 bound_to 7997
  155.7031  140.0747  157.2393 H   0  0  0  0  0  0  0  0  0  0  0  0  # atno 8010 bound_to 7997
  139.4939  144.5948  151.6606 H   0  0  0  0  0  0  0  0  0  0  0  0  # atno 10167 bound_to 10162
  156.0622  130.4259  150.1684 H   0  0  0  0  0  0  0  0  0  0  0  0  # atno 10718 bound_to 10713
  154.2469  135.2773  155.2832 H   0  0  0  0  0  0  0  0  0  0  0  0  # atno 10763 bound_to 10752
  154.5497  135.5678  153.6915 H   0  0  0  0  0  0  0  0  0  0  0  0  # atno 10764 bound_to 10752
  152.9988  135.6271  154.2615 H   0  0  0  0  0  0  0  0  0  0  0  0  # atno 10765 bound_to 10752
  140.2209  134.8197  157.3219 H   0  0  0  0  0  0  0  0  0  0  0  0  # atno 11005 bound_to 11000
  145.4372  141.0420  143.2877 LP  0  0  0  0  0  0  0  0  0  0  0  0  # atno 17320 bound_to 7965
  144.8145  139.5902  143.7014 LP  0  0  0  0  0  0  0  0  0  0  0  0  # atno 17321 bound_to 7965
  140.5583  144.0311  150.6158 LP  0  0  0  0  0  0  0  0  0  0  0  0  # atno 17342 bound_to 10162
  140.3389  143.3032  152.0609 LP  0  0  0  0  0  0  0  0  0  0  0  0  # atno 17343 bound_to 10162
  156.9750  130.9846  151.3450 LP  0  0  0  0  0  0  0  0  0  0  0  0  # atno 17370 bound_to 10713
  157.5639  130.8264  149.8302 LP  0  0  0  0  0  0  0  0  0  0  0  0  # atno 17371 bound_to 10713
  140.1851  134.4442  155.7749 LP  0  0  0  0  0  0  0  0  0  0  0  0  # atno 17394 bound_to 11000
  141.2223  133.7001  156.7933 LP  0  0  0  0  0  0  0  0  0  0  0  0  # atno 17395 bound_to 11000

$$$$
