AV-unprocessed.smi:1508|AV-procd|sdf|6088|dock3
  -GOLD-   22720 6213D 1   1.00000     0.00000
 Structure written by MMmdl.
 37 38  0  0  0  0  0  0  0  0  3 V2000
  151.6060  138.5921  155.1335 C   0  0  0  0  0  0  0  0  0  0  0  0
  151.0013  137.3662  154.4311 C   0  0  0  0  0  0  0  0  0  0  0  0
  149.8179  136.7003  155.1849 C   0  0  2  0  0  0  0  0  0  0  0  0
  150.2243  136.2013  156.5985 C   0  0  0  0  0  0  0  0  0  0  0  0
  149.3994  136.7740  157.6574 N   0  0  0  0  0  0  0  0  0  0  0  0
  148.9016  136.1033  158.7059 C   0  0  0  0  0  0  0  0  0  0  0  0
  149.1508  134.9032  158.8415 O   0  0  0  0  0  0  0  0  0  0  0  0
  148.1398  136.8616  159.5250 N   0  5  0  0  0  0  0  0  0  0  0  0
  147.8457  136.4247  160.7607 C   0  0  0  0  0  0  0  0  0  0  0  0
  147.7591  137.2519  161.8147 N   0  0  0  0  0  0  0  0  0  0  0  0
  147.4438  136.5973  162.9977 N   0  0  0  0  0  0  0  0  0  0  0  0
  147.2910  135.2877  162.8025 C   0  0  0  0  0  0  0  0  0  0  0  0
  147.5165  134.7356  161.1562 S   0  0  0  0  0  0  0  0  0  0  0  0
  149.1871  135.6078  154.3879 N   0  3  0  0  0  0  0  0  0  0  0  0
  149.9352  134.3245  154.3707 C   0  0  0  0  0  0  0  0  0  0  0  0
  148.9006  133.1910  154.3881 C   0  0  0  0  0  0  0  0  0  0  0  0
  147.5589  133.8811  154.1728 C   0  0  0  0  0  0  0  0  0  0  0  0
  147.7916  135.2734  154.7468 C   0  0  0  0  0  0  0  0  0  0  0  0
  152.4525  138.9786  154.5658 H   0  0  0  0  0  0  0  0  0  0  0  0
  151.9653  138.3476  156.1330 H   0  0  0  0  0  0  0  0  0  0  0  0
  150.8816  139.4012  155.2238 H   0  0  0  0  0  0  0  0  0  0  0  0
  150.6762  137.6650  153.4343 H   0  0  0  0  0  0  0  0  0  0  0  0
  151.7898  136.6363  154.2488 H   0  0  0  0  0  0  0  0  0  0  0  0
  149.0530  137.4686  155.3089 H   0  0  0  0  0  0  0  0  0  0  0  0
  150.1636  135.1153  156.6735 H   0  0  0  0  0  0  0  0  0  0  0  0
  151.2642  136.4538  156.8060 H   0  0  0  0  0  0  0  0  0  0  0  0
  149.1764  137.7563  157.5865 H   0  0  0  0  0  0  0  0  0  0  0  0
  147.0412  134.6432  163.6320 H   0  0  0  0  0  0  0  0  0  0  0  0
  150.5578  134.2825  153.4766 H   0  0  0  0  0  0  0  0  0  0  0  0
  150.5909  134.2290  155.2377 H   0  0  0  0  0  0  0  0  0  0  0  0
  149.1009  132.4289  153.6346 H   0  0  0  0  0  0  0  0  0  0  0  0
  148.9096  132.7020  155.3632 H   0  0  0  0  0  0  0  0  0  0  0  0
  147.3442  133.9512  153.1056 H   0  0  0  0  0  0  0  0  0  0  0  0
  146.7303  133.3574  154.6507 H   0  0  0  0  0  0  0  0  0  0  0  0
  147.6861  135.2463  155.8329 H   0  0  0  0  0  0  0  0  0  0  0  0
  147.0803  135.9990  154.3515 H   0  0  0  0  0  0  0  0  0  0  0  0
  149.1554  135.9248  153.4294 H   0  0  0  0  0  0  0  0  0  0  0  0
  1  2  1  0  0  0  0
  1 19  1  0  0  0  0
  1 20  1  0  0  0  0
  1 21  1  0  0  0  0
  2  3  1  0  0  0  0
  2 22  1  0  0  0  0
  2 23  1  0  0  0  0
  3  4  1  0  0  0  0
  3 14  1  0  0  0  0
  3 24  1  0  0  0  0
  4  5  1  0  0  0  0
  4 25  1  0  0  0  0
  4 26  1  0  0  0  0
  5  6  1  0  0  0  0
  5 27  1  0  0  0  0
  6  7  2  0  0  0  0
  6  8  1  0  0  0  0
  8  9  1  0  0  0  0
  9 13  1  0  0  0  0
  9 10  2  0  0  0  0
 10 11  1  0  0  0  0
 11 12  2  0  0  0  0
 12 13  1  0  0  0  0
 12 28  1  0  0  0  0
 14 18  1  0  0  0  0
 14 15  1  0  0  0  0
 14 37  1  0  0  0  0
 15 16  1  0  0  0  0
 15 29  1  0  0  0  0
 15 30  1  0  0  0  0
 16 17  1  0  0  0  0
 16 31  1  0  0  0  0
 16 32  1  0  0  0  0
 17 18  1  0  0  0  0
 17 33  1  0  0  0  0
 17 34  1  0  0  0  0
 18 35  1  0  0  0  0
 18 36  1  0  0  0  0
M  CHG  1   8  -1
M  CHG  1  14   1
M  END
> <s_m_source_file>
AV-unprocessed.smi

> <i_m_source_file_index>
1508

> <i_lp_mmshare_version>
43012

> <i_f3d_flags>
0

> <s_epik_input>
W0NIMl0xW0NIMl1bQ0gyXVtDSDJdTjFbQ0BIXShbQ0gyXVtDSDNdKVtDSDJdW05IXUMoPU8pW05IXWMybm5bY0hdczI=

> <s_epik_cmdline>
J2VwaWtfcHl0aG9uJywgJy1waCcsICc3LjAnLCAnLXRuJywgJzgnLCAnLW1hJywgJzIwMCcsICctbWV0YWxfYmluZGluZycsICctaW1hZScsICc8aW5maWxlLm1hZT4nLCAnLW9tYWUnLCAnPG91dGZpbGUubWFlPic=

> <r_lp_tautomer_probability>
1

> <r_epik_Ionization_Penalty>
3.98086

> <r_epik_Ionization_Penalty_Charging>
3.94833

> <r_epik_Ionization_Penalty_Neutral>
0.032525

> <r_epik_State_Penalty>
3.94643

> <r_epik_Charging_Adjusted_Penalty>
7.89477

> <i_epik_Tot_Q>
0

> <i_epik_Tot_abs_Q>
2

> <r_epik_Metal_State_Penalty>
0.605555

> <b_epik_Metal_Only>
1

> <s_lp_Force_Field>
OPLS_2005

> <r_lp_Energy>
24.3568

> <b_lp_Chiralities_Consistent>
1

> <s_lp_Variant>
AV-unprocessed.smi:1508-3

> <Gold.Version>
5.8.1

> <Gold.Id.Protein>
6NUR|6NUR_protein|mol2

> <Gold.PLP.Fitness>
39.8749

> <Gold.PLP.PLP>
-28.6462

> <Gold.PLP.part.hbond>
-4.0000

> <Gold.PLP.part.metal>
0.0000

> <Gold.PLP.part.buried>
-3.6047

> <Gold.PLP.part.nonpolar>
-20.6880

> <Gold.PLP.part.repulsive>
0.0699

> <Gold.PLP.ligand.clash>
0.0000

> <Gold.PLP.ligand.torsion>
1.4558

> <Gold.PLP.Chemscore.Hbond>
4.6784

> <Gold.PLP.Chemscore.CHOScore>
0.0000

> <Gold.PLP.Chemscore.Metal>
0.0000

> <Gold.Chemscore.Hbonds>
donor molecule, donor type, donor heavy atom, donor atom, acceptor molecule, acceptor atom, score
      L1  H    14    37       P1  7948  2.00
      P1  H  6896  6907       L1     7  0.98
      P1  H  6931  6943       L1    10  1.00
      P1  H  6934  6947       L1    10  0.60

> <Gold.PLP.Chemscore.Internal.Correction>
0.1051

> <Gold.Rescore>
     Score         DG    S(hbond)    S(metal)    S(lipo)     H(rot)  DE(clash)    DE(int)     intcor
     13.98     -16.79       2.81        0.00      56.97       1.86       0.07       2.74       ----

> <Gold.Chemscore.Fitness>
13.9801

> <Gold.Chemscore.DG>
-16.7872

> <Gold.Chemscore.ZeroCoef>
-5.4800

> <Gold.Chemscore.Hbond>
2.8133

> <Gold.Chemscore.Metal>
0.0000

> <Gold.Chemscore.Lipo>
56.9732

> <Gold.Chemscore.Internal_Hbond>
0.0000

> <Gold.Chemscore.DEClash>
0.0665

> <Gold.Chemscore.DEInternal>
2.7406

> <Gold.Chemscore.Rot>
1.8575

> <Gold.Chemscore.Internal.Correction>
   9.000000E+99

> <Gold.Chemscore.Hbonds>
donor molecule, donor type, donor heavy atom, donor atom, acceptor molecule, acceptor atom, score
      L1  H    14    37       P1  7948  0.80
      P1  H  6896  6907       L1     7  0.69
      P1  H  6931  6943       L1    10  0.71
      P1  H  6934  6947       L1    10  0.23

> <Gold.Chemscore.Hbond.Weighted>
-9.3964

> <Gold.Chemscore.Metal.Weighted>
-0.0000

> <Gold.Chemscore.Lipo.Weighted>
-6.6659

> <Gold.Chemscore.Internal_Hbond.Weighted>
0.0000

> <Gold.Chemscore.DEClash.Weighted>
0.0665

> <Gold.Chemscore.DEInternal.Weighted>
2.7406

> <Gold.Chemscore.Rot.Weighted>
4.7551

> <Gold.Chemscore.Internal.Correction.Weighted>
   9.000000E+99

> <Gold.Protein.RotatedTorsions>
[ 6907 6896 6895 6894 ] final  -58.96 input  -60.11 | X-H torsion
[ 7974 7965 7964 7962 ] final  161.11 input  175.53 | X-H torsion
[ 8008 7997 7996 7995 ] final  120.26 input   59.86 | X-H torsion
[ 10167 10162 10161 10158 ] final  -57.98 input  -65.29 | X-H torsion
[ 10718 10713 10712 10709 ] final  -39.48 input   66.30 | X-H torsion
[ 10763 10752 10751 10750 ] final -162.15 input  -60.55 | X-H torsion
[ 11005 11000 10999 10996 ] final   -7.11 input  -57.11 | X-H torsion

> <Gold.Protein.ActiveResidues>
 VAL166  LYS551  ARG553  GLY616  TRP617  ASP618  TYR619  PRO620  LYS621  CYS622 
 ASP623  PHE694  ASN695  SER759  ASP760  ASP761  ALA762  ILE779  LEU786  VAL792 
 PHE793  MET794  SER795  GLU796  ALA797  LYS798  CYS799  TRP800  GLU811  SER814 

> <Gold.Protein.RotatedAtoms>
  150.7967  134.7031  159.6560 H   0  0  0  0  0  0  0  0  0  0  0  0  # atno 6907 bound_to 6896
  152.4079  134.6171  160.0051 H   0  0  0  0  0  0  0  0  0  0  0  0  # atno 6908 bound_to 6896
  151.6423  133.3288  159.3169 H   0  0  0  0  0  0  0  0  0  0  0  0  # atno 6909 bound_to 6896
  144.7702  139.7851  143.6300 H   0  0  0  0  0  0  0  0  0  0  0  0  # atno 7974 bound_to 7965
  156.2634  140.2834  156.1122 H   0  0  0  0  0  0  0  0  0  0  0  0  # atno 8008 bound_to 7997
  155.1245  140.0393  157.2776 H   0  0  0  0  0  0  0  0  0  0  0  0  # atno 8009 bound_to 7997
  154.6645  140.2574  155.7079 H   0  0  0  0  0  0  0  0  0  0  0  0  # atno 8010 bound_to 7997
  140.6225  143.2425  151.5444 H   0  0  0  0  0  0  0  0  0  0  0  0  # atno 10167 bound_to 10162
  156.2920  130.4229  149.8229 H   0  0  0  0  0  0  0  0  0  0  0  0  # atno 10718 bound_to 10713
  154.7240  135.3032  154.9002 H   0  0  0  0  0  0  0  0  0  0  0  0  # atno 10763 bound_to 10752
  153.9865  135.6724  153.4756 H   0  0  0  0  0  0  0  0  0  0  0  0  # atno 10764 bound_to 10752
  153.0858  135.4985  154.8513 H   0  0  0  0  0  0  0  0  0  0  0  0  # atno 10765 bound_to 10752
  140.7093  133.8923  155.8739 H   0  0  0  0  0  0  0  0  0  0  0  0  # atno 11005 bound_to 11000
  146.1843  139.5051  142.9846 LP  0  0  0  0  0  0  0  0  0  0  0  0  # atno 17320 bound_to 7965
  145.6346  141.0297  143.1845 LP  0  0  0  0  0  0  0  0  0  0  0  0  # atno 17321 bound_to 7965
  139.5451  144.2542  152.1427 LP  0  0  0  0  0  0  0  0  0  0  0  0  # atno 17342 bound_to 10162
  140.1766  144.4885  150.6551 LP  0  0  0  0  0  0  0  0  0  0  0  0  # atno 17343 bound_to 10162
  156.5638  130.8395  151.3336 LP  0  0  0  0  0  0  0  0  0  0  0  0  # atno 17370 bound_to 10713
  157.7345  130.9747  150.2032 LP  0  0  0  0  0  0  0  0  0  0  0  0  # atno 17371 bound_to 10713
  141.0098  134.1036  157.4233 LP  0  0  0  0  0  0  0  0  0  0  0  0  # atno 17394 bound_to 11000
  139.8876  135.0091  156.6569 LP  0  0  0  0  0  0  0  0  0  0  0  0  # atno 17395 bound_to 11000

$$$$
