AV-unprocessed.smi:1367|AV-procd|sdf|5572|dock1
  -GOLD-   22720 5163D 1   1.00000     0.00000
 Structure written by MMmdl.
 30 30  0  0  0  0  0  0  0  0  1 V2000
  146.4057  138.0839  152.6848 C   0  0  0  0  0  0  0  0  0  0  0  0
  147.2741  139.0964  153.4014 C   0  0  0  0  0  0  0  0  0  0  0  0
  146.8256  140.1917  153.9204 N   0  0  0  0  0  0  0  0  0  0  0  0
  147.7274  141.0520  154.5621 C   0  0  0  0  0  0  0  0  0  0  0  0
  147.1236  142.3166  155.1484 C   0  0  0  0  0  0  0  0  0  0  0  0
  149.0584  140.7599  154.6477 C   0  0  0  0  0  0  0  0  0  0  0  0
  150.0643  141.6765  155.3425 C   0  0  0  0  0  0  0  0  0  0  0  0
  149.8423  141.8855  156.8426 C   0  0  0  0  0  0  0  0  0  0  0  0
  148.8680  141.3821  157.4020 O   0  0  0  0  0  0  0  0  0  0  0  0
  150.7494  142.6365  157.4823 N   0  0  0  0  0  0  0  0  0  0  0  0
  150.6963  142.9589  158.9025 C   0  0  0  0  0  0  0  0  0  0  0  0
  151.9432  143.7404  159.3407 C   0  0  0  0  0  0  0  0  0  0  0  0
  153.0212  142.9713  159.1935 F   0  0  0  0  0  0  0  0  0  0  0  0
  152.0907  144.8337  158.5922 F   0  0  0  0  0  0  0  0  0  0  0  0
  151.8409  144.0949  160.6219 F   0  0  0  0  0  0  0  0  0  0  0  0
  149.5596  139.5062  154.0515 C   0  0  0  0  0  0  0  0  0  0  0  0
  150.7344  139.1430  154.0751 O   0  0  0  0  0  0  0  0  0  0  0  0
  148.6202  138.7388  153.4545 N   0  0  0  0  0  0  0  0  0  0  0  0
  148.9130  137.8693  153.0332 H   0  0  0  0  0  0  0  0  0  0  0  0
  145.6337  137.7090  153.3571 H   0  0  0  0  0  0  0  0  0  0  0  0
  146.9891  137.2342  152.3273 H   0  0  0  0  0  0  0  0  0  0  0  0
  145.9179  138.5479  151.8274 H   0  0  0  0  0  0  0  0  0  0  0  0
  147.5396  143.1997  154.6634 H   0  0  0  0  0  0  0  0  0  0  0  0
  147.3241  142.3795  156.2181 H   0  0  0  0  0  0  0  0  0  0  0  0
  146.0418  142.3395  155.0118 H   0  0  0  0  0  0  0  0  0  0  0  0
  151.0810  141.3092  155.1993 H   0  0  0  0  0  0  0  0  0  0  0  0
  150.0489  142.6455  154.8420 H   0  0  0  0  0  0  0  0  0  0  0  0
  151.5218  143.0158  156.9533 H   0  0  0  0  0  0  0  0  0  0  0  0
  149.8000  143.5465  159.1079 H   0  0  0  0  0  0  0  0  0  0  0  0
  150.6136  142.0358  159.4781 H   0  0  0  0  0  0  0  0  0  0  0  0
  1  2  1  0  0  0  0
  1 20  1  0  0  0  0
  1 21  1  0  0  0  0
  1 22  1  0  0  0  0
  2 18  1  0  0  0  0
  2  3  2  0  0  0  0
  3  4  1  0  0  0  0
  4  5  1  0  0  0  0
  4  6  2  0  0  0  0
  5 23  1  0  0  0  0
  5 24  1  0  0  0  0
  5 25  1  0  0  0  0
  6  7  1  0  0  0  0
  6 16  1  0  0  0  0
  7  8  1  0  0  0  0
  7 26  1  0  0  0  0
  7 27  1  0  0  0  0
  8  9  2  0  0  0  0
  8 10  1  0  0  0  0
 10 11  1  0  0  0  0
 10 28  1  0  0  0  0
 11 12  1  0  0  0  0
 11 29  1  0  0  0  0
 11 30  1  0  0  0  0
 12 13  1  0  0  0  0
 12 14  1  0  0  0  0
 12 15  1  0  0  0  0
 16 17  2  0  0  0  0
 16 18  1  0  0  0  0
 18 19  1  0  0  0  0
M  END
> <s_m_source_file>
AV-unprocessed.smi

> <i_m_source_file_index>
1367

> <i_lp_mmshare_version>
43012

> <i_f3d_flags>
0

> <s_epik_input>
W0NIM11jMW5jKFtDSDNdKWMoYyg9TylbbkhdMSlbQ0gyXUMoPU8pW05IXVtDSDJdQyhGKShGKUY=

> <s_epik_cmdline>
J2VwaWtfcHl0aG9uJywgJy1waCcsICc3LjAnLCAnLXRuJywgJzgnLCAnLW1hJywgJzIwMCcsICctbWV0YWxfYmluZGluZycsICctaW1hZScsICc8aW5maWxlLm1hZT4nLCAnLW9tYWUnLCAnPG91dGZpbGUubWFlPic=

> <r_lp_tautomer_probability>
0.839158

> <r_epik_Ionization_Penalty>
0.000480491

> <r_epik_Ionization_Penalty_Charging>
0.000456019

> <r_epik_Ionization_Penalty_Neutral>
2.44714e-05

> <r_epik_State_Penalty>
0.048705

> <r_epik_Charging_Adjusted_Penalty>
0.0491611

> <i_epik_Tot_Q>
0

> <i_epik_Tot_abs_Q>
0

> <r_epik_Metal_State_Penalty>
0.248113

> <b_epik_Metal_Only>
0

> <s_lp_Force_Field>
OPLS_2005

> <r_lp_Energy>
5.13431

> <b_lp_Chiralities_Consistent>
1

> <s_lp_Variant>
AV-unprocessed.smi:1367-1

> <Gold.Version>
5.8.1

> <Gold.Id.Protein>
6NUR|6NUR_protein|mol2

> <Gold.PLP.Fitness>
41.2349

> <Gold.PLP.PLP>
-35.3179

> <Gold.PLP.part.hbond>
-3.0040

> <Gold.PLP.part.metal>
0.0000

> <Gold.PLP.part.buried>
0.7367

> <Gold.PLP.part.nonpolar>
-32.8103

> <Gold.PLP.part.repulsive>
0.4910

> <Gold.PLP.ligand.clash>
0.0000

> <Gold.PLP.ligand.torsion>
0.0441

> <Gold.PLP.Chemscore.Hbond>
2.0000

> <Gold.PLP.Chemscore.CHOScore>
0.0000

> <Gold.PLP.Chemscore.Metal>
0.0000

> <Gold.Chemscore.Hbonds>
donor molecule, donor type, donor heavy atom, donor atom, acceptor molecule, acceptor atom, score
      L1  H    18    19       P1  7948  1.00
      P1  H  7989  7998       L1    17  1.00

> <Gold.PLP.Chemscore.Internal.Correction>
0.0052

> <Gold.Rescore>
     Score         DG    S(hbond)    S(metal)    S(lipo)     H(rot)  DE(clash)    DE(int)     intcor
     10.75     -11.07       1.35        0.00      50.71       1.90       0.26       0.06       ----

> <Gold.Chemscore.Fitness>
10.7484

> <Gold.Chemscore.DG>
-11.0676

> <Gold.Chemscore.ZeroCoef>
-5.4800

> <Gold.Chemscore.Hbond>
1.3505

> <Gold.Chemscore.Metal>
0.0000

> <Gold.Chemscore.Lipo>
50.7064

> <Gold.Chemscore.Internal_Hbond>
0.0000

> <Gold.Chemscore.DEClash>
0.2550

> <Gold.Chemscore.DEInternal>
0.0641

> <Gold.Chemscore.Rot>
1.8968

> <Gold.Chemscore.Internal.Correction>
   9.000000E+99

> <Gold.Chemscore.Hbonds>
donor molecule, donor type, donor heavy atom, donor atom, acceptor molecule, acceptor atom, score
      L1  H    18    19       P1  7948  0.97
      P1  H  7989  7998       L1    17  0.24

> <Gold.Chemscore.Hbond.Weighted>
-4.5108

> <Gold.Chemscore.Metal.Weighted>
-0.0000

> <Gold.Chemscore.Lipo.Weighted>
-5.9326

> <Gold.Chemscore.Internal_Hbond.Weighted>
0.0000

> <Gold.Chemscore.DEClash.Weighted>
0.2550

> <Gold.Chemscore.DEInternal.Weighted>
0.0641

> <Gold.Chemscore.Rot.Weighted>
4.8559

> <Gold.Chemscore.Internal.Correction.Weighted>
   9.000000E+99

> <Gold.Protein.RotatedTorsions>
[ 6907 6896 6895 6894 ] final  150.39 input  -60.11 | X-H torsion
[ 7974 7965 7964 7962 ] final  -60.29 input  175.53 | X-H torsion
[ 8008 7997 7996 7995 ] final -174.49 input   59.86 | X-H torsion
[ 10167 10162 10161 10158 ] final    4.57 input  -65.29 | X-H torsion
[ 10718 10713 10712 10709 ] final  -12.24 input   66.30 | X-H torsion
[ 10763 10752 10751 10750 ] final  178.67 input  -60.55 | X-H torsion
[ 11005 11000 10999 10996 ] final  -30.72 input  -57.11 | X-H torsion

> <Gold.Protein.ActiveResidues>
 VAL166  LYS551  ARG553  GLY616  TRP617  ASP618  TYR619  PRO620  LYS621  CYS622 
 ASP623  PHE694  ASN695  SER759  ASP760  ASP761  ALA762  ILE779  LEU786  VAL792 
 PHE793  MET794  SER795  GLU796  ALA797  LYS798  CYS799  TRP800  GLU811  SER814 

> <Gold.Protein.RotatedAtoms>
  152.1151  133.4322  159.4648 H   0  0  0  0  0  0  0  0  0  0  0  0  # atno 6907 bound_to 6896
  150.6869  134.2602  159.4555 H   0  0  0  0  0  0  0  0  0  0  0  0  # atno 6908 bound_to 6896
  152.0474  134.9674  160.0625 H   0  0  0  0  0  0  0  0  0  0  0  0  # atno 6909 bound_to 6896
  145.8172  140.8562  143.0151 H   0  0  0  0  0  0  0  0  0  0  0  0  # atno 7974 bound_to 7965
  155.9707  140.1162  157.0815 H   0  0  0  0  0  0  0  0  0  0  0  0  # atno 8008 bound_to 7997
  154.4155  140.1164  156.5370 H   0  0  0  0  0  0  0  0  0  0  0  0  # atno 8009 bound_to 7997
  155.6600  140.3473  155.4781 H   0  0  0  0  0  0  0  0  0  0  0  0  # atno 8010 bound_to 7997
  140.6528  143.7503  150.7603 H   0  0  0  0  0  0  0  0  0  0  0  0  # atno 10167 bound_to 10162
  156.6475  130.4945  149.6073 H   0  0  0  0  0  0  0  0  0  0  0  0  # atno 10718 bound_to 10713
  154.5107  135.2788  155.1345 H   0  0  0  0  0  0  0  0  0  0  0  0  # atno 10763 bound_to 10752
  154.2941  135.6261  153.5401 H   0  0  0  0  0  0  0  0  0  0  0  0  # atno 10764 bound_to 10752
  152.9918  135.5681  154.5572 H   0  0  0  0  0  0  0  0  0  0  0  0  # atno 10765 bound_to 10752
  140.9407  133.7280  156.1072 H   0  0  0  0  0  0  0  0  0  0  0  0  # atno 11005 bound_to 11000
  144.6751  140.0481  143.7479 LP  0  0  0  0  0  0  0  0  0  0  0  0  # atno 17320 bound_to 7965
  145.9713  139.2872  143.1097 LP  0  0  0  0  0  0  0  0  0  0  0  0  # atno 17321 bound_to 7965
  140.1157  143.4658  152.2343 LP  0  0  0  0  0  0  0  0  0  0  0  0  # atno 17342 bound_to 10162
  139.5745  144.7480  151.3801 LP  0  0  0  0  0  0  0  0  0  0  0  0  # atno 17343 bound_to 10162
  156.2111  130.6679  151.1270 LP  0  0  0  0  0  0  0  0  0  0  0  0  # atno 17370 bound_to 10713
  157.7151  131.0714  150.6355 LP  0  0  0  0  0  0  0  0  0  0  0  0  # atno 17371 bound_to 10713
  140.7738  134.3803  157.5502 LP  0  0  0  0  0  0  0  0  0  0  0  0  # atno 17394 bound_to 11000
  139.8819  134.9038  156.2864 LP  0  0  0  0  0  0  0  0  0  0  0  0  # atno 17395 bound_to 11000

$$$$
