AV-unprocessed.smi:1295|AV-procd|sdf|5410|dock1
  -GOLD-   22720 4563D 1   1.00000     0.00000
 Structure written by MMmdl.
 42 43  0  0  0  0  0  0  0  0  2 V2000
  148.7621  131.9032  153.5460 C   0  0  0  0  0  0  0  0  0  0  0  0
  149.3551  132.9398  154.4760 C   0  0  0  0  0  0  0  0  0  0  0  0
  148.9035  134.1355  154.4479 N   0  0  0  0  0  0  0  0  0  0  0  0
  149.4473  135.1005  155.3123 C   0  0  0  0  0  0  0  0  0  0  0  0
  148.8432  136.4912  155.2172 C   0  0  0  0  0  0  0  0  0  0  0  0
  150.4527  134.7856  156.1789 C   0  0  0  0  0  0  0  0  0  0  0  0
  151.0677  135.7971  157.1456 C   0  0  0  0  0  0  0  0  0  0  0  0
  151.8544  136.9391  156.4991 C   0  0  0  0  0  0  0  0  0  0  0  0
  152.9909  136.7457  156.0679 O   0  0  0  0  0  0  0  0  0  0  0  0
  151.2280  138.1243  156.4361 N   0  0  0  0  0  0  0  0  0  0  0  0
  151.7451  139.3473  155.8197 C   0  0  1  0  0  0  0  0  0  0  0  0
  150.9525  139.6512  154.5325 C   0  0  0  0  0  0  0  0  0  0  0  0
  149.5076  140.0898  154.8297 C   0  0  0  0  0  0  0  0  0  0  0  0
  149.4771  141.2876  155.7909 C   0  0  0  0  0  0  0  0  0  0  0  0
  150.2493  140.9867  157.0855 C   0  0  0  0  0  0  0  0  0  0  0  0
  151.7011  140.5527  156.7940 C   0  0  1  0  0  0  0  0  0  0  0  0
  152.4909  140.3111  158.0916 C   0  0  0  0  0  0  0  0  0  0  0  0
  150.9507  133.3981  156.1738 C   0  0  0  0  0  0  0  0  0  0  0  0
  151.8664  133.0634  156.9244 O   0  0  0  0  0  0  0  0  0  0  0  0
  150.3632  132.5183  155.3133 N   0  5  0  0  0  0  0  0  0  0  0  0
  148.1087  132.3674  152.8061 H   0  0  0  0  0  0  0  0  0  0  0  0
  148.1774  131.1797  154.1145 H   0  0  0  0  0  0  0  0  0  0  0  0
  149.5522  131.3705  153.0159 H   0  0  0  0  0  0  0  0  0  0  0  0
  148.3657  136.7660  156.1578 H   0  0  0  0  0  0  0  0  0  0  0  0
  148.0883  136.5403  154.4315 H   0  0  0  0  0  0  0  0  0  0  0  0
  149.6106  137.2300  154.9868 H   0  0  0  0  0  0  0  0  0  0  0  0
  150.2615  136.2175  157.7480 H   0  0  0  0  0  0  0  0  0  0  0  0
  151.7191  135.3031  157.8668 H   0  0  0  0  0  0  0  0  0  0  0  0
  150.2994  138.1796  156.8282 H   0  0  0  0  0  0  0  0  0  0  0  0
  152.7840  139.1875  155.5261 H   0  0  0  0  0  0  0  0  0  0  0  0
  151.4583  140.4446  153.9807 H   0  0  0  0  0  0  0  0  0  0  0  0
  150.9516  138.7803  153.8757 H   0  0  0  0  0  0  0  0  0  0  0  0
  148.9999  140.3473  153.8999 H   0  0  0  0  0  0  0  0  0  0  0  0
  148.9496  139.2586  155.2626 H   0  0  0  0  0  0  0  0  0  0  0  0
  149.9112  142.1599  155.3009 H   0  0  0  0  0  0  0  0  0  0  0  0
  148.4450  141.5485  156.0265 H   0  0  0  0  0  0  0  0  0  0  0  0
  150.2474  141.8724  157.7216 H   0  0  0  0  0  0  0  0  0  0  0  0
  149.7329  140.2065  157.6464 H   0  0  0  0  0  0  0  0  0  0  0  0
  152.1885  141.3865  156.2864 H   0  0  0  0  0  0  0  0  0  0  0  0
  152.0378  139.5291  158.7011 H   0  0  0  0  0  0  0  0  0  0  0  0
  152.5318  141.2159  158.6985 H   0  0  0  0  0  0  0  0  0  0  0  0
  153.5171  140.0130  157.8755 H   0  0  0  0  0  0  0  0  0  0  0  0
  1  2  1  0  0  0  0
  1 21  1  0  0  0  0
  1 22  1  0  0  0  0
  1 23  1  0  0  0  0
  2 20  1  0  0  0  0
  2  3  2  0  0  0  0
  3  4  1  0  0  0  0
  4  5  1  0  0  0  0
  4  6  2  0  0  0  0
  5 24  1  0  0  0  0
  5 25  1  0  0  0  0
  5 26  1  0  0  0  0
  6  7  1  0  0  0  0
  6 18  1  0  0  0  0
  7  8  1  0  0  0  0
  7 27  1  0  0  0  0
  7 28  1  0  0  0  0
  8  9  2  0  0  0  0
  8 10  1  0  0  0  0
 10 11  1  0  0  0  0
 10 29  1  0  0  0  0
 11 16  1  0  0  0  0
 11 12  1  0  0  0  0
 11 30  1  0  0  0  0
 12 13  1  0  0  0  0
 12 31  1  0  0  0  0
 12 32  1  0  0  0  0
 13 14  1  0  0  0  0
 13 33  1  0  0  0  0
 13 34  1  0  0  0  0
 14 15  1  0  0  0  0
 14 35  1  0  0  0  0
 14 36  1  0  0  0  0
 15 16  1  0  0  0  0
 15 37  1  0  0  0  0
 15 38  1  0  0  0  0
 16 17  1  0  0  0  0
 16 39  1  0  0  0  0
 17 40  1  0  0  0  0
 17 41  1  0  0  0  0
 17 42  1  0  0  0  0
 18 19  2  0  0  0  0
 18 20  1  0  0  0  0
M  CHG  1  20  -1
M  END
> <s_m_source_file>
AV-unprocessed.smi

> <i_m_source_file_index>
1295

> <i_lp_mmshare_version>
43012

> <i_f3d_flags>
0

> <s_epik_input>
W0NIM11jMW5jKFtDSDNdKWMoYyg9TylbbkhdMSlbQ0gyXUMoPU8pW05IXVtDQEBIXTJbQ0gyXVtDSDJdW0NIMl1bQ0gyXVtDQEhdMltDSDNd

> <s_epik_cmdline>
J2VwaWtfcHl0aG9uJywgJy1waCcsICc3LjAnLCAnLXRuJywgJzgnLCAnLW1hJywgJzIwMCcsICctbWV0YWxfYmluZGluZycsICctaW1hZScsICc8aW5maWxlLm1hZT4nLCAnLW9tYWUnLCAnPG91dGZpbGUubWFlPic=

> <r_lp_tautomer_probability>
0.839158

> <r_epik_Ionization_Penalty>
6.67742

> <r_epik_Ionization_Penalty_Charging>
7.78154e-08

> <r_epik_Ionization_Penalty_Neutral>
6.67742

> <r_epik_State_Penalty>
4.51991

> <r_epik_Charging_Adjusted_Penalty>
4.51991

> <i_epik_Tot_Q>
-1

> <i_epik_Tot_abs_Q>
1

> <r_epik_Metal_State_Penalty>
0.853272

> <b_epik_Metal_Only>
1

> <s_lp_Force_Field>
OPLS_2005

> <r_lp_Energy>
15.7399

> <b_lp_Chiralities_Consistent>
1

> <s_lp_Variant>
AV-unprocessed.smi:1295-10

> <Gold.Version>
5.8.1

> <Gold.Id.Protein>
6NUR|6NUR_protein|mol2

> <Gold.PLP.Fitness>
31.9453

> <Gold.PLP.PLP>
-27.2028

> <Gold.PLP.part.hbond>
-2.0000

> <Gold.PLP.part.metal>
0.0000

> <Gold.PLP.part.buried>
-0.7286

> <Gold.PLP.part.nonpolar>
-25.2074

> <Gold.PLP.part.repulsive>
0.1598

> <Gold.PLP.ligand.clash>
0.0000

> <Gold.PLP.ligand.torsion>
0.3446

> <Gold.PLP.Chemscore.Hbond>
1.8080

> <Gold.PLP.Chemscore.CHOScore>
0.0000

> <Gold.PLP.Chemscore.Metal>
0.0000

> <Gold.Chemscore.Hbonds>
donor molecule, donor type, donor heavy atom, donor atom, acceptor molecule, acceptor atom, score
      P1  H  6896  6909       L1    19  0.14
      P1  H 10752 10763       L1     9  0.77

> <Gold.PLP.Chemscore.Internal.Correction>
0.0078

> <Gold.Rescore>
     Score         DG    S(hbond)    S(metal)    S(lipo)     H(rot)  DE(clash)    DE(int)     intcor
     15.10     -15.70       1.95        0.00      63.32       1.45       0.40       0.20       ----

> <Gold.Chemscore.Fitness>
15.1029

> <Gold.Chemscore.DG>
-15.7013

> <Gold.Chemscore.ZeroCoef>
-5.4800

> <Gold.Chemscore.Hbond>
1.9497

> <Gold.Chemscore.Metal>
0.0000

> <Gold.Chemscore.Lipo>
63.3210

> <Gold.Chemscore.Internal_Hbond>
0.0000

> <Gold.Chemscore.DEClash>
0.3999

> <Gold.Chemscore.DEInternal>
0.1985

> <Gold.Chemscore.Rot>
1.4450

> <Gold.Chemscore.Internal.Correction>
   9.000000E+99

> <Gold.Chemscore.Hbonds>
donor molecule, donor type, donor heavy atom, donor atom, acceptor molecule, acceptor atom, score
      P1  H  6896  6909       L1    19  0.13
      P1  H 10752 10763       L1     9  0.73

> <Gold.Chemscore.Hbond.Weighted>
-6.5119

> <Gold.Chemscore.Metal.Weighted>
-0.0000

> <Gold.Chemscore.Lipo.Weighted>
-7.4086

> <Gold.Chemscore.Internal_Hbond.Weighted>
0.0000

> <Gold.Chemscore.DEClash.Weighted>
0.3999

> <Gold.Chemscore.DEInternal.Weighted>
0.1985

> <Gold.Chemscore.Rot.Weighted>
3.6992

> <Gold.Chemscore.Internal.Correction.Weighted>
   9.000000E+99

> <Gold.Protein.RotatedTorsions>
[ 6907 6896 6895 6894 ] final  -42.90 input  -60.11 | X-H torsion
[ 7974 7965 7964 7962 ] final  141.49 input  175.53 | X-H torsion
[ 8008 7997 7996 7995 ] final   30.62 input   59.86 | X-H torsion
[ 10167 10162 10161 10158 ] final   65.16 input  -65.29 | X-H torsion
[ 10718 10713 10712 10709 ] final  135.56 input   66.30 | X-H torsion
[ 10763 10752 10751 10750 ] final   99.51 input  -60.55 | X-H torsion
[ 11005 11000 10999 10996 ] final   37.49 input  -57.11 | X-H torsion

> <Gold.Protein.ActiveResidues>
 VAL166  LYS551  ARG553  GLY616  TRP617  ASP618  TYR619  PRO620  LYS621  CYS622 
 ASP623  PHE694  ASN695  SER759  ASP760  ASP761  ALA762  ILE779  LEU786  VAL792 
 PHE793  MET794  SER795  GLU796  ALA797  LYS798  CYS799  TRP800  GLU811  SER814 

> <Gold.Protein.RotatedAtoms>
  150.9500  134.8901  159.7665 H   0  0  0  0  0  0  0  0  0  0  0  0  # atno 6907 bound_to 6896
  152.5115  134.3820  159.9364 H   0  0  0  0  0  0  0  0  0  0  0  0  # atno 6908 bound_to 6896
  151.3837  133.3772  159.2748 H   0  0  0  0  0  0  0  0  0  0  0  0  # atno 6909 bound_to 6896
  144.9092  139.5317  143.5717 H   0  0  0  0  0  0  0  0  0  0  0  0  # atno 7974 bound_to 7965
  155.0934  140.3222  155.4567 H   0  0  0  0  0  0  0  0  0  0  0  0  # atno 8008 bound_to 7997
  156.2736  140.2074  156.6007 H   0  0  0  0  0  0  0  0  0  0  0  0  # atno 8009 bound_to 7997
  154.6886  140.0519  157.0327 H   0  0  0  0  0  0  0  0  0  0  0  0  # atno 8010 bound_to 7997
  140.1143  144.4790  150.6959 H   0  0  0  0  0  0  0  0  0  0  0  0  # atno 10167 bound_to 10162
  157.4558  131.1069  150.9979 H   0  0  0  0  0  0  0  0  0  0  0  0  # atno 10718 bound_to 10713
  153.3023  135.4111  155.1263 H   0  0  0  0  0  0  0  0  0  0  0  0  # atno 10763 bound_to 10752
  154.8553  135.3544  154.5835 H   0  0  0  0  0  0  0  0  0  0  0  0  # atno 10764 bound_to 10752
  153.6261  135.7062  153.5351 H   0  0  0  0  0  0  0  0  0  0  0  0  # atno 10765 bound_to 10752
  140.2220  134.3629  155.8001 H   0  0  0  0  0  0  0  0  0  0  0  0  # atno 11005 bound_to 11000
  146.3149  139.7884  142.8991 LP  0  0  0  0  0  0  0  0  0  0  0  0  # atno 17320 bound_to 7965
  145.3484  141.0302  143.3352 LP  0  0  0  0  0  0  0  0  0  0  0  0  # atno 17321 bound_to 7965
  140.6908  143.2375  151.5136 LP  0  0  0  0  0  0  0  0  0  0  0  0  # atno 17342 bound_to 10162
  139.5603  144.2174  152.1679 LP  0  0  0  0  0  0  0  0  0  0  0  0  # atno 17343 bound_to 10162
  157.0793  130.5896  149.5417 LP  0  0  0  0  0  0  0  0  0  0  0  0  # atno 17370 bound_to 10713
  156.0007  130.5085  150.7651 LP  0  0  0  0  0  0  0  0  0  0  0  0  # atno 17371 bound_to 10713
  141.2222  133.7199  156.8591 LP  0  0  0  0  0  0  0  0  0  0  0  0  # atno 17394 bound_to 11000
  140.1840  134.9013  157.2982 LP  0  0  0  0  0  0  0  0  0  0  0  0  # atno 17395 bound_to 11000

$$$$
