AV-unprocessed.smi:1291|AV-procd|sdf|5393|dock6
  -GOLD-   22720 4543D 1   1.00000     0.00000
 Structure written by MMmdl.
 44 46  0  0  0  0  0  0  0  0  2 V2000
  148.0430  142.6361  153.8438 O   0  0  0  0  0  0  0  0  0  0  0  0
  146.8319  141.9686  154.1304 C   0  0  0  0  0  0  0  0  0  0  0  0
  146.9639  140.4783  154.1347 C   0  0  0  0  0  0  0  0  0  0  0  0
  146.2354  139.5982  153.3897 N   0  3  0  0  0  0  0  0  0  0  0  0
  146.6495  138.2933  153.6576 C   0  0  0  0  0  0  0  0  0  0  0  0
  146.2118  137.0756  153.1454 C   0  0  0  0  0  0  0  0  0  0  0  0
  146.8574  135.9179  153.6268 C   0  0  0  0  0  0  0  0  0  0  0  0
  147.8926  135.9979  154.5807 C   0  0  0  0  0  0  0  0  0  0  0  0
  148.3237  137.2378  155.0964 C   0  0  0  0  0  0  0  0  0  0  0  0
  147.6809  138.3787  154.6152 C   0  0  0  0  0  0  0  0  0  0  0  0
  147.8368  139.7447  154.8835 N   0  0  0  0  0  0  0  0  0  0  0  0
  148.8448  140.1866  155.8612 C   0  0  0  0  0  0  0  0  0  0  0  0
  150.0673  140.8587  155.2045 C   0  0  2  0  0  0  0  0  0  0  0  0
  150.3535  140.2162  153.9780 O   0  0  0  0  0  0  0  0  0  0  0  0
  151.3143  140.7695  156.0971 C   0  0  0  0  0  0  0  0  0  0  0  0
  151.0260  141.3653  157.3508 O   0  0  0  0  0  0  0  0  0  0  0  0
  152.1778  141.5251  158.1618 C   0  0  0  0  0  0  0  0  0  0  0  0
  151.9842  142.6279  159.1841 C   0  0  0  0  0  0  0  0  0  0  0  0
  152.2758  142.3942  160.5447 C   0  0  0  0  0  0  0  0  0  0  0  0
  152.0957  143.4195  161.4937 C   0  0  0  0  0  0  0  0  0  0  0  0
  151.6248  144.6825  161.0858 C   0  0  0  0  0  0  0  0  0  0  0  0
  151.3352  144.9202  159.7283 C   0  0  0  0  0  0  0  0  0  0  0  0
  151.5142  143.8957  158.7780 C   0  0  0  0  0  0  0  0  0  0  0  0
  151.2314  144.1334  157.4745 F   0  0  0  0  0  0  0  0  0  0  0  0
  148.0536  143.4556  154.3151 H   0  0  0  0  0  0  0  0  0  0  0  0
  146.4710  142.2985  155.1048 H   0  0  0  0  0  0  0  0  0  0  0  0
  146.0849  142.2599  153.3919 H   0  0  0  0  0  0  0  0  0  0  0  0
  145.4205  137.0125  152.4131 H   0  0  0  0  0  0  0  0  0  0  0  0
  146.5545  134.9497  153.2552 H   0  0  0  0  0  0  0  0  0  0  0  0
  148.3682  135.0902  154.9233 H   0  0  0  0  0  0  0  0  0  0  0  0
  149.1226  137.2865  155.8214 H   0  0  0  0  0  0  0  0  0  0  0  0
  148.3521  140.8906  156.5329 H   0  0  0  0  0  0  0  0  0  0  0  0
  149.1430  139.3408  156.4811 H   0  0  0  0  0  0  0  0  0  0  0  0
  149.8336  141.9056  155.0071 H   0  0  0  0  0  0  0  0  0  0  0  0
  150.4114  139.2859  154.1364 H   0  0  0  0  0  0  0  0  0  0  0  0
  151.5715  139.7226  156.2671 H   0  0  0  0  0  0  0  0  0  0  0  0
  152.1750  141.2408  155.6188 H   0  0  0  0  0  0  0  0  0  0  0  0
  152.4076  140.5866  158.6683 H   0  0  0  0  0  0  0  0  0  0  0  0
  153.0405  141.7741  157.5417 H   0  0  0  0  0  0  0  0  0  0  0  0
  152.6358  141.4279  160.8663 H   0  0  0  0  0  0  0  0  0  0  0  0
  152.3184  143.2365  162.5347 H   0  0  0  0  0  0  0  0  0  0  0  0
  151.4856  145.4685  161.8134 H   0  0  0  0  0  0  0  0  0  0  0  0
  150.9748  145.8892  159.4157 H   0  0  0  0  0  0  0  0  0  0  0  0
  145.5097  139.8789  152.7427 H   0  0  0  0  0  0  0  0  0  0  0  0
  1  2  1  0  0  0  0
  1 25  1  0  0  0  0
  2  3  1  0  0  0  0
  2 26  1  0  0  0  0
  2 27  1  0  0  0  0
  3 11  1  0  0  0  0
  3  4  2  0  0  0  0
  4  5  1  0  0  0  0
  4 44  1  0  0  0  0
  5 10  2  0  0  0  0
  5  6  1  0  0  0  0
  6  7  2  0  0  0  0
  6 28  1  0  0  0  0
  7  8  1  0  0  0  0
  7 29  1  0  0  0  0
  8  9  2  0  0  0  0
  8 30  1  0  0  0  0
  9 10  1  0  0  0  0
  9 31  1  0  0  0  0
 10 11  1  0  0  0  0
 11 12  1  0  0  0  0
 12 13  1  0  0  0  0
 12 32  1  0  0  0  0
 12 33  1  0  0  0  0
 13 14  1  0  0  0  0
 13 15  1  0  0  0  0
 13 34  1  0  0  0  0
 14 35  1  0  0  0  0
 15 16  1  0  0  0  0
 15 36  1  0  0  0  0
 15 37  1  0  0  0  0
 16 17  1  0  0  0  0
 17 18  1  0  0  0  0
 17 38  1  0  0  0  0
 17 39  1  0  0  0  0
 18 23  1  0  0  0  0
 18 19  2  0  0  0  0
 19 20  1  0  0  0  0
 19 40  1  0  0  0  0
 20 21  2  0  0  0  0
 20 41  1  0  0  0  0
 21 22  1  0  0  0  0
 21 42  1  0  0  0  0
 22 23  2  0  0  0  0
 22 43  1  0  0  0  0
 23 24  1  0  0  0  0
M  CHG  1   4   1
M  END
> <s_m_source_file>
AV-unprocessed.smi

> <i_m_source_file_index>
1291

> <i_lp_mmshare_version>
43012

> <i_f3d_flags>
0

> <s_epik_input>
W2NIXTFbY0hdW2NIXVtjSF1jKGMxMiluKGMobjIpW0NIMl1bT0hdKVtDSDJdW0NASF0oW09IXSlbQ0gyXU9bQ0gyXWMzW2NIXVtjSF1bY0hdW2NIXWMzRg==

> <s_epik_cmdline>
J2VwaWtfcHl0aG9uJywgJy1waCcsICc3LjAnLCAnLXRuJywgJzgnLCAnLW1hJywgJzIwMCcsICctbWV0YWxfYmluZGluZycsICctaW1hZScsICc8aW5maWxlLm1hZT4nLCAnLW9tYWUnLCAnPG91dGZpbGUubWFlPic=

> <r_epik_Ionization_Penalty>
1.34314

> <r_epik_Ionization_Penalty_Charging>
1.34228

> <r_epik_Ionization_Penalty_Neutral>
0.000856861

> <r_epik_State_Penalty>
1.41963

> <r_epik_Charging_Adjusted_Penalty>
2.76191

> <i_epik_Tot_Q>
1

> <i_epik_Tot_abs_Q>
1

> <r_epik_Metal_State_Penalty>
5.45585

> <b_epik_Metal_Only>
0

> <s_lp_Force_Field>
OPLS_2005

> <r_lp_Energy>
17.9638

> <b_lp_Chiralities_Consistent>
1

> <s_lp_Variant>
AV-unprocessed.smi:1291-3

> <Gold.Version>
5.8.1

> <Gold.Id.Protein>
6NUR|6NUR_protein|mol2

> <Gold.PLP.Fitness>
59.1950

> <Gold.PLP.PLP>
-48.5063

> <Gold.PLP.part.hbond>
-5.7305

> <Gold.PLP.part.metal>
0.0000

> <Gold.PLP.part.buried>
-4.9216

> <Gold.PLP.part.nonpolar>
-37.3516

> <Gold.PLP.part.repulsive>
0.0224

> <Gold.PLP.ligand.clash>
0.0000

> <Gold.PLP.ligand.torsion>
0.6689

> <Gold.PLP.Chemscore.Hbond>
3.9600

> <Gold.PLP.Chemscore.CHOScore>
0.0000

> <Gold.PLP.Chemscore.Metal>
0.0000

> <Gold.Chemscore.Hbonds>
donor molecule, donor type, donor heavy atom, donor atom, acceptor molecule, acceptor atom, score
      L1  H     1    25       P1  8028  1.00
      L1  H     4    44       P1 10175  1.95
      P1  H  7989  7998       L1    14  0.87
      P1  H  8011  8017       L1     1  0.03

> <Gold.PLP.Chemscore.Internal.Correction>
0.1465

> <Gold.Rescore>
     Score         DG    S(hbond)    S(metal)    S(lipo)     H(rot)  DE(clash)    DE(int)     intcor
     17.36     -18.38       2.64        0.00     110.22       3.44       0.05       0.98       ----

> <Gold.Chemscore.Fitness>
17.3582

> <Gold.Chemscore.DG>
-18.3848

> <Gold.Chemscore.ZeroCoef>
-5.4800

> <Gold.Chemscore.Hbond>
2.6357

> <Gold.Chemscore.Metal>
0.0000

> <Gold.Chemscore.Lipo>
110.2217

> <Gold.Chemscore.Internal_Hbond>
0.0000

> <Gold.Chemscore.DEClash>
0.0507

> <Gold.Chemscore.DEInternal>
0.9759

> <Gold.Chemscore.Rot>
3.4353

> <Gold.Chemscore.Internal.Correction>
   9.000000E+99

> <Gold.Chemscore.Hbonds>
donor molecule, donor type, donor heavy atom, donor atom, acceptor molecule, acceptor atom, score
      L1  H     1    25       P1  8028  0.84
      L1  H     4    44       P1 10175  0.92
      P1  H  7989  7998       L1    14  0.37
      P1  H  8011  8017       L1     1  0.03

> <Gold.Chemscore.Hbond.Weighted>
-8.8032

> <Gold.Chemscore.Metal.Weighted>
-0.0000

> <Gold.Chemscore.Lipo.Weighted>
-12.8959

> <Gold.Chemscore.Internal_Hbond.Weighted>
0.0000

> <Gold.Chemscore.DEClash.Weighted>
0.0507

> <Gold.Chemscore.DEInternal.Weighted>
0.9759

> <Gold.Chemscore.Rot.Weighted>
8.7944

> <Gold.Chemscore.Internal.Correction.Weighted>
   9.000000E+99

> <Gold.Protein.RotatedTorsions>
[ 6907 6896 6895 6894 ] final  -59.87 input  -60.11 | X-H torsion
[ 7974 7965 7964 7962 ] final -139.18 input  175.53 | X-H torsion
[ 8008 7997 7996 7995 ] final   38.62 input   59.86 | X-H torsion
[ 10167 10162 10161 10158 ] final  -83.20 input  -65.29 | X-H torsion
[ 10718 10713 10712 10709 ] final -148.25 input   66.30 | X-H torsion
[ 10763 10752 10751 10750 ] final  -12.61 input  -60.55 | X-H torsion
[ 11005 11000 10999 10996 ] final   18.31 input  -57.11 | X-H torsion

> <Gold.Protein.ActiveResidues>
 VAL166  LYS551  ARG553  GLY616  TRP617  ASP618  TYR619  PRO620  LYS621  CYS622 
 ASP623  PHE694  ASN695  SER759  ASP760  ASP761  ALA762  ILE779  LEU786  VAL792 
 PHE793  MET794  SER795  GLU796  ALA797  LYS798  CYS799  TRP800  GLU811  SER814 

> <Gold.Protein.RotatedAtoms>
  150.7898  134.6912  159.6497 H   0  0  0  0  0  0  0  0  0  0  0  0  # atno 6907 bound_to 6896
  152.4001  134.6296  160.0082 H   0  0  0  0  0  0  0  0  0  0  0  0  # atno 6908 bound_to 6896
  151.6570  133.3281  159.3201 H   0  0  0  0  0  0  0  0  0  0  0  0  # atno 6909 bound_to 6896
  144.8697  140.6348  143.5274 H   0  0  0  0  0  0  0  0  0  0  0  0  # atno 7974 bound_to 7965
  155.2232  140.3332  155.4313 H   0  0  0  0  0  0  0  0  0  0  0  0  # atno 8008 bound_to 7997
  156.2325  140.1857  156.7253 H   0  0  0  0  0  0  0  0  0  0  0  0  # atno 8009 bound_to 7997
  154.6002  140.0624  156.9343 H   0  0  0  0  0  0  0  0  0  0  0  0  # atno 8010 bound_to 7997
  140.4249  143.2570  151.8840 H   0  0  0  0  0  0  0  0  0  0  0  0  # atno 10167 bound_to 10162
  156.4178  130.8014  151.2235 H   0  0  0  0  0  0  0  0  0  0  0  0  # atno 10718 bound_to 10713
  153.5011  135.7017  153.5831 H   0  0  0  0  0  0  0  0  0  0  0  0  # atno 10763 bound_to 10752
  153.3963  135.3883  155.1957 H   0  0  0  0  0  0  0  0  0  0  0  0  # atno 10764 bound_to 10752
  154.8710  135.3870  154.4481 H   0  0  0  0  0  0  0  0  0  0  0  0  # atno 10765 bound_to 10752
  140.4263  134.1467  155.7677 H   0  0  0  0  0  0  0  0  0  0  0  0  # atno 11005 bound_to 11000
  145.4153  139.1573  143.4103 LP  0  0  0  0  0  0  0  0  0  0  0  0  # atno 17320 bound_to 7965
  146.2922  140.4260  142.8735 LP  0  0  0  0  0  0  0  0  0  0  0  0  # atno 17321 bound_to 7965
  139.4783  144.5398  151.8545 LP  0  0  0  0  0  0  0  0  0  0  0  0  # atno 17342 bound_to 10162
  140.4493  144.1878  150.5896 LP  0  0  0  0  0  0  0  0  0  0  0  0  # atno 17343 bound_to 10162
  157.7508  131.0237  150.3847 LP  0  0  0  0  0  0  0  0  0  0  0  0  # atno 17370 bound_to 10713
  156.4158  130.3943  149.6859 LP  0  0  0  0  0  0  0  0  0  0  0  0  # atno 17371 bound_to 10713
  141.1764  133.8505  157.1407 LP  0  0  0  0  0  0  0  0  0  0  0  0  # atno 17394 bound_to 11000
  140.0165  134.9965  157.0504 LP  0  0  0  0  0  0  0  0  0  0  0  0  # atno 17395 bound_to 11000

$$$$
