AV-unprocessed.smi:2061|AV-procd|sdf|8370|dock5
  -GOLD-   2272011 43D 1   1.00000     0.00000
 Structure written by MMmdl.
 46 47  0  0  0  0  0  0  0  0  2 V2000
  138.1002  137.2969  154.4871 C   0  0  0  0  0  0  0  0  0  0  0  0
  139.5565  137.1666  154.1995 C   0  0  0  0  0  0  0  0  0  0  0  0
  140.4088  137.8539  153.3817 C   0  0  0  0  0  0  0  0  0  0  0  0
  141.6526  137.2032  153.5973 C   0  0  0  0  0  0  0  0  0  0  0  0
  142.8242  137.6278  152.9202 N   0  0  0  0  0  0  0  0  0  0  0  0
  144.0991  137.3468  153.2392 C   0  0  0  0  0  0  0  0  0  0  0  0
  144.4572  136.6413  154.1827 O   0  0  0  0  0  0  0  0  0  0  0  0
  144.9577  137.9403  152.3977 N   0  0  0  0  0  0  0  0  0  0  0  0
  146.4113  137.8422  152.4922 C   0  0  0  0  0  0  0  0  0  0  0  0
  147.0086  138.7375  153.6103 C   0  0  2  0  0  0  0  0  0  0  0  0
  147.1359  140.1976  153.1122 C   0  0  0  0  0  0  0  0  0  0  0  0
  148.2978  138.1516  154.1028 N   0  3  1  0  0  0  0  0  0  0  0  0
  149.3765  139.1250  154.4230 C   0  0  0  0  0  0  0  0  0  0  0  0
  150.6726  138.3992  154.8306 C   0  0  1  0  0  0  0  0  0  0  0  0
  151.7688  139.3809  155.2600 C   0  0  0  0  0  0  0  0  0  0  0  0
  150.4157  137.5275  155.9260 O   0  0  0  0  0  0  0  0  0  0  0  0
  149.4056  136.5514  155.6826 C   0  0  2  0  0  0  0  0  0  0  0  0
  149.8656  135.4576  154.7025 C   0  0  0  0  0  0  0  0  0  0  0  0
  148.0954  137.2434  155.2638 C   0  0  0  0  0  0  0  0  0  0  0  0
  141.5677  136.2091  154.4679 N   0  0  0  0  0  0  0  0  0  0  0  0
  140.2238  136.1805  154.8581 O   0  0  0  0  0  0  0  0  0  0  0  0
  137.6395  138.0395  153.8355 H   0  0  0  0  0  0  0  0  0  0  0  0
  137.9372  137.6050  155.5198 H   0  0  0  0  0  0  0  0  0  0  0  0
  137.5885  136.3471  154.3315 H   0  0  0  0  0  0  0  0  0  0  0  0
  140.1763  138.6874  152.7359 H   0  0  0  0  0  0  0  0  0  0  0  0
  142.6747  138.2168  152.1143 H   0  0  0  0  0  0  0  0  0  0  0  0
  144.5829  138.5020  151.6471 H   0  0  0  0  0  0  0  0  0  0  0  0
  146.6712  136.7927  152.6257 H   0  0  0  0  0  0  0  0  0  0  0  0
  146.8286  138.1323  151.5274 H   0  0  0  0  0  0  0  0  0  0  0  0
  146.3178  138.7582  154.4547 H   0  0  0  0  0  0  0  0  0  0  0  0
  146.1856  140.5804  152.7407 H   0  0  0  0  0  0  0  0  0  0  0  0
  147.8600  140.2818  152.3011 H   0  0  0  0  0  0  0  0  0  0  0  0
  147.4341  140.8770  153.9108 H   0  0  0  0  0  0  0  0  0  0  0  0
  149.6109  139.7433  153.5573 H   0  0  0  0  0  0  0  0  0  0  0  0
  149.0429  139.7897  155.2217 H   0  0  0  0  0  0  0  0  0  0  0  0
  151.0506  137.8243  153.9848 H   0  0  0  0  0  0  0  0  0  0  0  0
  152.0164  140.0726  154.4542 H   0  0  0  0  0  0  0  0  0  0  0  0
  152.6816  138.8509  155.5330 H   0  0  0  0  0  0  0  0  0  0  0  0
  151.4561  139.9703  156.1226 H   0  0  0  0  0  0  0  0  0  0  0  0
  149.2279  136.0600  156.6398 H   0  0  0  0  0  0  0  0  0  0  0  0
  149.1267  134.6581  154.6432 H   0  0  0  0  0  0  0  0  0  0  0  0
  150.8053  135.0127  155.0302 H   0  0  0  0  0  0  0  0  0  0  0  0
  150.0094  135.8387  153.6919 H   0  0  0  0  0  0  0  0  0  0  0  0
  147.7128  137.8262  156.1034 H   0  0  0  0  0  0  0  0  0  0  0  0
  147.3443  136.4842  155.0523 H   0  0  0  0  0  0  0  0  0  0  0  0
  148.6558  137.5875  153.3453 H   0  0  0  0  0  0  0  0  0  0  0  0
  1  2  1  0  0  0  0
  1 22  1  0  0  0  0
  1 23  1  0  0  0  0
  1 24  1  0  0  0  0
  2 21  1  0  0  0  0
  2  3  2  0  0  0  0
  3  4  1  0  0  0  0
  3 25  1  0  0  0  0
  4  5  1  0  0  0  0
  4 20  2  0  0  0  0
  5  6  1  0  0  0  0
  5 26  1  0  0  0  0
  6  7  2  0  0  0  0
  6  8  1  0  0  0  0
  8  9  1  0  0  0  0
  8 27  1  0  0  0  0
  9 10  1  0  0  0  0
  9 28  1  0  0  0  0
  9 29  1  0  0  0  0
 10 11  1  0  0  0  0
 10 12  1  0  0  0  0
 10 30  1  0  0  0  0
 11 31  1  0  0  0  0
 11 32  1  0  0  0  0
 11 33  1  0  0  0  0
 12 19  1  0  0  0  0
 12 13  1  0  0  0  0
 12 46  1  0  0  0  0
 13 14  1  0  0  0  0
 13 34  1  0  0  0  0
 13 35  1  0  0  0  0
 14 15  1  0  0  0  0
 14 16  1  0  0  0  0
 14 36  1  0  0  0  0
 15 37  1  0  0  0  0
 15 38  1  0  0  0  0
 15 39  1  0  0  0  0
 16 17  1  0  0  0  0
 17 18  1  0  0  0  0
 17 19  1  0  0  0  0
 17 40  1  0  0  0  0
 18 41  1  0  0  0  0
 18 42  1  0  0  0  0
 18 43  1  0  0  0  0
 19 44  1  0  0  0  0
 19 45  1  0  0  0  0
 20 21  1  0  0  0  0
M  CHG  1  12   1
M  END
> <s_m_source_file>
AV-unprocessed.smi

> <i_m_source_file_index>
2061

> <i_lp_mmshare_version>
43012

> <i_f3d_flags>
0

> <s_epik_input>
W0NIM11jMVtjSF1jKG5vMSlbTkhdQyg9TylbTkhdW0NIMl1bQ0BIXShbQ0gzXSlOMltDSDJdW0NAQEhdKFtDSDNdKU9bQ0BASF0oW0NIM10pW0NIMl0y

> <s_epik_cmdline>
J2VwaWtfcHl0aG9uJywgJy1waCcsICc3LjAnLCAnLXRuJywgJzgnLCAnLW1hJywgJzIwMCcsICctbWV0YWxfYmluZGluZycsICctaW1hZScsICc8aW5maWxlLm1hZT4nLCAnLW9tYWUnLCAnPG91dGZpbGUubWFlPic=

> <r_epik_Ionization_Penalty>
0.707076

> <r_epik_Ionization_Penalty_Charging>
0.707039

> <r_epik_Ionization_Penalty_Neutral>
3.6548e-05

> <r_epik_State_Penalty>
0.730276

> <r_epik_Charging_Adjusted_Penalty>
1.43732

> <i_epik_Tot_Q>
1

> <i_epik_Tot_abs_Q>
1

> <r_epik_Metal_State_Penalty>
0.743132

> <b_epik_Metal_Only>
0

> <s_lp_Force_Field>
OPLS_2005

> <r_lp_Energy>
19.8294

> <b_lp_Chiralities_Consistent>
1

> <s_lp_Variant>
AV-unprocessed.smi:2061-11

> <Gold.Version>
5.8.1

> <Gold.Id.Protein>
6NUR|6NUR_protein|mol2

> <Gold.PLP.Fitness>
42.1307

> <Gold.PLP.PLP>
-33.0027

> <Gold.PLP.part.hbond>
-5.2036

> <Gold.PLP.part.metal>
0.0000

> <Gold.PLP.part.buried>
-2.1356

> <Gold.PLP.part.nonpolar>
-26.1281

> <Gold.PLP.part.repulsive>
0.2542

> <Gold.PLP.ligand.clash>
0.0000

> <Gold.PLP.ligand.torsion>
1.4589

> <Gold.PLP.Chemscore.Hbond>
4.0000

> <Gold.PLP.Chemscore.CHOScore>
0.0000

> <Gold.PLP.Chemscore.Metal>
0.0000

> <Gold.Chemscore.Hbonds>
donor molecule, donor type, donor heavy atom, donor atom, acceptor molecule, acceptor atom, score
      L1  H     8    27       P1 10171  0.99
      L1  H    12    46       P1  7948  2.00
      P1  H 11000 11005       L1    21  0.98

> <Gold.PLP.Chemscore.Internal.Correction>
0.0458

> <Gold.Rescore>
     Score         DG    S(hbond)    S(metal)    S(lipo)     H(rot)  DE(clash)    DE(int)     intcor
     16.28     -19.58       2.89        0.00      72.75       1.58       0.61       2.70       ----

> <Gold.Chemscore.Fitness>
16.2786

> <Gold.Chemscore.DG>
-19.5820

> <Gold.Chemscore.ZeroCoef>
-5.4800

> <Gold.Chemscore.Hbond>
2.8873

> <Gold.Chemscore.Metal>
0.0000

> <Gold.Chemscore.Lipo>
72.7495

> <Gold.Chemscore.Internal_Hbond>
0.0000

> <Gold.Chemscore.DEClash>
0.6060

> <Gold.Chemscore.DEInternal>
2.6974

> <Gold.Chemscore.Rot>
1.5834

> <Gold.Chemscore.Internal.Correction>
   9.000000E+99

> <Gold.Chemscore.Hbonds>
donor molecule, donor type, donor heavy atom, donor atom, acceptor molecule, acceptor atom, score
      L1  H     5    26       P1 10175  0.02
      L1  H     8    27       P1 10171  0.92
      L1  H    12    46       P1  7948  0.94
      P1  H 11000 11005       L1    21  0.52

> <Gold.Chemscore.Hbond.Weighted>
-9.6437

> <Gold.Chemscore.Metal.Weighted>
-0.0000

> <Gold.Chemscore.Lipo.Weighted>
-8.5117

> <Gold.Chemscore.Internal_Hbond.Weighted>
0.0000

> <Gold.Chemscore.DEClash.Weighted>
0.6060

> <Gold.Chemscore.DEInternal.Weighted>
2.6974

> <Gold.Chemscore.Rot.Weighted>
4.0535

> <Gold.Chemscore.Internal.Correction.Weighted>
   9.000000E+99

> <Gold.Protein.RotatedTorsions>
[ 6907 6896 6895 6894 ] final -125.95 input  -60.11 | X-H torsion
[ 7974 7965 7964 7962 ] final   64.19 input  175.53 | X-H torsion
[ 8008 7997 7996 7995 ] final -113.77 input   59.86 | X-H torsion
[ 10167 10162 10161 10158 ] final   -2.63 input  -65.29 | X-H torsion
[ 10718 10713 10712 10709 ] final -147.19 input   66.30 | X-H torsion
[ 10763 10752 10751 10750 ] final   -4.59 input  -60.55 | X-H torsion
[ 11005 11000 10999 10996 ] final   60.68 input  -57.11 | X-H torsion

> <Gold.Protein.ActiveResidues>
 VAL166  LYS551  ARG553  GLY616  TRP617  ASP618  TYR619  PRO620  LYS621  CYS622 
 ASP623  PHE694  ASN695  SER759  ASP760  ASP761  ALA762  ILE779  LEU786  VAL792 
 PHE793  MET794  SER795  GLU796  ALA797  LYS798  CYS799  TRP800  GLU811  SER814 

> <Gold.Protein.RotatedAtoms>
  150.8919  133.7231  159.2902 H   0  0  0  0  0  0  0  0  0  0  0  0  # atno 6907 bound_to 6896
  151.4778  135.1049  159.9779 H   0  0  0  0  0  0  0  0  0  0  0  0  # atno 6908 bound_to 6896
  152.4825  133.8244  159.7125 H   0  0  0  0  0  0  0  0  0  0  0  0  # atno 6909 bound_to 6896
  145.8530  139.3266  143.0864 H   0  0  0  0  0  0  0  0  0  0  0  0  # atno 7974 bound_to 7965
  155.0260  140.0393  157.2455 H   0  0  0  0  0  0  0  0  0  0  0  0  # atno 8008 bound_to 7997
  154.7338  140.2735  155.6410 H   0  0  0  0  0  0  0  0  0  0  0  0  # atno 8009 bound_to 7997
  156.2848  140.2679  156.2045 H   0  0  0  0  0  0  0  0  0  0  0  0  # atno 8010 bound_to 7997
  140.6858  143.6635  150.8246 H   0  0  0  0  0  0  0  0  0  0  0  0  # atno 10167 bound_to 10162
  156.4044  130.7950  151.2163 H   0  0  0  0  0  0  0  0  0  0  0  0  # atno 10718 bound_to 10713
  153.3869  135.7000  153.6523 H   0  0  0  0  0  0  0  0  0  0  0  0  # atno 10763 bound_to 10752
  153.5112  135.3631  155.2588 H   0  0  0  0  0  0  0  0  0  0  0  0  # atno 10764 bound_to 10752
  154.8698  135.4135  154.3178 H   0  0  0  0  0  0  0  0  0  0  0  0  # atno 10765 bound_to 10752
  140.0215  134.6146  155.9633 H   0  0  0  0  0  0  0  0  0  0  0  0  # atno 11005 bound_to 11000
  145.9335  140.9031  143.0344 LP  0  0  0  0  0  0  0  0  0  0  0  0  # atno 17320 bound_to 7965
  144.6728  140.1451  143.7434 LP  0  0  0  0  0  0  0  0  0  0  0  0  # atno 17321 bound_to 7965
  140.0341  143.5413  152.2747 LP  0  0  0  0  0  0  0  0  0  0  0  0  # atno 17342 bound_to 10162
  139.6216  144.7630  151.2727 LP  0  0  0  0  0  0  0  0  0  0  0  0  # atno 17343 bound_to 10162
  157.7505  131.0277  150.4016 LP  0  0  0  0  0  0  0  0  0  0  0  0  # atno 17370 bound_to 10713
  156.4302  130.3970  149.6766 LP  0  0  0  0  0  0  0  0  0  0  0  0  # atno 17371 bound_to 10713
  141.1776  133.6542  156.4892 LP  0  0  0  0  0  0  0  0  0  0  0  0  # atno 17394 bound_to 11000
  140.4379  134.7042  157.4976 LP  0  0  0  0  0  0  0  0  0  0  0  0  # atno 17395 bound_to 11000

$$$$
