AV-unprocessed.smi:338|AV-procd|sdf|2375|dock2
  -GOLD-   2262022293D 1   1.00000     0.00000
 Structure written by MMmdl.
 41 43  0  0  0  0  0  0  0  0  1 V2000
  143.7719  145.6424  153.9210 C   0  0  0  0  0  0  0  0  0  0  0  0
  144.8367  144.8270  153.1890 C   0  0  0  0  0  0  0  0  0  0  0  0
  145.0592  145.0762  152.0045 O   0  0  0  0  0  0  0  0  0  0  0  0
  145.5522  143.7671  153.9565 C   0  0  0  0  0  0  0  0  0  0  0  0
  145.1476  143.3944  155.2595 C   0  0  0  0  0  0  0  0  0  0  0  0
  145.8412  142.3897  155.9583 C   0  0  0  0  0  0  0  0  0  0  0  0
  146.9438  141.7492  155.3650 C   0  0  0  0  0  0  0  0  0  0  0  0
  147.3681  142.1025  154.0693 C   0  0  0  0  0  0  0  0  0  0  0  0
  148.4576  141.4249  153.5648 O   0  0  0  0  0  0  0  0  0  0  0  0
  148.6919  140.0951  154.0098 C   0  0  0  0  0  0  0  0  0  0  0  0
  149.8125  140.1105  155.0596 C   0  0  1  0  0  0  0  0  0  0  0  0
  150.9920  139.6049  154.4653 O   0  0  0  0  0  0  0  0  0  0  0  0
  150.0749  141.5221  155.6200 C   0  0  0  0  0  0  0  0  0  0  0  0
  150.7005  141.4935  156.9300 N   0  0  0  0  0  0  0  0  0  0  0  0
  150.8493  140.4255  157.7373 C   0  0  0  0  0  0  0  0  0  0  0  0
  151.4578  140.6231  158.9032 N   0  0  0  0  0  0  0  0  0  0  0  0
  151.7414  141.9768  158.8444 C   0  0  0  0  0  0  0  0  0  0  0  0
  152.3875  142.8202  159.7764 C   0  0  0  0  0  0  0  0  0  0  0  0
  152.5674  144.1906  159.4950 C   0  0  0  0  0  0  0  0  0  0  0  0
  152.1053  144.7381  158.2804 C   0  0  0  0  0  0  0  0  0  0  0  0
  151.4591  143.9175  157.3360 C   0  0  0  0  0  0  0  0  0  0  0  0
  151.2812  142.5509  157.6209 C   0  0  0  0  0  0  0  0  0  0  0  0
  146.6630  143.1152  153.3706 C   0  0  0  0  0  0  0  0  0  0  0  0
  142.9785  144.9923  154.2905 H   0  0  0  0  0  0  0  0  0  0  0  0
  143.3254  146.3768  153.2500 H   0  0  0  0  0  0  0  0  0  0  0  0
  144.2119  146.1751  154.7644 H   0  0  0  0  0  0  0  0  0  0  0  0
  144.3057  143.8654  155.7444 H   0  0  0  0  0  0  0  0  0  0  0  0
  145.5262  142.1091  156.9526 H   0  0  0  0  0  0  0  0  0  0  0  0
  147.4697  140.9792  155.9103 H   0  0  0  0  0  0  0  0  0  0  0  0
  147.7784  139.6970  154.4550 H   0  0  0  0  0  0  0  0  0  0  0  0
  148.9711  139.4504  153.1744 H   0  0  0  0  0  0  0  0  0  0  0  0
  149.5429  139.4369  155.8740 H   0  0  0  0  0  0  0  0  0  0  0  0
  150.8069  138.7459  154.1174 H   0  0  0  0  0  0  0  0  0  0  0  0
  150.7123  142.0896  154.9402 H   0  0  0  0  0  0  0  0  0  0  0  0
  149.1395  142.0766  155.7044 H   0  0  0  0  0  0  0  0  0  0  0  0
  150.4875  139.4477  157.4538 H   0  0  0  0  0  0  0  0  0  0  0  0
  152.7462  142.4116  160.7095 H   0  0  0  0  0  0  0  0  0  0  0  0
  153.0633  144.8250  160.2149 H   0  0  0  0  0  0  0  0  0  0  0  0
  152.2482  145.7886  158.0738 H   0  0  0  0  0  0  0  0  0  0  0  0
  151.1043  144.3329  156.4044 H   0  0  0  0  0  0  0  0  0  0  0  0
  146.9665  143.4034  152.3753 H   0  0  0  0  0  0  0  0  0  0  0  0
  1  2  1  0  0  0  0
  1 24  1  0  0  0  0
  1 25  1  0  0  0  0
  1 26  1  0  0  0  0
  2  3  2  0  0  0  0
  2  4  1  0  0  0  0
  4 23  1  0  0  0  0
  4  5  2  0  0  0  0
  5  6  1  0  0  0  0
  5 27  1  0  0  0  0
  6  7  2  0  0  0  0
  6 28  1  0  0  0  0
  7  8  1  0  0  0  0
  7 29  1  0  0  0  0
  8  9  1  0  0  0  0
  8 23  2  0  0  0  0
  9 10  1  0  0  0  0
 10 11  1  0  0  0  0
 10 30  1  0  0  0  0
 10 31  1  0  0  0  0
 11 12  1  0  0  0  0
 11 13  1  0  0  0  0
 11 32  1  0  0  0  0
 12 33  1  0  0  0  0
 13 14  1  0  0  0  0
 13 34  1  0  0  0  0
 13 35  1  0  0  0  0
 14 22  1  0  0  0  0
 14 15  1  0  0  0  0
 15 16  2  0  0  0  0
 15 36  1  0  0  0  0
 16 17  1  0  0  0  0
 17 22  2  0  0  0  0
 17 18  1  0  0  0  0
 18 19  2  0  0  0  0
 18 37  1  0  0  0  0
 19 20  1  0  0  0  0
 19 38  1  0  0  0  0
 20 21  2  0  0  0  0
 20 39  1  0  0  0  0
 21 22  1  0  0  0  0
 21 40  1  0  0  0  0
 23 41  1  0  0  0  0
M  END
> <s_m_source_file>
AV-unprocessed.smi

> <i_m_source_file_index>
338

> <i_lp_mmshare_version>
43012

> <i_f3d_flags>
0

> <s_epik_input>
W0NIM11DKD1PKWMxW2NIXVtjSF1bY0hdYyhbY0hdMSlPW0NIMl1bQ0BIXShbT0hdKVtDSDJdbihbY0hdbjIpYyhjMjMpW2NIXVtjSF1bY0hdW2NIXTM=

> <s_epik_cmdline>
J2VwaWtfcHl0aG9uJywgJy1waCcsICc3LjAnLCAnLXRuJywgJzgnLCAnLW1hJywgJzIwMCcsICctbWV0YWxfYmluZGluZycsICctaW1hZScsICc8aW5maWxlLm1hZT4nLCAnLW9tYWUnLCAnPG91dGZpbGUubWFlPic=

> <r_lp_tautomer_probability>
0.99995

> <r_epik_Ionization_Penalty>
0.0640132

> <r_epik_Ionization_Penalty_Charging>
0

> <r_epik_Ionization_Penalty_Neutral>
0.0640132

> <r_epik_State_Penalty>
0.0557325

> <r_epik_Charging_Adjusted_Penalty>
0.0557325

> <i_epik_Tot_Q>
0

> <i_epik_Tot_abs_Q>
0

> <r_epik_Metal_State_Penalty>
5.8435e-05

> <b_epik_Metal_Only>
0

> <s_lp_Force_Field>
OPLS_2005

> <r_lp_Energy>
20.9332

> <b_lp_Chiralities_Consistent>
1

> <s_lp_Variant>
AV-unprocessed.smi:338-2

> <Gold.Version>
5.8.1

> <Gold.Id.Protein>
6NUR|6NUR_protein|mol2

> <Gold.PLP.Fitness>
55.0046

> <Gold.PLP.PLP>
-53.1738

> <Gold.PLP.part.hbond>
-3.0000

> <Gold.PLP.part.metal>
0.0000

> <Gold.PLP.part.buried>
-4.8693

> <Gold.PLP.part.nonpolar>
-45.9265

> <Gold.PLP.part.repulsive>
1.1134

> <Gold.PLP.ligand.clash>
0.0000

> <Gold.PLP.ligand.torsion>
1.6987

> <Gold.PLP.Chemscore.Hbond>
1.6599

> <Gold.PLP.Chemscore.CHOScore>
0.0000

> <Gold.PLP.Chemscore.Metal>
0.0000

> <Gold.Chemscore.Hbonds>
donor molecule, donor type, donor heavy atom, donor atom, acceptor molecule, acceptor atom, score
      P1  H  7989  7998       L1    12  1.00
      P1  H  8011  8017       L1     9  0.68

> <Gold.PLP.Chemscore.Internal.Correction>
0.2485

> <Gold.Rescore>
     Score         DG    S(hbond)    S(metal)    S(lipo)     H(rot)  DE(clash)    DE(int)     intcor
     15.17     -18.31       1.14        0.00     129.64       2.40       1.44       1.70       ----

> <Gold.Chemscore.Fitness>
15.1713

> <Gold.Chemscore.DG>
-18.3126

> <Gold.Chemscore.ZeroCoef>
-5.4800

> <Gold.Chemscore.Hbond>
1.1408

> <Gold.Chemscore.Metal>
0.0000

> <Gold.Chemscore.Lipo>
129.6382

> <Gold.Chemscore.Internal_Hbond>
0.0000

> <Gold.Chemscore.DEClash>
1.4436

> <Gold.Chemscore.DEInternal>
1.6977

> <Gold.Chemscore.Rot>
2.4005

> <Gold.Chemscore.Internal.Correction>
   9.000000E+99

> <Gold.Chemscore.Hbonds>
donor molecule, donor type, donor heavy atom, donor atom, acceptor molecule, acceptor atom, score
      P1  H  7989  7998       L1    12  0.60
      P1  H  8011  8017       L1     9  0.62

> <Gold.Chemscore.Hbond.Weighted>
-3.8102

> <Gold.Chemscore.Metal.Weighted>
-0.0000

> <Gold.Chemscore.Lipo.Weighted>
-15.1677

> <Gold.Chemscore.Internal_Hbond.Weighted>
0.0000

> <Gold.Chemscore.DEClash.Weighted>
1.4436

> <Gold.Chemscore.DEInternal.Weighted>
1.6977

> <Gold.Chemscore.Rot.Weighted>
6.1453

> <Gold.Chemscore.Internal.Correction.Weighted>
   9.000000E+99

> <Gold.Protein.RotatedTorsions>
[ 6907 6896 6895 6894 ] final  -89.17 input  -60.11 | X-H torsion
[ 7974 7965 7964 7962 ] final  112.45 input  175.53 | X-H torsion
[ 8008 7997 7996 7995 ] final -126.27 input   59.86 | X-H torsion
[ 10167 10162 10161 10158 ] final  -85.27 input  -65.29 | X-H torsion
[ 10718 10713 10712 10709 ] final -168.54 input   66.30 | X-H torsion
[ 10763 10752 10751 10750 ] final  171.64 input  -60.55 | X-H torsion
[ 11005 11000 10999 10996 ] final -125.80 input  -57.11 | X-H torsion

> <Gold.Protein.ActiveResidues>
 VAL166  LYS551  ARG553  GLY616  TRP617  ASP618  TYR619  PRO620  LYS621  CYS622 
 ASP623  PHE694  ASN695  SER759  ASP760  ASP761  ALA762  ILE779  LEU786  VAL792 
 PHE793  MET794  SER795  GLU796  ALA797  LYS798  CYS799  TRP800  GLU811  SER814 

> <Gold.Protein.RotatedAtoms>
  150.6872  134.2628  159.4555 H   0  0  0  0  0  0  0  0  0  0  0  0  # atno 6907 bound_to 6896
  152.0556  134.9624  160.0584 H   0  0  0  0  0  0  0  0  0  0  0  0  # atno 6908 bound_to 6896
  152.1071  133.4246  159.4650 H   0  0  0  0  0  0  0  0  0  0  0  0  # atno 6909 bound_to 6896
  145.2294  139.2826  143.4176 H   0  0  0  0  0  0  0  0  0  0  0  0  # atno 7974 bound_to 7965
  155.2269  140.0424  157.2956 H   0  0  0  0  0  0  0  0  0  0  0  0  # atno 8008 bound_to 7997
  154.5913  140.2427  155.7887 H   0  0  0  0  0  0  0  0  0  0  0  0  # atno 8009 bound_to 7997
  156.2261  140.2954  156.0079 H   0  0  0  0  0  0  0  0  0  0  0  0  # atno 8010 bound_to 7997
  140.4053  143.2645  151.9089 H   0  0  0  0  0  0  0  0  0  0  0  0  # atno 10167 bound_to 10162
  156.6984  130.9187  151.3077 H   0  0  0  0  0  0  0  0  0  0  0  0  # atno 10718 bound_to 10713
  154.4148  135.2757  155.2013 H   0  0  0  0  0  0  0  0  0  0  0  0  # atno 10763 bound_to 10752
  154.3984  135.6050  153.5886 H   0  0  0  0  0  0  0  0  0  0  0  0  # atno 10764 bound_to 10752
  152.9832  135.5920  154.4435 H   0  0  0  0  0  0  0  0  0  0  0  0  # atno 10765 bound_to 10752
  140.9733  134.0775  157.3846 H   0  0  0  0  0  0  0  0  0  0  0  0  # atno 11005 bound_to 11000
  146.3356  140.2625  142.8602 LP  0  0  0  0  0  0  0  0  0  0  0  0  # atno 17320 bound_to 7965
  144.9690  140.8350  143.5467 LP  0  0  0  0  0  0  0  0  0  0  0  0  # atno 17321 bound_to 7965
  139.4783  144.5592  151.8266 LP  0  0  0  0  0  0  0  0  0  0  0  0  # atno 17342 bound_to 10162
  140.4696  144.1606  150.5916 LP  0  0  0  0  0  0  0  0  0  0  0  0  # atno 17343 bound_to 10162
  157.6982  130.9305  150.0708 LP  0  0  0  0  0  0  0  0  0  0  0  0  # atno 17370 bound_to 10713
  156.1747  130.3647  149.9117 LP  0  0  0  0  0  0  0  0  0  0  0  0  # atno 17371 bound_to 10713
  139.8920  135.0122  156.6825 LP  0  0  0  0  0  0  0  0  0  0  0  0  # atno 17394 bound_to 11000
  140.7297  133.9070  155.8202 LP  0  0  0  0  0  0  0  0  0  0  0  0  # atno 17395 bound_to 11000

$$$$
