AV-unprocessed.smi:3056|AV-procd|sdf|11647|dock3
  -GOLD-   2272017 43D 1   1.00000     0.00000
 Structure written by MMmdl.
 48 49  0  0  0  0  0  0  0  0  2 V2000
  144.9776  131.9950  150.4673 C   0  0  0  0  0  0  0  0  0  0  0  0
  144.5176  133.3197  151.0036 C   0  0  0  0  0  0  0  0  0  0  0  0
  144.5787  134.5911  150.3661 C   0  0  0  0  0  0  0  0  0  0  0  0
  144.0801  135.5629  151.1120 N   0  0  0  0  0  0  0  0  0  0  0  0
  143.6954  134.9544  152.2543 N   0  0  0  0  0  0  0  0  0  0  0  0
  143.0645  135.7368  153.3110 C   0  0  2  0  0  0  0  0  0  0  0  0
  141.8052  135.0097  153.8176 C   0  0  0  0  0  0  0  0  0  0  0  0
  142.7810  137.1886  152.8358 C   0  0  1  0  0  0  0  0  0  0  0  0
  142.1018  138.0654  153.9050 C   0  0  0  0  0  0  0  0  0  0  0  0
  143.9924  137.8536  152.2894 N   0  3  0  0  0  0  0  0  0  0  0  0
  145.2796  137.5711  152.9672 C   0  0  0  0  0  0  0  0  0  0  0  0
  146.3877  138.5425  152.5345 C   0  0  0  0  0  0  0  0  0  0  0  0
  146.8694  138.4293  151.4057 O   0  0  0  0  0  0  0  0  0  0  0  0
  146.8041  139.4922  153.4057 N   0  0  0  0  0  0  0  0  0  0  0  0
  147.8915  140.4294  153.1129 C   0  0  0  0  0  0  0  0  0  0  0  0
  149.0478  140.1464  154.0883 C   0  0  0  0  0  0  0  0  0  0  0  0
  148.5834  140.2633  155.4315 O   0  0  0  0  0  0  0  0  0  0  0  0
  147.5049  139.3812  155.7396 C   0  0  1  0  0  0  0  0  0  0  0  0
  147.1192  139.5878  157.2084 C   0  0  0  0  0  0  0  0  0  0  0  0
  146.3310  139.6699  154.7821 C   0  0  0  0  0  0  0  0  0  0  0  0
  143.9424  133.5967  152.2111 C   0  0  0  0  0  0  0  0  0  0  0  0
  145.4298  132.0917  149.4799 H   0  0  0  0  0  0  0  0  0  0  0  0
  144.1518  131.2896  150.3746 H   0  0  0  0  0  0  0  0  0  0  0  0
  145.7225  131.5358  151.1174 H   0  0  0  0  0  0  0  0  0  0  0  0
  144.9646  134.8343  149.3872 H   0  0  0  0  0  0  0  0  0  0  0  0
  143.7581  135.7750  154.1523 H   0  0  0  0  0  0  0  0  0  0  0  0
  141.4015  135.4826  154.7125 H   0  0  0  0  0  0  0  0  0  0  0  0
  142.0315  133.9755  154.0798 H   0  0  0  0  0  0  0  0  0  0  0  0
  141.0172  134.9957  153.0639 H   0  0  0  0  0  0  0  0  0  0  0  0
  142.0933  137.1280  151.9914 H   0  0  0  0  0  0  0  0  0  0  0  0
  141.1059  137.6962  154.1492 H   0  0  0  0  0  0  0  0  0  0  0  0
  141.9832  139.0910  153.5538 H   0  0  0  0  0  0  0  0  0  0  0  0
  142.6772  138.0925  154.8306 H   0  0  0  0  0  0  0  0  0  0  0  0
  144.0891  137.5720  151.3240 H   0  0  0  0  0  0  0  0  0  0  0  0
  145.1460  137.6476  154.0462 H   0  0  0  0  0  0  0  0  0  0  0  0
  145.6026  136.5567  152.7363 H   0  0  0  0  0  0  0  0  0  0  0  0
  148.2501  140.3604  152.0851 H   0  0  0  0  0  0  0  0  0  0  0  0
  147.5328  141.4518  153.2401 H   0  0  0  0  0  0  0  0  0  0  0  0
  149.4615  139.1506  153.9215 H   0  0  0  0  0  0  0  0  0  0  0  0
  149.8573  140.8593  153.9312 H   0  0  0  0  0  0  0  0  0  0  0  0
  147.8405  138.3505  155.6094 H   0  0  0  0  0  0  0  0  0  0  0  0
  146.3025  138.9258  157.4970 H   0  0  0  0  0  0  0  0  0  0  0  0
  146.7999  140.6140  157.3926 H   0  0  0  0  0  0  0  0  0  0  0  0
  147.9630  139.3785  157.8664 H   0  0  0  0  0  0  0  0  0  0  0  0
  145.9847  140.6968  154.9100 H   0  0  0  0  0  0  0  0  0  0  0  0
  145.4817  139.0391  155.0392 H   0  0  0  0  0  0  0  0  0  0  0  0
  143.6889  132.9443  153.0340 H   0  0  0  0  0  0  0  0  0  0  0  0
  143.8458  138.8528  152.3103 H   0  0  0  0  0  0  0  0  0  0  0  0
  1  2  1  0  0  0  0
  1 22  1  0  0  0  0
  1 23  1  0  0  0  0
  1 24  1  0  0  0  0
  2 21  2  0  0  0  0
  2  3  1  0  0  0  0
  3  4  2  0  0  0  0
  3 25  1  0  0  0  0
  4  5  1  0  0  0  0
  5  6  1  0  0  0  0
  5 21  1  0  0  0  0
  6  7  1  0  0  0  0
  6  8  1  0  0  0  0
  6 26  1  0  0  0  0
  7 27  1  0  0  0  0
  7 28  1  0  0  0  0
  7 29  1  0  0  0  0
  8  9  1  0  0  0  0
  8 10  1  0  0  0  0
  8 30  1  0  0  0  0
  9 31  1  0  0  0  0
  9 32  1  0  0  0  0
  9 33  1  0  0  0  0
 10 11  1  0  0  0  0
 10 34  1  0  0  0  0
 10 48  1  0  0  0  0
 11 12  1  0  0  0  0
 11 35  1  0  0  0  0
 11 36  1  0  0  0  0
 12 13  2  0  0  0  0
 12 14  1  0  0  0  0
 14 20  1  0  0  0  0
 14 15  1  0  0  0  0
 15 16  1  0  0  0  0
 15 37  1  0  0  0  0
 15 38  1  0  0  0  0
 16 17  1  0  0  0  0
 16 39  1  0  0  0  0
 16 40  1  0  0  0  0
 17 18  1  0  0  0  0
 18 19  1  0  0  0  0
 18 20  1  0  0  0  0
 18 41  1  0  0  0  0
 19 42  1  0  0  0  0
 19 43  1  0  0  0  0
 19 44  1  0  0  0  0
 20 45  1  0  0  0  0
 20 46  1  0  0  0  0
 21 47  1  0  0  0  0
M  CHG  1  10   1
M  END
> <s_m_source_file>
AV-unprocessed.smi

> <i_m_source_file_index>
3056

> <i_lp_mmshare_version>
43012

> <i_f3d_flags>
0

> <s_epik_input>
W0NIM11jMVtjSF1ubihbY0hdMSlbQ0BIXShbQ0gzXSlbQ0BIXShbQ0gzXSlbTkhdW0NIMl1DKD1PKU4yW0NIMl1bQ0gyXU9bQ0BASF0oW0NIM10pW0NIMl0y

> <s_epik_cmdline>
J2VwaWtfcHl0aG9uJywgJy1waCcsICc3LjAnLCAnLXRuJywgJzgnLCAnLW1hJywgJzIwMCcsICctbWV0YWxfYmluZGluZycsICctaW1hZScsICc8aW5maWxlLm1hZT4nLCAnLW9tYWUnLCAnPG91dGZpbGUubWFlPic=

> <r_lp_tautomer_probability>
1

> <r_epik_Ionization_Penalty>
0.233715

> <r_epik_Ionization_Penalty_Charging>
0.233698

> <r_epik_Ionization_Penalty_Neutral>
1.68157e-05

> <r_epik_State_Penalty>
0.225221

> <r_epik_Charging_Adjusted_Penalty>
0.458919

> <i_epik_Tot_Q>
1

> <i_epik_Tot_abs_Q>
1

> <r_epik_Metal_State_Penalty>
0.225535

> <b_epik_Metal_Only>
0

> <s_lp_Force_Field>
OPLS_2005

> <r_lp_Energy>
27.3139

> <b_lp_Chiralities_Consistent>
1

> <s_lp_Variant>
AV-unprocessed.smi:3056-3

> <Gold.Version>
5.8.1

> <Gold.Id.Protein>
6NUR|6NUR_protein|mol2

> <Gold.PLP.Fitness>
47.0361

> <Gold.PLP.PLP>
-31.5584

> <Gold.PLP.part.hbond>
-3.0000

> <Gold.PLP.part.metal>
0.0000

> <Gold.PLP.part.buried>
-0.6254

> <Gold.PLP.part.nonpolar>
-30.4341

> <Gold.PLP.part.repulsive>
1.4005

> <Gold.PLP.ligand.clash>
0.0000

> <Gold.PLP.ligand.torsion>
0.7486

> <Gold.PLP.Chemscore.Hbond>
3.6145

> <Gold.PLP.Chemscore.CHOScore>
2.0000

> <Gold.PLP.Chemscore.Metal>
0.0000

> <Gold.Chemscore.Hbonds>
donor molecule, donor type, donor heavy atom, donor atom, acceptor molecule, acceptor atom, score
      L1  H    10    34       P1 10171  0.56
      L1  H    10    48       P1 10175  2.00
      P1  H  7954  7966       L1    13  0.91
      L1  C     3    25       P1  7921  1.00
      L1  C    21    47       P1 10957  1.00

> <Gold.PLP.Chemscore.Internal.Correction>
0.1314

> <Gold.Rescore>
     Score         DG    S(hbond)    S(metal)    S(lipo)     H(rot)  DE(clash)    DE(int)     intcor
     14.82     -17.60       2.50        0.00      70.09       1.74       2.27       0.52       ----

> <Gold.Chemscore.Fitness>
14.8163

> <Gold.Chemscore.DG>
-17.6032

> <Gold.Chemscore.ZeroCoef>
-5.4800

> <Gold.Chemscore.Hbond>
2.5047

> <Gold.Chemscore.Metal>
0.0000

> <Gold.Chemscore.Lipo>
70.0873

> <Gold.Chemscore.Internal_Hbond>
0.0000

> <Gold.Chemscore.DEClash>
2.2672

> <Gold.Chemscore.DEInternal>
0.5197

> <Gold.Chemscore.Rot>
1.7354

> <Gold.Chemscore.Internal.Correction>
   9.000000E+99

> <Gold.Chemscore.Hbonds>
donor molecule, donor type, donor heavy atom, donor atom, acceptor molecule, acceptor atom, score
      L1  H    10    34       P1 10171  0.56
      L1  H    10    48       P1 10175  0.99
      P1  H  7954  7966       L1    13  0.87

> <Gold.Chemscore.Hbond.Weighted>
-8.3656

> <Gold.Chemscore.Metal.Weighted>
-0.0000

> <Gold.Chemscore.Lipo.Weighted>
-8.2002

> <Gold.Chemscore.Internal_Hbond.Weighted>
0.0000

> <Gold.Chemscore.DEClash.Weighted>
2.2672

> <Gold.Chemscore.DEInternal.Weighted>
0.5197

> <Gold.Chemscore.Rot.Weighted>
4.4426

> <Gold.Chemscore.Internal.Correction.Weighted>
   9.000000E+99

> <Gold.Protein.RotatedTorsions>
[ 6907 6896 6895 6894 ] final  -87.95 input  -60.11 | X-H torsion
[ 7974 7965 7964 7962 ] final  -20.76 input  175.53 | X-H torsion
[ 8008 7997 7996 7995 ] final   88.61 input   59.86 | X-H torsion
[ 10167 10162 10161 10158 ] final  135.06 input  -65.29 | X-H torsion
[ 10718 10713 10712 10709 ] final   34.20 input   66.30 | X-H torsion
[ 10763 10752 10751 10750 ] final  -77.05 input  -60.55 | X-H torsion
[ 11005 11000 10999 10996 ] final   76.41 input  -57.11 | X-H torsion

> <Gold.Protein.ActiveResidues>
 VAL166  LYS551  ARG553  GLY616  TRP617  ASP618  TYR619  PRO620  LYS621  CYS622 
 ASP623  PHE694  ASN695  SER759  ASP760  ASP761  ALA762  ILE779  LEU786  VAL792 
 PHE793  MET794  SER795  GLU796  ALA797  LYS798  CYS799  TRP800  GLU811  SER814 

> <Gold.Protein.RotatedAtoms>
  150.6867  134.2817  159.4629 H   0  0  0  0  0  0  0  0  0  0  0  0  # atno 6907 bound_to 6896
  152.0730  134.9518  160.0583 H   0  0  0  0  0  0  0  0  0  0  0  0  # atno 6908 bound_to 6896
  152.0901  133.4161  159.4577 H   0  0  0  0  0  0  0  0  0  0  0  0  # atno 6909 bound_to 6896
  146.1770  140.4247  142.8509 H   0  0  0  0  0  0  0  0  0  0  0  0  # atno 7974 bound_to 7965
  155.9899  140.3369  155.6743 H   0  0  0  0  0  0  0  0  0  0  0  0  # atno 8008 bound_to 7997
  155.6435  140.0698  157.2629 H   0  0  0  0  0  0  0  0  0  0  0  0  # atno 8009 bound_to 7997
  154.4216  140.1738  156.1586 H   0  0  0  0  0  0  0  0  0  0  0  0  # atno 8010 bound_to 7997
  139.5232  144.6536  151.5229 H   0  0  0  0  0  0  0  0  0  0  0  0  # atno 10167 bound_to 10162
  157.3073  130.7381  149.6703 H   0  0  0  0  0  0  0  0  0  0  0  0  # atno 10718 bound_to 10713
  154.5079  135.5777  153.6582 H   0  0  0  0  0  0  0  0  0  0  0  0  # atno 10763 bound_to 10752
  152.9891  135.6151  154.2917 H   0  0  0  0  0  0  0  0  0  0  0  0  # atno 10764 bound_to 10752
  154.2830  135.2850  155.2668 H   0  0  0  0  0  0  0  0  0  0  0  0  # atno 10765 bound_to 10752
  139.9299  134.7599  156.1392 H   0  0  0  0  0  0  0  0  0  0  0  0  # atno 11005 bound_to 11000
  144.8253  140.6618  143.6326 LP  0  0  0  0  0  0  0  0  0  0  0  0  # atno 17320 bound_to 7965
  145.4183  139.1568  143.4088 LP  0  0  0  0  0  0  0  0  0  0  0  0  # atno 17321 bound_to 7965
  140.6352  143.8998  150.6641 LP  0  0  0  0  0  0  0  0  0  0  0  0  # atno 17342 bound_to 10162
  140.2315  143.3732  152.1561 LP  0  0  0  0  0  0  0  0  0  0  0  0  # atno 17343 bound_to 10162
  155.9675  130.4262  150.4687 LP  0  0  0  0  0  0  0  0  0  0  0  0  # atno 17370 bound_to 10713
  157.2679  131.0581  151.2279 LP  0  0  0  0  0  0  0  0  0  0  0  0  # atno 17371 bound_to 10713
  141.0882  133.6725  156.2482 LP  0  0  0  0  0  0  0  0  0  0  0  0  # atno 17394 bound_to 11000
  140.6230  134.5342  157.5550 LP  0  0  0  0  0  0  0  0  0  0  0  0  # atno 17395 bound_to 11000

$$$$
