AV-unprocessed.smi:3298|AV-procd|sdf|12643|dock3
  -GOLD-   2272018573D 1   1.00000     0.00000
 Structure written by MMmdl.
 35 36  0  0  0  0  0  0  0  0  1 V2000
  152.4522  139.1736  156.3649 C   0  0  0  0  0  0  0  0  0  0  0  0
  151.2076  139.7175  155.6950 C   0  0  0  0  0  0  0  0  0  0  0  0
  150.4678  138.9265  154.7910 C   0  0  0  0  0  0  0  0  0  0  0  0
  149.3220  139.4800  154.1828 C   0  0  0  0  0  0  0  0  0  0  0  0
  148.5843  138.6558  153.2907 N   0  0  0  0  0  0  0  0  0  0  0  0
  147.2784  138.7150  152.9766 C   0  0  0  0  0  0  0  0  0  0  0  0
  146.4819  139.5592  153.3873 O   0  0  0  0  0  0  0  0  0  0  0  0
  146.9398  137.7331  152.1292 N   0  0  0  0  0  0  0  0  0  0  0  0
  145.5978  137.5093  151.6040 C   0  0  1  0  0  0  0  0  0  0  0  0
  145.6030  136.3623  150.6293 C   0  0  0  0  0  0  0  0  0  0  0  0
  144.7905  135.3727  150.9933 C   0  0  0  0  0  0  0  0  0  0  0  0
  144.0832  135.6518  152.2942 C   0  0  1  0  0  0  0  0  0  0  0  0
  144.3197  134.5610  153.3566 C   0  0  0  0  0  0  0  0  0  0  0  0
  144.3531  133.2685  152.7829 O   0  0  0  0  0  0  0  0  0  0  0  0
  144.5949  137.0581  152.6996 C   0  0  0  0  0  0  0  0  0  0  0  0
  148.9559  140.8027  154.5299 C   0  0  0  0  0  0  0  0  0  0  0  0
  149.7635  141.5071  155.4446 C   0  0  0  0  0  0  0  0  0  0  0  0
  150.8687  140.9845  156.0169 N   0  0  0  0  0  0  0  0  0  0  0  0
  145.2393  138.4031  151.0906 H   0  0  0  0  0  0  0  0  0  0  0  0
  143.0151  135.7070  152.0804 H   0  0  0  0  0  0  0  0  0  0  0  0
  152.5596  138.1027  156.1895 H   0  0  0  0  0  0  0  0  0  0  0  0
  152.4098  139.3374  157.4422 H   0  0  0  0  0  0  0  0  0  0  0  0
  153.3392  139.6740  155.9755 H   0  0  0  0  0  0  0  0  0  0  0  0
  150.7772  137.9164  154.5646 H   0  0  0  0  0  0  0  0  0  0  0  0
  149.1250  137.9572  152.8027 H   0  0  0  0  0  0  0  0  0  0  0  0
  147.6553  137.0825  151.8396 H   0  0  0  0  0  0  0  0  0  0  0  0
  146.2047  136.3727  149.7324 H   0  0  0  0  0  0  0  0  0  0  0  0
  144.6355  134.4592  150.4385 H   0  0  0  0  0  0  0  0  0  0  0  0
  145.2611  134.7396  153.8769 H   0  0  0  0  0  0  0  0  0  0  0  0
  143.5300  134.5888  154.1083 H   0  0  0  0  0  0  0  0  0  0  0  0
  143.9557  132.6610  153.3881 H   0  0  0  0  0  0  0  0  0  0  0  0
  145.0532  137.0462  153.6900 H   0  0  0  0  0  0  0  0  0  0  0  0
  143.7619  137.7600  152.7563 H   0  0  0  0  0  0  0  0  0  0  0  0
  148.0763  141.2817  154.1290 H   0  0  0  0  0  0  0  0  0  0  0  0
  149.5103  142.5175  155.7294 H   0  0  0  0  0  0  0  0  0  0  0  0
  1  2  1  0  0  0  0
  1 21  1  0  0  0  0
  1 22  1  0  0  0  0
  1 23  1  0  0  0  0
  2 18  1  0  0  0  0
  2  3  2  0  0  0  0
  3  4  1  0  0  0  0
  3 24  1  0  0  0  0
  4  5  1  0  0  0  0
  4 16  2  0  0  0  0
  5  6  1  0  0  0  0
  5 25  1  0  0  0  0
  6  7  2  0  0  0  0
  6  8  1  0  0  0  0
  8  9  1  0  0  0  0
  8 26  1  0  0  0  0
  9 19  1  0  0  0  0
  9 15  1  0  0  0  0
  9 10  1  0  0  0  0
 10 11  2  0  0  0  0
 10 27  1  0  0  0  0
 11 12  1  0  0  0  0
 11 28  1  0  0  0  0
 12 20  1  0  0  0  0
 12 13  1  0  0  0  0
 12 15  1  0  0  0  0
 13 14  1  0  0  0  0
 13 29  1  0  0  0  0
 13 30  1  0  0  0  0
 14 31  1  0  0  0  0
 15 32  1  0  0  0  0
 15 33  1  0  0  0  0
 16 17  1  0  0  0  0
 16 34  1  0  0  0  0
 17 18  2  0  0  0  0
 17 35  1  0  0  0  0
M  END
> <s_m_source_file>
AV-unprocessed.smi

> <i_m_source_file_index>
3298

> <i_lp_mmshare_version>
43012

> <i_f3d_flags>
0

> <s_epik_input>
W0NIM11jMVtjSF1jKFtjSF1bY0hdbjEpW05IXUMoPU8pW05IXVtDQEBIXTJbQ0hdPVtDSF1bQ0BASF0oW0NIMl0yKVtDSDJdW09IXQ==

> <s_epik_cmdline>
J2VwaWtfcHl0aG9uJywgJy1waCcsICc3LjAnLCAnLXRuJywgJzgnLCAnLW1hJywgJzIwMCcsICctbWV0YWxfYmluZGluZycsICctaW1hZScsICc8aW5maWxlLm1hZT4nLCAnLW9tYWUnLCAnPG91dGZpbGUubWFlPic=

> <r_epik_Ionization_Penalty>
0.379275

> <r_epik_Ionization_Penalty_Charging>
0

> <r_epik_Ionization_Penalty_Neutral>
0.379275

> <r_epik_State_Penalty>
0.377195

> <r_epik_Charging_Adjusted_Penalty>
0.377195

> <i_epik_Tot_Q>
0

> <i_epik_Tot_abs_Q>
0

> <r_epik_Metal_State_Penalty>
0.22815

> <b_epik_Metal_Only>
0

> <s_lp_Force_Field>
OPLS_2005

> <r_lp_Energy>
21.2721

> <b_lp_Chiralities_Consistent>
1

> <s_lp_Variant>
AV-unprocessed.smi:3298-4

> <Gold.Version>
5.8.1

> <Gold.Id.Protein>
6NUR|6NUR_protein|mol2

> <Gold.PLP.Fitness>
40.7621

> <Gold.PLP.PLP>
-29.9349

> <Gold.PLP.part.hbond>
-4.2223

> <Gold.PLP.part.metal>
0.0000

> <Gold.PLP.part.buried>
4.5353

> <Gold.PLP.part.nonpolar>
-31.7547

> <Gold.PLP.part.repulsive>
0.7830

> <Gold.PLP.ligand.clash>
0.0000

> <Gold.PLP.ligand.torsion>
0.4131

> <Gold.PLP.Chemscore.Hbond>
2.8800

> <Gold.PLP.Chemscore.CHOScore>
1.0000

> <Gold.PLP.Chemscore.Metal>
0.0000

> <Gold.Chemscore.Hbonds>
donor molecule, donor type, donor heavy atom, donor atom, acceptor molecule, acceptor atom, score
      L1  H     5    25       P1  7948  0.86
      L1  H     8    26       P1  7948  0.99
      L1  H    14    31       P1 10957  0.86
      L1  C    17    35       P1  8028  1.00

> <Gold.PLP.Chemscore.Internal.Correction>
0.0134

> <Gold.Rescore>
     Score         DG    S(hbond)    S(metal)    S(lipo)     H(rot)  DE(clash)    DE(int)     intcor
     16.36     -18.52       2.89        0.00      68.01       1.78       0.86       1.31       ----

> <Gold.Chemscore.Fitness>
16.3571

> <Gold.Chemscore.DG>
-18.5213

> <Gold.Chemscore.ZeroCoef>
-5.4800

> <Gold.Chemscore.Hbond>
2.8862

> <Gold.Chemscore.Metal>
0.0000

> <Gold.Chemscore.Lipo>
68.0115

> <Gold.Chemscore.Internal_Hbond>
0.0000

> <Gold.Chemscore.DEClash>
0.8576

> <Gold.Chemscore.DEInternal>
1.3066

> <Gold.Chemscore.Rot>
1.7796

> <Gold.Chemscore.Internal.Correction>
   9.000000E+99

> <Gold.Chemscore.Hbonds>
donor molecule, donor type, donor heavy atom, donor atom, acceptor molecule, acceptor atom, score
      L1  H     5    25       P1  7948  0.84
      L1  H     8    26       P1  7948  0.92
      L1  H    14    31       P1 10957  0.33

> <Gold.Chemscore.Hbond.Weighted>
-9.6398

> <Gold.Chemscore.Metal.Weighted>
-0.0000

> <Gold.Chemscore.Lipo.Weighted>
-7.9574

> <Gold.Chemscore.Internal_Hbond.Weighted>
0.0000

> <Gold.Chemscore.DEClash.Weighted>
0.8576

> <Gold.Chemscore.DEInternal.Weighted>
1.3066

> <Gold.Chemscore.Rot.Weighted>
4.5558

> <Gold.Chemscore.Internal.Correction.Weighted>
   9.000000E+99

> <Gold.Protein.RotatedTorsions>
[ 6907 6896 6895 6894 ] final  -44.85 input  -60.11 | X-H torsion
[ 7974 7965 7964 7962 ] final   31.93 input  175.53 | X-H torsion
[ 8008 7997 7996 7995 ] final  -72.42 input   59.86 | X-H torsion
[ 10167 10162 10161 10158 ] final   98.78 input  -65.29 | X-H torsion
[ 10718 10713 10712 10709 ] final  121.72 input   66.30 | X-H torsion
[ 10763 10752 10751 10750 ] final   42.85 input  -60.55 | X-H torsion
[ 11005 11000 10999 10996 ] final   81.37 input  -57.11 | X-H torsion

> <Gold.Protein.ActiveResidues>
 VAL166  LYS551  ARG553  GLY616  TRP617  ASP618  TYR619  PRO620  LYS621  CYS622 
 ASP623  PHE694  ASN695  SER759  ASP760  ASP761  ALA762  ILE779  LEU786  VAL792 
 PHE793  MET794  SER795  GLU796  ALA797  LYS798  CYS799  TRP800  GLU811  SER814 

> <Gold.Protein.RotatedAtoms>
  150.9284  134.8700  159.7534 H   0  0  0  0  0  0  0  0  0  0  0  0  # atno 6907 bound_to 6896
  152.5026  134.4116  159.9460 H   0  0  0  0  0  0  0  0  0  0  0  0  # atno 6908 bound_to 6896
  151.4144  133.3677  159.2783 H   0  0  0  0  0  0  0  0  0  0  0  0  # atno 6909 bound_to 6896
  146.1519  139.6593  142.9093 H   0  0  0  0  0  0  0  0  0  0  0  0  # atno 7974 bound_to 7965
  154.5165  140.0797  156.8090 H   0  0  0  0  0  0  0  0  0  0  0  0  # atno 8008 bound_to 7997
  155.3669  140.3421  155.4224 H   0  0  0  0  0  0  0  0  0  0  0  0  # atno 8009 bound_to 7997
  156.1633  140.1595  156.8562 H   0  0  0  0  0  0  0  0  0  0  0  0  # atno 8010 bound_to 7997
  139.7677  144.6933  151.0200 H   0  0  0  0  0  0  0  0  0  0  0  0  # atno 10167 bound_to 10162
  157.5797  131.1076  150.8211 H   0  0  0  0  0  0  0  0  0  0  0  0  # atno 10718 bound_to 10713
  152.9873  135.6119  154.3017 H   0  0  0  0  0  0  0  0  0  0  0  0  # atno 10763 bound_to 10752
  154.2737  135.2779  155.2729 H   0  0  0  0  0  0  0  0  0  0  0  0  # atno 10764 bound_to 10752
  154.5100  135.5843  153.6654 H   0  0  0  0  0  0  0  0  0  0  0  0  # atno 10765 bound_to 10752
  139.9100  134.7991  156.2032 H   0  0  0  0  0  0  0  0  0  0  0  0  # atno 11005 bound_to 11000
  145.4802  141.0438  143.2650 LP  0  0  0  0  0  0  0  0  0  0  0  0  # atno 17320 bound_to 7965
  144.7915  139.6319  143.7111 LP  0  0  0  0  0  0  0  0  0  0  0  0  # atno 17321 bound_to 7965
  140.7812  143.4624  151.0260 LP  0  0  0  0  0  0  0  0  0  0  0  0  # atno 17342 bound_to 10162
  139.8308  143.7693  152.3179 LP  0  0  0  0  0  0  0  0  0  0  0  0  # atno 17343 bound_to 10162
  156.8661  130.5130  149.5300 LP  0  0  0  0  0  0  0  0  0  0  0  0  # atno 17370 bound_to 10713
  156.0842  130.5845  150.9618 LP  0  0  0  0  0  0  0  0  0  0  0  0  # atno 17371 bound_to 10713
  141.0511  133.6888  156.1774 LP  0  0  0  0  0  0  0  0  0  0  0  0  # atno 17394 bound_to 11000
  140.6808  134.4769  157.5589 LP  0  0  0  0  0  0  0  0  0  0  0  0  # atno 17395 bound_to 11000

$$$$
