AV-unprocessed.smi:8|AV-procd|sdf|48|dock10
  -GOLD-   2262015163D 1   1.00000     0.00000
 Structure written by MMmdl.
 34 35  0  0  0  0  0  0  0  0  3 V2000
  153.2816  142.3539  161.9249 C   0  0  0  0  0  0  0  0  0  0  0  0
  152.9895  143.1603  160.6518 C   0  0  0  0  0  0  0  0  0  0  0  0
  152.7717  142.2797  159.4964 N   0  0  0  0  0  0  0  0  0  0  0  0
  151.5386  142.3767  158.8302 C   0  0  0  0  0  0  0  0  0  0  0  0
  151.2354  141.6240  157.7524 C   0  0  0  0  0  0  0  0  0  0  0  0
  149.8901  141.7170  157.0487 C   0  0  0  0  0  0  0  0  0  0  0  0
  149.9104  141.1449  155.7080 N   0  0  0  0  0  0  0  0  0  0  0  0
  148.6954  140.9208  155.0448 C   0  0  0  0  0  0  0  0  0  0  0  0
  147.6520  141.7473  155.2851 N   0  0  0  0  0  0  0  0  0  0  0  0
  146.4903  141.5456  154.6522 C   0  0  0  0  0  0  0  0  0  0  0  0
  146.3012  140.5507  153.7732 N   0  3  0  0  0  0  0  0  0  0  0  0
  147.3193  139.6997  153.4991 C   0  0  0  0  0  0  0  0  0  0  0  0
  148.5700  139.8537  154.1298 C   0  0  0  0  0  0  0  0  0  0  0  0
  149.7147  138.9028  153.8305 C   0  0  0  0  0  0  0  0  0  0  0  0
  152.2479  140.6640  157.2977 C   0  0  0  0  0  0  0  0  0  0  0  0
  152.0111  139.9384  156.3320 O   0  0  0  0  0  0  0  0  0  0  0  0
  153.4329  140.6155  157.9727 N   0  5  0  0  0  0  0  0  0  0  0  0
  153.7196  141.4021  159.0546 C   0  0  0  0  0  0  0  0  0  0  0  0
  154.8011  141.3464  159.6411 O   0  0  0  0  0  0  0  0  0  0  0  0
  153.4558  143.0177  162.7718 H   0  0  0  0  0  0  0  0  0  0  0  0
  154.1678  141.7307  161.8025 H   0  0  0  0  0  0  0  0  0  0  0  0
  152.4459  141.7020  162.1813 H   0  0  0  0  0  0  0  0  0  0  0  0
  152.1264  143.8084  160.8122 H   0  0  0  0  0  0  0  0  0  0  0  0
  153.8202  143.8389  160.4537 H   0  0  0  0  0  0  0  0  0  0  0  0
  150.8567  143.1039  159.2464 H   0  0  0  0  0  0  0  0  0  0  0  0
  149.1394  141.2064  157.6535 H   0  0  0  0  0  0  0  0  0  0  0  0
  149.5936  142.7649  156.9870 H   0  0  0  0  0  0  0  0  0  0  0  0
  150.6537  140.4875  155.5179 H   0  0  0  0  0  0  0  0  0  0  0  0
  145.6496  142.1980  154.8369 H   0  0  0  0  0  0  0  0  0  0  0  0
  147.0979  138.9221  152.7825 H   0  0  0  0  0  0  0  0  0  0  0  0
  149.4177  138.1420  153.1081 H   0  0  0  0  0  0  0  0  0  0  0  0
  150.0375  138.3976  154.7416 H   0  0  0  0  0  0  0  0  0  0  0  0
  150.5647  139.4475  153.4187 H   0  0  0  0  0  0  0  0  0  0  0  0
  145.4007  140.4278  153.3095 H   0  0  0  0  0  0  0  0  0  0  0  0
  1  2  1  0  0  0  0
  1 20  1  0  0  0  0
  1 21  1  0  0  0  0
  1 22  1  0  0  0  0
  2  3  1  0  0  0  0
  2 23  1  0  0  0  0
  2 24  1  0  0  0  0
  3 18  1  0  0  0  0
  3  4  1  0  0  0  0
  4  5  2  0  0  0  0
  4 25  1  0  0  0  0
  5  6  1  0  0  0  0
  5 15  1  0  0  0  0
  6  7  1  0  0  0  0
  6 26  1  0  0  0  0
  6 27  1  0  0  0  0
  7  8  1  0  0  0  0
  7 28  1  0  0  0  0
  8 13  1  0  0  0  0
  8  9  2  0  0  0  0
  9 10  1  0  0  0  0
 10 11  2  0  0  0  0
 10 29  1  0  0  0  0
 11 12  1  0  0  0  0
 11 34  1  0  0  0  0
 12 13  2  0  0  0  0
 12 30  1  0  0  0  0
 13 14  1  0  0  0  0
 14 31  1  0  0  0  0
 14 32  1  0  0  0  0
 14 33  1  0  0  0  0
 15 16  2  0  0  0  0
 15 17  1  0  0  0  0
 17 18  1  0  0  0  0
 18 19  2  0  0  0  0
M  CHG  1  11   1
M  CHG  1  17  -1
M  END
> <s_m_source_file>
AV-unprocessed.smi

> <i_m_source_file_index>
8

> <i_lp_mmshare_version>
43012

> <i_f3d_flags>
0

> <s_epik_input>
W0NIM11bQ0gyXW4xW2NIXWMoYyg9TylbbkhdYzE9TylbQ0gyXVtOSF1jMm5bY0hdbltjSF1jMltDSDNd

> <s_epik_cmdline>
J2VwaWtfcHl0aG9uJywgJy1waCcsICc3LjAnLCAnLXRuJywgJzgnLCAnLW1hJywgJzIwMCcsICctbWV0YWxfYmluZGluZycsICctaW1hZScsICc8aW5maWxlLm1hZT4nLCAnLW9tYWUnLCAnPG91dGZpbGUubWFlPic=

> <r_lp_tautomer_probability>
0.998874

> <r_epik_Ionization_Penalty>
7.33654

> <r_epik_Ionization_Penalty_Charging>
3.33717

> <r_epik_Ionization_Penalty_Neutral>
3.99937

> <r_epik_State_Penalty>
6.31594

> <r_epik_Charging_Adjusted_Penalty>
9.65311

> <i_epik_Tot_Q>
0

> <i_epik_Tot_abs_Q>
2

> <r_epik_Metal_State_Penalty>
2.94778

> <b_epik_Metal_Only>
1

> <s_lp_Force_Field>
OPLS_2005

> <r_lp_Energy>
21.5879

> <b_lp_Chiralities_Consistent>
1

> <s_lp_Variant>
AV-unprocessed.smi:8-4

> <Gold.Version>
5.8.1

> <Gold.Id.Protein>
6NUR|6NUR_protein|mol2

> <Gold.PLP.Fitness>
47.1036

> <Gold.PLP.PLP>
-36.2936

> <Gold.PLP.part.hbond>
-2.0000

> <Gold.PLP.part.metal>
0.0000

> <Gold.PLP.part.buried>
-4.8440

> <Gold.PLP.part.nonpolar>
-30.5633

> <Gold.PLP.part.repulsive>
1.5436

> <Gold.PLP.ligand.clash>
0.0000

> <Gold.PLP.ligand.torsion>
0.5266

> <Gold.PLP.Chemscore.Hbond>
3.9520

> <Gold.PLP.Chemscore.CHOScore>
0.0000

> <Gold.PLP.Chemscore.Metal>
0.0000

> <Gold.Chemscore.Hbonds>
donor molecule, donor type, donor heavy atom, donor atom, acceptor molecule, acceptor atom, score
      L1  H    11    34       P1 10175  2.00
      P1  H  7997  8010       L1    17  1.31

> <Gold.PLP.Chemscore.Internal.Correction>
0.0072

> <Gold.Rescore>
     Score         DG    S(hbond)    S(metal)    S(lipo)     H(rot)  DE(clash)    DE(int)     intcor
     10.75     -13.08       1.36        0.00      63.90       1.73       0.05       2.27       ----

> <Gold.Chemscore.Fitness>
10.7495

> <Gold.Chemscore.DG>
-13.0751

> <Gold.Chemscore.ZeroCoef>
-5.4800

> <Gold.Chemscore.Hbond>
1.3608

> <Gold.Chemscore.Metal>
0.0000

> <Gold.Chemscore.Lipo>
63.9002

> <Gold.Chemscore.Internal_Hbond>
0.0000

> <Gold.Chemscore.DEClash>
0.0543

> <Gold.Chemscore.DEInternal>
2.2713

> <Gold.Chemscore.Rot>
1.7290

> <Gold.Chemscore.Internal.Correction>
   9.000000E+99

> <Gold.Chemscore.Hbonds>
donor molecule, donor type, donor heavy atom, donor atom, acceptor molecule, acceptor atom, score
      L1  H    11    34       P1 10175  0.98
      P1  H  7997  8010       L1    17  0.48

> <Gold.Chemscore.Hbond.Weighted>
-4.5451

> <Gold.Chemscore.Metal.Weighted>
-0.0000

> <Gold.Chemscore.Lipo.Weighted>
-7.4763

> <Gold.Chemscore.Internal_Hbond.Weighted>
0.0000

> <Gold.Chemscore.DEClash.Weighted>
0.0543

> <Gold.Chemscore.DEInternal.Weighted>
2.2713

> <Gold.Chemscore.Rot.Weighted>
4.4263

> <Gold.Chemscore.Internal.Correction.Weighted>
   9.000000E+99

> <Gold.Protein.RotatedTorsions>
[ 6907 6896 6895 6894 ] final   34.43 input  -60.11 | X-H torsion
[ 7974 7965 7964 7962 ] final  105.66 input  175.53 | X-H torsion
[ 8008 7997 7996 7995 ] final   33.58 input   59.86 | X-H torsion
[ 10167 10162 10161 10158 ] final  137.60 input  -65.29 | X-H torsion
[ 10718 10713 10712 10709 ] final  103.49 input   66.30 | X-H torsion
[ 10763 10752 10751 10750 ] final  -24.23 input  -60.55 | X-H torsion
[ 11005 11000 10999 10996 ] final   75.47 input  -57.11 | X-H torsion

> <Gold.Protein.ActiveResidues>
 VAL166  LYS551  ARG553  GLY616  TRP617  ASP618  TYR619  PRO620  LYS621  CYS622 
 ASP623  PHE694  ASN695  SER759  ASP760  ASP761  ALA762  ILE779  LEU786  VAL792 
 PHE793  MET794  SER795  GLU796  ALA797  LYS798  CYS799  TRP800  GLU811  SER814 

> <Gold.Protein.RotatedAtoms>
  152.1022  134.9333  160.0568 H   0  0  0  0  0  0  0  0  0  0  0  0  # atno 6907 bound_to 6896
  152.0543  133.4028  159.4398 H   0  0  0  0  0  0  0  0  0  0  0  0  # atno 6908 bound_to 6896
  150.6840  134.3193  159.4823 H   0  0  0  0  0  0  0  0  0  0  0  0  # atno 6909 bound_to 6896
  145.3168  139.2524  143.3733 H   0  0  0  0  0  0  0  0  0  0  0  0  # atno 7974 bound_to 7965
  155.1410  140.3266  155.4452 H   0  0  0  0  0  0  0  0  0  0  0  0  # atno 8008 bound_to 7997
  156.2605  140.1993  156.6475 H   0  0  0  0  0  0  0  0  0  0  0  0  # atno 8009 bound_to 7997
  154.6542  140.0555  156.9977 H   0  0  0  0  0  0  0  0  0  0  0  0  # atno 8010 bound_to 7997
  139.5139  144.6401  151.5592 H   0  0  0  0  0  0  0  0  0  0  0  0  # atno 10167 bound_to 10162
  157.6771  131.0780  150.5563 H   0  0  0  0  0  0  0  0  0  0  0  0  # atno 10718 bound_to 10713
  153.6805  135.6967  153.5119 H   0  0  0  0  0  0  0  0  0  0  0  0  # atno 10763 bound_to 10752
  153.2489  135.4281  155.0775 H   0  0  0  0  0  0  0  0  0  0  0  0  # atno 10764 bound_to 10752
  154.8401  135.3526  154.6348 H   0  0  0  0  0  0  0  0  0  0  0  0  # atno 10765 bound_to 10752
  139.9342  134.7520  156.1275 H   0  0  0  0  0  0  0  0  0  0  0  0  # atno 11005 bound_to 11000
  146.3097  140.3717  142.8675 LP  0  0  0  0  0  0  0  0  0  0  0  0  # atno 17320 bound_to 7965
  144.8971  140.7597  143.5890 LP  0  0  0  0  0  0  0  0  0  0  0  0  # atno 17321 bound_to 7965
  140.6164  143.9340  150.6492 LP  0  0  0  0  0  0  0  0  0  0  0  0  # atno 17342 bound_to 10162
  140.2599  143.3531  152.1332 LP  0  0  0  0  0  0  0  0  0  0  0  0  # atno 17343 bound_to 10162
  156.5867  130.4318  149.5954 LP  0  0  0  0  0  0  0  0  0  0  0  0  # atno 17370 bound_to 10713
  156.2617  130.6966  151.1737 LP  0  0  0  0  0  0  0  0  0  0  0  0  # atno 17371 bound_to 10713
  141.0948  133.6700  156.2620 LP  0  0  0  0  0  0  0  0  0  0  0  0  # atno 17394 bound_to 11000
  140.6119  134.5449  157.5535 LP  0  0  0  0  0  0  0  0  0  0  0  0  # atno 17395 bound_to 11000

$$$$
