AV-unprocessed.smi:505|AV-procd|sdf|2748|dock2
  -GOLD-   2262023213D 1   1.00000     0.00000
 Structure written by MMmdl.
 37 38  0  0  0  0  0  0  0  0  1 V2000
  145.9799  143.0666  153.9884 C   0  0  0  0  0  0  0  0  0  0  0  0
  146.0963  142.3835  155.2235 O   0  0  0  0  0  0  0  0  0  0  0  0
  147.1742  141.4616  155.2375 C   0  0  0  0  0  0  0  0  0  0  0  0
  148.4720  142.1793  154.8417 C   0  0  0  0  0  0  0  0  0  0  0  0
  149.6590  141.4304  155.2427 N   0  0  0  0  0  0  0  0  0  0  0  0
  150.6814  141.8461  156.0308 C   0  0  0  0  0  0  0  0  0  0  0  0
  150.6912  143.1340  156.5487 N   0  0  0  0  0  0  0  0  0  0  0  0
  151.6373  143.8281  157.4008 C   0  0  0  0  0  0  0  0  0  0  0  0
  152.0052  142.9963  158.6360 C   0  0  0  0  0  0  0  0  0  0  0  0
  150.8426  142.6893  159.3759 O   0  0  0  0  0  0  0  0  0  0  0  0
  151.6397  140.9394  156.2380 N   0  0  0  0  0  0  0  0  0  0  0  0
  151.1922  139.8493  155.5038 C   0  0  0  0  0  0  0  0  0  0  0  0
  150.0112  140.1278  154.8939 C   0  0  0  0  0  0  0  0  0  0  0  0
  149.3172  139.1613  154.0348 C   0  0  0  0  0  0  0  0  0  0  0  0
  148.2527  139.4010  153.4687 O   0  0  0  0  0  0  0  0  0  0  0  0
  149.9747  137.9811  153.9259 N   0  0  0  0  0  0  0  0  0  0  0  0
  151.1611  137.6333  154.5126 C   0  0  0  0  0  0  0  0  0  0  0  0
  151.6401  136.5167  154.3153 O   0  0  0  0  0  0  0  0  0  0  0  0
  151.7761  138.5646  155.3104 N   0  0  0  0  0  0  0  0  0  0  0  0
  153.0454  138.2438  155.9659 C   0  0  0  0  0  0  0  0  0  0  0  0
  149.5415  137.2797  153.3433 H   0  0  0  0  0  0  0  0  0  0  0  0
  145.1416  143.7618  154.0327 H   0  0  0  0  0  0  0  0  0  0  0  0
  145.7975  142.3704  153.1689 H   0  0  0  0  0  0  0  0  0  0  0  0
  146.8816  143.6395  153.7681 H   0  0  0  0  0  0  0  0  0  0  0  0
  147.2818  141.0293  156.2333 H   0  0  0  0  0  0  0  0  0  0  0  0
  146.9738  140.6417  154.5460 H   0  0  0  0  0  0  0  0  0  0  0  0
  148.4947  142.3429  153.7640 H   0  0  0  0  0  0  0  0  0  0  0  0
  148.5101  143.1719  155.2891 H   0  0  0  0  0  0  0  0  0  0  0  0
  149.9304  143.7182  156.2333 H   0  0  0  0  0  0  0  0  0  0  0  0
  152.5340  144.0112  156.8084 H   0  0  0  0  0  0  0  0  0  0  0  0
  151.2424  144.8040  157.6859 H   0  0  0  0  0  0  0  0  0  0  0  0
  152.5390  142.0845  158.3655 H   0  0  0  0  0  0  0  0  0  0  0  0
  152.6645  143.5748  159.2834 H   0  0  0  0  0  0  0  0  0  0  0  0
  150.7231  141.7519  159.3737 H   0  0  0  0  0  0  0  0  0  0  0  0
  152.9507  137.3378  156.5664 H   0  0  0  0  0  0  0  0  0  0  0  0
  153.3851  139.0372  156.6316 H   0  0  0  0  0  0  0  0  0  0  0  0
  153.8273  138.0813  155.2228 H   0  0  0  0  0  0  0  0  0  0  0  0
  1  2  1  0  0  0  0
  1 22  1  0  0  0  0
  1 23  1  0  0  0  0
  1 24  1  0  0  0  0
  2  3  1  0  0  0  0
  3  4  1  0  0  0  0
  3 25  1  0  0  0  0
  3 26  1  0  0  0  0
  4  5  1  0  0  0  0
  4 27  1  0  0  0  0
  4 28  1  0  0  0  0
  5 13  1  0  0  0  0
  5  6  1  0  0  0  0
  6  7  1  0  0  0  0
  6 11  2  0  0  0  0
  7  8  1  0  0  0  0
  7 29  1  0  0  0  0
  8  9  1  0  0  0  0
  8 30  1  0  0  0  0
  8 31  1  0  0  0  0
  9 10  1  0  0  0  0
  9 32  1  0  0  0  0
  9 33  1  0  0  0  0
 10 34  1  0  0  0  0
 11 12  1  0  0  0  0
 12 19  1  0  0  0  0
 12 13  2  0  0  0  0
 13 14  1  0  0  0  0
 14 15  2  0  0  0  0
 14 16  1  0  0  0  0
 16 21  1  0  0  0  0
 16 17  1  0  0  0  0
 17 18  2  0  0  0  0
 17 19  1  0  0  0  0
 19 20  1  0  0  0  0
 20 35  1  0  0  0  0
 20 36  1  0  0  0  0
 20 37  1  0  0  0  0
M  END
> <s_m_source_file>
AV-unprocessed.smi

> <i_m_source_file_index>
505

> <i_lp_mmshare_version>
43012

> <i_f3d_flags>
0

> <s_epik_input>
W09IXVtDSDJdW0NIMl1bTkhdYyhuMSluKFtDSDJdW0NIMl1PW0NIM10pYyhjMTIpYyg9TylbbkhdYyg9TyluMltDSDNd

> <s_epik_cmdline>
J2VwaWtfcHl0aG9uJywgJy1waCcsICc3LjAnLCAnLXRuJywgJzgnLCAnLW1hJywgJzIwMCcsICctbWV0YWxfYmluZGluZycsICctaW1hZScsICc8aW5maWxlLm1hZT4nLCAnLW9tYWUnLCAnPG91dGZpbGUubWFlPic=

> <r_lp_tautomer_probability>
1

> <r_epik_Ionization_Penalty>
7.89905e-05

> <r_epik_Ionization_Penalty_Charging>
2.6983e-05

> <r_epik_Ionization_Penalty_Neutral>
5.20075e-05

> <r_epik_State_Penalty>
-0

> <r_epik_Charging_Adjusted_Penalty>
2.6983e-05

> <i_epik_Tot_Q>
0

> <i_epik_Tot_abs_Q>
0

> <r_epik_Metal_State_Penalty>
0.02526

> <b_epik_Metal_Only>
0

> <s_lp_Force_Field>
OPLS_2005

> <r_lp_Energy>
22.7063

> <b_lp_Chiralities_Consistent>
1

> <s_lp_Variant>
AV-unprocessed.smi:505-1

> <Gold.Version>
5.8.1

> <Gold.Id.Protein>
6NUR|6NUR_protein|mol2

> <Gold.PLP.Fitness>
44.1144

> <Gold.PLP.PLP>
-35.3858

> <Gold.PLP.part.hbond>
-3.7844

> <Gold.PLP.part.metal>
0.0000

> <Gold.PLP.part.buried>
-2.2425

> <Gold.PLP.part.nonpolar>
-31.6253

> <Gold.PLP.part.repulsive>
2.5663

> <Gold.PLP.ligand.clash>
0.0000

> <Gold.PLP.ligand.torsion>
0.1477

> <Gold.PLP.Chemscore.Hbond>
3.0000

> <Gold.PLP.Chemscore.CHOScore>
0.0000

> <Gold.PLP.Chemscore.Metal>
0.0000

> <Gold.Chemscore.Hbonds>
donor molecule, donor type, donor heavy atom, donor atom, acceptor molecule, acceptor atom, score
      L1  H     7    29       P1  8028  1.00
      L1  H    16    21       P1  7948  1.00
      P1  H 10752 10763       L1    18  1.00

> <Gold.PLP.Chemscore.Internal.Correction>
0.0241

> <Gold.Rescore>
     Score         DG    S(hbond)    S(metal)    S(lipo)     H(rot)  DE(clash)    DE(int)     intcor
     11.28     -12.93       2.71        0.00      53.22       3.06       1.46       0.20       ----

> <Gold.Chemscore.Fitness>
11.2777

> <Gold.Chemscore.DG>
-12.9349

> <Gold.Chemscore.ZeroCoef>
-5.4800

> <Gold.Chemscore.Hbond>
2.7148

> <Gold.Chemscore.Metal>
0.0000

> <Gold.Chemscore.Lipo>
53.2167

> <Gold.Chemscore.Internal_Hbond>
0.0000

> <Gold.Chemscore.DEClash>
1.4607

> <Gold.Chemscore.DEInternal>
0.1964

> <Gold.Chemscore.Rot>
3.0621

> <Gold.Chemscore.Internal.Correction>
   9.000000E+99

> <Gold.Chemscore.Hbonds>
donor molecule, donor type, donor heavy atom, donor atom, acceptor molecule, acceptor atom, score
      L1  H     7    29       P1  8028  0.95
      L1  H    16    21       P1  7948  0.85
      P1  H 10752 10763       L1    18  0.96

> <Gold.Chemscore.Hbond.Weighted>
-9.0675

> <Gold.Chemscore.Metal.Weighted>
-0.0000

> <Gold.Chemscore.Lipo.Weighted>
-6.2264

> <Gold.Chemscore.Internal_Hbond.Weighted>
0.0000

> <Gold.Chemscore.DEClash.Weighted>
1.4607

> <Gold.Chemscore.DEInternal.Weighted>
0.1964

> <Gold.Chemscore.Rot.Weighted>
7.8390

> <Gold.Chemscore.Internal.Correction.Weighted>
   9.000000E+99

> <Gold.Protein.RotatedTorsions>
[ 6907 6896 6895 6894 ] final  -54.51 input  -60.11 | X-H torsion
[ 7974 7965 7964 7962 ] final  -11.29 input  175.53 | X-H torsion
[ 8008 7997 7996 7995 ] final  123.22 input   59.86 | X-H torsion
[ 10167 10162 10161 10158 ] final   83.15 input  -65.29 | X-H torsion
[ 10718 10713 10712 10709 ] final  -91.85 input   66.30 | X-H torsion
[ 10763 10752 10751 10750 ] final   38.03 input  -60.55 | X-H torsion
[ 11005 11000 10999 10996 ] final  -89.18 input  -57.11 | X-H torsion

> <Gold.Protein.ActiveResidues>
 VAL166  LYS551  ARG553  GLY616  TRP617  ASP618  TYR619  PRO620  LYS621  CYS622 
 ASP623  PHE694  ASN695  SER759  ASP760  ASP761  ALA762  ILE779  LEU786  VAL792 
 PHE793  MET794  SER795  GLU796  ALA797  LYS798  CYS799  TRP800  GLU811  SER814 

> <Gold.Protein.RotatedAtoms>
  150.8332  134.7593  159.6870 H   0  0  0  0  0  0  0  0  0  0  0  0  # atno 6907 bound_to 6896
  152.4433  134.5544  159.9886 H   0  0  0  0  0  0  0  0  0  0  0  0  # atno 6908 bound_to 6896
  151.5700  133.3353  159.3023 H   0  0  0  0  0  0  0  0  0  0  0  0  # atno 6909 bound_to 6896
  146.2192  140.2889  142.8367 H   0  0  0  0  0  0  0  0  0  0  0  0  # atno 7974 bound_to 7965
  156.2758  140.2768  156.1593 H   0  0  0  0  0  0  0  0  0  0  0  0  # atno 8008 bound_to 7997
  155.0770  140.0387  157.2645 H   0  0  0  0  0  0  0  0  0  0  0  0  # atno 8009 bound_to 7997
  154.6994  140.2646  155.6740 H   0  0  0  0  0  0  0  0  0  0  0  0  # atno 8010 bound_to 7997
  139.9214  144.6210  150.8436 H   0  0  0  0  0  0  0  0  0  0  0  0  # atno 10167 bound_to 10162
  155.9997  130.4964  150.5537 H   0  0  0  0  0  0  0  0  0  0  0  0  # atno 10718 bound_to 10713
  153.0016  135.6261  154.2239 H   0  0  0  0  0  0  0  0  0  0  0  0  # atno 10763 bound_to 10752
  154.1982  135.2805  155.3001 H   0  0  0  0  0  0  0  0  0  0  0  0  # atno 10764 bound_to 10752
  154.5705  135.5678  153.7150 H   0  0  0  0  0  0  0  0  0  0  0  0  # atno 10765 bound_to 10752
  141.1589  133.7615  156.9558 H   0  0  0  0  0  0  0  0  0  0  0  0  # atno 11005 bound_to 11000
  144.9142  140.7793  143.5789 LP  0  0  0  0  0  0  0  0  0  0  0  0  # atno 17320 bound_to 7965
  145.2821  139.1914  143.4785 LP  0  0  0  0  0  0  0  0  0  0  0  0  # atno 17321 bound_to 7965
  140.7661  143.3294  151.2443 LP  0  0  0  0  0  0  0  0  0  0  0  0  # atno 17342 bound_to 10162
  139.6859  143.9775  152.2833 LP  0  0  0  0  0  0  0  0  0  0  0  0  # atno 17343 bound_to 10162
  157.3456  131.0724  151.1754 LP  0  0  0  0  0  0  0  0  0  0  0  0  # atno 17370 bound_to 10713
  157.2587  130.6649  149.5965 LP  0  0  0  0  0  0  0  0  0  0  0  0  # atno 17371 bound_to 10713
  140.1226  134.9407  157.2225 LP  0  0  0  0  0  0  0  0  0  0  0  0  # atno 17394 bound_to 11000
  140.3053  134.3085  155.7280 LP  0  0  0  0  0  0  0  0  0  0  0  0  # atno 17395 bound_to 11000

$$$$
