AV-unprocessed.smi:1207|AV-procd|sdf|5060|dock9
  -GOLD-   22720 4103D 1   1.00000     0.00000
 Structure written by MMmdl.
 53 55  0  0  0  0  0  0  0  0  3 V2000
  151.7139  144.7163  160.5264 C   0  0  0  0  0  0  0  0  0  0  0  0
  151.5937  143.5766  159.5292 C   0  0  0  0  0  0  0  0  0  0  0  0
  150.8562  143.7929  158.3434 C   0  0  0  0  0  0  0  0  0  0  0  0
  150.7640  142.7316  157.4510 C   0  0  0  0  0  0  0  0  0  0  0  0
  150.1190  142.6301  156.2168 N   0  3  0  0  0  0  0  0  0  0  0  0
  150.3074  141.3820  155.7060 C   0  0  0  0  0  0  0  0  0  0  0  0
  151.0595  140.6822  156.5985 N   0  0  0  0  0  0  0  0  0  0  0  0
  151.5454  139.2964  156.5285 C   0  0  0  0  0  0  0  0  0  0  0  0
  151.9869  138.8751  155.1111 C   0  0  1  0  0  0  0  0  0  0  0  0
  153.4004  138.8910  155.0971 O   0  0  0  0  0  0  0  0  0  0  0  0
  151.4832  137.4727  154.6984 C   0  0  0  0  0  0  0  0  0  0  0  0
  150.0158  137.4043  154.4478 N   0  3  2  0  0  0  0  0  0  0  0  0
  149.4101  138.7279  154.1650 C   0  0  0  0  0  0  0  0  0  0  0  0
  149.2707  136.6927  155.5195 C   0  0  0  0  0  0  0  0  0  0  0  0
  149.9873  135.4513  155.9870 C   0  0  0  0  0  0  0  0  0  0  0  0
  151.0794  135.3625  156.8976 C   0  0  0  0  0  0  0  0  0  0  0  0
  151.7813  136.4743  157.6239 C   0  0  0  0  0  0  0  0  0  0  0  0
  151.4758  134.1139  157.0726 N   0  0  0  0  0  0  0  0  0  0  0  0
  150.6335  133.3296  156.2785 O   0  0  0  0  0  0  0  0  0  0  0  0
  149.7552  134.1471  155.6451 C   0  0  0  0  0  0  0  0  0  0  0  0
  148.7689  133.4900  154.7399 C   0  0  0  0  0  0  0  0  0  0  0  0
  151.3740  141.4868  157.7019 C   0  0  0  0  0  0  0  0  0  0  0  0
  152.1050  141.2582  158.8662 C   0  0  0  0  0  0  0  0  0  0  0  0
  152.2094  142.3248  159.7874 C   0  0  0  0  0  0  0  0  0  0  0  0
  152.9986  142.1018  161.0663 C   0  0  0  0  0  0  0  0  0  0  0  0
  151.2359  145.6234  160.1550 H   0  0  0  0  0  0  0  0  0  0  0  0
  152.7611  144.9487  160.7206 H   0  0  0  0  0  0  0  0  0  0  0  0
  151.2368  144.4499  161.4699 H   0  0  0  0  0  0  0  0  0  0  0  0
  150.3847  144.7436  158.1404 H   0  0  0  0  0  0  0  0  0  0  0  0
  149.9286  141.0146  154.7629 H   0  0  0  0  0  0  0  0  0  0  0  0
  152.3865  139.2158  157.2186 H   0  0  0  0  0  0  0  0  0  0  0  0
  150.7761  138.6280  156.9151 H   0  0  0  0  0  0  0  0  0  0  0  0
  151.6271  139.6286  154.4111 H   0  0  0  0  0  0  0  0  0  0  0  0
  153.6994  139.7871  155.0997 H   0  0  0  0  0  0  0  0  0  0  0  0
  152.0285  137.1844  153.8007 H   0  0  0  0  0  0  0  0  0  0  0  0
  151.7366  136.7344  155.4600 H   0  0  0  0  0  0  0  0  0  0  0  0
  149.5574  139.4117  155.0020 H   0  0  0  0  0  0  0  0  0  0  0  0
  148.3380  138.6337  153.9897 H   0  0  0  0  0  0  0  0  0  0  0  0
  149.8335  139.1821  153.2705 H   0  0  0  0  0  0  0  0  0  0  0  0
  149.0943  137.3834  156.3452 H   0  0  0  0  0  0  0  0  0  0  0  0
  148.2828  136.4219  155.1448 H   0  0  0  0  0  0  0  0  0  0  0  0
  152.1809  137.2074  156.9238 H   0  0  0  0  0  0  0  0  0  0  0  0
  152.6111  136.1039  158.2265 H   0  0  0  0  0  0  0  0  0  0  0  0
  151.0959  136.9948  158.2923 H   0  0  0  0  0  0  0  0  0  0  0  0
  148.0784  134.2187  154.3153 H   0  0  0  0  0  0  0  0  0  0  0  0
  148.1831  132.7469  155.2813 H   0  0  0  0  0  0  0  0  0  0  0  0
  149.2766  132.9867  153.9172 H   0  0  0  0  0  0  0  0  0  0  0  0
  152.5757  140.3078  159.0695 H   0  0  0  0  0  0  0  0  0  0  0  0
  153.3429  141.0703  161.1487 H   0  0  0  0  0  0  0  0  0  0  0  0
  152.3835  142.3160  161.9405 H   0  0  0  0  0  0  0  0  0  0  0  0
  153.8747  142.7502  161.0923 H   0  0  0  0  0  0  0  0  0  0  0  0
  149.8942  136.8488  153.6132 H   0  0  0  0  0  0  0  0  0  0  0  0
  149.5922  143.3593  155.7528 H   0  0  0  0  0  0  0  0  0  0  0  0
  1  2  1  0  0  0  0
  1 26  1  0  0  0  0
  1 27  1  0  0  0  0
  1 28  1  0  0  0  0
  2 24  1  0  0  0  0
  2  3  2  0  0  0  0
  3  4  1  0  0  0  0
  3 29  1  0  0  0  0
  4 22  2  0  0  0  0
  4  5  1  0  0  0  0
  5  6  2  0  0  0  0
  5 53  1  0  0  0  0
  6  7  1  0  0  0  0
  6 30  1  0  0  0  0
  7  8  1  0  0  0  0
  7 22  1  0  0  0  0
  8  9  1  0  0  0  0
  8 31  1  0  0  0  0
  8 32  1  0  0  0  0
  9 10  1  0  0  0  0
  9 11  1  0  0  0  0
  9 33  1  0  0  0  0
 10 34  1  0  0  0  0
 11 12  1  0  0  0  0
 11 35  1  0  0  0  0
 11 36  1  0  0  0  0
 12 13  1  0  0  0  0
 12 14  1  0  0  0  0
 12 52  1  0  0  0  0
 13 37  1  0  0  0  0
 13 38  1  0  0  0  0
 13 39  1  0  0  0  0
 14 15  1  0  0  0  0
 14 40  1  0  0  0  0
 14 41  1  0  0  0  0
 15 20  2  0  0  0  0
 15 16  1  0  0  0  0
 16 17  1  0  0  0  0
 16 18  2  0  0  0  0
 17 42  1  0  0  0  0
 17 43  1  0  0  0  0
 17 44  1  0  0  0  0
 18 19  1  0  0  0  0
 19 20  1  0  0  0  0
 20 21  1  0  0  0  0
 21 45  1  0  0  0  0
 21 46  1  0  0  0  0
 21 47  1  0  0  0  0
 22 23  1  0  0  0  0
 23 24  2  0  0  0  0
 23 48  1  0  0  0  0
 24 25  1  0  0  0  0
 25 49  1  0  0  0  0
 25 50  1  0  0  0  0
 25 51  1  0  0  0  0
M  CHG  1   5   1
M  CHG  1  12   1
M  END
> <s_m_source_file>
AV-unprocessed.smi

> <i_m_source_file_index>
1207

> <i_lp_mmshare_version>
43012

> <i_f3d_flags>
0

> <s_epik_input>
W0NIM11jKFtjSF0xKWMoW0NIM10pW2NIXWMoYzEyKW4oW2NIXW4yKVtDSDJdW0NASF0oW09IXSlbQ0gyXU4oW0NIM10pW0NIMl1jM2MoW0NIM10pbm9jM1tDSDNd

> <s_epik_cmdline>
J2VwaWtfcHl0aG9uJywgJy1waCcsICc3LjAnLCAnLXRuJywgJzgnLCAnLW1hJywgJzIwMCcsICctbWV0YWxfYmluZGluZycsICctaW1hZScsICc8aW5maWxlLm1hZT4nLCAnLW9tYWUnLCAnPG91dGZpbGUubWFlPic=

> <r_epik_Ionization_Penalty>
1.77463

> <r_epik_Ionization_Penalty_Charging>
1.77463

> <r_epik_Ionization_Penalty_Neutral>
3.70885e-06

> <r_epik_State_Penalty>
1.85225

> <r_epik_Charging_Adjusted_Penalty>
3.62688

> <i_epik_Tot_Q>
2

> <i_epik_Tot_abs_Q>
2

> <r_epik_Metal_State_Penalty>
1.92674

> <b_epik_Metal_Only>
0

> <s_lp_Force_Field>
OPLS_2005

> <r_lp_Energy>
19.6609

> <b_lp_Chiralities_Consistent>
1

> <s_lp_Variant>
AV-unprocessed.smi:1207-12

> <Gold.Version>
5.8.1

> <Gold.Id.Protein>
6NUR|6NUR_protein|mol2

> <Gold.PLP.Fitness>
61.6502

> <Gold.PLP.PLP>
-53.4983

> <Gold.PLP.part.hbond>
-3.6566

> <Gold.PLP.part.metal>
0.0000

> <Gold.PLP.part.buried>
-6.9809

> <Gold.PLP.part.nonpolar>
-43.7675

> <Gold.PLP.part.repulsive>
0.1582

> <Gold.PLP.ligand.clash>
0.0406

> <Gold.PLP.ligand.torsion>
1.9704

> <Gold.PLP.Chemscore.Hbond>
3.9825

> <Gold.PLP.Chemscore.CHOScore>
0.0000

> <Gold.PLP.Chemscore.Metal>
0.0000

> <Gold.Chemscore.Hbonds>
donor molecule, donor type, donor heavy atom, donor atom, acceptor molecule, acceptor atom, score
      L1  H     5    53       P1  8028  2.00
      L1  H    12    52       P1  7948  1.95
      P1  H  6896  6909       L1    18  0.09

> <Gold.PLP.Chemscore.Internal.Correction>
0.1859

> <Gold.Rescore>
     Score         DG    S(hbond)    S(metal)    S(lipo)     H(rot)  DE(clash)    DE(int)     intcor
     18.72     -20.81       1.93        0.00     131.51       2.54       0.04       2.06       ----

> <Gold.Chemscore.Fitness>
18.7156

> <Gold.Chemscore.DG>
-20.8113

> <Gold.Chemscore.ZeroCoef>
-5.4800

> <Gold.Chemscore.Hbond>
1.9265

> <Gold.Chemscore.Metal>
0.0000

> <Gold.Chemscore.Lipo>
131.5110

> <Gold.Chemscore.Internal_Hbond>
0.0000

> <Gold.Chemscore.DEClash>
0.0376

> <Gold.Chemscore.DEInternal>
2.0580

> <Gold.Chemscore.Rot>
2.5351

> <Gold.Chemscore.Internal.Correction>
   9.000000E+99

> <Gold.Chemscore.Hbonds>
donor molecule, donor type, donor heavy atom, donor atom, acceptor molecule, acceptor atom, score
      L1  H     5    53       P1  8028  0.92
      L1  H    12    52       P1  7948  0.36
      P1  H  6896  6909       L1    18  0.07

> <Gold.Chemscore.Hbond.Weighted>
-6.4345

> <Gold.Chemscore.Metal.Weighted>
-0.0000

> <Gold.Chemscore.Lipo.Weighted>
-15.3868

> <Gold.Chemscore.Internal_Hbond.Weighted>
0.0000

> <Gold.Chemscore.DEClash.Weighted>
0.0376

> <Gold.Chemscore.DEInternal.Weighted>
2.0580

> <Gold.Chemscore.Rot.Weighted>
6.4900

> <Gold.Chemscore.Internal.Correction.Weighted>
   9.000000E+99

> <Gold.Protein.RotatedTorsions>
[ 6907 6896 6895 6894 ] final  -52.18 input  -60.11 | X-H torsion
[ 7974 7965 7964 7962 ] final -152.89 input  175.53 | X-H torsion
[ 8008 7997 7996 7995 ] final    1.22 input   59.86 | X-H torsion
[ 10167 10162 10161 10158 ] final  -59.48 input  -65.29 | X-H torsion
[ 10718 10713 10712 10709 ] final -179.18 input   66.30 | X-H torsion
[ 10763 10752 10751 10750 ] final  153.85 input  -60.55 | X-H torsion
[ 11005 11000 10999 10996 ] final  129.52 input  -57.11 | X-H torsion

> <Gold.Protein.ActiveResidues>
 VAL166  LYS551  ARG553  GLY616  TRP617  ASP618  TYR619  PRO620  LYS621  CYS622 
 ASP623  PHE694  ASN695  SER759  ASP760  ASP761  ALA762  ILE779  LEU786  VAL792 
 PHE793  MET794  SER795  GLU796  ALA797  LYS798  CYS799  TRP800  GLU811  SER814 

> <Gold.Protein.RotatedAtoms>
  150.8541  134.7875  159.7031 H   0  0  0  0  0  0  0  0  0  0  0  0  # atno 6907 bound_to 6896
  152.4598  134.5207  159.9791 H   0  0  0  0  0  0  0  0  0  0  0  0  # atno 6908 bound_to 6896
  151.5322  133.3409  159.2956 H   0  0  0  0  0  0  0  0  0  0  0  0  # atno 6909 bound_to 6896
  144.7770  140.4601  143.5866 H   0  0  0  0  0  0  0  0  0  0  0  0  # atno 7974 bound_to 7965
  154.6772  140.2625  155.6945 H   0  0  0  0  0  0  0  0  0  0  0  0  # atno 8008 bound_to 7997
  156.2682  140.2817  156.1226 H   0  0  0  0  0  0  0  0  0  0  0  0  # atno 8009 bound_to 7997
  155.1083  140.0375  157.2707 H   0  0  0  0  0  0  0  0  0  0  0  0  # atno 8010 bound_to 7997
  140.6133  143.2394  151.5658 H   0  0  0  0  0  0  0  0  0  0  0  0  # atno 10167 bound_to 10162
  156.8552  130.9733  151.3088 H   0  0  0  0  0  0  0  0  0  0  0  0  # atno 10718 bound_to 10713
  154.1428  135.2820  155.3156 H   0  0  0  0  0  0  0  0  0  0  0  0  # atno 10763 bound_to 10752
  154.6274  135.5447  153.7646 H   0  0  0  0  0  0  0  0  0  0  0  0  # atno 10764 bound_to 10752
  153.0245  135.6454  154.1575 H   0  0  0  0  0  0  0  0  0  0  0  0  # atno 10765 bound_to 10752
  139.9620  134.9600  156.9161 H   0  0  0  0  0  0  0  0  0  0  0  0  # atno 11005 bound_to 11000
  145.6158  139.1518  143.3050 LP  0  0  0  0  0  0  0  0  0  0  0  0  # atno 17320 bound_to 7965
  146.1955  140.6271  142.9126 LP  0  0  0  0  0  0  0  0  0  0  0  0  # atno 17321 bound_to 7965
  139.5378  144.2732  152.1288 LP  0  0  0  0  0  0  0  0  0  0  0  0  # atno 17342 bound_to 10162
  140.1936  144.4728  150.6466 LP  0  0  0  0  0  0  0  0  0  0  0  0  # atno 17343 bound_to 10162
  157.6281  130.8707  149.9225 LP  0  0  0  0  0  0  0  0  0  0  0  0  # atno 17370 bound_to 10713
  156.0806  130.3673  150.0588 LP  0  0  0  0  0  0  0  0  0  0  0  0  # atno 17371 bound_to 10713
  140.5479  134.0656  155.7360 LP  0  0  0  0  0  0  0  0  0  0  0  0  # atno 17394 bound_to 11000
  141.1298  133.9321  157.2559 LP  0  0  0  0  0  0  0  0  0  0  0  0  # atno 17395 bound_to 11000

$$$$
