AV-unprocessed.smi:2198|AV-procd|sdf|8912|dock6
  -GOLD-   2272012133D 1   1.00000     0.00000
 Structure written by MMmdl.
 43 44  0  0  0  0  0  0  0  0  1 V2000
  147.3966  135.9321  154.5980 C   0  0  0  0  0  0  0  0  0  0  0  0
  147.7267  137.4018  154.7516 C   0  0  0  0  0  0  0  0  0  0  0  0
  146.9188  138.2727  155.2610 N   0  0  0  0  0  0  0  0  0  0  0  0
  147.3372  139.6076  155.3518 C   0  0  0  0  0  0  0  0  0  0  0  0
  146.3353  140.5695  155.9672 C   0  0  0  0  0  0  0  0  0  0  0  0
  148.5677  140.0033  154.9124 C   0  0  0  0  0  0  0  0  0  0  0  0
  149.0540  141.4496  154.9996 C   0  0  0  0  0  0  0  0  0  0  0  0
  150.3424  141.6837  155.7927 C   0  0  0  0  0  0  0  0  0  0  0  0
  151.2916  140.9052  155.6936 O   0  0  0  0  0  0  0  0  0  0  0  0
  150.3553  142.7654  156.5860 N   0  0  0  0  0  0  0  0  0  0  0  0
  151.4632  143.1651  157.4481 C   0  0  1  0  0  0  0  0  0  0  0  0
  151.0580  144.4004  158.2720 C   0  0  0  0  0  0  0  0  0  0  0  0
  152.1797  144.8201  159.2338 C   0  0  0  0  0  0  0  0  0  0  0  0
  152.5881  143.6590  160.1541 C   0  0  0  0  0  0  0  0  0  0  0  0
  152.9988  142.4127  159.3463 C   0  0  1  0  0  0  0  0  0  0  0  0
  153.3920  141.2507  160.2700 C   0  0  0  0  0  0  0  0  0  0  0  0
  151.8755  142.0020  158.3742 C   0  0  0  0  0  0  0  0  0  0  0  0
  149.4825  139.0004  154.3336 C   0  0  0  0  0  0  0  0  0  0  0  0
  150.6128  139.2465  153.9154 O   0  0  0  0  0  0  0  0  0  0  0  0
  148.9972  137.7395  154.2882 N   0  0  0  0  0  0  0  0  0  0  0  0
  149.5864  137.0160  153.9024 H   0  0  0  0  0  0  0  0  0  0  0  0
  147.1871  135.4910  155.5727 H   0  0  0  0  0  0  0  0  0  0  0  0
  148.2199  135.3795  154.1431 H   0  0  0  0  0  0  0  0  0  0  0  0
  146.5149  135.8091  153.9690 H   0  0  0  0  0  0  0  0  0  0  0  0
  146.0129  141.3069  155.2320 H   0  0  0  0  0  0  0  0  0  0  0  0
  146.7741  141.0938  156.8163 H   0  0  0  0  0  0  0  0  0  0  0  0
  145.4490  140.0432  156.3237 H   0  0  0  0  0  0  0  0  0  0  0  0
  149.1842  141.8676  154.0006 H   0  0  0  0  0  0  0  0  0  0  0  0
  148.2664  142.0524  155.4520 H   0  0  0  0  0  0  0  0  0  0  0  0
  149.5322  143.3502  156.6024 H   0  0  0  0  0  0  0  0  0  0  0  0
  152.3168  143.4400  156.8253 H   0  0  0  0  0  0  0  0  0  0  0  0
  150.8148  145.2305  157.6075 H   0  0  0  0  0  0  0  0  0  0  0  0
  150.1536  144.1857  158.8436 H   0  0  0  0  0  0  0  0  0  0  0  0
  153.0454  145.1551  158.6609 H   0  0  0  0  0  0  0  0  0  0  0  0
  151.8565  145.6724  159.8320 H   0  0  0  0  0  0  0  0  0  0  0  0
  153.4113  143.9753  160.7956 H   0  0  0  0  0  0  0  0  0  0  0  0
  151.7575  143.4123  160.8172 H   0  0  0  0  0  0  0  0  0  0  0  0
  153.8767  142.6714  158.7525 H   0  0  0  0  0  0  0  0  0  0  0  0
  152.5558  140.9434  160.8986 H   0  0  0  0  0  0  0  0  0  0  0  0
  154.2155  141.5325  160.9268 H   0  0  0  0  0  0  0  0  0  0  0  0
  153.7122  140.3820  159.6943 H   0  0  0  0  0  0  0  0  0  0  0  0
  151.0082  141.6610  158.9420 H   0  0  0  0  0  0  0  0  0  0  0  0
  152.2042  141.1513  157.7757 H   0  0  0  0  0  0  0  0  0  0  0  0
  1  2  1  0  0  0  0
  1 22  1  0  0  0  0
  1 23  1  0  0  0  0
  1 24  1  0  0  0  0
  2 20  1  0  0  0  0
  2  3  2  0  0  0  0
  3  4  1  0  0  0  0
  4  5  1  0  0  0  0
  4  6  2  0  0  0  0
  5 25  1  0  0  0  0
  5 26  1  0  0  0  0
  5 27  1  0  0  0  0
  6  7  1  0  0  0  0
  6 18  1  0  0  0  0
  7  8  1  0  0  0  0
  7 28  1  0  0  0  0
  7 29  1  0  0  0  0
  8  9  2  0  0  0  0
  8 10  1  0  0  0  0
 10 11  1  0  0  0  0
 10 30  1  0  0  0  0
 11 17  1  0  0  0  0
 11 12  1  0  0  0  0
 11 31  1  0  0  0  0
 12 13  1  0  0  0  0
 12 32  1  0  0  0  0
 12 33  1  0  0  0  0
 13 14  1  0  0  0  0
 13 34  1  0  0  0  0
 13 35  1  0  0  0  0
 14 15  1  0  0  0  0
 14 36  1  0  0  0  0
 14 37  1  0  0  0  0
 15 16  1  0  0  0  0
 15 17  1  0  0  0  0
 15 38  1  0  0  0  0
 16 39  1  0  0  0  0
 16 40  1  0  0  0  0
 16 41  1  0  0  0  0
 17 42  1  0  0  0  0
 17 43  1  0  0  0  0
 18 19  2  0  0  0  0
 18 20  1  0  0  0  0
 20 21  1  0  0  0  0
M  END
> <s_m_source_file>
AV-unprocessed.smi

> <i_m_source_file_index>
2198

> <i_lp_mmshare_version>
43012

> <i_f3d_flags>
0

> <s_epik_input>
W0NIM11jMW5jKFtDSDNdKWMoYyg9TylbbkhdMSlbQ0gyXUMoPU8pW05IXVtDQEBIXTJbQ0gyXVtDSDJdW0NIMl1bQ0BASF0oW0NIM10pW0NIMl0y

> <s_epik_cmdline>
J2VwaWtfcHl0aG9uJywgJy1waCcsICc3LjAnLCAnLXRuJywgJzgnLCAnLW1hJywgJzIwMCcsICctbWV0YWxfYmluZGluZycsICctaW1hZScsICc8aW5maWxlLm1hZT4nLCAnLW9tYWUnLCAnPG91dGZpbGUubWFlPic=

> <r_lp_tautomer_probability>
0.839158

> <r_epik_Ionization_Penalty>
0.000372587

> <r_epik_Ionization_Penalty_Charging>
0.000337977

> <r_epik_Ionization_Penalty_Neutral>
3.46101e-05

> <r_epik_State_Penalty>
0.09125

> <r_epik_Charging_Adjusted_Penalty>
0.091588

> <i_epik_Tot_Q>
0

> <i_epik_Tot_abs_Q>
0

> <r_epik_Metal_State_Penalty>
0.25197

> <b_epik_Metal_Only>
0

> <s_lp_Force_Field>
OPLS_2005

> <r_lp_Energy>
10.3452

> <b_lp_Chiralities_Consistent>
1

> <s_lp_Variant>
AV-unprocessed.smi:2198-2

> <Gold.Version>
5.8.1

> <Gold.Id.Protein>
6NUR|6NUR_protein|mol2

> <Gold.PLP.Fitness>
43.6505

> <Gold.PLP.PLP>
-38.2070

> <Gold.PLP.part.hbond>
-3.8176

> <Gold.PLP.part.metal>
0.0000

> <Gold.PLP.part.buried>
-4.6633

> <Gold.PLP.part.nonpolar>
-30.8928

> <Gold.PLP.part.repulsive>
0.3349

> <Gold.PLP.ligand.clash>
0.0000

> <Gold.PLP.ligand.torsion>
0.2938

> <Gold.PLP.Chemscore.Hbond>
2.0083

> <Gold.PLP.Chemscore.CHOScore>
0.0000

> <Gold.PLP.Chemscore.Metal>
0.0000

> <Gold.Chemscore.Hbonds>
donor molecule, donor type, donor heavy atom, donor atom, acceptor molecule, acceptor atom, score
      L1  H    10    30       P1  8028  0.75
      L1  H    20    21       P1  7948  0.15
      P1  H  7989  7998       L1    19  1.00

> <Gold.PLP.Chemscore.Internal.Correction>
0.0060

> <Gold.Rescore>
     Score         DG    S(hbond)    S(metal)    S(lipo)     H(rot)  DE(clash)    DE(int)     intcor
     16.41     -19.94       2.22        0.00      92.63       1.48       0.34       3.18       ----

> <Gold.Chemscore.Fitness>
16.4120

> <Gold.Chemscore.DG>
-19.9351

> <Gold.Chemscore.ZeroCoef>
-5.4800

> <Gold.Chemscore.Hbond>
2.2177

> <Gold.Chemscore.Metal>
0.0000

> <Gold.Chemscore.Lipo>
92.6252

> <Gold.Chemscore.Internal_Hbond>
0.0000

> <Gold.Chemscore.DEClash>
0.3437

> <Gold.Chemscore.DEInternal>
3.1794

> <Gold.Chemscore.Rot>
1.4801

> <Gold.Chemscore.Internal.Correction>
   9.000000E+99

> <Gold.Chemscore.Hbonds>
donor molecule, donor type, donor heavy atom, donor atom, acceptor molecule, acceptor atom, score
      L1  H    10    30       P1  8028  0.74
      L1  H    20    21       P1  7948  0.12
      P1  H  7989  7998       L1    19  0.97

> <Gold.Chemscore.Hbond.Weighted>
-7.4070

> <Gold.Chemscore.Metal.Weighted>
-0.0000

> <Gold.Chemscore.Lipo.Weighted>
-10.8371

> <Gold.Chemscore.Internal_Hbond.Weighted>
0.0000

> <Gold.Chemscore.DEClash.Weighted>
0.3437

> <Gold.Chemscore.DEInternal.Weighted>
3.1794

> <Gold.Chemscore.Rot.Weighted>
3.7891

> <Gold.Chemscore.Internal.Correction.Weighted>
   9.000000E+99

> <Gold.Protein.RotatedTorsions>
[ 6907 6896 6895 6894 ] final   96.02 input  -60.11 | X-H torsion
[ 7974 7965 7964 7962 ] final   99.94 input  175.53 | X-H torsion
[ 8008 7997 7996 7995 ] final  120.30 input   59.86 | X-H torsion
[ 10167 10162 10161 10158 ] final  160.61 input  -65.29 | X-H torsion
[ 10718 10713 10712 10709 ] final  -40.21 input   66.30 | X-H torsion
[ 10763 10752 10751 10750 ] final -106.59 input  -60.55 | X-H torsion
[ 11005 11000 10999 10996 ] final   96.46 input  -57.11 | X-H torsion

> <Gold.Protein.ActiveResidues>
 VAL166  LYS551  ARG553  GLY616  TRP617  ASP618  TYR619  PRO620  LYS621  CYS622 
 ASP623  PHE694  ASN695  SER759  ASP760  ASP761  ALA762  ILE779  LEU786  VAL792 
 PHE793  MET794  SER795  GLU796  ALA797  LYS798  CYS799  TRP800  GLU811  SER814 

> <Gold.Protein.RotatedAtoms>
  152.5439  134.0951  159.8293 H   0  0  0  0  0  0  0  0  0  0  0  0  # atno 6907 bound_to 6896
  151.1036  133.5218  159.2616 H   0  0  0  0  0  0  0  0  0  0  0  0  # atno 6908 bound_to 6896
  151.1964  135.0433  159.8908 H   0  0  0  0  0  0  0  0  0  0  0  0  # atno 6909 bound_to 6896
  145.3922  139.2361  143.3345 H   0  0  0  0  0  0  0  0  0  0  0  0  # atno 7974 bound_to 7965
  156.2636  140.2834  156.1128 H   0  0  0  0  0  0  0  0  0  0  0  0  # atno 8008 bound_to 7997
  155.1239  140.0392  157.2775 H   0  0  0  0  0  0  0  0  0  0  0  0  # atno 8009 bound_to 7997
  154.6650  140.2575  155.7074 H   0  0  0  0  0  0  0  0  0  0  0  0  # atno 8010 bound_to 7997
  139.4841  144.4617  151.8695 H   0  0  0  0  0  0  0  0  0  0  0  0  # atno 10167 bound_to 10162
  156.2838  130.4220  149.8309 H   0  0  0  0  0  0  0  0  0  0  0  0  # atno 10718 bound_to 10713
  154.8022  135.4706  154.0303 H   0  0  0  0  0  0  0  0  0  0  0  0  # atno 10763 bound_to 10752
  153.1800  135.6839  153.8498 H   0  0  0  0  0  0  0  0  0  0  0  0  # atno 10764 bound_to 10752
  153.8051  135.3224  155.3372 H   0  0  0  0  0  0  0  0  0  0  0  0  # atno 10765 bound_to 10752
  139.8781  134.8951  156.4161 H   0  0  0  0  0  0  0  0  0  0  0  0  # atno 11005 bound_to 11000
  146.2792  140.4607  142.8783 LP  0  0  0  0  0  0  0  0  0  0  0  0  # atno 17320 bound_to 7965
  144.8432  140.6889  143.6216 LP  0  0  0  0  0  0  0  0  0  0  0  0  # atno 17321 bound_to 7965
  140.4080  144.2406  150.5890 LP  0  0  0  0  0  0  0  0  0  0  0  0  # atno 17342 bound_to 10162
  140.4993  143.2323  151.8702 LP  0  0  0  0  0  0  0  0  0  0  0  0  # atno 17343 bound_to 10162
  156.5746  130.8439  151.3366 LP  0  0  0  0  0  0  0  0  0  0  0  0  # atno 17370 bound_to 10713
  157.7322  130.9712  150.1919 LP  0  0  0  0  0  0  0  0  0  0  0  0  # atno 17371 bound_to 10713
  140.9166  133.7674  155.9856 LP  0  0  0  0  0  0  0  0  0  0  0  0  # atno 17394 bound_to 11000
  140.8487  134.2980  157.5284 LP  0  0  0  0  0  0  0  0  0  0  0  0  # atno 17395 bound_to 11000

$$$$
