AV-unprocessed.smi:1678|AV-procd|sdf|6728|dock2
  -GOLD-   22720 7473D 1   1.00000     0.00000
 Structure written by MMmdl.
 43 44  0  0  0  0  0  0  0  0  1 V2000
  147.6996  133.1162  152.3329 C   0  0  0  0  0  0  0  0  0  0  0  0
  146.4239  133.2291  151.5140 C   0  0  0  0  0  0  0  0  0  0  0  0
  145.8190  132.0565  151.0136 C   0  0  0  0  0  0  0  0  0  0  0  0
  144.6402  132.1622  150.2561 C   0  0  0  0  0  0  0  0  0  0  0  0
  144.1126  133.4449  150.0290 C   0  0  0  0  0  0  0  0  0  0  0  0
  144.6841  134.5705  150.5030 N   0  0  0  0  0  0  0  0  0  0  0  0
  145.8226  134.4864  151.2365 C   0  0  0  0  0  0  0  0  0  0  0  0
  146.4796  135.6320  151.7685 N   0  0  0  0  0  0  0  0  0  0  0  0
  145.9323  136.7579  152.2599 C   0  0  0  0  0  0  0  0  0  0  0  0
  144.7256  136.9942  152.3283 O   0  0  0  0  0  0  0  0  0  0  0  0
  146.8762  137.6136  152.6780 N   0  0  0  0  0  0  0  0  0  0  0  0
  146.6136  138.9223  153.2645 C   0  0  0  0  0  0  0  0  0  0  0  0
  147.2981  139.0754  154.6359 C   0  0  0  0  0  0  0  0  0  0  0  0
  148.7308  139.3603  154.4852 N   0  0  0  0  0  0  0  0  0  0  0  0
  149.0904  140.7489  154.1531 C   0  0  0  0  0  0  0  0  0  0  0  0
  149.7923  141.5040  155.3065 C   0  0  0  0  0  0  0  0  0  0  0  0
  150.6272  140.6464  156.2779 C   0  0  0  0  0  0  0  0  0  0  0  0
  151.6708  139.7293  155.6068 C   0  0  0  0  0  0  0  0  0  0  0  0
  151.1463  138.7793  154.5040 C   0  0  0  0  0  0  0  0  0  0  0  0
  149.6660  138.3926  154.6530 C   0  0  0  0  0  0  0  0  0  0  0  0
  149.3840  137.2251  154.9232 O   0  0  0  0  0  0  0  0  0  0  0  0
  147.9995  132.0754  152.4597 H   0  0  0  0  0  0  0  0  0  0  0  0
  147.5571  133.5468  153.3244 H   0  0  0  0  0  0  0  0  0  0  0  0
  148.5168  133.6430  151.8395 H   0  0  0  0  0  0  0  0  0  0  0  0
  146.2510  131.0855  151.2063 H   0  0  0  0  0  0  0  0  0  0  0  0
  144.1532  131.2837  149.8595 H   0  0  0  0  0  0  0  0  0  0  0  0
  143.2087  133.5720  149.4518 H   0  0  0  0  0  0  0  0  0  0  0  0
  147.4875  135.5849  151.7780 H   0  0  0  0  0  0  0  0  0  0  0  0
  147.8437  137.3418  152.5842 H   0  0  0  0  0  0  0  0  0  0  0  0
  146.9885  139.6814  152.5774 H   0  0  0  0  0  0  0  0  0  0  0  0
  145.5372  139.0832  153.3445 H   0  0  0  0  0  0  0  0  0  0  0  0
  146.8220  139.8735  155.2084 H   0  0  0  0  0  0  0  0  0  0  0  0
  147.1421  138.1727  155.2273 H   0  0  0  0  0  0  0  0  0  0  0  0
  149.7286  140.7509  153.2694 H   0  0  0  0  0  0  0  0  0  0  0  0
  148.2153  141.3223  153.8463 H   0  0  0  0  0  0  0  0  0  0  0  0
  150.4175  142.2905  154.8827 H   0  0  0  0  0  0  0  0  0  0  0  0
  149.0318  142.0197  155.8940 H   0  0  0  0  0  0  0  0  0  0  0  0
  151.1384  141.3072  156.9784 H   0  0  0  0  0  0  0  0  0  0  0  0
  149.9581  140.0455  156.8956 H   0  0  0  0  0  0  0  0  0  0  0  0
  152.4640  140.3465  155.1834 H   0  0  0  0  0  0  0  0  0  0  0  0
  152.1495  139.1326  156.3840 H   0  0  0  0  0  0  0  0  0  0  0  0
  151.2986  139.2250  153.5212 H   0  0  0  0  0  0  0  0  0  0  0  0
  151.7531  137.8729  154.4946 H   0  0  0  0  0  0  0  0  0  0  0  0
  1  2  1  0  0  0  0
  1 22  1  0  0  0  0
  1 23  1  0  0  0  0
  1 24  1  0  0  0  0
  2  7  1  0  0  0  0
  2  3  2  0  0  0  0
  3  4  1  0  0  0  0
  3 25  1  0  0  0  0
  4  5  2  0  0  0  0
  4 26  1  0  0  0  0
  5  6  1  0  0  0  0
  5 27  1  0  0  0  0
  6  7  2  0  0  0  0
  7  8  1  0  0  0  0
  8  9  1  0  0  0  0
  8 28  1  0  0  0  0
  9 10  2  0  0  0  0
  9 11  1  0  0  0  0
 11 12  1  0  0  0  0
 11 29  1  0  0  0  0
 12 13  1  0  0  0  0
 12 30  1  0  0  0  0
 12 31  1  0  0  0  0
 13 14  1  0  0  0  0
 13 32  1  0  0  0  0
 13 33  1  0  0  0  0
 14 20  1  0  0  0  0
 14 15  1  0  0  0  0
 15 16  1  0  0  0  0
 15 34  1  0  0  0  0
 15 35  1  0  0  0  0
 16 17  1  0  0  0  0
 16 36  1  0  0  0  0
 16 37  1  0  0  0  0
 17 18  1  0  0  0  0
 17 38  1  0  0  0  0
 17 39  1  0  0  0  0
 18 19  1  0  0  0  0
 18 40  1  0  0  0  0
 18 41  1  0  0  0  0
 19 20  1  0  0  0  0
 19 42  1  0  0  0  0
 19 43  1  0  0  0  0
 20 21  2  0  0  0  0
M  END
> <s_m_source_file>
AV-unprocessed.smi

> <i_m_source_file_index>
1678

> <i_lp_mmshare_version>
43012

> <i_f3d_flags>
0

> <s_epik_input>
W0NIM11jMVtjSF1bY0hdW2NIXW5jMVtOSF1DKD1PKVtOSF1bQ0gyXVtDSDJdTjJbQ0gyXVtDSDJdW0NIMl1bQ0gyXVtDSDJdQzI9Tw==

> <s_epik_cmdline>
J2VwaWtfcHl0aG9uJywgJy1waCcsICc3LjAnLCAnLXRuJywgJzgnLCAnLW1hJywgJzIwMCcsICctbWV0YWxfYmluZGluZycsICctaW1hZScsICc8aW5maWxlLm1hZT4nLCAnLW9tYWUnLCAnPG91dGZpbGUubWFlPic=

> <r_lp_tautomer_probability>
1

> <r_epik_Ionization_Penalty>
5.3034e-05

> <r_epik_Ionization_Penalty_Charging>
0

> <r_epik_Ionization_Penalty_Neutral>
5.3034e-05

> <r_epik_State_Penalty>
-0

> <r_epik_Charging_Adjusted_Penalty>
0

> <i_epik_Tot_Q>
0

> <i_epik_Tot_abs_Q>
0

> <r_epik_Metal_State_Penalty>
-0

> <b_epik_Metal_Only>
0

> <s_lp_Force_Field>
OPLS_2005

> <r_lp_Energy>
24.0679

> <b_lp_Chiralities_Consistent>
1

> <s_lp_Variant>
AV-unprocessed.smi:1678-1

> <Gold.Version>
5.8.1

> <Gold.Id.Protein>
6NUR|6NUR_protein|mol2

> <Gold.PLP.Fitness>
45.5043

> <Gold.PLP.PLP>
-37.9103

> <Gold.PLP.part.hbond>
-1.9599

> <Gold.PLP.part.metal>
0.0000

> <Gold.PLP.part.buried>
-3.7092

> <Gold.PLP.part.nonpolar>
-33.5389

> <Gold.PLP.part.repulsive>
0.6908

> <Gold.PLP.ligand.clash>
0.0000

> <Gold.PLP.ligand.torsion>
0.6183

> <Gold.PLP.Chemscore.Hbond>
1.9280

> <Gold.PLP.Chemscore.CHOScore>
1.0000

> <Gold.PLP.Chemscore.Metal>
0.0000

> <Gold.Chemscore.Hbonds>
donor molecule, donor type, donor heavy atom, donor atom, acceptor molecule, acceptor atom, score
      L1  H     8    28       P1  7948  1.00
      L1  H    11    29       P1  7948  0.91
      L1  C     5    27       P1 10186  1.00

> <Gold.PLP.Chemscore.Internal.Correction>
0.0467

> <Gold.Rescore>
     Score         DG    S(hbond)    S(metal)    S(lipo)     H(rot)  DE(clash)    DE(int)     intcor
     16.32     -17.91       1.92        0.00      84.44       1.51       0.00       1.58       ----

> <Gold.Chemscore.Fitness>
16.3187

> <Gold.Chemscore.DG>
-17.9066

> <Gold.Chemscore.ZeroCoef>
-5.4800

> <Gold.Chemscore.Hbond>
1.9223

> <Gold.Chemscore.Metal>
0.0000

> <Gold.Chemscore.Lipo>
84.4418

> <Gold.Chemscore.Internal_Hbond>
0.0000

> <Gold.Chemscore.DEClash>
0.0048

> <Gold.Chemscore.DEInternal>
1.5831

> <Gold.Chemscore.Rot>
1.5131

> <Gold.Chemscore.Internal.Correction>
   9.000000E+99

> <Gold.Chemscore.Hbonds>
donor molecule, donor type, donor heavy atom, donor atom, acceptor molecule, acceptor atom, score
      L1  H     8    28       P1  7948  0.94
      L1  H    11    29       P1  7948  0.90

> <Gold.Chemscore.Hbond.Weighted>
-6.4204

> <Gold.Chemscore.Metal.Weighted>
-0.0000

> <Gold.Chemscore.Lipo.Weighted>
-9.8797

> <Gold.Chemscore.Internal_Hbond.Weighted>
0.0000

> <Gold.Chemscore.DEClash.Weighted>
0.0048

> <Gold.Chemscore.DEInternal.Weighted>
1.5831

> <Gold.Chemscore.Rot.Weighted>
3.8735

> <Gold.Chemscore.Internal.Correction.Weighted>
   9.000000E+99

> <Gold.Protein.RotatedTorsions>
[ 6907 6896 6895 6894 ] final  152.08 input  -60.11 | X-H torsion
[ 7974 7965 7964 7962 ] final   33.34 input  175.53 | X-H torsion
[ 8008 7997 7996 7995 ] final  -53.21 input   59.86 | X-H torsion
[ 10167 10162 10161 10158 ] final  137.34 input  -65.29 | X-H torsion
[ 10718 10713 10712 10709 ] final -106.09 input   66.30 | X-H torsion
[ 10763 10752 10751 10750 ] final  -70.84 input  -60.55 | X-H torsion
[ 11005 11000 10999 10996 ] final  178.70 input  -57.11 | X-H torsion

> <Gold.Protein.ActiveResidues>
 VAL166  LYS551  ARG553  GLY616  TRP617  ASP618  TYR619  PRO620  LYS621  CYS622 
 ASP623  PHE694  ASN695  SER759  ASP760  ASP761  ALA762  ILE779  LEU786  VAL792 
 PHE793  MET794  SER795  GLU796  ALA797  LYS798  CYS799  TRP800  GLU811  SER814 

> <Gold.Protein.RotatedAtoms>
  152.0918  133.4204  159.4546 H   0  0  0  0  0  0  0  0  0  0  0  0  # atno 6907 bound_to 6896
  150.6862  134.2863  159.4657 H   0  0  0  0  0  0  0  0  0  0  0  0  # atno 6908 bound_to 6896
  152.0715  134.9530  160.0625 H   0  0  0  0  0  0  0  0  0  0  0  0  # atno 6909 bound_to 6896
  146.1427  139.6409  142.9152 H   0  0  0  0  0  0  0  0  0  0  0  0  # atno 7974 bound_to 7965
  154.4127  140.1205  156.5117 H   0  0  0  0  0  0  0  0  0  0  0  0  # atno 8008 bound_to 7997
  155.6792  140.3496  155.4829 H   0  0  0  0  0  0  0  0  0  0  0  0  # atno 8009 bound_to 7997
  155.9566  140.1115  157.0921 H   0  0  0  0  0  0  0  0  0  0  0  0  # atno 8010 bound_to 7997
  139.5148  144.6415  151.5555 H   0  0  0  0  0  0  0  0  0  0  0  0  # atno 10167 bound_to 10162
  156.0375  130.5596  150.7632 H   0  0  0  0  0  0  0  0  0  0  0  0  # atno 10718 bound_to 10713
  154.4233  135.5981  153.6023 H   0  0  0  0  0  0  0  0  0  0  0  0  # atno 10763 bound_to 10752
  152.9795  135.5957  154.3929 H   0  0  0  0  0  0  0  0  0  0  0  0  # atno 10764 bound_to 10752
  154.3757  135.2841  155.2219 H   0  0  0  0  0  0  0  0  0  0  0  0  # atno 10765 bound_to 10752
  140.3980  134.6803  157.4546 H   0  0  0  0  0  0  0  0  0  0  0  0  # atno 11005 bound_to 11000
  145.5010  141.0437  143.2540 LP  0  0  0  0  0  0  0  0  0  0  0  0  # atno 17320 bound_to 7965
  144.7810  139.6525  143.7154 LP  0  0  0  0  0  0  0  0  0  0  0  0  # atno 17321 bound_to 7965
  140.6184  143.9305  150.6506 LP  0  0  0  0  0  0  0  0  0  0  0  0  # atno 17342 bound_to 10162
  140.2571  143.3551  152.1355 LP  0  0  0  0  0  0  0  0  0  0  0  0  # atno 17343 bound_to 10162
  157.5146  131.0927  151.0156 LP  0  0  0  0  0  0  0  0  0  0  0  0  # atno 17370 bound_to 10713
  157.0502  130.5784  149.5369 LP  0  0  0  0  0  0  0  0  0  0  0  0  # atno 17371 bound_to 10713
  140.0357  134.6341  155.9047 LP  0  0  0  0  0  0  0  0  0  0  0  0  # atno 17394 bound_to 11000
  141.1867  133.6558  156.5250 LP  0  0  0  0  0  0  0  0  0  0  0  0  # atno 17395 bound_to 11000

$$$$
