AV-unprocessed.smi:1208|AV-procd|sdf|5062|dock10
  -GOLD-   22720 4103D 1   1.00000     0.00000
 Structure written by MMmdl.
 35 36  0  0  0  0  0  0  0  0  2 V2000
  149.2553  140.5591  156.5624 C   0  0  0  0  0  0  0  0  0  0  0  0
  149.8757  140.5557  157.9668 C   0  0  1  0  0  0  0  0  0  0  0  0
  150.1033  139.1733  158.3806 N   0  0  0  0  0  0  0  0  0  0  0  0
  149.1549  138.2466  158.5888 C   0  0  0  0  0  0  0  0  0  0  0  0
  147.9579  138.4340  158.3689 O   0  0  0  0  0  0  0  0  0  0  0  0
  149.6389  136.8994  159.1351 C   0  0  0  0  0  0  0  0  0  0  0  0
  148.6341  136.2953  160.0188 N   0  0  0  0  0  0  0  0  0  0  0  0
  148.1124  137.2208  161.0220 N   0  5  0  0  0  0  0  0  0  0  0  0
  147.1003  136.8161  161.8337 C   0  0  0  0  0  0  0  0  0  0  0  0
  146.5844  137.5513  162.6723 O   0  0  0  0  0  0  0  0  0  0  0  0
  146.6198  135.4511  161.6986 C   0  0  0  0  0  0  0  0  0  0  0  0
  147.1453  134.6070  160.7890 C   0  0  0  0  0  0  0  0  0  0  0  0
  148.2117  135.0064  159.8784 C   0  0  0  0  0  0  0  0  0  0  0  0
  148.6860  134.2432  159.0372 O   0  0  0  0  0  0  0  0  0  0  0  0
  151.2001  141.3474  158.0115 C   0  0  2  0  0  0  0  0  0  0  0  0
  151.8637  141.4333  159.3888 C   0  0  0  0  0  0  0  0  0  0  0  0
  152.7152  142.6719  159.2401 C   0  0  0  0  0  0  0  0  0  0  0  0
  151.8055  143.5751  158.4127 C   0  0  0  0  0  0  0  0  0  0  0  0
  150.9870  142.7059  157.6328 O   0  0  0  0  0  0  0  0  0  0  0  0
  149.0409  141.5749  156.2296 H   0  0  0  0  0  0  0  0  0  0  0  0
  148.3165  140.0046  156.5468 H   0  0  0  0  0  0  0  0  0  0  0  0
  149.9242  140.1044  155.8309 H   0  0  0  0  0  0  0  0  0  0  0  0
  149.1643  141.0324  158.6434 H   0  0  0  0  0  0  0  0  0  0  0  0
  151.0561  138.9176  158.5965 H   0  0  0  0  0  0  0  0  0  0  0  0
  149.8706  136.2397  158.2972 H   0  0  0  0  0  0  0  0  0  0  0  0
  150.5822  137.0292  159.6696 H   0  0  0  0  0  0  0  0  0  0  0  0
  145.8263  135.1052  162.3446 H   0  0  0  0  0  0  0  0  0  0  0  0
  146.7586  133.6007  160.7255 H   0  0  0  0  0  0  0  0  0  0  0  0
  151.9148  140.9176  157.3072 H   0  0  0  0  0  0  0  0  0  0  0  0
  151.1168  141.5868  160.1692 H   0  0  0  0  0  0  0  0  0  0  0  0
  152.4435  140.5442  159.6404 H   0  0  0  0  0  0  0  0  0  0  0  0
  153.0040  143.1137  160.1942 H   0  0  0  0  0  0  0  0  0  0  0  0
  153.6225  142.4358  158.6825 H   0  0  0  0  0  0  0  0  0  0  0  0
  151.1584  144.1641  159.0635 H   0  0  0  0  0  0  0  0  0  0  0  0
  152.3687  144.2636  157.7823 H   0  0  0  0  0  0  0  0  0  0  0  0
  1  2  1  0  0  0  0
  1 20  1  0  0  0  0
  1 21  1  0  0  0  0
  1 22  1  0  0  0  0
  2  3  1  0  0  0  0
  2 15  1  0  0  0  0
  2 23  1  0  0  0  0
  3  4  1  0  0  0  0
  3 24  1  0  0  0  0
  4  5  2  0  0  0  0
  4  6  1  0  0  0  0
  6 25  1  0  0  0  0
  6 26  1  0  0  0  0
  6  7  1  0  0  0  0
  7  8  1  0  0  0  0
  7 13  1  0  0  0  0
  8  9  1  0  0  0  0
  9 10  2  0  0  0  0
  9 11  1  0  0  0  0
 11 27  1  0  0  0  0
 11 12  2  0  0  0  0
 12 28  1  0  0  0  0
 12 13  1  0  0  0  0
 13 14  2  0  0  0  0
 15 19  1  0  0  0  0
 15 16  1  0  0  0  0
 15 29  1  0  0  0  0
 16 17  1  0  0  0  0
 16 30  1  0  0  0  0
 16 31  1  0  0  0  0
 17 18  1  0  0  0  0
 17 32  1  0  0  0  0
 17 33  1  0  0  0  0
 18 19  1  0  0  0  0
 18 34  1  0  0  0  0
 18 35  1  0  0  0  0
M  CHG  1   8  -1
M  END
> <s_m_source_file>
AV-unprocessed.smi

> <i_m_source_file_index>
1208

> <i_lp_mmshare_version>
43012

> <i_f3d_flags>
0

> <s_epik_input>
TzFbQ0gyXVtDSDJdW0NIMl1bQ0BIXTFbQ0BIXShbQ0gzXSlbTkhdQyg9TylbQ0gyXW4yW25IXWMoPU8pW2NIXVtjSF1jMj1P

> <s_epik_cmdline>
J2VwaWtfcHl0aG9uJywgJy1waCcsICc3LjAnLCAnLXRuJywgJzgnLCAnLW1hJywgJzIwMCcsICctbWV0YWxfYmluZGluZycsICctaW1hZScsICc8aW5maWxlLm1hZT4nLCAnLW9tYWUnLCAnPG91dGZpbGUubWFlPic=

> <r_lp_tautomer_probability>
1

> <r_epik_Ionization_Penalty>
0.0975494

> <r_epik_Ionization_Penalty_Charging>
0.0975494

> <r_epik_Ionization_Penalty_Neutral>
2.30132e-08

> <r_epik_State_Penalty>
0.034345

> <r_epik_Charging_Adjusted_Penalty>
0.131894

> <i_epik_Tot_Q>
-1

> <i_epik_Tot_abs_Q>
1

> <r_epik_Metal_State_Penalty>
0.034345

> <b_epik_Metal_Only>
0

> <s_lp_Force_Field>
OPLS_2005

> <r_lp_Energy>
33.0818

> <b_lp_Chiralities_Consistent>
1

> <s_lp_Variant>
AV-unprocessed.smi:1208-2

> <Gold.Version>
5.8.1

> <Gold.Id.Protein>
6NUR|6NUR_protein|mol2

> <Gold.PLP.Fitness>
39.6291

> <Gold.PLP.PLP>
-30.1821

> <Gold.PLP.part.hbond>
-5.1327

> <Gold.PLP.part.metal>
0.0000

> <Gold.PLP.part.buried>
-3.2982

> <Gold.PLP.part.nonpolar>
-23.4209

> <Gold.PLP.part.repulsive>
0.2786

> <Gold.PLP.ligand.clash>
0.0000

> <Gold.PLP.ligand.torsion>
0.5057

> <Gold.PLP.Chemscore.Hbond>
3.4828

> <Gold.PLP.Chemscore.CHOScore>
0.0000

> <Gold.PLP.Chemscore.Metal>
0.0000

> <Gold.Chemscore.Hbonds>
donor molecule, donor type, donor heavy atom, donor atom, acceptor molecule, acceptor atom, score
      P1  H  6896  6907       L1    14  1.00
      P1  H  6931  6943       L1     8  1.92
      P1  H  6934  6947       L1     8  0.54

> <Gold.PLP.Chemscore.Internal.Correction>
0.0101

> <Gold.Rescore>
     Score         DG    S(hbond)    S(metal)    S(lipo)     H(rot)  DE(clash)    DE(int)     intcor
     11.60     -13.58       1.76        0.00      62.59       1.99       0.13       1.86       ----

> <Gold.Chemscore.Fitness>
11.6001

> <Gold.Chemscore.DG>
-13.5836

> <Gold.Chemscore.ZeroCoef>
-5.4800

> <Gold.Chemscore.Hbond>
1.7621

> <Gold.Chemscore.Metal>
0.0000

> <Gold.Chemscore.Lipo>
62.5870

> <Gold.Chemscore.Internal_Hbond>
0.0000

> <Gold.Chemscore.DEClash>
0.1263

> <Gold.Chemscore.DEInternal>
1.8572

> <Gold.Chemscore.Rot>
1.9940

> <Gold.Chemscore.Internal.Correction>
   9.000000E+99

> <Gold.Chemscore.Hbonds>
donor molecule, donor type, donor heavy atom, donor atom, acceptor molecule, acceptor atom, score
      P1  H  6896  6907       L1    14  0.65
      P1  H  6931  6943       L1     8  0.55
      P1  H  6934  6947       L1     8  0.01

> <Gold.Chemscore.Hbond.Weighted>
-5.8856

> <Gold.Chemscore.Metal.Weighted>
-0.0000

> <Gold.Chemscore.Lipo.Weighted>
-7.3227

> <Gold.Chemscore.Internal_Hbond.Weighted>
0.0000

> <Gold.Chemscore.DEClash.Weighted>
0.1263

> <Gold.Chemscore.DEInternal.Weighted>
1.8572

> <Gold.Chemscore.Rot.Weighted>
5.1047

> <Gold.Chemscore.Internal.Correction.Weighted>
   9.000000E+99

> <Gold.Protein.RotatedTorsions>
[ 6907 6896 6895 6894 ] final -103.27 input  -60.11 | X-H torsion
[ 7974 7965 7964 7962 ] final  103.20 input  175.53 | X-H torsion
[ 8008 7997 7996 7995 ] final -174.46 input   59.86 | X-H torsion
[ 10167 10162 10161 10158 ] final   75.82 input  -65.29 | X-H torsion
[ 10718 10713 10712 10709 ] final   16.98 input   66.30 | X-H torsion
[ 10763 10752 10751 10750 ] final   59.52 input  -60.55 | X-H torsion
[ 11005 11000 10999 10996 ] final -160.02 input  -57.11 | X-H torsion

> <Gold.Protein.ActiveResidues>
 VAL166  LYS551  ARG553  GLY616  TRP617  ASP618  TYR619  PRO620  LYS621  CYS622 
 ASP623  PHE694  ASN695  SER759  ASP760  ASP761  ALA762  ILE779  LEU786  VAL792 
 PHE793  MET794  SER795  GLU796  ALA797  LYS798  CYS799  TRP800  GLU811  SER814 

> <Gold.Protein.RotatedAtoms>
  150.7233  134.0454  159.3779 H   0  0  0  0  0  0  0  0  0  0  0  0  # atno 6907 bound_to 6896
  151.8429  135.0582  160.0459 H   0  0  0  0  0  0  0  0  0  0  0  0  # atno 6908 bound_to 6896
  152.2849  133.5469  159.5557 H   0  0  0  0  0  0  0  0  0  0  0  0  # atno 6909 bound_to 6896
  145.3491  139.2443  143.3568 H   0  0  0  0  0  0  0  0  0  0  0  0  # atno 7974 bound_to 7965
  155.9703  140.1161  157.0818 H   0  0  0  0  0  0  0  0  0  0  0  0  # atno 8008 bound_to 7997
  154.4155  140.1164  156.5365 H   0  0  0  0  0  0  0  0  0  0  0  0  # atno 8009 bound_to 7997
  155.6605  140.3473  155.4783 H   0  0  0  0  0  0  0  0  0  0  0  0  # atno 8010 bound_to 7997
  139.9988  144.5701  150.7754 H   0  0  0  0  0  0  0  0  0  0  0  0  # atno 10167 bound_to 10162
  157.0757  130.6366  149.5815 H   0  0  0  0  0  0  0  0  0  0  0  0  # atno 10718 bound_to 10713
  152.9897  135.5568  154.5727 H   0  0  0  0  0  0  0  0  0  0  0  0  # atno 10763 bound_to 10752
  154.5124  135.2803  155.1333 H   0  0  0  0  0  0  0  0  0  0  0  0  # atno 10764 bound_to 10752
  154.2720  135.6361  153.5366 H   0  0  0  0  0  0  0  0  0  0  0  0  # atno 10765 bound_to 10752
  140.6362  134.4600  157.5231 H   0  0  0  0  0  0  0  0  0  0  0  0  # atno 11005 bound_to 11000
  146.2975  140.4103  142.8716 LP  0  0  0  0  0  0  0  0  0  0  0  0  # atno 17320 bound_to 7965
  144.8731  140.7300  143.6034 LP  0  0  0  0  0  0  0  0  0  0  0  0  # atno 17321 bound_to 7965
  140.7426  143.2835  151.3530 LP  0  0  0  0  0  0  0  0  0  0  0  0  # atno 17342 bound_to 10162
  139.6286  144.0764  152.2456 LP  0  0  0  0  0  0  0  0  0  0  0  0  # atno 17343 bound_to 10162
  155.9938  130.5000  150.7394 LP  0  0  0  0  0  0  0  0  0  0  0  0  # atno 17370 bound_to 10713
  157.4842  131.0905  151.0502 LP  0  0  0  0  0  0  0  0  0  0  0  0  # atno 17371 bound_to 10713
  139.9097  134.8371  156.1572 LP  0  0  0  0  0  0  0  0  0  0  0  0  # atno 17394 bound_to 11000
  141.0640  133.6828  156.2008 LP  0  0  0  0  0  0  0  0  0  0  0  0  # atno 17395 bound_to 11000

$$$$
