AV-unprocessed.smi:3337|AV-procd|sdf|12866|dock3
  -GOLD-   2272019263D 1   1.00000     0.00000
 Structure written by MMmdl.
 46 47  0  0  0  0  0  0  0  0  2 V2000
  144.5052  132.4206  150.5674 C   0  0  0  0  0  0  0  0  0  0  0  0
  145.4114  132.7945  151.7488 C   0  0  1  0  0  0  0  0  0  0  0  0
  146.3457  131.6316  152.1271 C   0  0  0  0  0  0  0  0  0  0  0  0
  147.2865  132.0293  153.2780 C   0  0  1  0  0  0  0  0  0  0  0  0
  148.2409  130.8837  153.6430 C   0  0  0  0  0  0  0  0  0  0  0  0
  148.0615  133.3117  152.9074 C   0  0  0  0  0  0  0  0  0  0  0  0
  147.1511  134.4338  152.5579 N   0  3  2  0  0  0  0  0  0  0  0  0
  146.4928  135.0473  153.7426 C   0  0  0  0  0  0  0  0  0  0  0  0
  147.5012  135.5602  154.7880 C   0  0  0  0  0  0  0  0  0  0  0  0
  148.2408  136.7122  154.2867 N   0  0  0  0  0  0  0  0  0  0  0  0
  148.2269  137.9358  154.8404 C   0  0  0  0  0  0  0  0  0  0  0  0
  147.5653  138.2041  155.8438 O   0  0  0  0  0  0  0  0  0  0  0  0
  149.0744  139.0135  154.1416 C   0  0  1  0  0  0  0  0  0  0  0  0
  148.7018  140.4466  154.5738 C   0  0  0  0  0  0  0  0  0  0  0  0
  150.4972  138.7462  154.3172 N   0  0  0  0  0  0  0  0  0  0  0  0
  151.1988  137.6372  154.0728 C   0  0  0  0  0  0  0  0  0  0  0  0
  152.4828  137.7319  154.3872 N   0  0  0  0  0  0  0  0  0  0  0  0
  152.5081  139.0133  154.8600 C   0  0  0  0  0  0  0  0  0  0  0  0
  151.3435  139.6615  154.8519 N   0  0  0  0  0  0  0  0  0  0  0  0
  146.2336  134.0662  151.4444 C   0  0  0  0  0  0  0  0  0  0  0  0
  145.0887  132.2022  149.6723 H   0  0  0  0  0  0  0  0  0  0  0  0
  143.8180  133.2324  150.3267 H   0  0  0  0  0  0  0  0  0  0  0  0
  143.9051  131.5394  150.7961 H   0  0  0  0  0  0  0  0  0  0  0  0
  144.7582  132.9950  152.5984 H   0  0  0  0  0  0  0  0  0  0  0  0
  145.7561  130.7596  152.4131 H   0  0  0  0  0  0  0  0  0  0  0  0
  146.9344  131.3353  151.2576 H   0  0  0  0  0  0  0  0  0  0  0  0
  146.6780  132.2331  154.1601 H   0  0  0  0  0  0  0  0  0  0  0  0
  148.8862  130.6206  152.8040 H   0  0  0  0  0  0  0  0  0  0  0  0
  147.6878  129.9892  153.9310 H   0  0  0  0  0  0  0  0  0  0  0  0
  148.8807  131.1584  154.4822 H   0  0  0  0  0  0  0  0  0  0  0  0
  148.7265  133.6089  153.7193 H   0  0  0  0  0  0  0  0  0  0  0  0
  148.7059  133.1146  152.0494 H   0  0  0  0  0  0  0  0  0  0  0  0
  145.8202  135.8492  153.4392 H   0  0  0  0  0  0  0  0  0  0  0  0
  145.8657  134.2914  154.2175 H   0  0  0  0  0  0  0  0  0  0  0  0
  146.9934  135.8157  155.7199 H   0  0  0  0  0  0  0  0  0  0  0  0
  148.2344  134.7929  155.0327 H   0  0  0  0  0  0  0  0  0  0  0  0
  148.8090  136.5694  153.4641 H   0  0  0  0  0  0  0  0  0  0  0  0
  148.8642  138.9349  153.0738 H   0  0  0  0  0  0  0  0  0  0  0  0
  147.6509  140.6583  154.3735 H   0  0  0  0  0  0  0  0  0  0  0  0
  149.2912  141.1832  154.0271 H   0  0  0  0  0  0  0  0  0  0  0  0
  148.8751  140.6102  155.6384 H   0  0  0  0  0  0  0  0  0  0  0  0
  150.7606  136.7403  153.6601 H   0  0  0  0  0  0  0  0  0  0  0  0
  153.4104  139.4801  155.2270 H   0  0  0  0  0  0  0  0  0  0  0  0
  146.8417  133.8958  150.5548 H   0  0  0  0  0  0  0  0  0  0  0  0
  145.5749  134.8966  151.1941 H   0  0  0  0  0  0  0  0  0  0  0  0
  147.7526  135.1596  152.1946 H   0  0  0  0  0  0  0  0  0  0  0  0
  1  2  1  0  0  0  0
  1 21  1  0  0  0  0
  1 22  1  0  0  0  0
  1 23  1  0  0  0  0
  2 20  1  0  0  0  0
  2  3  1  0  0  0  0
  2 24  1  0  0  0  0
  3  4  1  0  0  0  0
  3 25  1  0  0  0  0
  3 26  1  0  0  0  0
  4  5  1  0  0  0  0
  4  6  1  0  0  0  0
  4 27  1  0  0  0  0
  5 28  1  0  0  0  0
  5 29  1  0  0  0  0
  5 30  1  0  0  0  0
  6  7  1  0  0  0  0
  6 31  1  0  0  0  0
  6 32  1  0  0  0  0
  7  8  1  0  0  0  0
  7 20  1  0  0  0  0
  7 46  1  0  0  0  0
  8  9  1  0  0  0  0
  8 33  1  0  0  0  0
  8 34  1  0  0  0  0
  9 10  1  0  0  0  0
  9 35  1  0  0  0  0
  9 36  1  0  0  0  0
 10 11  1  0  0  0  0
 10 37  1  0  0  0  0
 11 12  2  0  0  0  0
 11 13  1  0  0  0  0
 13 14  1  0  0  0  0
 13 15  1  0  0  0  0
 13 38  1  0  0  0  0
 14 39  1  0  0  0  0
 14 40  1  0  0  0  0
 14 41  1  0  0  0  0
 15 19  1  0  0  0  0
 15 16  1  0  0  0  0
 16 17  2  0  0  0  0
 16 42  1  0  0  0  0
 17 18  1  0  0  0  0
 18 19  2  0  0  0  0
 18 43  1  0  0  0  0
 20 44  1  0  0  0  0
 20 45  1  0  0  0  0
M  CHG  1   7   1
M  END
> <s_m_source_file>
AV-unprocessed.smi

> <i_m_source_file_index>
3337

> <i_lp_mmshare_version>
43012

> <i_f3d_flags>
0

> <s_epik_input>
W0NIM11bQ0BASF0xW0NIMl1bQ0BASF0oW0NIM10pW0NIMl1OKFtDSDJdMSlbQ0gyXVtDSDJdW05IXUMoPU8pW0NASF0oW0NIM10pbjJbY0hdbltjSF1uMg==

> <s_epik_cmdline>
J2VwaWtfcHl0aG9uJywgJy1waCcsICc3LjAnLCAnLXRuJywgJzgnLCAnLW1hJywgJzIwMCcsICctbWV0YWxfYmluZGluZycsICctaW1hZScsICc8aW5maWxlLm1hZT4nLCAnLW9tYWUnLCAnPG91dGZpbGUubWFlPic=

> <r_lp_tautomer_probability>
1

> <r_epik_Ionization_Penalty>
0.00175613

> <r_epik_Ionization_Penalty_Charging>
0.00174812

> <r_epik_Ionization_Penalty_Neutral>
8.01354e-06

> <r_epik_State_Penalty>
0.00118332

> <r_epik_Charging_Adjusted_Penalty>
0.00293143

> <i_epik_Tot_Q>
1

> <i_epik_Tot_abs_Q>
1

> <r_epik_Metal_State_Penalty>
-0

> <b_epik_Metal_Only>
0

> <s_lp_Force_Field>
OPLS_2005

> <r_lp_Energy>
23.9818

> <b_lp_Chiralities_Consistent>
1

> <s_lp_Variant>
AV-unprocessed.smi:3337-6

> <Gold.Version>
5.8.1

> <Gold.Id.Protein>
6NUR|6NUR_protein|mol2

> <Gold.PLP.Fitness>
50.9741

> <Gold.PLP.PLP>
-35.2301

> <Gold.PLP.part.hbond>
-4.0000

> <Gold.PLP.part.metal>
0.0000

> <Gold.PLP.part.buried>
-3.4540

> <Gold.PLP.part.nonpolar>
-28.6114

> <Gold.PLP.part.repulsive>
0.1664

> <Gold.PLP.ligand.clash>
0.0000

> <Gold.PLP.ligand.torsion>
0.3734

> <Gold.PLP.Chemscore.Hbond>
4.5575

> <Gold.PLP.Chemscore.CHOScore>
0.8798

> <Gold.PLP.Chemscore.Metal>
0.0000

> <Gold.Chemscore.Hbonds>
donor molecule, donor type, donor heavy atom, donor atom, acceptor molecule, acceptor atom, score
      L1  H     7    46       P1  7948  2.00
      L1  H    10    37       P1  7948  1.00
      P1  H  7989  7998       L1    19  1.00
      P1  H 10752 10763       L1    17  0.42
      L1  C    16    42       P1  7948  0.26
      L1  C    16    42       P1  7949  0.66

> <Gold.PLP.Chemscore.Internal.Correction>
0.1788

> <Gold.Rescore>
     Score         DG    S(hbond)    S(metal)    S(lipo)     H(rot)  DE(clash)    DE(int)     intcor
     14.08     -15.02       2.82        0.00      55.93       2.51       0.46       0.49       ----

> <Gold.Chemscore.Fitness>
14.0793

> <Gold.Chemscore.DG>
-15.0240

> <Gold.Chemscore.ZeroCoef>
-5.4800

> <Gold.Chemscore.Hbond>
2.8245

> <Gold.Chemscore.Metal>
0.0000

> <Gold.Chemscore.Lipo>
55.9257

> <Gold.Chemscore.Internal_Hbond>
0.0000

> <Gold.Chemscore.DEClash>
0.4586

> <Gold.Chemscore.DEInternal>
0.4861

> <Gold.Chemscore.Rot>
2.5129

> <Gold.Chemscore.Internal.Correction>
   9.000000E+99

> <Gold.Chemscore.Hbonds>
donor molecule, donor type, donor heavy atom, donor atom, acceptor molecule, acceptor atom, score
      L1  H     7    46       P1  7948  0.95
      L1  H    10    37       P1  7948  0.96
      P1  H  7989  7998       L1    19  0.13
      P1  H 10752 10763       L1    17  0.08

> <Gold.Chemscore.Hbond.Weighted>
-9.4338

> <Gold.Chemscore.Metal.Weighted>
-0.0000

> <Gold.Chemscore.Lipo.Weighted>
-6.5433

> <Gold.Chemscore.Internal_Hbond.Weighted>
0.0000

> <Gold.Chemscore.DEClash.Weighted>
0.4586

> <Gold.Chemscore.DEInternal.Weighted>
0.4861

> <Gold.Chemscore.Rot.Weighted>
6.4331

> <Gold.Chemscore.Internal.Correction.Weighted>
   9.000000E+99

> <Gold.Protein.RotatedTorsions>
[ 6907 6896 6895 6894 ] final   17.21 input  -60.11 | X-H torsion
[ 7974 7965 7964 7962 ] final  -66.81 input  175.53 | X-H torsion
[ 8008 7997 7996 7995 ] final   21.85 input   59.86 | X-H torsion
[ 10167 10162 10161 10158 ] final  -34.46 input  -65.29 | X-H torsion
[ 10718 10713 10712 10709 ] final -173.25 input   66.30 | X-H torsion
[ 10763 10752 10751 10750 ] final   41.43 input  -60.55 | X-H torsion
[ 11005 11000 10999 10996 ] final  -45.84 input  -57.11 | X-H torsion

> <Gold.Protein.ActiveResidues>
 VAL166  LYS551  ARG553  GLY616  TRP617  ASP618  TYR619  PRO620  LYS621  CYS622 
 ASP623  PHE694  ASN695  SER759  ASP760  ASP761  ALA762  ILE779  LEU786  VAL792 
 PHE793  MET794  SER795  GLU796  ALA797  LYS798  CYS799  TRP800  GLU811  SER814 

> <Gold.Protein.RotatedAtoms>
  151.8460  135.0574  160.0453 H   0  0  0  0  0  0  0  0  0  0  0  0  # atno 6907 bound_to 6896
  152.2773  133.5433  159.5484 H   0  0  0  0  0  0  0  0  0  0  0  0  # atno 6908 bound_to 6896
  150.7175  134.0530  159.3847 H   0  0  0  0  0  0  0  0  0  0  0  0  # atno 6909 bound_to 6896
  145.7371  140.8970  143.0549 H   0  0  0  0  0  0  0  0  0  0  0  0  # atno 7974 bound_to 7965
  154.9568  140.3073  155.5049 H   0  0  0  0  0  0  0  0  0  0  0  0  # atno 8008 bound_to 7997
  156.2981  140.2308  156.4589 H   0  0  0  0  0  0  0  0  0  0  0  0  # atno 8009 bound_to 7997
  154.8002  140.0434  157.1256 H   0  0  0  0  0  0  0  0  0  0  0  0  # atno 8010 bound_to 7997
  140.7185  143.3547  151.2084 H   0  0  0  0  0  0  0  0  0  0  0  0  # atno 10167 bound_to 10162
  156.7676  130.9436  151.3119 H   0  0  0  0  0  0  0  0  0  0  0  0  # atno 10718 bound_to 10713
  152.9908  135.6162  154.2786 H   0  0  0  0  0  0  0  0  0  0  0  0  # atno 10763 bound_to 10752
  154.2516  135.2785  155.2816 H   0  0  0  0  0  0  0  0  0  0  0  0  # atno 10764 bound_to 10752
  154.5283  135.5795  153.6795 H   0  0  0  0  0  0  0  0  0  0  0  0  # atno 10765 bound_to 10752
  141.0541  133.6732  156.3070 H   0  0  0  0  0  0  0  0  0  0  0  0  # atno 11005 bound_to 11000
  144.6879  139.9410  143.7475 LP  0  0  0  0  0  0  0  0  0  0  0  0  # atno 17320 bound_to 7965
  146.0483  139.3486  143.0655 LP  0  0  0  0  0  0  0  0  0  0  0  0  # atno 17321 bound_to 7965
  139.7085  143.9415  152.2937 LP  0  0  0  0  0  0  0  0  0  0  0  0  # atno 17342 bound_to 10162
  139.9132  144.6844  150.8540 LP  0  0  0  0  0  0  0  0  0  0  0  0  # atno 17343 bound_to 10162
  157.6706  130.9047  150.0031 LP  0  0  0  0  0  0  0  0  0  0  0  0  # atno 17370 bound_to 10713
  156.1299  130.3643  149.9749 LP  0  0  0  0  0  0  0  0  0  0  0  0  # atno 17371 bound_to 10713
  140.5998  134.5566  157.5515 LP  0  0  0  0  0  0  0  0  0  0  0  0  # atno 17394 bound_to 11000
  139.9375  134.7848  156.0764 LP  0  0  0  0  0  0  0  0  0  0  0  0  # atno 17395 bound_to 11000

$$$$
