AV-unprocessed.smi:61|AV-procd|sdf|597|dock10
  -GOLD-   2262016493D 1   1.00000     0.00000
 Structure written by MMmdl.
 28 29  0  0  0  0  0  0  0  0  1 V2000
  152.1285  138.6388  155.5645 N   0  0  0  0  0  0  0  0  0  0  0  0
  151.8064  139.8255  156.1759 C   0  0  0  0  0  0  0  0  0  0  0  0
  150.8518  140.5549  155.5979 N   0  0  0  0  0  0  0  0  0  0  0  0
  150.5359  141.7203  156.2012 C   0  0  0  0  0  0  0  0  0  0  0  0
  151.1803  142.1462  157.3803 C   0  0  0  0  0  0  0  0  0  0  0  0
  152.1798  141.2941  157.9075 C   0  0  0  0  0  0  0  0  0  0  0  0
  152.8786  141.6462  159.0818 N   0  0  0  0  0  0  0  0  0  0  0  0
  153.9512  140.7516  159.5056 C   0  0  0  0  0  0  0  0  0  0  0  0
  153.9109  140.7278  161.0359 C   0  0  0  0  0  0  0  0  0  0  0  0
  153.1871  142.0201  161.3971 C   0  0  0  0  0  0  0  0  0  0  0  0
  152.1824  142.1813  160.2511 C   0  0  1  0  0  0  0  0  0  0  0  0
  151.7110  143.6375  160.0606 C   0  0  0  0  0  0  0  0  0  0  0  0
  151.0916  144.1042  161.2401 O   0  0  0  0  0  0  0  0  0  0  0  0
  152.4815  140.1273  157.2863 N   0  0  0  0  0  0  0  0  0  0  0  0
  152.8432  138.0414  155.9539 H   0  0  0  0  0  0  0  0  0  0  0  0
  151.6777  138.3698  154.7023 H   0  0  0  0  0  0  0  0  0  0  0  0
  149.7627  142.3174  155.7414 H   0  0  0  0  0  0  0  0  0  0  0  0
  150.9105  143.0789  157.8530 H   0  0  0  0  0  0  0  0  0  0  0  0
  153.8434  139.7447  159.0996 H   0  0  0  0  0  0  0  0  0  0  0  0
  154.9002  141.1580  159.1543 H   0  0  0  0  0  0  0  0  0  0  0  0
  153.3230  139.8736  161.3742 H   0  0  0  0  0  0  0  0  0  0  0  0
  154.9016  140.6535  161.4849 H   0  0  0  0  0  0  0  0  0  0  0  0
  152.7097  141.9793  162.3765 H   0  0  0  0  0  0  0  0  0  0  0  0
  153.8978  142.8479  161.4022 H   0  0  0  0  0  0  0  0  0  0  0  0
  151.3210  141.5422  160.4524 H   0  0  0  0  0  0  0  0  0  0  0  0
  152.5496  144.2887  159.8113 H   0  0  0  0  0  0  0  0  0  0  0  0
  150.9904  143.7225  159.2479 H   0  0  0  0  0  0  0  0  0  0  0  0
  150.7362  144.9635  161.0722 H   0  0  0  0  0  0  0  0  0  0  0  0
  1  2  1  0  0  0  0
  1 15  1  0  0  0  0
  1 16  1  0  0  0  0
  2 14  1  0  0  0  0
  2  3  2  0  0  0  0
  3  4  1  0  0  0  0
  4  5  2  0  0  0  0
  4 17  1  0  0  0  0
  5  6  1  0  0  0  0
  5 18  1  0  0  0  0
  6  7  1  0  0  0  0
  6 14  2  0  0  0  0
  7 11  1  0  0  0  0
  7  8  1  0  0  0  0
  8  9  1  0  0  0  0
  8 19  1  0  0  0  0
  8 20  1  0  0  0  0
  9 10  1  0  0  0  0
  9 21  1  0  0  0  0
  9 22  1  0  0  0  0
 10 11  1  0  0  0  0
 10 23  1  0  0  0  0
 10 24  1  0  0  0  0
 11 12  1  0  0  0  0
 11 25  1  0  0  0  0
 12 13  1  0  0  0  0
 12 26  1  0  0  0  0
 12 27  1  0  0  0  0
 13 28  1  0  0  0  0
M  END
> <s_m_source_file>
AV-unprocessed.smi

> <i_m_source_file_index>
61

> <i_lp_mmshare_version>
43012

> <i_f3d_flags>
0

> <s_epik_input>
W05IMl1jMW5bY0hdW2NIXWMobjEpTjJbQ0gyXVtDSDJdW0NIMl1bQ0BIXTJbQ0gyXVtPSF0=

> <s_epik_cmdline>
J2VwaWtfcHl0aG9uJywgJy1waCcsICc3LjAnLCAnLXRuJywgJzgnLCAnLW1hJywgJzIwMCcsICctbWV0YWxfYmluZGluZycsICctaW1hZScsICc8aW5maWxlLm1hZT4nLCAnLW9tYWUnLCAnPG91dGZpbGUubWFlPic=

> <r_lp_tautomer_probability>
1

> <r_epik_Ionization_Penalty>
0.76024

> <r_epik_Ionization_Penalty_Charging>
0

> <r_epik_Ionization_Penalty_Neutral>
0.76024

> <r_epik_State_Penalty>
0.587668

> <r_epik_Charging_Adjusted_Penalty>
0.587668

> <i_epik_Tot_Q>
0

> <i_epik_Tot_abs_Q>
0

> <r_epik_Metal_State_Penalty>
0.307814

> <b_epik_Metal_Only>
0

> <s_lp_Force_Field>
OPLS_2005

> <r_lp_Energy>
20.8196

> <b_lp_Chiralities_Consistent>
1

> <s_lp_Variant>
AV-unprocessed.smi:61-3

> <Gold.Version>
5.8.1

> <Gold.Id.Protein>
6NUR|6NUR_protein|mol2

> <Gold.PLP.Fitness>
36.0637

> <Gold.PLP.PLP>
-28.1577

> <Gold.PLP.part.hbond>
-2.7877

> <Gold.PLP.part.metal>
0.0000

> <Gold.PLP.part.buried>
-3.9004

> <Gold.PLP.part.nonpolar>
-20.0194

> <Gold.PLP.part.repulsive>
0.2254

> <Gold.PLP.ligand.clash>
0.0000

> <Gold.PLP.ligand.torsion>
0.2144

> <Gold.PLP.Chemscore.Hbond>
1.6599

> <Gold.PLP.Chemscore.CHOScore>
1.0000

> <Gold.PLP.Chemscore.Metal>
0.0000

> <Gold.Chemscore.Hbonds>
donor molecule, donor type, donor heavy atom, donor atom, acceptor molecule, acceptor atom, score
      P1  H  7989  7998       L1     3  0.40
      P1  H  7997  8009       L1    14  0.90
      L1  C     4    17       P1  8028  0.93

> <Gold.PLP.Chemscore.Internal.Correction>
0.3552

> <Gold.Rescore>
     Score         DG    S(hbond)    S(metal)    S(lipo)     H(rot)  DE(clash)    DE(int)     intcor
     10.10     -10.34       0.70        0.00      64.47       1.96       0.03       0.21       ----

> <Gold.Chemscore.Fitness>
10.0980

> <Gold.Chemscore.DG>
-10.3423

> <Gold.Chemscore.ZeroCoef>
-5.4800

> <Gold.Chemscore.Hbond>
0.6968

> <Gold.Chemscore.Metal>
0.0000

> <Gold.Chemscore.Lipo>
64.4676

> <Gold.Chemscore.Internal_Hbond>
0.0000

> <Gold.Chemscore.DEClash>
0.0334

> <Gold.Chemscore.DEInternal>
0.2109

> <Gold.Chemscore.Rot>
1.9561

> <Gold.Chemscore.Internal.Correction>
   9.000000E+99

> <Gold.Chemscore.Hbonds>
donor molecule, donor type, donor heavy atom, donor atom, acceptor molecule, acceptor atom, score
      P1  H  7989  7998       L1     3  0.12
      P1  H  7997  8009       L1    14  0.14

> <Gold.Chemscore.Hbond.Weighted>
-2.3273

> <Gold.Chemscore.Metal.Weighted>
-0.0000

> <Gold.Chemscore.Lipo.Weighted>
-7.5427

> <Gold.Chemscore.Internal_Hbond.Weighted>
0.0000

> <Gold.Chemscore.DEClash.Weighted>
0.0334

> <Gold.Chemscore.DEInternal.Weighted>
0.2109

> <Gold.Chemscore.Rot.Weighted>
5.0077

> <Gold.Chemscore.Internal.Correction.Weighted>
   9.000000E+99

> <Gold.Protein.RotatedTorsions>
[ 6907 6896 6895 6894 ] final -146.03 input  -60.11 | X-H torsion
[ 7974 7965 7964 7962 ] final  123.51 input  175.53 | X-H torsion
[ 8008 7997 7996 7995 ] final -171.25 input   59.86 | X-H torsion
[ 10167 10162 10161 10158 ] final  174.05 input  -65.29 | X-H torsion
[ 10718 10713 10712 10709 ] final -119.93 input   66.30 | X-H torsion
[ 10763 10752 10751 10750 ] final  -29.43 input  -60.55 | X-H torsion
[ 11005 11000 10999 10996 ] final -152.13 input  -57.11 | X-H torsion

> <Gold.Protein.ActiveResidues>
 VAL166  LYS551  ARG553  GLY616  TRP617  ASP618  TYR619  PRO620  LYS621  CYS622 
 ASP623  PHE694  ASN695  SER759  ASP760  ASP761  ALA762  ILE779  LEU786  VAL792 
 PHE793  MET794  SER795  GLU796  ALA797  LYS798  CYS799  TRP800  GLU811  SER814 

> <Gold.Protein.RotatedAtoms>
  151.1360  133.5004  159.2597 H   0  0  0  0  0  0  0  0  0  0  0  0  # atno 6907 bound_to 6896
  151.1706  135.0316  159.8760 H   0  0  0  0  0  0  0  0  0  0  0  0  # atno 6908 bound_to 6896
  152.5461  134.1224  159.8457 H   0  0  0  0  0  0  0  0  0  0  0  0  # atno 6909 bound_to 6896
  145.0951  139.3558  143.4840 H   0  0  0  0  0  0  0  0  0  0  0  0  # atno 7974 bound_to 7965
  155.9291  140.1088  157.1146 H   0  0  0  0  0  0  0  0  0  0  0  0  # atno 8008 bound_to 7997
  154.4067  140.1241  156.4845 H   0  0  0  0  0  0  0  0  0  0  0  0  # atno 8009 bound_to 7997
  155.7102  140.3471  155.4973 H   0  0  0  0  0  0  0  0  0  0  0  0  # atno 8010 bound_to 7997
  139.5129  144.3191  152.0220 H   0  0  0  0  0  0  0  0  0  0  0  0  # atno 10167 bound_to 10162
  156.1219  130.6329  150.9478 H   0  0  0  0  0  0  0  0  0  0  0  0  # atno 10718 bound_to 10713
  153.7645  135.6917  153.4919 H   0  0  0  0  0  0  0  0  0  0  0  0  # atno 10763 bound_to 10752
  153.1916  135.4469  155.0155 H   0  0  0  0  0  0  0  0  0  0  0  0  # atno 10764 bound_to 10752
  154.8141  135.3390  154.7158 H   0  0  0  0  0  0  0  0  0  0  0  0  # atno 10765 bound_to 10752
  140.7222  134.3714  157.5181 H   0  0  0  0  0  0  0  0  0  0  0  0  # atno 11005 bound_to 11000
  146.3531  140.0803  142.8618 LP  0  0  0  0  0  0  0  0  0  0  0  0  # atno 17320 bound_to 7965
  145.1020  140.9352  143.4707 LP  0  0  0  0  0  0  0  0  0  0  0  0  # atno 17321 bound_to 7965
  140.2633  144.4043  150.6177 LP  0  0  0  0  0  0  0  0  0  0  0  0  # atno 17342 bound_to 10162
  140.6141  143.2171  151.6826 LP  0  0  0  0  0  0  0  0  0  0  0  0  # atno 17343 bound_to 10162
  157.6402  131.0911  150.8267 LP  0  0  0  0  0  0  0  0  0  0  0  0  # atno 17370 bound_to 10713
  156.8362  130.5032  149.5326 LP  0  0  0  0  0  0  0  0  0  0  0  0  # atno 17371 bound_to 10713
  139.8845  134.8962  156.2697 LP  0  0  0  0  0  0  0  0  0  0  0  0  # atno 17394 bound_to 11000
  140.9994  133.7161  156.0936 LP  0  0  0  0  0  0  0  0  0  0  0  0  # atno 17395 bound_to 11000

$$$$
