AV-unprocessed.smi:2675|AV-procd|sdf|10361|dock4
  -GOLD-   2272014383D 1   1.00000     0.00000
 Structure written by MMmdl.
 37 38  0  0  0  0  0  0  0  0  2 V2000
  150.7588  145.2099  159.3334 C   0  0  0  0  0  0  0  0  0  0  0  0
  151.1752  143.8577  158.8590 C   0  0  0  0  0  0  0  0  0  0  0  0
  150.7112  143.3342  157.6813 N   0  3  0  0  0  0  0  0  0  0  0  0
  151.2199  142.1193  157.4743 C   0  0  0  0  0  0  0  0  0  0  0  0
  152.0159  141.8508  158.5154 N   0  0  0  0  0  0  0  0  0  0  0  0
  152.7406  140.5766  158.6238 C   0  0  0  0  0  0  0  0  0  0  0  0
  152.2267  139.5605  157.6036 C   0  0  0  0  0  0  0  0  0  0  0  0
  152.8991  139.3061  156.6063 O   0  0  0  0  0  0  0  0  0  0  0  0
  151.0388  138.9924  157.8762 N   0  0  0  0  0  0  0  0  0  0  0  0
  150.3252  137.9588  157.1142 C   0  0  2  0  0  0  0  0  0  0  0  0
  149.1022  138.6570  156.4963 C   0  0  0  0  0  0  0  0  0  0  0  0
  149.8272  136.8806  157.9911 C   0  0  0  0  0  0  0  0  0  0  0  0
  149.4391  136.0343  158.6786 N   0  0  0  0  0  0  0  0  0  0  0  0
  151.1297  137.3060  155.9884 C   0  0  0  0  0  0  0  0  0  0  0  0
  151.2723  137.8869  154.5987 C   0  0  0  0  0  0  0  0  0  0  0  0
  150.4669  136.6245  154.8123 C   0  0  0  0  0  0  0  0  0  0  0  0
  152.0146  142.9088  159.3986 C   0  0  0  0  0  0  0  0  0  0  0  0
  152.8076  142.9114  160.6661 C   0  0  0  0  0  0  0  0  0  0  0  0
  151.2098  145.4395  160.2984 H   0  0  0  0  0  0  0  0  0  0  0  0
  149.6748  145.2535  159.4408 H   0  0  0  0  0  0  0  0  0  0  0  0
  151.0691  145.9718  158.6179 H   0  0  0  0  0  0  0  0  0  0  0  0
  151.0222  141.4798  156.6326 H   0  0  0  0  0  0  0  0  0  0  0  0
  153.8059  140.7631  158.4779 H   0  0  0  0  0  0  0  0  0  0  0  0
  152.6207  140.1895  159.6362 H   0  0  0  0  0  0  0  0  0  0  0  0
  150.5767  139.2976  158.7199 H   0  0  0  0  0  0  0  0  0  0  0  0
  148.4860  137.9531  155.9354 H   0  0  0  0  0  0  0  0  0  0  0  0
  149.4010  139.4504  155.8102 H   0  0  0  0  0  0  0  0  0  0  0  0
  148.4684  139.1028  157.2642 H   0  0  0  0  0  0  0  0  0  0  0  0
  152.0282  136.8136  156.3574 H   0  0  0  0  0  0  0  0  0  0  0  0
  150.7223  138.7870  154.3395 H   0  0  0  0  0  0  0  0  0  0  0  0
  152.2410  137.7855  154.1135 H   0  0  0  0  0  0  0  0  0  0  0  0
  150.8998  135.6872  154.4687 H   0  0  0  0  0  0  0  0  0  0  0  0
  149.3861  136.6994  154.7128 H   0  0  0  0  0  0  0  0  0  0  0  0
  152.6757  143.8499  161.2035 H   0  0  0  0  0  0  0  0  0  0  0  0
  153.8691  142.7885  160.4504 H   0  0  0  0  0  0  0  0  0  0  0  0
  152.4851  142.0988  161.3170 H   0  0  0  0  0  0  0  0  0  0  0  0
  150.0694  143.8024  157.0538 H   0  0  0  0  0  0  0  0  0  0  0  0
  1  2  1  0  0  0  0
  1 19  1  0  0  0  0
  1 20  1  0  0  0  0
  1 21  1  0  0  0  0
  2 17  2  0  0  0  0
  2  3  1  0  0  0  0
  3  4  2  0  0  0  0
  3 37  1  0  0  0  0
  4  5  1  0  0  0  0
  4 22  1  0  0  0  0
  5  6  1  0  0  0  0
  5 17  1  0  0  0  0
  6  7  1  0  0  0  0
  6 23  1  0  0  0  0
  6 24  1  0  0  0  0
  7  8  2  0  0  0  0
  7  9  1  0  0  0  0
  9 10  1  0  0  0  0
  9 25  1  0  0  0  0
 10 11  1  0  0  0  0
 10 12  1  0  0  0  0
 10 14  1  0  0  0  0
 11 26  1  0  0  0  0
 11 27  1  0  0  0  0
 11 28  1  0  0  0  0
 12 13  3  0  0  0  0
 14 16  1  0  0  0  0
 14 15  1  0  0  0  0
 14 29  1  0  0  0  0
 15 16  1  0  0  0  0
 15 30  1  0  0  0  0
 15 31  1  0  0  0  0
 16 32  1  0  0  0  0
 16 33  1  0  0  0  0
 17 18  1  0  0  0  0
 18 34  1  0  0  0  0
 18 35  1  0  0  0  0
 18 36  1  0  0  0  0
M  CHG  1   3   1
M  END
> <s_m_source_file>
AV-unprocessed.smi

> <i_m_source_file_index>
2675

> <i_lp_mmshare_version>
43012

> <i_f3d_flags>
0

> <s_epik_input>
W0NIM11jMW5bY0hdbihjMVtDSDNdKVtDSDJdQyg9TylbTkhdW0NAQF0oW0NIM10pKEMjTilbQ0hdMltDSDJdW0NIMl0y

> <s_epik_cmdline>
J2VwaWtfcHl0aG9uJywgJy1waCcsICc3LjAnLCAnLXRuJywgJzgnLCAnLW1hJywgJzIwMCcsICctbWV0YWxfYmluZGluZycsICctaW1hZScsICc8aW5maWxlLm1hZT4nLCAnLW9tYWUnLCAnPG91dGZpbGUubWFlPic=

> <r_lp_tautomer_probability>
1

> <r_epik_Ionization_Penalty>
0.153253

> <r_epik_Ionization_Penalty_Charging>
0

> <r_epik_Ionization_Penalty_Neutral>
0.153253

> <r_epik_State_Penalty>
0.14254

> <r_epik_Charging_Adjusted_Penalty>
0.14254

> <i_epik_Tot_Q>
1

> <i_epik_Tot_abs_Q>
1

> <r_epik_Metal_State_Penalty>
0.466899

> <b_epik_Metal_Only>
0

> <s_lp_Force_Field>
OPLS_2005

> <r_lp_Energy>
18.2942

> <b_lp_Chiralities_Consistent>
1

> <s_lp_Variant>
AV-unprocessed.smi:2675-2

> <Gold.Version>
5.8.1

> <Gold.Id.Protein>
6NUR|6NUR_protein|mol2

> <Gold.PLP.Fitness>
42.1201

> <Gold.PLP.PLP>
-31.4321

> <Gold.PLP.part.hbond>
-3.0000

> <Gold.PLP.part.metal>
0.0000

> <Gold.PLP.part.buried>
-5.3423

> <Gold.PLP.part.nonpolar>
-23.4577

> <Gold.PLP.part.repulsive>
0.0721

> <Gold.PLP.ligand.clash>
0.3280

> <Gold.PLP.ligand.torsion>
1.2401

> <Gold.PLP.Chemscore.Hbond>
4.0000

> <Gold.PLP.Chemscore.CHOScore>
0.0000

> <Gold.PLP.Chemscore.Metal>
0.0000

> <Gold.Chemscore.Hbonds>
donor molecule, donor type, donor heavy atom, donor atom, acceptor molecule, acceptor atom, score
      L1  H     3    37       P1  8028  2.00
      P1  H  6896  6909       L1    13  0.81
      P1  H  7997  8009       L1     8  1.00

> <Gold.PLP.Chemscore.Internal.Correction>
1.4962

> <Gold.Rescore>
     Score         DG    S(hbond)    S(metal)    S(lipo)     H(rot)  DE(clash)    DE(int)     intcor
     16.07     -18.85       2.95        0.00      69.50       1.80       0.00       2.79       ----

> <Gold.Chemscore.Fitness>
16.0661

> <Gold.Chemscore.DG>
-18.8516

> <Gold.Chemscore.ZeroCoef>
-5.4800

> <Gold.Chemscore.Hbond>
2.9450

> <Gold.Chemscore.Metal>
0.0000

> <Gold.Chemscore.Lipo>
69.5013

> <Gold.Chemscore.Internal_Hbond>
0.0000

> <Gold.Chemscore.DEClash>
0.0000

> <Gold.Chemscore.DEInternal>
2.7855

> <Gold.Chemscore.Rot>
1.7955

> <Gold.Chemscore.Internal.Correction>
   9.000000E+99

> <Gold.Chemscore.Hbonds>
donor molecule, donor type, donor heavy atom, donor atom, acceptor molecule, acceptor atom, score
      L1  H     3    37       P1  8028  0.91
      P1  H  6896  6909       L1    13  0.75
      P1  H  7997  8009       L1     8  0.96

> <Gold.Chemscore.Hbond.Weighted>
-9.8364

> <Gold.Chemscore.Metal.Weighted>
-0.0000

> <Gold.Chemscore.Lipo.Weighted>
-8.1317

> <Gold.Chemscore.Internal_Hbond.Weighted>
0.0000

> <Gold.Chemscore.DEClash.Weighted>
0.0000

> <Gold.Chemscore.DEInternal.Weighted>
2.7855

> <Gold.Chemscore.Rot.Weighted>
4.5965

> <Gold.Chemscore.Internal.Correction.Weighted>
   9.000000E+99

> <Gold.Protein.RotatedTorsions>
[ 6907 6896 6895 6894 ] final   74.70 input  -60.11 | X-H torsion
[ 7974 7965 7964 7962 ] final   98.38 input  175.53 | X-H torsion
[ 8008 7997 7996 7995 ] final -153.20 input   59.86 | X-H torsion
[ 10167 10162 10161 10158 ] final  -57.77 input  -65.29 | X-H torsion
[ 10718 10713 10712 10709 ] final -169.63 input   66.30 | X-H torsion
[ 10763 10752 10751 10750 ] final  125.75 input  -60.55 | X-H torsion
[ 11005 11000 10999 10996 ] final  -75.56 input  -57.11 | X-H torsion

> <Gold.Protein.ActiveResidues>
 VAL166  LYS551  ARG553  GLY616  TRP617  ASP618  TYR619  PRO620  LYS621  CYS622 
 ASP623  PHE694  ASN695  SER759  ASP760  ASP761  ALA762  ILE779  LEU786  VAL792 
 PHE793  MET794  SER795  GLU796  ALA797  LYS798  CYS799  TRP800  GLU811  SER814 

> <Gold.Protein.RotatedAtoms>
  152.4989  134.4232  159.9487 H   0  0  0  0  0  0  0  0  0  0  0  0  # atno 6907 bound_to 6896
  151.4206  133.3693  159.2763 H   0  0  0  0  0  0  0  0  0  0  0  0  # atno 6908 bound_to 6896
  150.9225  134.8665  159.7558 H   0  0  0  0  0  0  0  0  0  0  0  0  # atno 6909 bound_to 6896
  145.4129  139.2331  143.3238 H   0  0  0  0  0  0  0  0  0  0  0  0  # atno 7974 bound_to 7965
  155.6672  140.0729  157.2533 H   0  0  0  0  0  0  0  0  0  0  0  0  # atno 8008 bound_to 7997
  154.4130  140.1705  156.1891 H   0  0  0  0  0  0  0  0  0  0  0  0  # atno 8009 bound_to 7997
  155.9648  140.3367  155.6525 H   0  0  0  0  0  0  0  0  0  0  0  0  # atno 8010 bound_to 7997
  140.6238  143.2430  151.5415 H   0  0  0  0  0  0  0  0  0  0  0  0  # atno 10167 bound_to 10162
  156.7143  130.9245  151.3092 H   0  0  0  0  0  0  0  0  0  0  0  0  # atno 10718 bound_to 10713
  153.6823  135.3312  155.3181 H   0  0  0  0  0  0  0  0  0  0  0  0  # atno 10763 bound_to 10752
  154.8462  135.4412  154.1594 H   0  0  0  0  0  0  0  0  0  0  0  0  # atno 10764 bound_to 10752
  153.2613  135.6991  153.7652 H   0  0  0  0  0  0  0  0  0  0  0  0  # atno 10765 bound_to 10752
  141.1646  133.6951  156.7535 H   0  0  0  0  0  0  0  0  0  0  0  0  # atno 11005 bound_to 11000
  146.2696  140.4843  142.8820 LP  0  0  0  0  0  0  0  0  0  0  0  0  # atno 17320 bound_to 7965
  144.8297  140.6686  143.6299 LP  0  0  0  0  0  0  0  0  0  0  0  0  # atno 17321 bound_to 7965
  139.5462  144.2516  152.1446 LP  0  0  0  0  0  0  0  0  0  0  0  0  # atno 17342 bound_to 10162
  140.1742  144.4906  150.6563 LP  0  0  0  0  0  0  0  0  0  0  0  0  # atno 17343 bound_to 10162
  157.6923  130.9246  150.0549 LP  0  0  0  0  0  0  0  0  0  0  0  0  # atno 17370 bound_to 10713
  156.1639  130.3644  149.9260 LP  0  0  0  0  0  0  0  0  0  0  0  0  # atno 17371 bound_to 10713
  140.2586  134.8484  157.3737 LP  0  0  0  0  0  0  0  0  0  0  0  0  # atno 17394 bound_to 11000
  140.1633  134.4701  155.7880 LP  0  0  0  0  0  0  0  0  0  0  0  0  # atno 17395 bound_to 11000

$$$$
