AV-unprocessed.smi:1803|AV-procd|sdf|7281|dock8
  -GOLD-   22720 8543D 1   1.00000     0.00000
 Structure written by MMmdl.
 36 38  0  0  0  0  0  0  0  0  2 V2000
  150.3194  134.5167  155.7599 O   0  0  0  0  0  0  0  0  0  0  0  0
  149.8918  134.9897  154.7087 C   0  0  0  0  0  0  0  0  0  0  0  0
  150.2928  136.2054  154.2788 N   0  0  0  0  0  0  0  0  0  0  0  0
  151.1950  137.1589  154.8363 C   0  0  0  0  0  0  0  0  0  0  0  0
  152.2218  136.8537  155.6469 N   0  0  0  0  0  0  0  0  0  0  0  0
  152.9393  137.9788  156.0296 N   0  0  0  0  0  0  0  0  0  0  0  0
  152.4323  139.0899  155.4888 C   0  0  0  0  0  0  0  0  0  0  0  0
  151.0278  138.8687  154.4603 S   0  0  0  0  0  0  0  0  0  0  0  0
  149.0134  134.3399  153.9276 N   0  0  0  0  0  0  0  0  0  0  0  0
  148.4398  133.0265  154.2016 C   0  0  2  0  0  0  0  0  0  0  0  0
  149.5068  131.9254  154.3330 C   0  0  0  0  0  0  0  0  0  0  0  0
  148.8948  130.6795  153.6626 C   0  0  0  0  0  0  0  0  0  0  0  0
  147.5223  131.0710  153.2900 N   0  3  2  0  0  0  0  0  0  0  0  0
  146.8853  130.3236  152.1839 C   0  0  0  0  0  0  0  0  0  0  0  0
  145.4364  130.8196  152.0041 C   0  0  0  0  0  0  0  0  0  0  0  0
  145.3735  132.3507  151.8297 C   0  0  0  0  0  0  0  0  0  0  0  0
  146.1341  133.0714  152.9594 C   0  0  0  0  0  0  0  0  0  0  0  0
  147.5677  132.5211  153.0493 C   0  0  1  0  0  0  0  0  0  0  0  0
  149.9037  136.4783  153.3876 H   0  0  0  0  0  0  0  0  0  0  0  0
  152.8891  140.0464  155.6962 H   0  0  0  0  0  0  0  0  0  0  0  0
  148.7160  134.7989  153.0781 H   0  0  0  0  0  0  0  0  0  0  0  0
  147.8528  133.0472  155.1224 H   0  0  0  0  0  0  0  0  0  0  0  0
  150.4306  132.2013  153.8220 H   0  0  0  0  0  0  0  0  0  0  0  0
  149.7545  131.7432  155.3793 H   0  0  0  0  0  0  0  0  0  0  0  0
  149.4655  130.4173  152.7702 H   0  0  0  0  0  0  0  0  0  0  0  0
  148.8838  129.8133  154.3246 H   0  0  0  0  0  0  0  0  0  0  0  0
  147.4548  130.4632  151.2638 H   0  0  0  0  0  0  0  0  0  0  0  0
  146.8928  129.2569  152.4102 H   0  0  0  0  0  0  0  0  0  0  0  0
  144.9755  130.3261  151.1480 H   0  0  0  0  0  0  0  0  0  0  0  0
  144.8474  130.5342  152.8770 H   0  0  0  0  0  0  0  0  0  0  0  0
  145.8096  132.6238  150.8679 H   0  0  0  0  0  0  0  0  0  0  0  0
  144.3354  132.6837  151.8037 H   0  0  0  0  0  0  0  0  0  0  0  0
  146.1494  134.1447  152.7691 H   0  0  0  0  0  0  0  0  0  0  0  0
  145.6154  132.9280  153.9084 H   0  0  0  0  0  0  0  0  0  0  0  0
  148.0854  132.7001  152.1037 H   0  0  0  0  0  0  0  0  0  0  0  0
  146.9519  130.9367  154.1128 H   0  0  0  0  0  0  0  0  0  0  0  0
  1  2  2  0  0  0  0
  2  3  1  0  0  0  0
  2  9  1  0  0  0  0
  3  4  1  0  0  0  0
  3 19  1  0  0  0  0
  4  8  1  0  0  0  0
  4  5  2  0  0  0  0
  5  6  1  0  0  0  0
  6  7  2  0  0  0  0
  7  8  1  0  0  0  0
  7 20  1  0  0  0  0
  9 10  1  0  0  0  0
  9 21  1  0  0  0  0
 10 18  1  0  0  0  0
 10 11  1  0  0  0  0
 10 22  1  0  0  0  0
 11 12  1  0  0  0  0
 11 23  1  0  0  0  0
 11 24  1  0  0  0  0
 12 13  1  0  0  0  0
 12 25  1  0  0  0  0
 12 26  1  0  0  0  0
 13 18  1  0  0  0  0
 13 14  1  0  0  0  0
 13 36  1  0  0  0  0
 14 15  1  0  0  0  0
 14 27  1  0  0  0  0
 14 28  1  0  0  0  0
 15 16  1  0  0  0  0
 15 29  1  0  0  0  0
 15 30  1  0  0  0  0
 16 17  1  0  0  0  0
 16 31  1  0  0  0  0
 16 32  1  0  0  0  0
 17 18  1  0  0  0  0
 17 33  1  0  0  0  0
 17 34  1  0  0  0  0
 18 35  1  0  0  0  0
M  CHG  1  13   1
M  END
> <s_m_source_file>
AV-unprocessed.smi

> <i_m_source_file_index>
1803

> <i_lp_mmshare_version>
43012

> <i_f3d_flags>
0

> <s_epik_input>
czFbY0hdbm5jMVtOSF1DKD1PKVtOSF1bQ0BIXShbQ0gyXVtDSDJdMilbQ0BASF0oTjIzKVtDSDJdW0NIMl1bQ0gyXVtDSDJdMw==

> <s_epik_cmdline>
J2VwaWtfcHl0aG9uJywgJy1waCcsICc3LjAnLCAnLXRuJywgJzgnLCAnLW1hJywgJzIwMCcsICctbWV0YWxfYmluZGluZycsICctaW1hZScsICc8aW5maWxlLm1hZT4nLCAnLW9tYWUnLCAnPG91dGZpbGUubWFlPic=

> <r_lp_tautomer_probability>
1

> <r_epik_Ionization_Penalty>
0.00213286

> <r_epik_Ionization_Penalty_Charging>
0.00107044

> <r_epik_Ionization_Penalty_Neutral>
0.00106242

> <r_epik_State_Penalty>
-0

> <r_epik_Charging_Adjusted_Penalty>
0.00107044

> <i_epik_Tot_Q>
1

> <i_epik_Tot_abs_Q>
1

> <r_epik_Metal_State_Penalty>
0.292783

> <b_epik_Metal_Only>
0

> <s_lp_Force_Field>
OPLS_2005

> <r_lp_Energy>
35.8307

> <b_lp_Chiralities_Consistent>
1

> <s_lp_Variant>
AV-unprocessed.smi:1803-3

> <Gold.Version>
5.8.1

> <Gold.Id.Protein>
6NUR|6NUR_protein|mol2

> <Gold.PLP.Fitness>
37.6326

> <Gold.PLP.PLP>
-29.2181

> <Gold.PLP.part.hbond>
-4.0000

> <Gold.PLP.part.metal>
0.0000

> <Gold.PLP.part.buried>
-0.2493

> <Gold.PLP.part.nonpolar>
-24.9651

> <Gold.PLP.part.repulsive>
0.1415

> <Gold.PLP.ligand.clash>
0.0000

> <Gold.PLP.ligand.torsion>
0.1626

> <Gold.PLP.Chemscore.Hbond>
2.9100

> <Gold.PLP.Chemscore.CHOScore>
0.0000

> <Gold.PLP.Chemscore.Metal>
0.0000

> <Gold.Chemscore.Hbonds>
donor molecule, donor type, donor heavy atom, donor atom, acceptor molecule, acceptor atom, score
      L1  H     3    19       P1  7948  0.85
      L1  H     9    21       P1  7948  0.96
      P1  H 10752 10765       L1     5  0.98

> <Gold.PLP.Chemscore.Internal.Correction>
0.0096

> <Gold.Rescore>
     Score         DG    S(hbond)    S(metal)    S(lipo)     H(rot)  DE(clash)    DE(int)     intcor
     14.94     -17.73       2.21        0.00      63.32       1.00       1.44       1.34       ----

> <Gold.Chemscore.Fitness>
14.9429

> <Gold.Chemscore.DG>
-17.7252

> <Gold.Chemscore.ZeroCoef>
-5.4800

> <Gold.Chemscore.Hbond>
2.2147

> <Gold.Chemscore.Metal>
0.0000

> <Gold.Chemscore.Lipo>
63.3181

> <Gold.Chemscore.Internal_Hbond>
0.0000

> <Gold.Chemscore.DEClash>
1.4392

> <Gold.Chemscore.DEInternal>
1.3432

> <Gold.Chemscore.Rot>
1.0000

> <Gold.Chemscore.Internal.Correction>
   9.000000E+99

> <Gold.Chemscore.Hbonds>
donor molecule, donor type, donor heavy atom, donor atom, acceptor molecule, acceptor atom, score
      L1  H     3    19       P1  7948  0.14
      L1  H     9    21       P1  7948  0.28
      P1  H 10752 10765       L1     5  0.45

> <Gold.Chemscore.Hbond.Weighted>
-7.3970

> <Gold.Chemscore.Metal.Weighted>
-0.0000

> <Gold.Chemscore.Lipo.Weighted>
-7.4082

> <Gold.Chemscore.Internal_Hbond.Weighted>
0.0000

> <Gold.Chemscore.DEClash.Weighted>
1.4392

> <Gold.Chemscore.DEInternal.Weighted>
1.3432

> <Gold.Chemscore.Rot.Weighted>
2.5600

> <Gold.Chemscore.Internal.Correction.Weighted>
   9.000000E+99

> <Gold.Protein.RotatedTorsions>
[ 6907 6896 6895 6894 ] final  173.80 input  -60.11 | X-H torsion
[ 7974 7965 7964 7962 ] final -175.47 input  175.53 | X-H torsion
[ 8008 7997 7996 7995 ] final -108.11 input   59.86 | X-H torsion
[ 10167 10162 10161 10158 ] final   63.22 input  -65.29 | X-H torsion
[ 10718 10713 10712 10709 ] final  110.34 input   66.30 | X-H torsion
[ 10763 10752 10751 10750 ] final -163.98 input  -60.55 | X-H torsion
[ 11005 11000 10999 10996 ] final -125.52 input  -57.11 | X-H torsion

> <Gold.Protein.ActiveResidues>
 VAL166  LYS551  ARG553  GLY616  TRP617  ASP618  TYR619  PRO620  LYS621  CYS622 
 ASP623  PHE694  ASN695  SER759  ASP760  ASP761  ALA762  ILE779  LEU786  VAL792 
 PHE793  MET794  SER795  GLU796  ALA797  LYS798  CYS799  TRP800  GLU811  SER814 

> <Gold.Protein.RotatedAtoms>
  151.7625  133.3335  159.3421 H   0  0  0  0  0  0  0  0  0  0  0  0  # atno 6907 bound_to 6896
  150.7492  134.6092  159.6087 H   0  0  0  0  0  0  0  0  0  0  0  0  # atno 6908 bound_to 6896
  152.3395  134.7155  160.0319 H   0  0  0  0  0  0  0  0  0  0  0  0  # atno 6909 bound_to 6896
  144.7128  140.1315  143.6398 H   0  0  0  0  0  0  0  0  0  0  0  0  # atno 7974 bound_to 7965
  154.9394  140.0403  157.2089 H   0  0  0  0  0  0  0  0  0  0  0  0  # atno 8008 bound_to 7997
  154.8084  140.2863  155.5849 H   0  0  0  0  0  0  0  0  0  0  0  0  # atno 8009 bound_to 7997
  156.2969  140.2541  156.2967 H   0  0  0  0  0  0  0  0  0  0  0  0  # atno 8010 bound_to 7997
  140.1354  144.4604  150.6841 H   0  0  0  0  0  0  0  0  0  0  0  0  # atno 10167 bound_to 10162
  157.6499  131.0931  150.6588 H   0  0  0  0  0  0  0  0  0  0  0  0  # atno 10718 bound_to 10713
  154.7072  135.2999  154.9252 H   0  0  0  0  0  0  0  0  0  0  0  0  # atno 10763 bound_to 10752
  154.0166  135.6688  153.4773 H   0  0  0  0  0  0  0  0  0  0  0  0  # atno 10764 bound_to 10752
  153.0726  135.5052  154.8249 H   0  0  0  0  0  0  0  0  0  0  0  0  # atno 10765 bound_to 10752
  140.9756  134.0745  157.3822 H   0  0  0  0  0  0  0  0  0  0  0  0  # atno 11005 bound_to 11000
  145.9282  139.2589  143.1341 LP  0  0  0  0  0  0  0  0  0  0  0  0  # atno 17320 bound_to 7965
  145.9550  140.8879  143.0240 LP  0  0  0  0  0  0  0  0  0  0  0  0  # atno 17321 bound_to 7965
  140.6792  143.2319  151.5428 LP  0  0  0  0  0  0  0  0  0  0  0  0  # atno 17342 bound_to 10162
  139.5498  144.2424  152.1510 LP  0  0  0  0  0  0  0  0  0  0  0  0  # atno 17343 bound_to 10162
  156.6900  130.4592  149.5602 LP  0  0  0  0  0  0  0  0  0  0  0  0  # atno 17370 bound_to 10713
  156.1868  130.6534  151.1016 LP  0  0  0  0  0  0  0  0  0  0  0  0  # atno 17371 bound_to 10713
  139.8929  135.0127  156.6871 LP  0  0  0  0  0  0  0  0  0  0  0  0  # atno 17394 bound_to 11000
  140.7264  133.9096  155.8181 LP  0  0  0  0  0  0  0  0  0  0  0  0  # atno 17395 bound_to 11000

$$$$
