AV-unprocessed.smi:2510|AV-procd|sdf|9884|dock2
  -GOLD-   2272013523D 1   1.00000     0.00000
 Structure written by MMmdl.
 48 49  0  0  0  0  0  0  0  0  1 V2000
  151.4073  137.3327  155.4048 C   0  0  0  0  0  0  0  0  0  0  0  0
  149.9787  136.9402  154.9830 C   0  0  0  0  0  0  0  0  0  0  0  0
  149.3463  135.7075  155.6909 C   0  0  0  0  0  0  0  0  0  0  0  0
  148.9465  136.0966  157.1309 C   0  0  0  0  0  0  0  0  0  0  0  0
  150.1048  136.6012  158.0067 C   0  0  0  0  0  0  0  0  0  0  0  0
  148.2811  134.8847  154.9125 C   0  0  1  0  0  0  0  0  0  0  0  0
  147.5345  135.6188  153.8979 N   0  0  0  0  0  0  0  0  0  0  0  0
  146.2167  135.8633  153.9534 C   0  0  0  0  0  0  0  0  0  0  0  0
  145.5002  135.5153  154.8918 O   0  0  0  0  0  0  0  0  0  0  0  0
  145.6145  136.6192  152.7696 C   0  0  0  0  0  0  0  0  0  0  0  0
  145.0921  135.6661  151.7436 C   0  0  0  0  0  0  0  0  0  0  0  0
  145.0580  134.2999  151.7163 C   0  0  0  0  0  0  0  0  0  0  0  0
  144.4431  133.9869  150.4688 C   0  0  0  0  0  0  0  0  0  0  0  0
  144.1480  132.6321  149.8957 C   0  0  0  0  0  0  0  0  0  0  0  0
  144.1161  135.0703  149.7799 N   0  0  0  0  0  0  0  0  0  0  0  0
  144.5140  136.0869  150.5669 N   0  0  0  0  0  0  0  0  0  0  0  0
  149.4002  134.0307  154.3092 C   0  0  2  0  0  0  0  0  0  0  0  0
  149.1321  132.5695  153.9700 C   0  0  0  0  0  0  0  0  0  0  0  0
  150.2118  134.4208  155.5583 C   0  0  2  0  0  0  0  0  0  0  0  0
  150.0078  133.5199  156.6423 O   0  0  0  0  0  0  0  0  0  0  0  0
  150.7256  132.3058  156.5001 C   0  0  0  0  0  0  0  0  0  0  0  0
  144.3885  137.0500  150.2901 H   0  0  0  0  0  0  0  0  0  0  0  0
  151.6952  138.2722  154.9331 H   0  0  0  0  0  0  0  0  0  0  0  0
  152.1418  136.5890  155.0970 H   0  0  0  0  0  0  0  0  0  0  0  0
  151.4998  137.4697  156.4800 H   0  0  0  0  0  0  0  0  0  0  0  0
  149.3481  137.8171  155.1278 H   0  0  0  0  0  0  0  0  0  0  0  0
  149.9767  136.7843  153.9041 H   0  0  0  0  0  0  0  0  0  0  0  0
  148.1442  136.8335  157.1253 H   0  0  0  0  0  0  0  0  0  0  0  0
  148.5054  135.2355  157.6339 H   0  0  0  0  0  0  0  0  0  0  0  0
  149.7627  136.7837  159.0255 H   0  0  0  0  0  0  0  0  0  0  0  0
  150.5196  137.5366  157.6325 H   0  0  0  0  0  0  0  0  0  0  0  0
  150.9130  135.8716  158.0577 H   0  0  0  0  0  0  0  0  0  0  0  0
  147.6499  134.2872  155.5755 H   0  0  0  0  0  0  0  0  0  0  0  0
  148.0498  135.9452  153.0934 H   0  0  0  0  0  0  0  0  0  0  0  0
  144.8082  137.2601  153.1281 H   0  0  0  0  0  0  0  0  0  0  0  0
  146.3628  137.2799  152.3290 H   0  0  0  0  0  0  0  0  0  0  0  0
  145.4228  133.6228  152.4745 H   0  0  0  0  0  0  0  0  0  0  0  0
  144.4909  131.8393  150.5607 H   0  0  0  0  0  0  0  0  0  0  0  0
  144.6443  132.4954  148.9346 H   0  0  0  0  0  0  0  0  0  0  0  0
  143.0775  132.4958  149.7422 H   0  0  0  0  0  0  0  0  0  0  0  0
  149.8300  134.5353  153.4420 H   0  0  0  0  0  0  0  0  0  0  0  0
  148.6959  132.0344  154.8137 H   0  0  0  0  0  0  0  0  0  0  0  0
  150.0501  132.0541  153.6878 H   0  0  0  0  0  0  0  0  0  0  0  0
  148.4368  132.4834  153.1350 H   0  0  0  0  0  0  0  0  0  0  0  0
  151.2647  134.6327  155.3625 H   0  0  0  0  0  0  0  0  0  0  0  0
  150.4980  131.6458  157.3370 H   0  0  0  0  0  0  0  0  0  0  0  0
  151.8010  132.4875  156.4996 H   0  0  0  0  0  0  0  0  0  0  0  0
  150.4607  131.7860  155.5794 H   0  0  0  0  0  0  0  0  0  0  0  0
  1  2  1  0  0  0  0
  1 23  1  0  0  0  0
  1 24  1  0  0  0  0
  1 25  1  0  0  0  0
  2  3  1  0  0  0  0
  2 26  1  0  0  0  0
  2 27  1  0  0  0  0
  3 19  1  0  0  0  0
  3  4  1  0  0  0  0
  3  6  1  0  0  0  0
  4  5  1  0  0  0  0
  4 28  1  0  0  0  0
  4 29  1  0  0  0  0
  5 30  1  0  0  0  0
  5 31  1  0  0  0  0
  5 32  1  0  0  0  0
  6  7  1  0  0  0  0
  6 17  1  0  0  0  0
  6 33  1  0  0  0  0
  7  8  1  0  0  0  0
  7 34  1  0  0  0  0
  8  9  2  0  0  0  0
  8 10  1  0  0  0  0
 10 35  1  0  0  0  0
 10 36  1  0  0  0  0
 10 11  1  0  0  0  0
 11 16  1  0  0  0  0
 11 12  2  0  0  0  0
 12 13  1  0  0  0  0
 12 37  1  0  0  0  0
 13 14  1  0  0  0  0
 13 15  2  0  0  0  0
 14 38  1  0  0  0  0
 14 39  1  0  0  0  0
 14 40  1  0  0  0  0
 15 16  1  0  0  0  0
 16 22  1  0  0  0  0
 17 18  1  0  0  0  0
 17 19  1  0  0  0  0
 17 41  1  0  0  0  0
 18 42  1  0  0  0  0
 18 43  1  0  0  0  0
 18 44  1  0  0  0  0
 19 20  1  0  0  0  0
 19 45  1  0  0  0  0
 20 21  1  0  0  0  0
 21 46  1  0  0  0  0
 21 47  1  0  0  0  0
 21 48  1  0  0  0  0
M  END
> <s_m_source_file>
AV-unprocessed.smi

> <i_m_source_file_index>
2510

> <i_lp_mmshare_version>
43012

> <i_f3d_flags>
0

> <s_epik_input>
W0NIM11PW0NAQEhdMVtDQEhdKFtDSDNdKVtDQEBIXShDMShbQ0gyXVtDSDNdKVtDSDJdW0NIM10pW05IXUMoPU8pW0NIMl1jMltjSF1jKFtDSDNdKVtuSF1uMg==

> <s_epik_cmdline>
J2VwaWtfcHl0aG9uJywgJy1waCcsICc3LjAnLCAnLXRuJywgJzgnLCAnLW1hJywgJzIwMCcsICctbWV0YWxfYmluZGluZycsICctaW1hZScsICc8aW5maWxlLm1hZT4nLCAnLW9tYWUnLCAnPG91dGZpbGUubWFlPic=

> <r_lp_tautomer_probability>
0.5

> <r_epik_Ionization_Penalty>
0.000134763

> <r_epik_Ionization_Penalty_Charging>
0

> <r_epik_Ionization_Penalty_Neutral>
0.000134763

> <r_epik_State_Penalty>
0.41068

> <r_epik_Charging_Adjusted_Penalty>
0.41068

> <i_epik_Tot_Q>
0

> <i_epik_Tot_abs_Q>
0

> <r_epik_Metal_State_Penalty>
0.410661

> <b_epik_Metal_Only>
0

> <s_lp_Force_Field>
OPLS_2005

> <r_lp_Energy>
27.4462

> <b_lp_Chiralities_Consistent>
1

> <s_lp_Variant>
AV-unprocessed.smi:2510-15

> <Gold.Version>
5.8.1

> <Gold.Id.Protein>
6NUR|6NUR_protein|mol2

> <Gold.PLP.Fitness>
33.2790

> <Gold.PLP.PLP>
-28.3594

> <Gold.PLP.part.hbond>
-2.0000

> <Gold.PLP.part.metal>
0.0000

> <Gold.PLP.part.buried>
-6.3519

> <Gold.PLP.part.nonpolar>
-22.8858

> <Gold.PLP.part.repulsive>
1.4312

> <Gold.PLP.ligand.clash>
0.0000

> <Gold.PLP.ligand.torsion>
0.9298

> <Gold.PLP.Chemscore.Hbond>
2.0000

> <Gold.PLP.Chemscore.CHOScore>
0.0000

> <Gold.PLP.Chemscore.Metal>
0.0000

> <Gold.Chemscore.Hbonds>
donor molecule, donor type, donor heavy atom, donor atom, acceptor molecule, acceptor atom, score
      L1  H     7    34       P1  7948  1.00
      L1  H    16    22       P1 10171  1.00

> <Gold.PLP.Chemscore.Internal.Correction>
0.7791

> <Gold.Rescore>
     Score         DG    S(hbond)    S(metal)    S(lipo)     H(rot)  DE(clash)    DE(int)     intcor
     14.23     -16.13       2.00        0.00      73.64       1.81       0.13       1.78       ----

> <Gold.Chemscore.Fitness>
14.2284

> <Gold.Chemscore.DG>
-16.1338

> <Gold.Chemscore.ZeroCoef>
-5.4800

> <Gold.Chemscore.Hbond>
1.9975

> <Gold.Chemscore.Metal>
0.0000

> <Gold.Chemscore.Lipo>
73.6440

> <Gold.Chemscore.Internal_Hbond>
0.0000

> <Gold.Chemscore.DEClash>
0.1274

> <Gold.Chemscore.DEInternal>
1.7780

> <Gold.Chemscore.Rot>
1.8102

> <Gold.Chemscore.Internal.Correction>
   9.000000E+99

> <Gold.Chemscore.Hbonds>
donor molecule, donor type, donor heavy atom, donor atom, acceptor molecule, acceptor atom, score
      L1  H     7    34       P1  7948  0.95
      L1  H    16    22       P1 10171  1.00

> <Gold.Chemscore.Hbond.Weighted>
-6.6716

> <Gold.Chemscore.Metal.Weighted>
-0.0000

> <Gold.Chemscore.Lipo.Weighted>
-8.6163

> <Gold.Chemscore.Internal_Hbond.Weighted>
0.0000

> <Gold.Chemscore.DEClash.Weighted>
0.1274

> <Gold.Chemscore.DEInternal.Weighted>
1.7780

> <Gold.Chemscore.Rot.Weighted>
4.6341

> <Gold.Chemscore.Internal.Correction.Weighted>
   9.000000E+99

> <Gold.Protein.RotatedTorsions>
[ 6907 6896 6895 6894 ] final -141.12 input  -60.11 | X-H torsion
[ 7974 7965 7964 7962 ] final   18.72 input  175.53 | X-H torsion
[ 8008 7997 7996 7995 ] final  141.49 input   59.86 | X-H torsion
[ 10167 10162 10161 10158 ] final -113.56 input  -65.29 | X-H torsion
[ 10718 10713 10712 10709 ] final -131.89 input   66.30 | X-H torsion
[ 10763 10752 10751 10750 ] final  -23.31 input  -60.55 | X-H torsion
[ 11005 11000 10999 10996 ] final  -63.55 input  -57.11 | X-H torsion

> <Gold.Protein.ActiveResidues>
 VAL166  LYS551  ARG553  GLY616  TRP617  ASP618  TYR619  PRO620  LYS621  CYS622 
 ASP623  PHE694  ASN695  SER759  ASP760  ASP761  ALA762  ILE779  LEU786  VAL792 
 PHE793  MET794  SER795  GLU796  ALA797  LYS798  CYS799  TRP800  GLU811  SER814 

> <Gold.Protein.RotatedAtoms>
  151.0696  133.5477  159.2627 H   0  0  0  0  0  0  0  0  0  0  0  0  # atno 6907 bound_to 6896
  151.2421  135.0592  159.9039 H   0  0  0  0  0  0  0  0  0  0  0  0  # atno 6908 bound_to 6896
  152.5409  134.0470  159.8146 H   0  0  0  0  0  0  0  0  0  0  0  0  # atno 6909 bound_to 6896
  146.2175  139.8416  142.8640 H   0  0  0  0  0  0  0  0  0  0  0  0  # atno 7974 bound_to 7965
  156.2965  140.2313  156.4574 H   0  0  0  0  0  0  0  0  0  0  0  0  # atno 8008 bound_to 7997
  154.8049  140.0446  157.1320 H   0  0  0  0  0  0  0  0  0  0  0  0  # atno 8009 bound_to 7997
  154.9491  140.3039  155.5087 H   0  0  0  0  0  0  0  0  0  0  0  0  # atno 8010 bound_to 7997
  140.1106  143.4531  152.1755 H   0  0  0  0  0  0  0  0  0  0  0  0  # atno 10167 bound_to 10162
  156.2290  130.7025  151.0838 H   0  0  0  0  0  0  0  0  0  0  0  0  # atno 10718 bound_to 10713
  153.6658  135.6974  153.5163 H   0  0  0  0  0  0  0  0  0  0  0  0  # atno 10763 bound_to 10752
  153.2596  135.4249  155.0880 H   0  0  0  0  0  0  0  0  0  0  0  0  # atno 10764 bound_to 10752
  154.8440  135.3551  154.6202 H   0  0  0  0  0  0  0  0  0  0  0  0  # atno 10765 bound_to 10752
  141.1397  133.6653  156.5698 H   0  0  0  0  0  0  0  0  0  0  0  0  # atno 11005 bound_to 11000
  145.2893  141.0162  143.3672 LP  0  0  0  0  0  0  0  0  0  0  0  0  # atno 17320 bound_to 7965
  144.9090  139.4553  143.6596 LP  0  0  0  0  0  0  0  0  0  0  0  0  # atno 17321 bound_to 7965
  139.5621  144.7412  151.4124 LP  0  0  0  0  0  0  0  0  0  0  0  0  # atno 17342 bound_to 10162
  140.6928  143.7821  150.7281 LP  0  0  0  0  0  0  0  0  0  0  0  0  # atno 17343 bound_to 10162
  157.7124  131.0727  150.6452 LP  0  0  0  0  0  0  0  0  0  0  0  0  # atno 17370 bound_to 10713
  156.6519  130.4487  149.5716 LP  0  0  0  0  0  0  0  0  0  0  0  0  # atno 17371 bound_to 10713
  140.3922  134.7430  157.4728 LP  0  0  0  0  0  0  0  0  0  0  0  0  # atno 17394 bound_to 11000
  140.0558  134.6066  155.8807 LP  0  0  0  0  0  0  0  0  0  0  0  0  # atno 17395 bound_to 11000

$$$$
