AV-unprocessed.smi:2184|AV-procd|sdf|8870|dock1
  -GOLD-   2272012 73D 1   1.00000     0.00000
 Structure written by MMmdl.
 47 48  0  0  0  0  0  0  0  0  1 V2000
  148.3697  132.7398  153.5895 C   0  0  0  0  0  0  0  0  0  0  0  0
  149.9226  133.3050  154.3372 S   0  0  0  0  0  0  0  0  0  0  0  0
  149.4233  134.9290  154.9837 C   0  0  1  0  0  0  0  0  0  0  0  0
  148.7535  134.7715  156.3579 C   0  0  0  0  0  0  0  0  0  0  0  0
  150.6047  135.9043  155.0544 C   0  0  0  0  0  0  0  0  0  0  0  0
  151.4601  135.7838  155.9319 O   0  0  0  0  0  0  0  0  0  0  0  0
  150.6431  136.8667  154.1195 N   0  0  0  0  0  0  0  0  0  0  0  0
  151.6795  137.8890  154.0158 C   0  0  0  0  0  0  0  0  0  0  0  0
  151.6980  138.8851  155.1669 C   0  0  0  0  0  0  0  0  0  0  0  0
  150.6905  139.8587  155.3329 C   0  0  0  0  0  0  0  0  0  0  0  0
  150.7732  140.7497  156.4195 C   0  0  0  0  0  0  0  0  0  0  0  0
  151.8667  140.6511  157.3126 C   0  0  0  0  0  0  0  0  0  0  0  0
  151.9686  141.5332  158.4100 N   0  0  0  0  0  0  0  0  0  0  0  0
  151.9888  142.9552  158.0794 C   0  0  0  0  0  0  0  0  0  0  0  0
  151.7776  143.8053  159.3467 C   0  0  2  0  0  0  0  0  0  0  0  0
  151.9153  145.3047  159.0630 C   0  0  0  0  0  0  0  0  0  0  0  0
  152.7507  143.4439  160.3231 O   0  0  0  0  0  0  0  0  0  0  0  0
  152.6454  142.0785  160.7173 C   0  0  2  0  0  0  0  0  0  0  0  0
  153.6655  141.8183  161.8306 C   0  0  0  0  0  0  0  0  0  0  0  0
  152.8864  141.1794  159.4907 C   0  0  0  0  0  0  0  0  0  0  0  0
  152.8340  139.7151  157.1477 N   0  0  0  0  0  0  0  0  0  0  0  0
  152.7498  138.8633  156.1045 C   0  0  0  0  0  0  0  0  0  0  0  0
  148.4944  131.7352  153.1857 H   0  0  0  0  0  0  0  0  0  0  0  0
  148.0687  133.4001  152.7762 H   0  0  0  0  0  0  0  0  0  0  0  0
  147.5734  132.7157  154.3336 H   0  0  0  0  0  0  0  0  0  0  0  0
  148.6761  135.3332  154.2989 H   0  0  0  0  0  0  0  0  0  0  0  0
  148.4556  135.7374  156.7677 H   0  0  0  0  0  0  0  0  0  0  0  0
  149.4203  134.2944  157.0774 H   0  0  0  0  0  0  0  0  0  0  0  0
  147.8560  134.1570  156.2839 H   0  0  0  0  0  0  0  0  0  0  0  0
  149.9035  136.8929  153.4326 H   0  0  0  0  0  0  0  0  0  0  0  0
  152.6561  137.4108  153.9247 H   0  0  0  0  0  0  0  0  0  0  0  0
  151.5198  138.4415  153.0898 H   0  0  0  0  0  0  0  0  0  0  0  0
  149.8610  139.9261  154.6448 H   0  0  0  0  0  0  0  0  0  0  0  0
  149.9942  141.4836  156.5626 H   0  0  0  0  0  0  0  0  0  0  0  0
  152.9505  143.1932  157.6229 H   0  0  0  0  0  0  0  0  0  0  0  0
  151.2212  143.2092  157.3496 H   0  0  0  0  0  0  0  0  0  0  0  0
  150.7806  143.6197  159.7506 H   0  0  0  0  0  0  0  0  0  0  0  0
  151.1798  145.6343  158.3287 H   0  0  0  0  0  0  0  0  0  0  0  0
  152.9061  145.5437  158.6756 H   0  0  0  0  0  0  0  0  0  0  0  0
  151.7626  145.8885  159.9710 H   0  0  0  0  0  0  0  0  0  0  0  0
  151.6452  141.8967  161.1147 H   0  0  0  0  0  0  0  0  0  0  0  0
  153.6163  140.7848  162.1739 H   0  0  0  0  0  0  0  0  0  0  0  0
  153.4777  142.4633  162.6894 H   0  0  0  0  0  0  0  0  0  0  0  0
  154.6824  142.0093  161.4865 H   0  0  0  0  0  0  0  0  0  0  0  0
  152.7471  140.1357  159.7750 H   0  0  0  0  0  0  0  0  0  0  0  0
  153.9135  141.2886  159.1393 H   0  0  0  0  0  0  0  0  0  0  0  0
  153.5473  138.1400  156.0188 H   0  0  0  0  0  0  0  0  0  0  0  0
  1  2  1  0  0  0  0
  1 23  1  0  0  0  0
  1 24  1  0  0  0  0
  1 25  1  0  0  0  0
  2  3  1  0  0  0  0
  3  4  1  0  0  0  0
  3  5  1  0  0  0  0
  3 26  1  0  0  0  0
  4 27  1  0  0  0  0
  4 28  1  0  0  0  0
  4 29  1  0  0  0  0
  5  6  2  0  0  0  0
  5  7  1  0  0  0  0
  7  8  1  0  0  0  0
  7 30  1  0  0  0  0
  8  9  1  0  0  0  0
  8 31  1  0  0  0  0
  8 32  1  0  0  0  0
  9 22  1  0  0  0  0
  9 10  2  0  0  0  0
 10 11  1  0  0  0  0
 10 33  1  0  0  0  0
 11 12  2  0  0  0  0
 11 34  1  0  0  0  0
 12 13  1  0  0  0  0
 12 21  1  0  0  0  0
 13 20  1  0  0  0  0
 13 14  1  0  0  0  0
 14 15  1  0  0  0  0
 14 35  1  0  0  0  0
 14 36  1  0  0  0  0
 15 16  1  0  0  0  0
 15 17  1  0  0  0  0
 15 37  1  0  0  0  0
 16 38  1  0  0  0  0
 16 39  1  0  0  0  0
 16 40  1  0  0  0  0
 17 18  1  0  0  0  0
 18 19  1  0  0  0  0
 18 20  1  0  0  0  0
 18 41  1  0  0  0  0
 19 42  1  0  0  0  0
 19 43  1  0  0  0  0
 19 44  1  0  0  0  0
 20 45  1  0  0  0  0
 20 46  1  0  0  0  0
 21 22  2  0  0  0  0
 22 47  1  0  0  0  0
M  END
> <s_m_source_file>
AV-unprocessed.smi

> <i_m_source_file_index>
2184

> <i_lp_mmshare_version>
43012

> <i_f3d_flags>
0

> <s_epik_input>
W0NIM11TW0NASF0oW0NIM10pQyg9TylbTkhdW0NIMl1jMVtjSF1bY0hdYyhuW2NIXTEpTjJbQ0gyXVtDQEBIXShbQ0gzXSlPW0NAQEhdKFtDSDNdKVtDSDJdMg==

> <s_epik_cmdline>
J2VwaWtfcHl0aG9uJywgJy1waCcsICc3LjAnLCAnLXRuJywgJzgnLCAnLW1hJywgJzIwMCcsICctbWV0YWxfYmluZGluZycsICctaW1hZScsICc8aW5maWxlLm1hZT4nLCAnLW9tYWUnLCAnPG91dGZpbGUubWFlPic=

> <r_lp_tautomer_probability>
1

> <r_epik_Ionization_Penalty>
0.00551702

> <r_epik_Ionization_Penalty_Charging>
0

> <r_epik_Ionization_Penalty_Neutral>
0.00551702

> <r_epik_State_Penalty>
0.00403758

> <r_epik_Charging_Adjusted_Penalty>
0.00403758

> <i_epik_Tot_Q>
0

> <i_epik_Tot_abs_Q>
0

> <r_epik_Metal_State_Penalty>
-0

> <b_epik_Metal_Only>
0

> <s_lp_Force_Field>
OPLS_2005

> <r_lp_Energy>
14.1544

> <b_lp_Chiralities_Consistent>
1

> <s_lp_Variant>
AV-unprocessed.smi:2184-2

> <Gold.Version>
5.8.1

> <Gold.Id.Protein>
6NUR|6NUR_protein|mol2

> <Gold.PLP.Fitness>
53.8120

> <Gold.PLP.PLP>
-46.7689

> <Gold.PLP.part.hbond>
-4.0000

> <Gold.PLP.part.metal>
0.0000

> <Gold.PLP.part.buried>
-3.9848

> <Gold.PLP.part.nonpolar>
-38.8277

> <Gold.PLP.part.repulsive>
0.1180

> <Gold.PLP.ligand.clash>
0.0000

> <Gold.PLP.ligand.torsion>
0.9254

> <Gold.PLP.Chemscore.Hbond>
2.8352

> <Gold.PLP.Chemscore.CHOScore>
0.0000

> <Gold.PLP.Chemscore.Metal>
0.0000

> <Gold.Chemscore.Hbonds>
donor molecule, donor type, donor heavy atom, donor atom, acceptor molecule, acceptor atom, score
      L1  H     7    30       P1  7948  1.00
      P1  H  7997  8010       L1    21  0.75
      P1  H 10752 10763       L1     6  1.00

> <Gold.PLP.Chemscore.Internal.Correction>
0.3884

> <Gold.Rescore>
     Score         DG    S(hbond)    S(metal)    S(lipo)     H(rot)  DE(clash)    DE(int)     intcor
     21.06     -22.07       2.10        0.00     116.65       1.59       0.22       0.78       ----

> <Gold.Chemscore.Fitness>
21.0632

> <Gold.Chemscore.DG>
-22.0717

> <Gold.Chemscore.ZeroCoef>
-5.4800

> <Gold.Chemscore.Hbond>
2.1038

> <Gold.Chemscore.Metal>
0.0000

> <Gold.Chemscore.Lipo>
116.6455

> <Gold.Chemscore.Internal_Hbond>
0.0000

> <Gold.Chemscore.DEClash>
0.2244

> <Gold.Chemscore.DEInternal>
0.7841

> <Gold.Chemscore.Rot>
1.5947

> <Gold.Chemscore.Internal.Correction>
   9.000000E+99

> <Gold.Chemscore.Hbonds>
donor molecule, donor type, donor heavy atom, donor atom, acceptor molecule, acceptor atom, score
      L1  H     7    30       P1  7948  0.29
      P1  H  7997  8010       L1    21  0.09
      P1  H 10752 10763       L1     6  0.55

> <Gold.Chemscore.Hbond.Weighted>
-7.0266

> <Gold.Chemscore.Metal.Weighted>
-0.0000

> <Gold.Chemscore.Lipo.Weighted>
-13.6475

> <Gold.Chemscore.Internal_Hbond.Weighted>
0.0000

> <Gold.Chemscore.DEClash.Weighted>
0.2244

> <Gold.Chemscore.DEInternal.Weighted>
0.7841

> <Gold.Chemscore.Rot.Weighted>
4.0824

> <Gold.Chemscore.Internal.Correction.Weighted>
   9.000000E+99

> <Gold.Protein.RotatedTorsions>
[ 6907 6896 6895 6894 ] final  -22.70 input  -60.11 | X-H torsion
[ 7974 7965 7964 7962 ] final    8.64 input  175.53 | X-H torsion
[ 8008 7997 7996 7995 ] final   40.03 input   59.86 | X-H torsion
[ 10167 10162 10161 10158 ] final -140.05 input  -65.29 | X-H torsion
[ 10718 10713 10712 10709 ] final   53.41 input   66.30 | X-H torsion
[ 10763 10752 10751 10750 ] final   87.23 input  -60.55 | X-H torsion
[ 11005 11000 10999 10996 ] final   86.94 input  -57.11 | X-H torsion

> <Gold.Protein.ActiveResidues>
 VAL166  LYS551  ARG553  GLY616  TRP617  ASP618  TYR619  PRO620  LYS621  CYS622 
 ASP623  PHE694  ASN695  SER759  ASP760  ASP761  ALA762  ILE779  LEU786  VAL792 
 PHE793  MET794  SER795  GLU796  ALA797  LYS798  CYS799  TRP800  GLU811  SER814 

> <Gold.Protein.RotatedAtoms>
  151.2148  135.0495  159.8925 H   0  0  0  0  0  0  0  0  0  0  0  0  # atno 6907 bound_to 6896
  152.5421  134.0705  159.8202 H   0  0  0  0  0  0  0  0  0  0  0  0  # atno 6908 bound_to 6896
  151.0863  133.5302  159.2649 H   0  0  0  0  0  0  0  0  0  0  0  0  # atno 6909 bound_to 6896
  146.2414  139.9903  142.8426 H   0  0  0  0  0  0  0  0  0  0  0  0  # atno 7974 bound_to 7965
  155.2464  140.3349  155.4287 H   0  0  0  0  0  0  0  0  0  0  0  0  # atno 8008 bound_to 7997
  156.2234  140.1819  156.7466 H   0  0  0  0  0  0  0  0  0  0  0  0  # atno 8009 bound_to 7997
  154.5861  140.0645  156.9158 H   0  0  0  0  0  0  0  0  0  0  0  0  # atno 8010 bound_to 7997
  139.8320  143.7435  152.2665 H   0  0  0  0  0  0  0  0  0  0  0  0  # atno 10167 bound_to 10162
  157.5164  130.8535  149.8501 H   0  0  0  0  0  0  0  0  0  0  0  0  # atno 10718 bound_to 10713
  153.1648  135.4551  154.9821 H   0  0  0  0  0  0  0  0  0  0  0  0  # atno 10763 bound_to 10752
  154.7924  135.3225  154.7750 H   0  0  0  0  0  0  0  0  0  0  0  0  # atno 10764 bound_to 10752
  153.8234  135.6945  153.4878 H   0  0  0  0  0  0  0  0  0  0  0  0  # atno 10765 bound_to 10752
  139.8932  134.8389  156.2790 H   0  0  0  0  0  0  0  0  0  0  0  0  # atno 11005 bound_to 11000
  145.1509  140.9622  143.4433 LP  0  0  0  0  0  0  0  0  0  0  0  0  # atno 17320 bound_to 7965
  145.0206  139.3427  143.6074 LP  0  0  0  0  0  0  0  0  0  0  0  0  # atno 17321 bound_to 7965
  139.7645  144.7496  151.0314 LP  0  0  0  0  0  0  0  0  0  0  0  0  # atno 17342 bound_to 10162
  140.7806  143.4713  151.0142 LP  0  0  0  0  0  0  0  0  0  0  0  0  # atno 17343 bound_to 10162
  156.0323  130.3761  150.1654 LP  0  0  0  0  0  0  0  0  0  0  0  0  # atno 17370 bound_to 10713
  156.9842  130.9873  151.3430 LP  0  0  0  0  0  0  0  0  0  0  0  0  # atno 17371 bound_to 10713
  141.0051  133.7128  156.1022 LP  0  0  0  0  0  0  0  0  0  0  0  0  # atno 17394 bound_to 11000
  140.7445  134.4114  157.5550 LP  0  0  0  0  0  0  0  0  0  0  0  0  # atno 17395 bound_to 11000

$$$$
