AV-unprocessed.smi:234|AV-procd|sdf|1798|dock5
  -GOLD-   2262020363D 1   1.00000     0.00000
 Structure written by MMmdl.
 59 62  0  0  0  0  0  0  0  0  1 V2000
  151.0930  143.1403  158.5188 C   0  0  0  0  0  0  0  0  0  0  0  0
  151.5181  141.8783  157.7568 C   0  0  0  0  0  0  0  0  0  0  0  0
  150.6778  141.6059  156.6431 O   0  0  0  0  0  0  0  0  0  0  0  0
  149.9874  140.3642  156.7011 C   0  0  1  0  0  0  0  0  0  0  0  0
  148.5628  140.4347  157.2524 C   0  0  0  0  0  0  0  0  0  0  0  0
  148.2076  139.4015  156.1745 C   0  0  1  0  0  0  0  0  0  0  0  0
  146.8809  139.5908  155.5768 N   0  0  0  0  0  0  0  0  0  0  0  0
  146.2901  140.9239  155.6298 C   0  0  0  0  0  0  0  0  0  0  0  0
  146.6191  138.9677  154.4008 C   0  0  0  0  0  0  0  0  0  0  0  0
  147.3186  139.2956  153.2814 N   0  0  0  0  0  0  0  0  0  0  0  0
  147.0503  138.6915  152.1202 C   0  0  0  0  0  0  0  0  0  0  0  0
  146.1410  137.7502  151.8596 N   0  0  0  0  0  0  0  0  0  0  0  0
  145.4347  137.4205  152.9790 C   0  0  0  0  0  0  0  0  0  0  0  0
  145.6031  137.9809  154.2761 C   0  0  0  0  0  0  0  0  0  0  0  0
  144.7043  137.4031  155.1641 N   0  0  0  0  0  0  0  0  0  0  0  0
  144.0437  136.5465  154.4336 C   0  0  0  0  0  0  0  0  0  0  0  0
  144.4238  136.4845  153.1115 N   0  0  0  0  0  0  0  0  0  0  0  0
  143.8660  135.6171  152.0847 C   0  0  0  0  0  0  0  0  0  0  0  0
  144.9457  134.9118  151.2221 C   0  0  2  0  0  0  0  0  0  0  0  0
  145.4498  135.8624  150.2979 O   0  0  0  0  0  0  0  0  0  0  0  0
  144.4187  133.7210  150.4276 C   0  0  0  0  0  0  0  0  0  0  0  0
  145.6581  132.8581  150.2484 C   0  0  0  0  0  0  0  0  0  0  0  0
  146.3011  132.9759  151.5057 O   0  0  0  0  0  0  0  0  0  0  0  0
  146.1601  134.3118  151.9854 C   0  0  2  0  0  0  0  0  0  0  0  0
  146.0411  134.2348  153.5156 C   0  0  0  0  0  0  0  0  0  0  0  0
  149.3927  139.9514  155.3307 C   0  0  0  0  0  0  0  0  0  0  0  0
  149.0938  141.1099  154.3615 C   0  0  0  0  0  0  0  0  0  0  0  0
  150.2153  138.9193  154.5581 C   0  0  0  0  0  0  0  0  0  0  0  0
  151.8296  143.3951  159.2808 H   0  0  0  0  0  0  0  0  0  0  0  0
  150.1384  143.0057  159.0251 H   0  0  0  0  0  0  0  0  0  0  0  0
  151.0030  143.9925  157.8448 H   0  0  0  0  0  0  0  0  0  0  0  0
  152.5251  142.0313  157.3684 H   0  0  0  0  0  0  0  0  0  0  0  0
  151.5744  141.0169  158.4234 H   0  0  0  0  0  0  0  0  0  0  0  0
  150.5752  139.5586  157.1480 H   0  0  0  0  0  0  0  0  0  0  0  0
  148.4508  140.0748  158.2751 H   0  0  0  0  0  0  0  0  0  0  0  0
  148.0917  141.4089  157.1103 H   0  0  0  0  0  0  0  0  0  0  0  0
  148.3899  138.3817  156.5196 H   0  0  0  0  0  0  0  0  0  0  0  0
  146.2027  141.3680  154.6366 H   0  0  0  0  0  0  0  0  0  0  0  0
  146.8915  141.5999  156.2359 H   0  0  0  0  0  0  0  0  0  0  0  0
  145.2940  140.8751  156.0701 H   0  0  0  0  0  0  0  0  0  0  0  0
  147.6498  139.0081  151.2794 H   0  0  0  0  0  0  0  0  0  0  0  0
  143.2606  135.9252  154.8435 H   0  0  0  0  0  0  0  0  0  0  0  0
  143.2283  134.8792  152.5733 H   0  0  0  0  0  0  0  0  0  0  0  0
  143.2120  136.2254  151.4600 H   0  0  0  0  0  0  0  0  0  0  0  0
  145.7470  135.4020  149.5281 H   0  0  0  0  0  0  0  0  0  0  0  0
  143.6907  133.1669  151.0211 H   0  0  0  0  0  0  0  0  0  0  0  0
  143.9419  133.9933  149.4848 H   0  0  0  0  0  0  0  0  0  0  0  0
  145.4210  131.8206  150.0129 H   0  0  0  0  0  0  0  0  0  0  0  0
  146.3046  133.2540  149.4638 H   0  0  0  0  0  0  0  0  0  0  0  0
  147.0740  134.8557  151.7390 H   0  0  0  0  0  0  0  0  0  0  0  0
  145.9441  135.2260  153.9586 H   0  0  0  0  0  0  0  0  0  0  0  0
  146.9285  133.7714  153.9469 H   0  0  0  0  0  0  0  0  0  0  0  0
  145.1811  133.6375  153.8198 H   0  0  0  0  0  0  0  0  0  0  0  0
  148.5498  140.7695  153.4803 H   0  0  0  0  0  0  0  0  0  0  0  0
  150.0121  141.5805  154.0093 H   0  0  0  0  0  0  0  0  0  0  0  0
  148.4930  141.8916  154.8266 H   0  0  0  0  0  0  0  0  0  0  0  0
  149.7126  138.5976  153.6462 H   0  0  0  0  0  0  0  0  0  0  0  0
  150.4021  138.0271  155.1563 H   0  0  0  0  0  0  0  0  0  0  0  0
  151.1865  139.3233  154.2707 H   0  0  0  0  0  0  0  0  0  0  0  0
  1  2  1  0  0  0  0
  1 29  1  0  0  0  0
  1 30  1  0  0  0  0
  1 31  1  0  0  0  0
  2  3  1  0  0  0  0
  2 32  1  0  0  0  0
  2 33  1  0  0  0  0
  3  4  1  0  0  0  0
  4 26  1  0  0  0  0
  4  5  1  0  0  0  0
  4 34  1  0  0  0  0
  5  6  1  0  0  0  0
  5 35  1  0  0  0  0
  5 36  1  0  0  0  0
  6  7  1  0  0  0  0
  6 26  1  0  0  0  0
  6 37  1  0  0  0  0
  7  8  1  0  0  0  0
  7  9  1  0  0  0  0
  8 38  1  0  0  0  0
  8 39  1  0  0  0  0
  8 40  1  0  0  0  0
  9 14  1  0  0  0  0
  9 10  2  0  0  0  0
 10 11  1  0  0  0  0
 11 12  2  0  0  0  0
 11 41  1  0  0  0  0
 12 13  1  0  0  0  0
 13 17  1  0  0  0  0
 13 14  2  0  0  0  0
 14 15  1  0  0  0  0
 15 16  2  0  0  0  0
 16 17  1  0  0  0  0
 16 42  1  0  0  0  0
 17 18  1  0  0  0  0
 18 19  1  0  0  0  0
 18 43  1  0  0  0  0
 18 44  1  0  0  0  0
 19 24  1  0  0  0  0
 19 20  1  0  0  0  0
 19 21  1  0  0  0  0
 20 45  1  0  0  0  0
 21 22  1  0  0  0  0
 21 46  1  0  0  0  0
 21 47  1  0  0  0  0
 22 23  1  0  0  0  0
 22 48  1  0  0  0  0
 22 49  1  0  0  0  0
 23 24  1  0  0  0  0
 24 25  1  0  0  0  0
 24 50  1  0  0  0  0
 25 51  1  0  0  0  0
 25 52  1  0  0  0  0
 25 53  1  0  0  0  0
 26 27  1  0  0  0  0
 26 28  1  0  0  0  0
 27 54  1  0  0  0  0
 27 55  1  0  0  0  0
 27 56  1  0  0  0  0
 28 57  1  0  0  0  0
 28 58  1  0  0  0  0
 28 59  1  0  0  0  0
M  END
> <s_m_source_file>
AV-unprocessed.smi

> <i_m_source_file_index>
234

> <i_lp_mmshare_version>
43012

> <i_f3d_flags>
0

> <s_epik_input>
W0NIM11bQ0gyXU9bQ0BASF0oQzEoW0NIM10pW0NIM10pW0NIMl1bQ0BIXTFOKFtDSDNdKWMobltjSF1uMiljKGMyMyluW2NIXW4zW0NIMl1bQ0BAXTQoW09IXSlbQ0gyXVtDSDJdT1tDQEhdNFtDSDNd

> <s_epik_cmdline>
J2VwaWtfcHl0aG9uJywgJy1waCcsICc3LjAnLCAnLXRuJywgJzgnLCAnLW1hJywgJzIwMCcsICctbWV0YWxfYmluZGluZycsICctaW1hZScsICc8aW5maWxlLm1hZT4nLCAnLW9tYWUnLCAnPG91dGZpbGUubWFlPic=

> <r_lp_tautomer_probability>
1

> <r_epik_Ionization_Penalty>
0.00349132

> <r_epik_Ionization_Penalty_Charging>
0

> <r_epik_Ionization_Penalty_Neutral>
0.00349132

> <r_epik_State_Penalty>
0.00242418

> <r_epik_Charging_Adjusted_Penalty>
0.00242418

> <i_epik_Tot_Q>
0

> <i_epik_Tot_abs_Q>
0

> <r_epik_Metal_State_Penalty>
-0

> <b_epik_Metal_Only>
0

> <s_lp_Force_Field>
OPLS_2005

> <r_lp_Energy>
48.9285

> <b_lp_Chiralities_Consistent>
1

> <s_lp_Variant>
AV-unprocessed.smi:234-14

> <Gold.Version>
5.8.1

> <Gold.Id.Protein>
6NUR|6NUR_protein|mol2

> <Gold.PLP.Fitness>
40.6063

> <Gold.PLP.PLP>
-37.0101

> <Gold.PLP.part.hbond>
-1.9282

> <Gold.PLP.part.metal>
0.0000

> <Gold.PLP.part.buried>
-7.1353

> <Gold.PLP.part.nonpolar>
-31.1677

> <Gold.PLP.part.repulsive>
2.2593

> <Gold.PLP.ligand.clash>
0.0000

> <Gold.PLP.ligand.torsion>
1.6790

> <Gold.PLP.Chemscore.Hbond>
1.0000

> <Gold.PLP.Chemscore.CHOScore>
0.9707

> <Gold.PLP.Chemscore.Metal>
0.0000

> <Gold.Chemscore.Hbonds>
donor molecule, donor type, donor heavy atom, donor atom, acceptor molecule, acceptor atom, score
      L1  H    20    45       P1  7921  1.00
      L1  C    11    41       P1  7957  1.00

> <Gold.PLP.Chemscore.Internal.Correction>
1.0420

> <Gold.Rescore>
     Score         DG    S(hbond)    S(metal)    S(lipo)     H(rot)  DE(clash)    DE(int)     intcor
      6.39     -11.35       0.99        0.00      79.20       2.62       0.37       4.59       ----

> <Gold.Chemscore.Fitness>
6.3862

> <Gold.Chemscore.DG>
-11.3459

> <Gold.Chemscore.ZeroCoef>
-5.4800

> <Gold.Chemscore.Hbond>
0.9917

> <Gold.Chemscore.Metal>
0.0000

> <Gold.Chemscore.Lipo>
79.1957

> <Gold.Chemscore.Internal_Hbond>
0.0000

> <Gold.Chemscore.DEClash>
0.3717

> <Gold.Chemscore.DEInternal>
4.5881

> <Gold.Chemscore.Rot>
2.6219

> <Gold.Chemscore.Internal.Correction>
   9.000000E+99

> <Gold.Chemscore.Hbonds>
donor molecule, donor type, donor heavy atom, donor atom, acceptor molecule, acceptor atom, score
      L1  H    20    45       P1  7921  0.95

> <Gold.Chemscore.Hbond.Weighted>
-3.3121

> <Gold.Chemscore.Metal.Weighted>
-0.0000

> <Gold.Chemscore.Lipo.Weighted>
-9.2659

> <Gold.Chemscore.Internal_Hbond.Weighted>
0.0000

> <Gold.Chemscore.DEClash.Weighted>
0.3717

> <Gold.Chemscore.DEInternal.Weighted>
4.5881

> <Gold.Chemscore.Rot.Weighted>
6.7121

> <Gold.Chemscore.Internal.Correction.Weighted>
   9.000000E+99

> <Gold.Protein.RotatedTorsions>
[ 6907 6896 6895 6894 ] final  173.38 input  -60.11 | X-H torsion
[ 7974 7965 7964 7962 ] final  164.17 input  175.53 | X-H torsion
[ 8008 7997 7996 7995 ] final  -20.28 input   59.86 | X-H torsion
[ 10167 10162 10161 10158 ] final  -68.23 input  -65.29 | X-H torsion
[ 10718 10713 10712 10709 ] final  -38.78 input   66.30 | X-H torsion
[ 10763 10752 10751 10750 ] final   68.11 input  -60.55 | X-H torsion
[ 11005 11000 10999 10996 ] final -149.15 input  -57.11 | X-H torsion

> <Gold.Protein.ActiveResidues>
 VAL166  LYS551  ARG553  GLY616  TRP617  ASP618  TYR619  PRO620  LYS621  CYS622 
 ASP623  PHE694  ASN695  SER759  ASP760  ASP761  ALA762  ILE779  LEU786  VAL792 
 PHE793  MET794  SER795  GLU796  ALA797  LYS798  CYS799  TRP800  GLU811  SER814 

> <Gold.Protein.RotatedAtoms>
  151.7692  133.3340  159.3439 H   0  0  0  0  0  0  0  0  0  0  0  0  # atno 6907 bound_to 6896
  150.7468  134.6034  159.6058 H   0  0  0  0  0  0  0  0  0  0  0  0  # atno 6908 bound_to 6896
  152.3353  134.7208  160.0330 H   0  0  0  0  0  0  0  0  0  0  0  0  # atno 6909 bound_to 6896
  144.7557  139.8288  143.6351 H   0  0  0  0  0  0  0  0  0  0  0  0  # atno 7974 bound_to 7965
  154.4780  140.2066  155.9830 H   0  0  0  0  0  0  0  0  0  0  0  0  # atno 8008 bound_to 7997
  156.1121  140.3227  155.8057 H   0  0  0  0  0  0  0  0  0  0  0  0  # atno 8009 bound_to 7997
  155.4617  140.0524  157.2981 H   0  0  0  0  0  0  0  0  0  0  0  0  # atno 8010 bound_to 7997
  140.5523  143.2312  151.6888 H   0  0  0  0  0  0  0  0  0  0  0  0  # atno 10167 bound_to 10162
  156.2999  130.4239  149.8154 H   0  0  0  0  0  0  0  0  0  0  0  0  # atno 10718 bound_to 10713
  153.0219  135.5259  154.7084 H   0  0  0  0  0  0  0  0  0  0  0  0  # atno 10763 bound_to 10752
  154.6173  135.2885  155.0367 H   0  0  0  0  0  0  0  0  0  0  0  0  # atno 10764 bound_to 10752
  154.1367  135.6584  153.4986 H   0  0  0  0  0  0  0  0  0  0  0  0  # atno 10765 bound_to 10752
  140.7537  134.3377  157.5119 H   0  0  0  0  0  0  0  0  0  0  0  0  # atno 11005 bound_to 11000
  146.1563  139.4663  143.0016 LP  0  0  0  0  0  0  0  0  0  0  0  0  # atno 17320 bound_to 7965
  145.6789  141.0196  143.1617 LP  0  0  0  0  0  0  0  0  0  0  0  0  # atno 17321 bound_to 7965
  139.5032  144.3798  152.0387 LP  0  0  0  0  0  0  0  0  0  0  0  0  # atno 17342 bound_to 10162
  140.2916  144.3747  150.6087 LP  0  0  0  0  0  0  0  0  0  0  0  0  # atno 17343 bound_to 10162
  156.5536  130.8353  151.3307 LP  0  0  0  0  0  0  0  0  0  0  0  0  # atno 17370 bound_to 10713
  157.7365  130.9780  150.2140 LP  0  0  0  0  0  0  0  0  0  0  0  0  # atno 17371 bound_to 10713
  139.8783  134.9158  156.3140 LP  0  0  0  0  0  0  0  0  0  0  0  0  # atno 17394 bound_to 11000
  140.9727  133.7317  156.0558 LP  0  0  0  0  0  0  0  0  0  0  0  0  # atno 17395 bound_to 11000

$$$$
