AV-unprocessed.smi:1189|AV-procd|sdf|4979|dock4
  -GOLD-   22720 3573D 1   1.00000     0.00000
 Structure written by MMmdl.
 33 34  0  0  0  0  0  0  0  0  1 V2000
  149.6231  140.4135  157.5408 O   0  0  0  0  0  0  0  0  0  0  0  0
  149.6625  141.6105  157.2523 C   0  0  0  0  0  0  0  0  0  0  0  0
  149.8045  142.6794  158.3426 C   0  0  0  0  0  0  0  0  0  0  0  0
  151.1436  142.7284  158.9063 N   0  0  0  0  0  0  0  0  0  0  0  0
  152.0315  143.7827  158.9149 C   0  0  0  0  0  0  0  0  0  0  0  0
  153.1562  143.3598  159.5628 C   0  0  0  0  0  0  0  0  0  0  0  0
  152.8625  142.0131  159.9255 C   0  0  0  0  0  0  0  0  0  0  0  0
  153.7332  141.0357  160.6707 C   0  0  0  0  0  0  0  0  0  0  0  0
  153.8885  141.4259  161.9360 F   0  0  0  0  0  0  0  0  0  0  0  0
  153.1721  139.8266  160.6610 F   0  0  0  0  0  0  0  0  0  0  0  0
  154.9329  140.9636  160.0940 F   0  0  0  0  0  0  0  0  0  0  0  0
  151.6542  141.6412  159.5238 N   0  0  0  0  0  0  0  0  0  0  0  0
  149.5737  142.0660  155.9929 N   0  0  0  0  0  0  0  0  0  0  0  0
  149.4340  141.2379  154.7988 C   0  0  0  0  0  0  0  0  0  0  0  0
  147.9603  140.9127  154.4889 C   0  0  1  0  0  0  0  0  0  0  0  0
  147.2744  140.1039  155.5712 C   0  0  0  0  0  0  0  0  0  0  0  0
  145.7976  140.3343  155.2610 C   0  0  0  0  0  0  0  0  0  0  0  0
  145.7190  141.6163  154.6441 O   0  0  0  0  0  0  0  0  0  0  0  0
  147.0275  142.1219  154.4016 C   0  0  0  0  0  0  0  0  0  0  0  0
  149.5520  143.6625  157.9413 H   0  0  0  0  0  0  0  0  0  0  0  0
  149.0960  142.4683  159.1442 H   0  0  0  0  0  0  0  0  0  0  0  0
  151.7901  144.7354  158.4672 H   0  0  0  0  0  0  0  0  0  0  0  0
  154.0545  143.9282  159.7528 H   0  0  0  0  0  0  0  0  0  0  0  0
  149.6132  143.0648  155.8495 H   0  0  0  0  0  0  0  0  0  0  0  0
  149.8648  141.7910  153.9639 H   0  0  0  0  0  0  0  0  0  0  0  0
  150.0207  140.3220  154.8900 H   0  0  0  0  0  0  0  0  0  0  0  0
  147.9001  140.3554  153.5524 H   0  0  0  0  0  0  0  0  0  0  0  0
  147.5499  139.0489  155.5586 H   0  0  0  0  0  0  0  0  0  0  0  0
  147.5145  140.5070  156.5562 H   0  0  0  0  0  0  0  0  0  0  0  0
  145.4355  139.5873  154.5539 H   0  0  0  0  0  0  0  0  0  0  0  0
  145.1750  140.2842  156.1545 H   0  0  0  0  0  0  0  0  0  0  0  0
  147.2641  142.8493  155.1794 H   0  0  0  0  0  0  0  0  0  0  0  0
  147.0842  142.6268  153.4370 H   0  0  0  0  0  0  0  0  0  0  0  0
  1  2  2  0  0  0  0
  2  3  1  0  0  0  0
  2 13  1  0  0  0  0
  3  4  1  0  0  0  0
  3 20  1  0  0  0  0
  3 21  1  0  0  0  0
  4 12  1  0  0  0  0
  4  5  1  0  0  0  0
  5  6  2  0  0  0  0
  5 22  1  0  0  0  0
  6  7  1  0  0  0  0
  6 23  1  0  0  0  0
  7  8  1  0  0  0  0
  7 12  2  0  0  0  0
  8  9  1  0  0  0  0
  8 10  1  0  0  0  0
  8 11  1  0  0  0  0
 13 14  1  0  0  0  0
 13 24  1  0  0  0  0
 14 15  1  0  0  0  0
 14 25  1  0  0  0  0
 14 26  1  0  0  0  0
 15 19  1  0  0  0  0
 15 16  1  0  0  0  0
 15 27  1  0  0  0  0
 16 17  1  0  0  0  0
 16 28  1  0  0  0  0
 16 29  1  0  0  0  0
 17 18  1  0  0  0  0
 17 30  1  0  0  0  0
 17 31  1  0  0  0  0
 18 19  1  0  0  0  0
 19 32  1  0  0  0  0
 19 33  1  0  0  0  0
M  END
> <s_m_source_file>
AV-unprocessed.smi

> <i_m_source_file_index>
1189

> <i_lp_mmshare_version>
43012

> <i_f3d_flags>
0

> <s_epik_input>
W0NIMl0xT1tDSDJdW0NIMl1bQ0BIXTFbQ0gyXVtOSF1DKD1PKVtDSDJdbjJbY0hdW2NIXWMobjIpQyhGKShGKUY=

> <s_epik_cmdline>
J2VwaWtfcHl0aG9uJywgJy1waCcsICc3LjAnLCAnLXRuJywgJzgnLCAnLW1hJywgJzIwMCcsICctbWV0YWxfYmluZGluZycsICctaW1hZScsICc8aW5maWxlLm1hZT4nLCAnLW9tYWUnLCAnPG91dGZpbGUubWFlPic=

> <r_lp_tautomer_probability>
1

> <r_epik_Ionization_Penalty>
1.26564e-07

> <r_epik_Ionization_Penalty_Charging>
0

> <r_epik_Ionization_Penalty_Neutral>
1.26564e-07

> <r_epik_State_Penalty>
-0

> <r_epik_Charging_Adjusted_Penalty>
0

> <i_epik_Tot_Q>
0

> <i_epik_Tot_abs_Q>
0

> <r_epik_Metal_State_Penalty>
-0

> <b_epik_Metal_Only>
0

> <s_lp_Force_Field>
OPLS_2005

> <r_lp_Energy>
22.0534

> <b_lp_Chiralities_Consistent>
1

> <s_lp_Variant>
AV-unprocessed.smi:1189-2

> <Gold.Version>
5.8.1

> <Gold.Id.Protein>
6NUR|6NUR_protein|mol2

> <Gold.PLP.Fitness>
39.5525

> <Gold.PLP.PLP>
-37.6193

> <Gold.PLP.part.hbond>
-1.0000

> <Gold.PLP.part.metal>
0.0000

> <Gold.PLP.part.buried>
-4.5863

> <Gold.PLP.part.nonpolar>
-33.2320

> <Gold.PLP.part.repulsive>
0.3162

> <Gold.PLP.ligand.clash>
0.0000

> <Gold.PLP.ligand.torsion>
0.5383

> <Gold.PLP.Chemscore.Hbond>
1.0000

> <Gold.PLP.Chemscore.CHOScore>
0.0000

> <Gold.PLP.Chemscore.Metal>
0.0000

> <Gold.Chemscore.Hbonds>
donor molecule, donor type, donor heavy atom, donor atom, acceptor molecule, acceptor atom, score
      L1  H    13    24       P1  8028  1.00

> <Gold.PLP.Chemscore.Internal.Correction>
0.0099

> <Gold.Rescore>
     Score         DG    S(hbond)    S(metal)    S(lipo)     H(rot)  DE(clash)    DE(int)     intcor
     10.81     -12.60       0.99        0.00      73.83       1.89       0.01       1.77       ----

> <Gold.Chemscore.Fitness>
10.8116

> <Gold.Chemscore.DG>
-12.5955

> <Gold.Chemscore.ZeroCoef>
-5.4800

> <Gold.Chemscore.Hbond>
0.9948

> <Gold.Chemscore.Metal>
0.0000

> <Gold.Chemscore.Lipo>
73.8326

> <Gold.Chemscore.Internal_Hbond>
0.0000

> <Gold.Chemscore.DEClash>
0.0149

> <Gold.Chemscore.DEInternal>
1.7690

> <Gold.Chemscore.Rot>
1.8928

> <Gold.Chemscore.Internal.Correction>
   9.000000E+99

> <Gold.Chemscore.Hbonds>
donor molecule, donor type, donor heavy atom, donor atom, acceptor molecule, acceptor atom, score
      L1  H    13    24       P1  8028  0.98

> <Gold.Chemscore.Hbond.Weighted>
-3.3226

> <Gold.Chemscore.Metal.Weighted>
-0.0000

> <Gold.Chemscore.Lipo.Weighted>
-8.6384

> <Gold.Chemscore.Internal_Hbond.Weighted>
0.0000

> <Gold.Chemscore.DEClash.Weighted>
0.0149

> <Gold.Chemscore.DEInternal.Weighted>
1.7690

> <Gold.Chemscore.Rot.Weighted>
4.8455

> <Gold.Chemscore.Internal.Correction.Weighted>
   9.000000E+99

> <Gold.Protein.RotatedTorsions>
[ 6907 6896 6895 6894 ] final    2.88 input  -60.11 | X-H torsion
[ 7974 7965 7964 7962 ] final -108.88 input  175.53 | X-H torsion
[ 8008 7997 7996 7995 ] final  -89.58 input   59.86 | X-H torsion
[ 10167 10162 10161 10158 ] final -129.29 input  -65.29 | X-H torsion
[ 10718 10713 10712 10709 ] final -101.07 input   66.30 | X-H torsion
[ 10763 10752 10751 10750 ] final -114.83 input  -60.55 | X-H torsion
[ 11005 11000 10999 10996 ] final  -41.65 input  -57.11 | X-H torsion

> <Gold.Protein.ActiveResidues>
 VAL166  LYS551  ARG553  GLY616  TRP617  ASP618  TYR619  PRO620  LYS621  CYS622 
 ASP623  PHE694  ASN695  SER759  ASP760  ASP761  ALA762  ILE779  LEU786  VAL792 
 PHE793  MET794  SER795  GLU796  ALA797  LYS798  CYS799  TRP800  GLU811  SER814 

> <Gold.Protein.RotatedAtoms>
  151.6160  135.1036  160.0091 H   0  0  0  0  0  0  0  0  0  0  0  0  # atno 6907 bound_to 6896
  152.4183  133.7070  159.6468 H   0  0  0  0  0  0  0  0  0  0  0  0  # atno 6908 bound_to 6896
  150.8071  133.8417  159.3222 H   0  0  0  0  0  0  0  0  0  0  0  0  # atno 6909 bound_to 6896
  145.1874  140.8999  143.3445 H   0  0  0  0  0  0  0  0  0  0  0  0  # atno 7974 bound_to 7965
  154.6883  140.0540  157.0337 H   0  0  0  0  0  0  0  0  0  0  0  0  # atno 8008 bound_to 7997
  155.0853  140.3213  155.4570 H   0  0  0  0  0  0  0  0  0  0  0  0  # atno 8009 bound_to 7997
  156.2719  140.2057  156.5980 H   0  0  0  0  0  0  0  0  0  0  0  0  # atno 8010 bound_to 7997
  139.9414  143.6159  152.2502 H   0  0  0  0  0  0  0  0  0  0  0  0  # atno 10167 bound_to 10162
  156.0183  130.5356  150.6909 H   0  0  0  0  0  0  0  0  0  0  0  0  # atno 10718 bound_to 10713
  154.8456  135.4404  154.1567 H   0  0  0  0  0  0  0  0  0  0  0  0  # atno 10763 bound_to 10752
  153.2714  135.6945  153.7483 H   0  0  0  0  0  0  0  0  0  0  0  0  # atno 10764 bound_to 10752
  153.6722  135.3417  155.3131 H   0  0  0  0  0  0  0  0  0  0  0  0  # atno 10765 bound_to 10752
  141.0261  133.6841  156.2486 H   0  0  0  0  0  0  0  0  0  0  0  0  # atno 11005 bound_to 11000
  145.0076  139.3540  143.6136 LP  0  0  0  0  0  0  0  0  0  0  0  0  # atno 17320 bound_to 7965
  146.3442  139.9324  142.8752 LP  0  0  0  0  0  0  0  0  0  0  0  0  # atno 17321 bound_to 7965
  139.6702  144.7661  151.1798 LP  0  0  0  0  0  0  0  0  0  0  0  0  # atno 17342 bound_to 10162
  140.7610  143.5877  150.8829 LP  0  0  0  0  0  0  0  0  0  0  0  0  # atno 17343 bound_to 10162
  157.4591  131.0881  151.0765 LP  0  0  0  0  0  0  0  0  0  0  0  0  # atno 17370 bound_to 10713
  157.1258  130.6081  149.5517 LP  0  0  0  0  0  0  0  0  0  0  0  0  # atno 17371 bound_to 10713
  140.6489  134.5087  157.5576 LP  0  0  0  0  0  0  0  0  0  0  0  0  # atno 17394 bound_to 11000
  139.9176  134.8213  156.1313 LP  0  0  0  0  0  0  0  0  0  0  0  0  # atno 17395 bound_to 11000

$$$$
