AV-unprocessed.smi:275|AV-procd|sdf|2068|dock5
  -GOLD-   2262021323D 1   1.00000     0.00000
 Structure written by MMmdl.
 65 69  0  0  0  0  0  0  0  0  1 V2000
  146.5600  130.2058  161.5118 C   0  0  0  0  0  0  0  0  0  0  0  0
  147.6961  130.8035  160.6636 C   0  0  0  0  0  0  0  0  0  0  0  0
  148.8902  131.1262  161.5777 C   0  0  0  0  0  0  0  0  0  0  0  0
  147.2434  132.0471  159.8799 C   0  0  2  0  0  0  0  0  0  0  0  0
  148.3522  132.8586  159.3834 N   0  0  0  0  0  0  0  0  0  0  0  0
  148.7976  132.5756  158.0635 C   0  0  0  0  0  0  0  0  0  0  0  0
  150.1214  132.5441  157.7486 N   0  0  0  0  0  0  0  0  0  0  0  0
  150.5222  132.2846  156.5004 C   0  0  0  0  0  0  0  0  0  0  0  0
  149.7793  132.0318  155.4218 N   0  0  0  0  0  0  0  0  0  0  0  0
  148.4509  132.0594  155.7264 C   0  0  0  0  0  0  0  0  0  0  0  0
  147.8849  132.3191  157.0059 C   0  0  0  0  0  0  0  0  0  0  0  0
  146.4987  132.2687  156.9318 N   0  0  0  0  0  0  0  0  0  0  0  0
  146.2576  131.9962  155.6784 C   0  0  0  0  0  0  0  0  0  0  0  0
  147.3723  131.8602  154.8826 N   0  0  0  0  0  0  0  0  0  0  0  0
  147.3886  131.5611  153.4613 C   0  0  0  0  0  0  0  0  0  0  0  0
  146.0209  131.0712  152.9209 C   0  0  1  0  0  0  0  0  0  0  0  0
  145.5417  131.9543  151.7394 C   0  0  0  0  0  0  0  0  0  0  0  0
  146.5410  132.1072  150.7539 O   0  0  0  0  0  0  0  0  0  0  0  0
  146.0960  129.5671  152.5368 C   0  0  1  0  0  0  0  0  0  0  0  0
  147.1251  129.2272  151.4704 C   0  0  0  0  0  0  0  0  0  0  0  0
  147.2850  127.7206  151.6364 C   0  0  0  0  0  0  0  0  0  0  0  0
  147.0894  127.4660  153.0214 O   0  0  0  0  0  0  0  0  0  0  0  0
  146.5487  128.6206  153.6559 C   0  0  0  0  0  0  0  0  0  0  0  0
  147.5469  134.0650  159.4908 C   0  0  0  0  0  0  0  0  0  0  0  0
  146.7461  133.3350  160.5814 C   0  0  0  0  0  0  0  0  0  0  0  0
  145.2253  133.5556  160.5580 C   0  0  0  0  0  0  0  0  0  0  0  0
  144.8226  134.9670  161.0170 C   0  0  0  0  0  0  0  0  0  0  0  0
  145.3481  135.2648  162.4276 C   0  0  0  0  0  0  0  0  0  0  0  0
  146.8585  135.0132  162.5224 C   0  0  0  0  0  0  0  0  0  0  0  0
  147.2193  133.6015  162.0288 C   0  0  0  0  0  0  0  0  0  0  0  0
  146.1457  130.9451  162.1980 H   0  0  0  0  0  0  0  0  0  0  0  0
  146.9143  129.3627  162.1054 H   0  0  0  0  0  0  0  0  0  0  0  0
  145.7468  129.8352  160.8888 H   0  0  0  0  0  0  0  0  0  0  0  0
  148.0213  130.0332  159.9632 H   0  0  0  0  0  0  0  0  0  0  0  0
  148.6230  131.8781  162.3210 H   0  0  0  0  0  0  0  0  0  0  0  0
  149.7432  131.5083  161.0199 H   0  0  0  0  0  0  0  0  0  0  0  0
  149.2272  130.2377  162.1123 H   0  0  0  0  0  0  0  0  0  0  0  0
  146.5529  131.7855  159.0757 H   0  0  0  0  0  0  0  0  0  0  0  0
  151.5909  132.2810  156.3444 H   0  0  0  0  0  0  0  0  0  0  0  0
  145.2530  131.8903  155.2952 H   0  0  0  0  0  0  0  0  0  0  0  0
  147.7124  132.4492  152.9176 H   0  0  0  0  0  0  0  0  0  0  0  0
  148.1604  130.8075  153.3073 H   0  0  0  0  0  0  0  0  0  0  0  0
  145.3006  131.1791  153.7336 H   0  0  0  0  0  0  0  0  0  0  0  0
  144.6852  131.5142  151.2306 H   0  0  0  0  0  0  0  0  0  0  0  0
  145.2238  132.9354  152.0936 H   0  0  0  0  0  0  0  0  0  0  0  0
  147.2335  131.4886  150.9297 H   0  0  0  0  0  0  0  0  0  0  0  0
  145.1177  129.2382  152.1817 H   0  0  0  0  0  0  0  0  0  0  0  0
  146.8092  129.4952  150.4619 H   0  0  0  0  0  0  0  0  0  0  0  0
  148.0710  129.7295  151.6786 H   0  0  0  0  0  0  0  0  0  0  0  0
  146.5142  127.1925  151.0737 H   0  0  0  0  0  0  0  0  0  0  0  0
  148.2576  127.3636  151.2969 H   0  0  0  0  0  0  0  0  0  0  0  0
  147.3380  129.0774  154.2543 H   0  0  0  0  0  0  0  0  0  0  0  0
  145.7329  128.3453  154.3249 H   0  0  0  0  0  0  0  0  0  0  0  0
  148.1092  134.9327  159.8356 H   0  0  0  0  0  0  0  0  0  0  0  0
  146.9584  134.2888  158.5993 H   0  0  0  0  0  0  0  0  0  0  0  0
  144.8352  133.3880  159.5535 H   0  0  0  0  0  0  0  0  0  0  0  0
  144.7312  132.8174  161.1908 H   0  0  0  0  0  0  0  0  0  0  0  0
  145.2165  135.7045  160.3166 H   0  0  0  0  0  0  0  0  0  0  0  0
  143.7374  135.0702  160.9962 H   0  0  0  0  0  0  0  0  0  0  0  0
  145.1212  136.2950  162.7033 H   0  0  0  0  0  0  0  0  0  0  0  0
  144.8302  134.6304  163.1480 H   0  0  0  0  0  0  0  0  0  0  0  0
  147.3912  135.7587  161.9313 H   0  0  0  0  0  0  0  0  0  0  0  0
  147.1920  135.1433  163.5522 H   0  0  0  0  0  0  0  0  0  0  0  0
  146.7829  132.8763  162.7144 H   0  0  0  0  0  0  0  0  0  0  0  0
  148.2986  133.4679  162.1101 H   0  0  0  0  0  0  0  0  0  0  0  0
  1  2  1  0  0  0  0
  1 31  1  0  0  0  0
  1 32  1  0  0  0  0
  1 33  1  0  0  0  0
  2  3  1  0  0  0  0
  2  4  1  0  0  0  0
  2 34  1  0  0  0  0
  3 35  1  0  0  0  0
  3 36  1  0  0  0  0
  3 37  1  0  0  0  0
  4 25  1  0  0  0  0
  4  5  1  0  0  0  0
  4 38  1  0  0  0  0
  5  6  1  0  0  0  0
  5 24  1  0  0  0  0
  6 11  1  0  0  0  0
  6  7  2  0  0  0  0
  7  8  1  0  0  0  0
  8  9  2  0  0  0  0
  8 39  1  0  0  0  0
  9 10  1  0  0  0  0
 10 14  1  0  0  0  0
 10 11  2  0  0  0  0
 11 12  1  0  0  0  0
 12 13  2  0  0  0  0
 13 14  1  0  0  0  0
 13 40  1  0  0  0  0
 14 15  1  0  0  0  0
 15 16  1  0  0  0  0
 15 41  1  0  0  0  0
 15 42  1  0  0  0  0
 16 17  1  0  0  0  0
 16 19  1  0  0  0  0
 16 43  1  0  0  0  0
 17 18  1  0  0  0  0
 17 44  1  0  0  0  0
 17 45  1  0  0  0  0
 18 46  1  0  0  0  0
 19 23  1  0  0  0  0
 19 20  1  0  0  0  0
 19 47  1  0  0  0  0
 20 21  1  0  0  0  0
 20 48  1  0  0  0  0
 20 49  1  0  0  0  0
 21 22  1  0  0  0  0
 21 50  1  0  0  0  0
 21 51  1  0  0  0  0
 22 23  1  0  0  0  0
 23 52  1  0  0  0  0
 23 53  1  0  0  0  0
 24 25  1  0  0  0  0
 24 54  1  0  0  0  0
 24 55  1  0  0  0  0
 25 30  1  0  0  0  0
 25 26  1  0  0  0  0
 26 27  1  0  0  0  0
 26 56  1  0  0  0  0
 26 57  1  0  0  0  0
 27 28  1  0  0  0  0
 27 58  1  0  0  0  0
 27 59  1  0  0  0  0
 28 29  1  0  0  0  0
 28 60  1  0  0  0  0
 28 61  1  0  0  0  0
 29 30  1  0  0  0  0
 29 62  1  0  0  0  0
 29 63  1  0  0  0  0
 30 64  1  0  0  0  0
 30 65  1  0  0  0  0
M  END
> <s_m_source_file>
AV-unprocessed.smi

> <i_m_source_file_index>
275

> <i_lp_mmshare_version>
43012

> <i_f3d_flags>
0

> <s_epik_input>
W0NIMl0xW0NIMl1bQ0gyXVtDSDJdW0NIMl1DMTJbQ0BIXShbQ0hdKFtDSDNdKVtDSDNdKU4oW0NIMl0yKWMobltjSF1uMyljKGMzNCluW2NIXW40W0NIMl1bQ0BIXShbQ0gyXVtPSF0pW0NAQEhdNVtDSDJdW0NIMl1PW0NIMl01

> <s_epik_cmdline>
J2VwaWtfcHl0aG9uJywgJy1waCcsICc3LjAnLCAnLXRuJywgJzgnLCAnLW1hJywgJzIwMCcsICctbWV0YWxfYmluZGluZycsICctaW1hZScsICc8aW5maWxlLm1hZT4nLCAnLW9tYWUnLCAnPG91dGZpbGUubWFlPic=

> <r_lp_tautomer_probability>
1

> <r_epik_Ionization_Penalty>
0.00375122

> <r_epik_Ionization_Penalty_Charging>
0

> <r_epik_Ionization_Penalty_Neutral>
0.00375122

> <r_epik_State_Penalty>
0.00260593

> <r_epik_Charging_Adjusted_Penalty>
0.00260593

> <i_epik_Tot_Q>
0

> <i_epik_Tot_abs_Q>
0

> <r_epik_Metal_State_Penalty>
-0

> <b_epik_Metal_Only>
0

> <s_lp_Force_Field>
OPLS_2005

> <r_lp_Energy>
64.3005

> <b_lp_Chiralities_Consistent>
1

> <s_lp_Variant>
AV-unprocessed.smi:275-7

> <Gold.Version>
5.8.1

> <Gold.Id.Protein>
6NUR|6NUR_protein|mol2

> <Gold.PLP.Fitness>
43.5029

> <Gold.PLP.PLP>
-37.4068

> <Gold.PLP.part.hbond>
-1.9792

> <Gold.PLP.part.metal>
0.0000

> <Gold.PLP.part.buried>
-2.8387

> <Gold.PLP.part.nonpolar>
-33.1288

> <Gold.PLP.part.repulsive>
0.0747

> <Gold.PLP.ligand.clash>
0.0000

> <Gold.PLP.ligand.torsion>
1.3722

> <Gold.PLP.Chemscore.Hbond>
1.9280

> <Gold.PLP.Chemscore.CHOScore>
0.7937

> <Gold.PLP.Chemscore.Metal>
0.0000

> <Gold.Chemscore.Hbonds>
donor molecule, donor type, donor heavy atom, donor atom, acceptor molecule, acceptor atom, score
      L1  H    18    46       P1 10747  0.85
      P1  H  6896  6908       L1     7  1.00
      L1  C    13    40       P1 10957  0.82

> <Gold.PLP.Chemscore.Internal.Correction>
0.6756

> <Gold.Rescore>
     Score         DG    S(hbond)    S(metal)    S(lipo)     H(rot)  DE(clash)    DE(int)     intcor
     14.35     -17.35       1.79        0.00     105.73       2.54       1.55       1.44       ----

> <Gold.Chemscore.Fitness>
14.3531

> <Gold.Chemscore.DG>
-17.3472

> <Gold.Chemscore.ZeroCoef>
-5.4800

> <Gold.Chemscore.Hbond>
1.7945

> <Gold.Chemscore.Metal>
0.0000

> <Gold.Chemscore.Lipo>
105.7269

> <Gold.Chemscore.Internal_Hbond>
0.0000

> <Gold.Chemscore.DEClash>
1.5515

> <Gold.Chemscore.DEInternal>
1.4425

> <Gold.Chemscore.Rot>
2.5377

> <Gold.Chemscore.Internal.Correction>
   9.000000E+99

> <Gold.Chemscore.Hbonds>
donor molecule, donor type, donor heavy atom, donor atom, acceptor molecule, acceptor atom, score
      L1  H    18    46       P1 10747  0.83
      P1  H  6896  6908       L1     7  0.59

> <Gold.Chemscore.Hbond.Weighted>
-5.9937

> <Gold.Chemscore.Metal.Weighted>
-0.0000

> <Gold.Chemscore.Lipo.Weighted>
-12.3701

> <Gold.Chemscore.Internal_Hbond.Weighted>
0.0000

> <Gold.Chemscore.DEClash.Weighted>
1.5515

> <Gold.Chemscore.DEInternal.Weighted>
1.4425

> <Gold.Chemscore.Rot.Weighted>
6.4966

> <Gold.Chemscore.Internal.Correction.Weighted>
   9.000000E+99

> <Gold.Protein.RotatedTorsions>
[ 6907 6896 6895 6894 ] final   94.55 input  -60.11 | X-H torsion
[ 7974 7965 7964 7962 ] final  106.73 input  175.53 | X-H torsion
[ 8008 7997 7996 7995 ] final   40.61 input   59.86 | X-H torsion
[ 10167 10162 10161 10158 ] final  -16.50 input  -65.29 | X-H torsion
[ 10718 10713 10712 10709 ] final  -27.07 input   66.30 | X-H torsion
[ 10763 10752 10751 10750 ] final    1.02 input  -60.55 | X-H torsion
[ 11005 11000 10999 10996 ] final  -43.14 input  -57.11 | X-H torsion

> <Gold.Protein.ActiveResidues>
 VAL166  LYS551  ARG553  GLY616  TRP617  ASP618  TYR619  PRO620  LYS621  CYS622 
 ASP623  PHE694  ASN695  SER759  ASP760  ASP761  ALA762  ILE779  LEU786  VAL792 
 PHE793  MET794  SER795  GLU796  ALA797  LYS798  CYS799  TRP800  GLU811  SER814 

> <Gold.Protein.RotatedAtoms>
  152.5449  134.1177  159.8385 H   0  0  0  0  0  0  0  0  0  0  0  0  # atno 6907 bound_to 6896
  151.1236  133.5079  159.2608 H   0  0  0  0  0  0  0  0  0  0  0  0  # atno 6908 bound_to 6896
  151.1752  135.0345  159.8823 H   0  0  0  0  0  0  0  0  0  0  0  0  # atno 6909 bound_to 6896
  145.3028  139.2564  143.3804 H   0  0  0  0  0  0  0  0  0  0  0  0  # atno 7974 bound_to 7965
  155.2560  140.3356  155.4277 H   0  0  0  0  0  0  0  0  0  0  0  0  # atno 8008 bound_to 7997
  156.2195  140.1803  156.7553 H   0  0  0  0  0  0  0  0  0  0  0  0  # atno 8009 bound_to 7997
  154.5804  140.0654  156.9080 H   0  0  0  0  0  0  0  0  0  0  0  0  # atno 8010 bound_to 7997
  140.7234  143.5110  150.9750 H   0  0  0  0  0  0  0  0  0  0  0  0  # atno 10167 bound_to 10162
  156.4430  130.4468  149.7040 H   0  0  0  0  0  0  0  0  0  0  0  0  # atno 10718 bound_to 10713
  153.3133  135.6964  153.7096 H   0  0  0  0  0  0  0  0  0  0  0  0  # atno 10763 bound_to 10752
  153.5965  135.3470  155.2930 H   0  0  0  0  0  0  0  0  0  0  0  0  # atno 10764 bound_to 10752
  154.8580  135.4330  154.2277 H   0  0  0  0  0  0  0  0  0  0  0  0  # atno 10765 bound_to 10752
  141.0364  133.6798  156.2692 H   0  0  0  0  0  0  0  0  0  0  0  0  # atno 11005 bound_to 11000
  146.3146  140.3546  142.8659 LP  0  0  0  0  0  0  0  0  0  0  0  0  # atno 17320 bound_to 7965
  144.9079  140.7722  143.5826 LP  0  0  0  0  0  0  0  0  0  0  0  0  # atno 17321 bound_to 7965
  139.8824  143.7055  152.3155 LP  0  0  0  0  0  0  0  0  0  0  0  0  # atno 17342 bound_to 10162
  139.7342  144.7575  151.0753 LP  0  0  0  0  0  0  0  0  0  0  0  0  # atno 17343 bound_to 10162
  156.3897  130.7621  151.2621 LP  0  0  0  0  0  0  0  0  0  0  0  0  # atno 17370 bound_to 10713
  157.7505  131.0271  150.3992 LP  0  0  0  0  0  0  0  0  0  0  0  0  # atno 17371 bound_to 10713
  140.6315  134.5259  157.5560 LP  0  0  0  0  0  0  0  0  0  0  0  0  # atno 17394 bound_to 11000
  139.9243  134.8086  156.1114 LP  0  0  0  0  0  0  0  0  0  0  0  0  # atno 17395 bound_to 11000

$$$$
