AV-unprocessed.smi:1675|AV-procd|sdf|6718|dock1
  -GOLD-   22720 7463D 1   1.00000     0.00000
 Structure written by MMmdl.
 40 42  0  0  0  0  0  0  0  0  1 V2000
  146.7415  136.5031  153.6620 N   0  0  0  0  0  0  0  0  0  0  0  0
  146.2371  137.7324  153.7951 C   0  0  0  0  0  0  0  0  0  0  0  0
  145.2470  137.9662  154.4852 O   0  0  0  0  0  0  0  0  0  0  0  0
  146.9465  138.8632  153.0478 C   0  0  0  0  0  0  0  0  0  0  0  0
  147.4052  139.8903  153.9651 N   0  0  0  0  0  0  0  0  0  0  0  0
  148.6992  140.3207  154.1832 C   0  0  0  0  0  0  0  0  0  0  0  0
  148.6095  141.2985  155.1333 C   0  0  0  0  0  0  0  0  0  0  0  0
  149.6379  142.0770  155.7227 N   0  0  0  0  0  0  0  0  0  0  0  0
  150.8830  141.6813  156.0414 C   0  0  0  0  0  0  0  0  0  0  0  0
  151.3126  140.5408  155.8649 O   0  0  0  0  0  0  0  0  0  0  0  0
  151.7735  142.7582  156.6749 C   0  0  0  0  0  0  0  0  0  0  0  0
  151.3912  143.1300  158.1268 C   0  0  1  0  0  0  0  0  0  0  0  0
  151.5233  141.9652  159.1382 C   0  0  0  0  0  0  0  0  0  0  0  0
  152.4443  142.5489  160.2249 C   0  0  2  0  0  0  0  0  0  0  0  0
  151.6940  143.6457  161.0032 C   0  0  0  0  0  0  0  0  0  0  0  0
  151.6348  144.8018  159.9870 C   0  0  0  0  0  0  0  0  0  0  0  0
  152.3213  144.1986  158.7463 C   0  0  1  0  0  0  0  0  0  0  0  0
  153.4240  143.3634  159.3903 C   0  0  0  0  0  0  0  0  0  0  0  0
  147.2288  141.4126  155.4412 C   0  0  0  0  0  0  0  0  0  0  0  0
  146.5069  140.5569  154.7333 N   0  0  0  0  0  0  0  0  0  0  0  0
  146.3070  135.7284  154.1419 H   0  0  0  0  0  0  0  0  0  0  0  0
  147.5574  136.3524  153.0866 H   0  0  0  0  0  0  0  0  0  0  0  0
  147.7942  138.4811  152.4761 H   0  0  0  0  0  0  0  0  0  0  0  0
  146.2566  139.3146  152.3336 H   0  0  0  0  0  0  0  0  0  0  0  0
  149.5392  139.8994  153.6508 H   0  0  0  0  0  0  0  0  0  0  0  0
  149.3988  143.0349  155.9348 H   0  0  0  0  0  0  0  0  0  0  0  0
  152.8113  142.4254  156.6350 H   0  0  0  0  0  0  0  0  0  0  0  0
  151.7122  143.6477  156.0469 H   0  0  0  0  0  0  0  0  0  0  0  0
  150.3675  143.5087  158.1257 H   0  0  0  0  0  0  0  0  0  0  0  0
  150.5580  141.6505  159.5363 H   0  0  0  0  0  0  0  0  0  0  0  0
  151.9913  141.0919  158.6815 H   0  0  0  0  0  0  0  0  0  0  0  0
  152.9006  141.7927  160.8643 H   0  0  0  0  0  0  0  0  0  0  0  0
  150.7030  143.3200  161.3215 H   0  0  0  0  0  0  0  0  0  0  0  0
  152.2503  143.9453  161.8923 H   0  0  0  0  0  0  0  0  0  0  0  0
  150.6141  145.1285  159.7847 H   0  0  0  0  0  0  0  0  0  0  0  0
  152.1923  145.6637  160.3559 H   0  0  0  0  0  0  0  0  0  0  0  0
  152.6668  144.9514  158.0369 H   0  0  0  0  0  0  0  0  0  0  0  0
  154.1182  143.9531  159.9918 H   0  0  0  0  0  0  0  0  0  0  0  0
  153.9916  142.7621  158.6789 H   0  0  0  0  0  0  0  0  0  0  0  0
  146.7363  142.0716  156.1409 H   0  0  0  0  0  0  0  0  0  0  0  0
  1  2  1  0  0  0  0
  1 21  1  0  0  0  0
  1 22  1  0  0  0  0
  2  3  2  0  0  0  0
  2  4  1  0  0  0  0
  4  5  1  0  0  0  0
  4 23  1  0  0  0  0
  4 24  1  0  0  0  0
  5 20  1  0  0  0  0
  5  6  1  0  0  0  0
  6  7  2  0  0  0  0
  6 25  1  0  0  0  0
  7  8  1  0  0  0  0
  7 19  1  0  0  0  0
  8  9  1  0  0  0  0
  8 26  1  0  0  0  0
  9 10  2  0  0  0  0
  9 11  1  0  0  0  0
 11 12  1  0  0  0  0
 11 27  1  0  0  0  0
 11 28  1  0  0  0  0
 12 17  1  0  0  0  0
 12 13  1  0  0  0  0
 12 29  1  0  0  0  0
 13 14  1  0  0  0  0
 13 30  1  0  0  0  0
 13 31  1  0  0  0  0
 14 18  1  0  0  0  0
 14 15  1  0  0  0  0
 14 32  1  0  0  0  0
 15 16  1  0  0  0  0
 15 33  1  0  0  0  0
 15 34  1  0  0  0  0
 16 17  1  0  0  0  0
 16 35  1  0  0  0  0
 16 36  1  0  0  0  0
 17 18  1  0  0  0  0
 17 37  1  0  0  0  0
 18 38  1  0  0  0  0
 18 39  1  0  0  0  0
 19 20  2  0  0  0  0
 19 40  1  0  0  0  0
M  END
> <s_m_source_file>
AV-unprocessed.smi

> <i_m_source_file_index>
1675

> <i_lp_mmshare_version>
43012

> <i_f3d_flags>
0

> <s_epik_input>
W05IMl1DKD1PKVtDSDJdbjFbY0hdYyhbY0hdbjEpW05IXUMoPU8pW0NIMl1bQ0BIXShbQ0gyXVtDQEBIXTIzKVtDQEBIXShbQ0gyXTMpW0NIMl1bQ0gyXTI=

> <s_epik_cmdline>
J2VwaWtfcHl0aG9uJywgJy1waCcsICc3LjAnLCAnLXRuJywgJzgnLCAnLW1hJywgJzIwMCcsICctbWV0YWxfYmluZGluZycsICctaW1hZScsICc8aW5maWxlLm1hZT4nLCAnLW9tYWUnLCAnPG91dGZpbGUubWFlPic=

> <r_lp_tautomer_probability>
1

> <r_epik_Ionization_Penalty>
2.17494e-05

> <r_epik_Ionization_Penalty_Charging>
0

> <r_epik_Ionization_Penalty_Neutral>
2.17494e-05

> <r_epik_State_Penalty>
-0

> <r_epik_Charging_Adjusted_Penalty>
0

> <i_epik_Tot_Q>
0

> <i_epik_Tot_abs_Q>
0

> <r_epik_Metal_State_Penalty>
-0

> <b_epik_Metal_Only>
0

> <s_lp_Force_Field>
OPLS_2005

> <r_lp_Energy>
53.1529

> <b_lp_Chiralities_Consistent>
1

> <s_lp_Variant>
AV-unprocessed.smi:1675-4

> <Gold.Version>
5.8.1

> <Gold.Id.Protein>
6NUR|6NUR_protein|mol2

> <Gold.PLP.Fitness>
49.1820

> <Gold.PLP.PLP>
-39.2495

> <Gold.PLP.part.hbond>
-3.0000

> <Gold.PLP.part.metal>
0.0000

> <Gold.PLP.part.buried>
-5.6222

> <Gold.PLP.part.nonpolar>
-30.1887

> <Gold.PLP.part.repulsive>
0.3586

> <Gold.PLP.ligand.clash>
0.0000

> <Gold.PLP.ligand.torsion>
0.4019

> <Gold.PLP.Chemscore.Hbond>
2.5621

> <Gold.PLP.Chemscore.CHOScore>
1.0000

> <Gold.PLP.Chemscore.Metal>
0.0000

> <Gold.Chemscore.Hbonds>
donor molecule, donor type, donor heavy atom, donor atom, acceptor molecule, acceptor atom, score
      L1  H     1    22       P1  7948  1.00
      L1  H     8    26       P1  8028  1.00
      P1  H  7989  7998       L1    10  0.04
      L1  C     6    25       P1  7957  0.79

> <Gold.PLP.Chemscore.Internal.Correction>
0.0499

> <Gold.Rescore>
     Score         DG    S(hbond)    S(metal)    S(lipo)     H(rot)  DE(clash)    DE(int)     intcor
     18.68     -21.45       2.50        0.00     112.18       2.15       1.59       1.18       ----

> <Gold.Chemscore.Fitness>
18.6838

> <Gold.Chemscore.DG>
-21.4541

> <Gold.Chemscore.ZeroCoef>
-5.4800

> <Gold.Chemscore.Hbond>
2.4997

> <Gold.Chemscore.Metal>
0.0000

> <Gold.Chemscore.Lipo>
112.1834

> <Gold.Chemscore.Internal_Hbond>
0.0000

> <Gold.Chemscore.DEClash>
1.5863

> <Gold.Chemscore.DEInternal>
1.1840

> <Gold.Chemscore.Rot>
2.1486

> <Gold.Chemscore.Internal.Correction>
   9.000000E+99

> <Gold.Chemscore.Hbonds>
donor molecule, donor type, donor heavy atom, donor atom, acceptor molecule, acceptor atom, score
      L1  H     1    22       P1  7948  1.00
      L1  H     8    26       P1  8028  0.99
      P1  H  7989  7998       L1    10  0.01

> <Gold.Chemscore.Hbond.Weighted>
-8.3490

> <Gold.Chemscore.Metal.Weighted>
-0.0000

> <Gold.Chemscore.Lipo.Weighted>
-13.1255

> <Gold.Chemscore.Internal_Hbond.Weighted>
0.0000

> <Gold.Chemscore.DEClash.Weighted>
1.5863

> <Gold.Chemscore.DEInternal.Weighted>
1.1840

> <Gold.Chemscore.Rot.Weighted>
5.5004

> <Gold.Chemscore.Internal.Correction.Weighted>
   9.000000E+99

> <Gold.Protein.RotatedTorsions>
[ 6907 6896 6895 6894 ] final  124.02 input  -60.11 | X-H torsion
[ 7974 7965 7964 7962 ] final  -68.50 input  175.53 | X-H torsion
[ 8008 7997 7996 7995 ] final  -77.27 input   59.86 | X-H torsion
[ 10167 10162 10161 10158 ] final   99.32 input  -65.29 | X-H torsion
[ 10718 10713 10712 10709 ] final -179.84 input   66.30 | X-H torsion
[ 10763 10752 10751 10750 ] final  -31.23 input  -60.55 | X-H torsion
[ 11005 11000 10999 10996 ] final -120.80 input  -57.11 | X-H torsion

> <Gold.Protein.ActiveResidues>
 VAL166  LYS551  ARG553  GLY616  TRP617  ASP618  TYR619  PRO620  LYS621  CYS622 
 ASP623  PHE694  ASN695  SER759  ASP760  ASP761  ALA762  ILE779  LEU786  VAL792 
 PHE793  MET794  SER795  GLU796  ALA797  LYS798  CYS799  TRP800  GLU811  SER814 

> <Gold.Protein.RotatedAtoms>
  152.4113  133.6968  159.6400 H   0  0  0  0  0  0  0  0  0  0  0  0  # atno 6907 bound_to 6896
  150.7993  133.8619  159.3243 H   0  0  0  0  0  0  0  0  0  0  0  0  # atno 6908 bound_to 6896
  151.6360  135.1019  160.0183 H   0  0  0  0  0  0  0  0  0  0  0  0  # atno 6909 bound_to 6896
  145.7158  140.9059  143.0656 H   0  0  0  0  0  0  0  0  0  0  0  0  # atno 7974 bound_to 7965
  154.5581  140.0713  156.8775 H   0  0  0  0  0  0  0  0  0  0  0  0  # atno 8008 bound_to 7997
  155.2864  140.3375  155.4237 H   0  0  0  0  0  0  0  0  0  0  0  0  # atno 8009 bound_to 7997
  156.2019  140.1725  156.7867 H   0  0  0  0  0  0  0  0  0  0  0  0  # atno 8010 bound_to 7997
  139.7628  144.6948  151.0267 H   0  0  0  0  0  0  0  0  0  0  0  0  # atno 10167 bound_to 10162
  156.8651  130.9764  151.3079 H   0  0  0  0  0  0  0  0  0  0  0  0  # atno 10718 bound_to 10713
  153.7939  135.6895  153.4867 H   0  0  0  0  0  0  0  0  0  0  0  0  # atno 10763 bound_to 10752
  153.1731  135.4535  154.9928 H   0  0  0  0  0  0  0  0  0  0  0  0  # atno 10764 bound_to 10752
  154.8033  135.3346  154.7433 H   0  0  0  0  0  0  0  0  0  0  0  0  # atno 10765 bound_to 10752
  141.0117  134.0255  157.3404 H   0  0  0  0  0  0  0  0  0  0  0  0  # atno 11005 bound_to 11000
  144.6930  139.9135  143.7464 LP  0  0  0  0  0  0  0  0  0  0  0  0  # atno 17320 bound_to 7965
  146.0671  139.3662  143.0545 LP  0  0  0  0  0  0  0  0  0  0  0  0  # atno 17321 bound_to 7965
  140.7808  143.4677  151.0189 LP  0  0  0  0  0  0  0  0  0  0  0  0  # atno 17342 bound_to 10162
  139.8363  143.7624  152.3180 LP  0  0  0  0  0  0  0  0  0  0  0  0  # atno 17343 bound_to 10162
  157.6228  130.8668  149.9138 LP  0  0  0  0  0  0  0  0  0  0  0  0  # atno 17370 bound_to 10713
  156.0756  130.3679  150.0684 LP  0  0  0  0  0  0  0  0  0  0  0  0  # atno 17371 bound_to 10713
  139.9094  135.0187  156.7625 LP  0  0  0  0  0  0  0  0  0  0  0  0  # atno 17394 bound_to 11000
  140.6722  133.9549  155.7863 LP  0  0  0  0  0  0  0  0  0  0  0  0  # atno 17395 bound_to 11000

$$$$
