AV-unprocessed.smi:885|AV-procd|sdf|4045|dock1
  -GOLD-   22720 1533D 1   1.00000     0.00000
 Structure written by MMmdl.
 40 42  0  0  0  0  0  0  0  0  2 V2000
  152.0704  144.1518  161.2633 C   0  0  0  0  0  0  0  0  0  0  0  0
  152.2218  145.3063  160.2605 C   0  0  0  0  0  0  0  0  0  0  0  0
  151.1359  145.2924  159.1718 C   0  0  0  0  0  0  0  0  0  0  0  0
  151.3138  144.2115  158.0952 C   0  0  0  0  0  0  0  0  0  0  0  0
  151.3767  142.7610  158.6213 C   0  0  0  0  0  0  0  0  0  0  0  0
  151.1416  141.7844  157.5070 C   0  0  0  0  0  0  0  0  0  0  0  0
  151.8915  140.6966  157.3634 N   0  0  0  0  0  0  0  0  0  0  0  0
  151.3467  140.0718  156.2330 O   0  0  0  0  0  0  0  0  0  0  0  0
  150.3377  140.8735  155.8164 C   0  0  0  0  0  0  0  0  0  0  0  0
  149.5203  140.4428  154.6409 C   0  0  1  0  0  0  0  0  0  0  0  0
  149.7009  138.9477  154.3166 C   0  0  0  0  0  0  0  0  0  0  0  0
  148.8040  138.5596  153.2103 N   0  3  0  0  0  0  0  0  0  0  0  0
  147.3992  138.9030  153.5078 C   0  0  0  0  0  0  0  0  0  0  0  0
  147.2833  140.3949  153.8677 C   0  0  0  0  0  0  0  0  0  0  0  0
  148.1526  140.6967  154.9546 O   0  0  0  0  0  0  0  0  0  0  0  0
  150.1505  141.9437  156.5863 N   0  0  0  0  0  0  0  0  0  0  0  0
  152.6945  142.4493  159.3624 C   0  0  0  0  0  0  0  0  0  0  0  0
  152.7346  142.8247  160.8557 C   0  0  0  0  0  0  0  0  0  0  0  0
  151.0115  143.9834  161.4631 H   0  0  0  0  0  0  0  0  0  0  0  0
  152.4945  144.4572  162.2204 H   0  0  0  0  0  0  0  0  0  0  0  0
  152.1229  146.2425  160.8113 H   0  0  0  0  0  0  0  0  0  0  0  0
  153.2208  145.3218  159.8235 H   0  0  0  0  0  0  0  0  0  0  0  0
  150.1522  145.1947  159.6325 H   0  0  0  0  0  0  0  0  0  0  0  0
  151.1308  146.2637  158.6761 H   0  0  0  0  0  0  0  0  0  0  0  0
  150.4691  144.3001  157.4105 H   0  0  0  0  0  0  0  0  0  0  0  0
  152.2001  144.4284  157.4975 H   0  0  0  0  0  0  0  0  0  0  0  0
  150.5542  142.6225  159.3251 H   0  0  0  0  0  0  0  0  0  0  0  0
  149.8125  141.0521  153.7837 H   0  0  0  0  0  0  0  0  0  0  0  0
  150.7332  138.7346  154.0368 H   0  0  0  0  0  0  0  0  0  0  0  0
  149.4715  138.3372  155.1914 H   0  0  0  0  0  0  0  0  0  0  0  0
  149.0878  139.0520  152.3751 H   0  0  0  0  0  0  0  0  0  0  0  0
  146.7772  138.6664  152.6443 H   0  0  0  0  0  0  0  0  0  0  0  0
  147.0471  138.2871  154.3365 H   0  0  0  0  0  0  0  0  0  0  0  0
  147.5262  141.0227  153.0090 H   0  0  0  0  0  0  0  0  0  0  0  0
  146.2597  140.6341  154.1569 H   0  0  0  0  0  0  0  0  0  0  0  0
  152.8930  141.3777  159.3099 H   0  0  0  0  0  0  0  0  0  0  0  0
  153.5269  142.9174  158.8356 H   0  0  0  0  0  0  0  0  0  0  0  0
  153.7791  142.8413  161.1683 H   0  0  0  0  0  0  0  0  0  0  0  0
  152.2717  142.0258  161.4360 H   0  0  0  0  0  0  0  0  0  0  0  0
  148.8802  137.5654  153.0480 H   0  0  0  0  0  0  0  0  0  0  0  0
  1 18  1  0  0  0  0
  1  2  1  0  0  0  0
  1 19  1  0  0  0  0
  1 20  1  0  0  0  0
  2  3  1  0  0  0  0
  2 21  1  0  0  0  0
  2 22  1  0  0  0  0
  3  4  1  0  0  0  0
  3 23  1  0  0  0  0
  3 24  1  0  0  0  0
  4  5  1  0  0  0  0
  4 25  1  0  0  0  0
  4 26  1  0  0  0  0
  5  6  1  0  0  0  0
  5 17  1  0  0  0  0
  5 27  1  0  0  0  0
  6 16  1  0  0  0  0
  6  7  2  0  0  0  0
  7  8  1  0  0  0  0
  8  9  1  0  0  0  0
  9 10  1  0  0  0  0
  9 16  2  0  0  0  0
 10 15  1  0  0  0  0
 10 11  1  0  0  0  0
 10 28  1  0  0  0  0
 11 12  1  0  0  0  0
 11 29  1  0  0  0  0
 11 30  1  0  0  0  0
 12 13  1  0  0  0  0
 12 31  1  0  0  0  0
 12 40  1  0  0  0  0
 13 14  1  0  0  0  0
 13 32  1  0  0  0  0
 13 33  1  0  0  0  0
 14 15  1  0  0  0  0
 14 34  1  0  0  0  0
 14 35  1  0  0  0  0
 17 18  1  0  0  0  0
 17 36  1  0  0  0  0
 17 37  1  0  0  0  0
 18 38  1  0  0  0  0
 18 39  1  0  0  0  0
M  CHG  1  12   1
M  END
> <s_m_source_file>
AV-unprocessed.smi

> <i_m_source_file_index>
885

> <i_lp_mmshare_version>
43012

> <i_f3d_flags>
0

> <s_epik_input>
W0NIMl0xW0NIMl1bQ0gyXVtDSDJdW0NIMl1bQ0gyXVtDSF0xYzJub2MobjIpW0NAQEhdM1tDSDJdW05IXVtDSDJdW0NIMl1PMw==

> <s_epik_cmdline>
J2VwaWtfcHl0aG9uJywgJy1waCcsICc3LjAnLCAnLXRuJywgJzgnLCAnLW1hJywgJzIwMCcsICctbWV0YWxfYmluZGluZycsICctaW1hZScsICc8aW5maWxlLm1hZT4nLCAnLW9tYWUnLCAnPG91dGZpbGUubWFlPic=

> <r_lp_tautomer_probability>
1

> <r_epik_Ionization_Penalty>
0.157575

> <r_epik_Ionization_Penalty_Charging>
0.157575

> <r_epik_Ionization_Penalty_Neutral>
1.7642e-13

> <r_epik_State_Penalty>
0.146877

> <r_epik_Charging_Adjusted_Penalty>
0.304452

> <i_epik_Tot_Q>
1

> <i_epik_Tot_abs_Q>
1

> <r_epik_Metal_State_Penalty>
0.146877

> <b_epik_Metal_Only>
0

> <s_lp_Force_Field>
OPLS_2005

> <r_lp_Energy>
20.5432

> <b_lp_Chiralities_Consistent>
1

> <s_lp_Variant>
AV-unprocessed.smi:885-2

> <Gold.Version>
5.8.1

> <Gold.Id.Protein>
6NUR|6NUR_protein|mol2

> <Gold.PLP.Fitness>
49.0699

> <Gold.PLP.PLP>
-41.6155

> <Gold.PLP.part.hbond>
-2.0000

> <Gold.PLP.part.metal>
0.0000

> <Gold.PLP.part.buried>
-6.2236

> <Gold.PLP.part.nonpolar>
-34.6018

> <Gold.PLP.part.repulsive>
0.2920

> <Gold.PLP.ligand.clash>
0.0000

> <Gold.PLP.ligand.torsion>
0.7889

> <Gold.PLP.Chemscore.Hbond>
2.9913

> <Gold.PLP.Chemscore.CHOScore>
0.0000

> <Gold.PLP.Chemscore.Metal>
0.0000

> <Gold.Chemscore.Hbonds>
donor molecule, donor type, donor heavy atom, donor atom, acceptor molecule, acceptor atom, score
      L1  H    12    31       P1  7957  1.00
      L1  H    12    40       P1  7948  1.86

> <Gold.PLP.Chemscore.Internal.Correction>
0.0586

> <Gold.Rescore>
     Score         DG    S(hbond)    S(metal)    S(lipo)     H(rot)  DE(clash)    DE(int)     intcor
     20.39     -21.08       1.91        0.00     105.62       1.23       0.08       0.61       ----

> <Gold.Chemscore.Fitness>
20.3944

> <Gold.Chemscore.DG>
-21.0840

> <Gold.Chemscore.ZeroCoef>
-5.4800

> <Gold.Chemscore.Hbond>
1.9140

> <Gold.Chemscore.Metal>
0.0000

> <Gold.Chemscore.Lipo>
105.6249

> <Gold.Chemscore.Internal_Hbond>
0.0000

> <Gold.Chemscore.DEClash>
0.0844

> <Gold.Chemscore.DEInternal>
0.6053

> <Gold.Chemscore.Rot>
1.2292

> <Gold.Chemscore.Internal.Correction>
   9.000000E+99

> <Gold.Chemscore.Hbonds>
donor molecule, donor type, donor heavy atom, donor atom, acceptor molecule, acceptor atom, score
      L1  H    12    31       P1  7957  0.98
      L1  H    12    40       P1  7948  0.91

> <Gold.Chemscore.Hbond.Weighted>
-6.3926

> <Gold.Chemscore.Metal.Weighted>
-0.0000

> <Gold.Chemscore.Lipo.Weighted>
-12.3581

> <Gold.Chemscore.Internal_Hbond.Weighted>
0.0000

> <Gold.Chemscore.DEClash.Weighted>
0.0844

> <Gold.Chemscore.DEInternal.Weighted>
0.6053

> <Gold.Chemscore.Rot.Weighted>
3.1467

> <Gold.Chemscore.Internal.Correction.Weighted>
   9.000000E+99

> <Gold.Protein.RotatedTorsions>
[ 6907 6896 6895 6894 ] final -156.71 input  -60.11 | X-H torsion
[ 7974 7965 7964 7962 ] final  158.55 input  175.53 | X-H torsion
[ 8008 7997 7996 7995 ] final -159.38 input   59.86 | X-H torsion
[ 10167 10162 10161 10158 ] final  143.68 input  -65.29 | X-H torsion
[ 10718 10713 10712 10709 ] final -174.02 input   66.30 | X-H torsion
[ 10763 10752 10751 10750 ] final   45.89 input  -60.55 | X-H torsion
[ 11005 11000 10999 10996 ] final  -94.97 input  -57.11 | X-H torsion

> <Gold.Protein.ActiveResidues>
 VAL166  LYS551  ARG553  GLY616  TRP617  ASP618  TYR619  PRO620  LYS621  CYS622 
 ASP623  PHE694  ASN695  SER759  ASP760  ASP761  ALA762  ILE779  LEU786  VAL792 
 PHE793  MET794  SER795  GLU796  ALA797  LYS798  CYS799  TRP800  GLU811  SER814 

> <Gold.Protein.RotatedAtoms>
  151.2918  133.4162  159.2633 H   0  0  0  0  0  0  0  0  0  0  0  0  # atno 6907 bound_to 6896
  151.0270  134.9512  159.8101 H   0  0  0  0  0  0  0  0  0  0  0  0  # atno 6908 bound_to 6896
  152.5337  134.2880  159.9085 H   0  0  0  0  0  0  0  0  0  0  0  0  # atno 6909 bound_to 6896
  144.7839  139.7494  143.6248 H   0  0  0  0  0  0  0  0  0  0  0  0  # atno 7974 bound_to 7965
  155.7617  140.0840  157.2152 H   0  0  0  0  0  0  0  0  0  0  0  0  # atno 8008 bound_to 7997
  154.4003  140.1541  156.2896 H   0  0  0  0  0  0  0  0  0  0  0  0  # atno 8009 bound_to 7997
  155.8833  140.3419  155.5906 H   0  0  0  0  0  0  0  0  0  0  0  0  # atno 8010 bound_to 7997
  139.4964  144.6024  151.6452 H   0  0  0  0  0  0  0  0  0  0  0  0  # atno 10167 bound_to 10162
  156.7790  130.9476  151.3120 H   0  0  0  0  0  0  0  0  0  0  0  0  # atno 10718 bound_to 10713
  152.9818  135.6025  154.3510 H   0  0  0  0  0  0  0  0  0  0  0  0  # atno 10763 bound_to 10752
  154.3199  135.2770  155.2526 H   0  0  0  0  0  0  0  0  0  0  0  0  # atno 10764 bound_to 10752
  154.4698  135.5945  153.6369 H   0  0  0  0  0  0  0  0  0  0  0  0  # atno 10765 bound_to 10752
  141.1455  133.7993  157.0371 H   0  0  0  0  0  0  0  0  0  0  0  0  # atno 11005 bound_to 11000
  146.2062  139.5387  142.9711 LP  0  0  0  0  0  0  0  0  0  0  0  0  # atno 17320 bound_to 7965
  145.5974  141.0360  143.2037 LP  0  0  0  0  0  0  0  0  0  0  0  0  # atno 17321 bound_to 7965
  140.5677  144.0162  150.6201 LP  0  0  0  0  0  0  0  0  0  0  0  0  # atno 17342 bound_to 10162
  140.3269  143.3102  152.0727 LP  0  0  0  0  0  0  0  0  0  0  0  0  # atno 17343 bound_to 10162
  157.6655  130.9004  149.9924 LP  0  0  0  0  0  0  0  0  0  0  0  0  # atno 17370 bound_to 10713
  156.1230  130.3645  149.9856 LP  0  0  0  0  0  0  0  0  0  0  0  0  # atno 17371 bound_to 10713
  140.0716  134.9699  157.1477 LP  0  0  0  0  0  0  0  0  0  0  0  0  # atno 17394 bound_to 11000
  140.3702  134.2398  155.7178 LP  0  0  0  0  0  0  0  0  0  0  0  0  # atno 17395 bound_to 11000

$$$$
