AV-unprocessed.smi:50|AV-procd|sdf|496|dock7
  -GOLD-   2262016363D 1   1.00000     0.00000
 Structure written by MMmdl.
 43 44  0  0  0  0  0  0  0  0  3 V2000
  145.2818  132.6254  151.5424 C   0  0  0  0  0  0  0  0  0  0  0  0
  144.3093  133.4221  150.6504 C   0  0  0  0  0  0  0  0  0  0  0  0
  144.1551  132.7043  149.2964 C   0  0  0  0  0  0  0  0  0  0  0  0
  144.7491  134.9021  150.4777 C   0  0  1  0  0  0  0  0  0  0  0  0
  144.0076  135.5726  149.3933 N   0  3  0  0  0  0  0  0  0  0  0  0
  144.5284  135.7698  151.7271 C   0  0  0  0  0  0  0  0  0  0  0  0
  143.4794  135.8125  152.3719 O   0  0  0  0  0  0  0  0  0  0  0  0
  145.6263  136.5003  151.9851 O   0  0  0  0  0  0  0  0  0  0  0  0
  145.6173  137.4258  153.0603 C   0  0  0  0  0  0  0  0  0  0  0  0
  146.5261  138.6116  152.7250 C   0  0  0  0  0  0  0  0  0  0  0  0
  147.5482  138.6944  153.7042 O   0  0  0  0  0  0  0  0  0  0  0  0
  147.9506  140.0005  153.9577 C   0  0  0  0  0  0  0  0  0  0  0  0
  149.3104  139.9764  154.4679 N   0  0  0  0  0  0  0  0  0  0  0  0
  150.0713  141.0264  154.8391 C   0  0  0  0  0  0  0  0  0  0  0  0
  151.2964  140.7228  155.2659 N   0  0  0  0  0  0  0  0  0  0  0  0
  151.3123  139.3382  155.1420 C   0  0  0  0  0  0  0  0  0  0  0  0
  152.3657  138.3339  155.4271 C   0  0  0  0  0  0  0  0  0  0  0  0
  153.4498  138.7113  155.8679 O   0  0  0  0  0  0  0  0  0  0  0  0
  152.0263  137.0351  155.1640 N   0  5  0  0  0  0  0  0  0  0  0  0
  150.7558  136.7208  154.6613 C   0  0  0  0  0  0  0  0  0  0  0  0
  150.5860  135.3704  154.4465 N   0  0  0  0  0  0  0  0  0  0  0  0
  149.7783  137.5518  154.3933 N   0  0  0  0  0  0  0  0  0  0  0  0
  150.1227  138.8646  154.6579 C   0  0  0  0  0  0  0  0  0  0  0  0
  145.8070  134.9233  150.2131 H   0  0  0  0  0  0  0  0  0  0  0  0
  146.2880  132.6203  151.1220 H   0  0  0  0  0  0  0  0  0  0  0  0
  144.9614  131.5879  151.6422 H   0  0  0  0  0  0  0  0  0  0  0  0
  145.3466  133.0347  152.5505 H   0  0  0  0  0  0  0  0  0  0  0  0
  143.3307  133.4042  151.1334 H   0  0  0  0  0  0  0  0  0  0  0  0
  145.0890  132.7175  148.7334 H   0  0  0  0  0  0  0  0  0  0  0  0
  143.3841  133.1625  148.6772 H   0  0  0  0  0  0  0  0  0  0  0  0
  143.8695  131.6612  149.4370 H   0  0  0  0  0  0  0  0  0  0  0  0
  144.0307  136.5715  149.5418 H   0  0  0  0  0  0  0  0  0  0  0  0
  143.0493  135.2538  149.3962 H   0  0  0  0  0  0  0  0  0  0  0  0
  144.5960  137.7757  153.2153 H   0  0  0  0  0  0  0  0  0  0  0  0
  145.9445  136.9483  153.9854 H   0  0  0  0  0  0  0  0  0  0  0  0
  146.9491  138.5063  151.7247 H   0  0  0  0  0  0  0  0  0  0  0  0
  145.9353  139.5286  152.7375 H   0  0  0  0  0  0  0  0  0  0  0  0
  147.9312  140.5884  153.0385 H   0  0  0  0  0  0  0  0  0  0  0  0
  147.3085  140.4658  154.7065 H   0  0  0  0  0  0  0  0  0  0  0  0
  149.7168  142.0455  154.7965 H   0  0  0  0  0  0  0  0  0  0  0  0
  151.3001  134.6818  154.6315 H   0  0  0  0  0  0  0  0  0  0  0  0
  149.7276  134.9727  154.0942 H   0  0  0  0  0  0  0  0  0  0  0  0
  144.4349  135.3522  148.5053 H   0  0  0  0  0  0  0  0  0  0  0  0
  1  2  1  0  0  0  0
  1 25  1  0  0  0  0
  1 26  1  0  0  0  0
  1 27  1  0  0  0  0
  2  3  1  0  0  0  0
  2  4  1  0  0  0  0
  2 28  1  0  0  0  0
  3 29  1  0  0  0  0
  3 30  1  0  0  0  0
  3 31  1  0  0  0  0
  4 24  1  0  0  0  0
  4  5  1  0  0  0  0
  4  6  1  0  0  0  0
  5 32  1  0  0  0  0
  5 33  1  0  0  0  0
  5 43  1  0  0  0  0
  6  7  2  0  0  0  0
  6  8  1  0  0  0  0
  8  9  1  0  0  0  0
  9 10  1  0  0  0  0
  9 34  1  0  0  0  0
  9 35  1  0  0  0  0
 10 11  1  0  0  0  0
 10 36  1  0  0  0  0
 10 37  1  0  0  0  0
 11 12  1  0  0  0  0
 12 13  1  0  0  0  0
 12 38  1  0  0  0  0
 12 39  1  0  0  0  0
 13 23  1  0  0  0  0
 13 14  1  0  0  0  0
 14 15  2  0  0  0  0
 14 40  1  0  0  0  0
 15 16  1  0  0  0  0
 16 23  2  0  0  0  0
 16 17  1  0  0  0  0
 17 18  2  0  0  0  0
 17 19  1  0  0  0  0
 19 20  1  0  0  0  0
 20 21  1  0  0  0  0
 20 22  2  0  0  0  0
 21 41  1  0  0  0  0
 21 42  1  0  0  0  0
 22 23  1  0  0  0  0
M  CHG  1   5   1
M  CHG  1  19  -1
M  END
> <s_m_source_file>
AV-unprocessed.smi

> <i_m_source_file_index>
50

> <i_lp_mmshare_version>
43012

> <i_f3d_flags>
0

> <s_epik_input>
W0NIM11bQ0hdKFtDSDNdKVtDQEhdKFtOSDJdKUMoPU8pT1tDSDJdW0NIMl1PW0NIMl1uKFtjSF1uMSljKGMxMiluYyhbTkgyXSlbbkhdYzI9Tw==

> <s_epik_cmdline>
J2VwaWtfcHl0aG9uJywgJy1waCcsICc3LjAnLCAnLXRuJywgJzgnLCAnLW1hJywgJzIwMCcsICctbWV0YWxfYmluZGluZycsICctaW1hZScsICc8aW5maWxlLm1hZT4nLCAnLW9tYWUnLCAnPG91dGZpbGUubWFlPic=

> <r_lp_tautomer_probability>
0.99994

> <r_epik_Ionization_Penalty>
3.77459

> <r_epik_Ionization_Penalty_Charging>
0.215994

> <r_epik_Ionization_Penalty_Neutral>
3.5586

> <r_epik_State_Penalty>
3.75449

> <r_epik_Charging_Adjusted_Penalty>
3.97048

> <i_epik_Tot_Q>
0

> <i_epik_Tot_abs_Q>
2

> <r_epik_Metal_State_Penalty>
0.723824

> <b_epik_Metal_Only>
1

> <s_epik_Chemistry_Notes>
This compound has an ester and may undergo hydrolysis at high or low pH. This compound contains an acetal/aminal-like group ( X-CH(R)-Y where X, Y are N, S, or O) that may be acid/base labile, releasing an aldehyde.

> <s_lp_Force_Field>
OPLS_2005

> <r_lp_Energy>
22.4326

> <b_lp_Chiralities_Consistent>
1

> <s_lp_Variant>
AV-unprocessed.smi:50-6

> <Gold.Version>
5.8.1

> <Gold.Id.Protein>
6NUR|6NUR_protein|mol2

> <Gold.PLP.Fitness>
53.9386

> <Gold.PLP.PLP>
-36.2067

> <Gold.PLP.part.hbond>
-7.4016

> <Gold.PLP.part.metal>
0.0000

> <Gold.PLP.part.buried>
-2.4874

> <Gold.PLP.part.nonpolar>
-29.9946

> <Gold.PLP.part.repulsive>
1.7908

> <Gold.PLP.ligand.clash>
0.0000

> <Gold.PLP.ligand.torsion>
1.4874

> <Gold.PLP.Chemscore.Hbond>
6.2785

> <Gold.PLP.Chemscore.CHOScore>
0.5824

> <Gold.PLP.Chemscore.Metal>
0.0000

> <Gold.Chemscore.Hbonds>
donor molecule, donor type, donor heavy atom, donor atom, acceptor molecule, acceptor atom, score
      L1  H     5    32       P1 10171  1.00
      L1  H     5    33       P1 10186  1.24
      L1  H     5    43       P1  7921  0.90
      P1  H  7989  7998       L1    15  0.02
      P1  H  7997  8008       L1    18  0.88
      P1  H 10752 10763       L1    19  1.86
      L1  C    14    40       P1  8028  0.02

> <Gold.PLP.Chemscore.Internal.Correction>
0.1240

> <Gold.Rescore>
     Score         DG    S(hbond)    S(metal)    S(lipo)     H(rot)  DE(clash)    DE(int)     intcor
      7.61     -11.22       3.73        0.00      48.19       4.83       0.56       3.04       ----

> <Gold.Chemscore.Fitness>
7.6098

> <Gold.Chemscore.DG>
-11.2156

> <Gold.Chemscore.ZeroCoef>
-5.4800

> <Gold.Chemscore.Hbond>
3.7320

> <Gold.Chemscore.Metal>
0.0000

> <Gold.Chemscore.Lipo>
48.1919

> <Gold.Chemscore.Internal_Hbond>
0.0000

> <Gold.Chemscore.DEClash>
0.5635

> <Gold.Chemscore.DEInternal>
3.0423

> <Gold.Chemscore.Rot>
4.8312

> <Gold.Chemscore.Internal.Correction>
   9.000000E+99

> <Gold.Chemscore.Hbonds>
donor molecule, donor type, donor heavy atom, donor atom, acceptor molecule, acceptor atom, score
      L1  H     5    32       P1 10171  0.95
      L1  H     5    33       P1 10186  0.30
      L1  H     5    43       P1  7921  0.87
      P1  H  7997  8008       L1    18  0.86
      P1  H 10752 10763       L1    19  0.36

> <Gold.Chemscore.Hbond.Weighted>
-12.4650

> <Gold.Chemscore.Metal.Weighted>
-0.0000

> <Gold.Chemscore.Lipo.Weighted>
-5.6385

> <Gold.Chemscore.Internal_Hbond.Weighted>
0.0000

> <Gold.Chemscore.DEClash.Weighted>
0.5635

> <Gold.Chemscore.DEInternal.Weighted>
3.0423

> <Gold.Chemscore.Rot.Weighted>
12.3678

> <Gold.Chemscore.Internal.Correction.Weighted>
   9.000000E+99

> <Gold.Protein.RotatedTorsions>
[ 6907 6896 6895 6894 ] final  -69.29 input  -60.11 | X-H torsion
[ 7974 7965 7964 7962 ] final -158.35 input  175.53 | X-H torsion
[ 8008 7997 7996 7995 ] final  -29.06 input   59.86 | X-H torsion
[ 10167 10162 10161 10158 ] final   39.57 input  -65.29 | X-H torsion
[ 10718 10713 10712 10709 ] final   57.11 input   66.30 | X-H torsion
[ 10763 10752 10751 10750 ] final   69.96 input  -60.55 | X-H torsion
[ 11005 11000 10999 10996 ] final   29.79 input  -57.11 | X-H torsion

> <Gold.Protein.ActiveResidues>
 VAL166  LYS551  ARG553  GLY616  TRP617  ASP618  TYR619  PRO620  LYS621  CYS622 
 ASP623  PHE694  ASN695  SER759  ASP760  ASP761  ALA762  ILE779  LEU786  VAL792 
 PHE793  MET794  SER795  GLU796  ALA797  LYS798  CYS799  TRP800  GLU811  SER814 

> <Gold.Protein.RotatedAtoms>
  150.7313  134.5618  159.5845 H   0  0  0  0  0  0  0  0  0  0  0  0  # atno 6907 bound_to 6896
  152.3079  134.7529  160.0352 H   0  0  0  0  0  0  0  0  0  0  0  0  # atno 6908 bound_to 6896
  151.8087  133.3343  159.3585 H   0  0  0  0  0  0  0  0  0  0  0  0  # atno 6909 bound_to 6896
  144.7509  140.3840  143.6048 H   0  0  0  0  0  0  0  0  0  0  0  0  # atno 7974 bound_to 7965
  154.4306  140.1828  156.1188 H   0  0  0  0  0  0  0  0  0  0  0  0  # atno 8008 bound_to 7997
  156.0159  140.3346  155.6963 H   0  0  0  0  0  0  0  0  0  0  0  0  # atno 8009 bound_to 7997
  155.6044  140.0643  157.2714 H   0  0  0  0  0  0  0  0  0  0  0  0  # atno 8010 bound_to 7997
  140.3826  144.1959  150.6130 H   0  0  0  0  0  0  0  0  0  0  0  0  # atno 10167 bound_to 10162
  157.5487  130.8750  149.8931 H   0  0  0  0  0  0  0  0  0  0  0  0  # atno 10718 bound_to 10713
  153.0315  135.5191  154.7368 H   0  0  0  0  0  0  0  0  0  0  0  0  # atno 10763 bound_to 10752
  154.6380  135.2908  155.0140 H   0  0  0  0  0  0  0  0  0  0  0  0  # atno 10764 bound_to 10752
  154.1068  135.6628  153.4930 H   0  0  0  0  0  0  0  0  0  0  0  0  # atno 10765 bound_to 10752
  140.3012  134.2754  155.7753 H   0  0  0  0  0  0  0  0  0  0  0  0  # atno 11005 bound_to 11000
  145.6947  139.1647  143.2627 LP  0  0  0  0  0  0  0  0  0  0  0  0  # atno 17320 bound_to 7965
  146.1458  140.6995  142.9345 LP  0  0  0  0  0  0  0  0  0  0  0  0  # atno 17321 bound_to 7965
  140.4921  143.2344  151.8803 LP  0  0  0  0  0  0  0  0  0  0  0  0  # atno 17342 bound_to 10162
  139.4794  144.5154  151.8875 LP  0  0  0  0  0  0  0  0  0  0  0  0  # atno 17343 bound_to 10162
  156.0558  130.3709  150.1095 LP  0  0  0  0  0  0  0  0  0  0  0  0  # atno 17370 bound_to 10713
  156.9269  130.9701  151.3539 LP  0  0  0  0  0  0  0  0  0  0  0  0  # atno 17371 bound_to 10713
  141.2127  133.7647  156.9770 LP  0  0  0  0  0  0  0  0  0  0  0  0  # atno 17394 bound_to 11000
  140.1107  134.9478  157.2061 LP  0  0  0  0  0  0  0  0  0  0  0  0  # atno 17395 bound_to 11000

$$$$
