AV-unprocessed.smi:964|AV-procd|sdf|4280|dock3
  -GOLD-   22720 2183D 1   1.00000     0.00000
 Structure written by MMmdl.
 19 19  0  0  0  0  0  0  0  0  3 V2000
  152.4126  140.6176  158.2056 C   0  0  0  0  0  0  0  0  0  0  0  0
  151.8314  140.3618  156.8337 C   0  0  0  0  0  0  0  0  0  0  0  0
  150.5494  140.5641  156.4980 N   0  0  0  0  0  0  0  0  0  0  0  0
  150.4522  140.2129  155.2203 C   0  0  0  0  0  0  0  0  0  0  0  0
  149.2044  140.3017  154.3724 C   0  0  0  0  0  0  0  0  0  0  0  0
  148.6300  138.9142  154.0653 C   0  0  0  0  0  0  0  0  0  0  0  0
  148.0937  138.8496  152.6964 N   0  3  0  0  0  0  0  0  0  0  0  0
  151.6663  139.8256  154.7936 N   0  5  0  0  0  0  0  0  0  0  0  0
  152.5315  139.9048  155.7843 N   0  0  0  0  0  0  0  0  0  0  0  0
  151.6469  140.9884  158.8874 H   0  0  0  0  0  0  0  0  0  0  0  0
  153.2092  141.3590  158.1455 H   0  0  0  0  0  0  0  0  0  0  0  0
  152.8263  139.6975  158.6183 H   0  0  0  0  0  0  0  0  0  0  0  0
  148.4675  140.9101  154.8981 H   0  0  0  0  0  0  0  0  0  0  0  0
  149.4466  140.8266  153.4476 H   0  0  0  0  0  0  0  0  0  0  0  0
  149.4025  138.1525  154.1761 H   0  0  0  0  0  0  0  0  0  0  0  0
  147.8326  138.6703  154.7681 H   0  0  0  0  0  0  0  0  0  0  0  0
  148.1225  137.8948  152.3688 H   0  0  0  0  0  0  0  0  0  0  0  0
  148.6538  139.4318  152.0903 H   0  0  0  0  0  0  0  0  0  0  0  0
  147.1392  139.1795  152.6950 H   0  0  0  0  0  0  0  0  0  0  0  0
  1  2  1  0  0  0  0
  1 10  1  0  0  0  0
  1 11  1  0  0  0  0
  1 12  1  0  0  0  0
  2  9  2  0  0  0  0
  2  3  1  0  0  0  0
  3  4  2  0  0  0  0
  4  5  1  0  0  0  0
  4  8  1  0  0  0  0
  5  6  1  0  0  0  0
  5 13  1  0  0  0  0
  5 14  1  0  0  0  0
  6  7  1  0  0  0  0
  6 15  1  0  0  0  0
  6 16  1  0  0  0  0
  7 17  1  0  0  0  0
  7 18  1  0  0  0  0
  7 19  1  0  0  0  0
  8  9  1  0  0  0  0
M  CHG  1   7   1
M  CHG  1   8  -1
M  END
> <s_m_source_file>
AV-unprocessed.smi

> <i_m_source_file_index>
964

> <i_lp_mmshare_version>
43012

> <i_f3d_flags>
0

> <s_epik_input>
W0NIM11jMW5jKG5bbkhdMSlbQ0gyXVtDSDJdW05IMl0=

> <s_epik_cmdline>
J2VwaWtfcHl0aG9uJywgJy1waCcsICc3LjAnLCAnLXRuJywgJzgnLCAnLW1hJywgJzIwMCcsICctbWV0YWxfYmluZGluZycsICctaW1hZScsICc8aW5maWxlLm1hZT4nLCAnLW9tYWUnLCAnPG91dGZpbGUubWFlPic=

> <r_lp_tautomer_probability>
0.948284

> <r_epik_Ionization_Penalty>
9.08731

> <r_epik_Ionization_Penalty_Charging>
9.08731

> <r_epik_Ionization_Penalty_Neutral>
3.1995e-13

> <r_epik_State_Penalty>
3.73635

> <r_epik_Charging_Adjusted_Penalty>
12.8237

> <i_epik_Tot_Q>
0

> <i_epik_Tot_abs_Q>
2

> <r_epik_Metal_State_Penalty>
0.739442

> <b_epik_Metal_Only>
1

> <s_lp_Force_Field>
OPLS_2005

> <r_lp_Energy>
-5.24046

> <b_lp_Chiralities_Consistent>
1

> <s_lp_Variant>
AV-unprocessed.smi:964-4

> <Gold.Version>
5.8.1

> <Gold.Id.Protein>
6NUR|6NUR_protein|mol2

> <Gold.PLP.Fitness>
30.4857

> <Gold.PLP.PLP>
-16.2891

> <Gold.PLP.part.hbond>
-3.9440

> <Gold.PLP.part.metal>
0.0000

> <Gold.PLP.part.buried>
-2.0192

> <Gold.PLP.part.nonpolar>
-9.9664

> <Gold.PLP.part.repulsive>
0.1449

> <Gold.PLP.ligand.clash>
0.0000

> <Gold.PLP.ligand.torsion>
0.4046

> <Gold.PLP.Chemscore.Hbond>
5.0000

> <Gold.PLP.Chemscore.CHOScore>
0.0000

> <Gold.PLP.Chemscore.Metal>
0.0000

> <Gold.Chemscore.Hbonds>
donor molecule, donor type, donor heavy atom, donor atom, acceptor molecule, acceptor atom, score
      L1  H     7    17       P1  7948  2.00
      L1  H     7    18       P1  7957  0.80
      P1  H  7989  7998       L1     8  0.70
      P1  H  7997  8009       L1     9  1.00

> <Gold.PLP.Chemscore.Internal.Correction>
0.0059

> <Gold.Rescore>
     Score         DG    S(hbond)    S(metal)    S(lipo)     H(rot)  DE(clash)    DE(int)     intcor
     15.39     -15.91       3.64        0.00      17.74       1.49       0.07       0.45       ----

> <Gold.Chemscore.Fitness>
15.3919

> <Gold.Chemscore.DG>
-15.9104

> <Gold.Chemscore.ZeroCoef>
-5.4800

> <Gold.Chemscore.Hbond>
3.6404

> <Gold.Chemscore.Metal>
0.0000

> <Gold.Chemscore.Lipo>
17.7374

> <Gold.Chemscore.Internal_Hbond>
0.0000

> <Gold.Chemscore.DEClash>
0.0650

> <Gold.Chemscore.DEInternal>
0.4534

> <Gold.Chemscore.Rot>
1.4859

> <Gold.Chemscore.Internal.Correction>
   9.000000E+99

> <Gold.Chemscore.Hbonds>
donor molecule, donor type, donor heavy atom, donor atom, acceptor molecule, acceptor atom, score
      L1  H     7    17       P1  7948  0.98
      L1  H     7    18       P1  7957  0.79
      P1  H  7989  7998       L1     8  0.07
      P1  H  7997  8009       L1     9  0.70

> <Gold.Chemscore.Hbond.Weighted>
-12.1590

> <Gold.Chemscore.Metal.Weighted>
-0.0000

> <Gold.Chemscore.Lipo.Weighted>
-2.0753

> <Gold.Chemscore.Internal_Hbond.Weighted>
0.0000

> <Gold.Chemscore.DEClash.Weighted>
0.0650

> <Gold.Chemscore.DEInternal.Weighted>
0.4534

> <Gold.Chemscore.Rot.Weighted>
3.8039

> <Gold.Chemscore.Internal.Correction.Weighted>
   9.000000E+99

> <Gold.Protein.RotatedTorsions>
[ 6907 6896 6895 6894 ] final  105.87 input  -60.11 | X-H torsion
[ 7974 7965 7964 7962 ] final   28.22 input  175.53 | X-H torsion
[ 8008 7997 7996 7995 ] final -147.71 input   59.86 | X-H torsion
[ 10167 10162 10161 10158 ] final   98.77 input  -65.29 | X-H torsion
[ 10718 10713 10712 10709 ] final -122.89 input   66.30 | X-H torsion
[ 10763 10752 10751 10750 ] final -159.09 input  -60.55 | X-H torsion
[ 11005 11000 10999 10996 ] final  114.86 input  -57.11 | X-H torsion

> <Gold.Protein.ActiveResidues>
 VAL166  LYS551  ARG553  GLY616  TRP617  ASP618  TYR619  PRO620  LYS621  CYS622 
 ASP623  PHE694  ASN695  SER759  ASP760  ASP761  ALA762  ILE779  LEU786  VAL792 
 PHE793  MET794  SER795  GLU796  ALA797  LYS798  CYS799  TRP800  GLU811  SER814 

> <Gold.Protein.RotatedAtoms>
  152.5215  133.9464  159.7650 H   0  0  0  0  0  0  0  0  0  0  0  0  # atno 6907 bound_to 6896
  150.9784  133.6263  159.2733 H   0  0  0  0  0  0  0  0  0  0  0  0  # atno 6908 bound_to 6896
  151.3449  135.0877  159.9436 H   0  0  0  0  0  0  0  0  0  0  0  0  # atno 6909 bound_to 6896
  146.1741  139.7085  142.8947 H   0  0  0  0  0  0  0  0  0  0  0  0  # atno 7974 bound_to 7965
  155.5799  140.0642  157.2786 H   0  0  0  0  0  0  0  0  0  0  0  0  # atno 8008 bound_to 7997
  154.4336  140.1854  156.1012 H   0  0  0  0  0  0  0  0  0  0  0  0  # atno 8009 bound_to 7997
  156.0313  140.3306  155.7146 H   0  0  0  0  0  0  0  0  0  0  0  0  # atno 8010 bound_to 7997
  139.7678  144.6933  151.0199 H   0  0  0  0  0  0  0  0  0  0  0  0  # atno 10167 bound_to 10162
  156.1456  130.6497  150.9837 H   0  0  0  0  0  0  0  0  0  0  0  0  # atno 10718 bound_to 10713
  154.7504  135.3091  154.8569 H   0  0  0  0  0  0  0  0  0  0  0  0  # atno 10763 bound_to 10752
  153.9358  135.6780  153.4749 H   0  0  0  0  0  0  0  0  0  0  0  0  # atno 10764 bound_to 10752
  153.1100  135.4871  154.8946 H   0  0  0  0  0  0  0  0  0  0  0  0  # atno 10765 bound_to 10752
  139.8993  134.9575  156.6957 H   0  0  0  0  0  0  0  0  0  0  0  0  # atno 11005 bound_to 11000
  145.4260  141.0411  143.2937 LP  0  0  0  0  0  0  0  0  0  0  0  0  # atno 17320 bound_to 7965
  144.8208  139.5795  143.6987 LP  0  0  0  0  0  0  0  0  0  0  0  0  # atno 17321 bound_to 7965
  140.7812  143.4623  151.0261 LP  0  0  0  0  0  0  0  0  0  0  0  0  # atno 17342 bound_to 10162
  139.8307  143.7695  152.3179 LP  0  0  0  0  0  0  0  0  0  0  0  0  # atno 17343 bound_to 10162
  157.6613  131.0880  150.7831 LP  0  0  0  0  0  0  0  0  0  0  0  0  # atno 17370 bound_to 10713
  156.7903  130.4888  149.5386 LP  0  0  0  0  0  0  0  0  0  0  0  0  # atno 17371 bound_to 10713
  140.7190  133.9157  155.8134 LP  0  0  0  0  0  0  0  0  0  0  0  0  # atno 17394 bound_to 11000
  141.0242  134.0846  157.4087 LP  0  0  0  0  0  0  0  0  0  0  0  0  # atno 17395 bound_to 11000

$$$$
