AV-unprocessed.smi:850|AV-procd|sdf|3947|dock8
  -GOLD-   22720 1413D 1   1.00000     0.00000
 Structure written by MMmdl.
 40 42  0  0  0  0  0  0  0  0  1 V2000
  153.8497  140.6066  160.3393 C   0  0  0  0  0  0  0  0  0  0  0  0
  152.9467  141.3429  159.4629 N   0  0  0  0  0  0  0  0  0  0  0  0
  152.4901  140.9553  158.2491 C   0  0  0  0  0  0  0  0  0  0  0  0
  152.7642  139.9027  157.6730 O   0  0  0  0  0  0  0  0  0  0  0  0
  151.6802  141.9318  157.7746 N   0  0  0  0  0  0  0  0  0  0  0  0
  150.9692  141.9269  156.4974 C   0  0  0  0  0  0  0  0  0  0  0  0
  150.6402  140.4944  156.0309 C   0  0  2  0  0  0  0  0  0  0  0  0
  151.3116  140.2513  154.8111 O   0  0  0  0  0  0  0  0  0  0  0  0
  149.1385  140.3021  155.7714 C   0  0  0  0  0  0  0  0  0  0  0  0
  148.7011  141.3005  154.8586 O   0  0  0  0  0  0  0  0  0  0  0  0
  147.4136  141.7770  154.9775 C   0  0  0  0  0  0  0  0  0  0  0  0
  146.8813  142.4634  153.8663 C   0  0  0  0  0  0  0  0  0  0  0  0
  145.5724  142.9817  153.8985 C   0  0  0  0  0  0  0  0  0  0  0  0
  144.7794  142.8181  155.0490 C   0  0  0  0  0  0  0  0  0  0  0  0
  145.2980  142.1365  156.1655 C   0  0  0  0  0  0  0  0  0  0  0  0
  146.6076  141.6186  156.1336 C   0  0  0  0  0  0  0  0  0  0  0  0
  151.6232  142.9761  158.7090 C   0  0  0  0  0  0  0  0  0  0  0  0
  150.9396  144.2047  158.6875 C   0  0  0  0  0  0  0  0  0  0  0  0
  151.0961  145.0509  159.8104 C   0  0  0  0  0  0  0  0  0  0  0  0
  151.9122  144.6641  160.9052 C   0  0  0  0  0  0  0  0  0  0  0  0
  152.5911  143.4230  160.8997 C   0  0  0  0  0  0  0  0  0  0  0  0
  152.4187  142.6027  159.7717 C   0  0  0  0  0  0  0  0  0  0  0  0
  154.1634  139.6573  159.9031 H   0  0  0  0  0  0  0  0  0  0  0  0
  153.3608  140.3948  161.2905 H   0  0  0  0  0  0  0  0  0  0  0  0
  154.7442  141.1969  160.5388 H   0  0  0  0  0  0  0  0  0  0  0  0
  150.0444  142.4892  156.6364 H   0  0  0  0  0  0  0  0  0  0  0  0
  151.5257  142.4722  155.7344 H   0  0  0  0  0  0  0  0  0  0  0  0
  150.9699  139.7572  156.7644 H   0  0  0  0  0  0  0  0  0  0  0  0
  152.1662  139.8979  155.0054 H   0  0  0  0  0  0  0  0  0  0  0  0
  148.9528  139.3023  155.3747 H   0  0  0  0  0  0  0  0  0  0  0  0
  148.5849  140.4049  156.7066 H   0  0  0  0  0  0  0  0  0  0  0  0
  147.4832  142.5925  152.9788 H   0  0  0  0  0  0  0  0  0  0  0  0
  145.1775  143.5047  153.0400 H   0  0  0  0  0  0  0  0  0  0  0  0
  143.7752  143.2151  155.0749 H   0  0  0  0  0  0  0  0  0  0  0  0
  144.6906  142.0106  157.0496 H   0  0  0  0  0  0  0  0  0  0  0  0
  146.9707  141.1032  157.0098 H   0  0  0  0  0  0  0  0  0  0  0  0
  150.3211  144.4962  157.8518 H   0  0  0  0  0  0  0  0  0  0  0  0
  150.5879  146.0037  159.8346 H   0  0  0  0  0  0  0  0  0  0  0  0
  152.0168  145.3256  161.7527 H   0  0  0  0  0  0  0  0  0  0  0  0
  153.2152  143.1214  161.7279 H   0  0  0  0  0  0  0  0  0  0  0  0
  1  2  1  0  0  0  0
  1 23  1  0  0  0  0
  1 24  1  0  0  0  0
  1 25  1  0  0  0  0
  2 22  1  0  0  0  0
  2  3  1  0  0  0  0
  3  4  2  0  0  0  0
  3  5  1  0  0  0  0
  5  6  1  0  0  0  0
  5 17  1  0  0  0  0
  6  7  1  0  0  0  0
  6 26  1  0  0  0  0
  6 27  1  0  0  0  0
  7  8  1  0  0  0  0
  7  9  1  0  0  0  0
  7 28  1  0  0  0  0
  8 29  1  0  0  0  0
  9 10  1  0  0  0  0
  9 30  1  0  0  0  0
  9 31  1  0  0  0  0
 10 11  1  0  0  0  0
 11 16  1  0  0  0  0
 11 12  2  0  0  0  0
 12 13  1  0  0  0  0
 12 32  1  0  0  0  0
 13 14  2  0  0  0  0
 13 33  1  0  0  0  0
 14 15  1  0  0  0  0
 14 34  1  0  0  0  0
 15 16  2  0  0  0  0
 15 35  1  0  0  0  0
 16 36  1  0  0  0  0
 17 22  2  0  0  0  0
 17 18  1  0  0  0  0
 18 19  2  0  0  0  0
 18 37  1  0  0  0  0
 19 20  1  0  0  0  0
 19 38  1  0  0  0  0
 20 21  2  0  0  0  0
 20 39  1  0  0  0  0
 21 22  1  0  0  0  0
 21 40  1  0  0  0  0
M  END
> <s_m_source_file>
AV-unprocessed.smi

> <i_m_source_file_index>
850

> <i_lp_mmshare_version>
43012

> <i_f3d_flags>
0

> <s_epik_input>
W2NIXTFbY0hdW2NIXVtjSF1jKGMxMiluKFtDSDNdKWMoPU8pbjJbQ0gyXVtDQEhdKFtPSF0pW0NIMl1PYzNbY0hdW2NIXVtjSF1bY0hdW2NIXTM=

> <s_epik_cmdline>
J2VwaWtfcHl0aG9uJywgJy1waCcsICc3LjAnLCAnLXRuJywgJzgnLCAnLW1hJywgJzIwMCcsICctbWV0YWxfYmluZGluZycsICctaW1hZScsICc8aW5maWxlLm1hZT4nLCAnLW9tYWUnLCAnPG91dGZpbGUubWFlPic=

> <r_lp_tautomer_probability>
1

> <r_epik_Ionization_Penalty>
2.40205e-06

> <r_epik_Ionization_Penalty_Charging>
2.75209e-09

> <r_epik_Ionization_Penalty_Neutral>
2.3993e-06

> <r_epik_State_Penalty>
-0

> <r_epik_Charging_Adjusted_Penalty>
2.75209e-09

> <i_epik_Tot_Q>
0

> <i_epik_Tot_abs_Q>
0

> <r_epik_Metal_State_Penalty>
-0

> <b_epik_Metal_Only>
0

> <s_lp_Force_Field>
OPLS_2005

> <r_lp_Energy>
46.059

> <b_lp_Chiralities_Consistent>
1

> <s_lp_Variant>
AV-unprocessed.smi:850-1

> <Gold.Version>
5.8.1

> <Gold.Id.Protein>
6NUR|6NUR_protein|mol2

> <Gold.PLP.Fitness>
53.5602

> <Gold.PLP.PLP>
-50.6821

> <Gold.PLP.part.hbond>
-2.0000

> <Gold.PLP.part.metal>
0.0000

> <Gold.PLP.part.buried>
-8.5421

> <Gold.PLP.part.nonpolar>
-39.8697

> <Gold.PLP.part.repulsive>
0.1331

> <Gold.PLP.ligand.clash>
0.0303

> <Gold.PLP.ligand.torsion>
1.5754

> <Gold.PLP.Chemscore.Hbond>
2.0000

> <Gold.PLP.Chemscore.CHOScore>
0.0000

> <Gold.PLP.Chemscore.Metal>
0.0000

> <Gold.Chemscore.Hbonds>
donor molecule, donor type, donor heavy atom, donor atom, acceptor molecule, acceptor atom, score
      P1  H  7989  7998       L1     8  0.79
      P1  H  7997  8009       L1     4  1.00

> <Gold.PLP.Chemscore.Internal.Correction>
0.0591

> <Gold.Rescore>
     Score         DG    S(hbond)    S(metal)    S(lipo)     H(rot)  DE(clash)    DE(int)     intcor
     17.17     -20.46       1.80        0.00     123.13       2.12       0.32       2.98       ----

> <Gold.Chemscore.Fitness>
17.1686

> <Gold.Chemscore.DG>
-20.4624

> <Gold.Chemscore.ZeroCoef>
-5.4800

> <Gold.Chemscore.Hbond>
1.7961

> <Gold.Chemscore.Metal>
0.0000

> <Gold.Chemscore.Lipo>
123.1323

> <Gold.Chemscore.Internal_Hbond>
0.0000

> <Gold.Chemscore.DEClash>
0.3165

> <Gold.Chemscore.DEInternal>
2.9773

> <Gold.Chemscore.Rot>
2.1184

> <Gold.Chemscore.Internal.Correction>
   9.000000E+99

> <Gold.Chemscore.Hbonds>
donor molecule, donor type, donor heavy atom, donor atom, acceptor molecule, acceptor atom, score
      P1  H  7989  7998       L1     8  0.15
      P1  H  7997  8009       L1     4  0.74

> <Gold.Chemscore.Hbond.Weighted>
-5.9990

> <Gold.Chemscore.Metal.Weighted>
-0.0000

> <Gold.Chemscore.Lipo.Weighted>
-14.4065

> <Gold.Chemscore.Internal_Hbond.Weighted>
0.0000

> <Gold.Chemscore.DEClash.Weighted>
0.3165

> <Gold.Chemscore.DEInternal.Weighted>
2.9773

> <Gold.Chemscore.Rot.Weighted>
5.4231

> <Gold.Chemscore.Internal.Correction.Weighted>
   9.000000E+99

> <Gold.Protein.RotatedTorsions>
[ 6907 6896 6895 6894 ] final  144.83 input  -60.11 | X-H torsion
[ 7974 7965 7964 7962 ] final  138.15 input  175.53 | X-H torsion
[ 8008 7997 7996 7995 ] final  172.00 input   59.86 | X-H torsion
[ 10167 10162 10161 10158 ] final  138.62 input  -65.29 | X-H torsion
[ 10718 10713 10712 10709 ] final   83.51 input   66.30 | X-H torsion
[ 10763 10752 10751 10750 ] final    5.98 input  -60.55 | X-H torsion
[ 11005 11000 10999 10996 ] final   42.23 input  -57.11 | X-H torsion

> <Gold.Protein.ActiveResidues>
 VAL166  LYS551  ARG553  GLY616  TRP617  ASP618  TYR619  PRO620  LYS621  CYS622 
 ASP623  PHE694  ASN695  SER759  ASP760  ASP761  ALA762  ILE779  LEU786  VAL792 
 PHE793  MET794  SER795  GLU796  ALA797  LYS798  CYS799  TRP800  GLU811  SER814 

> <Gold.Protein.RotatedAtoms>
  152.1887  133.4758  159.4996 H   0  0  0  0  0  0  0  0  0  0  0  0  # atno 6907 bound_to 6896
  150.6947  134.1740  159.4232 H   0  0  0  0  0  0  0  0  0  0  0  0  # atno 6908 bound_to 6896
  151.9654  135.0102  160.0600 H   0  0  0  0  0  0  0  0  0  0  0  0  # atno 6909 bound_to 6896
  144.9400  139.4942  143.5576 H   0  0  0  0  0  0  0  0  0  0  0  0  # atno 7974 bound_to 7965
  156.1217  140.1497  156.9195 H   0  0  0  0  0  0  0  0  0  0  0  0  # atno 8008 bound_to 7997
  154.4840  140.0870  156.7486 H   0  0  0  0  0  0  0  0  0  0  0  0  # atno 8009 bound_to 7997
  155.4417  140.3431  155.4293 H   0  0  0  0  0  0  0  0  0  0  0  0  # atno 8010 bound_to 7997
  139.5105  144.6343  151.5738 H   0  0  0  0  0  0  0  0  0  0  0  0  # atno 10167 bound_to 10162
  157.6880  131.0094  150.2535 H   0  0  0  0  0  0  0  0  0  0  0  0  # atno 10718 bound_to 10713
  153.2531  135.6915  153.7658 H   0  0  0  0  0  0  0  0  0  0  0  0  # atno 10763 bound_to 10752
  153.6746  135.3338  155.3163 H   0  0  0  0  0  0  0  0  0  0  0  0  # atno 10764 bound_to 10752
  154.8402  135.4508  154.1494 H   0  0  0  0  0  0  0  0  0  0  0  0  # atno 10765 bound_to 10752
  140.1759  134.4164  155.8229 H   0  0  0  0  0  0  0  0  0  0  0  0  # atno 11005 bound_to 11000
  146.3282  139.8412  142.8890 LP  0  0  0  0  0  0  0  0  0  0  0  0  # atno 17320 bound_to 7965
  145.3006  141.0193  143.3611 LP  0  0  0  0  0  0  0  0  0  0  0  0  # atno 17321 bound_to 7965
  140.6086  143.9478  150.6437 LP  0  0  0  0  0  0  0  0  0  0  0  0  # atno 17342 bound_to 10162
  140.2713  143.3454  152.1235 LP  0  0  0  0  0  0  0  0  0  0  0  0  # atno 17343 bound_to 10162
  156.3127  130.3774  149.7647 LP  0  0  0  0  0  0  0  0  0  0  0  0  # atno 17370 bound_to 10713
  156.5242  130.8228  151.3214 LP  0  0  0  0  0  0  0  0  0  0  0  0  # atno 17371 bound_to 10713
  141.2220  133.6977  156.7845 LP  0  0  0  0  0  0  0  0  0  0  0  0  # atno 17394 bound_to 11000
  140.2323  134.8676  157.3489 LP  0  0  0  0  0  0  0  0  0  0  0  0  # atno 17395 bound_to 11000

$$$$
