AV-unprocessed.smi:319|AV-procd|sdf|2331|dock7
  -GOLD-   2262022233D 1   1.00000     0.00000
 Structure written by MMmdl.
 38 39  0  0  0  0  0  0  0  0  1 V2000
  146.3203  138.5546  152.8611 C   0  0  0  0  0  0  0  0  0  0  0  0
  146.5928  140.1691  153.6445 S   0  0  0  0  0  0  0  0  0  0  0  0
  148.1894  139.9305  154.3624 C   0  0  0  0  0  0  0  0  0  0  0  0
  148.8831  138.7991  154.2307 N   0  0  0  0  0  0  0  0  0  0  0  0
  150.1183  138.8360  154.8839 C   0  0  0  0  0  0  0  0  0  0  0  0
  151.0129  137.6347  154.8305 C   0  0  0  0  0  0  0  0  0  0  0  0
  150.3619  140.0267  155.5296 C   0  0  0  0  0  0  0  0  0  0  0  0
  151.5650  140.4185  156.3289 C   0  0  0  0  0  0  0  0  0  0  0  0
  151.1545  140.9338  157.7080 C   0  0  0  0  0  0  0  0  0  0  0  0
  150.0355  140.6790  158.1524 O   0  0  0  0  0  0  0  0  0  0  0  0
  152.0726  141.6501  158.3748 N   0  0  0  0  0  0  0  0  0  0  0  0
  151.9044  142.2060  159.7133 C   0  0  0  0  0  0  0  0  0  0  0  0
  151.7358  143.7384  159.6498 C   0  0  0  0  0  0  0  0  0  0  0  0
  151.6408  144.3523  161.0561 C   0  0  0  0  0  0  0  0  0  0  0  0
  152.8538  143.9663  161.9172 C   0  0  0  0  0  0  0  0  0  0  0  0
  153.0195  142.4402  161.9880 C   0  0  0  0  0  0  0  0  0  0  0  0
  153.1173  141.8242  160.5829 C   0  0  0  0  0  0  0  0  0  0  0  0
  149.0338  141.1407  155.3256 S   0  0  0  0  0  0  0  0  0  0  0  0
  145.3430  138.5400  152.3790 H   0  0  0  0  0  0  0  0  0  0  0  0
  146.3438  137.7554  153.6019 H   0  0  0  0  0  0  0  0  0  0  0  0
  147.0754  138.3593  152.0996 H   0  0  0  0  0  0  0  0  0  0  0  0
  152.0379  137.9144  154.5874 H   0  0  0  0  0  0  0  0  0  0  0  0
  150.6831  136.9198  154.0760 H   0  0  0  0  0  0  0  0  0  0  0  0
  151.0291  137.1154  155.7887 H   0  0  0  0  0  0  0  0  0  0  0  0
  152.2454  139.5725  156.4336 H   0  0  0  0  0  0  0  0  0  0  0  0
  152.1238  141.1980  155.8098 H   0  0  0  0  0  0  0  0  0  0  0  0
  152.9634  141.8081  157.9269 H   0  0  0  0  0  0  0  0  0  0  0  0
  151.0123  141.7714  160.1687 H   0  0  0  0  0  0  0  0  0  0  0  0
  152.5798  144.1813  159.1191 H   0  0  0  0  0  0  0  0  0  0  0  0
  150.8429  143.9965  159.0791 H   0  0  0  0  0  0  0  0  0  0  0  0
  151.5664  145.4377  160.9835 H   0  0  0  0  0  0  0  0  0  0  0  0
  150.7250  144.0117  161.5412 H   0  0  0  0  0  0  0  0  0  0  0  0
  153.7563  144.4136  161.4990 H   0  0  0  0  0  0  0  0  0  0  0  0
  152.7426  144.3756  162.9217 H   0  0  0  0  0  0  0  0  0  0  0  0
  153.9093  142.1893  162.5661 H   0  0  0  0  0  0  0  0  0  0  0  0
  152.1724  142.0048  162.5195 H   0  0  0  0  0  0  0  0  0  0  0  0
  153.1928  140.7390  160.6630 H   0  0  0  0  0  0  0  0  0  0  0  0
  154.0375  142.1631  160.1047 H   0  0  0  0  0  0  0  0  0  0  0  0
  1  2  1  0  0  0  0
  1 19  1  0  0  0  0
  1 20  1  0  0  0  0
  1 21  1  0  0  0  0
  2  3  1  0  0  0  0
  3 18  1  0  0  0  0
  3  4  2  0  0  0  0
  4  5  1  0  0  0  0
  5  6  1  0  0  0  0
  5  7  2  0  0  0  0
  6 22  1  0  0  0  0
  6 23  1  0  0  0  0
  6 24  1  0  0  0  0
  7  8  1  0  0  0  0
  7 18  1  0  0  0  0
  8  9  1  0  0  0  0
  8 25  1  0  0  0  0
  8 26  1  0  0  0  0
  9 10  2  0  0  0  0
  9 11  1  0  0  0  0
 11 12  1  0  0  0  0
 11 27  1  0  0  0  0
 12 17  1  0  0  0  0
 12 13  1  0  0  0  0
 12 28  1  0  0  0  0
 13 14  1  0  0  0  0
 13 29  1  0  0  0  0
 13 30  1  0  0  0  0
 14 15  1  0  0  0  0
 14 31  1  0  0  0  0
 14 32  1  0  0  0  0
 15 16  1  0  0  0  0
 15 33  1  0  0  0  0
 15 34  1  0  0  0  0
 16 17  1  0  0  0  0
 16 35  1  0  0  0  0
 16 36  1  0  0  0  0
 17 37  1  0  0  0  0
 17 38  1  0  0  0  0
M  END
> <s_m_source_file>
AV-unprocessed.smi

> <i_m_source_file_index>
319

> <i_lp_mmshare_version>
43012

> <i_f3d_flags>
0

> <s_epik_input>
W0NIM11TYzFuYyhbQ0gzXSljKHMxKVtDSDJdQyg9TylbTkhdW0NIXTJbQ0gyXVtDSDJdW0NIMl1bQ0gyXVtDSDJdMg==

> <s_epik_cmdline>
J2VwaWtfcHl0aG9uJywgJy1waCcsICc3LjAnLCAnLXRuJywgJzgnLCAnLW1hJywgJzIwMCcsICctbWV0YWxfYmluZGluZycsICctaW1hZScsICc8aW5maWxlLm1hZT4nLCAnLW9tYWUnLCAnPG91dGZpbGUubWFlPic=

> <r_lp_tautomer_probability>
1

> <r_epik_Ionization_Penalty>
2.85285e-06

> <r_epik_Ionization_Penalty_Charging>
0

> <r_epik_Ionization_Penalty_Neutral>
2.85285e-06

> <r_epik_State_Penalty>
-0

> <r_epik_Charging_Adjusted_Penalty>
0

> <i_epik_Tot_Q>
0

> <i_epik_Tot_abs_Q>
0

> <r_epik_Metal_State_Penalty>
-0

> <b_epik_Metal_Only>
0

> <s_lp_Force_Field>
OPLS_2005

> <r_lp_Energy>
6.2973

> <b_lp_Chiralities_Consistent>
1

> <s_lp_Variant>
AV-unprocessed.smi:319-1

> <Gold.Version>
5.8.1

> <Gold.Id.Protein>
6NUR|6NUR_protein|mol2

> <Gold.PLP.Fitness>
42.3088

> <Gold.PLP.PLP>
-43.1372

> <Gold.PLP.part.hbond>
0.0000

> <Gold.PLP.part.metal>
0.0000

> <Gold.PLP.part.buried>
-2.2231

> <Gold.PLP.part.nonpolar>
-41.0528

> <Gold.PLP.part.repulsive>
1.7770

> <Gold.PLP.ligand.clash>
0.0000

> <Gold.PLP.ligand.torsion>
0.4194

> <Gold.PLP.Chemscore.Hbond>
0.0000

> <Gold.PLP.Chemscore.CHOScore>
0.0000

> <Gold.PLP.Chemscore.Metal>
0.0000

> <Gold.PLP.Chemscore.Internal.Correction>
0.0104

> <Gold.Rescore>
     Score         DG    S(hbond)    S(metal)    S(lipo)     H(rot)  DE(clash)    DE(int)     intcor
     15.89     -16.52       0.00        0.00     123.45       1.33       0.14       0.49       ----

> <Gold.Chemscore.Fitness>
15.8869

> <Gold.Chemscore.DG>
-16.5220

> <Gold.Chemscore.ZeroCoef>
-5.4800

> <Gold.Chemscore.Hbond>
0.0000

> <Gold.Chemscore.Metal>
0.0000

> <Gold.Chemscore.Lipo>
123.4522

> <Gold.Chemscore.Internal_Hbond>
0.0000

> <Gold.Chemscore.DEClash>
0.1404

> <Gold.Chemscore.DEInternal>
0.4946

> <Gold.Chemscore.Rot>
1.3289

> <Gold.Chemscore.Internal.Correction>
   9.000000E+99

> <Gold.Chemscore.Hbond.Weighted>
-0.0000

> <Gold.Chemscore.Metal.Weighted>
-0.0000

> <Gold.Chemscore.Lipo.Weighted>
-14.4439

> <Gold.Chemscore.Internal_Hbond.Weighted>
0.0000

> <Gold.Chemscore.DEClash.Weighted>
0.1404

> <Gold.Chemscore.DEInternal.Weighted>
0.4946

> <Gold.Chemscore.Rot.Weighted>
3.4019

> <Gold.Chemscore.Internal.Correction.Weighted>
   9.000000E+99

> <Gold.Protein.RotatedTorsions>
[ 6907 6896 6895 6894 ] final   72.10 input  -60.11 | X-H torsion
[ 7974 7965 7964 7962 ] final  157.40 input  175.53 | X-H torsion
[ 8008 7997 7996 7995 ] final  -38.58 input   59.86 | X-H torsion
[ 10167 10162 10161 10158 ] final  -68.71 input  -65.29 | X-H torsion
[ 10718 10713 10712 10709 ] final  -13.97 input   66.30 | X-H torsion
[ 10763 10752 10751 10750 ] final -130.39 input  -60.55 | X-H torsion
[ 11005 11000 10999 10996 ] final   69.03 input  -57.11 | X-H torsion

> <Gold.Protein.ActiveResidues>
 VAL166  LYS551  ARG553  GLY616  TRP617  ASP618  TYR619  PRO620  LYS621  CYS622 
 ASP623  PHE694  ASN695  SER759  ASP760  ASP761  ALA762  ILE779  LEU786  VAL792 
 PHE793  MET794  SER795  GLU796  ALA797  LYS798  CYS799  TRP800  GLU811  SER814 

> <Gold.Protein.RotatedAtoms>
  152.4848  134.4622  159.9608 H   0  0  0  0  0  0  0  0  0  0  0  0  # atno 6907 bound_to 6896
  151.4621  133.3584  159.2818 H   0  0  0  0  0  0  0  0  0  0  0  0  # atno 6908 bound_to 6896
  150.8950  134.8382  159.7380 H   0  0  0  0  0  0  0  0  0  0  0  0  # atno 6909 bound_to 6896
  144.7906  139.7335  143.6223 H   0  0  0  0  0  0  0  0  0  0  0  0  # atno 7974 bound_to 7965
  154.4035  140.1574  156.2723 H   0  0  0  0  0  0  0  0  0  0  0  0  # atno 8008 bound_to 7997
  155.8942  140.3437  155.5956 H   0  0  0  0  0  0  0  0  0  0  0  0  # atno 8009 bound_to 7997
  155.7523  140.0806  157.2186 H   0  0  0  0  0  0  0  0  0  0  0  0  # atno 8010 bound_to 7997
  140.5486  143.2312  151.6954 H   0  0  0  0  0  0  0  0  0  0  0  0  # atno 10167 bound_to 10162
  156.6226  130.4879  149.6159 H   0  0  0  0  0  0  0  0  0  0  0  0  # atno 10718 bound_to 10713
  154.8755  135.3864  154.4075 H   0  0  0  0  0  0  0  0  0  0  0  0  # atno 10763 bound_to 10752
  153.4793  135.7030  153.5953 H   0  0  0  0  0  0  0  0  0  0  0  0  # atno 10764 bound_to 10752
  153.4375  135.3864  155.2176 H   0  0  0  0  0  0  0  0  0  0  0  0  # atno 10765 bound_to 10752
  139.9677  134.6953  156.0511 H   0  0  0  0  0  0  0  0  0  0  0  0  # atno 11005 bound_to 11000
  146.2156  139.5543  142.9652 LP  0  0  0  0  0  0  0  0  0  0  0  0  # atno 17320 bound_to 7965
  145.5805  141.0383  143.2124 LP  0  0  0  0  0  0  0  0  0  0  0  0  # atno 17321 bound_to 7965
  139.5018  144.3854  152.0334 LP  0  0  0  0  0  0  0  0  0  0  0  0  # atno 17342 bound_to 10162
  140.2969  144.3691  150.6071 LP  0  0  0  0  0  0  0  0  0  0  0  0  # atno 17343 bound_to 10162
  156.2299  130.6788  151.1453 LP  0  0  0  0  0  0  0  0  0  0  0  0  # atno 17370 bound_to 10713
  157.7223  131.0673  150.6083 LP  0  0  0  0  0  0  0  0  0  0  0  0  # atno 17371 bound_to 10713
  141.1357  133.6576  156.3587 LP  0  0  0  0  0  0  0  0  0  0  0  0  # atno 17394 bound_to 11000
  140.5360  134.6166  157.5365 LP  0  0  0  0  0  0  0  0  0  0  0  0  # atno 17395 bound_to 11000

$$$$
