AV-unprocessed.smi:3085|AV-procd|sdf|11760|dock2
  -GOLD-   2272017143D 1   1.00000     0.00000
 Structure written by MMmdl.
 27 28  0  0  0  0  0  0  0  0  3 V2000
  157.1482  139.6767  159.3162 C   0  0  0  0  0  0  0  0  0  0  0  0
  156.0471  139.8427  160.3683 C   0  0  0  0  0  0  0  0  0  0  0  0
  154.7696  140.3934  159.7732 C   0  0  0  0  0  0  0  0  0  0  0  0
  154.2027  141.5551  160.0837 N   0  0  0  0  0  0  0  0  0  0  0  0
  153.0842  141.6232  159.3481 C   0  0  0  0  0  0  0  0  0  0  0  0
  152.0947  142.7681  159.4024 C   0  0  2  0  0  0  0  0  0  0  0  0
  151.3026  142.8778  158.0849 C   0  0  0  0  0  0  0  0  0  0  0  0
  150.3526  144.0049  158.1517 N   0  3  0  0  0  0  0  0  0  0  0  0
  151.0316  145.2676  158.5004 C   0  0  0  0  0  0  0  0  0  0  0  0
  151.8350  145.0920  159.8000 C   0  0  0  0  0  0  0  0  0  0  0  0
  152.7487  144.0107  159.6544 O   0  0  0  0  0  0  0  0  0  0  0  0
  152.9328  140.5137  158.6088 N   0  0  0  0  0  0  0  0  0  0  0  0
  153.9820  139.7658  158.8821 N   0  5  0  0  0  0  0  0  0  0  0  0
  158.0596  139.2814  159.7650 H   0  0  0  0  0  0  0  0  0  0  0  0
  157.3914  140.6324  158.8509 H   0  0  0  0  0  0  0  0  0  0  0  0
  156.8380  138.9898  158.5284 H   0  0  0  0  0  0  0  0  0  0  0  0
  155.8325  138.8827  160.8385 H   0  0  0  0  0  0  0  0  0  0  0  0
  156.3848  140.5122  161.1600 H   0  0  0  0  0  0  0  0  0  0  0  0
  151.4089  142.5623  160.2266 H   0  0  0  0  0  0  0  0  0  0  0  0
  151.9816  143.0301  157.2445 H   0  0  0  0  0  0  0  0  0  0  0  0
  150.7515  141.9574  157.8899 H   0  0  0  0  0  0  0  0  0  0  0  0
  149.8884  144.1053  157.2603 H   0  0  0  0  0  0  0  0  0  0  0  0
  151.6944  145.5554  157.6831 H   0  0  0  0  0  0  0  0  0  0  0  0
  150.2907  146.0598  158.6095 H   0  0  0  0  0  0  0  0  0  0  0  0
  152.3954  146.0007  160.0209 H   0  0  0  0  0  0  0  0  0  0  0  0
  151.1723  144.9120  160.6481 H   0  0  0  0  0  0  0  0  0  0  0  0
  149.6638  143.8011  158.8617 H   0  0  0  0  0  0  0  0  0  0  0  0
  1  2  1  0  0  0  0
  1 14  1  0  0  0  0
  1 15  1  0  0  0  0
  1 16  1  0  0  0  0
  2  3  1  0  0  0  0
  2 17  1  0  0  0  0
  2 18  1  0  0  0  0
  3 13  1  0  0  0  0
  3  4  2  0  0  0  0
  4  5  1  0  0  0  0
  5  6  1  0  0  0  0
  5 12  2  0  0  0  0
  6 11  1  0  0  0  0
  6  7  1  0  0  0  0
  6 19  1  0  0  0  0
  7  8  1  0  0  0  0
  7 20  1  0  0  0  0
  7 21  1  0  0  0  0
  8  9  1  0  0  0  0
  8 22  1  0  0  0  0
  8 27  1  0  0  0  0
  9 10  1  0  0  0  0
  9 23  1  0  0  0  0
  9 24  1  0  0  0  0
 10 11  1  0  0  0  0
 10 25  1  0  0  0  0
 10 26  1  0  0  0  0
 12 13  1  0  0  0  0
M  CHG  1   8   1
M  CHG  1  13  -1
M  END
> <s_m_source_file>
AV-unprocessed.smi

> <i_m_source_file_index>
3085

> <i_lp_mmshare_version>
43012

> <i_f3d_flags>
0

> <s_epik_input>
W0NIM11bQ0gyXWMxbmMobltuSF0xKVtDQEBIXTJbQ0gyXVtOSF1bQ0gyXVtDSDJdTzI=

> <s_epik_cmdline>
J2VwaWtfcHl0aG9uJywgJy1waCcsICc3LjAnLCAnLXRuJywgJzgnLCAnLW1hJywgJzIwMCcsICctbWV0YWxfYmluZGluZycsICctaW1hZScsICc8aW5maWxlLm1hZT4nLCAnLW9tYWUnLCAnPG91dGZpbGUubWFlPic=

> <r_lp_tautomer_probability>
0.948284

> <r_epik_Ionization_Penalty>
5.24708

> <r_epik_Ionization_Penalty_Charging>
5.24708

> <r_epik_Ionization_Penalty_Neutral>
2.10756e-13

> <r_epik_State_Penalty>
3.12001

> <r_epik_Charging_Adjusted_Penalty>
8.36709

> <i_epik_Tot_Q>
0

> <i_epik_Tot_abs_Q>
2

> <r_epik_Metal_State_Penalty>
0.69864

> <b_epik_Metal_Only>
1

> <s_lp_Force_Field>
OPLS_2005

> <r_lp_Energy>
4.6385

> <b_lp_Chiralities_Consistent>
1

> <s_lp_Variant>
AV-unprocessed.smi:3085-11

> <Gold.Version>
5.8.1

> <Gold.Id.Protein>
6NUR|6NUR_protein|mol2

> <Gold.PLP.Fitness>
36.2515

> <Gold.PLP.PLP>
-25.7367

> <Gold.PLP.part.hbond>
-2.9332

> <Gold.PLP.part.metal>
0.0000

> <Gold.PLP.part.buried>
-2.7993

> <Gold.PLP.part.nonpolar>
-18.8874

> <Gold.PLP.part.repulsive>
0.0497

> <Gold.PLP.ligand.clash>
0.0000

> <Gold.PLP.ligand.torsion>
0.7520

> <Gold.PLP.Chemscore.Hbond>
4.0000

> <Gold.PLP.Chemscore.CHOScore>
0.0000

> <Gold.PLP.Chemscore.Metal>
0.0000

> <Gold.Chemscore.Hbonds>
donor molecule, donor type, donor heavy atom, donor atom, acceptor molecule, acceptor atom, score
      L1  H     8    22       P1  8028  2.00
      P1  H  7997  8008       L1    13  1.66

> <Gold.PLP.Chemscore.Internal.Correction>
0.0187

> <Gold.Rescore>
     Score         DG    S(hbond)    S(metal)    S(lipo)     H(rot)  DE(clash)    DE(int)     intcor
     11.60     -12.26       1.11        0.00      54.28       1.28       0.06       0.61       ----

> <Gold.Chemscore.Fitness>
11.5986

> <Gold.Chemscore.DG>
-12.2629

> <Gold.Chemscore.ZeroCoef>
-5.4800

> <Gold.Chemscore.Hbond>
1.1131

> <Gold.Chemscore.Metal>
0.0000

> <Gold.Chemscore.Lipo>
54.2785

> <Gold.Chemscore.Internal_Hbond>
0.0000

> <Gold.Chemscore.DEClash>
0.0590

> <Gold.Chemscore.DEInternal>
0.6054

> <Gold.Chemscore.Rot>
1.2833

> <Gold.Chemscore.Internal.Correction>
   9.000000E+99

> <Gold.Chemscore.Hbonds>
donor molecule, donor type, donor heavy atom, donor atom, acceptor molecule, acceptor atom, score
      L1  H     8    22       P1  8028  0.64
      P1  H  7997  8008       L1    13  0.05

> <Gold.Chemscore.Hbond.Weighted>
-3.7177

> <Gold.Chemscore.Metal.Weighted>
-0.0000

> <Gold.Chemscore.Lipo.Weighted>
-6.3506

> <Gold.Chemscore.Internal_Hbond.Weighted>
0.0000

> <Gold.Chemscore.DEClash.Weighted>
0.0590

> <Gold.Chemscore.DEInternal.Weighted>
0.6054

> <Gold.Chemscore.Rot.Weighted>
3.2853

> <Gold.Chemscore.Internal.Correction.Weighted>
   9.000000E+99

> <Gold.Protein.RotatedTorsions>
[ 6907 6896 6895 6894 ] final  120.72 input  -60.11 | X-H torsion
[ 7974 7965 7964 7962 ] final -179.82 input  175.53 | X-H torsion
[ 8008 7997 7996 7995 ] final -122.18 input   59.86 | X-H torsion
[ 10167 10162 10161 10158 ] final -158.63 input  -65.29 | X-H torsion
[ 10718 10713 10712 10709 ] final   84.02 input   66.30 | X-H torsion
[ 10763 10752 10751 10750 ] final  143.88 input  -60.55 | X-H torsion
[ 11005 11000 10999 10996 ] final  128.36 input  -57.11 | X-H torsion

> <Gold.Protein.ActiveResidues>
 VAL166  LYS551  ARG553  GLY616  TRP617  ASP618  TYR619  PRO620  LYS621  CYS622 
 ASP623  PHE694  ASN695  SER759  ASP760  ASP761  ALA762  ILE779  LEU786  VAL792 
 PHE793  MET794  SER795  GLU796  ALA797  LYS798  CYS799  TRP800  GLU811  SER814 

> <Gold.Protein.RotatedAtoms>
  152.4376  133.7390  159.6629 H   0  0  0  0  0  0  0  0  0  0  0  0  # atno 6907 bound_to 6896
  150.8262  133.8157  159.3123 H   0  0  0  0  0  0  0  0  0  0  0  0  # atno 6908 bound_to 6896
  151.5824  135.1060  160.0072 H   0  0  0  0  0  0  0  0  0  0  0  0  # atno 6909 bound_to 6896
  144.7139  140.0660  143.6431 H   0  0  0  0  0  0  0  0  0  0  0  0  # atno 7974 bound_to 7965
  155.1601  140.0405  157.2840 H   0  0  0  0  0  0  0  0  0  0  0  0  # atno 8008 bound_to 7997
  154.6342  140.2531  155.7370 H   0  0  0  0  0  0  0  0  0  0  0  0  # atno 8009 bound_to 7997
  156.2500  140.2869  156.0708 H   0  0  0  0  0  0  0  0  0  0  0  0  # atno 8010 bound_to 7997
  139.6677  143.9799  152.2265 H   0  0  0  0  0  0  0  0  0  0  0  0  # atno 10167 bound_to 10162
  157.6890  131.0115  150.2610 H   0  0  0  0  0  0  0  0  0  0  0  0  # atno 10718 bound_to 10713
  153.9796  135.2942  155.3421 H   0  0  0  0  0  0  0  0  0  0  0  0  # atno 10763 bound_to 10752
  154.7276  135.5082  153.8915 H   0  0  0  0  0  0  0  0  0  0  0  0  # atno 10764 bound_to 10752
  153.0860  135.6693  154.0061 H   0  0  0  0  0  0  0  0  0  0  0  0  # atno 10765 bound_to 10752
  139.9557  134.9613  156.8991 H   0  0  0  0  0  0  0  0  0  0  0  0  # atno 11005 bound_to 11000
  145.9823  139.2951  143.1034 LP  0  0  0  0  0  0  0  0  0  0  0  0  # atno 17320 bound_to 7965
  145.8996  140.9251  143.0510 LP  0  0  0  0  0  0  0  0  0  0  0  0  # atno 17321 bound_to 7965
  139.9556  144.6592  150.8129 LP  0  0  0  0  0  0  0  0  0  0  0  0  # atno 17342 bound_to 10162
  140.7606  143.3155  151.2744 LP  0  0  0  0  0  0  0  0  0  0  0  0  # atno 17343 bound_to 10162
  156.3189  130.3783  149.7593 LP  0  0  0  0  0  0  0  0  0  0  0  0  # atno 17370 bound_to 10713
  156.5169  130.8197  151.3189 LP  0  0  0  0  0  0  0  0  0  0  0  0  # atno 17371 bound_to 10713
  140.5616  134.0530  155.7400 LP  0  0  0  0  0  0  0  0  0  0  0  0  # atno 17394 bound_to 11000
  141.1227  133.9434  157.2696 LP  0  0  0  0  0  0  0  0  0  0  0  0  # atno 17395 bound_to 11000

$$$$
