AV-unprocessed.smi:2902|AV-procd|sdf|11157|dock5
  -GOLD-   2272016 43D 1   1.00000     0.00000
 Structure written by MMmdl.
 47 48  0  0  0  0  0  0  0  0  1 V2000
  151.5195  138.9839  154.8237 C   0  0  0  0  0  0  0  0  0  0  0  0
  151.1309  139.6752  156.1366 C   0  0  0  0  0  0  0  0  0  0  0  0
  150.8151  141.1711  155.9503 C   0  0  2  0  0  0  0  0  0  0  0  0
  150.5628  141.7300  157.2405 O   0  0  0  0  0  0  0  0  0  0  0  0
  151.6931  142.1727  157.9900 C   0  0  0  0  0  0  0  0  0  0  0  0
  151.6950  141.6910  159.4440 C   0  0  0  0  0  0  0  0  0  0  0  0
  152.5564  142.7117  160.1968 C   0  0  0  0  0  0  0  0  0  0  0  0
  152.5607  143.9880  159.3404 C   0  0  0  0  0  0  0  0  0  0  0  0
  151.6658  143.6932  158.1321 C   0  0  0  0  0  0  0  0  0  0  0  0
  149.6006  141.3774  155.0307 C   0  0  0  0  0  0  0  0  0  0  0  0
  149.6725  141.1071  153.8317 O   0  0  0  0  0  0  0  0  0  0  0  0
  148.4861  141.8399  155.6181 N   0  0  0  0  0  0  0  0  0  0  0  0
  147.2088  142.0834  154.9524 C   0  0  1  0  0  0  0  0  0  0  0  0
  146.5818  140.7354  154.5455 C   0  0  0  0  0  0  0  0  0  0  0  0
  146.2938  142.9366  155.8674 C   0  0  1  0  0  0  0  0  0  0  0  0
  144.9920  143.3782  155.1731 C   0  0  0  0  0  0  0  0  0  0  0  0
  145.9816  142.2488  157.1124 N   0  0  0  0  0  0  0  0  0  0  0  0
  146.3371  142.5182  158.3712 C   0  0  0  0  0  0  0  0  0  0  0  0
  145.8646  141.6547  159.2589 N   0  0  0  0  0  0  0  0  0  0  0  0
  145.1822  140.8182  158.4218 C   0  0  0  0  0  0  0  0  0  0  0  0
  145.2228  141.1274  157.1258 N   0  0  0  0  0  0  0  0  0  0  0  0
  151.7251  137.9261  154.9880 H   0  0  0  0  0  0  0  0  0  0  0  0
  152.4139  139.4325  154.3907 H   0  0  0  0  0  0  0  0  0  0  0  0
  150.7182  139.0567  154.0880 H   0  0  0  0  0  0  0  0  0  0  0  0
  150.2623  139.1642  156.5549 H   0  0  0  0  0  0  0  0  0  0  0  0
  151.9375  139.5504  156.8604 H   0  0  0  0  0  0  0  0  0  0  0  0
  151.6883  141.6482  155.5019 H   0  0  0  0  0  0  0  0  0  0  0  0
  152.6297  141.8923  157.5060 H   0  0  0  0  0  0  0  0  0  0  0  0
  150.6779  141.7136  159.8383 H   0  0  0  0  0  0  0  0  0  0  0  0
  152.0698  140.6726  159.5508 H   0  0  0  0  0  0  0  0  0  0  0  0
  152.1673  142.8952  161.1987 H   0  0  0  0  0  0  0  0  0  0  0  0
  153.5750  142.3378  160.3063 H   0  0  0  0  0  0  0  0  0  0  0  0
  152.2074  144.8568  159.8968 H   0  0  0  0  0  0  0  0  0  0  0  0
  153.5773  144.2042  159.0096 H   0  0  0  0  0  0  0  0  0  0  0  0
  151.9954  144.2060  157.2280 H   0  0  0  0  0  0  0  0  0  0  0  0
  150.6480  144.0227  158.3466 H   0  0  0  0  0  0  0  0  0  0  0  0
  148.5220  142.0271  156.6097 H   0  0  0  0  0  0  0  0  0  0  0  0
  147.3917  142.6550  154.0403 H   0  0  0  0  0  0  0  0  0  0  0  0
  145.6671  140.8718  153.9689 H   0  0  0  0  0  0  0  0  0  0  0  0
  146.3365  140.1337  155.4214 H   0  0  0  0  0  0  0  0  0  0  0  0
  147.2648  140.1540  153.9250 H   0  0  0  0  0  0  0  0  0  0  0  0
  146.8434  143.8433  156.1289 H   0  0  0  0  0  0  0  0  0  0  0  0
  145.1918  143.9980  154.2991 H   0  0  0  0  0  0  0  0  0  0  0  0
  144.3694  143.9650  155.8493 H   0  0  0  0  0  0  0  0  0  0  0  0
  144.4066  142.5192  154.8438 H   0  0  0  0  0  0  0  0  0  0  0  0
  146.9522  143.3636  158.6432 H   0  0  0  0  0  0  0  0  0  0  0  0
  144.6407  139.9542  158.7780 H   0  0  0  0  0  0  0  0  0  0  0  0
  1  2  1  0  0  0  0
  1 22  1  0  0  0  0
  1 23  1  0  0  0  0
  1 24  1  0  0  0  0
  2  3  1  0  0  0  0
  2 25  1  0  0  0  0
  2 26  1  0  0  0  0
  3  4  1  0  0  0  0
  3 10  1  0  0  0  0
  3 27  1  0  0  0  0
  4  5  1  0  0  0  0
  5  9  1  0  0  0  0
  5  6  1  0  0  0  0
  5 28  1  0  0  0  0
  6  7  1  0  0  0  0
  6 29  1  0  0  0  0
  6 30  1  0  0  0  0
  7  8  1  0  0  0  0
  7 31  1  0  0  0  0
  7 32  1  0  0  0  0
  8  9  1  0  0  0  0
  8 33  1  0  0  0  0
  8 34  1  0  0  0  0
  9 35  1  0  0  0  0
  9 36  1  0  0  0  0
 10 11  2  0  0  0  0
 10 12  1  0  0  0  0
 12 13  1  0  0  0  0
 12 37  1  0  0  0  0
 13 14  1  0  0  0  0
 13 15  1  0  0  0  0
 13 38  1  0  0  0  0
 14 39  1  0  0  0  0
 14 40  1  0  0  0  0
 14 41  1  0  0  0  0
 15 16  1  0  0  0  0
 15 17  1  0  0  0  0
 15 42  1  0  0  0  0
 16 43  1  0  0  0  0
 16 44  1  0  0  0  0
 16 45  1  0  0  0  0
 17 21  1  0  0  0  0
 17 18  1  0  0  0  0
 18 19  2  0  0  0  0
 18 46  1  0  0  0  0
 19 20  1  0  0  0  0
 20 21  2  0  0  0  0
 20 47  1  0  0  0  0
M  END
> <s_m_source_file>
AV-unprocessed.smi

> <i_m_source_file_index>
2902

> <i_lp_mmshare_version>
43012

> <i_f3d_flags>
0

> <s_epik_input>
W0NIMl0xW0NIMl1bQ0gyXVtDSDJdW0NIXTFPW0NAQEhdKFtDSDJdW0NIM10pQyg9TylbTkhdW0NASF0oW0NIM10pW0NASF0oW0NIM10pbjJbY0hdbltjSF1uMg==

> <s_epik_cmdline>
J2VwaWtfcHl0aG9uJywgJy1waCcsICc3LjAnLCAnLXRuJywgJzgnLCAnLW1hJywgJzIwMCcsICctbWV0YWxfYmluZGluZycsICctaW1hZScsICc8aW5maWxlLm1hZT4nLCAnLW9tYWUnLCAnPG91dGZpbGUubWFlPic=

> <r_lp_tautomer_probability>
1

> <r_epik_Ionization_Penalty>
6.95617e-05

> <r_epik_Ionization_Penalty_Charging>
0

> <r_epik_Ionization_Penalty_Neutral>
6.95617e-05

> <r_epik_State_Penalty>
-0

> <r_epik_Charging_Adjusted_Penalty>
0

> <i_epik_Tot_Q>
0

> <i_epik_Tot_abs_Q>
0

> <r_epik_Metal_State_Penalty>
-0

> <b_epik_Metal_Only>
0

> <s_lp_Force_Field>
OPLS_2005

> <r_lp_Energy>
29.96

> <b_lp_Chiralities_Consistent>
1

> <s_lp_Variant>
AV-unprocessed.smi:2902-7

> <Gold.Version>
5.8.1

> <Gold.Id.Protein>
6NUR|6NUR_protein|mol2

> <Gold.PLP.Fitness>
46.5778

> <Gold.PLP.PLP>
-40.7640

> <Gold.PLP.part.hbond>
-4.0000

> <Gold.PLP.part.metal>
0.0000

> <Gold.PLP.part.buried>
-4.1758

> <Gold.PLP.part.nonpolar>
-33.5073

> <Gold.PLP.part.repulsive>
2.2558

> <Gold.PLP.ligand.clash>
0.0000

> <Gold.PLP.ligand.torsion>
1.3596

> <Gold.PLP.Chemscore.Hbond>
2.2171

> <Gold.PLP.Chemscore.CHOScore>
0.5794

> <Gold.PLP.Chemscore.Metal>
0.0000

> <Gold.Chemscore.Hbonds>
donor molecule, donor type, donor heavy atom, donor atom, acceptor molecule, acceptor atom, score
      P1  H  6934  6946       L1    19  0.98
      P1  H  7989  7998       L1    11  0.34
      P1  H  8011  8017       L1    11  0.88

> <Gold.PLP.Chemscore.Internal.Correction>
0.1433

> <Gold.Rescore>
     Score         DG    S(hbond)    S(metal)    S(lipo)     H(rot)  DE(clash)    DE(int)     intcor
     11.60     -15.42       1.80        0.00      92.43       2.69       1.32       2.50       ----

> <Gold.Chemscore.Fitness>
11.5972

> <Gold.Chemscore.DG>
-15.4167

> <Gold.Chemscore.ZeroCoef>
-5.4800

> <Gold.Chemscore.Hbond>
1.8016

> <Gold.Chemscore.Metal>
0.0000

> <Gold.Chemscore.Lipo>
92.4338

> <Gold.Chemscore.Internal_Hbond>
0.0000

> <Gold.Chemscore.DEClash>
1.3170

> <Gold.Chemscore.DEInternal>
2.5024

> <Gold.Chemscore.Rot>
2.6935

> <Gold.Chemscore.Internal.Correction>
   9.000000E+99

> <Gold.Chemscore.Hbonds>
donor molecule, donor type, donor heavy atom, donor atom, acceptor molecule, acceptor atom, score
      P1  H  6934  6946       L1    19  0.87
      P1  H  7989  7998       L1    11  0.17
      P1  H  8011  8017       L1    11  0.84

> <Gold.Chemscore.Hbond.Weighted>
-6.0173

> <Gold.Chemscore.Metal.Weighted>
-0.0000

> <Gold.Chemscore.Lipo.Weighted>
-10.8148

> <Gold.Chemscore.Internal_Hbond.Weighted>
0.0000

> <Gold.Chemscore.DEClash.Weighted>
1.3170

> <Gold.Chemscore.DEInternal.Weighted>
2.5024

> <Gold.Chemscore.Rot.Weighted>
6.8954

> <Gold.Chemscore.Internal.Correction.Weighted>
   9.000000E+99

> <Gold.Protein.RotatedTorsions>
[ 6907 6896 6895 6894 ] final  140.76 input  -60.11 | X-H torsion
[ 7974 7965 7964 7962 ] final  134.74 input  175.53 | X-H torsion
[ 8008 7997 7996 7995 ] final -146.51 input   59.86 | X-H torsion
[ 10167 10162 10161 10158 ] final  154.68 input  -65.29 | X-H torsion
[ 10718 10713 10712 10709 ] final   88.05 input   66.30 | X-H torsion
[ 10763 10752 10751 10750 ] final   40.33 input  -60.55 | X-H torsion
[ 11005 11000 10999 10996 ] final  129.60 input  -57.11 | X-H torsion

> <Gold.Protein.ActiveResidues>
 VAL166  LYS551  ARG553  GLY616  TRP617  ASP618  TYR619  PRO620  LYS621  CYS622 
 ASP623  PHE694  ASN695  SER759  ASP760  ASP761  ALA762  ILE779  LEU786  VAL792 
 PHE793  MET794  SER795  GLU796  ALA797  LYS798  CYS799  TRP800  GLU811  SER814 

> <Gold.Protein.RotatedAtoms>
  152.2391  133.5121  159.5259 H   0  0  0  0  0  0  0  0  0  0  0  0  # atno 6907 bound_to 6896
  150.7059  134.1113  159.4010 H   0  0  0  0  0  0  0  0  0  0  0  0  # atno 6908 bound_to 6896
  151.9034  135.0369  160.0559 H   0  0  0  0  0  0  0  0  0  0  0  0  # atno 6909 bound_to 6896
  144.9733  139.4582  143.5422 H   0  0  0  0  0  0  0  0  0  0  0  0  # atno 7974 bound_to 7965
  155.5606  140.0625  157.2830 H   0  0  0  0  0  0  0  0  0  0  0  0  # atno 8008 bound_to 7997
  154.4391  140.1886  156.0823 H   0  0  0  0  0  0  0  0  0  0  0  0  # atno 8009 bound_to 7997
  156.0450  140.3291  155.7290 H   0  0  0  0  0  0  0  0  0  0  0  0  # atno 8010 bound_to 7997
  139.4822  144.5165  151.7943 H   0  0  0  0  0  0  0  0  0  0  0  0  # atno 10167 bound_to 10162
  157.6946  131.0279  150.3216 H   0  0  0  0  0  0  0  0  0  0  0  0  # atno 10718 bound_to 10713
  152.9939  135.6194  154.2608 H   0  0  0  0  0  0  0  0  0  0  0  0  # atno 10763 bound_to 10752
  154.2344  135.2791  155.2879 H   0  0  0  0  0  0  0  0  0  0  0  0  # atno 10764 bound_to 10752
  154.5422  135.5757  153.6907 H   0  0  0  0  0  0  0  0  0  0  0  0  # atno 10765 bound_to 10752
  139.9624  134.9599  156.9172 H   0  0  0  0  0  0  0  0  0  0  0  0  # atno 11005 bound_to 11000
  146.3388  139.8960  142.8802 LP  0  0  0  0  0  0  0  0  0  0  0  0  # atno 17320 bound_to 7965
  145.2526  141.0049  143.3872 LP  0  0  0  0  0  0  0  0  0  0  0  0  # atno 17321 bound_to 7965
  140.4674  144.1635  150.5913 LP  0  0  0  0  0  0  0  0  0  0  0  0  # atno 17342 bound_to 10162
  140.4419  143.2523  151.9462 LP  0  0  0  0  0  0  0  0  0  0  0  0  # atno 17343 bound_to 10162
  156.3702  130.3862  149.7181 LP  0  0  0  0  0  0  0  0  0  0  0  0  # atno 17370 bound_to 10713
  156.4598  130.7946  151.2967 LP  0  0  0  0  0  0  0  0  0  0  0  0  # atno 17371 bound_to 10713
  140.5470  134.0664  155.7358 LP  0  0  0  0  0  0  0  0  0  0  0  0  # atno 17394 bound_to 11000
  141.1302  133.9314  157.2551 LP  0  0  0  0  0  0  0  0  0  0  0  0  # atno 17395 bound_to 11000

$$$$
