AV-unprocessed.smi:21|AV-procd|sdf|161|dock1
  -GOLD-   2262015393D 1   1.00000     0.00000
 Structure written by MMmdl.
 61 64  0  0  0  0  0  0  0  0  1 V2000
  147.2477  131.0436  153.1189 C   0  0  0  0  0  0  0  0  0  0  0  0
  148.2704  131.0795  154.1014 O   0  0  0  0  0  0  0  0  0  0  0  0
  149.3892  131.8714  153.7263 C   0  0  1  0  0  0  0  0  0  0  0  0
  149.0474  133.3718  153.6966 C   0  0  0  0  0  0  0  0  0  0  0  0
  150.1538  134.0223  154.5347 C   0  0  1  0  0  0  0  0  0  0  0  0
  149.7638  135.4025  155.1056 C   0  0  0  0  0  0  0  0  0  0  0  0
  149.3776  135.3499  156.5162 N   0  0  0  0  0  0  0  0  0  0  0  0
  148.0383  134.8583  156.8348 C   0  0  0  0  0  0  0  0  0  0  0  0
  149.9041  136.3070  157.3277 C   0  0  0  0  0  0  0  0  0  0  0  0
  149.8209  136.1575  158.6779 N   0  0  0  0  0  0  0  0  0  0  0  0
  150.3212  137.0854  159.4982 C   0  0  0  0  0  0  0  0  0  0  0  0
  150.9435  138.2233  159.1887 N   0  0  0  0  0  0  0  0  0  0  0  0
  151.0458  138.3771  157.8382 C   0  0  0  0  0  0  0  0  0  0  0  0
  150.5580  137.4792  156.8454 C   0  0  0  0  0  0  0  0  0  0  0  0
  150.8572  137.9754  155.5818 N   0  0  0  0  0  0  0  0  0  0  0  0
  151.4695  139.1038  155.8119 C   0  0  0  0  0  0  0  0  0  0  0  0
  151.6431  139.4130  157.1415 N   0  0  0  0  0  0  0  0  0  0  0  0
  152.2846  140.5986  157.6808 C   0  0  0  0  0  0  0  0  0  0  0  0
  151.3277  141.5734  158.4162 C   0  0  2  0  0  0  0  0  0  0  0  0
  150.3036  142.1406  157.4061 C   0  0  0  0  0  0  0  0  0  0  0  0
  150.8510  143.1977  156.6442 O   0  0  0  0  0  0  0  0  0  0  0  0
  152.0492  142.6886  159.2284 C   0  0  1  0  0  0  0  0  0  0  0  0
  151.1206  143.6522  159.9511 C   0  0  0  0  0  0  0  0  0  0  0  0
  152.0493  144.2835  160.9768 C   0  0  0  0  0  0  0  0  0  0  0  0
  152.8717  143.2115  161.4094 O   0  0  0  0  0  0  0  0  0  0  0  0
  152.9204  142.2061  160.4007 C   0  0  0  0  0  0  0  0  0  0  0  0
  150.4651  133.0194  155.5389 N   0  0  0  0  0  0  0  0  0  0  0  0
  151.7148  133.2581  156.2480 C   0  0  0  0  0  0  0  0  0  0  0  0
  150.4801  131.7688  154.8013 C   0  0  0  0  0  0  0  0  0  0  0  0
  149.7940  131.5348  152.7703 H   0  0  0  0  0  0  0  0  0  0  0  0
  151.0282  134.1375  153.8931 H   0  0  0  0  0  0  0  0  0  0  0  0
  146.4292  130.4148  153.4687 H   0  0  0  0  0  0  0  0  0  0  0  0
  147.6161  130.6229  152.1825 H   0  0  0  0  0  0  0  0  0  0  0  0
  146.8440  132.0369  152.9204 H   0  0  0  0  0  0  0  0  0  0  0  0
  148.9995  133.7722  152.6835 H   0  0  0  0  0  0  0  0  0  0  0  0
  148.0790  133.5379  154.1676 H   0  0  0  0  0  0  0  0  0  0  0  0
  150.5731  136.1107  154.9311 H   0  0  0  0  0  0  0  0  0  0  0  0
  148.9101  135.7972  154.5546 H   0  0  0  0  0  0  0  0  0  0  0  0
  147.9525  134.6208  157.8958 H   0  0  0  0  0  0  0  0  0  0  0  0
  147.8080  133.9494  156.2807 H   0  0  0  0  0  0  0  0  0  0  0  0
  147.2843  135.6053  156.5842 H   0  0  0  0  0  0  0  0  0  0  0  0
  150.2076  136.8867  160.5537 H   0  0  0  0  0  0  0  0  0  0  0  0
  151.8258  139.7371  155.0123 H   0  0  0  0  0  0  0  0  0  0  0  0
  153.0865  140.2823  158.3491 H   0  0  0  0  0  0  0  0  0  0  0  0
  152.7665  141.1094  156.8462 H   0  0  0  0  0  0  0  0  0  0  0  0
  150.7431  140.9869  159.1256 H   0  0  0  0  0  0  0  0  0  0  0  0
  149.9693  141.3580  156.7243 H   0  0  0  0  0  0  0  0  0  0  0  0
  149.4080  142.4993  157.9133 H   0  0  0  0  0  0  0  0  0  0  0  0
  150.1434  143.7362  156.3247 H   0  0  0  0  0  0  0  0  0  0  0  0
  152.6758  143.2743  158.5539 H   0  0  0  0  0  0  0  0  0  0  0  0
  150.6691  144.3928  159.2901 H   0  0  0  0  0  0  0  0  0  0  0  0
  150.3210  143.1091  160.4566 H   0  0  0  0  0  0  0  0  0  0  0  0
  152.6746  145.0456  160.5099 H   0  0  0  0  0  0  0  0  0  0  0  0
  151.5135  144.7412  161.8084 H   0  0  0  0  0  0  0  0  0  0  0  0
  152.5348  141.2810  160.8304 H   0  0  0  0  0  0  0  0  0  0  0  0
  153.9526  142.0342  160.0988 H   0  0  0  0  0  0  0  0  0  0  0  0
  151.9247  132.4408  156.9385 H   0  0  0  0  0  0  0  0  0  0  0  0
  151.6629  134.1761  156.8328 H   0  0  0  0  0  0  0  0  0  0  0  0
  152.5538  133.3410  155.5559 H   0  0  0  0  0  0  0  0  0  0  0  0
  150.3379  130.9142  155.4639 H   0  0  0  0  0  0  0  0  0  0  0  0
  151.4456  131.6413  154.3086 H   0  0  0  0  0  0  0  0  0  0  0  0
  1  2  1  0  0  0  0
  1 32  1  0  0  0  0
  1 33  1  0  0  0  0
  1 34  1  0  0  0  0
  2  3  1  0  0  0  0
  3 30  1  0  0  0  0
  3 29  1  0  0  0  0
  3  4  1  0  0  0  0
  4  5  1  0  0  0  0
  4 35  1  0  0  0  0
  4 36  1  0  0  0  0
  5 31  1  0  0  0  0
  5  6  1  0  0  0  0
  5 27  1  0  0  0  0
  6  7  1  0  0  0  0
  6 37  1  0  0  0  0
  6 38  1  0  0  0  0
  7  8  1  0  0  0  0
  7  9  1  0  0  0  0
  8 39  1  0  0  0  0
  8 40  1  0  0  0  0
  8 41  1  0  0  0  0
  9 14  1  0  0  0  0
  9 10  2  0  0  0  0
 10 11  1  0  0  0  0
 11 12  2  0  0  0  0
 11 42  1  0  0  0  0
 12 13  1  0  0  0  0
 13 17  1  0  0  0  0
 13 14  2  0  0  0  0
 14 15  1  0  0  0  0
 15 16  2  0  0  0  0
 16 17  1  0  0  0  0
 16 43  1  0  0  0  0
 17 18  1  0  0  0  0
 18 19  1  0  0  0  0
 18 44  1  0  0  0  0
 18 45  1  0  0  0  0
 19 20  1  0  0  0  0
 19 22  1  0  0  0  0
 19 46  1  0  0  0  0
 20 21  1  0  0  0  0
 20 47  1  0  0  0  0
 20 48  1  0  0  0  0
 21 49  1  0  0  0  0
 22 26  1  0  0  0  0
 22 23  1  0  0  0  0
 22 50  1  0  0  0  0
 23 24  1  0  0  0  0
 23 51  1  0  0  0  0
 23 52  1  0  0  0  0
 24 25  1  0  0  0  0
 24 53  1  0  0  0  0
 24 54  1  0  0  0  0
 25 26  1  0  0  0  0
 26 55  1  0  0  0  0
 26 56  1  0  0  0  0
 27 28  1  0  0  0  0
 27 29  1  0  0  0  0
 28 57  1  0  0  0  0
 28 58  1  0  0  0  0
 28 59  1  0  0  0  0
 29 60  1  0  0  0  0
 29 61  1  0  0  0  0
M  END
> <s_m_source_file>
AV-unprocessed.smi

> <i_m_source_file_index>
21

> <i_lp_mmshare_version>
43012

> <i_f3d_flags>
0

> <s_epik_input>
W0NIM11PW0NASF0xW0NIMl1bQ0BIXShOKFtDSDNdKVtDSDJdMSlbQ0gyXU4oW0NIM10pYyhuW2NIXW4yKWMoYzIzKW5bY0hdbjNbQ0gyXVtDQEhdKFtDSDJdW09IXSlbQ0BASF00W0NIMl1bQ0gyXU9bQ0gyXTQ=

> <s_epik_cmdline>
J2VwaWtfcHl0aG9uJywgJy1waCcsICc3LjAnLCAnLXRuJywgJzgnLCAnLW1hJywgJzIwMCcsICctbWV0YWxfYmluZGluZycsICctaW1hZScsICc8aW5maWxlLm1hZT4nLCAnLW9tYWUnLCAnPG91dGZpbGUubWFlPic=

> <r_lp_tautomer_probability>
1

> <r_epik_Ionization_Penalty>
2.17574

> <r_epik_Ionization_Penalty_Charging>
0

> <r_epik_Ionization_Penalty_Neutral>
2.17574

> <r_epik_State_Penalty>
2.31336

> <r_epik_Charging_Adjusted_Penalty>
2.31336

> <i_epik_Tot_Q>
0

> <i_epik_Tot_abs_Q>
0

> <r_epik_Metal_State_Penalty>
2.31025

> <b_epik_Metal_Only>
0

> <s_lp_Force_Field>
OPLS_2005

> <r_lp_Energy>
70.1796

> <b_lp_Chiralities_Consistent>
1

> <s_lp_Variant>
AV-unprocessed.smi:21-41

> <Gold.Version>
5.8.1

> <Gold.Id.Protein>
6NUR|6NUR_protein|mol2

> <Gold.PLP.Fitness>
44.7028

> <Gold.PLP.PLP>
-43.3030

> <Gold.PLP.part.hbond>
-2.0884

> <Gold.PLP.part.metal>
0.0000

> <Gold.PLP.part.buried>
-6.2862

> <Gold.PLP.part.nonpolar>
-34.4780

> <Gold.PLP.part.repulsive>
0.1791

> <Gold.PLP.ligand.clash>
0.0000

> <Gold.PLP.ligand.torsion>
1.5167

> <Gold.PLP.Chemscore.Hbond>
1.1991

> <Gold.PLP.Chemscore.CHOScore>
0.0000

> <Gold.PLP.Chemscore.Metal>
0.0000

> <Gold.Chemscore.Hbonds>
donor molecule, donor type, donor heavy atom, donor atom, acceptor molecule, acceptor atom, score
      L1  H    21    49       P1  8028  1.00
      P1  H  6896  6907       L1    10  0.30

> <Gold.PLP.Chemscore.Internal.Correction>
0.8361

> <Gold.Rescore>
     Score         DG    S(hbond)    S(metal)    S(lipo)     H(rot)  DE(clash)    DE(int)     intcor
     10.73     -13.59       1.00        0.00     106.49       3.00       0.07       2.78       ----

> <Gold.Chemscore.Fitness>
10.7345

> <Gold.Chemscore.DG>
-13.5911

> <Gold.Chemscore.ZeroCoef>
-5.4800

> <Gold.Chemscore.Hbond>
0.9998

> <Gold.Chemscore.Metal>
0.0000

> <Gold.Chemscore.Lipo>
106.4925

> <Gold.Chemscore.Internal_Hbond>
0.0000

> <Gold.Chemscore.DEClash>
0.0749

> <Gold.Chemscore.DEInternal>
2.7817

> <Gold.Chemscore.Rot>
3.0031

> <Gold.Chemscore.Internal.Correction>
   9.000000E+99

> <Gold.Chemscore.Hbonds>
donor molecule, donor type, donor heavy atom, donor atom, acceptor molecule, acceptor atom, score
      L1  H    21    49       P1  8028  1.00

> <Gold.Chemscore.Hbond.Weighted>
-3.3394

> <Gold.Chemscore.Metal.Weighted>
-0.0000

> <Gold.Chemscore.Lipo.Weighted>
-12.4596

> <Gold.Chemscore.Internal_Hbond.Weighted>
0.0000

> <Gold.Chemscore.DEClash.Weighted>
0.0749

> <Gold.Chemscore.DEInternal.Weighted>
2.7817

> <Gold.Chemscore.Rot.Weighted>
7.6880

> <Gold.Chemscore.Internal.Correction.Weighted>
   9.000000E+99

> <Gold.Protein.RotatedTorsions>
[ 6907 6896 6895 6894 ] final  -47.16 input  -60.11 | X-H torsion
[ 7974 7965 7964 7962 ] final   10.83 input  175.53 | X-H torsion
[ 8008 7997 7996 7995 ] final -134.45 input   59.86 | X-H torsion
[ 10167 10162 10161 10158 ] final   14.91 input  -65.29 | X-H torsion
[ 10718 10713 10712 10709 ] final  110.92 input   66.30 | X-H torsion
[ 10763 10752 10751 10750 ] final  125.29 input  -60.55 | X-H torsion
[ 11005 11000 10999 10996 ] final  -38.24 input  -57.11 | X-H torsion

> <Gold.Protein.ActiveResidues>
 VAL166  LYS551  ARG553  GLY616  TRP617  ASP618  TYR619  PRO620  LYS621  CYS622 
 ASP623  PHE694  ASN695  SER759  ASP760  ASP761  ALA762  ILE779  LEU786  VAL792 
 PHE793  MET794  SER795  GLU796  ALA797  LYS798  CYS799  TRP800  GLU811  SER814 

> <Gold.Protein.RotatedAtoms>
  150.9037  134.8451  159.7377 H   0  0  0  0  0  0  0  0  0  0  0  0  # atno 6907 bound_to 6896
  152.4907  134.4463  159.9570 H   0  0  0  0  0  0  0  0  0  0  0  0  # atno 6908 bound_to 6896
  151.4512  133.3578  159.2831 H   0  0  0  0  0  0  0  0  0  0  0  0  # atno 6909 bound_to 6896
  146.2382  139.9576  142.8462 H   0  0  0  0  0  0  0  0  0  0  0  0  # atno 7974 bound_to 7965
  155.3624  140.0483  157.3046 H   0  0  0  0  0  0  0  0  0  0  0  0  # atno 8008 bound_to 7997
  154.5171  140.2212  155.9008 H   0  0  0  0  0  0  0  0  0  0  0  0  # atno 8009 bound_to 7997
  156.1649  140.3108  155.8877 H   0  0  0  0  0  0  0  0  0  0  0  0  # atno 8010 bound_to 7997
  140.5903  143.8807  150.6868 H   0  0  0  0  0  0  0  0  0  0  0  0  # atno 10167 bound_to 10162
  157.6470  131.0941  150.6673 H   0  0  0  0  0  0  0  0  0  0  0  0  # atno 10718 bound_to 10713
  153.6749  135.3324  155.3163 H   0  0  0  0  0  0  0  0  0  0  0  0  # atno 10763 bound_to 10752
  154.8481  135.4395  154.1667 H   0  0  0  0  0  0  0  0  0  0  0  0  # atno 10764 bound_to 10752
  153.2668  135.6996  153.7598 H   0  0  0  0  0  0  0  0  0  0  0  0  # atno 10765 bound_to 10752
  141.0013  133.6954  156.2027 H   0  0  0  0  0  0  0  0  0  0  0  0  # atno 11005 bound_to 11000
  145.1802  140.9763  143.4271 LP  0  0  0  0  0  0  0  0  0  0  0  0  # atno 17320 bound_to 7965
  144.9949  139.3653  143.6196 LP  0  0  0  0  0  0  0  0  0  0  0  0  # atno 17321 bound_to 7965
  140.2329  143.3722  152.1551 LP  0  0  0  0  0  0  0  0  0  0  0  0  # atno 17342 bound_to 10162
  139.5223  144.7058  151.5359 LP  0  0  0  0  0  0  0  0  0  0  0  0  # atno 17343 bound_to 10162
  156.6989  130.4617  149.5578 LP  0  0  0  0  0  0  0  0  0  0  0  0  # atno 17370 bound_to 10713
  156.1809  130.6498  151.0950 LP  0  0  0  0  0  0  0  0  0  0  0  0  # atno 17371 bound_to 10713
  140.6885  134.4691  157.5589 LP  0  0  0  0  0  0  0  0  0  0  0  0  # atno 17394 bound_to 11000
  139.9040  134.8491  156.1780 LP  0  0  0  0  0  0  0  0  0  0  0  0  # atno 17395 bound_to 11000

$$$$
