AV-unprocessed.smi:1012|AV-procd|sdf|4422|dock4
  -GOLD-   22720 2373D 1   1.00000     0.00000
 Structure written by MMmdl.
 43 45  0  0  0  0  0  0  0  0  1 V2000
  145.3411  135.5587  153.7504 C   0  0  0  0  0  0  0  0  0  0  0  0
  146.5842  135.8870  154.3536 O   0  0  0  0  0  0  0  0  0  0  0  0
  147.6665  135.0611  154.1250 C   0  0  0  0  0  0  0  0  0  0  0  0
  147.5982  133.8975  153.3154 C   0  0  0  0  0  0  0  0  0  0  0  0
  148.7350  133.0916  153.1163 C   0  0  0  0  0  0  0  0  0  0  0  0
  149.9566  133.4346  153.7204 C   0  0  0  0  0  0  0  0  0  0  0  0
  150.0384  134.5848  154.5247 C   0  0  0  0  0  0  0  0  0  0  0  0
  148.9031  135.3964  154.7325 C   0  0  0  0  0  0  0  0  0  0  0  0
  149.0524  136.6335  155.6032 C   0  0  0  0  0  0  0  0  0  0  0  0
  148.8141  137.8180  154.8611 O   0  0  0  0  0  0  0  0  0  0  0  0
  149.0631  138.9973  155.6083 C   0  0  0  0  0  0  0  0  0  0  0  0
  149.4707  140.1216  154.6456 C   0  0  2  0  0  0  0  0  0  0  0  0
  150.3882  139.6002  153.7045 O   0  0  0  0  0  0  0  0  0  0  0  0
  150.0985  141.3253  155.3750 C   0  0  0  0  0  0  0  0  0  0  0  0
  151.0880  140.9192  156.3562 N   0  0  0  0  0  0  0  0  0  0  0  0
  151.8911  139.8389  156.3078 C   0  0  0  0  0  0  0  0  0  0  0  0
  152.7325  139.6598  157.3223 N   0  0  0  0  0  0  0  0  0  0  0  0
  152.4420  140.7515  158.1225 C   0  0  0  0  0  0  0  0  0  0  0  0
  152.9912  141.1537  159.3610 C   0  0  0  0  0  0  0  0  0  0  0  0
  152.5294  142.3221  160.0022 C   0  0  0  0  0  0  0  0  0  0  0  0
  153.0666  142.6932  161.1886 F   0  0  0  0  0  0  0  0  0  0  0  0
  151.5127  143.1051  159.4156 C   0  0  0  0  0  0  0  0  0  0  0  0
  151.0749  144.2249  160.0386 F   0  0  0  0  0  0  0  0  0  0  0  0
  150.9511  142.7246  158.1817 C   0  0  0  0  0  0  0  0  0  0  0  0
  151.4154  141.5584  157.5463 C   0  0  0  0  0  0  0  0  0  0  0  0
  144.5960  136.3006  154.0376 H   0  0  0  0  0  0  0  0  0  0  0  0
  144.9800  134.5849  154.0838 H   0  0  0  0  0  0  0  0  0  0  0  0
  145.4110  135.5669  152.6618 H   0  0  0  0  0  0  0  0  0  0  0  0
  146.6813  133.5980  152.8315 H   0  0  0  0  0  0  0  0  0  0  0  0
  148.6685  132.2086  152.4978 H   0  0  0  0  0  0  0  0  0  0  0  0
  150.8296  132.8175  153.5667 H   0  0  0  0  0  0  0  0  0  0  0  0
  150.9799  134.8458  154.9858 H   0  0  0  0  0  0  0  0  0  0  0  0
  148.3316  136.5607  156.4191 H   0  0  0  0  0  0  0  0  0  0  0  0
  150.0411  136.6836  156.0598 H   0  0  0  0  0  0  0  0  0  0  0  0
  148.1785  139.2830  156.1801 H   0  0  0  0  0  0  0  0  0  0  0  0
  149.8679  138.8074  156.3207 H   0  0  0  0  0  0  0  0  0  0  0  0
  148.5882  140.4487  154.0940 H   0  0  0  0  0  0  0  0  0  0  0  0
  149.9686  139.5741  152.8583 H   0  0  0  0  0  0  0  0  0  0  0  0
  150.5860  141.9888  154.6595 H   0  0  0  0  0  0  0  0  0  0  0  0
  149.3296  141.9169  155.8740 H   0  0  0  0  0  0  0  0  0  0  0  0
  151.8585  139.1464  155.4793 H   0  0  0  0  0  0  0  0  0  0  0  0
  153.7699  140.5624  159.8192 H   0  0  0  0  0  0  0  0  0  0  0  0
  150.1738  143.3219  157.7286 H   0  0  0  0  0  0  0  0  0  0  0  0
  1  2  1  0  0  0  0
  1 26  1  0  0  0  0
  1 27  1  0  0  0  0
  1 28  1  0  0  0  0
  2  3  1  0  0  0  0
  3  8  1  0  0  0  0
  3  4  2  0  0  0  0
  4  5  1  0  0  0  0
  4 29  1  0  0  0  0
  5  6  2  0  0  0  0
  5 30  1  0  0  0  0
  6  7  1  0  0  0  0
  6 31  1  0  0  0  0
  7  8  2  0  0  0  0
  7 32  1  0  0  0  0
  8  9  1  0  0  0  0
  9 10  1  0  0  0  0
  9 33  1  0  0  0  0
  9 34  1  0  0  0  0
 10 11  1  0  0  0  0
 11 12  1  0  0  0  0
 11 35  1  0  0  0  0
 11 36  1  0  0  0  0
 12 13  1  0  0  0  0
 12 14  1  0  0  0  0
 12 37  1  0  0  0  0
 13 38  1  0  0  0  0
 14 15  1  0  0  0  0
 14 39  1  0  0  0  0
 14 40  1  0  0  0  0
 15 25  1  0  0  0  0
 15 16  1  0  0  0  0
 16 17  2  0  0  0  0
 16 41  1  0  0  0  0
 17 18  1  0  0  0  0
 18 25  2  0  0  0  0
 18 19  1  0  0  0  0
 19 20  2  0  0  0  0
 19 42  1  0  0  0  0
 20 21  1  0  0  0  0
 20 22  1  0  0  0  0
 22 23  1  0  0  0  0
 22 24  2  0  0  0  0
 24 25  1  0  0  0  0
 24 43  1  0  0  0  0
M  END
> <s_m_source_file>
AV-unprocessed.smi

> <i_m_source_file_index>
1012

> <i_lp_mmshare_version>
43012

> <i_f3d_flags>
0

> <s_epik_input>
W0NIM11PYzFbY0hdW2NIXVtjSF1bY0hdYzFbQ0gyXU9bQ0gyXVtDQEhdKFtPSF0pW0NIMl1uKFtjSF1uMiljKGMyMylbY0hdYyhGKWMoRilbY0hdMw==

> <s_epik_cmdline>
J2VwaWtfcHl0aG9uJywgJy1waCcsICc3LjAnLCAnLXRuJywgJzgnLCAnLW1hJywgJzIwMCcsICctbWV0YWxfYmluZGluZycsICctaW1hZScsICc8aW5maWxlLm1hZT4nLCAnLW9tYWUnLCAnPG91dGZpbGUubWFlPic=

> <r_lp_tautomer_probability>
1

> <r_epik_Ionization_Penalty>
0.0160257

> <r_epik_Ionization_Penalty_Charging>
0

> <r_epik_Ionization_Penalty_Neutral>
0.0160257

> <r_epik_State_Penalty>
0.0126263

> <r_epik_Charging_Adjusted_Penalty>
0.0126263

> <i_epik_Tot_Q>
0

> <i_epik_Tot_abs_Q>
0

> <r_epik_Metal_State_Penalty>
1.27616e-05

> <b_epik_Metal_Only>
0

> <s_lp_Force_Field>
OPLS_2005

> <r_lp_Energy>
17.5186

> <b_lp_Chiralities_Consistent>
1

> <s_lp_Variant>
AV-unprocessed.smi:1012-1

> <Gold.Version>
5.8.1

> <Gold.Id.Protein>
6NUR|6NUR_protein|mol2

> <Gold.PLP.Fitness>
52.4703

> <Gold.PLP.PLP>
-45.0076

> <Gold.PLP.part.hbond>
-3.0000

> <Gold.PLP.part.metal>
0.0000

> <Gold.PLP.part.buried>
-3.5269

> <Gold.PLP.part.nonpolar>
-37.4961

> <Gold.PLP.part.repulsive>
0.1693

> <Gold.PLP.ligand.clash>
0.0000

> <Gold.PLP.ligand.torsion>
0.7773

> <Gold.PLP.Chemscore.Hbond>
2.9600

> <Gold.PLP.Chemscore.CHOScore>
0.0000

> <Gold.PLP.Chemscore.Metal>
0.0000

> <Gold.Chemscore.Hbonds>
donor molecule, donor type, donor heavy atom, donor atom, acceptor molecule, acceptor atom, score
      L1  H    13    38       P1  7957  1.00
      P1  H  7989  7998       L1    13  0.94
      P1  H  7997  8008       L1    17  1.00

> <Gold.PLP.Chemscore.Internal.Correction>
0.1373

> <Gold.Rescore>
     Score         DG    S(hbond)    S(metal)    S(lipo)     H(rot)  DE(clash)    DE(int)     intcor
     14.94     -17.01       2.31        0.00      96.72       2.93       0.23       1.84       ----

> <Gold.Chemscore.Fitness>
14.9404

> <Gold.Chemscore.DG>
-17.0126

> <Gold.Chemscore.ZeroCoef>
-5.4800

> <Gold.Chemscore.Hbond>
2.3131

> <Gold.Chemscore.Metal>
0.0000

> <Gold.Chemscore.Lipo>
96.7219

> <Gold.Chemscore.Internal_Hbond>
0.0000

> <Gold.Chemscore.DEClash>
0.2303

> <Gold.Chemscore.DEInternal>
1.8420

> <Gold.Chemscore.Rot>
2.9335

> <Gold.Chemscore.Internal.Correction>
   9.000000E+99

> <Gold.Chemscore.Hbonds>
donor molecule, donor type, donor heavy atom, donor atom, acceptor molecule, acceptor atom, score
      L1  H    13    38       P1  7957  0.98
      P1  H  7989  7998       L1    13  0.17
      P1  H  7997  8008       L1    17  0.18

> <Gold.Chemscore.Hbond.Weighted>
-7.7259

> <Gold.Chemscore.Metal.Weighted>
-0.0000

> <Gold.Chemscore.Lipo.Weighted>
-11.3165

> <Gold.Chemscore.Internal_Hbond.Weighted>
0.0000

> <Gold.Chemscore.DEClash.Weighted>
0.2303

> <Gold.Chemscore.DEInternal.Weighted>
1.8420

> <Gold.Chemscore.Rot.Weighted>
7.5097

> <Gold.Chemscore.Internal.Correction.Weighted>
   9.000000E+99

> <Gold.Protein.RotatedTorsions>
[ 6907 6896 6895 6894 ] final   72.80 input  -60.11 | X-H torsion
[ 7974 7965 7964 7962 ] final  -39.39 input  175.53 | X-H torsion
[ 8008 7997 7996 7995 ] final  -58.51 input   59.86 | X-H torsion
[ 10167 10162 10161 10158 ] final  -61.53 input  -65.29 | X-H torsion
[ 10718 10713 10712 10709 ] final  176.74 input   66.30 | X-H torsion
[ 10763 10752 10751 10750 ] final   73.61 input  -60.55 | X-H torsion
[ 11005 11000 10999 10996 ] final  -79.16 input  -57.11 | X-H torsion

> <Gold.Protein.ActiveResidues>
 VAL166  LYS551  ARG553  GLY616  TRP617  ASP618  TYR619  PRO620  LYS621  CYS622 
 ASP623  PHE694  ASN695  SER759  ASP760  ASP761  ALA762  ILE779  LEU786  VAL792 
 PHE793  MET794  SER795  GLU796  ALA797  LYS798  CYS799  TRP800  GLU811  SER814 

> <Gold.Protein.RotatedAtoms>
  152.4888  134.4517  159.9576 H   0  0  0  0  0  0  0  0  0  0  0  0  # atno 6907 bound_to 6896
  151.4509  133.3612  159.2803 H   0  0  0  0  0  0  0  0  0  0  0  0  # atno 6908 bound_to 6896
  150.9022  134.8460  159.7428 H   0  0  0  0  0  0  0  0  0  0  0  0  # atno 6909 bound_to 6896
  146.0400  140.6621  142.9091 H   0  0  0  0  0  0  0  0  0  0  0  0  # atno 7974 bound_to 7965
  154.4312  140.1082  156.5969 H   0  0  0  0  0  0  0  0  0  0  0  0  # atno 8008 bound_to 7997
  155.5953  140.3492  155.4559 H   0  0  0  0  0  0  0  0  0  0  0  0  # atno 8009 bound_to 7997
  156.0215  140.1240  157.0342 H   0  0  0  0  0  0  0  0  0  0  0  0  # atno 8010 bound_to 7997
  140.5999  143.2359  151.5951 H   0  0  0  0  0  0  0  0  0  0  0  0  # atno 10167 bound_to 10162
  156.9157  130.9924  151.3013 H   0  0  0  0  0  0  0  0  0  0  0  0  # atno 10718 bound_to 10713
  153.0533  135.5056  154.7920 H   0  0  0  0  0  0  0  0  0  0  0  0  # atno 10763 bound_to 10752
  154.6765  135.2961  154.9674 H   0  0  0  0  0  0  0  0  0  0  0  0  # atno 10764 bound_to 10752
  154.0474  135.6708  153.4849 H   0  0  0  0  0  0  0  0  0  0  0  0  # atno 10765 bound_to 10752
  141.1667  133.7094  156.8081 H   0  0  0  0  0  0  0  0  0  0  0  0  # atno 11005 bound_to 11000
  144.7070  140.3891  143.7110 LP  0  0  0  0  0  0  0  0  0  0  0  0  # atno 17320 bound_to 7965
  145.6900  139.1637  143.2652 LP  0  0  0  0  0  0  0  0  0  0  0  0  # atno 17321 bound_to 7965
  139.5284  144.2989  152.1090 LP  0  0  0  0  0  0  0  0  0  0  0  0  # atno 17342 bound_to 10162
  140.2168  144.4506  150.6360 LP  0  0  0  0  0  0  0  0  0  0  0  0  # atno 17343 bound_to 10162
  157.5940  130.8464  149.8701 LP  0  0  0  0  0  0  0  0  0  0  0  0  # atno 17370 bound_to 10713
  156.0515  130.3717  150.1191 LP  0  0  0  0  0  0  0  0  0  0  0  0  # atno 17371 bound_to 10713
  140.2207  134.8759  157.3374 LP  0  0  0  0  0  0  0  0  0  0  0  0  # atno 17394 bound_to 11000
  140.1990  134.4277  155.7673 LP  0  0  0  0  0  0  0  0  0  0  0  0  # atno 17395 bound_to 11000

$$$$
