AV-unprocessed.smi:2330|AV-procd|sdf|9312|dock10
  -GOLD-   2272012533D 1   1.00000     0.00000
 Structure written by MMmdl.
 42 43  0  0  0  0  0  0  0  0  1 V2000
  144.7002  135.3035  150.4974 C   0  0  0  0  0  0  0  0  0  0  0  0
  144.7361  135.6000  152.0033 C   0  0  2  0  0  0  0  0  0  0  0  0
  145.2507  137.0250  152.2831 C   0  0  0  0  0  0  0  0  0  0  0  0
  145.3008  137.3276  153.7919 C   0  0  0  0  0  0  0  0  0  0  0  0
  146.1333  136.2885  154.5672 C   0  0  2  0  0  0  0  0  0  0  0  0
  147.5511  136.4358  154.2423 N   0  0  0  0  0  0  0  0  0  0  0  0
  148.5170  136.7711  155.1085 C   0  0  0  0  0  0  0  0  0  0  0  0
  148.3224  137.0178  156.2989 O   0  0  0  0  0  0  0  0  0  0  0  0
  149.7220  136.7882  154.5218 N   0  0  0  0  0  0  0  0  0  0  0  0
  150.9855  137.0873  155.1894 C   0  0  0  0  0  0  0  0  0  0  0  0
  151.6372  138.3834  154.6618 C   0  0  2  0  0  0  0  0  0  0  0  0
  153.1680  138.4381  154.8086 C   0  0  0  0  0  0  0  0  0  0  0  0
  150.9889  139.5992  155.2470 C   0  0  0  0  0  0  0  0  0  0  0  0
  150.3246  140.5084  154.5260 N   0  0  0  0  0  0  0  0  0  0  0  0
  149.8151  141.5464  155.3097 C   0  0  0  0  0  0  0  0  0  0  0  0
  150.1005  141.4148  156.6446 C   0  0  0  0  0  0  0  0  0  0  0  0
  151.0261  139.9747  156.9674 S   0  0  0  0  0  0  0  0  0  0  0  0
  145.6319  134.8591  154.2705 C   0  0  0  0  0  0  0  0  0  0  0  0
  145.5844  134.5612  152.7615 C   0  0  0  0  0  0  0  0  0  0  0  0
  145.6975  135.3554  150.0593 H   0  0  0  0  0  0  0  0  0  0  0  0
  144.0676  136.0189  149.9714 H   0  0  0  0  0  0  0  0  0  0  0  0
  144.3025  134.3072  150.3024 H   0  0  0  0  0  0  0  0  0  0  0  0
  143.7125  135.5336  152.3757 H   0  0  0  0  0  0  0  0  0  0  0  0
  146.2445  137.1497  151.8508 H   0  0  0  0  0  0  0  0  0  0  0  0
  144.6096  137.7555  151.7882 H   0  0  0  0  0  0  0  0  0  0  0  0
  145.6975  138.3298  153.9590 H   0  0  0  0  0  0  0  0  0  0  0  0
  144.2838  137.3362  154.1861 H   0  0  0  0  0  0  0  0  0  0  0  0
  146.0091  136.4877  155.6332 H   0  0  0  0  0  0  0  0  0  0  0  0
  147.8159  136.2510  153.2858 H   0  0  0  0  0  0  0  0  0  0  0  0
  149.7717  136.5682  153.5378 H   0  0  0  0  0  0  0  0  0  0  0  0
  150.7680  137.1970  156.2525 H   0  0  0  0  0  0  0  0  0  0  0  0
  151.6804  136.2495  155.1081 H   0  0  0  0  0  0  0  0  0  0  0  0
  151.4324  138.4208  153.5909 H   0  0  0  0  0  0  0  0  0  0  0  0
  153.5669  139.3636  154.3917 H   0  0  0  0  0  0  0  0  0  0  0  0
  153.6533  137.6142  154.2859 H   0  0  0  0  0  0  0  0  0  0  0  0
  153.4661  138.3891  155.8564 H   0  0  0  0  0  0  0  0  0  0  0  0
  149.2594  142.3410  154.8338 H   0  0  0  0  0  0  0  0  0  0  0  0
  149.8240  142.0744  157.4539 H   0  0  0  0  0  0  0  0  0  0  0  0
  146.2553  134.1211  154.7767 H   0  0  0  0  0  0  0  0  0  0  0  0
  144.6308  134.7402  154.6864 H   0  0  0  0  0  0  0  0  0  0  0  0
  145.1773  133.5621  152.6024 H   0  0  0  0  0  0  0  0  0  0  0  0
  146.5981  134.5457  152.3590 H   0  0  0  0  0  0  0  0  0  0  0  0
  1  2  1  0  0  0  0
  1 20  1  0  0  0  0
  1 21  1  0  0  0  0
  1 22  1  0  0  0  0
  2 19  1  0  0  0  0
  2  3  1  0  0  0  0
  2 23  1  0  0  0  0
  3  4  1  0  0  0  0
  3 24  1  0  0  0  0
  3 25  1  0  0  0  0
  4  5  1  0  0  0  0
  4 26  1  0  0  0  0
  4 27  1  0  0  0  0
  5  6  1  0  0  0  0
  5 18  1  0  0  0  0
  5 28  1  0  0  0  0
  6  7  1  0  0  0  0
  6 29  1  0  0  0  0
  7  8  2  0  0  0  0
  7  9  1  0  0  0  0
  9 10  1  0  0  0  0
  9 30  1  0  0  0  0
 10 11  1  0  0  0  0
 10 31  1  0  0  0  0
 10 32  1  0  0  0  0
 11 12  1  0  0  0  0
 11 13  1  0  0  0  0
 11 33  1  0  0  0  0
 12 34  1  0  0  0  0
 12 35  1  0  0  0  0
 12 36  1  0  0  0  0
 13 17  1  0  0  0  0
 13 14  2  0  0  0  0
 14 15  1  0  0  0  0
 15 16  2  0  0  0  0
 15 37  1  0  0  0  0
 16 17  1  0  0  0  0
 16 38  1  0  0  0  0
 18 19  1  0  0  0  0
 18 39  1  0  0  0  0
 18 40  1  0  0  0  0
 19 41  1  0  0  0  0
 19 42  1  0  0  0  0
M  END
> <s_m_source_file>
AV-unprocessed.smi

> <i_m_source_file_index>
2330

> <i_lp_mmshare_version>
43012

> <i_f3d_flags>
0

> <s_epik_input>
W0NIM11bQ0BASF0xW0NIMl1bQ0gyXVtDQEhdKFtDSDJdW0NIMl0xKVtOSF1DKD1PKVtOSF1bQ0gyXVtDQEhdKFtDSDNdKWMybltjSF1bY0hdczI=

> <s_epik_cmdline>
J2VwaWtfcHl0aG9uJywgJy1waCcsICc3LjAnLCAnLXRuJywgJzgnLCAnLW1hJywgJzIwMCcsICctbWV0YWxfYmluZGluZycsICctaW1hZScsICc8aW5maWxlLm1hZT4nLCAnLW9tYWUnLCAnPG91dGZpbGUubWFlPic=

> <r_lp_tautomer_probability>
1

> <r_epik_Ionization_Penalty>
0.000331107

> <r_epik_Ionization_Penalty_Charging>
0

> <r_epik_Ionization_Penalty_Neutral>
0.000331107

> <r_epik_State_Penalty>
-0

> <r_epik_Charging_Adjusted_Penalty>
0

> <i_epik_Tot_Q>
0

> <i_epik_Tot_abs_Q>
0

> <r_epik_Metal_State_Penalty>
-0

> <b_epik_Metal_Only>
0

> <s_lp_Force_Field>
OPLS_2005

> <r_lp_Energy>
-1.48662

> <b_lp_Chiralities_Consistent>
1

> <s_lp_Variant>
AV-unprocessed.smi:2330-3

> <Gold.Version>
5.8.1

> <Gold.Id.Protein>
6NUR|6NUR_protein|mol2

> <Gold.PLP.Fitness>
40.2722

> <Gold.PLP.PLP>
-29.1583

> <Gold.PLP.part.hbond>
-3.0000

> <Gold.PLP.part.metal>
0.0000

> <Gold.PLP.part.buried>
-2.7930

> <Gold.PLP.part.nonpolar>
-24.1255

> <Gold.PLP.part.repulsive>
0.1600

> <Gold.PLP.ligand.clash>
0.0000

> <Gold.PLP.ligand.torsion>
0.2970

> <Gold.PLP.Chemscore.Hbond>
2.8640

> <Gold.PLP.Chemscore.CHOScore>
1.0000

> <Gold.PLP.Chemscore.Metal>
0.0000

> <Gold.Chemscore.Hbonds>
donor molecule, donor type, donor heavy atom, donor atom, acceptor molecule, acceptor atom, score
      L1  H     6    29       P1  7948  1.00
      L1  H     9    30       P1  7948  1.00
      P1  H  7989  7998       L1    14  0.76
      L1  C    15    37       P1  8028  0.97

> <Gold.PLP.Chemscore.Internal.Correction>
0.1158

> <Gold.Rescore>
     Score         DG    S(hbond)    S(metal)    S(lipo)     H(rot)  DE(clash)    DE(int)     intcor
     16.44     -17.11       2.09        0.00      71.51       1.45       0.27       0.40       ----

> <Gold.Chemscore.Fitness>
16.4432

> <Gold.Chemscore.DG>
-17.1136

> <Gold.Chemscore.ZeroCoef>
-5.4800

> <Gold.Chemscore.Hbond>
2.0923

> <Gold.Chemscore.Metal>
0.0000

> <Gold.Chemscore.Lipo>
71.5092

> <Gold.Chemscore.Internal_Hbond>
0.0000

> <Gold.Chemscore.DEClash>
0.2677

> <Gold.Chemscore.DEInternal>
0.4027

> <Gold.Chemscore.Rot>
1.4536

> <Gold.Chemscore.Internal.Correction>
   9.000000E+99

> <Gold.Chemscore.Hbonds>
donor molecule, donor type, donor heavy atom, donor atom, acceptor molecule, acceptor atom, score
      L1  H     6    29       P1  7948  0.98
      L1  H     9    30       P1  7948  0.38
      P1  H  7989  7998       L1    14  0.10

> <Gold.Chemscore.Hbond.Weighted>
-6.9882

> <Gold.Chemscore.Metal.Weighted>
-0.0000

> <Gold.Chemscore.Lipo.Weighted>
-8.3666

> <Gold.Chemscore.Internal_Hbond.Weighted>
0.0000

> <Gold.Chemscore.DEClash.Weighted>
0.2677

> <Gold.Chemscore.DEInternal.Weighted>
0.4027

> <Gold.Chemscore.Rot.Weighted>
3.7212

> <Gold.Chemscore.Internal.Correction.Weighted>
   9.000000E+99

> <Gold.Protein.RotatedTorsions>
[ 6907 6896 6895 6894 ] final  -85.30 input  -60.11 | X-H torsion
[ 7974 7965 7964 7962 ] final  -25.08 input  175.53 | X-H torsion
[ 8008 7997 7996 7995 ] final -113.77 input   59.86 | X-H torsion
[ 10167 10162 10161 10158 ] final  -10.66 input  -65.29 | X-H torsion
[ 10718 10713 10712 10709 ] final   17.24 input   66.30 | X-H torsion
[ 10763 10752 10751 10750 ] final  163.65 input  -60.55 | X-H torsion
[ 11005 11000 10999 10996 ] final  164.63 input  -57.11 | X-H torsion

> <Gold.Protein.ActiveResidues>
 VAL166  LYS551  ARG553  GLY616  TRP617  ASP618  TYR619  PRO620  LYS621  CYS622 
 ASP623  PHE694  ASN695  SER759  ASP760  ASP761  ALA762  ILE779  LEU786  VAL792 
 PHE793  MET794  SER795  GLU796  ALA797  LYS798  CYS799  TRP800  GLU811  SER814 

> <Gold.Protein.RotatedAtoms>
  150.6871  134.3226  159.4792 H   0  0  0  0  0  0  0  0  0  0  0  0  # atno 6907 bound_to 6896
  152.1100  134.9278  160.0576 H   0  0  0  0  0  0  0  0  0  0  0  0  # atno 6908 bound_to 6896
  152.0524  133.3990  159.4420 H   0  0  0  0  0  0  0  0  0  0  0  0  # atno 6909 bound_to 6896
  146.1514  140.4838  142.8610 H   0  0  0  0  0  0  0  0  0  0  0  0  # atno 7974 bound_to 7965
  155.0260  140.0393  157.2455 H   0  0  0  0  0  0  0  0  0  0  0  0  # atno 8008 bound_to 7997
  154.7337  140.2735  155.6410 H   0  0  0  0  0  0  0  0  0  0  0  0  # atno 8009 bound_to 7997
  156.2848  140.2679  156.2045 H   0  0  0  0  0  0  0  0  0  0  0  0  # atno 8010 bound_to 7997
  140.7119  143.5724  150.9078 H   0  0  0  0  0  0  0  0  0  0  0  0  # atno 10167 bound_to 10162
  157.0793  130.6381  149.5823 H   0  0  0  0  0  0  0  0  0  0  0  0  # atno 10718 bound_to 10713
  154.2970  135.2760  155.2629 H   0  0  0  0  0  0  0  0  0  0  0  0  # atno 10763 bound_to 10752
  154.5082  135.5789  153.6588 H   0  0  0  0  0  0  0  0  0  0  0  0  # atno 10764 bound_to 10752
  152.9906  135.6174  154.3138 H   0  0  0  0  0  0  0  0  0  0  0  0  # atno 10765 bound_to 10752
  140.2478  134.8000  157.3473 H   0  0  0  0  0  0  0  0  0  0  0  0  # atno 11005 bound_to 11000
  144.7909  140.6029  143.6542 LP  0  0  0  0  0  0  0  0  0  0  0  0  # atno 17320 bound_to 7965
  145.4814  139.1495  143.3760 LP  0  0  0  0  0  0  0  0  0  0  0  0  # atno 17321 bound_to 7965
  139.9450  143.6338  152.3044 LP  0  0  0  0  0  0  0  0  0  0  0  0  # atno 17342 bound_to 10162
  139.6836  144.7653  151.1564 LP  0  0  0  0  0  0  0  0  0  0  0  0  # atno 17343 bound_to 10162
  155.9928  130.4987  150.7355 LP  0  0  0  0  0  0  0  0  0  0  0  0  # atno 17370 bound_to 10713
  157.4813  131.0902  151.0532 LP  0  0  0  0  0  0  0  0  0  0  0  0  # atno 17371 bound_to 10713
  140.1588  134.4755  155.7909 LP  0  0  0  0  0  0  0  0  0  0  0  0  # atno 17394 bound_to 11000
  141.2204  133.6892  156.7508 LP  0  0  0  0  0  0  0  0  0  0  0  0  # atno 17395 bound_to 11000

$$$$
