AV-unprocessed.smi:3208|AV-procd|sdf|12267|dock8
  -GOLD-   2272018103D 1   1.00000     0.00000
 Structure written by MMmdl.
 29 29  0  0  0  0  0  0  0  0  2 V2000
  147.1727  140.4060  153.2244 C   0  0  0  0  0  0  0  0  0  0  0  0
  148.0909  141.1821  153.8193 C   0  0  0  0  0  0  0  0  0  0  0  0
  148.9261  140.7648  155.0096 C   0  0  0  0  0  0  0  0  0  0  0  0
  150.2575  140.4782  154.5992 O   0  0  0  0  0  0  0  0  0  0  0  0
  151.1080  139.9398  155.6092 C   0  0  1  0  0  0  0  0  0  0  0  0
  152.4528  139.6005  154.9495 C   0  0  0  0  0  0  0  0  0  0  0  0
  151.2876  140.9467  156.7570 C   0  0  0  0  0  0  0  0  0  0  0  0
  150.6990  142.0281  156.7175 O   0  0  0  0  0  0  0  0  0  0  0  0
  152.0909  140.5463  157.7595 N   0  0  0  0  0  0  0  0  0  0  0  0
  152.4595  141.2465  158.9413 C   0  0  0  0  0  0  0  0  0  0  0  0
  151.6627  142.1765  159.5258 N   0  0  0  0  0  0  0  0  0  0  0  0
  152.0865  142.8017  160.6434 C   0  0  0  0  0  0  0  0  0  0  0  0
  153.3285  142.5414  161.2488 C   0  0  0  0  0  0  0  0  0  0  0  0
  154.1645  141.5797  160.6556 C   0  0  0  0  0  0  0  0  0  0  0  0
  153.7291  140.9214  159.4879 C   0  0  0  0  0  0  0  0  0  0  0  0
  154.5439  139.9850  158.9109 O   0  5  0  0  0  0  0  0  0  0  0  0
  146.9716  139.4044  153.5757 H   0  0  0  0  0  0  0  0  0  0  0  0
  146.6090  140.7651  152.3760 H   0  0  0  0  0  0  0  0  0  0  0  0
  148.2649  142.1789  153.4413 H   0  0  0  0  0  0  0  0  0  0  0  0
  148.9086  141.5552  155.7613 H   0  0  0  0  0  0  0  0  0  0  0  0
  148.4703  139.8785  155.4528 H   0  0  0  0  0  0  0  0  0  0  0  0
  150.6729  139.0144  155.9917 H   0  0  0  0  0  0  0  0  0  0  0  0
  153.1593  139.1966  155.6757 H   0  0  0  0  0  0  0  0  0  0  0  0
  152.9081  140.4788  154.4906 H   0  0  0  0  0  0  0  0  0  0  0  0
  152.3211  138.8523  154.1676 H   0  0  0  0  0  0  0  0  0  0  0  0
  152.5004  139.6274  157.6700 H   0  0  0  0  0  0  0  0  0  0  0  0
  151.4144  143.5330  161.0673 H   0  0  0  0  0  0  0  0  0  0  0  0
  153.6317  143.0646  162.1433 H   0  0  0  0  0  0  0  0  0  0  0  0
  155.1264  141.3523  161.0915 H   0  0  0  0  0  0  0  0  0  0  0  0
  1  2  2  0  0  0  0
  1 17  1  0  0  0  0
  1 18  1  0  0  0  0
  2  3  1  0  0  0  0
  2 19  1  0  0  0  0
  3  4  1  0  0  0  0
  3 20  1  0  0  0  0
  3 21  1  0  0  0  0
  4  5  1  0  0  0  0
  5  6  1  0  0  0  0
  5  7  1  0  0  0  0
  5 22  1  0  0  0  0
  6 23  1  0  0  0  0
  6 24  1  0  0  0  0
  6 25  1  0  0  0  0
  7  8  2  0  0  0  0
  7  9  1  0  0  0  0
  9 26  1  0  0  0  0
  9 10  1  0  0  0  0
 10 15  2  0  0  0  0
 10 11  1  0  0  0  0
 11 12  2  0  0  0  0
 12 27  1  0  0  0  0
 12 13  1  0  0  0  0
 13 28  1  0  0  0  0
 13 14  2  0  0  0  0
 14 15  1  0  0  0  0
 14 29  1  0  0  0  0
 15 16  1  0  0  0  0
M  CHG  1  16  -1
M  END
> <s_m_source_file>
AV-unprocessed.smi

> <i_m_source_file_index>
3208

> <i_lp_mmshare_version>
43012

> <i_f3d_flags>
0

> <s_epik_input>
W0NIMl09W0NIXVtDSDJdT1tDQEhdKFtDSDNdKUMoPU8pW05IXWMxbltjSF1bY0hdW2NIXWMxW09IXQ==

> <s_epik_cmdline>
J2VwaWtfcHl0aG9uJywgJy1waCcsICc3LjAnLCAnLXRuJywgJzgnLCAnLW1hJywgJzIwMCcsICctbWV0YWxfYmluZGluZycsICctaW1hZScsICc8aW5maWxlLm1hZT4nLCAnLW9tYWUnLCAnPG91dGZpbGUubWFlPic=

> <r_epik_Ionization_Penalty>
4.05889

> <r_epik_Ionization_Penalty_Charging>
2.07983

> <r_epik_Ionization_Penalty_Neutral>
1.97905

> <r_epik_State_Penalty>
2.65143

> <r_epik_Charging_Adjusted_Penalty>
4.73126

> <i_epik_Tot_Q>
-1

> <i_epik_Tot_abs_Q>
1

> <r_epik_Metal_State_Penalty>
0.650759

> <b_epik_Metal_Only>
0

> <s_lp_Force_Field>
OPLS_2005

> <r_lp_Energy>
4.10408

> <b_lp_Chiralities_Consistent>
1

> <s_lp_Variant>
AV-unprocessed.smi:3208-8

> <Gold.Version>
5.8.1

> <Gold.Id.Protein>
6NUR|6NUR_protein|mol2

> <Gold.PLP.Fitness>
43.0116

> <Gold.PLP.PLP>
-34.6884

> <Gold.PLP.part.hbond>
-2.0000

> <Gold.PLP.part.metal>
0.0000

> <Gold.PLP.part.buried>
-3.6376

> <Gold.PLP.part.nonpolar>
-28.7279

> <Gold.PLP.part.repulsive>
0.2588

> <Gold.PLP.ligand.clash>
0.0000

> <Gold.PLP.ligand.torsion>
0.2839

> <Gold.PLP.Chemscore.Hbond>
2.9600

> <Gold.PLP.Chemscore.CHOScore>
0.0000

> <Gold.PLP.Chemscore.Metal>
0.0000

> <Gold.Chemscore.Hbonds>
donor molecule, donor type, donor heavy atom, donor atom, acceptor molecule, acceptor atom, score
      P1  H  7989  7998       L1     4  0.67
      P1  H  7997  8009       L1    16  1.89

> <Gold.PLP.Chemscore.Internal.Correction>
0.0110

> <Gold.Rescore>
     Score         DG    S(hbond)    S(metal)    S(lipo)     H(rot)  DE(clash)    DE(int)     intcor
     11.00     -14.10       1.22        0.00      75.17       1.65       0.33       2.77       ----

> <Gold.Chemscore.Fitness>
11.0038

> <Gold.Chemscore.DG>
-14.1029

> <Gold.Chemscore.ZeroCoef>
-5.4800

> <Gold.Chemscore.Hbond>
1.2155

> <Gold.Chemscore.Metal>
0.0000

> <Gold.Chemscore.Lipo>
75.1744

> <Gold.Chemscore.Internal_Hbond>
0.0000

> <Gold.Chemscore.DEClash>
0.3261

> <Gold.Chemscore.DEInternal>
2.7729

> <Gold.Chemscore.Rot>
1.6533

> <Gold.Chemscore.Internal.Correction>
   9.000000E+99

> <Gold.Chemscore.Hbonds>
donor molecule, donor type, donor heavy atom, donor atom, acceptor molecule, acceptor atom, score
      P1  H  7989  7998       L1     4  0.07
      P1  H  7997  8009       L1    16  0.89

> <Gold.Chemscore.Hbond.Weighted>
-4.0599

> <Gold.Chemscore.Metal.Weighted>
-0.0000

> <Gold.Chemscore.Lipo.Weighted>
-8.7954

> <Gold.Chemscore.Internal_Hbond.Weighted>
0.0000

> <Gold.Chemscore.DEClash.Weighted>
0.3261

> <Gold.Chemscore.DEInternal.Weighted>
2.7729

> <Gold.Chemscore.Rot.Weighted>
4.2324

> <Gold.Chemscore.Internal.Correction.Weighted>
   9.000000E+99

> <Gold.Protein.RotatedTorsions>
[ 6907 6896 6895 6894 ] final -152.64 input  -60.11 | X-H torsion
[ 7974 7965 7964 7962 ] final -148.67 input  175.53 | X-H torsion
[ 8008 7997 7996 7995 ] final  136.00 input   59.86 | X-H torsion
[ 10167 10162 10161 10158 ] final -158.24 input  -65.29 | X-H torsion
[ 10718 10713 10712 10709 ] final   33.68 input   66.30 | X-H torsion
[ 10763 10752 10751 10750 ] final  -31.24 input  -60.55 | X-H torsion
[ 11005 11000 10999 10996 ] final -130.31 input  -57.11 | X-H torsion

> <Gold.Protein.ActiveResidues>
 VAL166  LYS551  ARG553  GLY616  TRP617  ASP618  TYR619  PRO620  LYS621  CYS622 
 ASP623  PHE694  ASN695  SER759  ASP760  ASP761  ALA762  ILE779  LEU786  VAL792 
 PHE793  MET794  SER795  GLU796  ALA797  LYS798  CYS799  TRP800  GLU811  SER814 

> <Gold.Protein.RotatedAtoms>
  151.2308  133.4451  159.2603 H   0  0  0  0  0  0  0  0  0  0  0  0  # atno 6907 bound_to 6896
  151.0796  134.9850  159.8359 H   0  0  0  0  0  0  0  0  0  0  0  0  # atno 6908 bound_to 6896
  152.5422  134.2249  159.8855 H   0  0  0  0  0  0  0  0  0  0  0  0  # atno 6909 bound_to 6896
  144.8015  140.5166  143.5704 H   0  0  0  0  0  0  0  0  0  0  0  0  # atno 7974 bound_to 7965
  156.3004  140.2456  156.3674 H   0  0  0  0  0  0  0  0  0  0  0  0  # atno 8008 bound_to 7997
  154.8821  140.0412  157.1808 H   0  0  0  0  0  0  0  0  0  0  0  0  # atno 8009 bound_to 7997
  154.8685  140.2931  155.5499 H   0  0  0  0  0  0  0  0  0  0  0  0  # atno 8010 bound_to 7997
  139.6707  143.9750  152.2282 H   0  0  0  0  0  0  0  0  0  0  0  0  # atno 10167 bound_to 10162
  157.3008  130.7350  149.6666 H   0  0  0  0  0  0  0  0  0  0  0  0  # atno 10718 bound_to 10713
  153.7940  135.6895  153.4866 H   0  0  0  0  0  0  0  0  0  0  0  0  # atno 10763 bound_to 10752
  153.1731  135.4535  154.9927 H   0  0  0  0  0  0  0  0  0  0  0  0  # atno 10764 bound_to 10752
  154.8033  135.3346  154.7434 H   0  0  0  0  0  0  0  0  0  0  0  0  # atno 10765 bound_to 10752
  140.9356  134.1261  157.4196 H   0  0  0  0  0  0  0  0  0  0  0  0  # atno 11005 bound_to 11000
  145.5542  139.1477  143.3377 LP  0  0  0  0  0  0  0  0  0  0  0  0  # atno 17320 bound_to 7965
  146.2297  140.5679  142.8981 LP  0  0  0  0  0  0  0  0  0  0  0  0  # atno 17321 bound_to 7965
  139.9513  144.6618  150.8169 LP  0  0  0  0  0  0  0  0  0  0  0  0  # atno 17342 bound_to 10162
  140.7617  143.3180  151.2688 LP  0  0  0  0  0  0  0  0  0  0  0  0  # atno 17343 bound_to 10162
  155.9671  130.4280  150.4770 LP  0  0  0  0  0  0  0  0  0  0  0  0  # atno 17370 bound_to 10713
  157.2751  131.0595  151.2234 LP  0  0  0  0  0  0  0  0  0  0  0  0  # atno 17371 bound_to 10713
  139.8807  135.0020  156.6099 LP  0  0  0  0  0  0  0  0  0  0  0  0  # atno 17394 bound_to 11000
  140.7803  133.8665  155.8562 LP  0  0  0  0  0  0  0  0  0  0  0  0  # atno 17395 bound_to 11000

$$$$
