AV-unprocessed.smi:3032|AV-procd|sdf|11565|dock3
  -GOLD-   2272016533D 1   1.00000     0.00000
 Structure written by MMmdl.
 37 38  0  0  0  0  0  0  0  0  1 V2000
  149.3868  145.4176  160.5902 C   0  0  0  0  0  0  0  0  0  0  0  0
  150.4285  144.4228  160.0598 C   0  0  2  0  0  0  0  0  0  0  0  0
  151.6719  144.3727  160.9667 C   0  0  0  0  0  0  0  0  0  0  0  0
  152.7078  143.3621  160.4512 C   0  0  0  0  0  0  0  0  0  0  0  0
  153.0971  143.6403  158.9853 C   0  0  0  0  0  0  0  0  0  0  0  0
  151.8834  143.7771  158.0332 C   0  0  1  0  0  0  0  0  0  0  0  0
  151.2369  142.4340  157.6465 C   0  0  0  0  0  0  0  0  0  0  0  0
  151.7559  141.3613  157.9545 O   0  0  0  0  0  0  0  0  0  0  0  0
  150.0819  142.5144  156.9685 N   0  0  0  0  0  0  0  0  0  0  0  0
  149.2565  141.3787  156.5673 C   0  0  0  0  0  0  0  0  0  0  0  0
  149.5854  140.8549  155.1534 C   0  0  0  0  0  0  0  0  0  0  0  0
  150.2617  139.5196  155.1406 C   0  0  0  0  0  0  0  0  0  0  0  0
  151.0010  139.0269  156.1415 N   0  0  0  0  0  0  0  0  0  0  0  0
  151.4451  137.7895  155.7019 N   0  0  0  0  0  0  0  0  0  0  0  0
  150.9282  137.6552  154.4795 C   0  0  0  0  0  0  0  0  0  0  0  0
  150.1868  138.6959  154.0836 N   0  0  0  0  0  0  0  0  0  0  0  0
  150.8443  144.7632  158.6142 C   0  0  0  0  0  0  0  0  0  0  0  0
  149.7006  138.8309  153.2090 H   0  0  0  0  0  0  0  0  0  0  0  0
  149.7855  146.4321  160.6189 H   0  0  0  0  0  0  0  0  0  0  0  0
  149.0721  145.1545  161.6004 H   0  0  0  0  0  0  0  0  0  0  0  0
  148.4968  145.4271  159.9608 H   0  0  0  0  0  0  0  0  0  0  0  0
  149.9639  143.4360  160.0647 H   0  0  0  0  0  0  0  0  0  0  0  0
  152.1275  145.3624  161.0219 H   0  0  0  0  0  0  0  0  0  0  0  0
  151.3823  144.1095  161.9845 H   0  0  0  0  0  0  0  0  0  0  0  0
  153.5989  143.3980  161.0782 H   0  0  0  0  0  0  0  0  0  0  0  0
  152.3124  142.3525  160.5566 H   0  0  0  0  0  0  0  0  0  0  0  0
  153.6720  144.5666  158.9484 H   0  0  0  0  0  0  0  0  0  0  0  0
  153.7722  142.8604  158.6300 H   0  0  0  0  0  0  0  0  0  0  0  0
  152.2598  144.2063  157.1032 H   0  0  0  0  0  0  0  0  0  0  0  0
  149.7261  143.4336  156.7488 H   0  0  0  0  0  0  0  0  0  0  0  0
  149.4359  140.5846  157.2924 H   0  0  0  0  0  0  0  0  0  0  0  0
  148.1989  141.6338  156.6448 H   0  0  0  0  0  0  0  0  0  0  0  0
  148.6696  140.7875  154.5653 H   0  0  0  0  0  0  0  0  0  0  0  0
  150.2233  141.5718  154.6345 H   0  0  0  0  0  0  0  0  0  0  0  0
  151.0946  136.7841  153.8632 H   0  0  0  0  0  0  0  0  0  0  0  0
  149.9612  144.7963  157.9740 H   0  0  0  0  0  0  0  0  0  0  0  0
  151.2623  145.7703  158.5884 H   0  0  0  0  0  0  0  0  0  0  0  0
  1  2  1  0  0  0  0
  1 19  1  0  0  0  0
  1 20  1  0  0  0  0
  1 21  1  0  0  0  0
  2 17  1  0  0  0  0
  2  3  1  0  0  0  0
  2 22  1  0  0  0  0
  3  4  1  0  0  0  0
  3 23  1  0  0  0  0
  3 24  1  0  0  0  0
  4  5  1  0  0  0  0
  4 25  1  0  0  0  0
  4 26  1  0  0  0  0
  5  6  1  0  0  0  0
  5 27  1  0  0  0  0
  5 28  1  0  0  0  0
  6  7  1  0  0  0  0
  6 17  1  0  0  0  0
  6 29  1  0  0  0  0
  7  8  2  0  0  0  0
  7  9  1  0  0  0  0
  9 10  1  0  0  0  0
  9 30  1  0  0  0  0
 10 11  1  0  0  0  0
 10 31  1  0  0  0  0
 10 32  1  0  0  0  0
 11 12  1  0  0  0  0
 11 33  1  0  0  0  0
 11 34  1  0  0  0  0
 12 16  1  0  0  0  0
 12 13  2  0  0  0  0
 13 14  1  0  0  0  0
 14 15  2  0  0  0  0
 15 16  1  0  0  0  0
 15 35  1  0  0  0  0
 16 18  1  0  0  0  0
 17 36  1  0  0  0  0
 17 37  1  0  0  0  0
M  END
> <s_m_source_file>
AV-unprocessed.smi

> <i_m_source_file_index>
3032

> <i_lp_mmshare_version>
43012

> <i_f3d_flags>
0

> <s_epik_input>
W0NIM11bQ0BASF0xW0NIMl1bQ0gyXVtDSDJdW0NASF0oW0NIMl0xKUMoPU8pW05IXVtDSDJdW0NIMl1jMm5uW2NIXVtuSF0y

> <s_epik_cmdline>
J2VwaWtfcHl0aG9uJywgJy1waCcsICc3LjAnLCAnLXRuJywgJzgnLCAnLW1hJywgJzIwMCcsICctbWV0YWxfYmluZGluZycsICctaW1hZScsICc8aW5maWxlLm1hZT4nLCAnLW9tYWUnLCAnPG91dGZpbGUubWFlPic=

> <r_lp_tautomer_probability>
0.0517155

> <r_epik_Ionization_Penalty>
0.00149837

> <r_epik_Ionization_Penalty_Charging>
0

> <r_epik_Ionization_Penalty_Neutral>
0.00149837

> <r_epik_State_Penalty>
2.1109

> <r_epik_Charging_Adjusted_Penalty>
2.1109

> <i_epik_Tot_Q>
0

> <i_epik_Tot_abs_Q>
0

> <r_epik_Metal_State_Penalty>
2.23635

> <b_epik_Metal_Only>
0

> <s_lp_Force_Field>
OPLS_2005

> <r_lp_Energy>
9.22736

> <b_lp_Chiralities_Consistent>
1

> <s_lp_Variant>
AV-unprocessed.smi:3032-9

> <Gold.Version>
5.8.1

> <Gold.Id.Protein>
6NUR|6NUR_protein|mol2

> <Gold.PLP.Fitness>
43.8669

> <Gold.PLP.PLP>
-37.0703

> <Gold.PLP.part.hbond>
-2.0000

> <Gold.PLP.part.metal>
0.0000

> <Gold.PLP.part.buried>
-2.1167

> <Gold.PLP.part.nonpolar>
-31.9480

> <Gold.PLP.part.repulsive>
0.1796

> <Gold.PLP.ligand.clash>
0.0000

> <Gold.PLP.ligand.torsion>
1.1243

> <Gold.PLP.Chemscore.Hbond>
2.0000

> <Gold.PLP.Chemscore.CHOScore>
1.0000

> <Gold.PLP.Chemscore.Metal>
0.0000

> <Gold.Chemscore.Hbonds>
donor molecule, donor type, donor heavy atom, donor atom, acceptor molecule, acceptor atom, score
      L1  H     9    30       P1  8028  1.00
      L1  H    16    18       P1  7957  0.14
      L1  C    15    35       P1  7949  1.00

> <Gold.PLP.Chemscore.Internal.Correction>
0.0451

> <Gold.Rescore>
     Score         DG    S(hbond)    S(metal)    S(lipo)     H(rot)  DE(clash)    DE(int)     intcor
     15.32     -16.55       1.87        0.00      90.40       2.25       0.30       0.94       ----

> <Gold.Chemscore.Fitness>
15.3243

> <Gold.Chemscore.DG>
-16.5548

> <Gold.Chemscore.ZeroCoef>
-5.4800

> <Gold.Chemscore.Hbond>
1.8738

> <Gold.Chemscore.Metal>
0.0000

> <Gold.Chemscore.Lipo>
90.3994

> <Gold.Chemscore.Internal_Hbond>
0.0000

> <Gold.Chemscore.DEClash>
0.2954

> <Gold.Chemscore.DEInternal>
0.9350

> <Gold.Chemscore.Rot>
2.2501

> <Gold.Chemscore.Internal.Correction>
   9.000000E+99

> <Gold.Chemscore.Hbonds>
donor molecule, donor type, donor heavy atom, donor atom, acceptor molecule, acceptor atom, score
      L1  H     9    30       P1  8028  0.98
      L1  H    16    18       P1  7957  0.15

> <Gold.Chemscore.Hbond.Weighted>
-6.2583

> <Gold.Chemscore.Metal.Weighted>
-0.0000

> <Gold.Chemscore.Lipo.Weighted>
-10.5767

> <Gold.Chemscore.Internal_Hbond.Weighted>
0.0000

> <Gold.Chemscore.DEClash.Weighted>
0.2954

> <Gold.Chemscore.DEInternal.Weighted>
0.9350

> <Gold.Chemscore.Rot.Weighted>
5.7603

> <Gold.Chemscore.Internal.Correction.Weighted>
   9.000000E+99

> <Gold.Protein.RotatedTorsions>
[ 6907 6896 6895 6894 ] final  -85.50 input  -60.11 | X-H torsion
[ 7974 7965 7964 7962 ] final   55.45 input  175.53 | X-H torsion
[ 8008 7997 7996 7995 ] final    0.86 input   59.86 | X-H torsion
[ 10167 10162 10161 10158 ] final   15.96 input  -65.29 | X-H torsion
[ 10718 10713 10712 10709 ] final   20.90 input   66.30 | X-H torsion
[ 10763 10752 10751 10750 ] final   83.11 input  -60.55 | X-H torsion
[ 11005 11000 10999 10996 ] final   48.63 input  -57.11 | X-H torsion

> <Gold.Protein.ActiveResidues>
 VAL166  LYS551  ARG553  GLY616  TRP617  ASP618  TYR619  PRO620  LYS621  CYS622 
 ASP623  PHE694  ASN695  SER759  ASP760  ASP761  ALA762  ILE779  LEU786  VAL792 
 PHE793  MET794  SER795  GLU796  ALA797  LYS798  CYS799  TRP800  GLU811  SER814 

> <Gold.Protein.RotatedAtoms>
  150.6870  134.3195  159.4780 H   0  0  0  0  0  0  0  0  0  0  0  0  # atno 6907 bound_to 6896
  152.1072  134.9297  160.0577 H   0  0  0  0  0  0  0  0  0  0  0  0  # atno 6908 bound_to 6896
  152.0554  133.4003  159.4432 H   0  0  0  0  0  0  0  0  0  0  0  0  # atno 6909 bound_to 6896
  145.9502  139.3965  143.0310 H   0  0  0  0  0  0  0  0  0  0  0  0  # atno 7974 bound_to 7965
  154.6729  140.2616  155.6988 H   0  0  0  0  0  0  0  0  0  0  0  0  # atno 8008 bound_to 7997
  156.2666  140.2825  156.1167 H   0  0  0  0  0  0  0  0  0  0  0  0  # atno 8009 bound_to 7997
  155.1142  140.0376  157.2722 H   0  0  0  0  0  0  0  0  0  0  0  0  # atno 8010 bound_to 7997
  140.5831  143.8943  150.6806 H   0  0  0  0  0  0  0  0  0  0  0  0  # atno 10167 bound_to 10162
  157.1309  130.6590  149.5951 H   0  0  0  0  0  0  0  0  0  0  0  0  # atno 10718 bound_to 10713
  153.1262  135.4703  154.9275 H   0  0  0  0  0  0  0  0  0  0  0  0  # atno 10763 bound_to 10752
  154.7622  135.3134  154.8359 H   0  0  0  0  0  0  0  0  0  0  0  0  # atno 10764 bound_to 10752
  153.8912  135.6884  153.4814 H   0  0  0  0  0  0  0  0  0  0  0  0  # atno 10765 bound_to 10752
  140.1174  134.4874  155.8626 H   0  0  0  0  0  0  0  0  0  0  0  0  # atno 11005 bound_to 11000
  145.8181  140.9693  143.0913 LP  0  0  0  0  0  0  0  0  0  0  0  0  # atno 17320 bound_to 7965
  144.6794  140.0007  143.7484 LP  0  0  0  0  0  0  0  0  0  0  0  0  # atno 17321 bound_to 7965
  140.2447  143.3637  152.1457 LP  0  0  0  0  0  0  0  0  0  0  0  0  # atno 17342 bound_to 10162
  139.5181  144.7001  151.5517 LP  0  0  0  0  0  0  0  0  0  0  0  0  # atno 17343 bound_to 10162
  155.9808  130.4811  150.6793 LP  0  0  0  0  0  0  0  0  0  0  0  0  # atno 17370 bound_to 10713
  157.4393  131.0859  151.0960 LP  0  0  0  0  0  0  0  0  0  0  0  0  # atno 17371 bound_to 10713
  141.2144  133.6748  156.6822 LP  0  0  0  0  0  0  0  0  0  0  0  0  # atno 17394 bound_to 11000
  140.3010  134.8163  157.4098 LP  0  0  0  0  0  0  0  0  0  0  0  0  # atno 17395 bound_to 11000

$$$$
