AV-unprocessed.smi:1944|AV-procd|sdf|7855|dock4
  -GOLD-   2272010 03D 1   1.00000     0.00000
 Structure written by MMmdl.
 46 47  0  0  0  0  0  0  0  0  2 V2000
  153.3514  138.3091  154.5747 C   0  0  0  0  0  0  0  0  0  0  0  0
  151.9390  138.4874  154.5949 O   0  0  0  0  0  0  0  0  0  0  0  0
  151.4165  139.5300  155.3362 C   0  0  0  0  0  0  0  0  0  0  0  0
  152.1944  140.0929  156.2950 N   0  0  0  0  0  0  0  0  0  0  0  0
  151.6880  141.1133  157.0171 C   0  0  0  0  0  0  0  0  0  0  0  0
  150.3936  141.6279  156.8201 C   0  0  0  0  0  0  0  0  0  0  0  0
  149.5847  141.0460  155.8267 C   0  0  0  0  0  0  0  0  0  0  0  0
  150.0963  139.9636  155.0703 C   0  0  0  0  0  0  0  0  0  0  0  0
  149.3719  139.3172  154.0306 N   0  0  0  0  0  0  0  0  0  0  0  0
  148.0944  139.5048  153.6589 C   0  0  0  0  0  0  0  0  0  0  0  0
  147.3034  140.2841  154.1900 O   0  0  0  0  0  0  0  0  0  0  0  0
  147.7641  138.7085  152.6323 N   0  0  0  0  0  0  0  0  0  0  0  0
  146.4499  138.6650  152.0014 C   0  0  0  0  0  0  0  0  0  0  0  0
  145.5444  137.6026  152.6559 C   0  0  0  0  0  0  0  0  0  0  0  0
  145.9667  136.2049  152.3684 N   0  3  2  0  0  0  0  0  0  0  0  0
  145.4688  135.7355  151.0466 C   0  0  0  0  0  0  0  0  0  0  0  0
  146.0867  134.3825  150.6604 C   0  0  0  0  0  0  0  0  0  0  0  0
  145.8298  133.3305  151.7444 C   0  0  0  0  0  0  0  0  0  0  0  0
  146.3380  133.8443  153.0982 C   0  0  0  0  0  0  0  0  0  0  0  0
  145.7320  135.2154  153.4677 C   0  0  2  0  0  0  0  0  0  0  0  0
  144.2525  135.1029  153.8942 C   0  0  0  0  0  0  0  0  0  0  0  0
  153.5968  137.4443  153.9586 H   0  0  0  0  0  0  0  0  0  0  0  0
  153.7451  138.1244  155.5753 H   0  0  0  0  0  0  0  0  0  0  0  0
  153.8565  139.1754  154.1451 H   0  0  0  0  0  0  0  0  0  0  0  0
  152.3364  141.5369  157.7695 H   0  0  0  0  0  0  0  0  0  0  0  0
  150.0311  142.4542  157.4136 H   0  0  0  0  0  0  0  0  0  0  0  0
  148.5990  141.4504  155.6564 H   0  0  0  0  0  0  0  0  0  0  0  0
  149.8707  138.5784  153.5562 H   0  0  0  0  0  0  0  0  0  0  0  0
  148.4734  138.0955  152.2567 H   0  0  0  0  0  0  0  0  0  0  0  0
  145.9817  139.6501  152.0436 H   0  0  0  0  0  0  0  0  0  0  0  0
  146.6141  138.4392  150.9483 H   0  0  0  0  0  0  0  0  0  0  0  0
  145.4755  137.7652  153.7317 H   0  0  0  0  0  0  0  0  0  0  0  0
  144.5320  137.7313  152.2708 H   0  0  0  0  0  0  0  0  0  0  0  0
  144.3805  135.6675  151.0588 H   0  0  0  0  0  0  0  0  0  0  0  0
  145.7239  136.4672  150.2791 H   0  0  0  0  0  0  0  0  0  0  0  0
  145.6771  134.0442  149.7080 H   0  0  0  0  0  0  0  0  0  0  0  0
  147.1610  134.4997  150.5109 H   0  0  0  0  0  0  0  0  0  0  0  0
  144.7641  133.1068  151.8018 H   0  0  0  0  0  0  0  0  0  0  0  0
  146.3291  132.3961  151.4864 H   0  0  0  0  0  0  0  0  0  0  0  0
  146.1267  133.1127  153.8791 H   0  0  0  0  0  0  0  0  0  0  0  0
  147.4246  133.9336  153.0564 H   0  0  0  0  0  0  0  0  0  0  0  0
  146.2880  135.5529  154.3416 H   0  0  0  0  0  0  0  0  0  0  0  0
  144.1348  134.3542  154.6783 H   0  0  0  0  0  0  0  0  0  0  0  0
  143.6033  134.8114  153.0694 H   0  0  0  0  0  0  0  0  0  0  0  0
  143.8755  136.0412  154.3002 H   0  0  0  0  0  0  0  0  0  0  0  0
  146.9707  136.2512  152.2648 H   0  0  0  0  0  0  0  0  0  0  0  0
  1  2  1  0  0  0  0
  1 22  1  0  0  0  0
  1 23  1  0  0  0  0
  1 24  1  0  0  0  0
  2  3  1  0  0  0  0
  3  8  1  0  0  0  0
  3  4  2  0  0  0  0
  4  5  1  0  0  0  0
  5  6  2  0  0  0  0
  5 25  1  0  0  0  0
  6  7  1  0  0  0  0
  6 26  1  0  0  0  0
  7  8  2  0  0  0  0
  7 27  1  0  0  0  0
  8  9  1  0  0  0  0
  9 10  1  0  0  0  0
  9 28  1  0  0  0  0
 10 11  2  0  0  0  0
 10 12  1  0  0  0  0
 12 13  1  0  0  0  0
 12 29  1  0  0  0  0
 13 14  1  0  0  0  0
 13 30  1  0  0  0  0
 13 31  1  0  0  0  0
 14 15  1  0  0  0  0
 14 32  1  0  0  0  0
 14 33  1  0  0  0  0
 15 20  1  0  0  0  0
 15 16  1  0  0  0  0
 15 46  1  0  0  0  0
 16 17  1  0  0  0  0
 16 34  1  0  0  0  0
 16 35  1  0  0  0  0
 17 18  1  0  0  0  0
 17 36  1  0  0  0  0
 17 37  1  0  0  0  0
 18 19  1  0  0  0  0
 18 38  1  0  0  0  0
 18 39  1  0  0  0  0
 19 20  1  0  0  0  0
 19 40  1  0  0  0  0
 19 41  1  0  0  0  0
 20 21  1  0  0  0  0
 20 42  1  0  0  0  0
 21 43  1  0  0  0  0
 21 44  1  0  0  0  0
 21 45  1  0  0  0  0
M  CHG  1  15   1
M  END
> <s_m_source_file>
AV-unprocessed.smi

> <i_m_source_file_index>
1944

> <i_lp_mmshare_version>
43012

> <i_f3d_flags>
0

> <s_epik_input>
W0NIM11PYzFuW2NIXVtjSF1bY0hdYzFbTkhdQyg9TylbTkhdW0NIMl1bQ0gyXU4yW0NIMl1bQ0gyXVtDSDJdW0NIMl1bQ0BIXTJbQ0gzXQ==

> <s_epik_cmdline>
J2VwaWtfcHl0aG9uJywgJy1waCcsICc3LjAnLCAnLXRuJywgJzgnLCAnLW1hJywgJzIwMCcsICctbWV0YWxfYmluZGluZycsICctaW1hZScsICc8aW5maWxlLm1hZT4nLCAnLW9tYWUnLCAnPG91dGZpbGUubWFlPic=

> <r_lp_tautomer_probability>
1

> <r_epik_Ionization_Penalty>
0.00219525

> <r_epik_Ionization_Penalty_Charging>
0.00211816

> <r_epik_Ionization_Penalty_Neutral>
7.7088e-05

> <r_epik_State_Penalty>
0.00145254

> <r_epik_Charging_Adjusted_Penalty>
0.0035707

> <i_epik_Tot_Q>
1

> <i_epik_Tot_abs_Q>
1

> <r_epik_Metal_State_Penalty>
-0

> <b_epik_Metal_Only>
0

> <s_lp_Force_Field>
OPLS_2005

> <r_lp_Energy>
23.2027

> <b_lp_Chiralities_Consistent>
1

> <s_lp_Variant>
AV-unprocessed.smi:1944-3

> <Gold.Version>
5.8.1

> <Gold.Id.Protein>
6NUR|6NUR_protein|mol2

> <Gold.PLP.Fitness>
43.8645

> <Gold.PLP.PLP>
-34.3368

> <Gold.PLP.part.hbond>
-4.8920

> <Gold.PLP.part.metal>
0.0000

> <Gold.PLP.part.buried>
-2.4420

> <Gold.PLP.part.nonpolar>
-26.9971

> <Gold.PLP.part.repulsive>
0.3713

> <Gold.PLP.ligand.clash>
0.0000

> <Gold.PLP.ligand.torsion>
0.8109

> <Gold.PLP.Chemscore.Hbond>
3.6920

> <Gold.PLP.Chemscore.CHOScore>
0.0000

> <Gold.PLP.Chemscore.Metal>
0.0000

> <Gold.Chemscore.Hbonds>
donor molecule, donor type, donor heavy atom, donor atom, acceptor molecule, acceptor atom, score
      L1  H    12    29       P1  7948  0.93
      L1  H    15    46       P1  7948  2.00
      P1  H  7997  8009       L1     4  0.71

> <Gold.PLP.Chemscore.Internal.Correction>
0.0736

> <Gold.Rescore>
     Score         DG    S(hbond)    S(metal)    S(lipo)     H(rot)  DE(clash)    DE(int)     intcor
     16.08     -18.25       2.63        0.00      71.55       1.71       0.17       2.00       ----

> <Gold.Chemscore.Fitness>
16.0837

> <Gold.Chemscore.DG>
-18.2549

> <Gold.Chemscore.ZeroCoef>
-5.4800

> <Gold.Chemscore.Hbond>
2.6298

> <Gold.Chemscore.Metal>
0.0000

> <Gold.Chemscore.Lipo>
71.5462

> <Gold.Chemscore.Internal_Hbond>
0.0000

> <Gold.Chemscore.DEClash>
0.1720

> <Gold.Chemscore.DEInternal>
1.9992

> <Gold.Chemscore.Rot>
1.7107

> <Gold.Chemscore.Internal.Correction>
   9.000000E+99

> <Gold.Chemscore.Hbonds>
donor molecule, donor type, donor heavy atom, donor atom, acceptor molecule, acceptor atom, score
      L1  H    12    29       P1  7948  0.90
      L1  H    15    46       P1  7948  0.95
      P1  H  7997  8009       L1     4  0.49

> <Gold.Chemscore.Hbond.Weighted>
-8.7834

> <Gold.Chemscore.Metal.Weighted>
-0.0000

> <Gold.Chemscore.Lipo.Weighted>
-8.3709

> <Gold.Chemscore.Internal_Hbond.Weighted>
0.0000

> <Gold.Chemscore.DEClash.Weighted>
0.1720

> <Gold.Chemscore.DEInternal.Weighted>
1.9992

> <Gold.Chemscore.Rot.Weighted>
4.3794

> <Gold.Chemscore.Internal.Correction.Weighted>
   9.000000E+99

> <Gold.Protein.RotatedTorsions>
[ 6907 6896 6895 6894 ] final   86.46 input  -60.11 | X-H torsion
[ 7974 7965 7964 7962 ] final  176.61 input  175.53 | X-H torsion
[ 8008 7997 7996 7995 ] final -169.25 input   59.86 | X-H torsion
[ 10167 10162 10161 10158 ] final -130.84 input  -65.29 | X-H torsion
[ 10718 10713 10712 10709 ] final   94.56 input   66.30 | X-H torsion
[ 10763 10752 10751 10750 ] final   31.99 input  -60.55 | X-H torsion
[ 11005 11000 10999 10996 ] final  126.29 input  -57.11 | X-H torsion

> <Gold.Protein.ActiveResidues>
 VAL166  LYS551  ARG553  GLY616  TRP617  ASP618  TYR619  PRO620  LYS621  CYS622 
 ASP623  PHE694  ASN695  SER759  ASP760  ASP761  ALA762  ILE779  LEU786  VAL792 
 PHE793  MET794  SER795  GLU796  ALA797  LYS798  CYS799  TRP800  GLU811  SER814 

> <Gold.Protein.RotatedAtoms>
  152.5395  134.2427  159.8867 H   0  0  0  0  0  0  0  0  0  0  0  0  # atno 6907 bound_to 6896
  151.2394  133.4401  159.2614 H   0  0  0  0  0  0  0  0  0  0  0  0  # atno 6908 bound_to 6896
  151.0641  134.9769  159.8331 H   0  0  0  0  0  0  0  0  0  0  0  0  # atno 6909 bound_to 6896
  144.7181  140.0123  143.6440 H   0  0  0  0  0  0  0  0  0  0  0  0  # atno 7974 bound_to 7965
  155.9025  140.1043  157.1340 H   0  0  0  0  0  0  0  0  0  0  0  0  # atno 8008 bound_to 7997
  154.4028  140.1290  156.4518 H   0  0  0  0  0  0  0  0  0  0  0  0  # atno 8009 bound_to 7997
  155.7406  140.3467  155.5105 H   0  0  0  0  0  0  0  0  0  0  0  0  # atno 8010 bound_to 7997
  139.9251  143.6337  152.2544 H   0  0  0  0  0  0  0  0  0  0  0  0  # atno 10167 bound_to 10162
  157.6947  131.0516  150.4206 H   0  0  0  0  0  0  0  0  0  0  0  0  # atno 10718 bound_to 10713
  153.0286  135.6425  154.1285 H   0  0  0  0  0  0  0  0  0  0  0  0  # atno 10763 bound_to 10752
  154.1010  135.2859  155.3253 H   0  0  0  0  0  0  0  0  0  0  0  0  # atno 10764 bound_to 10752
  154.6398  135.5463  153.7839 H   0  0  0  0  0  0  0  0  0  0  0  0  # atno 10765 bound_to 10752
  139.9449  134.9631  156.8685 H   0  0  0  0  0  0  0  0  0  0  0  0  # atno 11005 bound_to 11000
  146.0248  139.3283  143.0791 LP  0  0  0  0  0  0  0  0  0  0  0  0  # atno 17320 bound_to 7965
  145.8524  140.9521  143.0743 LP  0  0  0  0  0  0  0  0  0  0  0  0  # atno 17321 bound_to 7965
  139.6829  144.7654  151.1577 LP  0  0  0  0  0  0  0  0  0  0  0  0  # atno 17342 bound_to 10162
  140.7652  143.5699  150.9007 LP  0  0  0  0  0  0  0  0  0  0  0  0  # atno 17343 bound_to 10162
  156.4581  130.4026  149.6593 LP  0  0  0  0  0  0  0  0  0  0  0  0  # atno 17370 bound_to 10713
  156.3718  130.7534  151.2518 LP  0  0  0  0  0  0  0  0  0  0  0  0  # atno 17371 bound_to 10713
  140.5860  134.0307  155.7482 LP  0  0  0  0  0  0  0  0  0  0  0  0  # atno 17394 bound_to 11000
  141.1096  133.9638  157.2935 LP  0  0  0  0  0  0  0  0  0  0  0  0  # atno 17395 bound_to 11000

$$$$
