AV-unprocessed.smi:2225|AV-procd|sdf|8999|dock1
  -GOLD-   2272012203D 1   1.00000     0.00000
 Structure written by MMmdl.
 33 34  0  0  0  0  0  0  0  0  1 V2000
  150.3241  140.9084  157.8939 O   0  0  0  0  0  0  0  0  0  0  0  0
  150.3477  141.9723  157.2761 C   0  0  0  0  0  0  0  0  0  0  0  0
  151.3522  143.0583  157.7000 C   0  0  0  0  0  0  0  0  0  0  0  0
  151.9452  142.8756  159.0381 N   0  0  0  0  0  0  0  0  0  0  0  0
  151.6069  143.8270  160.0168 C   0  0  0  0  0  0  0  0  0  0  0  0
  152.0925  143.7601  161.2636 C   0  0  0  0  0  0  0  0  0  0  0  0
  152.9877  142.6768  161.5896 C   0  0  0  0  0  0  0  0  0  0  0  0
  153.3262  141.7424  160.6714 C   0  0  0  0  0  0  0  0  0  0  0  0
  154.2768  140.5928  160.9982 C   0  0  0  0  0  0  0  0  0  0  0  0
  153.7153  139.4223  160.6929 F   0  0  0  0  0  0  0  0  0  0  0  0
  155.4090  140.7060  160.3027 F   0  0  0  0  0  0  0  0  0  0  0  0
  154.5956  140.5669  162.2931 F   0  0  0  0  0  0  0  0  0  0  0  0
  152.7777  141.8209  159.3019 C   0  0  0  0  0  0  0  0  0  0  0  0
  153.0430  140.9852  158.4365 O   0  0  0  0  0  0  0  0  0  0  0  0
  149.5305  142.2270  156.2406 N   0  0  0  0  0  0  0  0  0  0  0  0
  148.5211  141.3102  155.7205 C   0  0  2  0  0  0  0  0  0  0  0  0
  148.6851  141.0636  154.2208 C   0  0  0  0  0  0  0  0  0  0  0  0
  147.2833  141.2792  153.6618 C   0  0  0  0  0  0  0  0  0  0  0  0
  146.7466  142.2713  154.5187 O   0  0  0  0  0  0  0  0  0  0  0  0
  147.1175  141.9205  155.8437 C   0  0  0  0  0  0  0  0  0  0  0  0
  152.1364  143.1173  156.9429 H   0  0  0  0  0  0  0  0  0  0  0  0
  150.8435  144.0219  157.6463 H   0  0  0  0  0  0  0  0  0  0  0  0
  150.9283  144.6027  159.6921 H   0  0  0  0  0  0  0  0  0  0  0  0
  151.8202  144.4969  162.0051 H   0  0  0  0  0  0  0  0  0  0  0  0
  153.3876  142.6265  162.5913 H   0  0  0  0  0  0  0  0  0  0  0  0
  149.6116  143.1220  155.7800 H   0  0  0  0  0  0  0  0  0  0  0  0
  148.5544  140.3710  156.2758 H   0  0  0  0  0  0  0  0  0  0  0  0
  149.3650  141.7929  153.7774 H   0  0  0  0  0  0  0  0  0  0  0  0
  149.0737  140.0696  153.9971 H   0  0  0  0  0  0  0  0  0  0  0  0
  147.2890  141.6029  152.6209 H   0  0  0  0  0  0  0  0  0  0  0  0
  146.6880  140.3679  153.7380 H   0  0  0  0  0  0  0  0  0  0  0  0
  146.4137  141.1769  156.2204 H   0  0  0  0  0  0  0  0  0  0  0  0
  147.0732  142.7852  156.5072 H   0  0  0  0  0  0  0  0  0  0  0  0
  1  2  2  0  0  0  0
  2  3  1  0  0  0  0
  2 15  1  0  0  0  0
  3  4  1  0  0  0  0
  3 21  1  0  0  0  0
  3 22  1  0  0  0  0
  4 13  1  0  0  0  0
  4  5  1  0  0  0  0
  5  6  2  0  0  0  0
  5 23  1  0  0  0  0
  6  7  1  0  0  0  0
  6 24  1  0  0  0  0
  7  8  2  0  0  0  0
  7 25  1  0  0  0  0
  8  9  1  0  0  0  0
  8 13  1  0  0  0  0
  9 10  1  0  0  0  0
  9 11  1  0  0  0  0
  9 12  1  0  0  0  0
 13 14  2  0  0  0  0
 15 16  1  0  0  0  0
 15 26  1  0  0  0  0
 16 20  1  0  0  0  0
 16 17  1  0  0  0  0
 16 27  1  0  0  0  0
 17 18  1  0  0  0  0
 17 28  1  0  0  0  0
 17 29  1  0  0  0  0
 18 19  1  0  0  0  0
 18 30  1  0  0  0  0
 18 31  1  0  0  0  0
 19 20  1  0  0  0  0
 20 32  1  0  0  0  0
 20 33  1  0  0  0  0
M  END
> <s_m_source_file>
AV-unprocessed.smi

> <i_m_source_file_index>
2225

> <i_lp_mmshare_version>
43012

> <i_f3d_flags>
0

> <s_epik_input>
W0NIMl0xT1tDSDJdW0NIMl1bQ0BIXTFbTkhdQyg9TylbQ0gyXW4yW2NIXVtjSF1bY0hdYyhDKEYpKEYpRiljMj1P

> <s_epik_cmdline>
J2VwaWtfcHl0aG9uJywgJy1waCcsICc3LjAnLCAnLXRuJywgJzgnLCAnLW1hJywgJzIwMCcsICctbWV0YWxfYmluZGluZycsICctaW1hZScsICc8aW5maWxlLm1hZT4nLCAnLW9tYWUnLCAnPG91dGZpbGUubWFlPic=

> <r_lp_tautomer_probability>
1

> <r_epik_Ionization_Penalty>
3.32109e-08

> <r_epik_Ionization_Penalty_Charging>
1.91399e-09

> <r_epik_Ionization_Penalty_Neutral>
3.1297e-08

> <r_epik_State_Penalty>
-0

> <r_epik_Charging_Adjusted_Penalty>
1.91399e-09

> <i_epik_Tot_Q>
0

> <i_epik_Tot_abs_Q>
0

> <r_epik_Metal_State_Penalty>
-0

> <b_epik_Metal_Only>
0

> <s_lp_Force_Field>
OPLS_2005

> <r_lp_Energy>
26.4099

> <b_lp_Chiralities_Consistent>
1

> <s_lp_Variant>
AV-unprocessed.smi:2225-1

> <Gold.Version>
5.8.1

> <Gold.Id.Protein>
6NUR|6NUR_protein|mol2

> <Gold.PLP.Fitness>
46.8766

> <Gold.PLP.PLP>
-43.6590

> <Gold.PLP.part.hbond>
-2.0000

> <Gold.PLP.part.metal>
0.0000

> <Gold.PLP.part.buried>
-2.2322

> <Gold.PLP.part.nonpolar>
-39.2514

> <Gold.PLP.part.repulsive>
0.2711

> <Gold.PLP.ligand.clash>
0.2020

> <Gold.PLP.ligand.torsion>
0.3798

> <Gold.PLP.Chemscore.Hbond>
1.2738

> <Gold.PLP.Chemscore.CHOScore>
0.0000

> <Gold.PLP.Chemscore.Metal>
0.0000

> <Gold.Chemscore.Hbonds>
donor molecule, donor type, donor heavy atom, donor atom, acceptor molecule, acceptor atom, score
      L1  H    15    26       P1  8028  0.88
      P1  H  7997  8009       L1    14  0.21

> <Gold.PLP.Chemscore.Internal.Correction>
0.3578

> <Gold.Rescore>
     Score         DG    S(hbond)    S(metal)    S(lipo)     H(rot)  DE(clash)    DE(int)     intcor
     11.49     -16.24       1.55        0.00      83.71       1.64       0.15       4.61       ----

> <Gold.Chemscore.Fitness>
11.4913

> <Gold.Chemscore.DG>
-16.2430

> <Gold.Chemscore.ZeroCoef>
-5.4800

> <Gold.Chemscore.Hbond>
1.5461

> <Gold.Chemscore.Metal>
0.0000

> <Gold.Chemscore.Lipo>
83.7149

> <Gold.Chemscore.Internal_Hbond>
0.0000

> <Gold.Chemscore.DEClash>
0.1461

> <Gold.Chemscore.DEInternal>
4.6056

> <Gold.Chemscore.Rot>
1.6389

> <Gold.Chemscore.Internal.Correction>
   9.000000E+99

> <Gold.Chemscore.Hbonds>
donor molecule, donor type, donor heavy atom, donor atom, acceptor molecule, acceptor atom, score
      L1  H    15    26       P1  8028  0.87
      P1  H  7997  8009       L1    14  0.21

> <Gold.Chemscore.Hbond.Weighted>
-5.1639

> <Gold.Chemscore.Metal.Weighted>
-0.0000

> <Gold.Chemscore.Lipo.Weighted>
-9.7946

> <Gold.Chemscore.Internal_Hbond.Weighted>
0.0000

> <Gold.Chemscore.DEClash.Weighted>
0.1461

> <Gold.Chemscore.DEInternal.Weighted>
4.6056

> <Gold.Chemscore.Rot.Weighted>
4.1956

> <Gold.Chemscore.Internal.Correction.Weighted>
   9.000000E+99

> <Gold.Protein.RotatedTorsions>
[ 6907 6896 6895 6894 ] final   17.12 input  -60.11 | X-H torsion
[ 7974 7965 7964 7962 ] final  -75.12 input  175.53 | X-H torsion
[ 8008 7997 7996 7995 ] final  162.46 input   59.86 | X-H torsion
[ 10167 10162 10161 10158 ] final -145.26 input  -65.29 | X-H torsion
[ 10718 10713 10712 10709 ] final -112.95 input   66.30 | X-H torsion
[ 10763 10752 10751 10750 ] final -155.49 input  -60.55 | X-H torsion
[ 11005 11000 10999 10996 ] final  -10.94 input  -57.11 | X-H torsion

> <Gold.Protein.ActiveResidues>
 VAL166  LYS551  ARG553  GLY616  TRP617  ASP618  TYR619  PRO620  LYS621  CYS622 
 ASP623  PHE694  ASN695  SER759  ASP760  ASP761  ALA762  ILE779  LEU786  VAL792 
 PHE793  MET794  SER795  GLU796  ALA797  LYS798  CYS799  TRP800  GLU811  SER814 

> <Gold.Protein.RotatedAtoms>
  151.8446  135.0579  160.0451 H   0  0  0  0  0  0  0  0  0  0  0  0  # atno 6907 bound_to 6896
  152.2783  133.5442  159.5490 H   0  0  0  0  0  0  0  0  0  0  0  0  # atno 6908 bound_to 6896
  150.7179  134.0516  159.3842 H   0  0  0  0  0  0  0  0  0  0  0  0  # atno 6909 bound_to 6896
  145.6301  140.9340  143.1091 H   0  0  0  0  0  0  0  0  0  0  0  0  # atno 7974 bound_to 7965
  156.2029  140.1749  156.7861 H   0  0  0  0  0  0  0  0  0  0  0  0  # atno 8008 bound_to 7997
  154.5616  140.0698  156.8858 H   0  0  0  0  0  0  0  0  0  0  0  0  # atno 8009 bound_to 7997
  155.2838  140.3351  155.4259 H   0  0  0  0  0  0  0  0  0  0  0  0  # atno 8010 bound_to 7997
  139.7822  143.8084  152.2640 H   0  0  0  0  0  0  0  0  0  0  0  0  # atno 10167 bound_to 10162
  156.0737  130.5947  150.8577 H   0  0  0  0  0  0  0  0  0  0  0  0  # atno 10718 bound_to 10713
  154.7783  135.3166  154.8044 H   0  0  0  0  0  0  0  0  0  0  0  0  # atno 10763 bound_to 10752
  153.8762  135.6839  153.4774 H   0  0  0  0  0  0  0  0  0  0  0  0  # atno 10764 bound_to 10752
  153.1413  135.4738  154.9436 H   0  0  0  0  0  0  0  0  0  0  0  0  # atno 10765 bound_to 10752
  140.7501  133.8599  155.9037 H   0  0  0  0  0  0  0  0  0  0  0  0  # atno 11005 bound_to 11000
  144.7197  139.8073  143.7386 LP  0  0  0  0  0  0  0  0  0  0  0  0  # atno 17320 bound_to 7965
  146.1363  139.4409  143.0137 LP  0  0  0  0  0  0  0  0  0  0  0  0  # atno 17321 bound_to 7965
  139.8151  144.7320  150.9646 LP  0  0  0  0  0  0  0  0  0  0  0  0  # atno 17342 bound_to 10162
  140.7818  143.4213  151.0837 LP  0  0  0  0  0  0  0  0  0  0  0  0  # atno 17343 bound_to 10162
  157.5821  131.0946  150.9255 LP  0  0  0  0  0  0  0  0  0  0  0  0  # atno 17370 bound_to 10713
  156.9448  130.5398  149.5281 LP  0  0  0  0  0  0  0  0  0  0  0  0  # atno 17371 bound_to 10713
  140.9759  134.1470  157.4537 LP  0  0  0  0  0  0  0  0  0  0  0  0  # atno 17394 bound_to 11000
  139.8789  134.9994  156.5954 LP  0  0  0  0  0  0  0  0  0  0  0  0  # atno 17395 bound_to 11000

$$$$
