AV-unprocessed.smi:2439|AV-procd|sdf|9612|dock6
  -GOLD-   2272013243D 1   1.00000     0.00000
 Structure written by MMmdl.
 40 42  0  0  0  0  0  0  0  0  1 V2000
  153.6802  140.7990  161.0369 N   0  0  0  0  0  0  0  0  0  0  0  0
  153.0491  141.6243  160.5277 C   0  0  0  0  0  0  0  0  0  0  0  0
  152.2540  142.6646  159.8864 C   0  0  0  0  0  0  0  0  0  0  0  0
  152.3630  143.9916  160.3524 C   0  0  0  0  0  0  0  0  0  0  0  0
  151.5973  144.9996  159.7385 C   0  0  0  0  0  0  0  0  0  0  0  0
  150.7483  144.6373  158.6769 C   0  0  0  0  0  0  0  0  0  0  0  0
  150.6343  143.3726  158.2210 N   0  0  0  0  0  0  0  0  0  0  0  0
  151.3706  142.3960  158.8062 C   0  0  0  0  0  0  0  0  0  0  0  0
  151.2305  141.0887  158.3077 N   0  0  0  0  0  0  0  0  0  0  0  0
  150.5955  140.8377  157.0215 C   0  0  0  0  0  0  0  0  0  0  0  0
  151.5979  140.2680  155.9999 C   0  0  1  0  0  0  0  0  0  0  0  0
  152.2172  138.9305  156.4486 C   0  0  0  0  0  0  0  0  0  0  0  0
  151.2709  137.8224  156.3907 N   0  0  0  0  0  0  0  0  0  0  0  0
  151.9029  136.5694  156.8013 C   0  0  0  0  0  0  0  0  0  0  0  0
  150.9236  135.3853  156.7883 C   0  0  0  0  0  0  0  0  0  0  0  0
  150.2951  135.2302  155.3964 C   0  0  0  0  0  0  0  0  0  0  0  0
  149.6801  136.5637  154.9445 C   0  0  0  0  0  0  0  0  0  0  0  0
  150.7076  137.7110  155.0422 C   0  0  1  0  0  0  0  0  0  0  0  0
  150.0701  139.0422  154.5974 C   0  0  0  0  0  0  0  0  0  0  0  0
  151.0120  140.1069  154.7065 O   0  0  0  0  0  0  0  0  0  0  0  0
  153.0239  144.2396  161.1706 H   0  0  0  0  0  0  0  0  0  0  0  0
  151.6590  146.0243  160.0735 H   0  0  0  0  0  0  0  0  0  0  0  0
  150.1441  145.3823  158.1806 H   0  0  0  0  0  0  0  0  0  0  0  0
  151.7110  140.3262  158.7639 H   0  0  0  0  0  0  0  0  0  0  0  0
  149.7880  140.1207  157.1734 H   0  0  0  0  0  0  0  0  0  0  0  0
  150.1350  141.7523  156.6482 H   0  0  0  0  0  0  0  0  0  0  0  0
  152.4093  140.9892  155.8937 H   0  0  0  0  0  0  0  0  0  0  0  0
  153.0725  138.7089  155.8084 H   0  0  0  0  0  0  0  0  0  0  0  0
  152.6108  139.0309  157.4610 H   0  0  0  0  0  0  0  0  0  0  0  0
  152.7460  136.3477  156.1451 H   0  0  0  0  0  0  0  0  0  0  0  0
  152.3145  136.6789  157.8052 H   0  0  0  0  0  0  0  0  0  0  0  0
  151.4389  134.4676  157.0728 H   0  0  0  0  0  0  0  0  0  0  0  0
  150.1417  135.5482  157.5311 H   0  0  0  0  0  0  0  0  0  0  0  0
  151.0587  134.9188  154.6827 H   0  0  0  0  0  0  0  0  0  0  0  0
  149.5371  134.4468  155.4074 H   0  0  0  0  0  0  0  0  0  0  0  0
  149.3134  136.4715  153.9217 H   0  0  0  0  0  0  0  0  0  0  0  0
  148.8126  136.7918  155.5657 H   0  0  0  0  0  0  0  0  0  0  0  0
  151.5198  137.4893  154.3474 H   0  0  0  0  0  0  0  0  0  0  0  0
  149.7459  138.9762  153.5586 H   0  0  0  0  0  0  0  0  0  0  0  0
  149.1796  139.2659  155.1855 H   0  0  0  0  0  0  0  0  0  0  0  0
  1  2  3  0  0  0  0
  2  3  1  0  0  0  0
  3  8  1  0  0  0  0
  3  4  2  0  0  0  0
  4  5  1  0  0  0  0
  4 21  1  0  0  0  0
  5  6  2  0  0  0  0
  5 22  1  0  0  0  0
  6  7  1  0  0  0  0
  6 23  1  0  0  0  0
  7  8  2  0  0  0  0
  8  9  1  0  0  0  0
  9 10  1  0  0  0  0
  9 24  1  0  0  0  0
 10 11  1  0  0  0  0
 10 25  1  0  0  0  0
 10 26  1  0  0  0  0
 11 20  1  0  0  0  0
 11 12  1  0  0  0  0
 11 27  1  0  0  0  0
 12 13  1  0  0  0  0
 12 28  1  0  0  0  0
 12 29  1  0  0  0  0
 13 18  1  0  0  0  0
 13 14  1  0  0  0  0
 14 15  1  0  0  0  0
 14 30  1  0  0  0  0
 14 31  1  0  0  0  0
 15 16  1  0  0  0  0
 15 32  1  0  0  0  0
 15 33  1  0  0  0  0
 16 17  1  0  0  0  0
 16 34  1  0  0  0  0
 16 35  1  0  0  0  0
 17 18  1  0  0  0  0
 17 36  1  0  0  0  0
 17 37  1  0  0  0  0
 18 19  1  0  0  0  0
 18 38  1  0  0  0  0
 19 20  1  0  0  0  0
 19 39  1  0  0  0  0
 19 40  1  0  0  0  0
M  END
> <s_m_source_file>
AV-unprocessed.smi

> <i_m_source_file_index>
2439

> <i_lp_mmshare_version>
43012

> <i_f3d_flags>
0

> <s_epik_input>
TiNDYzFbY0hdW2NIXVtjSF1uYzFbTkhdW0NIMl1bQ0BIXShbQ0gyXTIpT1tDSDJdW0NAQEhdKE4yMylbQ0gyXVtDSDJdW0NIMl1bQ0gyXTM=

> <s_epik_cmdline>
J2VwaWtfcHl0aG9uJywgJy1waCcsICc3LjAnLCAnLXRuJywgJzgnLCAnLW1hJywgJzIwMCcsICctbWV0YWxfYmluZGluZycsICctaW1hZScsICc8aW5maWxlLm1hZT4nLCAnLW9tYWUnLCAnPG91dGZpbGUubWFlPic=

> <r_epik_Ionization_Penalty>
1.22355

> <r_epik_Ionization_Penalty_Charging>
0

> <r_epik_Ionization_Penalty_Neutral>
1.22355

> <r_epik_State_Penalty>
1.29103

> <r_epik_Charging_Adjusted_Penalty>
1.29103

> <i_epik_Tot_Q>
0

> <i_epik_Tot_abs_Q>
0

> <r_epik_Metal_State_Penalty>
1.29103

> <b_epik_Metal_Only>
0

> <s_lp_Force_Field>
OPLS_2005

> <r_lp_Energy>
40.6054

> <b_lp_Chiralities_Consistent>
1

> <s_lp_Variant>
AV-unprocessed.smi:2439-10

> <Gold.Version>
5.8.1

> <Gold.Id.Protein>
6NUR|6NUR_protein|mol2

> <Gold.PLP.Fitness>
44.0583

> <Gold.PLP.PLP>
-38.1654

> <Gold.PLP.part.hbond>
-1.0000

> <Gold.PLP.part.metal>
0.0000

> <Gold.PLP.part.buried>
-6.1912

> <Gold.PLP.part.nonpolar>
-32.2685

> <Gold.PLP.part.repulsive>
0.3264

> <Gold.PLP.ligand.clash>
0.0000

> <Gold.PLP.ligand.torsion>
0.0725

> <Gold.PLP.Chemscore.Hbond>
1.0000

> <Gold.PLP.Chemscore.CHOScore>
1.0104

> <Gold.PLP.Chemscore.Metal>
0.0000

> <Gold.Chemscore.Hbonds>
donor molecule, donor type, donor heavy atom, donor atom, acceptor molecule, acceptor atom, score
      P1  H  7989  7998       L1    20  1.00
      L1  C     6    23       P1  8028  0.02
      L1  C     6    23       P1  8029  0.98

> <Gold.PLP.Chemscore.Internal.Correction>
0.0065

> <Gold.Rescore>
     Score         DG    S(hbond)    S(metal)    S(lipo)     H(rot)  DE(clash)    DE(int)     intcor
     16.90     -17.02       0.97        0.00      98.37       1.25       0.03       0.09       ----

> <Gold.Chemscore.Fitness>
16.8962

> <Gold.Chemscore.DG>
-17.0193

> <Gold.Chemscore.ZeroCoef>
-5.4800

> <Gold.Chemscore.Hbond>
0.9661

> <Gold.Chemscore.Metal>
0.0000

> <Gold.Chemscore.Lipo>
98.3654

> <Gold.Chemscore.Internal_Hbond>
0.0000

> <Gold.Chemscore.DEClash>
0.0310

> <Gold.Chemscore.DEInternal>
0.0921

> <Gold.Chemscore.Rot>
1.2485

> <Gold.Chemscore.Internal.Correction>
   9.000000E+99

> <Gold.Chemscore.Hbonds>
donor molecule, donor type, donor heavy atom, donor atom, acceptor molecule, acceptor atom, score
      P1  H  7989  7998       L1    20  0.93

> <Gold.Chemscore.Hbond.Weighted>
-3.2267

> <Gold.Chemscore.Metal.Weighted>
-0.0000

> <Gold.Chemscore.Lipo.Weighted>
-11.5087

> <Gold.Chemscore.Internal_Hbond.Weighted>
0.0000

> <Gold.Chemscore.DEClash.Weighted>
0.0310

> <Gold.Chemscore.DEInternal.Weighted>
0.0921

> <Gold.Chemscore.Rot.Weighted>
3.1961

> <Gold.Chemscore.Internal.Correction.Weighted>
   9.000000E+99

> <Gold.Protein.RotatedTorsions>
[ 6907 6896 6895 6894 ] final -118.43 input  -60.11 | X-H torsion
[ 7974 7965 7964 7962 ] final   59.62 input  175.53 | X-H torsion
[ 8008 7997 7996 7995 ] final -105.29 input   59.86 | X-H torsion
[ 10167 10162 10161 10158 ] final   13.71 input  -65.29 | X-H torsion
[ 10718 10713 10712 10709 ] final  -76.30 input   66.30 | X-H torsion
[ 10763 10752 10751 10750 ] final   75.85 input  -60.55 | X-H torsion
[ 11005 11000 10999 10996 ] final -171.26 input  -57.11 | X-H torsion

> <Gold.Protein.ActiveResidues>
 VAL166  LYS551  ARG553  GLY616  TRP617  ASP618  TYR619  PRO620  LYS621  CYS622 
 ASP623  PHE694  ASN695  SER759  ASP760  ASP761  ALA762  ILE779  LEU786  VAL792 
 PHE793  MET794  SER795  GLU796  ALA797  LYS798  CYS799  TRP800  GLU811  SER814 

> <Gold.Protein.RotatedAtoms>
  150.8219  133.8238  159.3135 H   0  0  0  0  0  0  0  0  0  0  0  0  # atno 6907 bound_to 6896
  151.5994  135.1046  160.0066 H   0  0  0  0  0  0  0  0  0  0  0  0  # atno 6908 bound_to 6896
  152.4307  133.7232  159.6601 H   0  0  0  0  0  0  0  0  0  0  0  0  # atno 6909 bound_to 6896
  145.9051  139.3611  143.0569 H   0  0  0  0  0  0  0  0  0  0  0  0  # atno 7974 bound_to 7965
  154.8978  140.0414  157.1875 H   0  0  0  0  0  0  0  0  0  0  0  0  # atno 8008 bound_to 7997
  154.8475  140.2924  155.5598 H   0  0  0  0  0  0  0  0  0  0  0  0  # atno 8009 bound_to 7997
  156.2995  140.2471  156.3428 H   0  0  0  0  0  0  0  0  0  0  0  0  # atno 8010 bound_to 7997
  140.5984  143.8654  150.6941 H   0  0  0  0  0  0  0  0  0  0  0  0  # atno 10167 bound_to 10162
  156.0179  130.4462  150.3172 H   0  0  0  0  0  0  0  0  0  0  0  0  # atno 10718 bound_to 10713
  153.0684  135.4973  154.8250 H   0  0  0  0  0  0  0  0  0  0  0  0  # atno 10763 bound_to 10752
  154.6987  135.2997  154.9376 H   0  0  0  0  0  0  0  0  0  0  0  0  # atno 10764 bound_to 10752
  154.0107  135.6754  153.4818 H   0  0  0  0  0  0  0  0  0  0  0  0  # atno 10765 bound_to 10752
  140.5103  134.5808  157.5016 H   0  0  0  0  0  0  0  0  0  0  0  0  # atno 11005 bound_to 11000
  145.8742  140.9402  143.0635 LP  0  0  0  0  0  0  0  0  0  0  0  0  # atno 17320 bound_to 7965
  144.6738  140.0694  143.7473 LP  0  0  0  0  0  0  0  0  0  0  0  0  # atno 17321 bound_to 7965
  140.2194  143.3821  152.1655 LP  0  0  0  0  0  0  0  0  0  0  0  0  # atno 17342 bound_to 10162
  139.5274  144.7119  151.5179 LP  0  0  0  0  0  0  0  0  0  0  0  0  # atno 17343 bound_to 10162
  157.1273  131.0262  151.2984 LP  0  0  0  0  0  0  0  0  0  0  0  0  # atno 17370 bound_to 10713
  157.4579  130.7636  149.7209 LP  0  0  0  0  0  0  0  0  0  0  0  0  # atno 17371 bound_to 10713
  139.9663  134.7368  156.0132 LP  0  0  0  0  0  0  0  0  0  0  0  0  # atno 17394 bound_to 11000
  141.1389  133.6569  156.3673 LP  0  0  0  0  0  0  0  0  0  0  0  0  # atno 17395 bound_to 11000

$$$$
