AV-unprocessed.smi:7|AV-procd|sdf|44|dock1
  -GOLD-   2262015163D 1   1.00000     0.00000
 Structure written by MMmdl.
 45 48  0  0  0  0  0  0  0  0  1 V2000
  152.4578  137.9437  155.7972 O   0  0  0  0  0  0  0  0  0  0  0  0
  151.9713  139.0492  156.0376 C   0  0  0  0  0  0  0  0  0  0  0  0
  152.3780  139.8575  157.2105 C   0  0  0  0  0  0  0  0  0  0  0  0
  153.2910  139.5823  158.2278 N   0  0  0  0  0  0  0  0  0  0  0  0
  153.2214  140.6729  158.9901 C   0  0  0  0  0  0  0  0  0  0  0  0
  152.3511  141.5966  158.5408 N   0  0  0  0  0  0  0  0  0  0  0  0
  152.1719  142.8165  159.2337 C   0  0  0  0  0  0  0  0  0  0  0  0
  151.8820  144.0089  158.5327 C   0  0  0  0  0  0  0  0  0  0  0  0
  151.7103  145.2186  159.2339 C   0  0  0  0  0  0  0  0  0  0  0  0
  151.8287  145.2436  160.6369 C   0  0  0  0  0  0  0  0  0  0  0  0
  152.1201  144.0584  161.3393 C   0  0  0  0  0  0  0  0  0  0  0  0
  152.2923  142.8479  160.6399 C   0  0  0  0  0  0  0  0  0  0  0  0
  151.7942  141.0833  157.3781 C   0  0  0  0  0  0  0  0  0  0  0  0
  150.8486  141.6987  156.5898 N   0  0  0  0  0  0  0  0  0  0  0  0
  150.5042  140.9580  155.5686 C   0  0  0  0  0  0  0  0  0  0  0  0
  151.0153  139.6572  155.2743 N   0  0  0  0  0  0  0  0  0  0  0  0
  150.4711  138.9929  154.0808 C   0  0  0  0  0  0  0  0  0  0  0  0
  148.9328  138.8187  154.1649 C   0  0  1  0  0  0  0  0  0  0  0  0
  148.4525  138.6135  152.8491 O   0  0  0  0  0  0  0  0  0  0  0  0
  148.4956  137.6316  155.0664 C   0  0  0  0  0  0  0  0  0  0  0  0
  149.2137  136.4848  154.6417 O   0  0  0  0  0  0  0  0  0  0  0  0
  148.7970  137.8119  156.5634 C   0  0  0  0  0  0  0  0  0  0  0  0
  147.9016  136.7929  157.2765 C   0  0  0  0  0  0  0  0  0  0  0  0
  146.6922  136.5680  156.3560 C   0  0  0  0  0  0  0  0  0  0  0  0
  146.9931  137.3009  155.0397 C   0  0  0  0  0  0  0  0  0  0  0  0
  153.8209  140.7954  159.8807 H   0  0  0  0  0  0  0  0  0  0  0  0
  151.7956  144.0037  157.4559 H   0  0  0  0  0  0  0  0  0  0  0  0
  151.4894  146.1280  158.6947 H   0  0  0  0  0  0  0  0  0  0  0  0
  151.6972  146.1716  161.1741 H   0  0  0  0  0  0  0  0  0  0  0  0
  152.2112  144.0773  162.4154 H   0  0  0  0  0  0  0  0  0  0  0  0
  152.5121  141.9433  161.1874 H   0  0  0  0  0  0  0  0  0  0  0  0
  149.7698  141.3132  154.8434 H   0  0  0  0  0  0  0  0  0  0  0  0
  150.7540  139.5209  153.1676 H   0  0  0  0  0  0  0  0  0  0  0  0
  150.9587  138.0227  153.9724 H   0  0  0  0  0  0  0  0  0  0  0  0
  148.4683  139.7294  154.5474 H   0  0  0  0  0  0  0  0  0  0  0  0
  148.7920  137.7908  152.5300 H   0  0  0  0  0  0  0  0  0  0  0  0
  149.1990  136.4576  153.6973 H   0  0  0  0  0  0  0  0  0  0  0  0
  149.8531  137.6855  156.8060 H   0  0  0  0  0  0  0  0  0  0  0  0
  148.5106  138.8105  156.8948 H   0  0  0  0  0  0  0  0  0  0  0  0
  148.4422  135.8543  157.4044 H   0  0  0  0  0  0  0  0  0  0  0  0
  147.6068  137.1350  158.2692 H   0  0  0  0  0  0  0  0  0  0  0  0
  146.5484  135.5014  156.1798 H   0  0  0  0  0  0  0  0  0  0  0  0
  145.7746  136.9483  156.8063 H   0  0  0  0  0  0  0  0  0  0  0  0
  146.4083  138.2212  155.0146 H   0  0  0  0  0  0  0  0  0  0  0  0
  146.7020  136.7182  154.1646 H   0  0  0  0  0  0  0  0  0  0  0  0
  1  2  2  0  0  0  0
  2 16  1  0  0  0  0
  2  3  1  0  0  0  0
  3 13  2  0  0  0  0
  3  4  1  0  0  0  0
  4  5  2  0  0  0  0
  5  6  1  0  0  0  0
  5 26  1  0  0  0  0
  6  7  1  0  0  0  0
  6 13  1  0  0  0  0
  7 12  1  0  0  0  0
  7  8  2  0  0  0  0
  8  9  1  0  0  0  0
  8 27  1  0  0  0  0
  9 10  2  0  0  0  0
  9 28  1  0  0  0  0
 10 11  1  0  0  0  0
 10 29  1  0  0  0  0
 11 12  2  0  0  0  0
 11 30  1  0  0  0  0
 12 31  1  0  0  0  0
 13 14  1  0  0  0  0
 14 15  2  0  0  0  0
 15 16  1  0  0  0  0
 15 32  1  0  0  0  0
 16 17  1  0  0  0  0
 17 18  1  0  0  0  0
 17 33  1  0  0  0  0
 17 34  1  0  0  0  0
 18 19  1  0  0  0  0
 18 20  1  0  0  0  0
 18 35  1  0  0  0  0
 19 36  1  0  0  0  0
 20 25  1  0  0  0  0
 20 21  1  0  0  0  0
 20 22  1  0  0  0  0
 21 37  1  0  0  0  0
 22 23  1  0  0  0  0
 22 38  1  0  0  0  0
 22 39  1  0  0  0  0
 23 24  1  0  0  0  0
 23 40  1  0  0  0  0
 23 41  1  0  0  0  0
 24 25  1  0  0  0  0
 24 42  1  0  0  0  0
 24 43  1  0  0  0  0
 25 44  1  0  0  0  0
 25 45  1  0  0  0  0
M  END
> <s_m_source_file>
AV-unprocessed.smi

> <i_m_source_file_index>
7

> <i_lp_mmshare_version>
43012

> <i_f3d_flags>
0

> <s_epik_input>
W0NIMl0xW0NIMl1bQ0gyXVtDSDJdQzEoW09IXSlbQ0BASF0oW09IXSlbQ0gyXW4oYzI9TylbY0hdbmMoYzIzKW4oW2NIXW4zKS1jNFtjSF1bY0hdW2NIXVtjSF1bY0hdNA==

> <s_epik_cmdline>
J2VwaWtfcHl0aG9uJywgJy1waCcsICc3LjAnLCAnLXRuJywgJzgnLCAnLW1hJywgJzIwMCcsICctbWV0YWxfYmluZGluZycsICctaW1hZScsICc8aW5maWxlLm1hZT4nLCAnLW9tYWUnLCAnPG91dGZpbGUubWFlPic=

> <r_lp_tautomer_probability>
1

> <r_epik_Ionization_Penalty>
0.000116694

> <r_epik_Ionization_Penalty_Charging>
6.60428e-09

> <r_epik_Ionization_Penalty_Neutral>
0.000116688

> <r_epik_State_Penalty>
-0

> <r_epik_Charging_Adjusted_Penalty>
6.60428e-09

> <i_epik_Tot_Q>
0

> <i_epik_Tot_abs_Q>
0

> <r_epik_Metal_State_Penalty>
-0

> <b_epik_Metal_Only>
0

> <s_lp_Force_Field>
OPLS_2005

> <r_lp_Energy>
52.8935

> <b_lp_Chiralities_Consistent>
1

> <s_lp_Variant>
AV-unprocessed.smi:7-2

> <Gold.Version>
5.8.1

> <Gold.Id.Protein>
6NUR|6NUR_protein|mol2

> <Gold.PLP.Fitness>
54.3556

> <Gold.PLP.PLP>
-47.4356

> <Gold.PLP.part.hbond>
-4.0000

> <Gold.PLP.part.metal>
0.0000

> <Gold.PLP.part.buried>
-2.5282

> <Gold.PLP.part.nonpolar>
-38.3936

> <Gold.PLP.part.repulsive>
0.0686

> <Gold.PLP.ligand.clash>
0.0000

> <Gold.PLP.ligand.torsion>
0.7116

> <Gold.PLP.Chemscore.Hbond>
2.7646

> <Gold.PLP.Chemscore.CHOScore>
0.0000

> <Gold.PLP.Chemscore.Metal>
0.0000

> <Gold.Chemscore.Hbonds>
donor molecule, donor type, donor heavy atom, donor atom, acceptor molecule, acceptor atom, score
      L1  H    19    36       P1  7948  1.00
      L1  H    21    37       P1  7948  1.00
      P1  H  7997  8009       L1     4  0.75

> <Gold.PLP.Chemscore.Internal.Correction>
0.0493

> <Gold.Rescore>
     Score         DG    S(hbond)    S(metal)    S(lipo)     H(rot)  DE(clash)    DE(int)     intcor
     15.25     -16.32       2.00        0.00      96.40       2.79       0.48       0.59       ----

> <Gold.Chemscore.Fitness>
15.2541

> <Gold.Chemscore.DG>
-16.3217

> <Gold.Chemscore.ZeroCoef>
-5.4800

> <Gold.Chemscore.Hbond>
2.0047

> <Gold.Chemscore.Metal>
0.0000

> <Gold.Chemscore.Lipo>
96.3955

> <Gold.Chemscore.Internal_Hbond>
0.0000

> <Gold.Chemscore.DEClash>
0.4771

> <Gold.Chemscore.DEInternal>
0.5905

> <Gold.Chemscore.Rot>
2.7860

> <Gold.Chemscore.Internal.Correction>
   9.000000E+99

> <Gold.Chemscore.Hbonds>
donor molecule, donor type, donor heavy atom, donor atom, acceptor molecule, acceptor atom, score
      L1  H    19    36       P1  7948  1.00
      L1  H    21    37       P1  7948  0.96
      P1  H  7997  8009       L1     4  0.03

> <Gold.Chemscore.Hbond.Weighted>
-6.6956

> <Gold.Chemscore.Metal.Weighted>
-0.0000

> <Gold.Chemscore.Lipo.Weighted>
-11.2783

> <Gold.Chemscore.Internal_Hbond.Weighted>
0.0000

> <Gold.Chemscore.DEClash.Weighted>
0.4771

> <Gold.Chemscore.DEInternal.Weighted>
0.5905

> <Gold.Chemscore.Rot.Weighted>
7.1322

> <Gold.Chemscore.Internal.Correction.Weighted>
   9.000000E+99

> <Gold.Protein.RotatedTorsions>
[ 6907 6896 6895 6894 ] final  -76.76 input  -60.11 | X-H torsion
[ 7974 7965 7964 7962 ] final -147.23 input  175.53 | X-H torsion
[ 8008 7997 7996 7995 ] final  132.28 input   59.86 | X-H torsion
[ 10167 10162 10161 10158 ] final  -51.80 input  -65.29 | X-H torsion
[ 10718 10713 10712 10709 ] final  131.49 input   66.30 | X-H torsion
[ 10763 10752 10751 10750 ] final  -89.45 input  -60.55 | X-H torsion
[ 11005 11000 10999 10996 ] final  -54.81 input  -57.11 | X-H torsion

> <Gold.Protein.ActiveResidues>
 VAL166  LYS551  ARG553  GLY616  TRP617  ASP618  TYR619  PRO620  LYS621  CYS622 
 ASP623  PHE694  ASN695  SER759  ASP760  ASP761  ALA762  ILE779  LEU786  VAL792 
 PHE793  MET794  SER795  GLU796  ALA797  LYS798  CYS799  TRP800  GLU811  SER814 

> <Gold.Protein.RotatedAtoms>
  150.7018  134.4524  159.5341 H   0  0  0  0  0  0  0  0  0  0  0  0  # atno 6907 bound_to 6896
  152.2214  134.8407  160.0494 H   0  0  0  0  0  0  0  0  0  0  0  0  # atno 6908 bound_to 6896
  151.9256  133.3562  159.3949 H   0  0  0  0  0  0  0  0  0  0  0  0  # atno 6909 bound_to 6896
  144.8107  140.5354  143.5644 H   0  0  0  0  0  0  0  0  0  0  0  0  # atno 7974 bound_to 7965
  156.2981  140.2550  156.3064 H   0  0  0  0  0  0  0  0  0  0  0  0  # atno 8008 bound_to 7997
  154.9368  140.0397  157.2095 H   0  0  0  0  0  0  0  0  0  0  0  0  # atno 8009 bound_to 7997
  154.8165  140.2853  155.5821 H   0  0  0  0  0  0  0  0  0  0  0  0  # atno 8010 bound_to 7997
  140.6570  143.2606  151.4556 H   0  0  0  0  0  0  0  0  0  0  0  0  # atno 10167 bound_to 10162
  157.4963  131.1092  150.9489 H   0  0  0  0  0  0  0  0  0  0  0  0  # atno 10718 bound_to 10713
  154.6554  135.5340  153.7952 H   0  0  0  0  0  0  0  0  0  0  0  0  # atno 10763 bound_to 10752
  153.0410  135.6492  154.0954 H   0  0  0  0  0  0  0  0  0  0  0  0  # atno 10764 bound_to 10752
  154.0867  135.2943  155.3259 H   0  0  0  0  0  0  0  0  0  0  0  0  # atno 10765 bound_to 10752
  141.1044  133.6615  156.4375 H   0  0  0  0  0  0  0  0  0  0  0  0  # atno 11005 bound_to 11000
  145.5331  139.1475  143.3489 LP  0  0  0  0  0  0  0  0  0  0  0  0  # atno 17320 bound_to 7965
  146.2405  140.5471  142.8936 LP  0  0  0  0  0  0  0  0  0  0  0  0  # atno 17321 bound_to 7965
  139.5795  144.1743  152.1948 LP  0  0  0  0  0  0  0  0  0  0  0  0  # atno 17342 bound_to 10162
  140.1063  144.5495  150.6954 LP  0  0  0  0  0  0  0  0  0  0  0  0  # atno 17343 bound_to 10162
  157.0174  130.5660  149.5327 LP  0  0  0  0  0  0  0  0  0  0  0  0  # atno 17370 bound_to 10713
  156.0202  130.5297  150.8254 LP  0  0  0  0  0  0  0  0  0  0  0  0  # atno 17371 bound_to 10713
  140.4941  134.6547  157.5222 LP  0  0  0  0  0  0  0  0  0  0  0  0  # atno 17394 bound_to 11000
  139.9907  134.6989  155.9694 LP  0  0  0  0  0  0  0  0  0  0  0  0  # atno 17395 bound_to 11000

$$$$
