AV-unprocessed.smi:1626|AV-procd|sdf|6514|dock8
  -GOLD-   22720 7183D 1   1.00000     0.00000
 Structure written by MMmdl.
 47 49  0  0  0  0  0  0  0  0  1 V2000
  152.8330  142.9242  161.8497 C   0  0  0  0  0  0  0  0  0  0  0  0
  152.3374  142.5645  160.4600 C   0  0  0  0  0  0  0  0  0  0  0  0
  152.8004  141.3754  159.8518 C   0  0  0  0  0  0  0  0  0  0  0  0
  152.3600  141.0019  158.5631 C   0  0  0  0  0  0  0  0  0  0  0  0
  152.6741  139.8978  157.7884 N   0  0  0  0  0  0  0  0  0  0  0  0
  151.9413  140.1167  156.6998 C   0  0  0  0  0  0  0  0  0  0  0  0
  151.1896  141.2341  156.6783 N   0  0  0  0  0  0  0  0  0  0  0  0
  150.3059  141.6854  155.6198 C   0  0  0  0  0  0  0  0  0  0  0  0
  149.5552  140.5142  154.9556 C   0  0  2  0  0  0  0  0  0  0  0  0
  150.3635  139.9675  153.9332 O   0  0  0  0  0  0  0  0  0  0  0  0
  148.2147  140.9416  154.3252 C   0  0  0  0  0  0  0  0  0  0  0  0
  147.4317  141.9087  155.0975 N   0  0  0  0  0  0  0  0  0  0  0  0
  147.0928  141.4150  156.4370 C   0  0  0  0  0  0  0  0  0  0  0  0
  146.3100  142.4461  157.2682 C   0  0  0  0  0  0  0  0  0  0  0  0
  145.0330  142.8730  156.5277 C   0  0  0  0  0  0  0  0  0  0  0  0
  144.3857  143.9092  157.2359 O   0  0  0  0  0  0  0  0  0  0  0  0
  145.3865  143.3459  155.1089 C   0  0  0  0  0  0  0  0  0  0  0  0
  146.2082  142.2699  154.3788 C   0  0  0  0  0  0  0  0  0  0  0  0
  151.4371  141.8581  157.8949 C   0  0  0  0  0  0  0  0  0  0  0  0
  150.9725  143.0456  158.4865 C   0  0  0  0  0  0  0  0  0  0  0  0
  151.4234  143.4044  159.7740 C   0  0  0  0  0  0  0  0  0  0  0  0
  150.9156  144.6895  160.4033 C   0  0  0  0  0  0  0  0  0  0  0  0
  153.4520  142.1306  162.2691 H   0  0  0  0  0  0  0  0  0  0  0  0
  151.9942  143.0845  162.5276 H   0  0  0  0  0  0  0  0  0  0  0  0
  153.4311  143.8352  161.8159 H   0  0  0  0  0  0  0  0  0  0  0  0
  153.4987  140.7372  160.3727 H   0  0  0  0  0  0  0  0  0  0  0  0
  151.9464  139.4223  155.8723 H   0  0  0  0  0  0  0  0  0  0  0  0
  149.5985  142.3916  156.0563 H   0  0  0  0  0  0  0  0  0  0  0  0
  150.8873  142.2425  154.8838 H   0  0  0  0  0  0  0  0  0  0  0  0
  149.3943  139.7189  155.6827 H   0  0  0  0  0  0  0  0  0  0  0  0
  149.8748  139.9811  153.1247 H   0  0  0  0  0  0  0  0  0  0  0  0
  148.4289  141.3629  153.3419 H   0  0  0  0  0  0  0  0  0  0  0  0
  147.6053  140.0552  154.1413 H   0  0  0  0  0  0  0  0  0  0  0  0
  146.5123  140.4946  156.3569 H   0  0  0  0  0  0  0  0  0  0  0  0
  147.9974  141.1631  156.9880 H   0  0  0  0  0  0  0  0  0  0  0  0
  146.0596  142.0272  158.2433 H   0  0  0  0  0  0  0  0  0  0  0  0
  146.9436  143.3147  157.4546 H   0  0  0  0  0  0  0  0  0  0  0  0
  144.3495  142.0250  156.4666 H   0  0  0  0  0  0  0  0  0  0  0  0
  144.7820  144.7320  156.9925 H   0  0  0  0  0  0  0  0  0  0  0  0
  144.4787  143.5685  154.5468 H   0  0  0  0  0  0  0  0  0  0  0  0
  145.9625  144.2716  155.1545 H   0  0  0  0  0  0  0  0  0  0  0  0
  146.4630  142.6406  153.3852 H   0  0  0  0  0  0  0  0  0  0  0  0
  145.5920  141.3820  154.2276 H   0  0  0  0  0  0  0  0  0  0  0  0
  150.2741  143.6734  157.9528 H   0  0  0  0  0  0  0  0  0  0  0  0
  150.2975  145.2561  159.7063 H   0  0  0  0  0  0  0  0  0  0  0  0
  151.7486  145.3261  160.7024 H   0  0  0  0  0  0  0  0  0  0  0  0
  150.3128  144.4691  161.2846 H   0  0  0  0  0  0  0  0  0  0  0  0
  1  2  1  0  0  0  0
  1 23  1  0  0  0  0
  1 24  1  0  0  0  0
  1 25  1  0  0  0  0
  2 21  1  0  0  0  0
  2  3  2  0  0  0  0
  3  4  1  0  0  0  0
  3 26  1  0  0  0  0
  4 19  2  0  0  0  0
  4  5  1  0  0  0  0
  5  6  2  0  0  0  0
  6  7  1  0  0  0  0
  6 27  1  0  0  0  0
  7  8  1  0  0  0  0
  7 19  1  0  0  0  0
  8  9  1  0  0  0  0
  8 28  1  0  0  0  0
  8 29  1  0  0  0  0
  9 10  1  0  0  0  0
  9 11  1  0  0  0  0
  9 30  1  0  0  0  0
 10 31  1  0  0  0  0
 11 12  1  0  0  0  0
 11 32  1  0  0  0  0
 11 33  1  0  0  0  0
 12 18  1  0  0  0  0
 12 13  1  0  0  0  0
 13 14  1  0  0  0  0
 13 34  1  0  0  0  0
 13 35  1  0  0  0  0
 14 15  1  0  0  0  0
 14 36  1  0  0  0  0
 14 37  1  0  0  0  0
 15 16  1  0  0  0  0
 15 17  1  0  0  0  0
 15 38  1  0  0  0  0
 16 39  1  0  0  0  0
 17 18  1  0  0  0  0
 17 40  1  0  0  0  0
 17 41  1  0  0  0  0
 18 42  1  0  0  0  0
 18 43  1  0  0  0  0
 19 20  1  0  0  0  0
 20 21  2  0  0  0  0
 20 44  1  0  0  0  0
 21 22  1  0  0  0  0
 22 45  1  0  0  0  0
 22 46  1  0  0  0  0
 22 47  1  0  0  0  0
M  END
> <s_m_source_file>
AV-unprocessed.smi

> <i_m_source_file_index>
1626

> <i_lp_mmshare_version>
43012

> <i_f3d_flags>
0

> <s_epik_input>
W0NIM11jKFtjSF0xKWMoW0NIM10pW2NIXWMoYzEyKW4oW2NIXW4yKVtDSDJdW0NASF0oW09IXSlbQ0gyXU4zW0NIMl1bQ0gyXVtDSF0oW09IXSlbQ0gyXVtDSDJdMw==

> <s_epik_cmdline>
J2VwaWtfcHl0aG9uJywgJy1waCcsICc3LjAnLCAnLXRuJywgJzgnLCAnLW1hJywgJzIwMCcsICctbWV0YWxfYmluZGluZycsICctaW1hZScsICc8aW5maWxlLm1hZT4nLCAnLW9tYWUnLCAnPG91dGZpbGUubWFlPic=

> <r_epik_Ionization_Penalty>
2.14395

> <r_epik_Ionization_Penalty_Charging>
0

> <r_epik_Ionization_Penalty_Neutral>
2.14395

> <r_epik_State_Penalty>
2.24477

> <r_epik_Charging_Adjusted_Penalty>
2.24477

> <i_epik_Tot_Q>
0

> <i_epik_Tot_abs_Q>
0

> <r_epik_Metal_State_Penalty>
2.17429

> <b_epik_Metal_Only>
0

> <s_lp_Force_Field>
OPLS_2005

> <r_lp_Energy>
28.7152

> <b_lp_Chiralities_Consistent>
1

> <s_lp_Variant>
AV-unprocessed.smi:1626-9

> <Gold.Version>
5.8.1

> <Gold.Id.Protein>
6NUR|6NUR_protein|mol2

> <Gold.PLP.Fitness>
53.4196

> <Gold.PLP.PLP>
-46.0106

> <Gold.PLP.part.hbond>
-3.0000

> <Gold.PLP.part.metal>
0.0000

> <Gold.PLP.part.buried>
-6.0758

> <Gold.PLP.part.nonpolar>
-35.6656

> <Gold.PLP.part.repulsive>
0.4255

> <Gold.PLP.ligand.clash>
0.0000

> <Gold.PLP.ligand.torsion>
0.7879

> <Gold.PLP.Chemscore.Hbond>
2.9920

> <Gold.PLP.Chemscore.CHOScore>
0.0000

> <Gold.PLP.Chemscore.Metal>
0.0000

> <Gold.Chemscore.Hbonds>
donor molecule, donor type, donor heavy atom, donor atom, acceptor molecule, acceptor atom, score
      L1  H    10    31       P1  7957  1.00
      P1  H  7989  7998       L1    10  0.90
      P1  H  7997  8008       L1     5  0.94

> <Gold.PLP.Chemscore.Internal.Correction>
0.0089

> <Gold.Rescore>
     Score         DG    S(hbond)    S(metal)    S(lipo)     H(rot)  DE(clash)    DE(int)     intcor
     18.22     -19.21       2.17        0.00     112.27       2.59       0.21       0.78       ----

> <Gold.Chemscore.Fitness>
18.2231

> <Gold.Chemscore.DG>
-19.2124

> <Gold.Chemscore.ZeroCoef>
-5.4800

> <Gold.Chemscore.Hbond>
2.1674

> <Gold.Chemscore.Metal>
0.0000

> <Gold.Chemscore.Lipo>
112.2701

> <Gold.Chemscore.Internal_Hbond>
0.0000

> <Gold.Chemscore.DEClash>
0.2077

> <Gold.Chemscore.DEInternal>
0.7816

> <Gold.Chemscore.Rot>
2.5947

> <Gold.Chemscore.Internal.Correction>
   9.000000E+99

> <Gold.Chemscore.Hbonds>
donor molecule, donor type, donor heavy atom, donor atom, acceptor molecule, acceptor atom, score
      L1  H    10    31       P1  7957  0.96
      P1  H  7989  7998       L1    10  0.15
      P1  H  7997  8008       L1     5  0.18

> <Gold.Chemscore.Hbond.Weighted>
-7.2392

> <Gold.Chemscore.Metal.Weighted>
-0.0000

> <Gold.Chemscore.Lipo.Weighted>
-13.1356

> <Gold.Chemscore.Internal_Hbond.Weighted>
0.0000

> <Gold.Chemscore.DEClash.Weighted>
0.2077

> <Gold.Chemscore.DEInternal.Weighted>
0.7816

> <Gold.Chemscore.Rot.Weighted>
6.6424

> <Gold.Chemscore.Internal.Correction.Weighted>
   9.000000E+99

> <Gold.Protein.RotatedTorsions>
[ 6907 6896 6895 6894 ] final  116.26 input  -60.11 | X-H torsion
[ 7974 7965 7964 7962 ] final   54.81 input  175.53 | X-H torsion
[ 8008 7997 7996 7995 ] final  -83.93 input   59.86 | X-H torsion
[ 10167 10162 10161 10158 ] final   74.44 input  -65.29 | X-H torsion
[ 10718 10713 10712 10709 ] final  153.37 input   66.30 | X-H torsion
[ 10763 10752 10751 10750 ] final    9.84 input  -60.55 | X-H torsion
[ 11005 11000 10999 10996 ] final  -16.71 input  -57.11 | X-H torsion

> <Gold.Protein.ActiveResidues>
 VAL166  LYS551  ARG553  GLY616  TRP617  ASP618  TYR619  PRO620  LYS621  CYS622 
 ASP623  PHE694  ASN695  SER759  ASP760  ASP761  ALA762  ILE779  LEU786  VAL792 
 PHE793  MET794  SER795  GLU796  ALA797  LYS798  CYS799  TRP800  GLU811  SER814 

> <Gold.Protein.RotatedAtoms>
  152.4689  133.7986  159.6940 H   0  0  0  0  0  0  0  0  0  0  0  0  # atno 6907 bound_to 6896
  150.8668  133.7553  159.2980 H   0  0  0  0  0  0  0  0  0  0  0  0  # atno 6908 bound_to 6896
  151.5101  135.1068  159.9903 H   0  0  0  0  0  0  0  0  0  0  0  0  # atno 6909 bound_to 6896
  145.9570  139.4024  143.0271 H   0  0  0  0  0  0  0  0  0  0  0  0  # atno 7974 bound_to 7965
  154.6243  140.0612  156.9654 H   0  0  0  0  0  0  0  0  0  0  0  0  # atno 8008 bound_to 7997
  155.1766  140.3295  155.4364 H   0  0  0  0  0  0  0  0  0  0  0  0  # atno 8009 bound_to 7997
  156.2449  140.1905  156.6865 H   0  0  0  0  0  0  0  0  0  0  0  0  # atno 8010 bound_to 7997
  140.0137  144.5594  150.7638 H   0  0  0  0  0  0  0  0  0  0  0  0  # atno 10167 bound_to 10162
  157.2457  131.0768  151.1763 H   0  0  0  0  0  0  0  0  0  0  0  0  # atno 10718 bound_to 10713
  153.2097  135.6867  153.8129 H   0  0  0  0  0  0  0  0  0  0  0  0  # atno 10763 bound_to 10752
  153.7366  135.3244  155.3297 H   0  0  0  0  0  0  0  0  0  0  0  0  # atno 10764 bound_to 10752
  154.8215  135.4648  154.0899 H   0  0  0  0  0  0  0  0  0  0  0  0  # atno 10765 bound_to 10752
  140.8096  133.8151  155.9550 H   0  0  0  0  0  0  0  0  0  0  0  0  # atno 11005 bound_to 11000
  145.8093  140.9734  143.0957 LP  0  0  0  0  0  0  0  0  0  0  0  0  # atno 17320 bound_to 7965
  144.6807  139.9900  143.7484 LP  0  0  0  0  0  0  0  0  0  0  0  0  # atno 17321 bound_to 7965
  140.7371  143.2761  151.3738 LP  0  0  0  0  0  0  0  0  0  0  0  0  # atno 17342 bound_to 10162
  139.6187  144.0950  152.2371 LP  0  0  0  0  0  0  0  0  0  0  0  0  # atno 17343 bound_to 10162
  157.3332  130.6995  149.6336 LP  0  0  0  0  0  0  0  0  0  0  0  0  # atno 17370 bound_to 10713
  155.9668  130.4301  150.4863 LP  0  0  0  0  0  0  0  0  0  0  0  0  # atno 17371 bound_to 10713
  140.9212  134.2140  157.4925 LP  0  0  0  0  0  0  0  0  0  0  0  0  # atno 17394 bound_to 11000
  139.8715  134.9793  156.5030 LP  0  0  0  0  0  0  0  0  0  0  0  0  # atno 17395 bound_to 11000

$$$$
