AV-unprocessed.smi:240|AV-procd|sdf|1833|dock6
  -GOLD-   2262020443D 1   1.00000     0.00000
 Structure written by MMmdl.
 55 59  0  0  0  0  0  0  0  0  1 V2000
  145.7442  128.2625  154.0477 O   0  0  0  0  0  0  0  0  0  0  0  0
  146.9470  128.5997  154.7086 C   0  0  1  0  0  0  0  0  0  0  0  0
  147.8294  127.3458  154.7220 C   0  0  0  0  0  0  0  0  0  0  0  0
  148.6031  127.3628  153.3917 C   0  0  0  0  0  0  0  0  0  0  0  0
  148.4496  128.7785  152.8108 C   0  0  0  0  0  0  0  0  0  0  0  0
  147.8158  129.6092  153.9364 C   0  0  1  0  0  0  0  0  0  0  0  0
  147.2123  131.0006  153.5479 C   0  0  2  0  0  0  0  0  0  0  0  0
  146.2691  130.9639  152.3148 C   0  0  0  0  0  0  0  0  0  0  0  0
  145.7974  132.2663  151.9911 O   0  0  0  0  0  0  0  0  0  0  0  0
  146.8584  133.1432  151.6471 C   0  0  0  0  0  0  0  0  0  0  0  0
  147.7640  133.3068  152.8710 C   0  0  0  0  0  0  0  0  0  0  0  0
  148.2610  132.0089  153.3144 N   0  0  0  0  0  0  0  0  0  0  0  0
  149.1871  132.1859  154.2852 C   0  0  0  0  0  0  0  0  0  0  0  0
  149.1278  133.2726  155.1001 N   0  0  0  0  0  0  0  0  0  0  0  0
  150.0508  133.4428  156.0515 C   0  0  0  0  0  0  0  0  0  0  0  0
  151.0978  132.6686  156.3474 N   0  0  0  0  0  0  0  0  0  0  0  0
  151.1639  131.5845  155.5216 C   0  0  0  0  0  0  0  0  0  0  0  0
  150.2553  131.2711  154.4733 C   0  0  0  0  0  0  0  0  0  0  0  0
  150.6319  130.0892  153.8498 N   0  0  0  0  0  0  0  0  0  0  0  0
  151.7059  129.7225  154.4947 C   0  0  0  0  0  0  0  0  0  0  0  0
  152.1029  130.5675  155.5079 N   0  0  0  0  0  0  0  0  0  0  0  0
  153.2561  130.4012  156.3803 C   0  0  0  0  0  0  0  0  0  0  0  0
  154.5001  129.8217  155.6639 C   0  0  2  0  0  0  0  0  0  0  0  0
  154.2970  128.4375  155.4418 O   0  0  0  0  0  0  0  0  0  0  0  0
  155.7826  130.0121  156.4770 C   0  0  0  0  0  0  0  0  0  0  0  0
  156.5417  131.0826  155.7027 C   0  0  0  0  0  0  0  0  0  0  0  0
  156.2126  130.7828  154.3583 O   0  0  0  0  0  0  0  0  0  0  0  0
  154.8190  130.5107  154.3214 C   0  0  0  0  0  0  0  0  0  0  0  0
  145.0372  128.7437  154.4500 H   0  0  0  0  0  0  0  0  0  0  0  0
  146.7145  128.9455  155.7164 H   0  0  0  0  0  0  0  0  0  0  0  0
  148.5404  127.4206  155.5461 H   0  0  0  0  0  0  0  0  0  0  0  0
  147.2659  126.4237  154.8715 H   0  0  0  0  0  0  0  0  0  0  0  0
  149.6518  127.1127  153.5559 H   0  0  0  0  0  0  0  0  0  0  0  0
  148.1982  126.6257  152.6974 H   0  0  0  0  0  0  0  0  0  0  0  0
  149.4043  129.1931  152.4855 H   0  0  0  0  0  0  0  0  0  0  0  0
  147.7978  128.7390  151.9390 H   0  0  0  0  0  0  0  0  0  0  0  0
  148.6280  129.8092  154.6358 H   0  0  0  0  0  0  0  0  0  0  0  0
  146.6168  131.3481  154.3937 H   0  0  0  0  0  0  0  0  0  0  0  0
  146.7604  130.5337  151.4420 H   0  0  0  0  0  0  0  0  0  0  0  0
  145.3834  130.3656  152.5132 H   0  0  0  0  0  0  0  0  0  0  0  0
  147.4151  132.7565  150.7920 H   0  0  0  0  0  0  0  0  0  0  0  0
  146.4439  134.1074  151.3532 H   0  0  0  0  0  0  0  0  0  0  0  0
  148.5979  133.9654  152.6231 H   0  0  0  0  0  0  0  0  0  0  0  0
  147.2081  133.7813  153.6812 H   0  0  0  0  0  0  0  0  0  0  0  0
  149.9354  134.3264  156.6617 H   0  0  0  0  0  0  0  0  0  0  0  0
  152.2453  128.8206  154.2441 H   0  0  0  0  0  0  0  0  0  0  0  0
  153.4977  131.3710  156.8173 H   0  0  0  0  0  0  0  0  0  0  0  0
  152.9640  129.7584  157.2118 H   0  0  0  0  0  0  0  0  0  0  0  0
  153.6167  128.1384  156.0258 H   0  0  0  0  0  0  0  0  0  0  0  0
  155.6033  130.2995  157.5137 H   0  0  0  0  0  0  0  0  0  0  0  0
  156.3780  129.0975  156.4907 H   0  0  0  0  0  0  0  0  0  0  0  0
  156.1830  132.0813  155.9582 H   0  0  0  0  0  0  0  0  0  0  0  0
  157.6175  131.0452  155.8744 H   0  0  0  0  0  0  0  0  0  0  0  0
  154.5517  129.9145  153.4478 H   0  0  0  0  0  0  0  0  0  0  0  0
  154.3023  131.4668  154.2362 H   0  0  0  0  0  0  0  0  0  0  0  0
  1  2  1  0  0  0  0
  1 29  1  0  0  0  0
  2  6  1  0  0  0  0
  2  3  1  0  0  0  0
  2 30  1  0  0  0  0
  3  4  1  0  0  0  0
  3 31  1  0  0  0  0
  3 32  1  0  0  0  0
  4  5  1  0  0  0  0
  4 33  1  0  0  0  0
  4 34  1  0  0  0  0
  5  6  1  0  0  0  0
  5 35  1  0  0  0  0
  5 36  1  0  0  0  0
  6  7  1  0  0  0  0
  6 37  1  0  0  0  0
  7 12  1  0  0  0  0
  7  8  1  0  0  0  0
  7 38  1  0  0  0  0
  8  9  1  0  0  0  0
  8 39  1  0  0  0  0
  8 40  1  0  0  0  0
  9 10  1  0  0  0  0
 10 11  1  0  0  0  0
 10 41  1  0  0  0  0
 10 42  1  0  0  0  0
 11 12  1  0  0  0  0
 11 43  1  0  0  0  0
 11 44  1  0  0  0  0
 12 13  1  0  0  0  0
 13 18  1  0  0  0  0
 13 14  2  0  0  0  0
 14 15  1  0  0  0  0
 15 16  2  0  0  0  0
 15 45  1  0  0  0  0
 16 17  1  0  0  0  0
 17 21  1  0  0  0  0
 17 18  2  0  0  0  0
 18 19  1  0  0  0  0
 19 20  2  0  0  0  0
 20 21  1  0  0  0  0
 20 46  1  0  0  0  0
 21 22  1  0  0  0  0
 22 23  1  0  0  0  0
 22 47  1  0  0  0  0
 22 48  1  0  0  0  0
 23 28  1  0  0  0  0
 23 24  1  0  0  0  0
 23 25  1  0  0  0  0
 24 49  1  0  0  0  0
 25 26  1  0  0  0  0
 25 50  1  0  0  0  0
 25 51  1  0  0  0  0
 26 27  1  0  0  0  0
 26 52  1  0  0  0  0
 26 53  1  0  0  0  0
 27 28  1  0  0  0  0
 28 54  1  0  0  0  0
 28 55  1  0  0  0  0
M  END
> <s_m_source_file>
AV-unprocessed.smi

> <i_m_source_file_index>
240

> <i_lp_mmshare_version>
43012

> <i_f3d_flags>
0

> <s_epik_input>
W09IXVtDQEBIXTFbQ0gyXVtDSDJdW0NIMl1bQ0BIXTFbQ0BASF0yW0NIMl1PW0NIMl1bQ0gyXU4yYyhuW2NIXW4zKWMoYzM0KW5bY0hdbjRbQ0gyXVtDQEBdNShbT0hdKVtDSDJdW0NIMl1PW0NIMl01

> <s_epik_cmdline>
J2VwaWtfcHl0aG9uJywgJy1waCcsICc3LjAnLCAnLXRuJywgJzgnLCAnLW1hJywgJzIwMCcsICctbWV0YWxfYmluZGluZycsICctaW1hZScsICc8aW5maWxlLm1hZT4nLCAnLW9tYWUnLCAnPG91dGZpbGUubWFlPic=

> <r_lp_tautomer_probability>
1

> <r_epik_Ionization_Penalty>
0.000130618

> <r_epik_Ionization_Penalty_Charging>
0

> <r_epik_Ionization_Penalty_Neutral>
0.000130618

> <r_epik_State_Penalty>
-0

> <r_epik_Charging_Adjusted_Penalty>
0

> <i_epik_Tot_Q>
0

> <i_epik_Tot_abs_Q>
0

> <r_epik_Metal_State_Penalty>
-0

> <b_epik_Metal_Only>
0

> <s_lp_Force_Field>
OPLS_2005

> <r_lp_Energy>
64.6726

> <b_lp_Chiralities_Consistent>
1

> <s_lp_Variant>
AV-unprocessed.smi:240-10

> <Gold.Version>
5.8.1

> <Gold.Id.Protein>
6NUR|6NUR_protein|mol2

> <Gold.PLP.Fitness>
36.9042

> <Gold.PLP.PLP>
-33.9919

> <Gold.PLP.part.hbond>
-1.0000

> <Gold.PLP.part.metal>
0.0000

> <Gold.PLP.part.buried>
-3.1846

> <Gold.PLP.part.nonpolar>
-29.3321

> <Gold.PLP.part.repulsive>
0.4069

> <Gold.PLP.ligand.clash>
0.0172

> <Gold.PLP.ligand.torsion>
1.3522

> <Gold.PLP.Chemscore.Hbond>
1.0000

> <Gold.PLP.Chemscore.CHOScore>
0.8014

> <Gold.PLP.Chemscore.Metal>
0.0000

> <Gold.Chemscore.Hbonds>
donor molecule, donor type, donor heavy atom, donor atom, acceptor molecule, acceptor atom, score
      L1  H     1    29       P1 10956  1.00
      L1  C    20    46       P1 10737  0.41

> <Gold.PLP.Chemscore.Internal.Correction>
0.2297

> <Gold.Rescore>
     Score         DG    S(hbond)    S(metal)    S(lipo)     H(rot)  DE(clash)    DE(int)     intcor
      3.87     -10.11       0.99        0.00      76.92       3.00       1.26       4.99       ----

> <Gold.Chemscore.Fitness>
3.8672

> <Gold.Chemscore.DG>
-10.1114

> <Gold.Chemscore.ZeroCoef>
-5.4800

> <Gold.Chemscore.Hbond>
0.9944

> <Gold.Chemscore.Metal>
0.0000

> <Gold.Chemscore.Lipo>
76.9242

> <Gold.Chemscore.Internal_Hbond>
0.0000

> <Gold.Chemscore.DEClash>
1.2555

> <Gold.Chemscore.DEInternal>
4.9887

> <Gold.Chemscore.Rot>
3.0039

> <Gold.Chemscore.Internal.Correction>
   9.000000E+99

> <Gold.Chemscore.Hbonds>
donor molecule, donor type, donor heavy atom, donor atom, acceptor molecule, acceptor atom, score
      L1  H     1    29       P1 10956  0.98

> <Gold.Chemscore.Hbond.Weighted>
-3.3212

> <Gold.Chemscore.Metal.Weighted>
-0.0000

> <Gold.Chemscore.Lipo.Weighted>
-9.0001

> <Gold.Chemscore.Internal_Hbond.Weighted>
0.0000

> <Gold.Chemscore.DEClash.Weighted>
1.2555

> <Gold.Chemscore.DEInternal.Weighted>
4.9887

> <Gold.Chemscore.Rot.Weighted>
7.6899

> <Gold.Chemscore.Internal.Correction.Weighted>
   9.000000E+99

> <Gold.Protein.RotatedTorsions>
[ 6907 6896 6895 6894 ] final -117.58 input  -60.11 | X-H torsion
[ 7974 7965 7964 7962 ] final  116.67 input  175.53 | X-H torsion
[ 8008 7997 7996 7995 ] final   10.93 input   59.86 | X-H torsion
[ 10167 10162 10161 10158 ] final -125.65 input  -65.29 | X-H torsion
[ 10718 10713 10712 10709 ] final   14.08 input   66.30 | X-H torsion
[ 10763 10752 10751 10750 ] final  136.16 input  -60.55 | X-H torsion
[ 11005 11000 10999 10996 ] final -165.83 input  -57.11 | X-H torsion

> <Gold.Protein.ActiveResidues>
 VAL166  LYS551  ARG553  GLY616  TRP617  ASP618  TYR619  PRO620  LYS621  CYS622 
 ASP623  PHE694  ASN695  SER759  ASP760  ASP761  ALA762  ILE779  LEU786  VAL792 
 PHE793  MET794  SER795  GLU796  ALA797  LYS798  CYS799  TRP800  GLU811  SER814 

> <Gold.Protein.RotatedAtoms>
  150.8149  133.8356  159.3165 H   0  0  0  0  0  0  0  0  0  0  0  0  # atno 6907 bound_to 6896
  151.6131  135.1037  160.0095 H   0  0  0  0  0  0  0  0  0  0  0  0  # atno 6908 bound_to 6896
  152.4240  133.7123  159.6543 H   0  0  0  0  0  0  0  0  0  0  0  0  # atno 6909 bound_to 6896
  145.1768  139.3071  143.4439 H   0  0  0  0  0  0  0  0  0  0  0  0  # atno 7974 bound_to 7965
  154.8001  140.2850  155.5928 H   0  0  0  0  0  0  0  0  0  0  0  0  # atno 8008 bound_to 7997
  156.2976  140.2588  156.2796 H   0  0  0  0  0  0  0  0  0  0  0  0  # atno 8009 bound_to 7997
  154.9568  140.0378  157.2160 H   0  0  0  0  0  0  0  0  0  0  0  0  # atno 8010 bound_to 7997
  139.9799  143.5754  152.2382 H   0  0  0  0  0  0  0  0  0  0  0  0  # atno 10167 bound_to 10162
  157.0339  130.6204  149.5740 H   0  0  0  0  0  0  0  0  0  0  0  0  # atno 10718 bound_to 10713
  153.8520  135.3078  155.3433 H   0  0  0  0  0  0  0  0  0  0  0  0  # atno 10763 bound_to 10752
  154.7887  135.4795  154.0006 H   0  0  0  0  0  0  0  0  0  0  0  0  # atno 10764 bound_to 10752
  153.1513  135.6843  153.8972 H   0  0  0  0  0  0  0  0  0  0  0  0  # atno 10765 bound_to 10752
  140.5713  134.5234  157.5162 H   0  0  0  0  0  0  0  0  0  0  0  0  # atno 11005 bound_to 11000
  146.3460  140.1933  142.8589 LP  0  0  0  0  0  0  0  0  0  0  0  0  # atno 17320 bound_to 7965
  145.0177  140.8767  143.5186 LP  0  0  0  0  0  0  0  0  0  0  0  0  # atno 17321 bound_to 7965
  139.6418  144.7655  151.2324 LP  0  0  0  0  0  0  0  0  0  0  0  0  # atno 17342 bound_to 10162
  140.7493  143.6305  150.8427 LP  0  0  0  0  0  0  0  0  0  0  0  0  # atno 17343 bound_to 10162
  156.0060  130.5147  150.7831 LP  0  0  0  0  0  0  0  0  0  0  0  0  # atno 17370 bound_to 10713
  157.5156  131.0928  151.0143 LP  0  0  0  0  0  0  0  0  0  0  0  0  # atno 17371 bound_to 10713
  139.9360  134.7874  156.0801 LP  0  0  0  0  0  0  0  0  0  0  0  0  # atno 17394 bound_to 11000
  141.1054  133.6662  156.2851 LP  0  0  0  0  0  0  0  0  0  0  0  0  # atno 17395 bound_to 11000

$$$$
