AV-unprocessed.smi:3169|AV-procd|sdf|12103|dock4
  -GOLD-   2272017543D 1   1.00000     0.00000
 Structure written by MMmdl.
 36 37  0  0  0  0  0  0  0  0  2 V2000
  145.8886  138.1083  154.3697 O   0  0  0  0  0  0  0  0  0  0  0  0
  146.7261  137.5778  153.6396 C   0  0  0  0  0  0  0  0  0  0  0  0
  146.4395  136.6233  152.7436 N   0  0  0  0  0  0  0  0  0  0  0  0
  145.1081  136.0775  152.5091 C   0  0  0  0  0  0  0  0  0  0  0  0
  144.9072  135.6940  151.0333 C   0  0  0  0  0  0  0  0  0  0  0  0
  145.2936  134.3061  150.7772 N   0  0  0  0  0  0  0  0  0  0  0  0
  144.5272  133.3179  150.2152 C   0  0  0  0  0  0  0  0  0  0  0  0
  145.3081  132.1912  150.1804 C   0  0  0  0  0  0  0  0  0  0  0  0
  146.5163  132.5396  150.7228 N   0  3  0  0  0  0  0  0  0  0  0  0
  146.5054  133.8266  151.0850 C   0  0  0  0  0  0  0  0  0  0  0  0
  148.0327  137.8745  153.6498 N   0  0  0  0  0  0  0  0  0  0  0  0
  148.6691  138.8568  154.5216 C   0  0  0  0  0  0  0  0  0  0  0  0
  150.1613  139.0345  154.1921 C   0  0  2  0  0  0  0  0  0  0  0  0
  151.0270  137.7912  154.4016 C   0  0  0  0  0  0  0  0  0  0  0  0
  152.3939  138.4042  154.5991 C   0  0  0  0  0  0  0  0  0  0  0  0
  152.0608  139.6517  155.4125 C   0  0  0  0  0  0  0  0  0  0  0  0
  150.7366  140.0260  155.0386 O   0  0  0  0  0  0  0  0  0  0  0  0
  147.1938  136.2484  152.1869 H   0  0  0  0  0  0  0  0  0  0  0  0
  144.9428  135.2149  153.1571 H   0  0  0  0  0  0  0  0  0  0  0  0
  144.3758  136.8305  152.8016 H   0  0  0  0  0  0  0  0  0  0  0  0
  143.8623  135.8117  150.7425 H   0  0  0  0  0  0  0  0  0  0  0  0
  145.4974  136.3337  150.3750 H   0  0  0  0  0  0  0  0  0  0  0  0
  143.5102  133.4853  149.8907 H   0  0  0  0  0  0  0  0  0  0  0  0
  145.0999  131.1943  149.8201 H   0  0  0  0  0  0  0  0  0  0  0  0
  147.3150  134.3710  151.5383 H   0  0  0  0  0  0  0  0  0  0  0  0
  148.6374  137.3807  153.0099 H   0  0  0  0  0  0  0  0  0  0  0  0
  148.1525  139.8060  154.3779 H   0  0  0  0  0  0  0  0  0  0  0  0
  148.5360  138.5948  155.5728 H   0  0  0  0  0  0  0  0  0  0  0  0
  150.2763  139.3817  153.1639 H   0  0  0  0  0  0  0  0  0  0  0  0
  150.7253  137.2587  155.3048 H   0  0  0  0  0  0  0  0  0  0  0  0
  150.9867  137.0957  153.5629 H   0  0  0  0  0  0  0  0  0  0  0  0
  153.0959  137.7399  155.1037 H   0  0  0  0  0  0  0  0  0  0  0  0
  152.8202  138.6855  153.6350 H   0  0  0  0  0  0  0  0  0  0  0  0
  152.0658  139.4239  156.4788 H   0  0  0  0  0  0  0  0  0  0  0  0
  152.7681  140.4622  155.2362 H   0  0  0  0  0  0  0  0  0  0  0  0
  147.3057  131.9156  150.8345 H   0  0  0  0  0  0  0  0  0  0  0  0
  1  2  2  0  0  0  0
  2  3  1  0  0  0  0
  2 11  1  0  0  0  0
  3  4  1  0  0  0  0
  3 18  1  0  0  0  0
  4  5  1  0  0  0  0
  4 19  1  0  0  0  0
  4 20  1  0  0  0  0
  5  6  1  0  0  0  0
  5 21  1  0  0  0  0
  5 22  1  0  0  0  0
  6 10  1  0  0  0  0
  6  7  1  0  0  0  0
  7  8  2  0  0  0  0
  7 23  1  0  0  0  0
  8  9  1  0  0  0  0
  8 24  1  0  0  0  0
  9 10  2  0  0  0  0
  9 36  1  0  0  0  0
 10 25  1  0  0  0  0
 11 12  1  0  0  0  0
 11 26  1  0  0  0  0
 12 13  1  0  0  0  0
 12 27  1  0  0  0  0
 12 28  1  0  0  0  0
 13 17  1  0  0  0  0
 13 14  1  0  0  0  0
 13 29  1  0  0  0  0
 14 15  1  0  0  0  0
 14 30  1  0  0  0  0
 14 31  1  0  0  0  0
 15 16  1  0  0  0  0
 15 32  1  0  0  0  0
 15 33  1  0  0  0  0
 16 17  1  0  0  0  0
 16 34  1  0  0  0  0
 16 35  1  0  0  0  0
M  CHG  1   9   1
M  END
> <s_m_source_file>
AV-unprocessed.smi

> <i_m_source_file_index>
3169

> <i_lp_mmshare_version>
43012

> <i_f3d_flags>
0

> <s_epik_input>
TzFbQ0gyXVtDSDJdW0NIMl1bQ0BIXTFbQ0gyXVtOSF1DKD1PKVtOSF1bQ0gyXVtDSDJdbjJbY0hdW2NIXW5bY0hdMg==

> <s_epik_cmdline>
J2VwaWtfcHl0aG9uJywgJy1waCcsICc3LjAnLCAnLXRuJywgJzgnLCAnLW1hJywgJzIwMCcsICctbWV0YWxfYmluZGluZycsICctaW1hZScsICc8aW5maWxlLm1hZT4nLCAnLW9tYWUnLCAnPG91dGZpbGUubWFlPic=

> <r_lp_tautomer_probability>
1

> <r_epik_Ionization_Penalty>
0.256136

> <r_epik_Ionization_Penalty_Charging>
0

> <r_epik_Ionization_Penalty_Neutral>
0.256136

> <r_epik_State_Penalty>
0.247629

> <r_epik_Charging_Adjusted_Penalty>
0.247629

> <i_epik_Tot_Q>
1

> <i_epik_Tot_abs_Q>
1

> <r_epik_Metal_State_Penalty>
0.537113

> <b_epik_Metal_Only>
0

> <s_lp_Force_Field>
OPLS_2005

> <r_lp_Energy>
17.2765

> <b_lp_Chiralities_Consistent>
1

> <s_lp_Variant>
AV-unprocessed.smi:3169-1

> <Gold.Version>
5.8.1

> <Gold.Id.Protein>
6NUR|6NUR_protein|mol2

> <Gold.PLP.Fitness>
46.6530

> <Gold.PLP.PLP>
-33.4978

> <Gold.PLP.part.hbond>
-3.9833

> <Gold.PLP.part.metal>
0.0000

> <Gold.PLP.part.buried>
-4.4236

> <Gold.PLP.part.nonpolar>
-25.9313

> <Gold.PLP.part.repulsive>
0.2457

> <Gold.PLP.ligand.clash>
0.0000

> <Gold.PLP.ligand.torsion>
0.4117

> <Gold.PLP.Chemscore.Hbond>
2.9875

> <Gold.PLP.Chemscore.CHOScore>
1.6640

> <Gold.PLP.Chemscore.Metal>
0.0000

> <Gold.Chemscore.Hbonds>
donor molecule, donor type, donor heavy atom, donor atom, acceptor molecule, acceptor atom, score
      L1  H     3    18       P1  7948  0.96
      L1  H     9    36       P1 10747  0.94
      L1  H    11    26       P1  7948  1.00
      P1  H  7989  7998       L1    17  0.11
      L1  C     7    23       P1 10186  0.59
      L1  C    10    25       P1  7948  1.00

> <Gold.PLP.Chemscore.Internal.Correction>
0.0239

> <Gold.Rescore>
     Score         DG    S(hbond)    S(metal)    S(lipo)     H(rot)  DE(clash)    DE(int)     intcor
     16.51     -16.95       2.91        0.00      65.92       2.33       0.01       0.43       ----

> <Gold.Chemscore.Fitness>
16.5150

> <Gold.Chemscore.DG>
-16.9503

> <Gold.Chemscore.ZeroCoef>
-5.4800

> <Gold.Chemscore.Hbond>
2.9100

> <Gold.Chemscore.Metal>
0.0000

> <Gold.Chemscore.Lipo>
65.9184

> <Gold.Chemscore.Internal_Hbond>
0.0000

> <Gold.Chemscore.DEClash>
0.0096

> <Gold.Chemscore.DEInternal>
0.4257

> <Gold.Chemscore.Rot>
2.3288

> <Gold.Chemscore.Internal.Correction>
   9.000000E+99

> <Gold.Chemscore.Hbonds>
donor molecule, donor type, donor heavy atom, donor atom, acceptor molecule, acceptor atom, score
      L1  H     3    18       P1  7948  0.92
      L1  H     9    36       P1 10747  0.89
      L1  H    11    26       P1  7948  0.98

> <Gold.Chemscore.Hbond.Weighted>
-9.7195

> <Gold.Chemscore.Metal.Weighted>
-0.0000

> <Gold.Chemscore.Lipo.Weighted>
-7.7124

> <Gold.Chemscore.Internal_Hbond.Weighted>
0.0000

> <Gold.Chemscore.DEClash.Weighted>
0.0096

> <Gold.Chemscore.DEInternal.Weighted>
0.4257

> <Gold.Chemscore.Rot.Weighted>
5.9617

> <Gold.Chemscore.Internal.Correction.Weighted>
   9.000000E+99

> <Gold.Protein.RotatedTorsions>
[ 6907 6896 6895 6894 ] final  -24.61 input  -60.11 | X-H torsion
[ 7974 7965 7964 7962 ] final -164.10 input  175.53 | X-H torsion
[ 8008 7997 7996 7995 ] final   63.63 input   59.86 | X-H torsion
[ 10167 10162 10161 10158 ] final   59.02 input  -65.29 | X-H torsion
[ 10718 10713 10712 10709 ] final  -54.43 input   66.30 | X-H torsion
[ 10763 10752 10751 10750 ] final   -2.09 input  -60.55 | X-H torsion
[ 11005 11000 10999 10996 ] final  -85.24 input  -57.11 | X-H torsion

> <Gold.Protein.ActiveResidues>
 VAL166  LYS551  ARG553  GLY616  TRP617  ASP618  TYR619  PRO620  LYS621  CYS622 
 ASP623  PHE694  ASN695  SER759  ASP760  ASP761  ALA762  ILE779  LEU786  VAL792 
 PHE793  MET794  SER795  GLU796  ALA797  LYS798  CYS799  TRP800  GLU811  SER814 

> <Gold.Protein.RotatedAtoms>
  151.1871  135.0386  159.8816 H   0  0  0  0  0  0  0  0  0  0  0  0  # atno 6907 bound_to 6896
  152.5441  134.0997  159.8323 H   0  0  0  0  0  0  0  0  0  0  0  0  # atno 6908 bound_to 6896
  151.1121  133.5118  159.2637 H   0  0  0  0  0  0  0  0  0  0  0  0  # atno 6909 bound_to 6896
  144.7306  140.3009  143.6204 H   0  0  0  0  0  0  0  0  0  0  0  0  # atno 7974 bound_to 7965
  155.6332  140.3496  155.4690 H   0  0  0  0  0  0  0  0  0  0  0  0  # atno 8008 bound_to 7997
  155.9986  140.1208  157.0593 H   0  0  0  0  0  0  0  0  0  0  0  0  # atno 8009 bound_to 7997
  154.4241  140.1105  156.5651 H   0  0  0  0  0  0  0  0  0  0  0  0  # atno 8010 bound_to 7997
  140.1809  144.4182  150.6615 H   0  0  0  0  0  0  0  0  0  0  0  0  # atno 10167 bound_to 10162
  156.1451  130.4153  150.0037 H   0  0  0  0  0  0  0  0  0  0  0  0  # atno 10718 bound_to 10713
  153.3535  135.6987  153.6770 H   0  0  0  0  0  0  0  0  0  0  0  0  # atno 10763 bound_to 10752
  153.5487  135.3558  155.2750 H   0  0  0  0  0  0  0  0  0  0  0  0  # atno 10764 bound_to 10752
  154.8657  135.4221  154.2775 H   0  0  0  0  0  0  0  0  0  0  0  0  # atno 10765 bound_to 10752
  141.1643  133.7389  156.8986 H   0  0  0  0  0  0  0  0  0  0  0  0  # atno 11005 bound_to 11000
  145.7761  139.1874  143.2184 LP  0  0  0  0  0  0  0  0  0  0  0  0  # atno 17320 bound_to 7965
  146.0872  140.7697  142.9613 LP  0  0  0  0  0  0  0  0  0  0  0  0  # atno 17321 bound_to 7965
  140.6520  143.2227  151.6056 LP  0  0  0  0  0  0  0  0  0  0  0  0  # atno 17342 bound_to 10162
  139.5296  144.2954  152.1117 LP  0  0  0  0  0  0  0  0  0  0  0  0  # atno 17343 bound_to 10162
  156.7911  130.9256  151.3646 LP  0  0  0  0  0  0  0  0  0  0  0  0  # atno 17370 bound_to 10713
  157.6610  130.8966  149.9829 LP  0  0  0  0  0  0  0  0  0  0  0  0  # atno 17371 bound_to 10713
  140.1598  134.9173  157.2700 LP  0  0  0  0  0  0  0  0  0  0  0  0  # atno 17394 bound_to 11000
  140.2624  134.3555  155.7402 LP  0  0  0  0  0  0  0  0  0  0  0  0  # atno 17395 bound_to 11000

$$$$
