AV-unprocessed.smi:2510|AV-procd|sdf|9870|dock6
  -GOLD-   2272013503D 1   1.00000     0.00000
 Structure written by MMmdl.
 48 49  0  0  0  0  0  0  0  0  1 V2000
  149.3051  142.9136  158.2565 C   0  0  0  0  0  0  0  0  0  0  0  0
  149.5370  141.3953  158.1788 C   0  0  0  0  0  0  0  0  0  0  0  0
  150.8810  140.9676  157.5334 C   0  0  0  0  0  0  0  0  0  0  0  0
  152.0028  141.8780  158.0935 C   0  0  0  0  0  0  0  0  0  0  0  0
  152.3170  141.7030  159.5894 C   0  0  0  0  0  0  0  0  0  0  0  0
  151.2343  139.4512  157.5705 C   0  0  1  0  0  0  0  0  0  0  0  0
  150.0586  138.5840  157.6456 N   0  0  0  0  0  0  0  0  0  0  0  0
  149.7298  137.8008  158.6832 C   0  0  0  0  0  0  0  0  0  0  0  0
  150.3525  137.7829  159.7446 O   0  0  0  0  0  0  0  0  0  0  0  0
  148.5193  136.8855  158.4838 C   0  0  0  0  0  0  0  0  0  0  0  0
  147.9925  136.4266  159.8190 C   0  0  0  0  0  0  0  0  0  0  0  0
  147.7683  135.0891  160.2612 C   0  0  0  0  0  0  0  0  0  0  0  0
  147.2436  135.2306  161.5147 C   0  0  0  0  0  0  0  0  0  0  0  0
  146.7761  134.2226  162.5084 C   0  0  0  0  0  0  0  0  0  0  0  0
  147.1927  136.5833  161.7598 N   0  0  0  0  0  0  0  0  0  0  0  0
  147.6510  137.3242  160.7343 N   0  0  0  0  0  0  0  0  0  0  0  0
  151.7729  139.5651  156.1316 C   0  0  1  0  0  0  0  0  0  0  0  0
  151.6510  138.4209  155.1258 C   0  0  0  0  0  0  0  0  0  0  0  0
  150.9047  140.8247  155.9824 C   0  0  1  0  0  0  0  0  0  0  0  0
  149.6446  140.4956  155.4074 O   0  0  0  0  0  0  0  0  0  0  0  0
  149.2096  141.4367  154.4415 C   0  0  0  0  0  0  0  0  0  0  0  0
  146.8509  137.0087  162.6099 H   0  0  0  0  0  0  0  0  0  0  0  0
  148.4052  143.1324  158.8313 H   0  0  0  0  0  0  0  0  0  0  0  0
  149.1693  143.3559  157.2702 H   0  0  0  0  0  0  0  0  0  0  0  0
  150.1367  143.4230  158.7436 H   0  0  0  0  0  0  0  0  0  0  0  0
  149.4693  141.0098  159.1960 H   0  0  0  0  0  0  0  0  0  0  0  0
  148.6937  140.9340  157.6674 H   0  0  0  0  0  0  0  0  0  0  0  0
  152.9209  141.7568  157.5198 H   0  0  0  0  0  0  0  0  0  0  0  0
  151.7364  142.9245  157.9459 H   0  0  0  0  0  0  0  0  0  0  0  0
  153.0245  142.4642  159.9186 H   0  0  0  0  0  0  0  0  0  0  0  0
  152.7711  140.7359  159.8016 H   0  0  0  0  0  0  0  0  0  0  0  0
  151.4239  141.8002  160.2059 H   0  0  0  0  0  0  0  0  0  0  0  0
  152.0069  139.2086  158.3024 H   0  0  0  0  0  0  0  0  0  0  0  0
  149.4870  138.5260  156.8148 H   0  0  0  0  0  0  0  0  0  0  0  0
  147.7432  137.4206  157.9356 H   0  0  0  0  0  0  0  0  0  0  0  0
  148.8129  136.0379  157.8631 H   0  0  0  0  0  0  0  0  0  0  0  0
  147.9489  134.1674  159.7281 H   0  0  0  0  0  0  0  0  0  0  0  0
  146.9600  133.2092  162.1509 H   0  0  0  0  0  0  0  0  0  0  0  0
  145.7061  134.3261  162.6900 H   0  0  0  0  0  0  0  0  0  0  0  0
  147.2957  134.3438  163.4591 H   0  0  0  0  0  0  0  0  0  0  0  0
  152.8180  139.8727  156.1886 H   0  0  0  0  0  0  0  0  0  0  0  0
  150.6151  138.1220  154.9669 H   0  0  0  0  0  0  0  0  0  0  0  0
  152.1973  137.5406  155.4644 H   0  0  0  0  0  0  0  0  0  0  0  0
  152.0568  138.7077  154.1559 H   0  0  0  0  0  0  0  0  0  0  0  0
  151.4288  141.6167  155.4455 H   0  0  0  0  0  0  0  0  0  0  0  0
  148.2254  141.1498  154.0718 H   0  0  0  0  0  0  0  0  0  0  0  0
  149.8924  141.4672  153.5917 H   0  0  0  0  0  0  0  0  0  0  0  0
  149.1328  142.4395  154.8616 H   0  0  0  0  0  0  0  0  0  0  0  0
  1  2  1  0  0  0  0
  1 23  1  0  0  0  0
  1 24  1  0  0  0  0
  1 25  1  0  0  0  0
  2  3  1  0  0  0  0
  2 26  1  0  0  0  0
  2 27  1  0  0  0  0
  3 19  1  0  0  0  0
  3  4  1  0  0  0  0
  3  6  1  0  0  0  0
  4  5  1  0  0  0  0
  4 28  1  0  0  0  0
  4 29  1  0  0  0  0
  5 30  1  0  0  0  0
  5 31  1  0  0  0  0
  5 32  1  0  0  0  0
  6  7  1  0  0  0  0
  6 17  1  0  0  0  0
  6 33  1  0  0  0  0
  7  8  1  0  0  0  0
  7 34  1  0  0  0  0
  8  9  2  0  0  0  0
  8 10  1  0  0  0  0
 10 11  1  0  0  0  0
 10 35  1  0  0  0  0
 10 36  1  0  0  0  0
 11 16  2  0  0  0  0
 11 12  1  0  0  0  0
 12 13  2  0  0  0  0
 12 37  1  0  0  0  0
 13 14  1  0  0  0  0
 13 15  1  0  0  0  0
 14 38  1  0  0  0  0
 14 39  1  0  0  0  0
 14 40  1  0  0  0  0
 15 22  1  0  0  0  0
 15 16  1  0  0  0  0
 17 18  1  0  0  0  0
 17 19  1  0  0  0  0
 17 41  1  0  0  0  0
 18 42  1  0  0  0  0
 18 43  1  0  0  0  0
 18 44  1  0  0  0  0
 19 20  1  0  0  0  0
 19 45  1  0  0  0  0
 20 21  1  0  0  0  0
 21 46  1  0  0  0  0
 21 47  1  0  0  0  0
 21 48  1  0  0  0  0
M  END
> <s_m_source_file>
AV-unprocessed.smi

> <i_m_source_file_index>
2510

> <i_lp_mmshare_version>
43012

> <i_f3d_flags>
0

> <s_epik_input>
W0NIM11PW0NAQEhdMVtDQEhdKFtDSDNdKVtDQEBIXShDMShbQ0gyXVtDSDNdKVtDSDJdW0NIM10pW05IXUMoPU8pW0NIMl1jMltjSF1jKFtDSDNdKVtuSF1uMg==

> <s_epik_cmdline>
J2VwaWtfcHl0aG9uJywgJy1waCcsICc3LjAnLCAnLXRuJywgJzgnLCAnLW1hJywgJzIwMCcsICctbWV0YWxfYmluZGluZycsICctaW1hZScsICc8aW5maWxlLm1hZT4nLCAnLW9tYWUnLCAnPG91dGZpbGUubWFlPic=

> <r_lp_tautomer_probability>
0.5

> <r_epik_Ionization_Penalty>
9.73156e-05

> <r_epik_Ionization_Penalty_Charging>
0

> <r_epik_Ionization_Penalty_Neutral>
9.73156e-05

> <r_epik_State_Penalty>
0.41068

> <r_epik_Charging_Adjusted_Penalty>
0.41068

> <i_epik_Tot_Q>
0

> <i_epik_Tot_abs_Q>
0

> <r_epik_Metal_State_Penalty>
0.410699

> <b_epik_Metal_Only>
0

> <s_lp_Force_Field>
OPLS_2005

> <r_lp_Energy>
26.8932

> <b_lp_Chiralities_Consistent>
1

> <s_lp_Variant>
AV-unprocessed.smi:2510-1

> <Gold.Version>
5.8.1

> <Gold.Id.Protein>
6NUR|6NUR_protein|mol2

> <Gold.PLP.Fitness>
39.3028

> <Gold.PLP.PLP>
-37.2331

> <Gold.PLP.part.hbond>
-3.0000

> <Gold.PLP.part.metal>
0.0000

> <Gold.PLP.part.buried>
-4.3131

> <Gold.PLP.part.nonpolar>
-29.6868

> <Gold.PLP.part.repulsive>
0.2798

> <Gold.PLP.ligand.clash>
0.0000

> <Gold.PLP.ligand.torsion>
1.4929

> <Gold.PLP.Chemscore.Hbond>
1.4464

> <Gold.PLP.Chemscore.CHOScore>
0.0000

> <Gold.PLP.Chemscore.Metal>
0.0000

> <Gold.Chemscore.Hbonds>
donor molecule, donor type, donor heavy atom, donor atom, acceptor molecule, acceptor atom, score
      P1  H  6931  6943       L1    16  0.49
      P1  H  6934  6947       L1    16  0.93

> <Gold.PLP.Chemscore.Internal.Correction>
0.7162

> <Gold.Rescore>
     Score         DG    S(hbond)    S(metal)    S(lipo)     H(rot)  DE(clash)    DE(int)     intcor
     14.04     -15.48       1.13        0.00      92.75       1.81       0.00       1.44       ----

> <Gold.Chemscore.Fitness>
14.0356

> <Gold.Chemscore.DG>
-15.4771

> <Gold.Chemscore.ZeroCoef>
-5.4800

> <Gold.Chemscore.Hbond>
1.1317

> <Gold.Chemscore.Metal>
0.0000

> <Gold.Chemscore.Lipo>
92.7462

> <Gold.Chemscore.Internal_Hbond>
0.0000

> <Gold.Chemscore.DEClash>
0.0029

> <Gold.Chemscore.DEInternal>
1.4386

> <Gold.Chemscore.Rot>
1.8102

> <Gold.Chemscore.Internal.Correction>
   9.000000E+99

> <Gold.Chemscore.Hbonds>
donor molecule, donor type, donor heavy atom, donor atom, acceptor molecule, acceptor atom, score
      P1  H  6931  6943       L1    16  0.04
      P1  H  6934  6947       L1    16  0.70

> <Gold.Chemscore.Hbond.Weighted>
-3.7799

> <Gold.Chemscore.Metal.Weighted>
-0.0000

> <Gold.Chemscore.Lipo.Weighted>
-10.8513

> <Gold.Chemscore.Internal_Hbond.Weighted>
0.0000

> <Gold.Chemscore.DEClash.Weighted>
0.0029

> <Gold.Chemscore.DEInternal.Weighted>
1.4386

> <Gold.Chemscore.Rot.Weighted>
4.6341

> <Gold.Chemscore.Internal.Correction.Weighted>
   9.000000E+99

> <Gold.Protein.RotatedTorsions>
[ 6907 6896 6895 6894 ] final  120.70 input  -60.11 | X-H torsion
[ 7974 7965 7964 7962 ] final -132.34 input  175.53 | X-H torsion
[ 8008 7997 7996 7995 ] final -114.02 input   59.86 | X-H torsion
[ 10167 10162 10161 10158 ] final   46.78 input  -65.29 | X-H torsion
[ 10718 10713 10712 10709 ] final   83.15 input   66.30 | X-H torsion
[ 10763 10752 10751 10750 ] final   29.34 input  -60.55 | X-H torsion
[ 11005 11000 10999 10996 ] final -170.39 input  -57.11 | X-H torsion

> <Gold.Protein.ActiveResidues>
 VAL166  LYS551  ARG553  GLY616  TRP617  ASP618  TYR619  PRO620  LYS621  CYS622 
 ASP623  PHE694  ASN695  SER759  ASP760  ASP761  ALA762  ILE779  LEU786  VAL792 
 PHE793  MET794  SER795  GLU796  ALA797  LYS798  CYS799  TRP800  GLU811  SER814 

> <Gold.Protein.RotatedAtoms>
  152.4378  133.7392  159.6631 H   0  0  0  0  0  0  0  0  0  0  0  0  # atno 6907 bound_to 6896
  150.8264  133.8154  159.3123 H   0  0  0  0  0  0  0  0  0  0  0  0  # atno 6908 bound_to 6896
  151.5821  135.1060  160.0071 H   0  0  0  0  0  0  0  0  0  0  0  0  # atno 6909 bound_to 6896
  144.9294  140.7110  143.4915 H   0  0  0  0  0  0  0  0  0  0  0  0  # atno 7974 bound_to 7965
  155.0298  140.0393  157.2469 H   0  0  0  0  0  0  0  0  0  0  0  0  # atno 8008 bound_to 7997
  154.7307  140.2730  155.6435 H   0  0  0  0  0  0  0  0  0  0  0  0  # atno 8009 bound_to 7997
  156.2840  140.2685  156.2006 H   0  0  0  0  0  0  0  0  0  0  0  0  # atno 8010 bound_to 7997
  140.3104  144.2827  150.6201 H   0  0  0  0  0  0  0  0  0  0  0  0  # atno 10167 bound_to 10162
  157.6873  131.0078  150.2480 H   0  0  0  0  0  0  0  0  0  0  0  0  # atno 10718 bound_to 10713
  153.0436  135.6491  154.0876 H   0  0  0  0  0  0  0  0  0  0  0  0  # atno 10763 bound_to 10752
  154.0577  135.2890  155.3331 H   0  0  0  0  0  0  0  0  0  0  0  0  # atno 10764 bound_to 10752
  154.6678  135.5367  153.8164 H   0  0  0  0  0  0  0  0  0  0  0  0  # atno 10765 bound_to 10752
  140.5201  134.5718  157.5045 H   0  0  0  0  0  0  0  0  0  0  0  0  # atno 11005 bound_to 11000
  145.3166  139.1801  143.4610 LP  0  0  0  0  0  0  0  0  0  0  0  0  # atno 17320 bound_to 7965
  146.3240  140.3178  142.8631 LP  0  0  0  0  0  0  0  0  0  0  0  0  # atno 17321 bound_to 7965
  140.5573  143.2197  151.7826 LP  0  0  0  0  0  0  0  0  0  0  0  0  # atno 17342 bound_to 10162
  139.4895  144.4397  151.9779 LP  0  0  0  0  0  0  0  0  0  0  0  0  # atno 17343 bound_to 10162
  156.3082  130.3768  149.7686 LP  0  0  0  0  0  0  0  0  0  0  0  0  # atno 17370 bound_to 10713
  156.5295  130.8251  151.3232 LP  0  0  0  0  0  0  0  0  0  0  0  0  # atno 17371 bound_to 10713
  139.9611  134.7452  156.0236 LP  0  0  0  0  0  0  0  0  0  0  0  0  # atno 17394 bound_to 11000
  141.1339  133.6580  156.3539 LP  0  0  0  0  0  0  0  0  0  0  0  0  # atno 17395 bound_to 11000

$$$$
