AV-unprocessed.smi:1768|AV-procd|sdf|7144|dock1
  -GOLD-   22720 8383D 1   1.00000     0.00000
 Structure written by MMmdl.
 33 34  0  0  0  0  0  0  0  0  1 V2000
  150.7111  124.9034  149.6429 C   0  0  0  0  0  0  0  0  0  0  0  0
  149.9462  126.0058  150.2918 C   0  0  0  0  0  0  0  0  0  0  0  0
  149.2306  125.8332  151.4099 N   0  0  0  0  0  0  0  0  0  0  0  0
  148.6117  127.0041  151.8241 N   0  0  0  0  0  0  0  0  0  0  0  0
  148.8801  128.0287  151.0032 C   0  0  0  0  0  0  0  0  0  0  0  0
  148.3812  129.3441  151.1934 N   0  0  0  0  0  0  0  0  0  0  0  0
  147.4535  129.7646  152.0709 C   0  0  0  0  0  0  0  0  0  0  0  0
  146.8492  129.0445  152.8659 O   0  0  0  0  0  0  0  0  0  0  0  0
  147.2632  131.0881  151.9715 N   0  0  0  0  0  0  0  0  0  0  0  0
  146.3183  131.8782  152.7580 C   0  0  1  0  0  0  0  0  0  0  0  0
  147.1022  132.9263  153.5631 C   0  0  0  0  0  0  0  0  0  0  0  0
  145.2754  132.5115  151.8164 C   0  0  2  0  0  0  0  0  0  0  0  0
  145.8267  133.6023  150.8960 C   0  0  0  0  0  0  0  0  0  0  0  0
  144.5870  134.4164  150.6065 C   0  0  0  0  0  0  0  0  0  0  0  0
  143.8822  134.3936  151.9583 C   0  0  0  0  0  0  0  0  0  0  0  0
  144.2521  133.1611  152.5702 O   0  0  0  0  0  0  0  0  0  0  0  0
  149.9182  127.6405  149.6421 S   0  0  0  0  0  0  0  0  0  0  0  0
  150.5839  123.9702  150.1927 H   0  0  0  0  0  0  0  0  0  0  0  0
  151.7719  125.1524  149.6173 H   0  0  0  0  0  0  0  0  0  0  0  0
  150.3604  124.7582  148.6212 H   0  0  0  0  0  0  0  0  0  0  0  0
  148.7858  130.0507  150.5971 H   0  0  0  0  0  0  0  0  0  0  0  0
  147.8057  131.5914  151.2851 H   0  0  0  0  0  0  0  0  0  0  0  0
  145.7905  131.2394  153.4684 H   0  0  0  0  0  0  0  0  0  0  0  0
  146.4419  133.5128  154.2019 H   0  0  0  0  0  0  0  0  0  0  0  0
  147.6324  133.6173  152.9069 H   0  0  0  0  0  0  0  0  0  0  0  0
  147.8392  132.4498  154.2104 H   0  0  0  0  0  0  0  0  0  0  0  0
  144.7971  131.7411  151.2087 H   0  0  0  0  0  0  0  0  0  0  0  0
  146.5598  134.2166  151.4210 H   0  0  0  0  0  0  0  0  0  0  0  0
  146.2945  133.2042  149.9952 H   0  0  0  0  0  0  0  0  0  0  0  0
  144.8054  135.4254  150.2556 H   0  0  0  0  0  0  0  0  0  0  0  0
  143.9765  133.9151  149.8543 H   0  0  0  0  0  0  0  0  0  0  0  0
  144.2370  135.2112  152.5870 H   0  0  0  0  0  0  0  0  0  0  0  0
  142.7997  134.4836  151.8648 H   0  0  0  0  0  0  0  0  0  0  0  0
  1  2  1  0  0  0  0
  1 18  1  0  0  0  0
  1 19  1  0  0  0  0
  1 20  1  0  0  0  0
  2 17  1  0  0  0  0
  2  3  2  0  0  0  0
  3  4  1  0  0  0  0
  4  5  2  0  0  0  0
  5  6  1  0  0  0  0
  5 17  1  0  0  0  0
  6  7  1  0  0  0  0
  6 21  1  0  0  0  0
  7  8  2  0  0  0  0
  7  9  1  0  0  0  0
  9 10  1  0  0  0  0
  9 22  1  0  0  0  0
 10 11  1  0  0  0  0
 10 12  1  0  0  0  0
 10 23  1  0  0  0  0
 11 24  1  0  0  0  0
 11 25  1  0  0  0  0
 11 26  1  0  0  0  0
 12 16  1  0  0  0  0
 12 13  1  0  0  0  0
 12 27  1  0  0  0  0
 13 14  1  0  0  0  0
 13 28  1  0  0  0  0
 13 29  1  0  0  0  0
 14 15  1  0  0  0  0
 14 30  1  0  0  0  0
 14 31  1  0  0  0  0
 15 16  1  0  0  0  0
 15 32  1  0  0  0  0
 15 33  1  0  0  0  0
M  END
> <s_m_source_file>
AV-unprocessed.smi

> <i_m_source_file_index>
1768

> <i_lp_mmshare_version>
43012

> <i_f3d_flags>
0

> <s_epik_input>
W0NIM11jMW5uYyhzMSlbTkhdQyg9TylbTkhdW0NASF0oW0NIM10pW0NAQEhdMltDSDJdW0NIMl1bQ0gyXU8y

> <s_epik_cmdline>
J2VwaWtfcHl0aG9uJywgJy1waCcsICc3LjAnLCAnLXRuJywgJzgnLCAnLW1hJywgJzIwMCcsICctbWV0YWxfYmluZGluZycsICctaW1hZScsICc8aW5maWxlLm1hZT4nLCAnLW9tYWUnLCAnPG91dGZpbGUubWFlPic=

> <r_lp_tautomer_probability>
1

> <r_epik_Ionization_Penalty>
0.000523083

> <r_epik_Ionization_Penalty_Charging>
0

> <r_epik_Ionization_Penalty_Neutral>
0.000523083

> <r_epik_State_Penalty>
-0

> <r_epik_Charging_Adjusted_Penalty>
0

> <i_epik_Tot_Q>
0

> <i_epik_Tot_abs_Q>
0

> <r_epik_Metal_State_Penalty>
0.223408

> <b_epik_Metal_Only>
0

> <s_lp_Force_Field>
OPLS_2005

> <r_lp_Energy>
16.97

> <b_lp_Chiralities_Consistent>
1

> <s_lp_Variant>
AV-unprocessed.smi:1768-2

> <Gold.Version>
5.8.1

> <Gold.Id.Protein>
6NUR|6NUR_protein|mol2

> <Gold.PLP.Fitness>
34.9411

> <Gold.PLP.PLP>
-29.4212

> <Gold.PLP.part.hbond>
-3.4562

> <Gold.PLP.part.metal>
0.0000

> <Gold.PLP.part.buried>
-4.0529

> <Gold.PLP.part.nonpolar>
-21.6382

> <Gold.PLP.part.repulsive>
0.3717

> <Gold.PLP.ligand.clash>
0.0000

> <Gold.PLP.ligand.torsion>
0.0791

> <Gold.PLP.Chemscore.Hbond>
1.8880

> <Gold.PLP.Chemscore.CHOScore>
0.0000

> <Gold.PLP.Chemscore.Metal>
0.0000

> <Gold.Chemscore.Hbonds>
donor molecule, donor type, donor heavy atom, donor atom, acceptor molecule, acceptor atom, score
      L1  H     9    22       P1 10747  0.48

> <Gold.PLP.Chemscore.Internal.Correction>
0.0141

> <Gold.Rescore>
     Score         DG    S(hbond)    S(metal)    S(lipo)     H(rot)  DE(clash)    DE(int)     intcor
     11.08     -12.89       1.38        0.00      52.25       1.29       0.17       1.65       ----

> <Gold.Chemscore.Fitness>
11.0805

> <Gold.Chemscore.DG>
-12.8922

> <Gold.Chemscore.ZeroCoef>
-5.4800

> <Gold.Chemscore.Hbond>
1.3789

> <Gold.Chemscore.Metal>
0.0000

> <Gold.Chemscore.Lipo>
52.2538

> <Gold.Chemscore.Internal_Hbond>
0.0000

> <Gold.Chemscore.DEClash>
0.1664

> <Gold.Chemscore.DEInternal>
1.6454

> <Gold.Chemscore.Rot>
1.2919

> <Gold.Chemscore.Internal.Correction>
   9.000000E+99

> <Gold.Chemscore.Hbonds>
donor molecule, donor type, donor heavy atom, donor atom, acceptor molecule, acceptor atom, score
      L1  H     9    22       P1 10747  0.48

> <Gold.Chemscore.Hbond.Weighted>
-4.6056

> <Gold.Chemscore.Metal.Weighted>
-0.0000

> <Gold.Chemscore.Lipo.Weighted>
-6.1137

> <Gold.Chemscore.Internal_Hbond.Weighted>
0.0000

> <Gold.Chemscore.DEClash.Weighted>
0.1664

> <Gold.Chemscore.DEInternal.Weighted>
1.6454

> <Gold.Chemscore.Rot.Weighted>
3.3072

> <Gold.Chemscore.Internal.Correction.Weighted>
   9.000000E+99

> <Gold.Protein.RotatedTorsions>
[ 6907 6896 6895 6894 ] final   99.22 input  -60.11 | X-H torsion
[ 7974 7965 7964 7962 ] final  145.51 input  175.53 | X-H torsion
[ 8008 7997 7996 7995 ] final  143.45 input   59.86 | X-H torsion
[ 10167 10162 10161 10158 ] final   94.86 input  -65.29 | X-H torsion
[ 10718 10713 10712 10709 ] final  -69.70 input   66.30 | X-H torsion
[ 10763 10752 10751 10750 ] final   61.59 input  -60.55 | X-H torsion
[ 11005 11000 10999 10996 ] final -157.80 input  -57.11 | X-H torsion

> <Gold.Protein.ActiveResidues>
 VAL166  LYS551  ARG553  GLY616  TRP617  ASP618  TYR619  PRO620  LYS621  CYS622 
 ASP623  PHE694  ASN695  SER759  ASP760  ASP761  ALA762  ILE779  LEU786  VAL792 
 PHE793  MET794  SER795  GLU796  ALA797  LYS798  CYS799  TRP800  GLU811  SER814 

> <Gold.Protein.RotatedAtoms>
  152.5396  134.0462  159.8089 H   0  0  0  0  0  0  0  0  0  0  0  0  # atno 6907 bound_to 6896
  151.0610  133.5536  159.2641 H   0  0  0  0  0  0  0  0  0  0  0  0  # atno 6908 bound_to 6896
  151.2435  135.0605  159.9088 H   0  0  0  0  0  0  0  0  0  0  0  0  # atno 6909 bound_to 6896
  144.8746  139.5792  143.5871 H   0  0  0  0  0  0  0  0  0  0  0  0  # atno 7974 bound_to 7965
  156.2930  140.2262  156.4893 H   0  0  0  0  0  0  0  0  0  0  0  0  # atno 8008 bound_to 7997
  154.7785  140.0462  157.1129 H   0  0  0  0  0  0  0  0  0  0  0  0  # atno 8009 bound_to 7997
  154.9787  140.3075  155.4959 H   0  0  0  0  0  0  0  0  0  0  0  0  # atno 8010 bound_to 7997
  139.8044  144.6800  150.9723 H   0  0  0  0  0  0  0  0  0  0  0  0  # atno 10167 bound_to 10162
  156.0443  130.4317  150.2186 H   0  0  0  0  0  0  0  0  0  0  0  0  # atno 10718 bound_to 10713
  152.9955  135.5495  154.6057 H   0  0  0  0  0  0  0  0  0  0  0  0  # atno 10763 bound_to 10752
  154.5389  135.2818  155.1115 H   0  0  0  0  0  0  0  0  0  0  0  0  # atno 10764 bound_to 10752
  154.2401  135.6418  153.5257 H   0  0  0  0  0  0  0  0  0  0  0  0  # atno 10765 bound_to 10752
  140.6606  134.4353  157.5234 H   0  0  0  0  0  0  0  0  0  0  0  0  # atno 11005 bound_to 11000
  146.2954  139.7262  142.9130 LP  0  0  0  0  0  0  0  0  0  0  0  0  # atno 17320 bound_to 7965
  145.4066  141.0391  143.3041 LP  0  0  0  0  0  0  0  0  0  0  0  0  # atno 17321 bound_to 7965
  140.7819  143.4249  151.0784 LP  0  0  0  0  0  0  0  0  0  0  0  0  # atno 17342 bound_to 10162
  139.7919  143.8207  152.3153 LP  0  0  0  0  0  0  0  0  0  0  0  0  # atno 17343 bound_to 10162
  157.0278  130.9998  151.3321 LP  0  0  0  0  0  0  0  0  0  0  0  0  # atno 17370 bound_to 10713
  157.5299  130.8052  149.7905 LP  0  0  0  0  0  0  0  0  0  0  0  0  # atno 17371 bound_to 10713
  139.9014  134.8547  156.1880 LP  0  0  0  0  0  0  0  0  0  0  0  0  # atno 17394 bound_to 11000
  141.0468  133.6909  156.1697 LP  0  0  0  0  0  0  0  0  0  0  0  0  # atno 17395 bound_to 11000

$$$$
