AV-unprocessed.smi:2465|AV-procd|sdf|9723|dock4
  -GOLD-   2272013363D 1   1.00000     0.00000
 Structure written by MMmdl.
 41 42  0  0  0  0  0  0  0  0  2 V2000
  147.4710  133.3428  151.9955 C   0  0  0  0  0  0  0  0  0  0  0  0
  146.0691  133.5408  151.4445 C   0  0  0  0  0  0  0  0  0  0  0  0
  145.3127  132.4148  151.0500 C   0  0  0  0  0  0  0  0  0  0  0  0
  144.0147  132.5982  150.5364 C   0  0  0  0  0  0  0  0  0  0  0  0
  143.5104  133.8440  150.4223 N   0  3  0  0  0  0  0  0  0  0  0  0
  144.1947  134.9496  150.7861 C   0  0  0  0  0  0  0  0  0  0  0  0
  145.5033  134.8364  151.3220 C   0  0  0  0  0  0  0  0  0  0  0  0
  146.2874  135.9594  151.7160 N   0  0  0  0  0  0  0  0  0  0  0  0
  145.9002  137.0961  152.3209 C   0  0  0  0  0  0  0  0  0  0  0  0
  144.7471  137.3733  152.6494 O   0  0  0  0  0  0  0  0  0  0  0  0
  146.9453  137.9068  152.5401 N   0  0  0  0  0  0  0  0  0  0  0  0
  146.8717  139.2196  153.1714 C   0  0  0  0  0  0  0  0  0  0  0  0
  148.2331  139.6629  153.7309 C   0  0  0  0  0  0  0  0  0  0  0  0
  148.9606  138.5233  154.4632 C   0  0  0  0  0  0  0  0  0  0  0  0
  150.3439  138.8757  154.7719 N   0  0  0  0  0  0  0  0  0  0  0  0
  150.6806  140.2100  155.2396 C   0  0  0  0  0  0  0  0  0  0  0  0
  152.1637  140.1341  155.6300 C   0  0  0  0  0  0  0  0  0  0  0  0
  152.6854  138.8217  155.0348 C   0  0  0  0  0  0  0  0  0  0  0  0
  151.4177  138.0902  154.6272 C   0  0  0  0  0  0  0  0  0  0  0  0
  151.4186  136.9293  154.2203 O   0  0  0  0  0  0  0  0  0  0  0  0
  147.7480  132.2881  152.0106 H   0  0  0  0  0  0  0  0  0  0  0  0
  147.5366  133.7230  153.0155 H   0  0  0  0  0  0  0  0  0  0  0  0
  148.1999  133.8724  151.3816 H   0  0  0  0  0  0  0  0  0  0  0  0
  145.7207  131.4181  151.1374 H   0  0  0  0  0  0  0  0  0  0  0  0
  143.3715  131.7934  150.2112 H   0  0  0  0  0  0  0  0  0  0  0  0
  143.6646  135.8746  150.6202 H   0  0  0  0  0  0  0  0  0  0  0  0
  147.2803  135.8641  151.5607 H   0  0  0  0  0  0  0  0  0  0  0  0
  147.8598  137.5990  152.2428 H   0  0  0  0  0  0  0  0  0  0  0  0
  146.5288  139.9339  152.4221 H   0  0  0  0  0  0  0  0  0  0  0  0
  146.1182  139.2118  153.9609 H   0  0  0  0  0  0  0  0  0  0  0  0
  148.8631  140.0270  152.9181 H   0  0  0  0  0  0  0  0  0  0  0  0
  148.0891  140.5042  154.4104 H   0  0  0  0  0  0  0  0  0  0  0  0
  148.4362  138.2737  155.3869 H   0  0  0  0  0  0  0  0  0  0  0  0
  148.9482  137.6209  153.8504 H   0  0  0  0  0  0  0  0  0  0  0  0
  150.5247  140.9258  154.4314 H   0  0  0  0  0  0  0  0  0  0  0  0
  150.0550  140.5043  156.0834 H   0  0  0  0  0  0  0  0  0  0  0  0
  152.7209  140.9977  155.2656 H   0  0  0  0  0  0  0  0  0  0  0  0
  152.2642  140.1141  156.7160 H   0  0  0  0  0  0  0  0  0  0  0  0
  153.3013  139.0005  154.1528 H   0  0  0  0  0  0  0  0  0  0  0  0
  153.2643  138.2439  155.7559 H   0  0  0  0  0  0  0  0  0  0  0  0
  142.5705  133.9570  150.0415 H   0  0  0  0  0  0  0  0  0  0  0  0
  1  2  1  0  0  0  0
  1 21  1  0  0  0  0
  1 22  1  0  0  0  0
  1 23  1  0  0  0  0
  2  7  1  0  0  0  0
  2  3  2  0  0  0  0
  3  4  1  0  0  0  0
  3 24  1  0  0  0  0
  4  5  2  0  0  0  0
  4 25  1  0  0  0  0
  5  6  1  0  0  0  0
  5 41  1  0  0  0  0
  6  7  2  0  0  0  0
  6 26  1  0  0  0  0
  7  8  1  0  0  0  0
  8  9  1  0  0  0  0
  8 27  1  0  0  0  0
  9 10  2  0  0  0  0
  9 11  1  0  0  0  0
 11 12  1  0  0  0  0
 11 28  1  0  0  0  0
 12 13  1  0  0  0  0
 12 29  1  0  0  0  0
 12 30  1  0  0  0  0
 13 14  1  0  0  0  0
 13 31  1  0  0  0  0
 13 32  1  0  0  0  0
 14 15  1  0  0  0  0
 14 33  1  0  0  0  0
 14 34  1  0  0  0  0
 15 19  1  0  0  0  0
 15 16  1  0  0  0  0
 16 17  1  0  0  0  0
 16 35  1  0  0  0  0
 16 36  1  0  0  0  0
 17 18  1  0  0  0  0
 17 37  1  0  0  0  0
 17 38  1  0  0  0  0
 18 19  1  0  0  0  0
 18 39  1  0  0  0  0
 18 40  1  0  0  0  0
 19 20  2  0  0  0  0
M  CHG  1   5   1
M  END
> <s_m_source_file>
AV-unprocessed.smi

> <i_m_source_file_index>
2465

> <i_lp_mmshare_version>
43012

> <i_f3d_flags>
0

> <s_epik_input>
W0NIM11jMVtjSF1bY0hdbltjSF1jMVtOSF1DKD1PKVtOSF1bQ0gyXVtDSDJdW0NIMl1OMltDSDJdW0NIMl1bQ0gyXUMyPU8=

> <s_epik_cmdline>
J2VwaWtfcHl0aG9uJywgJy1waCcsICc3LjAnLCAnLXRuJywgJzgnLCAnLW1hJywgJzIwMCcsICctbWV0YWxfYmluZGluZycsICctaW1hZScsICc8aW5maWxlLm1hZT4nLCAnLW9tYWUnLCAnPG91dGZpbGUubWFlPic=

> <r_epik_Ionization_Penalty>
1.98477

> <r_epik_Ionization_Penalty_Charging>
1.98474

> <r_epik_Ionization_Penalty_Neutral>
2.19328e-05

> <r_epik_State_Penalty>
2.1123

> <r_epik_Charging_Adjusted_Penalty>
4.09705

> <i_epik_Tot_Q>
1

> <i_epik_Tot_abs_Q>
1

> <r_epik_Metal_State_Penalty>
2.13405

> <b_epik_Metal_Only>
0

> <s_lp_Force_Field>
OPLS_2005

> <r_lp_Energy>
26.0932

> <b_lp_Chiralities_Consistent>
1

> <s_lp_Variant>
AV-unprocessed.smi:2465-2

> <Gold.Version>
5.8.1

> <Gold.Id.Protein>
6NUR|6NUR_protein|mol2

> <Gold.PLP.Fitness>
53.3959

> <Gold.PLP.PLP>
-39.8527

> <Gold.PLP.part.hbond>
-4.0000

> <Gold.PLP.part.metal>
0.0000

> <Gold.PLP.part.buried>
-4.4265

> <Gold.PLP.part.nonpolar>
-33.4781

> <Gold.PLP.part.repulsive>
1.5505

> <Gold.PLP.ligand.clash>
0.0000

> <Gold.PLP.ligand.torsion>
0.7618

> <Gold.PLP.Chemscore.Hbond>
5.0000

> <Gold.PLP.Chemscore.CHOScore>
0.0000

> <Gold.PLP.Chemscore.Metal>
0.0000

> <Gold.Chemscore.Hbonds>
donor molecule, donor type, donor heavy atom, donor atom, acceptor molecule, acceptor atom, score
      L1  H     5    41       P1 10186  2.00
      L1  H     8    27       P1  7948  1.00
      L1  H    11    28       P1  7948  0.98
      P1  H 10752 10764       L1    20  1.00

> <Gold.PLP.Chemscore.Internal.Correction>
0.0668

> <Gold.Rescore>
     Score         DG    S(hbond)    S(metal)    S(lipo)     H(rot)  DE(clash)    DE(int)     intcor
     21.62     -22.51       3.81        0.00      75.74       1.78       0.24       0.65       ----

> <Gold.Chemscore.Fitness>
21.6240

> <Gold.Chemscore.DG>
-22.5141

> <Gold.Chemscore.ZeroCoef>
-5.4800

> <Gold.Chemscore.Hbond>
3.8143

> <Gold.Chemscore.Metal>
0.0000

> <Gold.Chemscore.Lipo>
75.7416

> <Gold.Chemscore.Internal_Hbond>
0.0000

> <Gold.Chemscore.DEClash>
0.2371

> <Gold.Chemscore.DEInternal>
0.6530

> <Gold.Chemscore.Rot>
1.7841

> <Gold.Chemscore.Internal.Correction>
   9.000000E+99

> <Gold.Chemscore.Hbonds>
donor molecule, donor type, donor heavy atom, donor atom, acceptor molecule, acceptor atom, score
      L1  H     5    41       P1 10186  1.00
      L1  H     8    27       P1  7948  0.98
      L1  H    11    28       P1  7948  0.93
      P1  H 10752 10764       L1    20  0.97

> <Gold.Chemscore.Hbond.Weighted>
-12.7396

> <Gold.Chemscore.Metal.Weighted>
-0.0000

> <Gold.Chemscore.Lipo.Weighted>
-8.8618

> <Gold.Chemscore.Internal_Hbond.Weighted>
0.0000

> <Gold.Chemscore.DEClash.Weighted>
0.2371

> <Gold.Chemscore.DEInternal.Weighted>
0.6530

> <Gold.Chemscore.Rot.Weighted>
4.5673

> <Gold.Chemscore.Internal.Correction.Weighted>
   9.000000E+99

> <Gold.Protein.RotatedTorsions>
[ 6907 6896 6895 6894 ] final -104.56 input  -60.11 | X-H torsion
[ 7974 7965 7964 7962 ] final  -41.72 input  175.53 | X-H torsion
[ 8008 7997 7996 7995 ] final  162.14 input   59.86 | X-H torsion
[ 10167 10162 10161 10158 ] final -125.03 input  -65.29 | X-H torsion
[ 10718 10713 10712 10709 ] final   38.37 input   66.30 | X-H torsion
[ 10763 10752 10751 10750 ] final  -83.11 input  -60.55 | X-H torsion
[ 11005 11000 10999 10996 ] final   85.88 input  -57.11 | X-H torsion

> <Gold.Protein.ActiveResidues>
 VAL166  LYS551  ARG553  GLY616  TRP617  ASP618  TYR619  PRO620  LYS621  CYS622 
 ASP623  PHE694  ASN695  SER759  ASP760  ASP761  ALA762  ILE779  LEU786  VAL792 
 PHE793  MET794  SER795  GLU796  ALA797  LYS798  CYS799  TRP800  GLU811  SER814 

> <Gold.Protein.RotatedAtoms>
  150.7293  134.0259  159.3716 H   0  0  0  0  0  0  0  0  0  0  0  0  # atno 6907 bound_to 6896
  151.8226  135.0645  160.0436 H   0  0  0  0  0  0  0  0  0  0  0  0  # atno 6908 bound_to 6896
  152.2992  133.5602  159.5644 H   0  0  0  0  0  0  0  0  0  0  0  0  # atno 6909 bound_to 6896
  146.0184  140.6880  142.9190 H   0  0  0  0  0  0  0  0  0  0  0  0  # atno 7974 bound_to 7965
  156.2053  140.1758  156.7814 H   0  0  0  0  0  0  0  0  0  0  0  0  # atno 8008 bound_to 7997
  154.5646  140.0693  156.8902 H   0  0  0  0  0  0  0  0  0  0  0  0  # atno 8009 bound_to 7997
  155.2785  140.3347  155.4262 H   0  0  0  0  0  0  0  0  0  0  0  0  # atno 8010 bound_to 7997
  139.9865  143.5687  152.2358 H   0  0  0  0  0  0  0  0  0  0  0  0  # atno 10167 bound_to 10162
  157.3580  130.7634  149.7026 H   0  0  0  0  0  0  0  0  0  0  0  0  # atno 10718 bound_to 10713
  154.5838  135.5567  153.7211 H   0  0  0  0  0  0  0  0  0  0  0  0  # atno 10763 bound_to 10752
  153.0091  135.6326  154.1944 H   0  0  0  0  0  0  0  0  0  0  0  0  # atno 10764 bound_to 10752
  154.1885  135.2883  155.3009 H   0  0  0  0  0  0  0  0  0  0  0  0  # atno 10765 bound_to 10752
  139.8959  134.8317  156.2643 H   0  0  0  0  0  0  0  0  0  0  0  0  # atno 11005 bound_to 11000
  144.6980  140.3522  143.7179 LP  0  0  0  0  0  0  0  0  0  0  0  0  # atno 17320 bound_to 7965
  145.7232  139.1715  143.2472 LP  0  0  0  0  0  0  0  0  0  0  0  0  # atno 17321 bound_to 7965
  139.6371  144.7651  151.2414 LP  0  0  0  0  0  0  0  0  0  0  0  0  # atno 17342 bound_to 10162
  140.7470  143.6379  150.8362 LP  0  0  0  0  0  0  0  0  0  0  0  0  # atno 17343 bound_to 10162
  155.9732  130.4122  150.4019 LP  0  0  0  0  0  0  0  0  0  0  0  0  # atno 17370 bound_to 10713
  157.2091  131.0456  151.2609 LP  0  0  0  0  0  0  0  0  0  0  0  0  # atno 17371 bound_to 10713
  141.0142  133.7078  156.1161 LP  0  0  0  0  0  0  0  0  0  0  0  0  # atno 17394 bound_to 11000
  140.7325  134.4239  157.5564 LP  0  0  0  0  0  0  0  0  0  0  0  0  # atno 17395 bound_to 11000

$$$$
