AV-unprocessed.smi:287|AV-procd|sdf|2207|dock9
  -GOLD-   2262022 33D 1   1.00000     0.00000
 Structure written by MMmdl.
 55 58  0  0  0  0  0  0  0  0  1 V2000
  147.4768  136.5116  162.5164 C   0  0  0  0  0  0  0  0  0  0  0  0
  146.6239  136.5089  161.2946 C   0  0  0  0  0  0  0  0  0  0  0  0
  145.3971  135.9891  161.0009 C   0  0  0  0  0  0  0  0  0  0  0  0
  145.1134  136.3083  159.6390 C   0  0  0  0  0  0  0  0  0  0  0  0
  143.8538  135.9359  158.8688 C   0  0  1  0  0  0  0  0  0  0  0  0
  143.6753  134.4090  158.8770 C   0  0  0  0  0  0  0  0  0  0  0  0
  142.6789  136.4583  159.4591 O   0  0  0  0  0  0  0  0  0  0  0  0
  143.8700  136.4603  157.4145 C   0  0  0  0  0  0  0  0  0  0  0  0
  142.6307  136.1829  156.6988 N   0  0  0  0  0  0  0  0  0  0  0  0
  142.6598  135.6946  155.4414 C   0  0  0  0  0  0  0  0  0  0  0  0
  141.4663  135.6536  154.8029 N   0  0  0  0  0  0  0  0  0  0  0  0
  141.3918  135.2014  153.5487 C   0  0  0  0  0  0  0  0  0  0  0  0
  142.3731  134.7519  152.7653 N   0  0  0  0  0  0  0  0  0  0  0  0
  143.5793  134.7796  153.4028 C   0  0  0  0  0  0  0  0  0  0  0  0
  143.8089  135.2295  154.7354 C   0  0  0  0  0  0  0  0  0  0  0  0
  145.1600  135.0969  155.0377 N   0  0  0  0  0  0  0  0  0  0  0  0
  145.6898  134.6108  153.9488 C   0  0  0  0  0  0  0  0  0  0  0  0
  144.8115  134.3967  152.9120 N   0  0  0  0  0  0  0  0  0  0  0  0
  145.1267  133.8680  151.5499 C   0  0  1  0  0  0  0  0  0  0  0  0
  145.8603  132.6905  151.6959 O   0  0  0  0  0  0  0  0  0  0  0  0
  145.3904  131.7152  150.7719 C   0  0  1  0  0  0  0  0  0  0  0  0
  145.7271  130.3073  151.2872 C   0  0  0  0  0  0  0  0  0  0  0  0
  146.9845  130.3123  151.9285 O   0  0  0  0  0  0  0  0  0  0  0  0
  143.8895  132.0075  150.7222 C   0  0  2  0  0  0  0  0  0  0  0  0
  143.2529  131.4715  149.5765 O   0  0  0  0  0  0  0  0  0  0  0  0
  143.8366  133.5319  150.7846 C   0  0  2  0  0  0  0  0  0  0  0  0
  143.8500  134.1216  149.4973 O   0  0  0  0  0  0  0  0  0  0  0  0
  146.2034  137.0293  159.2145 C   0  0  0  0  0  0  0  0  0  0  0  0
  146.5690  137.6917  157.9272 C   0  0  0  0  0  0  0  0  0  0  0  0
  147.1267  137.1489  160.2092 O   0  0  0  0  0  0  0  0  0  0  0  0
  145.7289  134.6470  151.0796 H   0  0  0  0  0  0  0  0  0  0  0  0
  145.8344  131.9001  149.7914 H   0  0  0  0  0  0  0  0  0  0  0  0
  143.4067  131.5954  151.6085 H   0  0  0  0  0  0  0  0  0  0  0  0
  142.9529  133.8812  151.3207 H   0  0  0  0  0  0  0  0  0  0  0  0
  146.9590  136.0437  163.3537 H   0  0  0  0  0  0  0  0  0  0  0  0
  147.7359  137.5303  162.8055 H   0  0  0  0  0  0  0  0  0  0  0  0
  148.4022  135.9624  162.3423 H   0  0  0  0  0  0  0  0  0  0  0  0
  144.7740  135.4323  161.6852 H   0  0  0  0  0  0  0  0  0  0  0  0
  144.5240  133.9108  158.4069 H   0  0  0  0  0  0  0  0  0  0  0  0
  142.7780  134.1068  158.3354 H   0  0  0  0  0  0  0  0  0  0  0  0
  143.5927  134.0246  159.8945 H   0  0  0  0  0  0  0  0  0  0  0  0
  142.9114  136.8674  160.2786 H   0  0  0  0  0  0  0  0  0  0  0  0
  143.9987  137.5431  157.4458 H   0  0  0  0  0  0  0  0  0  0  0  0
  144.7204  136.0565  156.8637 H   0  0  0  0  0  0  0  0  0  0  0  0
  141.7957  136.5653  157.1193 H   0  0  0  0  0  0  0  0  0  0  0  0
  140.4056  135.2030  153.1088 H   0  0  0  0  0  0  0  0  0  0  0  0
  146.7465  134.4004  153.8694 H   0  0  0  0  0  0  0  0  0  0  0  0
  144.9555  129.9368  151.9632 H   0  0  0  0  0  0  0  0  0  0  0  0
  145.7902  129.6070  150.4541 H   0  0  0  0  0  0  0  0  0  0  0  0
  147.6562  130.1904  151.2749 H   0  0  0  0  0  0  0  0  0  0  0  0
  142.3276  131.6539  149.6347 H   0  0  0  0  0  0  0  0  0  0  0  0
  142.9719  134.4072  149.2942 H   0  0  0  0  0  0  0  0  0  0  0  0
  145.7569  138.3284  157.5762 H   0  0  0  0  0  0  0  0  0  0  0  0
  146.7754  136.9491  157.1565 H   0  0  0  0  0  0  0  0  0  0  0  0
  147.4569  138.3141  158.0413 H   0  0  0  0  0  0  0  0  0  0  0  0
  1  2  1  0  0  0  0
  1 35  1  0  0  0  0
  1 36  1  0  0  0  0
  1 37  1  0  0  0  0
  2 30  1  0  0  0  0
  2  3  2  0  0  0  0
  3  4  1  0  0  0  0
  3 38  1  0  0  0  0
  4  5  1  0  0  0  0
  4 28  2  0  0  0  0
  5  6  1  0  0  0  0
  5  7  1  0  0  0  0
  5  8  1  0  0  0  0
  6 39  1  0  0  0  0
  6 40  1  0  0  0  0
  6 41  1  0  0  0  0
  7 42  1  0  0  0  0
  8  9  1  0  0  0  0
  8 43  1  0  0  0  0
  8 44  1  0  0  0  0
  9 10  1  0  0  0  0
  9 45  1  0  0  0  0
 10 15  1  0  0  0  0
 10 11  2  0  0  0  0
 11 12  1  0  0  0  0
 12 13  2  0  0  0  0
 12 46  1  0  0  0  0
 13 14  1  0  0  0  0
 14 18  1  0  0  0  0
 14 15  2  0  0  0  0
 15 16  1  0  0  0  0
 16 17  2  0  0  0  0
 17 18  1  0  0  0  0
 17 47  1  0  0  0  0
 18 19  1  0  0  0  0
 19 31  1  0  0  0  0
 19 26  1  0  0  0  0
 19 20  1  0  0  0  0
 20 21  1  0  0  0  0
 21 32  1  0  0  0  0
 21 22  1  0  0  0  0
 21 24  1  0  0  0  0
 22 23  1  0  0  0  0
 22 48  1  0  0  0  0
 22 49  1  0  0  0  0
 23 50  1  0  0  0  0
 24 33  1  0  0  0  0
 24 25  1  0  0  0  0
 24 26  1  0  0  0  0
 25 51  1  0  0  0  0
 26 34  1  0  0  0  0
 26 27  1  0  0  0  0
 27 52  1  0  0  0  0
 28 29  1  0  0  0  0
 28 30  1  0  0  0  0
 29 53  1  0  0  0  0
 29 54  1  0  0  0  0
 29 55  1  0  0  0  0
M  END
> <s_m_source_file>
AV-unprocessed.smi

> <i_m_source_file_index>
287

> <i_lp_mmshare_version>
43012

> <i_f3d_flags>
0

> <s_epik_input>
W0NIM11jMVtjSF1jKGMobzEpW0NIM10pW0NAQF0oW0NIM10pKFtPSF0pW0NIMl1bTkhdYyhuW2NIXW4yKWMoYzIzKW5bY0hdbjNbQ0BASF00T1tDQEhdKFtDSDJdW09IXSlbQ0BASF0oW09IXSlbQ0BIXTRbT0hd

> <s_epik_cmdline>
J2VwaWtfcHl0aG9uJywgJy1waCcsICc3LjAnLCAnLXRuJywgJzgnLCAnLW1hJywgJzIwMCcsICctbWV0YWxfYmluZGluZycsICctaW1hZScsICc8aW5maWxlLm1hZT4nLCAnLW9tYWUnLCAnPG91dGZpbGUubWFlPic=

> <r_lp_tautomer_probability>
1

> <r_epik_Ionization_Penalty>
0.000992612

> <r_epik_Ionization_Penalty_Charging>
0

> <r_epik_Ionization_Penalty_Neutral>
0.000992612

> <r_epik_State_Penalty>
-0

> <r_epik_Charging_Adjusted_Penalty>
0

> <i_epik_Tot_Q>
0

> <i_epik_Tot_abs_Q>
0

> <r_epik_Metal_State_Penalty>
-0

> <b_epik_Metal_Only>
0

> <s_epik_Chemistry_Notes>
This compound contains an acetal/aminal-like group ( X-CH(R)-Y where X, Y are N, S, or O) that may be acid/base labile, releasing an aldehyde.

> <s_lp_Force_Field>
OPLS_2005

> <r_lp_Energy>
44.3809

> <b_lp_Chiralities_Consistent>
1

> <s_lp_Variant>
AV-unprocessed.smi:287-31

> <Gold.Version>
5.8.1

> <Gold.Id.Protein>
6NUR|6NUR_protein|mol2

> <Gold.PLP.Fitness>
50.5422

> <Gold.PLP.PLP>
-34.7300

> <Gold.PLP.part.hbond>
-7.9747

> <Gold.PLP.part.metal>
0.0000

> <Gold.PLP.part.buried>
-6.8209

> <Gold.PLP.part.nonpolar>
-22.0614

> <Gold.PLP.part.repulsive>
0.4394

> <Gold.PLP.ligand.clash>
0.0586

> <Gold.PLP.ligand.torsion>
0.6238

> <Gold.PLP.Chemscore.Hbond>
5.0832

> <Gold.PLP.Chemscore.CHOScore>
0.5937

> <Gold.PLP.Chemscore.Metal>
0.0000

> <Gold.Chemscore.Hbonds>
donor molecule, donor type, donor heavy atom, donor atom, acceptor molecule, acceptor atom, score
      L1  H    23    50       P1 10747  1.00
      L1  H    25    51       P1 10952  0.58
      L1  H    27    52       P1 10186  1.00
      P1  H  6934  6947       L1    30  1.00
      P1  H 10785 10796       L1    25  0.95
      P1  H 11000 11005       L1    11  0.51
      L1  C    12    46       P1 10187  0.48

> <Gold.PLP.Chemscore.Internal.Correction>
0.0877

> <Gold.Rescore>
     Score         DG    S(hbond)    S(metal)    S(lipo)     H(rot)  DE(clash)    DE(int)     intcor
      8.33     -12.93       4.02        0.00      64.06       5.27       0.36       4.23       ----

> <Gold.Chemscore.Fitness>
8.3304

> <Gold.Chemscore.DG>
-12.9253

> <Gold.Chemscore.ZeroCoef>
-5.4800

> <Gold.Chemscore.Hbond>
4.0222

> <Gold.Chemscore.Metal>
0.0000

> <Gold.Chemscore.Lipo>
64.0622

> <Gold.Chemscore.Internal_Hbond>
0.0000

> <Gold.Chemscore.DEClash>
0.3649

> <Gold.Chemscore.DEInternal>
4.2300

> <Gold.Chemscore.Rot>
5.2672

> <Gold.Chemscore.Internal.Correction>
   9.000000E+99

> <Gold.Chemscore.Hbonds>
donor molecule, donor type, donor heavy atom, donor atom, acceptor molecule, acceptor atom, score
      L1  H    23    50       P1 10747  0.95
      L1  H    25    51       P1 10952  0.54
      L1  H    27    52       P1 10186  0.96
      P1  H  6934  6947       L1    30  0.19
      P1  H 10785 10796       L1    25  0.21
      P1  H 11000 11005       L1    11  0.11

> <Gold.Chemscore.Hbond.Weighted>
-13.4340

> <Gold.Chemscore.Metal.Weighted>
-0.0000

> <Gold.Chemscore.Lipo.Weighted>
-7.4953

> <Gold.Chemscore.Internal_Hbond.Weighted>
0.0000

> <Gold.Chemscore.DEClash.Weighted>
0.3649

> <Gold.Chemscore.DEInternal.Weighted>
4.2300

> <Gold.Chemscore.Rot.Weighted>
13.4839

> <Gold.Chemscore.Internal.Correction.Weighted>
   9.000000E+99

> <Gold.Protein.RotatedTorsions>
[ 6907 6896 6895 6894 ] final -135.57 input  -60.11 | X-H torsion
[ 7974 7965 7964 7962 ] final  -14.60 input  175.53 | X-H torsion
[ 8008 7997 7996 7995 ] final   82.00 input   59.86 | X-H torsion
[ 10167 10162 10161 10158 ] final  -75.13 input  -65.29 | X-H torsion
[ 10718 10713 10712 10709 ] final  -99.79 input   66.30 | X-H torsion
[ 10763 10752 10751 10750 ] final  -78.95 input  -60.55 | X-H torsion
[ 11005 11000 10999 10996 ] final   35.18 input  -57.11 | X-H torsion

> <Gold.Protein.ActiveResidues>
 VAL166  LYS551  ARG553  GLY616  TRP617  ASP618  TYR619  PRO620  LYS621  CYS622 
 ASP623  PHE694  ASN695  SER759  ASP760  ASP761  ALA762  ILE779  LEU786  VAL792 
 PHE793  MET794  SER795  GLU796  ALA797  LYS798  CYS799  TRP800  GLU811  SER814 

> <Gold.Protein.RotatedAtoms>
  150.9994  133.6070  159.2696 H   0  0  0  0  0  0  0  0  0  0  0  0  # atno 6907 bound_to 6896
  151.3262  135.0830  159.9332 H   0  0  0  0  0  0  0  0  0  0  0  0  # atno 6908 bound_to 6896
  152.5269  133.9632  159.7781 H   0  0  0  0  0  0  0  0  0  0  0  0  # atno 6909 bound_to 6896
  146.2067  140.3372  142.8404 H   0  0  0  0  0  0  0  0  0  0  0  0  # atno 7974 bound_to 7965
  155.9048  140.3431  155.6053 H   0  0  0  0  0  0  0  0  0  0  0  0  # atno 8008 bound_to 7997
  155.7457  140.0813  157.2243 H   0  0  0  0  0  0  0  0  0  0  0  0  # atno 8009 bound_to 7997
  154.4048  140.1562  156.2654 H   0  0  0  0  0  0  0  0  0  0  0  0  # atno 8010 bound_to 7997
  140.4969  143.2369  151.7816 H   0  0  0  0  0  0  0  0  0  0  0  0  # atno 10167 bound_to 10162
  156.0144  130.5298  150.6721 H   0  0  0  0  0  0  0  0  0  0  0  0  # atno 10718 bound_to 10713
  154.5325  135.5712  153.6771 H   0  0  0  0  0  0  0  0  0  0  0  0  # atno 10763 bound_to 10752
  152.9943  135.6208  154.2610 H   0  0  0  0  0  0  0  0  0  0  0  0  # atno 10764 bound_to 10752
  154.2537  135.2858  155.2786 H   0  0  0  0  0  0  0  0  0  0  0  0  # atno 10765 bound_to 10752
  140.2453  134.3366  155.7910 H   0  0  0  0  0  0  0  0  0  0  0  0  # atno 11005 bound_to 11000
  144.8811  140.7401  143.5986 LP  0  0  0  0  0  0  0  0  0  0  0  0  # atno 17320 bound_to 7965
  145.3292  139.1764  143.4546 LP  0  0  0  0  0  0  0  0  0  0  0  0  # atno 17321 bound_to 7965
  139.4863  144.4575  151.9581 LP  0  0  0  0  0  0  0  0  0  0  0  0  # atno 17342 bound_to 10162
  140.3663  144.2911  150.5926 LP  0  0  0  0  0  0  0  0  0  0  0  0  # atno 17343 bound_to 10162
  157.4442  131.0865  151.0913 LP  0  0  0  0  0  0  0  0  0  0  0  0  # atno 17370 bound_to 10713
  157.1448  130.6158  149.5565 LP  0  0  0  0  0  0  0  0  0  0  0  0  # atno 17371 bound_to 10713
  141.2207  133.7322  156.8951 LP  0  0  0  0  0  0  0  0  0  0  0  0  # atno 17394 bound_to 11000
  140.1612  134.9164  157.2717 LP  0  0  0  0  0  0  0  0  0  0  0  0  # atno 17395 bound_to 11000

$$$$
