AV-unprocessed.smi:1664|AV-procd|sdf|6667|dock2
  -GOLD-   22720 7373D 1   1.00000     0.00000
 Structure written by MMmdl.
 35 36  0  0  0  0  0  0  0  0  3 V2000
  149.9039  140.3929  154.7873 C   0  0  0  0  0  0  0  0  0  0  0  0
  149.0934  141.0958  155.8943 C   0  0  1  0  0  0  0  0  0  0  0  0
  148.8405  140.1383  156.9919 C   0  0  0  0  0  0  0  0  0  0  0  0
  148.6421  139.3883  157.8512 N   0  0  0  0  0  0  0  0  0  0  0  0
  149.8448  142.2523  156.3853 N   0  0  0  0  0  0  0  0  0  0  0  0
  151.0829  142.2627  156.9080 C   0  0  0  0  0  0  0  0  0  0  0  0
  151.7921  141.2628  157.0084 O   0  0  0  0  0  0  0  0  0  0  0  0
  151.5946  143.6179  157.4059 C   0  0  0  0  0  0  0  0  0  0  0  0
  151.8762  143.5912  158.8500 N   0  0  0  0  0  0  0  0  0  0  0  0
  152.7507  142.5862  159.3096 C   0  0  0  0  0  0  0  0  0  0  0  0
  153.0967  142.4752  160.6069 C   0  0  0  0  0  0  0  0  0  0  0  0
  154.0065  141.4443  161.0563 N   0  3  0  0  0  0  0  0  0  0  0  0
  154.3516  140.5763  160.2611 O   0  0  0  0  0  0  0  0  0  0  0  0
  154.4048  141.4670  162.2172 O   0  5  0  0  0  0  0  0  0  0  0  0
  152.5319  143.4314  161.5391 C   0  0  0  0  0  0  0  0  0  0  0  0
  151.6976  144.3970  161.1060 C   0  0  0  0  0  0  0  0  0  0  0  0
  151.3284  144.5206  159.6920 C   0  0  0  0  0  0  0  0  0  0  0  0
  150.5734  145.4056  159.2902 O   0  0  0  0  0  0  0  0  0  0  0  0
  147.7624  141.5575  155.3043 C   0  0  0  0  0  0  0  0  0  0  0  0
  146.9890  140.7384  154.2947 C   0  0  0  0  0  0  0  0  0  0  0  0
  147.6267  142.0464  153.8794 C   0  0  0  0  0  0  0  0  0  0  0  0
  149.3473  139.5535  154.3692 H   0  0  0  0  0  0  0  0  0  0  0  0
  150.8470  139.9950  155.1628 H   0  0  0  0  0  0  0  0  0  0  0  0
  150.1349  141.0750  153.9684 H   0  0  0  0  0  0  0  0  0  0  0  0
  149.3576  143.1359  156.3498 H   0  0  0  0  0  0  0  0  0  0  0  0
  152.4862  143.8980  156.8418 H   0  0  0  0  0  0  0  0  0  0  0  0
  150.8576  144.3868  157.1687 H   0  0  0  0  0  0  0  0  0  0  0  0
  153.1214  141.9279  158.5370 H   0  0  0  0  0  0  0  0  0  0  0  0
  152.7744  143.3811  162.5905 H   0  0  0  0  0  0  0  0  0  0  0  0
  151.2895  145.1000  161.8173 H   0  0  0  0  0  0  0  0  0  0  0  0
  147.1476  142.0903  156.0283 H   0  0  0  0  0  0  0  0  0  0  0  0
  147.4363  139.8196  153.9215 H   0  0  0  0  0  0  0  0  0  0  0  0
  145.9057  140.7169  154.3937 H   0  0  0  0  0  0  0  0  0  0  0  0
  146.9664  142.8928  153.7023 H   0  0  0  0  0  0  0  0  0  0  0  0
  148.4991  141.9969  153.2311 H   0  0  0  0  0  0  0  0  0  0  0  0
  1  2  1  0  0  0  0
  1 22  1  0  0  0  0
  1 23  1  0  0  0  0
  1 24  1  0  0  0  0
  2  3  1  0  0  0  0
  2  5  1  0  0  0  0
  2 19  1  0  0  0  0
  3  4  3  0  0  0  0
  5  6  1  0  0  0  0
  5 25  1  0  0  0  0
  6  7  2  0  0  0  0
  6  8  1  0  0  0  0
  8  9  1  0  0  0  0
  8 26  1  0  0  0  0
  8 27  1  0  0  0  0
  9 17  1  0  0  0  0
  9 10  1  0  0  0  0
 10 11  2  0  0  0  0
 10 28  1  0  0  0  0
 11 12  1  0  0  0  0
 11 15  1  0  0  0  0
 12 13  2  0  0  0  0
 12 14  1  0  0  0  0
 15 16  2  0  0  0  0
 15 29  1  0  0  0  0
 16 17  1  0  0  0  0
 16 30  1  0  0  0  0
 17 18  2  0  0  0  0
 19 21  1  0  0  0  0
 19 20  1  0  0  0  0
 19 31  1  0  0  0  0
 20 21  1  0  0  0  0
 20 32  1  0  0  0  0
 20 33  1  0  0  0  0
 21 34  1  0  0  0  0
 21 35  1  0  0  0  0
M  CHG  1  12   1
M  CHG  1  14  -1
M  END
> <s_m_source_file>
AV-unprocessed.smi

> <i_m_source_file_index>
1664

> <i_lp_mmshare_version>
43012

> <i_f3d_flags>
0

> <s_epik_input>
W0NIMl0xW0NIMl1bQ0hdMVtDQF0oW0NIM10pKEMjTilbTkhdQyg9TylbQ0gyXW4yW2NIXWMoW04rXSg9TylbTy1dKVtjSF1bY0hdYzI9Tw==

> <s_epik_cmdline>
J2VwaWtfcHl0aG9uJywgJy1waCcsICc3LjAnLCAnLXRuJywgJzgnLCAnLW1hJywgJzIwMCcsICctbWV0YWxfYmluZGluZycsICctaW1hZScsICc8aW5maWxlLm1hZT4nLCAnLW9tYWUnLCAnPG91dGZpbGUubWFlPic=

> <r_lp_tautomer_probability>
1

> <r_epik_Ionization_Penalty>
4.65324e-07

> <r_epik_Ionization_Penalty_Charging>
6.17383e-11

> <r_epik_Ionization_Penalty_Neutral>
4.65262e-07

> <r_epik_State_Penalty>
-0

> <r_epik_Charging_Adjusted_Penalty>
6.17383e-11

> <i_epik_Tot_Q>
0

> <i_epik_Tot_abs_Q>
2

> <r_epik_Metal_State_Penalty>
-0

> <b_epik_Metal_Only>
0

> <s_lp_Force_Field>
OPLS_2005

> <r_lp_Energy>
25.9803

> <b_lp_Chiralities_Consistent>
1

> <s_lp_Variant>
AV-unprocessed.smi:1664-1

> <Gold.Version>
5.8.1

> <Gold.Id.Protein>
6NUR|6NUR_protein|mol2

> <Gold.PLP.Fitness>
49.7987

> <Gold.PLP.PLP>
-46.9021

> <Gold.PLP.part.hbond>
-3.4008

> <Gold.PLP.part.metal>
0.0000

> <Gold.PLP.part.buried>
-5.4527

> <Gold.PLP.part.nonpolar>
-37.8527

> <Gold.PLP.part.repulsive>
0.2655

> <Gold.PLP.ligand.clash>
0.0000

> <Gold.PLP.ligand.torsion>
0.8367

> <Gold.PLP.Chemscore.Hbond>
1.0000

> <Gold.PLP.Chemscore.CHOScore>
0.0000

> <Gold.PLP.Chemscore.Metal>
0.0000

> <Gold.Chemscore.Hbonds>
donor molecule, donor type, donor heavy atom, donor atom, acceptor molecule, acceptor atom, score
      L1  H     5    25       P1  8028  1.00

> <Gold.PLP.Chemscore.Internal.Correction>
1.5701

> <Gold.Rescore>
     Score         DG    S(hbond)    S(metal)    S(lipo)     H(rot)  DE(clash)    DE(int)     intcor
     11.05     -13.45       0.91        0.00      84.64       1.94       0.10       2.30       ----

> <Gold.Chemscore.Fitness>
11.0529

> <Gold.Chemscore.DG>
-13.4518

> <Gold.Chemscore.ZeroCoef>
-5.4800

> <Gold.Chemscore.Hbond>
0.9079

> <Gold.Chemscore.Metal>
0.0000

> <Gold.Chemscore.Lipo>
84.6352

> <Gold.Chemscore.Internal_Hbond>
0.0000

> <Gold.Chemscore.DEClash>
0.1029

> <Gold.Chemscore.DEInternal>
2.2961

> <Gold.Chemscore.Rot>
1.9386

> <Gold.Chemscore.Internal.Correction>
   9.000000E+99

> <Gold.Chemscore.Hbonds>
donor molecule, donor type, donor heavy atom, donor atom, acceptor molecule, acceptor atom, score
      L1  H     5    25       P1  8028  0.99

> <Gold.Chemscore.Hbond.Weighted>
-3.0323

> <Gold.Chemscore.Metal.Weighted>
-0.0000

> <Gold.Chemscore.Lipo.Weighted>
-9.9023

> <Gold.Chemscore.Internal_Hbond.Weighted>
0.0000

> <Gold.Chemscore.DEClash.Weighted>
0.1029

> <Gold.Chemscore.DEInternal.Weighted>
2.2961

> <Gold.Chemscore.Rot.Weighted>
4.9627

> <Gold.Chemscore.Internal.Correction.Weighted>
   9.000000E+99

> <Gold.Protein.RotatedTorsions>
[ 6907 6896 6895 6894 ] final   10.24 input  -60.11 | X-H torsion
[ 7974 7965 7964 7962 ] final -148.14 input  175.53 | X-H torsion
[ 8008 7997 7996 7995 ] final   -4.50 input   59.86 | X-H torsion
[ 10167 10162 10161 10158 ] final  -29.58 input  -65.29 | X-H torsion
[ 10718 10713 10712 10709 ] final -157.55 input   66.30 | X-H torsion
[ 10763 10752 10751 10750 ] final  -85.22 input  -60.55 | X-H torsion
[ 11005 11000 10999 10996 ] final  -66.59 input  -57.11 | X-H torsion

> <Gold.Protein.ActiveResidues>
 VAL166  LYS551  ARG553  GLY616  TRP617  ASP618  TYR619  PRO620  LYS621  CYS622 
 ASP623  PHE694  ASN695  SER759  ASP760  ASP761  ALA762  ILE779  LEU786  VAL792 
 PHE793  MET794  SER795  GLU796  ALA797  LYS798  CYS799  TRP800  GLU811  SER814 

> <Gold.Protein.RotatedAtoms>
  151.7350  135.0866  160.0306 H   0  0  0  0  0  0  0  0  0  0  0  0  # atno 6907 bound_to 6896
  152.3516  133.6182  159.5957 H   0  0  0  0  0  0  0  0  0  0  0  0  # atno 6908 bound_to 6896
  150.7544  133.9481  159.3519 H   0  0  0  0  0  0  0  0  0  0  0  0  # atno 6909 bound_to 6896
  144.8048  140.5235  143.5682 H   0  0  0  0  0  0  0  0  0  0  0  0  # atno 7974 bound_to 7965
  154.6136  140.2482  155.7637 H   0  0  0  0  0  0  0  0  0  0  0  0  # atno 8008 bound_to 7997
  156.2386  140.2941  156.0330 H   0  0  0  0  0  0  0  0  0  0  0  0  # atno 8009 bound_to 7997
  155.2011  140.0394  157.2908 H   0  0  0  0  0  0  0  0  0  0  0  0  # atno 8010 bound_to 7997
  140.7259  143.3917  151.1419 H   0  0  0  0  0  0  0  0  0  0  0  0  # atno 10167 bound_to 10162
  156.5418  130.8566  151.2751 H   0  0  0  0  0  0  0  0  0  0  0  0  # atno 10718 bound_to 10713
  154.6085  135.5493  153.7449 H   0  0  0  0  0  0  0  0  0  0  0  0  # atno 10763 bound_to 10752
  153.0185  135.6384  154.1612 H   0  0  0  0  0  0  0  0  0  0  0  0  # atno 10764 bound_to 10752
  154.1550  135.2900  155.3105 H   0  0  0  0  0  0  0  0  0  0  0  0  # atno 10765 bound_to 10752
  141.1486  133.6702  156.6163 H   0  0  0  0  0  0  0  0  0  0  0  0  # atno 11005 bound_to 11000
  145.5465  139.1476  143.3418 LP  0  0  0  0  0  0  0  0  0  0  0  0  # atno 17320 bound_to 7965
  146.2337  140.5604  142.8964 LP  0  0  0  0  0  0  0  0  0  0  0  0  # atno 17321 bound_to 7965
  139.7523  143.8760  152.3080 LP  0  0  0  0  0  0  0  0  0  0  0  0  # atno 17342 bound_to 10162
  139.8618  144.7113  150.9091 LP  0  0  0  0  0  0  0  0  0  0  0  0  # atno 17343 bound_to 10162
  157.7404  130.9849  150.2374 LP  0  0  0  0  0  0  0  0  0  0  0  0  # atno 17370 bound_to 10713
  156.2964  130.3752  149.7792 LP  0  0  0  0  0  0  0  0  0  0  0  0  # atno 17371 bound_to 10713
  140.3575  134.7716  157.4510 LP  0  0  0  0  0  0  0  0  0  0  0  0  # atno 17394 bound_to 11000
  140.0811  134.5729  155.8539 LP  0  0  0  0  0  0  0  0  0  0  0  0  # atno 17395 bound_to 11000

$$$$
