AV-unprocessed.smi:1962|AV-procd|sdf|7924|dock4
  -GOLD-   2272010 93D 1   1.00000     0.00000
 Structure written by MMmdl.
 35 36  0  0  0  0  0  0  0  0  2 V2000
  150.6973  139.2848  158.1271 C   0  0  0  0  0  0  0  0  0  0  0  0
  151.0881  140.6413  157.5243 C   0  0  2  0  0  0  0  0  0  0  0  0
  152.0180  140.4605  156.2952 C   0  0  0  0  0  0  0  0  0  0  0  0
  151.6270  139.3795  155.3932 N   0  0  0  0  0  0  0  0  0  0  0  0
  152.0583  138.0661  155.3766 C   0  0  0  0  0  0  0  0  0  0  0  0
  151.4230  137.4377  154.3441 C   0  0  0  0  0  0  0  0  0  0  0  0
  150.6214  138.4620  153.7685 C   0  0  0  0  0  0  0  0  0  0  0  0
  150.7547  139.6235  154.3867 N   0  0  0  0  0  0  0  0  0  0  0  0
  151.7602  141.4357  158.5592 N   0  5  0  0  0  0  0  0  0  0  0  0
  152.8995  141.0728  159.2244 C   0  0  0  0  0  0  0  0  0  0  0  0
  153.7262  140.2322  158.8498 O   0  0  0  0  0  0  0  0  0  0  0  0
  153.1991  141.7166  160.5375 C   0  0  0  0  0  0  0  0  0  0  0  0
  153.8675  141.0616  161.4351 N   0  0  0  0  0  0  0  0  0  0  0  0
  154.1989  141.6130  162.6553 N   0  0  0  0  0  0  0  0  0  0  0  0
  155.1839  140.8536  163.4224 C   0  0  0  0  0  0  0  0  0  0  0  0
  153.6657  142.7546  163.1553 C   0  0  0  0  0  0  0  0  0  0  0  0
  153.9872  143.2440  164.2384 O   0  0  0  0  0  0  0  0  0  0  0  0
  152.5829  143.4287  162.3088 C   0  0  0  0  0  0  0  0  0  0  0  0
  152.7595  143.1456  160.8039 C   0  0  0  0  0  0  0  0  0  0  0  0
  150.1785  138.6667  157.3943 H   0  0  0  0  0  0  0  0  0  0  0  0
  150.0298  139.4101  158.9805 H   0  0  0  0  0  0  0  0  0  0  0  0
  151.5734  138.7312  158.4671 H   0  0  0  0  0  0  0  0  0  0  0  0
  150.1655  141.1138  157.1832 H   0  0  0  0  0  0  0  0  0  0  0  0
  152.0813  141.3913  155.7284 H   0  0  0  0  0  0  0  0  0  0  0  0
  153.0315  140.2454  156.6352 H   0  0  0  0  0  0  0  0  0  0  0  0
  152.7678  137.6926  156.1001 H   0  0  0  0  0  0  0  0  0  0  0  0
  151.5173  136.4044  154.0460 H   0  0  0  0  0  0  0  0  0  0  0  0
  149.9546  138.3980  152.9213 H   0  0  0  0  0  0  0  0  0  0  0  0
  154.7839  140.5772  164.3992 H   0  0  0  0  0  0  0  0  0  0  0  0
  156.0868  141.4464  163.5764 H   0  0  0  0  0  0  0  0  0  0  0  0
  155.4764  139.9329  162.9142 H   0  0  0  0  0  0  0  0  0  0  0  0
  151.6190  143.0433  162.6434 H   0  0  0  0  0  0  0  0  0  0  0  0
  152.5741  144.5032  162.4946 H   0  0  0  0  0  0  0  0  0  0  0  0
  153.4932  143.8315  160.3788 H   0  0  0  0  0  0  0  0  0  0  0  0
  151.8128  143.3595  160.3066 H   0  0  0  0  0  0  0  0  0  0  0  0
  1  2  1  0  0  0  0
  1 20  1  0  0  0  0
  1 21  1  0  0  0  0
  1 22  1  0  0  0  0
  2  3  1  0  0  0  0
  2  9  1  0  0  0  0
  2 23  1  0  0  0  0
  3  4  1  0  0  0  0
  3 24  1  0  0  0  0
  3 25  1  0  0  0  0
  4  8  1  0  0  0  0
  4  5  1  0  0  0  0
  5  6  2  0  0  0  0
  5 26  1  0  0  0  0
  6  7  1  0  0  0  0
  6 27  1  0  0  0  0
  7  8  2  0  0  0  0
  7 28  1  0  0  0  0
  9 10  1  0  0  0  0
 10 11  2  0  0  0  0
 10 12  1  0  0  0  0
 12 19  1  0  0  0  0
 12 13  2  0  0  0  0
 13 14  1  0  0  0  0
 14 15  1  0  0  0  0
 14 16  1  0  0  0  0
 15 29  1  0  0  0  0
 15 30  1  0  0  0  0
 15 31  1  0  0  0  0
 16 17  2  0  0  0  0
 16 18  1  0  0  0  0
 18 19  1  0  0  0  0
 18 32  1  0  0  0  0
 18 33  1  0  0  0  0
 19 34  1  0  0  0  0
 19 35  1  0  0  0  0
M  CHG  1   9  -1
M  END
> <s_m_source_file>
AV-unprocessed.smi

> <i_m_source_file_index>
1962

> <i_lp_mmshare_version>
43012

> <i_f3d_flags>
0

> <s_epik_input>
bjFbY0hdW2NIXVtjSF1uMVtDSDJdW0NAQEhdKFtDSDNdKVtOSF1DKD1PKUMyPU5OKFtDSDNdKUMoPU8pW0NIMl1bQ0gyXTI=

> <s_epik_cmdline>
J2VwaWtfcHl0aG9uJywgJy1waCcsICc3LjAnLCAnLXRuJywgJzgnLCAnLW1hJywgJzIwMCcsICctbWV0YWxfYmluZGluZycsICctaW1hZScsICc8aW5maWxlLm1hZT4nLCAnLW9tYWUnLCAnPG91dGZpbGUubWFlPic=

> <r_lp_tautomer_probability>
1

> <r_epik_Ionization_Penalty>
5.21086

> <r_epik_Ionization_Penalty_Charging>
5.21084

> <r_epik_Ionization_Penalty_Neutral>
2.41961e-05

> <r_epik_State_Penalty>
5.21075

> <r_epik_Charging_Adjusted_Penalty>
10.4216

> <i_epik_Tot_Q>
-1

> <i_epik_Tot_abs_Q>
1

> <r_epik_Metal_State_Penalty>
1.27477

> <b_epik_Metal_Only>
1

> <s_epik_Chemistry_Notes>
This compound has an imine and may undergo hydrolysis.

> <s_lp_Force_Field>
OPLS_2005

> <r_lp_Energy>
24.8429

> <b_lp_Chiralities_Consistent>
1

> <s_lp_Variant>
AV-unprocessed.smi:1962-3

> <Gold.Version>
5.8.1

> <Gold.Id.Protein>
6NUR|6NUR_protein|mol2

> <Gold.PLP.Fitness>
48.7384

> <Gold.PLP.PLP>
-39.1794

> <Gold.PLP.part.hbond>
-2.0297

> <Gold.PLP.part.metal>
0.0000

> <Gold.PLP.part.buried>
-0.6259

> <Gold.PLP.part.nonpolar>
-34.3853

> <Gold.PLP.part.repulsive>
0.1911

> <Gold.PLP.ligand.clash>
0.0000

> <Gold.PLP.ligand.torsion>
0.9938

> <Gold.PLP.Chemscore.Hbond>
1.9440

> <Gold.PLP.Chemscore.CHOScore>
1.8688

> <Gold.PLP.Chemscore.Metal>
0.0000

> <Gold.Chemscore.Hbonds>
donor molecule, donor type, donor heavy atom, donor atom, acceptor molecule, acceptor atom, score
      P1  H  7989  7998       L1     8  1.00
      P1  H  7997  8010       L1    11  0.91
      L1  C     7    28       P1  7948  0.87
      L1  C     7    28       P1  7957  0.97

> <Gold.PLP.Chemscore.Internal.Correction>
0.1082

> <Gold.Rescore>
     Score         DG    S(hbond)    S(metal)    S(lipo)     H(rot)  DE(clash)    DE(int)     intcor
     13.94     -16.03       1.48        0.00      80.61       1.50       0.45       1.64       ----

> <Gold.Chemscore.Fitness>
13.9387

> <Gold.Chemscore.DG>
-16.0335

> <Gold.Chemscore.ZeroCoef>
-5.4800

> <Gold.Chemscore.Hbond>
1.4829

> <Gold.Chemscore.Metal>
0.0000

> <Gold.Chemscore.Lipo>
80.6114

> <Gold.Chemscore.Internal_Hbond>
0.0000

> <Gold.Chemscore.DEClash>
0.4546

> <Gold.Chemscore.DEInternal>
1.6402

> <Gold.Chemscore.Rot>
1.4964

> <Gold.Chemscore.Internal.Correction>
   9.000000E+99

> <Gold.Chemscore.Hbonds>
donor molecule, donor type, donor heavy atom, donor atom, acceptor molecule, acceptor atom, score
      P1  H  7989  7998       L1     8  0.27
      P1  H  7997  8010       L1    11  0.88

> <Gold.Chemscore.Hbond.Weighted>
-4.9528

> <Gold.Chemscore.Metal.Weighted>
-0.0000

> <Gold.Chemscore.Lipo.Weighted>
-9.4315

> <Gold.Chemscore.Internal_Hbond.Weighted>
0.0000

> <Gold.Chemscore.DEClash.Weighted>
0.4546

> <Gold.Chemscore.DEInternal.Weighted>
1.6402

> <Gold.Chemscore.Rot.Weighted>
3.8309

> <Gold.Chemscore.Internal.Correction.Weighted>
   9.000000E+99

> <Gold.Protein.RotatedTorsions>
[ 6907 6896 6895 6894 ] final  -83.08 input  -60.11 | X-H torsion
[ 7974 7965 7964 7962 ] final -105.00 input  175.53 | X-H torsion
[ 8008 7997 7996 7995 ] final   19.99 input   59.86 | X-H torsion
[ 10167 10162 10161 10158 ] final  -11.50 input  -65.29 | X-H torsion
[ 10718 10713 10712 10709 ] final  -83.25 input   66.30 | X-H torsion
[ 10763 10752 10751 10750 ] final  109.47 input  -60.55 | X-H torsion
[ 11005 11000 10999 10996 ] final  164.62 input  -57.11 | X-H torsion

> <Gold.Protein.ActiveResidues>
 VAL166  LYS551  ARG553  GLY616  TRP617  ASP618  TYR619  PRO620  LYS621  CYS622 
 ASP623  PHE694  ASN695  SER759  ASP760  ASP761  ALA762  ILE779  LEU786  VAL792 
 PHE793  MET794  SER795  GLU796  ALA797  LYS798  CYS799  TRP800  GLU811  SER814 

> <Gold.Protein.RotatedAtoms>
  150.6889  134.3566  159.4931 H   0  0  0  0  0  0  0  0  0  0  0  0  # atno 6907 bound_to 6896
  152.1400  134.9067  160.0563 H   0  0  0  0  0  0  0  0  0  0  0  0  # atno 6908 bound_to 6896
  152.0204  133.3861  159.4293 H   0  0  0  0  0  0  0  0  0  0  0  0  # atno 6909 bound_to 6896
  145.2360  140.9188  143.3177 H   0  0  0  0  0  0  0  0  0  0  0  0  # atno 7974 bound_to 7965
  154.9290  140.3037  155.5177 H   0  0  0  0  0  0  0  0  0  0  0  0  # atno 8008 bound_to 7997
  156.3005  140.2357  156.4284 H   0  0  0  0  0  0  0  0  0  0  0  0  # atno 8009 bound_to 7997
  154.8256  140.0421  157.1430 H   0  0  0  0  0  0  0  0  0  0  0  0  # atno 8010 bound_to 7997
  140.7140  143.5632  150.9172 H   0  0  0  0  0  0  0  0  0  0  0  0  # atno 10167 bound_to 10162
  156.0021  130.4659  150.4228 H   0  0  0  0  0  0  0  0  0  0  0  0  # atno 10718 bound_to 10713
  153.4351  135.3779  155.2194 H   0  0  0  0  0  0  0  0  0  0  0  0  # atno 10763 bound_to 10752
  154.8752  135.3849  154.4220 H   0  0  0  0  0  0  0  0  0  0  0  0  # atno 10764 bound_to 10752
  153.4758  135.7087  153.6030 H   0  0  0  0  0  0  0  0  0  0  0  0  # atno 10765 bound_to 10752
  140.2477  134.8001  157.3472 H   0  0  0  0  0  0  0  0  0  0  0  0  # atno 11005 bound_to 11000
  144.9632  139.3957  143.6345 LP  0  0  0  0  0  0  0  0  0  0  0  0  # atno 17320 bound_to 7965
  146.3341  139.8695  142.8842 LP  0  0  0  0  0  0  0  0  0  0  0  0  # atno 17321 bound_to 7965
  139.9358  143.6440  152.3065 LP  0  0  0  0  0  0  0  0  0  0  0  0  # atno 17342 bound_to 10162
  139.6907  144.7647  151.1444 LP  0  0  0  0  0  0  0  0  0  0  0  0  # atno 17343 bound_to 10162
  157.2283  131.0498  151.2507 LP  0  0  0  0  0  0  0  0  0  0  0  0  # atno 17370 bound_to 10713
  157.3735  130.7193  149.6581 LP  0  0  0  0  0  0  0  0  0  0  0  0  # atno 17371 bound_to 10713
  140.1589  134.4754  155.7908 LP  0  0  0  0  0  0  0  0  0  0  0  0  # atno 17394 bound_to 11000
  141.2204  133.6893  156.7509 LP  0  0  0  0  0  0  0  0  0  0  0  0  # atno 17395 bound_to 11000

$$$$
