AV-unprocessed.smi:2781|AV-procd|sdf|10719|dock8
  -GOLD-   2272015153D 1   1.00000     0.00000
 Structure written by MMmdl.
 35 38  0  0  0  0  0  0  0  0  1 V2000
  149.3408  144.4816  161.3847 O   0  0  0  0  0  0  0  0  0  0  0  0
  149.0643  144.9126  160.2647 C   0  0  0  0  0  0  0  0  0  0  0  0
  147.8357  144.9262  159.7181 N   0  0  0  0  0  0  0  0  0  0  0  0
  146.6126  144.4924  160.2952 C   0  0  0  0  0  0  0  0  0  0  0  0
  145.4770  144.6343  159.4657 C   0  0  0  0  0  0  0  0  0  0  0  0
  144.2136  144.2383  159.9464 C   0  0  0  0  0  0  0  0  0  0  0  0
  144.1205  143.7096  161.2459 C   0  0  0  0  0  0  0  0  0  0  0  0
  142.9277  143.3157  161.7511 F   0  0  0  0  0  0  0  0  0  0  0  0
  145.2988  143.6011  162.0072 C   0  0  0  0  0  0  0  0  0  0  0  0
  146.5103  143.9805  161.5476 N   0  0  0  0  0  0  0  0  0  0  0  0
  149.9685  145.4360  159.4261 N   0  0  0  0  0  0  0  0  0  0  0  0
  151.3652  145.5755  159.6835 C   0  0  2  0  0  0  0  0  0  0  0  0
  152.4033  144.9399  158.7774 C   0  0  2  0  0  0  0  0  0  0  0  0
  152.3505  143.6679  157.9232 C   0  0  2  0  0  0  0  0  0  0  0  0
  150.9408  143.0492  157.8350 C   0  0  0  0  0  0  0  0  0  0  0  0
  150.7271  142.5084  159.2656 C   0  0  0  0  0  0  0  0  0  0  0  0
  152.0450  142.8969  159.9657 C   0  0  1  0  0  0  0  0  0  0  0  0
  153.0393  142.6583  158.8345 C   0  0  0  0  0  0  0  0  0  0  0  0
  152.1898  144.4066  160.1921 C   0  0  2  0  0  0  0  0  0  0  0  0
  147.7656  145.3010  158.7836 H   0  0  0  0  0  0  0  0  0  0  0  0
  145.5679  145.0428  158.4696 H   0  0  0  0  0  0  0  0  0  0  0  0
  143.3334  144.3392  159.3289 H   0  0  0  0  0  0  0  0  0  0  0  0
  145.2696  143.2006  163.0099 H   0  0  0  0  0  0  0  0  0  0  0  0
  149.6455  145.7640  158.5277 H   0  0  0  0  0  0  0  0  0  0  0  0
  151.6608  146.5383  160.0979 H   0  0  0  0  0  0  0  0  0  0  0  0
  153.3108  145.5210  158.6248 H   0  0  0  0  0  0  0  0  0  0  0  0
  152.8324  143.8071  156.9552 H   0  0  0  0  0  0  0  0  0  0  0  0
  150.1813  143.7581  157.5084 H   0  0  0  0  0  0  0  0  0  0  0  0
  150.9328  142.2259  157.1192 H   0  0  0  0  0  0  0  0  0  0  0  0
  149.8438  142.9041  159.7645 H   0  0  0  0  0  0  0  0  0  0  0  0
  150.6170  141.4234  159.2422 H   0  0  0  0  0  0  0  0  0  0  0  0
  152.2468  142.3279  160.8734 H   0  0  0  0  0  0  0  0  0  0  0  0
  153.0334  141.6372  158.4480 H   0  0  0  0  0  0  0  0  0  0  0  0
  154.0628  142.9369  159.0925 H   0  0  0  0  0  0  0  0  0  0  0  0
  152.9653  144.6594  160.9130 H   0  0  0  0  0  0  0  0  0  0  0  0
  1  2  2  0  0  0  0
  2  3  1  0  0  0  0
  2 11  1  0  0  0  0
  3  4  1  0  0  0  0
  3 20  1  0  0  0  0
  4 10  1  0  0  0  0
  4  5  2  0  0  0  0
  5  6  1  0  0  0  0
  5 21  1  0  0  0  0
  6  7  2  0  0  0  0
  6 22  1  0  0  0  0
  7  8  1  0  0  0  0
  7  9  1  0  0  0  0
  9 10  2  0  0  0  0
  9 23  1  0  0  0  0
 11 12  1  0  0  0  0
 11 24  1  0  0  0  0
 12 19  1  0  0  0  0
 12 13  1  0  0  0  0
 12 25  1  0  0  0  0
 13 19  1  0  0  0  0
 13 14  1  0  0  0  0
 13 26  1  0  0  0  0
 14 18  1  0  0  0  0
 14 15  1  0  0  0  0
 14 27  1  0  0  0  0
 15 16  1  0  0  0  0
 15 28  1  0  0  0  0
 15 29  1  0  0  0  0
 16 17  1  0  0  0  0
 16 30  1  0  0  0  0
 16 31  1  0  0  0  0
 17 18  1  0  0  0  0
 17 19  1  0  0  0  0
 17 32  1  0  0  0  0
 18 33  1  0  0  0  0
 18 34  1  0  0  0  0
 19 35  1  0  0  0  0
M  END
> <s_m_source_file>
AV-unprocessed.smi

> <i_m_source_file_index>
2781

> <i_lp_mmshare_version>
43012

> <i_f3d_flags>
0

> <s_epik_input>
bjFbY0hdYyhGKVtjSF1bY0hdYzFbTkhdQyg9TylbTkhdW0NASF0yW0NAQEhdM1tDQEhdKFtDSDJdNClbQ0gyXVtDSDJdW0NASF00W0NASF0yMw==

> <s_epik_cmdline>
J2VwaWtfcHl0aG9uJywgJy1waCcsICc3LjAnLCAnLXRuJywgJzgnLCAnLW1hJywgJzIwMCcsICctbWV0YWxfYmluZGluZycsICctaW1hZScsICc8aW5maWxlLm1hZT4nLCAnLW9tYWUnLCAnPG91dGZpbGUubWFlPic=

> <r_lp_tautomer_probability>
1

> <r_epik_Ionization_Penalty>
4.05776e-05

> <r_epik_Ionization_Penalty_Charging>
0

> <r_epik_Ionization_Penalty_Neutral>
4.05776e-05

> <r_epik_State_Penalty>
-0

> <r_epik_Charging_Adjusted_Penalty>
0

> <i_epik_Tot_Q>
0

> <i_epik_Tot_abs_Q>
0

> <r_epik_Metal_State_Penalty>
-0

> <b_epik_Metal_Only>
0

> <s_lp_Force_Field>
OPLS_2005

> <r_lp_Energy>
85.3989

> <b_lp_Chiralities_Consistent>
1

> <s_lp_Variant>
AV-unprocessed.smi:2781-3

> <Gold.Version>
5.8.1

> <Gold.Id.Protein>
6NUR|6NUR_protein|mol2

> <Gold.PLP.Fitness>
43.8769

> <Gold.PLP.PLP>
-37.5105

> <Gold.PLP.part.hbond>
-3.0000

> <Gold.PLP.part.metal>
0.0000

> <Gold.PLP.part.buried>
-5.1448

> <Gold.PLP.part.nonpolar>
-30.7713

> <Gold.PLP.part.repulsive>
0.9102

> <Gold.PLP.ligand.clash>
0.0000

> <Gold.PLP.ligand.torsion>
0.0496

> <Gold.PLP.Chemscore.Hbond>
2.1310

> <Gold.PLP.Chemscore.CHOScore>
0.0000

> <Gold.PLP.Chemscore.Metal>
0.0000

> <Gold.Chemscore.Hbonds>
donor molecule, donor type, donor heavy atom, donor atom, acceptor molecule, acceptor atom, score
      L1  H     3    20       P1  8029  1.00
      L1  H    11    24       P1  8029  0.64
      P1  H  6933  6944       L1     1  0.21

> <Gold.PLP.Chemscore.Internal.Correction>
0.0726

> <Gold.Rescore>
     Score         DG    S(hbond)    S(metal)    S(lipo)     H(rot)  DE(clash)    DE(int)     intcor
     20.82     -22.72       2.14        0.00     108.19       1.00       0.57       1.33       ----

> <Gold.Chemscore.Fitness>
20.8193

> <Gold.Chemscore.DG>
-22.7181

> <Gold.Chemscore.ZeroCoef>
-5.4800

> <Gold.Chemscore.Hbond>
2.1377

> <Gold.Chemscore.Metal>
0.0000

> <Gold.Chemscore.Lipo>
108.1891

> <Gold.Chemscore.Internal_Hbond>
0.0000

> <Gold.Chemscore.DEClash>
0.5700

> <Gold.Chemscore.DEInternal>
1.3289

> <Gold.Chemscore.Rot>
1.0000

> <Gold.Chemscore.Internal.Correction>
   9.000000E+99

> <Gold.Chemscore.Hbonds>
donor molecule, donor type, donor heavy atom, donor atom, acceptor molecule, acceptor atom, score
      L1  H     3    20       P1  8029  1.00
      L1  H    11    24       P1  8029  0.57
      P1  H  6933  6944       L1     1  0.12

> <Gold.Chemscore.Hbond.Weighted>
-7.1400

> <Gold.Chemscore.Metal.Weighted>
-0.0000

> <Gold.Chemscore.Lipo.Weighted>
-12.6581

> <Gold.Chemscore.Internal_Hbond.Weighted>
0.0000

> <Gold.Chemscore.DEClash.Weighted>
0.5700

> <Gold.Chemscore.DEInternal.Weighted>
1.3289

> <Gold.Chemscore.Rot.Weighted>
2.5600

> <Gold.Chemscore.Internal.Correction.Weighted>
   9.000000E+99

> <Gold.Protein.RotatedTorsions>
[ 6907 6896 6895 6894 ] final  -42.16 input  -60.11 | X-H torsion
[ 7974 7965 7964 7962 ] final -125.72 input  175.53 | X-H torsion
[ 8008 7997 7996 7995 ] final -128.22 input   59.86 | X-H torsion
[ 10167 10162 10161 10158 ] final -146.86 input  -65.29 | X-H torsion
[ 10718 10713 10712 10709 ] final   57.05 input   66.30 | X-H torsion
[ 10763 10752 10751 10750 ] final  129.65 input  -60.55 | X-H torsion
[ 11005 11000 10999 10996 ] final  165.86 input  -57.11 | X-H torsion

> <Gold.Protein.ActiveResidues>
 VAL166  LYS551  ARG553  GLY616  TRP617  ASP618  TYR619  PRO620  LYS621  CYS622 
 ASP623  PHE694  ASN695  SER759  ASP760  ASP761  ALA762  ILE779  LEU786  VAL792 
 PHE793  MET794  SER795  GLU796  ALA797  LYS798  CYS799  TRP800  GLU811  SER814 

> <Gold.Protein.RotatedAtoms>
  150.9584  134.8975  159.7715 H   0  0  0  0  0  0  0  0  0  0  0  0  # atno 6907 bound_to 6896
  152.5147  134.3707  159.9327 H   0  0  0  0  0  0  0  0  0  0  0  0  # atno 6908 bound_to 6896
  151.3720  133.3811  159.2735 H   0  0  0  0  0  0  0  0  0  0  0  0  # atno 6909 bound_to 6896
  144.9946  140.7764  143.4533 H   0  0  0  0  0  0  0  0  0  0  0  0  # atno 7974 bound_to 7965
  155.2591  140.0435  157.2995 H   0  0  0  0  0  0  0  0  0  0  0  0  # atno 8008 bound_to 7997
  154.5722  140.2377  155.8144 H   0  0  0  0  0  0  0  0  0  0  0  0  # atno 8009 bound_to 7997
  156.2131  140.2993  155.9785 H   0  0  0  0  0  0  0  0  0  0  0  0  # atno 8010 bound_to 7997
  139.7675  143.8287  152.2618 H   0  0  0  0  0  0  0  0  0  0  0  0  # atno 10167 bound_to 10162
  157.5482  130.8746  149.8924 H   0  0  0  0  0  0  0  0  0  0  0  0  # atno 10718 bound_to 10713
  153.7451  135.3218  155.3311 H   0  0  0  0  0  0  0  0  0  0  0  0  # atno 10763 bound_to 10752
  154.8282  135.4554  154.0987 H   0  0  0  0  0  0  0  0  0  0  0  0  # atno 10764 bound_to 10752
  153.2174  135.6943  153.8123 H   0  0  0  0  0  0  0  0  0  0  0  0  # atno 10765 bound_to 10752
  140.2604  134.7906  157.3585 H   0  0  0  0  0  0  0  0  0  0  0  0  # atno 11005 bound_to 11000
  145.2237  139.2147  143.5079 LP  0  0  0  0  0  0  0  0  0  0  0  0  # atno 17320 bound_to 7965
  146.3439  140.2100  142.8590 LP  0  0  0  0  0  0  0  0  0  0  0  0  # atno 17321 bound_to 7965
  139.8311  144.7253  150.9449 LP  0  0  0  0  0  0  0  0  0  0  0  0  # atno 17342 bound_to 10162
  140.7812  143.4069  151.1056 LP  0  0  0  0  0  0  0  0  0  0  0  0  # atno 17343 bound_to 10162
  156.0554  130.3709  150.1103 LP  0  0  0  0  0  0  0  0  0  0  0  0  # atno 17370 bound_to 10713
  156.9278  130.9704  151.3538 LP  0  0  0  0  0  0  0  0  0  0  0  0  # atno 17371 bound_to 10713
  140.1470  134.4899  155.7989 LP  0  0  0  0  0  0  0  0  0  0  0  0  # atno 17394 bound_to 11000
  141.2191  133.6847  156.7311 LP  0  0  0  0  0  0  0  0  0  0  0  0  # atno 17395 bound_to 11000

$$$$
