AV-unprocessed.smi:281|AV-procd|sdf|2101|dock9
  -GOLD-   2262021393D 1   1.00000     0.00000
 Structure written by MMmdl.
 55 59  0  0  0  0  0  0  0  0  1 V2000
  147.5576  133.1255  157.7610 C   0  0  0  0  0  0  0  0  0  0  0  0
  147.4706  134.4678  158.4942 C   0  0  2  0  0  0  0  0  0  0  0  0
  148.7678  135.2815  158.3616 C   0  0  0  0  0  0  0  0  0  0  0  0
  148.6667  136.4954  159.1567 N   0  0  0  0  0  0  0  0  0  0  0  0
  149.6882  137.3546  158.9584 C   0  0  0  0  0  0  0  0  0  0  0  0
  150.9374  137.0417  159.3929 N   0  0  0  0  0  0  0  0  0  0  0  0
  151.9451  137.8964  159.1920 C   0  0  0  0  0  0  0  0  0  0  0  0
  151.9218  139.0891  158.5920 N   0  0  0  0  0  0  0  0  0  0  0  0
  150.6680  139.4000  158.1528 C   0  0  0  0  0  0  0  0  0  0  0  0
  149.5038  138.5952  158.2955 C   0  0  0  0  0  0  0  0  0  0  0  0
  148.4069  139.2347  157.7333 N   0  0  0  0  0  0  0  0  0  0  0  0
  148.8957  140.3583  157.2827 C   0  0  0  0  0  0  0  0  0  0  0  0
  150.2467  140.5361  157.4843 N   0  0  0  0  0  0  0  0  0  0  0  0
  151.0458  141.6833  157.0829 C   0  0  0  0  0  0  0  0  0  0  0  0
  151.1832  142.7545  158.1899 C   0  0  1  0  0  0  0  0  0  0  0  0
  149.9564  142.8561  158.8917 O   0  0  0  0  0  0  0  0  0  0  0  0
  152.2942  142.4715  159.1981 C   0  0  0  0  0  0  0  0  0  0  0  0
  152.7760  143.8653  159.5751 C   0  0  0  0  0  0  0  0  0  0  0  0
  152.7304  144.5499  158.3354 O   0  0  0  0  0  0  0  0  0  0  0  0
  151.5517  144.1491  157.6447 C   0  0  0  0  0  0  0  0  0  0  0  0
  148.3829  136.2214  160.5591 C   0  0  0  0  0  0  0  0  0  0  0  0
  147.1043  135.3651  160.7089 C   0  0  2  0  0  0  0  0  0  0  0  0
  145.8096  136.1323  160.4026 C   0  0  0  0  0  0  0  0  0  0  0  0
  145.1424  136.3120  161.7600 C   0  0  0  0  0  0  0  0  0  0  0  0
  145.5249  135.1372  162.4499 O   0  0  0  0  0  0  0  0  0  0  0  0
  146.9049  134.9385  162.1833 C   0  0  1  0  0  0  0  0  0  0  0  0
  147.3205  133.5022  162.5315 C   0  0  0  0  0  0  0  0  0  0  0  0
  147.2145  134.2036  159.8748 O   0  0  0  0  0  0  0  0  0  0  0  0
  147.7432  133.2714  156.6965 H   0  0  0  0  0  0  0  0  0  0  0  0
  146.6277  132.5655  157.8625 H   0  0  0  0  0  0  0  0  0  0  0  0
  148.3632  132.5086  158.1604 H   0  0  0  0  0  0  0  0  0  0  0  0
  146.6436  135.0368  158.0682 H   0  0  0  0  0  0  0  0  0  0  0  0
  149.6197  134.6899  158.7008 H   0  0  0  0  0  0  0  0  0  0  0  0
  148.9455  135.5360  157.3155 H   0  0  0  0  0  0  0  0  0  0  0  0
  152.9080  137.5795  159.5646 H   0  0  0  0  0  0  0  0  0  0  0  0
  148.2793  141.0917  156.7837 H   0  0  0  0  0  0  0  0  0  0  0  0
  152.0314  141.3211  156.7872 H   0  0  0  0  0  0  0  0  0  0  0  0
  150.6005  142.1196  156.1876 H   0  0  0  0  0  0  0  0  0  0  0  0
  149.2760  143.0816  158.2759 H   0  0  0  0  0  0  0  0  0  0  0  0
  151.9724  141.8793  160.0561 H   0  0  0  0  0  0  0  0  0  0  0  0
  153.1147  141.9391  158.7157 H   0  0  0  0  0  0  0  0  0  0  0  0
  152.0968  144.3396  160.2854 H   0  0  0  0  0  0  0  0  0  0  0  0
  153.7800  143.8657  160.0000 H   0  0  0  0  0  0  0  0  0  0  0  0
  151.7508  144.1384  156.5726 H   0  0  0  0  0  0  0  0  0  0  0  0
  150.7616  144.8808  157.8214 H   0  0  0  0  0  0  0  0  0  0  0  0
  149.2290  135.6899  160.9980 H   0  0  0  0  0  0  0  0  0  0  0  0
  148.2773  137.1598  161.1056 H   0  0  0  0  0  0  0  0  0  0  0  0
  145.9732  137.0817  159.8914 H   0  0  0  0  0  0  0  0  0  0  0  0
  145.1515  135.5304  159.7749 H   0  0  0  0  0  0  0  0  0  0  0  0
  145.5326  137.1902  162.2771 H   0  0  0  0  0  0  0  0  0  0  0  0
  144.0584  136.4041  161.6891 H   0  0  0  0  0  0  0  0  0  0  0  0
  147.4484  135.6244  162.8362 H   0  0  0  0  0  0  0  0  0  0  0  0
  148.3745  133.3355  162.3083 H   0  0  0  0  0  0  0  0  0  0  0  0
  146.7368  132.7700  161.9732 H   0  0  0  0  0  0  0  0  0  0  0  0
  147.1695  133.3028  163.5926 H   0  0  0  0  0  0  0  0  0  0  0  0
  1  2  1  0  0  0  0
  1 29  1  0  0  0  0
  1 30  1  0  0  0  0
  1 31  1  0  0  0  0
  2 28  1  0  0  0  0
  2  3  1  0  0  0  0
  2 32  1  0  0  0  0
  3  4  1  0  0  0  0
  3 33  1  0  0  0  0
  3 34  1  0  0  0  0
  4  5  1  0  0  0  0
  4 21  1  0  0  0  0
  5 10  1  0  0  0  0
  5  6  2  0  0  0  0
  6  7  1  0  0  0  0
  7  8  2  0  0  0  0
  7 35  1  0  0  0  0
  8  9  1  0  0  0  0
  9 13  1  0  0  0  0
  9 10  2  0  0  0  0
 10 11  1  0  0  0  0
 11 12  2  0  0  0  0
 12 13  1  0  0  0  0
 12 36  1  0  0  0  0
 13 14  1  0  0  0  0
 14 15  1  0  0  0  0
 14 37  1  0  0  0  0
 14 38  1  0  0  0  0
 15 20  1  0  0  0  0
 15 16  1  0  0  0  0
 15 17  1  0  0  0  0
 16 39  1  0  0  0  0
 17 18  1  0  0  0  0
 17 40  1  0  0  0  0
 17 41  1  0  0  0  0
 18 19  1  0  0  0  0
 18 42  1  0  0  0  0
 18 43  1  0  0  0  0
 19 20  1  0  0  0  0
 20 44  1  0  0  0  0
 20 45  1  0  0  0  0
 21 22  1  0  0  0  0
 21 46  1  0  0  0  0
 21 47  1  0  0  0  0
 22 26  1  0  0  0  0
 22 23  1  0  0  0  0
 22 28  1  0  0  0  0
 23 24  1  0  0  0  0
 23 48  1  0  0  0  0
 23 49  1  0  0  0  0
 24 25  1  0  0  0  0
 24 50  1  0  0  0  0
 24 51  1  0  0  0  0
 25 26  1  0  0  0  0
 26 27  1  0  0  0  0
 26 52  1  0  0  0  0
 27 53  1  0  0  0  0
 27 54  1  0  0  0  0
 27 55  1  0  0  0  0
M  END
> <s_m_source_file>
AV-unprocessed.smi

> <i_m_source_file_index>
281

> <i_lp_mmshare_version>
43012

> <i_f3d_flags>
0

> <s_epik_input>
W0NIM11bQ0BASF0xT1tDSDJdW0NIMl1bQ0BAXTEyW0NIMl1OKFtDSDJdW0NASF0oTzIpW0NIM10pYyhuW2NIXW4zKWMoYzM0KW5bY0hdbjRbQ0gyXVtDQEBdNShbT0hdKVtDSDJdW0NIMl1PW0NIMl01

> <s_epik_cmdline>
J2VwaWtfcHl0aG9uJywgJy1waCcsICc3LjAnLCAnLXRuJywgJzgnLCAnLW1hJywgJzIwMCcsICctbWV0YWxfYmluZGluZycsICctaW1hZScsICc8aW5maWxlLm1hZT4nLCAnLW9tYWUnLCAnPG91dGZpbGUubWFlPic=

> <r_lp_tautomer_probability>
1

> <r_epik_Ionization_Penalty>
0.00571331

> <r_epik_Ionization_Penalty_Charging>
0

> <r_epik_Ionization_Penalty_Neutral>
0.00571331

> <r_epik_State_Penalty>
0.00399586

> <r_epik_Charging_Adjusted_Penalty>
0.00399586

> <i_epik_Tot_Q>
0

> <i_epik_Tot_abs_Q>
0

> <r_epik_Metal_State_Penalty>
-0

> <b_epik_Metal_Only>
0

> <s_lp_Force_Field>
OPLS_2005

> <r_lp_Energy>
53.2983

> <b_lp_Chiralities_Consistent>
1

> <s_lp_Variant>
AV-unprocessed.smi:281-1

> <Gold.Version>
5.8.1

> <Gold.Id.Protein>
6NUR|6NUR_protein|mol2

> <Gold.PLP.Fitness>
42.9374

> <Gold.PLP.PLP>
-41.4295

> <Gold.PLP.part.hbond>
-1.4203

> <Gold.PLP.part.metal>
0.0000

> <Gold.PLP.part.buried>
-8.4889

> <Gold.PLP.part.nonpolar>
-32.7069

> <Gold.PLP.part.repulsive>
0.0112

> <Gold.PLP.ligand.clash>
0.0000

> <Gold.PLP.ligand.torsion>
0.7914

> <Gold.PLP.Chemscore.Hbond>
0.9913

> <Gold.PLP.Chemscore.CHOScore>
0.0000

> <Gold.PLP.Chemscore.Metal>
0.0000

> <Gold.Chemscore.Hbonds>
donor molecule, donor type, donor heavy atom, donor atom, acceptor molecule, acceptor atom, score
      P1  H  6896  6908       L1     6  0.96

> <Gold.PLP.Chemscore.Internal.Correction>
0.1170

> <Gold.Rescore>
     Score         DG    S(hbond)    S(metal)    S(lipo)     H(rot)  DE(clash)    DE(int)     intcor
     13.86     -14.80       0.93        0.00      98.80       2.09       0.02       0.93       ----

> <Gold.Chemscore.Fitness>
13.8557

> <Gold.Chemscore.DG>
-14.8033

> <Gold.Chemscore.ZeroCoef>
-5.4800

> <Gold.Chemscore.Hbond>
0.9345

> <Gold.Chemscore.Metal>
0.0000

> <Gold.Chemscore.Lipo>
98.7985

> <Gold.Chemscore.Internal_Hbond>
0.0000

> <Gold.Chemscore.DEClash>
0.0174

> <Gold.Chemscore.DEInternal>
0.9302

> <Gold.Chemscore.Rot>
2.0927

> <Gold.Chemscore.Internal.Correction>
   9.000000E+99

> <Gold.Chemscore.Hbonds>
donor molecule, donor type, donor heavy atom, donor atom, acceptor molecule, acceptor atom, score
      P1  H  6896  6908       L1     6  0.65

> <Gold.Chemscore.Hbond.Weighted>
-3.1212

> <Gold.Chemscore.Metal.Weighted>
-0.0000

> <Gold.Chemscore.Lipo.Weighted>
-11.5594

> <Gold.Chemscore.Internal_Hbond.Weighted>
0.0000

> <Gold.Chemscore.DEClash.Weighted>
0.0174

> <Gold.Chemscore.DEInternal.Weighted>
0.9302

> <Gold.Chemscore.Rot.Weighted>
5.3573

> <Gold.Chemscore.Internal.Correction.Weighted>
   9.000000E+99

> <Gold.Protein.RotatedTorsions>
[ 6907 6896 6895 6894 ] final -154.39 input  -60.11 | X-H torsion
[ 7974 7965 7964 7962 ] final -105.41 input  175.53 | X-H torsion
[ 8008 7997 7996 7995 ] final  -81.20 input   59.86 | X-H torsion
[ 10167 10162 10161 10158 ] final   73.37 input  -65.29 | X-H torsion
[ 10718 10713 10712 10709 ] final  126.84 input   66.30 | X-H torsion
[ 10763 10752 10751 10750 ] final  -91.51 input  -60.55 | X-H torsion
[ 11005 11000 10999 10996 ] final  169.66 input  -57.11 | X-H torsion

> <Gold.Protein.ActiveResidues>
 VAL166  LYS551  ARG553  GLY616  TRP617  ASP618  TYR619  PRO620  LYS621  CYS622 
 ASP623  PHE694  ASN695  SER759  ASP760  ASP761  ALA762  ILE779  LEU786  VAL792 
 PHE793  MET794  SER795  GLU796  ALA797  LYS798  CYS799  TRP800  GLU811  SER814 

> <Gold.Protein.RotatedAtoms>
  151.2568  133.4322  159.2613 H   0  0  0  0  0  0  0  0  0  0  0  0  # atno 6907 bound_to 6896
  151.0567  134.9710  159.8250 H   0  0  0  0  0  0  0  0  0  0  0  0  # atno 6908 bound_to 6896
  152.5392  134.2520  159.8955 H   0  0  0  0  0  0  0  0  0  0  0  0  # atno 6909 bound_to 6896
  145.2308  140.9170  143.3205 H   0  0  0  0  0  0  0  0  0  0  0  0  # atno 7974 bound_to 7965
  154.5959  140.0651  156.9303 H   0  0  0  0  0  0  0  0  0  0  0  0  # atno 8008 bound_to 7997
  155.2215  140.3330  155.4297 H   0  0  0  0  0  0  0  0  0  0  0  0  # atno 8009 bound_to 7997
  156.2287  140.1831  156.7282 H   0  0  0  0  0  0  0  0  0  0  0  0  # atno 8010 bound_to 7997
  140.0252  144.5509  150.7550 H   0  0  0  0  0  0  0  0  0  0  0  0  # atno 10167 bound_to 10162
  157.5384  131.1097  150.8898 H   0  0  0  0  0  0  0  0  0  0  0  0  # atno 10718 bound_to 10713
  154.6768  135.5265  153.8210 H   0  0  0  0  0  0  0  0  0  0  0  0  # atno 10763 bound_to 10752
  153.0537  135.6542  154.0638 H   0  0  0  0  0  0  0  0  0  0  0  0  # atno 10764 bound_to 10752
  154.0531  135.2968  155.3317 H   0  0  0  0  0  0  0  0  0  0  0  0  # atno 10765 bound_to 10752
  140.3001  134.7602  157.3909 H   0  0  0  0  0  0  0  0  0  0  0  0  # atno 11005 bound_to 11000
  144.9678  139.3912  143.6324 LP  0  0  0  0  0  0  0  0  0  0  0  0  # atno 17320 bound_to 7965
  146.3353  139.8761  142.8832 LP  0  0  0  0  0  0  0  0  0  0  0  0  # atno 17321 bound_to 7965
  140.7325  143.2707  151.3899 LP  0  0  0  0  0  0  0  0  0  0  0  0  # atno 17342 bound_to 10162
  139.6113  144.1093  152.2301 LP  0  0  0  0  0  0  0  0  0  0  0  0  # atno 17343 bound_to 10162
  156.9458  130.5401  149.5281 LP  0  0  0  0  0  0  0  0  0  0  0  0  # atno 17370 bound_to 10713
  156.0477  130.5551  150.8919 LP  0  0  0  0  0  0  0  0  0  0  0  0  # atno 17371 bound_to 10713
  140.1117  134.5337  155.8260 LP  0  0  0  0  0  0  0  0  0  0  0  0  # atno 17394 bound_to 11000
  141.2130  133.6727  156.6701 LP  0  0  0  0  0  0  0  0  0  0  0  0  # atno 17395 bound_to 11000

$$$$
