AV-unprocessed.smi:877|AV-procd|sdf|4027|dock9
  -GOLD-   22720 1513D 1   1.00000     0.00000
 Structure written by MMmdl.
 43 45  0  0  0  0  0  0  0  0  1 V2000
  153.5041  142.8782  163.6953 C   0  0  0  0  0  0  0  0  0  0  0  0
  153.0783  143.8316  162.7329 O   0  0  0  0  0  0  0  0  0  0  0  0
  152.7158  143.3749  161.4839 C   0  0  0  0  0  0  0  0  0  0  0  0
  153.0191  142.0812  160.9893 C   0  0  0  0  0  0  0  0  0  0  0  0
  152.6076  141.6960  159.6987 C   0  0  0  0  0  0  0  0  0  0  0  0
  151.8897  142.5935  158.8829 C   0  0  0  0  0  0  0  0  0  0  0  0
  151.4456  142.1790  157.4906 C   0  0  0  0  0  0  0  0  0  0  0  0
  150.5079  141.0032  157.4956 C   0  0  0  0  0  0  0  0  0  0  0  0
  150.7254  139.9358  158.2670 N   0  0  0  0  0  0  0  0  0  0  0  0
  149.6531  139.1182  157.9716 C   0  0  0  0  0  0  0  0  0  0  0  0
  149.3069  137.8417  158.4696 C   0  0  0  0  0  0  0  0  0  0  0  0
  148.1425  137.1894  158.0139 C   0  0  0  0  0  0  0  0  0  0  0  0
  147.3101  137.8027  157.0554 C   0  0  0  0  0  0  0  0  0  0  0  0
  147.6385  139.0733  156.5449 C   0  0  0  0  0  0  0  0  0  0  0  0
  148.8017  139.7207  157.0036 C   0  0  0  0  0  0  0  0  0  0  0  0
  149.3974  140.9454  156.7150 N   0  0  0  0  0  0  0  0  0  0  0  0
  148.9051  141.9320  155.7616 C   0  0  0  0  0  0  0  0  0  0  0  0
  148.5572  141.3184  154.3906 C   0  0  2  0  0  0  0  0  0  0  0  0
  149.7283  141.2583  153.5987 O   0  0  0  0  0  0  0  0  0  0  0  0
  147.5015  142.1525  153.6461 C   0  0  0  0  0  0  0  0  0  0  0  0
  147.0869  141.4818  152.4752 O   0  0  0  0  0  0  0  0  0  0  0  0
  151.5871  143.8813  159.3687 C   0  0  0  0  0  0  0  0  0  0  0  0
  151.9976  144.2650  160.6595 C   0  0  0  0  0  0  0  0  0  0  0  0
  153.7484  143.3909  164.6255 H   0  0  0  0  0  0  0  0  0  0  0  0
  154.3998  142.3504  163.3646 H   0  0  0  0  0  0  0  0  0  0  0  0
  152.7176  142.1548  163.9143 H   0  0  0  0  0  0  0  0  0  0  0  0
  153.5666  141.3640  161.5817 H   0  0  0  0  0  0  0  0  0  0  0  0
  152.8452  140.7055  159.3390 H   0  0  0  0  0  0  0  0  0  0  0  0
  150.9884  143.0465  157.0184 H   0  0  0  0  0  0  0  0  0  0  0  0
  152.3142  141.9221  156.8836 H   0  0  0  0  0  0  0  0  0  0  0  0
  149.9378  137.3641  159.2045 H   0  0  0  0  0  0  0  0  0  0  0  0
  147.8867  136.2144  158.4021 H   0  0  0  0  0  0  0  0  0  0  0  0
  146.4192  137.2974  156.7119 H   0  0  0  0  0  0  0  0  0  0  0  0
  147.0011  139.5451  155.8118 H   0  0  0  0  0  0  0  0  0  0  0  0
  148.0384  142.4339  156.1922 H   0  0  0  0  0  0  0  0  0  0  0  0
  149.6628  142.7075  155.6425 H   0  0  0  0  0  0  0  0  0  0  0  0
  148.1836  140.3045  154.5349 H   0  0  0  0  0  0  0  0  0  0  0  0
  149.6045  140.6013  152.9305 H   0  0  0  0  0  0  0  0  0  0  0  0
  146.6205  142.2926  154.2732 H   0  0  0  0  0  0  0  0  0  0  0  0
  147.8798  143.1447  153.3964 H   0  0  0  0  0  0  0  0  0  0  0  0
  147.8520  141.1164  152.0571 H   0  0  0  0  0  0  0  0  0  0  0  0
  151.0353  144.5780  158.7552 H   0  0  0  0  0  0  0  0  0  0  0  0
  151.7575  145.2538  161.0219 H   0  0  0  0  0  0  0  0  0  0  0  0
  1  2  1  0  0  0  0
  1 24  1  0  0  0  0
  1 25  1  0  0  0  0
  1 26  1  0  0  0  0
  2  3  1  0  0  0  0
  3 23  1  0  0  0  0
  3  4  2  0  0  0  0
  4  5  1  0  0  0  0
  4 27  1  0  0  0  0
  5  6  2  0  0  0  0
  5 28  1  0  0  0  0
  6  7  1  0  0  0  0
  6 22  1  0  0  0  0
  7  8  1  0  0  0  0
  7 29  1  0  0  0  0
  7 30  1  0  0  0  0
  8 16  1  0  0  0  0
  8  9  2  0  0  0  0
  9 10  1  0  0  0  0
 10 15  2  0  0  0  0
 10 11  1  0  0  0  0
 11 12  2  0  0  0  0
 11 31  1  0  0  0  0
 12 13  1  0  0  0  0
 12 32  1  0  0  0  0
 13 14  2  0  0  0  0
 13 33  1  0  0  0  0
 14 15  1  0  0  0  0
 14 34  1  0  0  0  0
 15 16  1  0  0  0  0
 16 17  1  0  0  0  0
 17 18  1  0  0  0  0
 17 35  1  0  0  0  0
 17 36  1  0  0  0  0
 18 19  1  0  0  0  0
 18 20  1  0  0  0  0
 18 37  1  0  0  0  0
 19 38  1  0  0  0  0
 20 21  1  0  0  0  0
 20 39  1  0  0  0  0
 20 40  1  0  0  0  0
 21 41  1  0  0  0  0
 22 23  2  0  0  0  0
 22 42  1  0  0  0  0
 23 43  1  0  0  0  0
M  END
> <s_m_source_file>
AV-unprocessed.smi

> <i_m_source_file_index>
877

> <i_lp_mmshare_version>
43012

> <i_f3d_flags>
0

> <s_epik_input>
W0NIM11PYzFbY0hdW2NIXWMoW2NIXVtjSF0xKVtDSDJdYyhuMiluKFtDSDJdW0NASF0oW09IXSlbQ0gyXVtPSF0pYyhjMjMpW2NIXVtjSF1bY0hdW2NIXTM=

> <s_epik_cmdline>
J2VwaWtfcHl0aG9uJywgJy1waCcsICc3LjAnLCAnLXRuJywgJzgnLCAnLW1hJywgJzIwMCcsICctbWV0YWxfYmluZGluZycsICctaW1hZScsICc8aW5maWxlLm1hZT4nLCAnLW9tYWUnLCAnPG91dGZpbGUubWFlPic=

> <r_lp_tautomer_probability>
1

> <r_epik_Ionization_Penalty>
0.0616669

> <r_epik_Ionization_Penalty_Charging>
0

> <r_epik_Ionization_Penalty_Neutral>
0.0616669

> <r_epik_State_Penalty>
0.0535415

> <r_epik_Charging_Adjusted_Penalty>
0.0535415

> <i_epik_Tot_Q>
0

> <i_epik_Tot_abs_Q>
0

> <r_epik_Metal_State_Penalty>
5.60326e-05

> <b_epik_Metal_Only>
0

> <s_lp_Force_Field>
OPLS_2005

> <r_lp_Energy>
20.6154

> <b_lp_Chiralities_Consistent>
1

> <s_lp_Variant>
AV-unprocessed.smi:877-1

> <Gold.Version>
5.8.1

> <Gold.Id.Protein>
6NUR|6NUR_protein|mol2

> <Gold.PLP.Fitness>
50.2664

> <Gold.PLP.PLP>
-42.9837

> <Gold.PLP.part.hbond>
-3.9450

> <Gold.PLP.part.metal>
0.0000

> <Gold.PLP.part.buried>
-5.3345

> <Gold.PLP.part.nonpolar>
-32.1323

> <Gold.PLP.part.repulsive>
0.1752

> <Gold.PLP.ligand.clash>
0.0000

> <Gold.PLP.ligand.torsion>
0.8275

> <Gold.PLP.Chemscore.Hbond>
2.9648

> <Gold.PLP.Chemscore.CHOScore>
0.0000

> <Gold.PLP.Chemscore.Metal>
0.0000

> <Gold.Chemscore.Hbonds>
donor molecule, donor type, donor heavy atom, donor atom, acceptor molecule, acceptor atom, score
      L1  H    19    38       P1  7957  1.00
      L1  H    21    41       P1  7957  0.54
      P1  H  7989  7998       L1    19  0.07
      P1  H  8011  8017       L1    19  0.31

> <Gold.PLP.Chemscore.Internal.Correction>
0.0434

> <Gold.Rescore>
     Score         DG    S(hbond)    S(metal)    S(lipo)     H(rot)  DE(clash)    DE(int)     intcor
     15.42     -17.63       2.09        0.00     113.13       3.15       0.30       1.91       ----

> <Gold.Chemscore.Fitness>
15.4167

> <Gold.Chemscore.DG>
-17.6269

> <Gold.Chemscore.ZeroCoef>
-5.4800

> <Gold.Chemscore.Hbond>
2.0873

> <Gold.Chemscore.Metal>
0.0000

> <Gold.Chemscore.Lipo>
113.1288

> <Gold.Chemscore.Internal_Hbond>
0.0000

> <Gold.Chemscore.DEClash>
0.2955

> <Gold.Chemscore.DEInternal>
1.9147

> <Gold.Chemscore.Rot>
3.1488

> <Gold.Chemscore.Internal.Correction>
   9.000000E+99

> <Gold.Chemscore.Hbonds>
donor molecule, donor type, donor heavy atom, donor atom, acceptor molecule, acceptor atom, score
      L1  H    19    38       P1  7957  0.95
      L1  H    21    41       P1  7957  0.54
      P1  H  8011  8017       L1    19  0.01

> <Gold.Chemscore.Hbond.Weighted>
-6.9716

> <Gold.Chemscore.Metal.Weighted>
-0.0000

> <Gold.Chemscore.Lipo.Weighted>
-13.2361

> <Gold.Chemscore.Internal_Hbond.Weighted>
0.0000

> <Gold.Chemscore.DEClash.Weighted>
0.2955

> <Gold.Chemscore.DEInternal.Weighted>
1.9147

> <Gold.Chemscore.Rot.Weighted>
8.0608

> <Gold.Chemscore.Internal.Correction.Weighted>
   9.000000E+99

> <Gold.Protein.RotatedTorsions>
[ 6907 6896 6895 6894 ] final  123.84 input  -60.11 | X-H torsion
[ 7974 7965 7964 7962 ] final -159.46 input  175.53 | X-H torsion
[ 8008 7997 7996 7995 ] final   66.18 input   59.86 | X-H torsion
[ 10167 10162 10161 10158 ] final -121.76 input  -65.29 | X-H torsion
[ 10718 10713 10712 10709 ] final  -39.19 input   66.30 | X-H torsion
[ 10763 10752 10751 10750 ] final   78.16 input  -60.55 | X-H torsion
[ 11005 11000 10999 10996 ] final  -11.31 input  -57.11 | X-H torsion

> <Gold.Protein.ActiveResidues>
 VAL166  LYS551  ARG553  GLY616  TRP617  ASP618  TYR619  PRO620  LYS621  CYS622 
 ASP623  PHE694  ASN695  SER759  ASP760  ASP761  ALA762  ILE779  LEU786  VAL792 
 PHE793  MET794  SER795  GLU796  ALA797  LYS798  CYS799  TRP800  GLU811  SER814 

> <Gold.Protein.RotatedAtoms>
  152.4128  133.6990  159.6412 H   0  0  0  0  0  0  0  0  0  0  0  0  # atno 6907 bound_to 6896
  150.8007  133.8593  159.3236 H   0  0  0  0  0  0  0  0  0  0  0  0  # atno 6908 bound_to 6896
  151.6331  135.1022  160.0177 H   0  0  0  0  0  0  0  0  0  0  0  0  # atno 6909 bound_to 6896
  144.7464  140.3681  143.6081 H   0  0  0  0  0  0  0  0  0  0  0  0  # atno 7974 bound_to 7965
  155.6733  140.3497  155.4826 H   0  0  0  0  0  0  0  0  0  0  0  0  # atno 8008 bound_to 7997
  155.9670  140.1148  157.0869 H   0  0  0  0  0  0  0  0  0  0  0  0  # atno 8009 bound_to 7997
  154.4157  140.1164  156.5241 H   0  0  0  0  0  0  0  0  0  0  0  0  # atno 8010 bound_to 7997
  140.0215  143.5339  152.2218 H   0  0  0  0  0  0  0  0  0  0  0  0  # atno 10167 bound_to 10162
  156.2952  130.4233  149.8198 H   0  0  0  0  0  0  0  0  0  0  0  0  # atno 10718 bound_to 10713
  153.0853  135.4887  154.8584 H   0  0  0  0  0  0  0  0  0  0  0  0  # atno 10763 bound_to 10752
  154.7202  135.3038  154.9061 H   0  0  0  0  0  0  0  0  0  0  0  0  # atno 10764 bound_to 10752
  153.9728  135.6799  153.4800 H   0  0  0  0  0  0  0  0  0  0  0  0  # atno 10765 bound_to 10752
  140.7539  133.8570  155.9068 H   0  0  0  0  0  0  0  0  0  0  0  0  # atno 11005 bound_to 11000
  145.7106  139.1684  143.2541 LP  0  0  0  0  0  0  0  0  0  0  0  0  # atno 17320 bound_to 7965
  146.1349  140.7135  142.9394 LP  0  0  0  0  0  0  0  0  0  0  0  0  # atno 17321 bound_to 7965
  139.6136  144.7614  151.2896 LP  0  0  0  0  0  0  0  0  0  0  0  0  # atno 17342 bound_to 10162
  140.7340  143.6778  150.8027 LP  0  0  0  0  0  0  0  0  0  0  0  0  # atno 17343 bound_to 10162
  156.5596  130.8377  151.3325 LP  0  0  0  0  0  0  0  0  0  0  0  0  # atno 17370 bound_to 10713
  157.7353  130.9760  150.2076 LP  0  0  0  0  0  0  0  0  0  0  0  0  # atno 17371 bound_to 10713
  140.9725  134.1512  157.4564 LP  0  0  0  0  0  0  0  0  0  0  0  0  # atno 17394 bound_to 11000
  139.8782  134.9983  156.5895 LP  0  0  0  0  0  0  0  0  0  0  0  0  # atno 17395 bound_to 11000

$$$$
