AV-unprocessed.smi:359|AV-procd|sdf|2418|dock4
  -GOLD-   2262022353D 1   1.00000     0.00000
 Structure written by MMmdl.
 33 34  0  0  0  0  0  0  0  0  1 V2000
  146.7036  139.1143  151.4112 C   0  0  0  0  0  0  0  0  0  0  0  0
  146.6452  140.0770  152.4976 N   0  0  0  0  0  0  0  0  0  0  0  0
  147.4219  140.1068  153.6485 C   0  0  0  0  0  0  0  0  0  0  0  0
  148.4511  139.1160  153.9219 C   0  0  0  0  0  0  0  0  0  0  0  0
  149.1756  139.1383  154.9866 N   0  0  0  0  0  0  0  0  0  0  0  0
  148.9874  140.1395  155.9182 N   0  0  0  0  0  0  0  0  0  0  0  0
  149.8980  140.0655  157.0668 C   0  0  0  0  0  0  0  0  0  0  0  0
  151.3698  140.1792  156.6365 C   0  0  0  0  0  0  0  0  0  0  0  0
  152.1593  140.5154  157.7703 O   0  0  0  0  0  0  0  0  0  0  0  0
  152.0172  141.7720  158.3176 C   0  0  0  0  0  0  0  0  0  0  0  0
  152.7425  142.0407  159.4968 C   0  0  0  0  0  0  0  0  0  0  0  0
  152.6612  143.2995  160.1228 C   0  0  0  0  0  0  0  0  0  0  0  0
  151.8470  144.3071  159.5727 C   0  0  0  0  0  0  0  0  0  0  0  0
  151.7480  145.8519  160.3349 Cl  0  0  0  0  0  0  0  0  0  0  0  0
  151.1135  144.0509  158.3989 C   0  0  0  0  0  0  0  0  0  0  0  0
  151.1958  142.7915  157.7728 C   0  0  0  0  0  0  0  0  0  0  0  0
  148.0634  141.1396  155.8094 C   0  0  0  0  0  0  0  0  0  0  0  0
  147.9348  142.0151  156.6663 O   0  0  0  0  0  0  0  0  0  0  0  0
  147.2516  141.0783  154.5852 C   0  0  0  0  0  0  0  0  0  0  0  0
  146.0518  142.3077  154.3619 Cl  0  0  0  0  0  0  0  0  0  0  0  0
  145.9751  139.3732  150.6429 H   0  0  0  0  0  0  0  0  0  0  0  0
  146.4792  138.1105  151.7729 H   0  0  0  0  0  0  0  0  0  0  0  0
  147.6945  139.1098  150.9563 H   0  0  0  0  0  0  0  0  0  0  0  0
  145.9712  140.8207  152.3790 H   0  0  0  0  0  0  0  0  0  0  0  0
  148.5811  138.3397  153.1683 H   0  0  0  0  0  0  0  0  0  0  0  0
  149.6617  140.8554  157.7819 H   0  0  0  0  0  0  0  0  0  0  0  0
  149.7479  139.1312  157.6110 H   0  0  0  0  0  0  0  0  0  0  0  0
  151.7082  139.2415  156.1931 H   0  0  0  0  0  0  0  0  0  0  0  0
  151.4632  140.9602  155.8807 H   0  0  0  0  0  0  0  0  0  0  0  0
  153.3705  141.2735  159.9253 H   0  0  0  0  0  0  0  0  0  0  0  0
  153.2250  143.4898  161.0241 H   0  0  0  0  0  0  0  0  0  0  0  0
  150.4853  144.8209  157.9756 H   0  0  0  0  0  0  0  0  0  0  0  0
  150.6177  142.6327  156.8753 H   0  0  0  0  0  0  0  0  0  0  0  0
  1  2  1  0  0  0  0
  1 21  1  0  0  0  0
  1 22  1  0  0  0  0
  1 23  1  0  0  0  0
  2  3  1  0  0  0  0
  2 24  1  0  0  0  0
  3 19  2  0  0  0  0
  3  4  1  0  0  0  0
  4  5  2  0  0  0  0
  4 25  1  0  0  0  0
  5  6  1  0  0  0  0
  6  7  1  0  0  0  0
  6 17  1  0  0  0  0
  7  8  1  0  0  0  0
  7 26  1  0  0  0  0
  7 27  1  0  0  0  0
  8  9  1  0  0  0  0
  8 28  1  0  0  0  0
  8 29  1  0  0  0  0
  9 10  1  0  0  0  0
 10 16  1  0  0  0  0
 10 11  2  0  0  0  0
 11 12  1  0  0  0  0
 11 30  1  0  0  0  0
 12 13  2  0  0  0  0
 12 31  1  0  0  0  0
 13 14  1  0  0  0  0
 13 15  1  0  0  0  0
 15 16  2  0  0  0  0
 15 32  1  0  0  0  0
 16 33  1  0  0  0  0
 17 18  2  0  0  0  0
 17 19  1  0  0  0  0
 19 20  1  0  0  0  0
M  END
> <s_m_source_file>
AV-unprocessed.smi

> <i_m_source_file_index>
359

> <i_lp_mmshare_version>
43012

> <i_f3d_flags>
0

> <s_epik_input>
W0NIM11bTkhdYzFbY0hdbm4oYyg9TyljMUNsKVtDSDJdW0NIMl1PYzJbY0hdW2NIXWMoQ2wpW2NIXVtjSF0y

> <s_epik_cmdline>
J2VwaWtfcHl0aG9uJywgJy1waCcsICc3LjAnLCAnLXRuJywgJzgnLCAnLW1hJywgJzIwMCcsICctbWV0YWxfYmluZGluZycsICctaW1hZScsICc8aW5maWxlLm1hZT4nLCAnLW9tYWUnLCAnPG91dGZpbGUubWFlPic=

> <r_lp_tautomer_probability>
1

> <r_epik_Ionization_Penalty>
1.57682e-05

> <r_epik_Ionization_Penalty_Charging>
1.04488e-09

> <r_epik_Ionization_Penalty_Neutral>
1.57671e-05

> <r_epik_State_Penalty>
-0

> <r_epik_Charging_Adjusted_Penalty>
1.04488e-09

> <i_epik_Tot_Q>
0

> <i_epik_Tot_abs_Q>
0

> <r_epik_Metal_State_Penalty>
-0

> <b_epik_Metal_Only>
0

> <s_lp_Force_Field>
OPLS_2005

> <r_lp_Energy>
30.271

> <b_lp_Chiralities_Consistent>
1

> <s_lp_Variant>
AV-unprocessed.smi:359-1

> <Gold.Version>
5.8.1

> <Gold.Id.Protein>
6NUR|6NUR_protein|mol2

> <Gold.PLP.Fitness>
43.6027

> <Gold.PLP.PLP>
-40.4424

> <Gold.PLP.part.hbond>
-1.6363

> <Gold.PLP.part.metal>
0.0000

> <Gold.PLP.part.buried>
-1.5799

> <Gold.PLP.part.nonpolar>
-38.8458

> <Gold.PLP.part.repulsive>
1.9731

> <Gold.PLP.ligand.clash>
0.0000

> <Gold.PLP.ligand.torsion>
0.1179

> <Gold.PLP.Chemscore.Hbond>
0.0000

> <Gold.PLP.Chemscore.CHOScore>
1.1303

> <Gold.PLP.Chemscore.Metal>
0.0000

> <Gold.Chemscore.Hbonds>
donor molecule, donor type, donor heavy atom, donor atom, acceptor molecule, acceptor atom, score
      L1  H     2    24       P1 10175  0.13
      L1  C     4    25       P1  7948  1.00
      L1  C     4    25       P1  7957  0.10

> <Gold.PLP.Chemscore.Internal.Correction>
0.0052

> <Gold.Rescore>
     Score         DG    S(hbond)    S(metal)    S(lipo)     H(rot)  DE(clash)    DE(int)     intcor
     15.70     -15.93       0.18        0.00     118.63       1.58       0.08       0.16       ----

> <Gold.Chemscore.Fitness>
15.6960

> <Gold.Chemscore.DG>
-15.9332

> <Gold.Chemscore.ZeroCoef>
-5.4800

> <Gold.Chemscore.Hbond>
0.1839

> <Gold.Chemscore.Metal>
0.0000

> <Gold.Chemscore.Lipo>
118.6329

> <Gold.Chemscore.Internal_Hbond>
0.0000

> <Gold.Chemscore.DEClash>
0.0785

> <Gold.Chemscore.DEInternal>
0.1587

> <Gold.Chemscore.Rot>
1.5785

> <Gold.Chemscore.Internal.Correction>
   9.000000E+99

> <Gold.Chemscore.Hbonds>
donor molecule, donor type, donor heavy atom, donor atom, acceptor molecule, acceptor atom, score
      L1  H     2    24       P1 10175  0.02

> <Gold.Chemscore.Hbond.Weighted>
-0.6142

> <Gold.Chemscore.Metal.Weighted>
-0.0000

> <Gold.Chemscore.Lipo.Weighted>
-13.8801

> <Gold.Chemscore.Internal_Hbond.Weighted>
0.0000

> <Gold.Chemscore.DEClash.Weighted>
0.0785

> <Gold.Chemscore.DEInternal.Weighted>
0.1587

> <Gold.Chemscore.Rot.Weighted>
4.0411

> <Gold.Chemscore.Internal.Correction.Weighted>
   9.000000E+99

> <Gold.Protein.RotatedTorsions>
[ 6907 6896 6895 6894 ] final -118.35 input  -60.11 | X-H torsion
[ 7974 7965 7964 7962 ] final  -41.58 input  175.53 | X-H torsion
[ 8008 7997 7996 7995 ] final  -81.40 input   59.86 | X-H torsion
[ 10167 10162 10161 10158 ] final  -49.77 input  -65.29 | X-H torsion
[ 10718 10713 10712 10709 ] final   84.10 input   66.30 | X-H torsion
[ 10763 10752 10751 10750 ] final  -54.07 input  -60.55 | X-H torsion
[ 11005 11000 10999 10996 ] final -168.75 input  -57.11 | X-H torsion

> <Gold.Protein.ActiveResidues>
 VAL166  LYS551  ARG553  GLY616  TRP617  ASP618  TYR619  PRO620  LYS621  CYS622 
 ASP623  PHE694  ASN695  SER759  ASP760  ASP761  ALA762  ILE779  LEU786  VAL792 
 PHE793  MET794  SER795  GLU796  ALA797  LYS798  CYS799  TRP800  GLU811  SER814 

> <Gold.Protein.RotatedAtoms>
  150.8212  133.8249  159.3137 H   0  0  0  0  0  0  0  0  0  0  0  0  # atno 6907 bound_to 6896
  151.6006  135.1046  160.0069 H   0  0  0  0  0  0  0  0  0  0  0  0  # atno 6908 bound_to 6896
  152.4301  133.7222  159.6596 H   0  0  0  0  0  0  0  0  0  0  0  0  # atno 6909 bound_to 6896
  146.0197  140.6864  142.9184 H   0  0  0  0  0  0  0  0  0  0  0  0  # atno 7974 bound_to 7965
  154.5979  140.0648  156.9329 H   0  0  0  0  0  0  0  0  0  0  0  0  # atno 8008 bound_to 7997
  155.2182  140.3328  155.4301 H   0  0  0  0  0  0  0  0  0  0  0  0  # atno 8009 bound_to 7997
  156.2299  140.1836  156.7252 H   0  0  0  0  0  0  0  0  0  0  0  0  # atno 8010 bound_to 7997
  140.6669  143.2684  151.4262 H   0  0  0  0  0  0  0  0  0  0  0  0  # atno 10167 bound_to 10162
  157.6892  131.0119  150.2623 H   0  0  0  0  0  0  0  0  0  0  0  0  # atno 10718 bound_to 10713
  154.1690  135.6462  153.5004 H   0  0  0  0  0  0  0  0  0  0  0  0  # atno 10763 bound_to 10752
  153.0089  135.5379  154.6633 H   0  0  0  0  0  0  0  0  0  0  0  0  # atno 10764 bound_to 10752
  154.5967  135.2939  155.0551 H   0  0  0  0  0  0  0  0  0  0  0  0  # atno 10765 bound_to 10752
  140.5385  134.5546  157.5093 H   0  0  0  0  0  0  0  0  0  0  0  0  # atno 11005 bound_to 11000
  144.6985  140.3545  143.7175 LP  0  0  0  0  0  0  0  0  0  0  0  0  # atno 17320 bound_to 7965
  145.7212  139.1710  143.2483 LP  0  0  0  0  0  0  0  0  0  0  0  0  # atno 17321 bound_to 7965
  139.5922  144.1474  152.2102 LP  0  0  0  0  0  0  0  0  0  0  0  0  # atno 17342 bound_to 10162
  140.0832  144.5683  150.7107 LP  0  0  0  0  0  0  0  0  0  0  0  0  # atno 17343 bound_to 10162
  156.3200  130.3784  149.7584 LP  0  0  0  0  0  0  0  0  0  0  0  0  # atno 17370 bound_to 10713
  156.5157  130.8192  151.3185 LP  0  0  0  0  0  0  0  0  0  0  0  0  # atno 17371 bound_to 10713
  139.9516  134.7606  156.0434 LP  0  0  0  0  0  0  0  0  0  0  0  0  # atno 17394 bound_to 11000
  141.1241  133.6604  156.3290 LP  0  0  0  0  0  0  0  0  0  0  0  0  # atno 17395 bound_to 11000

$$$$
