AV-unprocessed.smi:2889|AV-procd|sdf|11110|dock7
  -GOLD-   2272015573D 1   1.00000     0.00000
 Structure written by MMmdl.
 36 37  0  0  0  0  0  0  0  0  1 V2000
  147.6805  143.0271  158.7806 C   0  0  0  0  0  0  0  0  0  0  0  0
  149.0306  142.3850  157.7545 S   0  0  0  0  0  0  0  0  0  0  0  0
  150.4807  142.8472  158.7558 C   0  0  2  0  0  0  0  0  0  0  0  0
  151.1393  144.1255  158.2039 C   0  0  0  0  0  0  0  0  0  0  0  0
  152.3609  144.5416  159.0363 C   0  0  0  0  0  0  0  0  0  0  0  0
  153.3915  143.4067  159.1054 C   0  0  0  0  0  0  0  0  0  0  0  0
  152.7711  142.1184  159.6709 C   0  0  0  0  0  0  0  0  0  0  0  0
  151.5012  141.6919  158.9070 C   0  0  2  0  0  0  0  0  0  0  0  0
  151.8573  141.1210  157.6027 N   0  0  0  0  0  0  0  0  0  0  0  0
  152.4849  139.5161  157.5459 S   0  0  0  0  0  0  0  0  0  0  0  0
  153.7868  139.5203  158.2312 O   0  0  0  0  0  0  0  0  0  0  0  0
  151.4198  138.6088  157.9992 O   0  0  0  0  0  0  0  0  0  0  0  0
  152.7693  139.2629  155.7443 C   0  0  0  0  0  0  0  0  0  0  0  0
  151.4523  139.2651  155.0221 C   0  0  0  0  0  0  0  0  0  0  0  0
  150.7650  138.1689  154.4308 C   0  0  0  0  0  0  0  0  0  0  0  0
  149.6336  138.7387  153.9224 C   0  0  0  0  0  0  0  0  0  0  0  0
  149.6207  140.0726  154.1707 O   0  0  0  0  0  0  0  0  0  0  0  0
  150.7867  140.3994  154.8724 N   0  0  0  0  0  0  0  0  0  0  0  0
  146.7263  142.8748  158.2768 H   0  0  0  0  0  0  0  0  0  0  0  0
  147.8101  144.0945  158.9585 H   0  0  0  0  0  0  0  0  0  0  0  0
  147.6426  142.5143  159.7409 H   0  0  0  0  0  0  0  0  0  0  0  0
  150.1027  143.0886  159.7502 H   0  0  0  0  0  0  0  0  0  0  0  0
  151.4425  143.9677  157.1681 H   0  0  0  0  0  0  0  0  0  0  0  0
  150.4138  144.9396  158.1903 H   0  0  0  0  0  0  0  0  0  0  0  0
  152.8185  145.4316  158.6035 H   0  0  0  0  0  0  0  0  0  0  0  0
  152.0450  144.8148  160.0439 H   0  0  0  0  0  0  0  0  0  0  0  0
  153.7894  143.2144  158.1082 H   0  0  0  0  0  0  0  0  0  0  0  0
  154.2388  143.7111  159.7204 H   0  0  0  0  0  0  0  0  0  0  0  0
  153.5075  141.3140  159.6709 H   0  0  0  0  0  0  0  0  0  0  0  0
  152.5109  142.2870  160.7166 H   0  0  0  0  0  0  0  0  0  0  0  0
  151.0246  140.9035  159.4899 H   0  0  0  0  0  0  0  0  0  0  0  0
  151.0920  141.2369  156.9383 H   0  0  0  0  0  0  0  0  0  0  0  0
  153.4225  140.0586  155.3848 H   0  0  0  0  0  0  0  0  0  0  0  0
  153.2914  138.3161  155.6073 H   0  0  0  0  0  0  0  0  0  0  0  0
  151.0542  137.1293  154.3908 H   0  0  0  0  0  0  0  0  0  0  0  0
  148.7841  138.3480  153.3821 H   0  0  0  0  0  0  0  0  0  0  0  0
  1  2  1  0  0  0  0
  1 19  1  0  0  0  0
  1 20  1  0  0  0  0
  1 21  1  0  0  0  0
  2  3  1  0  0  0  0
  3  8  1  0  0  0  0
  3  4  1  0  0  0  0
  3 22  1  0  0  0  0
  4  5  1  0  0  0  0
  4 23  1  0  0  0  0
  4 24  1  0  0  0  0
  5  6  1  0  0  0  0
  5 25  1  0  0  0  0
  5 26  1  0  0  0  0
  6  7  1  0  0  0  0
  6 27  1  0  0  0  0
  6 28  1  0  0  0  0
  7  8  1  0  0  0  0
  7 29  1  0  0  0  0
  7 30  1  0  0  0  0
  8  9  1  0  0  0  0
  8 31  1  0  0  0  0
  9 10  1  0  0  0  0
  9 32  1  0  0  0  0
 10 11  2  0  0  0  0
 10 12  2  0  0  0  0
 10 13  1  0  0  0  0
 13 14  1  0  0  0  0
 13 33  1  0  0  0  0
 13 34  1  0  0  0  0
 14 18  2  0  0  0  0
 14 15  1  0  0  0  0
 15 16  2  0  0  0  0
 15 35  1  0  0  0  0
 16 17  1  0  0  0  0
 16 36  1  0  0  0  0
 17 18  1  0  0  0  0
M  END
> <s_m_source_file>
AV-unprocessed.smi

> <i_m_source_file_index>
2889

> <i_lp_mmshare_version>
43012

> <i_f3d_flags>
0

> <s_epik_input>
W0NIM11TW0NAQEhdMVtDSDJdW0NIMl1bQ0gyXVtDSDJdW0NASF0xW05IXVMoPU8pKD1PKVtDSDJdYzJbY0hdW2NIXW9uMg==

> <s_epik_cmdline>
J2VwaWtfcHl0aG9uJywgJy1waCcsICc3LjAnLCAnLXRuJywgJzgnLCAnLW1hJywgJzIwMCcsICctbWV0YWxfYmluZGluZycsICctaW1hZScsICc8aW5maWxlLm1hZT4nLCAnLW9tYWUnLCAnPG91dGZpbGUubWFlPic=

> <r_lp_tautomer_probability>
1

> <r_epik_Ionization_Penalty>
0.000229547

> <r_epik_Ionization_Penalty_Charging>
0

> <r_epik_Ionization_Penalty_Neutral>
0.000229547

> <r_epik_State_Penalty>
-0

> <r_epik_Charging_Adjusted_Penalty>
0

> <i_epik_Tot_Q>
0

> <i_epik_Tot_abs_Q>
0

> <r_epik_Metal_State_Penalty>
0.145979

> <b_epik_Metal_Only>
0

> <s_lp_Force_Field>
OPLS_2005

> <r_lp_Energy>
4.93405

> <b_lp_Chiralities_Consistent>
1

> <s_lp_Variant>
AV-unprocessed.smi:2889-3

> <Gold.Version>
5.8.1

> <Gold.Id.Protein>
6NUR|6NUR_protein|mol2

> <Gold.PLP.Fitness>
39.1657

> <Gold.PLP.PLP>
-32.9157

> <Gold.PLP.part.hbond>
-2.0000

> <Gold.PLP.part.metal>
0.0000

> <Gold.PLP.part.buried>
-1.8338

> <Gold.PLP.part.nonpolar>
-29.6676

> <Gold.PLP.part.repulsive>
0.1868

> <Gold.PLP.ligand.clash>
0.0000

> <Gold.PLP.ligand.torsion>
1.0251

> <Gold.PLP.Chemscore.Hbond>
1.9000

> <Gold.PLP.Chemscore.CHOScore>
0.8088

> <Gold.PLP.Chemscore.Metal>
0.0000

> <Gold.Chemscore.Hbonds>
donor molecule, donor type, donor heavy atom, donor atom, acceptor molecule, acceptor atom, score
      P1  H  7989  7998       L1    18  0.53
      P1  H  7997  8008       L1    11  0.98
      L1  C    16    36       P1  7948  0.71
      L1  C    16    36       P1  7957  0.01

> <Gold.PLP.Chemscore.Internal.Correction>
0.1740

> <Gold.Rescore>
     Score         DG    S(hbond)    S(metal)    S(lipo)     H(rot)  DE(clash)    DE(int)     intcor
     13.44     -15.66       0.95        0.00      99.42       1.81       0.05       2.17       ----

> <Gold.Chemscore.Fitness>
13.4405

> <Gold.Chemscore.DG>
-15.6590

> <Gold.Chemscore.ZeroCoef>
-5.4800

> <Gold.Chemscore.Hbond>
0.9489

> <Gold.Chemscore.Metal>
0.0000

> <Gold.Chemscore.Lipo>
99.4225

> <Gold.Chemscore.Internal_Hbond>
0.0000

> <Gold.Chemscore.DEClash>
0.0516

> <Gold.Chemscore.DEInternal>
2.1670

> <Gold.Chemscore.Rot>
1.8058

> <Gold.Chemscore.Internal.Correction>
   9.000000E+99

> <Gold.Chemscore.Hbonds>
donor molecule, donor type, donor heavy atom, donor atom, acceptor molecule, acceptor atom, score
      P1  H  7989  7998       L1    18  0.01
      P1  H  7997  8008       L1    11  0.23

> <Gold.Chemscore.Hbond.Weighted>
-3.1694

> <Gold.Chemscore.Metal.Weighted>
-0.0000

> <Gold.Chemscore.Lipo.Weighted>
-11.6324

> <Gold.Chemscore.Internal_Hbond.Weighted>
0.0000

> <Gold.Chemscore.DEClash.Weighted>
0.0516

> <Gold.Chemscore.DEInternal.Weighted>
2.1670

> <Gold.Chemscore.Rot.Weighted>
4.6228

> <Gold.Chemscore.Internal.Correction.Weighted>
   9.000000E+99

> <Gold.Protein.RotatedTorsions>
[ 6907 6896 6895 6894 ] final   16.78 input  -60.11 | X-H torsion
[ 7974 7965 7964 7962 ] final   14.43 input  175.53 | X-H torsion
[ 8008 7997 7996 7995 ] final  -91.89 input   59.86 | X-H torsion
[ 10167 10162 10161 10158 ] final  149.20 input  -65.29 | X-H torsion
[ 10718 10713 10712 10709 ] final  -34.99 input   66.30 | X-H torsion
[ 10763 10752 10751 10750 ] final   74.55 input  -60.55 | X-H torsion
[ 11005 11000 10999 10996 ] final -112.40 input  -57.11 | X-H torsion

> <Gold.Protein.ActiveResidues>
 VAL166  LYS551  ARG553  GLY616  TRP617  ASP618  TYR619  PRO620  LYS621  CYS622 
 ASP623  PHE694  ASN695  SER759  ASP760  ASP761  ALA762  ILE779  LEU786  VAL792 
 PHE793  MET794  SER795  GLU796  ALA797  LYS798  CYS799  TRP800  GLU811  SER814 

> <Gold.Protein.RotatedAtoms>
  151.8393  135.0595  160.0445 H   0  0  0  0  0  0  0  0  0  0  0  0  # atno 6907 bound_to 6896
  152.2821  133.5476  159.5513 H   0  0  0  0  0  0  0  0  0  0  0  0  # atno 6908 bound_to 6896
  150.7194  134.0465  159.3826 H   0  0  0  0  0  0  0  0  0  0  0  0  # atno 6909 bound_to 6896
  146.2305  139.9042  142.8534 H   0  0  0  0  0  0  0  0  0  0  0  0  # atno 7974 bound_to 7965
  154.7163  140.0514  157.0598 H   0  0  0  0  0  0  0  0  0  0  0  0  # atno 8008 bound_to 7997
  155.0486  140.3176  155.4680 H   0  0  0  0  0  0  0  0  0  0  0  0  # atno 8009 bound_to 7997
  156.2804  140.2120  156.5612 H   0  0  0  0  0  0  0  0  0  0  0  0  # atno 8010 bound_to 7997
  139.4864  144.5620  151.7214 H   0  0  0  0  0  0  0  0  0  0  0  0  # atno 10167 bound_to 10162
  156.3440  130.4298  149.7762 H   0  0  0  0  0  0  0  0  0  0  0  0  # atno 10718 bound_to 10713
  153.0594  135.5021  154.8059 H   0  0  0  0  0  0  0  0  0  0  0  0  # atno 10763 bound_to 10752
  154.6859  135.2976  154.9550 H   0  0  0  0  0  0  0  0  0  0  0  0  # atno 10764 bound_to 10752
  154.0321  135.6728  153.4834 H   0  0  0  0  0  0  0  0  0  0  0  0  # atno 10765 bound_to 10752
  141.0677  133.9431  157.2546 H   0  0  0  0  0  0  0  0  0  0  0  0  # atno 11005 bound_to 11000
  145.2293  140.9967  143.4000 LP  0  0  0  0  0  0  0  0  0  0  0  0  # atno 17320 bound_to 7965
  144.9544  139.4048  143.6387 LP  0  0  0  0  0  0  0  0  0  0  0  0  # atno 17321 bound_to 7965
  140.5191  144.0906  150.6017 LP  0  0  0  0  0  0  0  0  0  0  0  0  # atno 17342 bound_to 10162
  140.3858  143.2778  152.0117 LP  0  0  0  0  0  0  0  0  0  0  0  0  # atno 17343 bound_to 10162
  156.4988  130.8119  151.3124 LP  0  0  0  0  0  0  0  0  0  0  0  0  # atno 17370 bound_to 10713
  157.7451  130.9951  150.2733 LP  0  0  0  0  0  0  0  0  0  0  0  0  # atno 17371 bound_to 10713
  139.9492  135.0178  156.8945 LP  0  0  0  0  0  0  0  0  0  0  0  0  # atno 17394 bound_to 11000
  140.5739  134.0417  155.7440 LP  0  0  0  0  0  0  0  0  0  0  0  0  # atno 17395 bound_to 11000

$$$$
