AV-unprocessed.smi:221|AV-procd|sdf|1688|dock8
  -GOLD-   2262020133D 1   1.00000     0.00000
 Structure written by MMmdl.
 50 53  0  0  0  0  0  0  0  0  1 V2000
  143.2150  133.8373  150.8104 N   0  0  0  0  0  0  0  0  0  0  0  0
  144.0251  132.8095  150.5465 C   0  0  0  0  0  0  0  0  0  0  0  0
  143.6981  131.8963  149.7904 O   0  0  0  0  0  0  0  0  0  0  0  0
  145.4053  132.8235  151.2185 C   0  0  2  0  0  0  0  0  0  0  0  0
  146.0351  131.4179  151.2637 C   0  0  0  0  0  0  0  0  0  0  0  0
  146.8460  131.4319  152.5520 C   0  0  2  0  0  0  0  0  0  0  0  0
  147.0888  130.2073  153.0189 F   0  0  0  0  0  0  0  0  0  0  0  0
  145.9559  132.2503  153.4782 C   0  0  0  0  0  0  0  0  0  0  0  0
  145.3264  133.2534  152.6214 N   0  0  0  0  0  0  0  0  0  0  0  0
  145.6543  134.5544  152.8172 C   0  0  0  0  0  0  0  0  0  0  0  0
  144.9897  135.5342  152.1488 N   0  0  0  0  0  0  0  0  0  0  0  0
  145.2899  136.8178  152.3675 C   0  0  0  0  0  0  0  0  0  0  0  0
  146.1992  137.3325  153.1979 N   0  0  0  0  0  0  0  0  0  0  0  0
  146.8652  136.3524  153.8737 C   0  0  0  0  0  0  0  0  0  0  0  0
  146.6515  134.9511  153.7486 C   0  0  0  0  0  0  0  0  0  0  0  0
  147.5030  134.2634  154.6028 N   0  0  0  0  0  0  0  0  0  0  0  0
  148.1804  135.2043  155.2014 C   0  0  0  0  0  0  0  0  0  0  0  0
  147.8835  136.4894  154.8024 N   0  0  0  0  0  0  0  0  0  0  0  0
  148.4714  137.7215  155.3090 C   0  0  0  0  0  0  0  0  0  0  0  0
  149.4827  138.3921  154.3362 C   0  0  2  0  0  0  0  0  0  0  0  0
  150.9179  137.9596  154.7188 C   0  0  0  0  0  0  0  0  0  0  0  0
  151.2343  136.7030  154.1551 O   0  0  0  0  0  0  0  0  0  0  0  0
  149.3856  139.9489  154.2944 C   0  0  2  0  0  0  0  0  0  0  0  0
  149.7896  140.6947  155.5590 C   0  0  0  0  0  0  0  0  0  0  0  0
  148.5506  140.5848  156.4411 C   0  0  0  0  0  0  0  0  0  0  0  0
  147.4535  140.5070  155.5376 O   0  0  0  0  0  0  0  0  0  0  0  0
  147.9353  140.4471  154.1986 C   0  0  0  0  0  0  0  0  0  0  0  0
  146.0734  133.4881  150.6649 H   0  0  0  0  0  0  0  0  0  0  0  0
  147.8040  131.9305  152.3983 H   0  0  0  0  0  0  0  0  0  0  0  0
  142.2939  133.8663  150.3978 H   0  0  0  0  0  0  0  0  0  0  0  0
  143.5205  134.5764  151.4267 H   0  0  0  0  0  0  0  0  0  0  0  0
  145.2675  130.6439  151.3264 H   0  0  0  0  0  0  0  0  0  0  0  0
  146.6495  131.2052  150.3885 H   0  0  0  0  0  0  0  0  0  0  0  0
  145.1620  131.6253  153.8891 H   0  0  0  0  0  0  0  0  0  0  0  0
  146.5087  132.6562  154.3267 H   0  0  0  0  0  0  0  0  0  0  0  0
  144.7192  137.5352  151.7965 H   0  0  0  0  0  0  0  0  0  0  0  0
  148.9247  134.9809  155.9517 H   0  0  0  0  0  0  0  0  0  0  0  0
  147.6796  138.4236  155.5721 H   0  0  0  0  0  0  0  0  0  0  0  0
  148.9554  137.4578  156.2495 H   0  0  0  0  0  0  0  0  0  0  0  0
  149.3019  138.0233  153.3261 H   0  0  0  0  0  0  0  0  0  0  0  0
  151.6649  138.6661  154.3618 H   0  0  0  0  0  0  0  0  0  0  0  0
  151.0299  137.9091  155.8024 H   0  0  0  0  0  0  0  0  0  0  0  0
  150.9515  136.6986  153.2533 H   0  0  0  0  0  0  0  0  0  0  0  0
  149.9752  140.3117  153.4515 H   0  0  0  0  0  0  0  0  0  0  0  0
  150.7005  140.3480  156.0367 H   0  0  0  0  0  0  0  0  0  0  0  0
  149.9563  141.7447  155.3134 H   0  0  0  0  0  0  0  0  0  0  0  0
  148.5799  139.6731  157.0383 H   0  0  0  0  0  0  0  0  0  0  0  0
  148.4494  141.4323  157.1194 H   0  0  0  0  0  0  0  0  0  0  0  0
  147.9150  141.4563  153.7840 H   0  0  0  0  0  0  0  0  0  0  0  0
  147.2825  139.8317  153.5816 H   0  0  0  0  0  0  0  0  0  0  0  0
  1  2  1  0  0  0  0
  1 30  1  0  0  0  0
  1 31  1  0  0  0  0
  2  3  2  0  0  0  0
  2  4  1  0  0  0  0
  4 28  1  0  0  0  0
  4  9  1  0  0  0  0
  4  5  1  0  0  0  0
  5  6  1  0  0  0  0
  5 32  1  0  0  0  0
  5 33  1  0  0  0  0
  6 29  1  0  0  0  0
  6  7  1  0  0  0  0
  6  8  1  0  0  0  0
  8  9  1  0  0  0  0
  8 34  1  0  0  0  0
  8 35  1  0  0  0  0
  9 10  1  0  0  0  0
 10 15  1  0  0  0  0
 10 11  2  0  0  0  0
 11 12  1  0  0  0  0
 12 13  2  0  0  0  0
 12 36  1  0  0  0  0
 13 14  1  0  0  0  0
 14 18  1  0  0  0  0
 14 15  2  0  0  0  0
 15 16  1  0  0  0  0
 16 17  2  0  0  0  0
 17 18  1  0  0  0  0
 17 37  1  0  0  0  0
 18 19  1  0  0  0  0
 19 20  1  0  0  0  0
 19 38  1  0  0  0  0
 19 39  1  0  0  0  0
 20 21  1  0  0  0  0
 20 23  1  0  0  0  0
 20 40  1  0  0  0  0
 21 22  1  0  0  0  0
 21 41  1  0  0  0  0
 21 42  1  0  0  0  0
 22 43  1  0  0  0  0
 23 27  1  0  0  0  0
 23 24  1  0  0  0  0
 23 44  1  0  0  0  0
 24 25  1  0  0  0  0
 24 45  1  0  0  0  0
 24 46  1  0  0  0  0
 25 26  1  0  0  0  0
 25 47  1  0  0  0  0
 25 48  1  0  0  0  0
 26 27  1  0  0  0  0
 27 49  1  0  0  0  0
 27 50  1  0  0  0  0
M  END
> <s_m_source_file>
AV-unprocessed.smi

> <i_m_source_file_index>
221

> <i_lp_mmshare_version>
43012

> <i_f3d_flags>
0

> <s_epik_input>
W05IMl1DKD1PKVtDQEBIXTFbQ0gyXVtDQEBIXShGKVtDSDJdTjFjKG5bY0hdbjIpYyhjMjMpbltjSF1uM1tDSDJdW0NASF0oW0NIMl1bT0hdKVtDQEBIXTRbQ0gyXVtDSDJdT1tDSDJdNA==

> <s_epik_cmdline>
J2VwaWtfcHl0aG9uJywgJy1waCcsICc3LjAnLCAnLXRuJywgJzgnLCAnLW1hJywgJzIwMCcsICctbWV0YWxfYmluZGluZycsICctaW1hZScsICc8aW5maWxlLm1hZT4nLCAnLW9tYWUnLCAnPG91dGZpbGUubWFlPic=

> <r_lp_tautomer_probability>
1

> <r_epik_Ionization_Penalty>
0.000818822

> <r_epik_Ionization_Penalty_Charging>
0

> <r_epik_Ionization_Penalty_Neutral>
0.000818822

> <r_epik_State_Penalty>
0.000440551

> <r_epik_Charging_Adjusted_Penalty>
0.000440551

> <i_epik_Tot_Q>
0

> <i_epik_Tot_abs_Q>
0

> <r_epik_Metal_State_Penalty>
-0

> <b_epik_Metal_Only>
0

> <s_lp_Force_Field>
OPLS_2005

> <r_lp_Energy>
54.2939

> <b_lp_Chiralities_Consistent>
1

> <s_lp_Variant>
AV-unprocessed.smi:221-3

> <Gold.Version>
5.8.1

> <Gold.Id.Protein>
6NUR|6NUR_protein|mol2

> <Gold.PLP.Fitness>
41.4579

> <Gold.PLP.PLP>
-30.4820

> <Gold.PLP.part.hbond>
-4.2200

> <Gold.PLP.part.metal>
0.0000

> <Gold.PLP.part.buried>
-1.2232

> <Gold.PLP.part.nonpolar>
-26.0311

> <Gold.PLP.part.repulsive>
0.7246

> <Gold.PLP.ligand.clash>
0.0000

> <Gold.PLP.ligand.torsion>
1.7321

> <Gold.PLP.Chemscore.Hbond>
3.7410

> <Gold.PLP.Chemscore.CHOScore>
1.0000

> <Gold.PLP.Chemscore.Metal>
0.0000

> <Gold.Chemscore.Hbonds>
donor molecule, donor type, donor heavy atom, donor atom, acceptor molecule, acceptor atom, score
      L1  H     1    30       P1 10186  1.00
      L1  H    22    43       P1  7949  0.91
      P1  H 10752 10765       L1    22  1.00
      P1  H 10785 10796       L1     3  0.77
      L1  C    12    36       P1 10171  1.00

> <Gold.PLP.Chemscore.Internal.Correction>
0.2171

> <Gold.Rescore>
     Score         DG    S(hbond)    S(metal)    S(lipo)     H(rot)  DE(clash)    DE(int)     intcor
      5.51     -13.05       2.77        0.00      66.97       3.72       1.68       5.85       ----

> <Gold.Chemscore.Fitness>
5.5115

> <Gold.Chemscore.DG>
-13.0452

> <Gold.Chemscore.ZeroCoef>
-5.4800

> <Gold.Chemscore.Hbond>
2.7706

> <Gold.Chemscore.Metal>
0.0000

> <Gold.Chemscore.Lipo>
66.9675

> <Gold.Chemscore.Internal_Hbond>
0.0000

> <Gold.Chemscore.DEClash>
1.6809

> <Gold.Chemscore.DEInternal>
5.8527

> <Gold.Chemscore.Rot>
3.7202

> <Gold.Chemscore.Internal.Correction>
   9.000000E+99

> <Gold.Chemscore.Hbonds>
donor molecule, donor type, donor heavy atom, donor atom, acceptor molecule, acceptor atom, score
      L1  H     1    30       P1 10186  0.94
      L1  H    22    43       P1  7949  0.20
      P1  H 10752 10765       L1    22  0.48
      P1  H 10785 10796       L1     3  0.72

> <Gold.Chemscore.Hbond.Weighted>
-9.2537

> <Gold.Chemscore.Metal.Weighted>
-0.0000

> <Gold.Chemscore.Lipo.Weighted>
-7.8352

> <Gold.Chemscore.Internal_Hbond.Weighted>
0.0000

> <Gold.Chemscore.DEClash.Weighted>
1.6809

> <Gold.Chemscore.DEInternal.Weighted>
5.8527

> <Gold.Chemscore.Rot.Weighted>
9.5237

> <Gold.Chemscore.Internal.Correction.Weighted>
   9.000000E+99

> <Gold.Protein.RotatedTorsions>
[ 6907 6896 6895 6894 ] final  -39.11 input  -60.11 | X-H torsion
[ 7974 7965 7964 7962 ] final -158.22 input  175.53 | X-H torsion
[ 8008 7997 7996 7995 ] final  133.17 input   59.86 | X-H torsion
[ 10167 10162 10161 10158 ] final  -44.01 input  -65.29 | X-H torsion
[ 10718 10713 10712 10709 ] final  -92.26 input   66.30 | X-H torsion
[ 10763 10752 10751 10750 ] final  153.41 input  -60.55 | X-H torsion
[ 11005 11000 10999 10996 ] final  101.51 input  -57.11 | X-H torsion

> <Gold.Protein.ActiveResidues>
 VAL166  LYS551  ARG553  GLY616  TRP617  ASP618  TYR619  PRO620  LYS621  CYS622 
 ASP623  PHE694  ASN695  SER759  ASP760  ASP761  ALA762  ILE779  LEU786  VAL792 
 PHE793  MET794  SER795  GLU796  ALA797  LYS798  CYS799  TRP800  GLU811  SER814 

> <Gold.Protein.RotatedAtoms>
  150.9943  134.9270  159.7916 H   0  0  0  0  0  0  0  0  0  0  0  0  # atno 6907 bound_to 6896
  152.5260  134.3240  159.9168 H   0  0  0  0  0  0  0  0  0  0  0  0  # atno 6908 bound_to 6896
  151.3246  133.3984  159.2692 H   0  0  0  0  0  0  0  0  0  0  0  0  # atno 6909 bound_to 6896
  144.7515  140.3858  143.6044 H   0  0  0  0  0  0  0  0  0  0  0  0  # atno 7974 bound_to 7965
  156.2990  140.2528  156.3210 H   0  0  0  0  0  0  0  0  0  0  0  0  # atno 8008 bound_to 7997
  154.9235  140.0400  157.2029 H   0  0  0  0  0  0  0  0  0  0  0  0  # atno 8009 bound_to 7997
  154.8287  140.2872  155.5741 H   0  0  0  0  0  0  0  0  0  0  0  0  # atno 8010 bound_to 7997
  140.6913  143.2952  151.3434 H   0  0  0  0  0  0  0  0  0  0  0  0  # atno 10167 bound_to 10162
  156.0000  130.4980  150.5598 H   0  0  0  0  0  0  0  0  0  0  0  0  # atno 10718 bound_to 10713
  154.1357  135.2824  155.3174 H   0  0  0  0  0  0  0  0  0  0  0  0  # atno 10763 bound_to 10752
  154.6323  135.5431  153.7698 H   0  0  0  0  0  0  0  0  0  0  0  0  # atno 10764 bound_to 10752
  153.0266  135.6465  154.1506 H   0  0  0  0  0  0  0  0  0  0  0  0  # atno 10765 bound_to 10752
  139.8773  134.9186  156.4918 H   0  0  0  0  0  0  0  0  0  0  0  0  # atno 11005 bound_to 11000
  145.6929  139.1643  143.2637 LP  0  0  0  0  0  0  0  0  0  0  0  0  # atno 17320 bound_to 7965
  146.1470  140.6978  142.9340 LP  0  0  0  0  0  0  0  0  0  0  0  0  # atno 17321 bound_to 7965
  139.6318  144.0705  152.2483 LP  0  0  0  0  0  0  0  0  0  0  0  0  # atno 17342 bound_to 10162
  140.0183  144.6172  150.7588 LP  0  0  0  0  0  0  0  0  0  0  0  0  # atno 17343 bound_to 10162
  157.3509  131.0733  151.1714 LP  0  0  0  0  0  0  0  0  0  0  0  0  # atno 17370 bound_to 10713
  157.2530  130.6623  149.5940 LP  0  0  0  0  0  0  0  0  0  0  0  0  # atno 17371 bound_to 10713
  140.8653  133.8029  155.9307 LP  0  0  0  0  0  0  0  0  0  0  0  0  # atno 17394 bound_to 11000
  140.9008  134.2381  157.5043 LP  0  0  0  0  0  0  0  0  0  0  0  0  # atno 17395 bound_to 11000

$$$$
