AV-unprocessed.smi:155|AV-procd|sdf|1277|dock4
  -GOLD-   2262018543D 1   1.00000     0.00000
 Structure written by MMmdl.
 63 66  0  0  0  0  0  0  0  0  2 V2000
  143.6245  132.9432  148.6606 C   0  0  0  0  0  0  0  0  0  0  0  0
  143.5833  133.3876  150.0718 N   0  3  0  0  0  0  0  0  0  0  0  0
  143.7121  132.2445  151.0049 C   0  0  0  0  0  0  0  0  0  0  0  0
  144.5520  134.4800  150.3393 C   0  0  0  0  0  0  0  0  0  0  0  0
  144.4054  135.0640  151.7612 C   0  0  0  0  0  0  0  0  0  0  0  0
  145.5465  135.9091  152.1220 N   0  0  0  0  0  0  0  0  0  0  0  0
  145.3652  137.2533  151.5623 C   0  0  0  0  0  0  0  0  0  0  0  0
  146.5938  138.1623  151.7417 C   0  0  0  0  0  0  0  0  0  0  0  0
  146.6836  138.7970  153.1394 C   0  0  0  0  0  0  0  0  0  0  0  0
  147.1715  137.8829  154.1726 N   0  0  0  0  0  0  0  0  0  0  0  0
  148.0424  138.3842  155.0883 C   0  0  0  0  0  0  0  0  0  0  0  0
  148.4594  137.5920  156.1123 N   0  0  0  0  0  0  0  0  0  0  0  0
  149.3274  138.0539  157.0169 C   0  0  0  0  0  0  0  0  0  0  0  0
  149.8947  139.2591  157.0897 N   0  0  0  0  0  0  0  0  0  0  0  0
  149.4748  140.0639  156.0724 C   0  0  0  0  0  0  0  0  0  0  0  0
  148.5604  139.7116  155.0388 C   0  0  0  0  0  0  0  0  0  0  0  0
  148.3690  140.7981  154.1914 N   0  0  0  0  0  0  0  0  0  0  0  0
  149.1332  141.7320  154.6878 C   0  0  0  0  0  0  0  0  0  0  0  0
  149.8342  141.3753  155.8162 N   0  0  0  0  0  0  0  0  0  0  0  0
  150.7524  142.2145  156.5657 C   0  0  0  0  0  0  0  0  0  0  0  0
  150.3118  142.4055  158.0304 C   0  0  2  0  0  0  0  0  0  0  0  0
  149.0952  143.1276  158.0620 O   0  0  0  0  0  0  0  0  0  0  0  0
  151.3633  143.1638  158.8605 C   0  0  1  0  0  0  0  0  0  0  0  0
  151.4090  144.6692  158.6009 C   0  0  0  0  0  0  0  0  0  0  0  0
  152.0863  145.1739  159.8550 C   0  0  0  0  0  0  0  0  0  0  0  0
  151.5293  144.2410  160.9292 C   0  0  0  0  0  0  0  0  0  0  0  0
  151.0595  143.0792  160.2490 O   0  0  0  0  0  0  0  0  0  0  0  0
  147.0615  136.4330  154.0114 C   0  0  0  0  0  0  0  0  0  0  0  0
  145.6554  135.9834  153.5805 C   0  0  0  0  0  0  0  0  0  0  0  0
  144.6002  132.5244  148.4112 H   0  0  0  0  0  0  0  0  0  0  0  0
  143.4262  133.7759  147.9844 H   0  0  0  0  0  0  0  0  0  0  0  0
  142.8672  132.1815  148.4724 H   0  0  0  0  0  0  0  0  0  0  0  0
  144.7053  131.7977  150.9425 H   0  0  0  0  0  0  0  0  0  0  0  0
  142.9777  131.4734  150.7698 H   0  0  0  0  0  0  0  0  0  0  0  0
  143.5365  132.5489  152.0362 H   0  0  0  0  0  0  0  0  0  0  0  0
  145.5698  134.1207  150.1782 H   0  0  0  0  0  0  0  0  0  0  0  0
  144.3845  135.2595  149.5975 H   0  0  0  0  0  0  0  0  0  0  0  0
  143.4738  135.6228  151.8658 H   0  0  0  0  0  0  0  0  0  0  0  0
  144.3428  134.2270  152.4564 H   0  0  0  0  0  0  0  0  0  0  0  0
  145.1828  137.1760  150.4922 H   0  0  0  0  0  0  0  0  0  0  0  0
  144.4778  137.7277  151.9850 H   0  0  0  0  0  0  0  0  0  0  0  0
  147.5167  137.6448  151.4762 H   0  0  0  0  0  0  0  0  0  0  0  0
  146.5000  138.9775  151.0236 H   0  0  0  0  0  0  0  0  0  0  0  0
  147.3590  139.6505  153.0684 H   0  0  0  0  0  0  0  0  0  0  0  0
  145.7136  139.1949  153.4392 H   0  0  0  0  0  0  0  0  0  0  0  0
  149.6084  137.3575  157.7931 H   0  0  0  0  0  0  0  0  0  0  0  0
  149.2086  142.7128  154.2408 H   0  0  0  0  0  0  0  0  0  0  0  0
  151.7396  141.7526  156.5245 H   0  0  0  0  0  0  0  0  0  0  0  0
  150.8402  143.1787  156.0635 H   0  0  0  0  0  0  0  0  0  0  0  0
  150.1336  141.4288  158.4821 H   0  0  0  0  0  0  0  0  0  0  0  0
  148.8794  143.3904  157.1802 H   0  0  0  0  0  0  0  0  0  0  0  0
  152.3555  142.7361  158.7035 H   0  0  0  0  0  0  0  0  0  0  0  0
  151.9501  144.9300  157.6907 H   0  0  0  0  0  0  0  0  0  0  0  0
  150.4001  145.0785  158.5296 H   0  0  0  0  0  0  0  0  0  0  0  0
  153.1660  145.0439  159.7707 H   0  0  0  0  0  0  0  0  0  0  0  0
  151.8848  146.2261  160.0574 H   0  0  0  0  0  0  0  0  0  0  0  0
  152.2856  143.9812  161.6705 H   0  0  0  0  0  0  0  0  0  0  0  0
  150.6896  144.7025  161.4493 H   0  0  0  0  0  0  0  0  0  0  0  0
  147.8259  136.0661  153.3252 H   0  0  0  0  0  0  0  0  0  0  0  0
  147.2654  135.9624  154.9742 H   0  0  0  0  0  0  0  0  0  0  0  0
  144.8689  136.5985  154.0217 H   0  0  0  0  0  0  0  0  0  0  0  0
  145.5227  134.9805  153.9878 H   0  0  0  0  0  0  0  0  0  0  0  0
  142.6627  133.7785  150.2139 H   0  0  0  0  0  0  0  0  0  0  0  0
  1  2  1  0  0  0  0
  1 30  1  0  0  0  0
  1 31  1  0  0  0  0
  1 32  1  0  0  0  0
  2  3  1  0  0  0  0
  2  4  1  0  0  0  0
  2 63  1  0  0  0  0
  3 33  1  0  0  0  0
  3 34  1  0  0  0  0
  3 35  1  0  0  0  0
  4  5  1  0  0  0  0
  4 36  1  0  0  0  0
  4 37  1  0  0  0  0
  5  6  1  0  0  0  0
  5 38  1  0  0  0  0
  5 39  1  0  0  0  0
  6 29  1  0  0  0  0
  6  7  1  0  0  0  0
  7  8  1  0  0  0  0
  7 40  1  0  0  0  0
  7 41  1  0  0  0  0
  8  9  1  0  0  0  0
  8 42  1  0  0  0  0
  8 43  1  0  0  0  0
  9 10  1  0  0  0  0
  9 44  1  0  0  0  0
  9 45  1  0  0  0  0
 10 11  1  0  0  0  0
 10 28  1  0  0  0  0
 11 16  1  0  0  0  0
 11 12  2  0  0  0  0
 12 13  1  0  0  0  0
 13 14  2  0  0  0  0
 13 46  1  0  0  0  0
 14 15  1  0  0  0  0
 15 19  1  0  0  0  0
 15 16  2  0  0  0  0
 16 17  1  0  0  0  0
 17 18  2  0  0  0  0
 18 19  1  0  0  0  0
 18 47  1  0  0  0  0
 19 20  1  0  0  0  0
 20 21  1  0  0  0  0
 20 48  1  0  0  0  0
 20 49  1  0  0  0  0
 21 22  1  0  0  0  0
 21 23  1  0  0  0  0
 21 50  1  0  0  0  0
 22 51  1  0  0  0  0
 23 27  1  0  0  0  0
 23 24  1  0  0  0  0
 23 52  1  0  0  0  0
 24 25  1  0  0  0  0
 24 53  1  0  0  0  0
 24 54  1  0  0  0  0
 25 26  1  0  0  0  0
 25 55  1  0  0  0  0
 25 56  1  0  0  0  0
 26 27  1  0  0  0  0
 26 57  1  0  0  0  0
 26 58  1  0  0  0  0
 28 29  1  0  0  0  0
 28 59  1  0  0  0  0
 28 60  1  0  0  0  0
 29 61  1  0  0  0  0
 29 62  1  0  0  0  0
M  CHG  1   2   1
M  END
> <s_m_source_file>
AV-unprocessed.smi

> <i_m_source_file_index>
155

> <i_lp_mmshare_version>
43012

> <i_f3d_flags>
0

> <s_epik_input>
W0NIM11OKFtDSDNdKVtDSDJdW0NIMl1OMVtDSDJdW0NIMl1bQ0gyXU4oW0NIMl1bQ0gyXTEpYyhuW2NIXW4yKWMoYzIzKW5bY0hdbjNbQ0gyXVtDQEhdKFtPSF0pW0NAQEhdNFtDSDJdW0NIMl1bQ0gyXU80

> <s_epik_cmdline>
J2VwaWtfcHl0aG9uJywgJy1waCcsICc3LjAnLCAnLXRuJywgJzgnLCAnLW1hJywgJzIwMCcsICctbWV0YWxfYmluZGluZycsICctaW1hZScsICc8aW5maWxlLm1hZT4nLCAnLW9tYWUnLCAnPG91dGZpbGUubWFlPic=

> <r_lp_tautomer_probability>
1

> <r_epik_Ionization_Penalty>
0.0599493

> <r_epik_Ionization_Penalty_Charging>
0.00816363

> <r_epik_Ionization_Penalty_Neutral>
0.0517857

> <r_epik_State_Penalty>
0.460607

> <r_epik_Charging_Adjusted_Penalty>
0.468771

> <i_epik_Tot_Q>
1

> <i_epik_Tot_abs_Q>
1

> <r_epik_Metal_State_Penalty>
0.45965

> <b_epik_Metal_Only>
0

> <s_lp_Force_Field>
OPLS_2005

> <r_lp_Energy>
54.9456

> <b_lp_Chiralities_Consistent>
1

> <s_lp_Variant>
AV-unprocessed.smi:155-11

> <Gold.Version>
5.8.1

> <Gold.Id.Protein>
6NUR|6NUR_protein|mol2

> <Gold.PLP.Fitness>
54.8003

> <Gold.PLP.PLP>
-44.4812

> <Gold.PLP.part.hbond>
-3.8511

> <Gold.PLP.part.metal>
0.0000

> <Gold.PLP.part.buried>
2.9916

> <Gold.PLP.part.nonpolar>
-44.5378

> <Gold.PLP.part.repulsive>
0.4100

> <Gold.PLP.ligand.clash>
0.0000

> <Gold.PLP.ligand.torsion>
0.5929

> <Gold.PLP.Chemscore.Hbond>
3.0000

> <Gold.PLP.Chemscore.CHOScore>
0.7576

> <Gold.PLP.Chemscore.Metal>
0.0000

> <Gold.Chemscore.Hbonds>
donor molecule, donor type, donor heavy atom, donor atom, acceptor molecule, acceptor atom, score
      L1  H     2    63       P1 10186  2.00
      L1  H    22    51       P1  8028  1.00
      L1  C    18    47       P1  8028  0.81

> <Gold.PLP.Chemscore.Internal.Correction>
0.2322

> <Gold.Rescore>
     Score         DG    S(hbond)    S(metal)    S(lipo)     H(rot)  DE(clash)    DE(int)     intcor
     13.47     -18.20       1.56        0.00     123.45       2.71       2.78       1.95       ----

> <Gold.Chemscore.Fitness>
13.4708

> <Gold.Chemscore.DG>
-18.1962

> <Gold.Chemscore.ZeroCoef>
-5.4800

> <Gold.Chemscore.Hbond>
1.5582

> <Gold.Chemscore.Metal>
0.0000

> <Gold.Chemscore.Lipo>
123.4549

> <Gold.Chemscore.Internal_Hbond>
0.0000

> <Gold.Chemscore.DEClash>
2.7759

> <Gold.Chemscore.DEInternal>
1.9495

> <Gold.Chemscore.Rot>
2.7080

> <Gold.Chemscore.Internal.Correction>
   9.000000E+99

> <Gold.Chemscore.Hbonds>
donor molecule, donor type, donor heavy atom, donor atom, acceptor molecule, acceptor atom, score
      L1  H     2    63       P1 10186  0.96
      L1  H    22    51       P1  8028  0.41

> <Gold.Chemscore.Hbond.Weighted>
-5.2045

> <Gold.Chemscore.Metal.Weighted>
-0.0000

> <Gold.Chemscore.Lipo.Weighted>
-14.4442

> <Gold.Chemscore.Internal_Hbond.Weighted>
0.0000

> <Gold.Chemscore.DEClash.Weighted>
2.7759

> <Gold.Chemscore.DEInternal.Weighted>
1.9495

> <Gold.Chemscore.Rot.Weighted>
6.9326

> <Gold.Chemscore.Internal.Correction.Weighted>
   9.000000E+99

> <Gold.Protein.RotatedTorsions>
[ 6907 6896 6895 6894 ] final   60.64 input  -60.11 | X-H torsion
[ 7974 7965 7964 7962 ] final -159.77 input  175.53 | X-H torsion
[ 8008 7997 7996 7995 ] final  -63.84 input   59.86 | X-H torsion
[ 10167 10162 10161 10158 ] final   12.10 input  -65.29 | X-H torsion
[ 10718 10713 10712 10709 ] final   48.22 input   66.30 | X-H torsion
[ 10763 10752 10751 10750 ] final   -6.71 input  -60.55 | X-H torsion
[ 11005 11000 10999 10996 ] final   41.00 input  -57.11 | X-H torsion

> <Gold.Protein.ActiveResidues>
 VAL166  LYS551  ARG553  GLY616  TRP617  ASP618  TYR619  PRO620  LYS621  CYS622 
 ASP623  PHE694  ASN695  SER759  ASP760  ASP761  ALA762  ILE779  LEU786  VAL792 
 PHE793  MET794  SER795  GLU796  ALA797  LYS798  CYS799  TRP800  GLU811  SER814 

> <Gold.Protein.RotatedAtoms>
  152.4020  134.6270  160.0065 H   0  0  0  0  0  0  0  0  0  0  0  0  # atno 6907 bound_to 6896
  151.6472  133.3317  159.3151 H   0  0  0  0  0  0  0  0  0  0  0  0  # atno 6908 bound_to 6896
  150.7920  134.6992  159.6585 H   0  0  0  0  0  0  0  0  0  0  0  0  # atno 6909 bound_to 6896
  144.7452  140.3637  143.6091 H   0  0  0  0  0  0  0  0  0  0  0  0  # atno 7974 bound_to 7965
  154.4577  140.0966  156.6804 H   0  0  0  0  0  0  0  0  0  0  0  0  # atno 8008 bound_to 7997
  155.5088  140.3476  155.4366 H   0  0  0  0  0  0  0  0  0  0  0  0  # atno 8009 bound_to 7997
  156.0810  140.1373  156.9701 H   0  0  0  0  0  0  0  0  0  0  0  0  # atno 8010 bound_to 7997
  140.6090  143.8448  150.7044 H   0  0  0  0  0  0  0  0  0  0  0  0  # atno 10167 bound_to 10162
  157.4665  130.8228  149.7941 H   0  0  0  0  0  0  0  0  0  0  0  0  # atno 10718 bound_to 10713
  153.4162  135.7009  153.6325 H   0  0  0  0  0  0  0  0  0  0  0  0  # atno 10763 bound_to 10752
  153.4799  135.3696  155.2436 H   0  0  0  0  0  0  0  0  0  0  0  0  # atno 10764 bound_to 10752
  154.8720  135.4063  154.3522 H   0  0  0  0  0  0  0  0  0  0  0  0  # atno 10765 bound_to 10752
  140.1877  134.4025  155.8164 H   0  0  0  0  0  0  0  0  0  0  0  0  # atno 11005 bound_to 11000
  145.7151  139.1695  143.2517 LP  0  0  0  0  0  0  0  0  0  0  0  0  # atno 17320 bound_to 7965
  146.1319  140.7174  142.9408 LP  0  0  0  0  0  0  0  0  0  0  0  0  # atno 17321 bound_to 7965
  140.2012  143.3958  152.1790 LP  0  0  0  0  0  0  0  0  0  0  0  0  # atno 17342 bound_to 10162
  139.5346  144.7196  151.4936 LP  0  0  0  0  0  0  0  0  0  0  0  0  # atno 17343 bound_to 10162
  156.0053  130.3859  150.2455 LP  0  0  0  0  0  0  0  0  0  0  0  0  # atno 17370 bound_to 10713
  157.0635  131.0096  151.3214 LP  0  0  0  0  0  0  0  0  0  0  0  0  # atno 17371 bound_to 10713
  141.2225  133.7031  156.8041 LP  0  0  0  0  0  0  0  0  0  0  0  0  # atno 17394 bound_to 11000
  140.2195  134.8767  157.3362 LP  0  0  0  0  0  0  0  0  0  0  0  0  # atno 17395 bound_to 11000

$$$$
