AV-unprocessed.smi:3085|AV-procd|sdf|11752|dock7
  -GOLD-   2272017143D 1   1.00000     0.00000
 Structure written by MMmdl.
 28 29  0  0  0  0  0  0  0  0  2 V2000
  143.7727  132.6686  148.7342 C   0  0  0  0  0  0  0  0  0  0  0  0
  143.9688  132.6313  150.2540 C   0  0  0  0  0  0  0  0  0  0  0  0
  144.8217  133.7558  150.7408 C   0  0  0  0  0  0  0  0  0  0  0  0
  144.3094  134.9721  151.0980 N   0  0  0  0  0  0  0  0  0  0  0  0
  145.4194  135.5905  151.4901 C   0  0  0  0  0  0  0  0  0  0  0  0
  145.4942  136.9895  152.0152 C   0  0  2  0  0  0  0  0  0  0  0  0
  146.2000  137.9481  151.0366 C   0  0  0  0  0  0  0  0  0  0  0  0
  146.3326  139.2851  151.6476 N   0  3  0  0  0  0  0  0  0  0  0  0
  147.0151  139.2157  152.9548 C   0  0  0  0  0  0  0  0  0  0  0  0
  146.2942  138.2153  153.8756 C   0  0  0  0  0  0  0  0  0  0  0  0
  146.2220  136.9429  153.2402 O   0  0  0  0  0  0  0  0  0  0  0  0
  146.4978  134.8096  151.3922 N   0  0  0  0  0  0  0  0  0  0  0  0
  146.1339  133.6021  150.9123 N   0  0  0  0  0  0  0  0  0  0  0  0
  147.4510  135.0412  151.6327 H   0  0  0  0  0  0  0  0  0  0  0  0
  143.1424  131.8432  148.4031 H   0  0  0  0  0  0  0  0  0  0  0  0
  144.7270  132.5899  148.2128 H   0  0  0  0  0  0  0  0  0  0  0  0
  143.2956  133.5981  148.4219 H   0  0  0  0  0  0  0  0  0  0  0  0
  143.0001  132.6725  150.7536 H   0  0  0  0  0  0  0  0  0  0  0  0
  144.4264  131.6852  150.5451 H   0  0  0  0  0  0  0  0  0  0  0  0
  144.4788  137.3383  152.2147 H   0  0  0  0  0  0  0  0  0  0  0  0
  147.1934  137.5741  150.7845 H   0  0  0  0  0  0  0  0  0  0  0  0
  145.6405  138.0299  150.1043 H   0  0  0  0  0  0  0  0  0  0  0  0
  146.8542  139.8885  151.0275 H   0  0  0  0  0  0  0  0  0  0  0  0
  148.0506  138.9084  152.8028 H   0  0  0  0  0  0  0  0  0  0  0  0
  147.0368  140.2080  153.4061 H   0  0  0  0  0  0  0  0  0  0  0  0
  146.8360  138.1110  154.8159 H   0  0  0  0  0  0  0  0  0  0  0  0
  145.2915  138.5671  154.1231 H   0  0  0  0  0  0  0  0  0  0  0  0
  145.4097  139.6720  151.7845 H   0  0  0  0  0  0  0  0  0  0  0  0
  1  2  1  0  0  0  0
  1 15  1  0  0  0  0
  1 16  1  0  0  0  0
  1 17  1  0  0  0  0
  2 18  1  0  0  0  0
  2 19  1  0  0  0  0
  2  3  1  0  0  0  0
  3  4  1  0  0  0  0
  3 13  2  0  0  0  0
  4  5  2  0  0  0  0
  5  6  1  0  0  0  0
  5 12  1  0  0  0  0
  6 11  1  0  0  0  0
  6  7  1  0  0  0  0
  6 20  1  0  0  0  0
  7  8  1  0  0  0  0
  7 21  1  0  0  0  0
  7 22  1  0  0  0  0
  8  9  1  0  0  0  0
  8 23  1  0  0  0  0
  8 28  1  0  0  0  0
  9 10  1  0  0  0  0
  9 24  1  0  0  0  0
  9 25  1  0  0  0  0
 10 11  1  0  0  0  0
 10 26  1  0  0  0  0
 10 27  1  0  0  0  0
 12 13  1  0  0  0  0
 12 14  1  0  0  0  0
M  CHG  1   8   1
M  END
> <s_m_source_file>
AV-unprocessed.smi

> <i_m_source_file_index>
3085

> <i_lp_mmshare_version>
43012

> <i_f3d_flags>
0

> <s_epik_input>
W0NIM11bQ0gyXWMxbmMobltuSF0xKVtDQEBIXTJbQ0gyXVtOSF1bQ0gyXVtDSDJdTzI=

> <s_epik_cmdline>
J2VwaWtfcHl0aG9uJywgJy1waCcsICc3LjAnLCAnLXRuJywgJzgnLCAnLW1hJywgJzIwMCcsICctbWV0YWxfYmluZGluZycsICctaW1hZScsICc8aW5maWxlLm1hZT4nLCAnLW9tYWUnLCAnPG91dGZpbGUubWFlPic=

> <r_epik_Ionization_Penalty>
0.162344

> <r_epik_Ionization_Penalty_Charging>
0.125708

> <r_epik_Ionization_Penalty_Neutral>
0.0366364

> <r_epik_State_Penalty>
0.637958

> <r_epik_Charging_Adjusted_Penalty>
0.763666

> <i_epik_Tot_Q>
1

> <i_epik_Tot_abs_Q>
1

> <r_epik_Metal_State_Penalty>
0.860091

> <b_epik_Metal_Only>
0

> <s_lp_Force_Field>
OPLS_2005

> <r_lp_Energy>
9.17309

> <b_lp_Chiralities_Consistent>
1

> <s_lp_Variant>
AV-unprocessed.smi:3085-3

> <Gold.Version>
5.8.1

> <Gold.Id.Protein>
6NUR|6NUR_protein|mol2

> <Gold.PLP.Fitness>
31.4695

> <Gold.PLP.PLP>
-23.5741

> <Gold.PLP.part.hbond>
-2.6090

> <Gold.PLP.part.metal>
0.0000

> <Gold.PLP.part.buried>
0.1879

> <Gold.PLP.part.nonpolar>
-20.9698

> <Gold.PLP.part.repulsive>
0.6828

> <Gold.PLP.ligand.clash>
0.0000

> <Gold.PLP.ligand.torsion>
0.5561

> <Gold.PLP.Chemscore.Hbond>
3.0000

> <Gold.PLP.Chemscore.CHOScore>
0.0000

> <Gold.PLP.Chemscore.Metal>
0.0000

> <Gold.Chemscore.Hbonds>
donor molecule, donor type, donor heavy atom, donor atom, acceptor molecule, acceptor atom, score
      L1  H     8    28       P1 10175  2.00
      L1  H    12    14       P1  7948  1.00

> <Gold.PLP.Chemscore.Internal.Correction>
0.0075

> <Gold.Rescore>
     Score         DG    S(hbond)    S(metal)    S(lipo)     H(rot)  DE(clash)    DE(int)     intcor
     13.00     -13.56       1.89        0.00      43.67       1.30       0.13       0.43       ----

> <Gold.Chemscore.Fitness>
13.0027

> <Gold.Chemscore.DG>
-13.5577

> <Gold.Chemscore.ZeroCoef>
-5.4800

> <Gold.Chemscore.Hbond>
1.8861

> <Gold.Chemscore.Metal>
0.0000

> <Gold.Chemscore.Lipo>
43.6660

> <Gold.Chemscore.Internal_Hbond>
0.0000

> <Gold.Chemscore.DEClash>
0.1252

> <Gold.Chemscore.DEInternal>
0.4298

> <Gold.Chemscore.Rot>
1.3011

> <Gold.Chemscore.Internal.Correction>
   9.000000E+99

> <Gold.Chemscore.Hbonds>
donor molecule, donor type, donor heavy atom, donor atom, acceptor molecule, acceptor atom, score
      L1  H     8    28       P1 10175  0.71
      L1  H    12    14       P1  7948  0.73

> <Gold.Chemscore.Hbond.Weighted>
-6.2996

> <Gold.Chemscore.Metal.Weighted>
-0.0000

> <Gold.Chemscore.Lipo.Weighted>
-5.1089

> <Gold.Chemscore.Internal_Hbond.Weighted>
0.0000

> <Gold.Chemscore.DEClash.Weighted>
0.1252

> <Gold.Chemscore.DEInternal.Weighted>
0.4298

> <Gold.Chemscore.Rot.Weighted>
3.3308

> <Gold.Chemscore.Internal.Correction.Weighted>
   9.000000E+99

> <Gold.Protein.RotatedTorsions>
[ 6907 6896 6895 6894 ] final   27.91 input  -60.11 | X-H torsion
[ 7974 7965 7964 7962 ] final   -7.61 input  175.53 | X-H torsion
[ 8008 7997 7996 7995 ] final   21.29 input   59.86 | X-H torsion
[ 10167 10162 10161 10158 ] final  140.34 input  -65.29 | X-H torsion
[ 10718 10713 10712 10709 ] final   73.51 input   66.30 | X-H torsion
[ 10763 10752 10751 10750 ] final    9.74 input  -60.55 | X-H torsion
[ 11005 11000 10999 10996 ] final  -23.58 input  -57.11 | X-H torsion

> <Gold.Protein.ActiveResidues>
 VAL166  LYS551  ARG553  GLY616  TRP617  ASP618  TYR619  PRO620  LYS621  CYS622 
 ASP623  PHE694  ASN695  SER759  ASP760  ASP761  ALA762  ILE779  LEU786  VAL792 
 PHE793  MET794  SER795  GLU796  ALA797  LYS798  CYS799  TRP800  GLU811  SER814 

> <Gold.Protein.RotatedAtoms>
  152.0093  134.9885  160.0567 H   0  0  0  0  0  0  0  0  0  0  0  0  # atno 6907 bound_to 6896
  152.1444  133.4479  159.4791 H   0  0  0  0  0  0  0  0  0  0  0  0  # atno 6908 bound_to 6896
  150.6868  134.2183  159.4430 H   0  0  0  0  0  0  0  0  0  0  0  0  # atno 6909 bound_to 6896
  146.2302  140.2345  142.8341 H   0  0  0  0  0  0  0  0  0  0  0  0  # atno 7974 bound_to 7965
  154.9484  140.3062  155.5087 H   0  0  0  0  0  0  0  0  0  0  0  0  # atno 8008 bound_to 7997
  156.2989  140.2323  156.4497 H   0  0  0  0  0  0  0  0  0  0  0  0  # atno 8009 bound_to 7997
  154.8078  140.0430  157.1309 H   0  0  0  0  0  0  0  0  0  0  0  0  # atno 8010 bound_to 7997
  139.5052  144.6240  151.5982 H   0  0  0  0  0  0  0  0  0  0  0  0  # atno 10167 bound_to 10162
  157.6551  130.9632  150.1079 H   0  0  0  0  0  0  0  0  0  0  0  0  # atno 10718 bound_to 10713
  153.2107  135.6868  153.8118 H   0  0  0  0  0  0  0  0  0  0  0  0  # atno 10763 bound_to 10752
  153.7351  135.3246  155.3294 H   0  0  0  0  0  0  0  0  0  0  0  0  # atno 10764 bound_to 10752
  154.8220  135.4645  154.0913 H   0  0  0  0  0  0  0  0  0  0  0  0  # atno 10765 bound_to 10752
  140.8765  133.7684  156.0250 H   0  0  0  0  0  0  0  0  0  0  0  0  # atno 11005 bound_to 11000
  144.9532  140.8199  143.5559 LP  0  0  0  0  0  0  0  0  0  0  0  0  # atno 17320 bound_to 7965
  145.2308  139.2116  143.5044 LP  0  0  0  0  0  0  0  0  0  0  0  0  # atno 17321 bound_to 7965
  140.5951  143.9710  150.6349 LP  0  0  0  0  0  0  0  0  0  0  0  0  # atno 17342 bound_to 10162
  140.2904  143.3328  152.1068 LP  0  0  0  0  0  0  0  0  0  0  0  0  # atno 17343 bound_to 10162
  156.1984  130.3658  149.8820 LP  0  0  0  0  0  0  0  0  0  0  0  0  # atno 17370 bound_to 10713
  156.6730  130.8828  151.3565 LP  0  0  0  0  0  0  0  0  0  0  0  0  # atno 17371 bound_to 10713
  140.8512  134.2952  157.5274 LP  0  0  0  0  0  0  0  0  0  0  0  0  # atno 17394 bound_to 11000
  139.8716  134.9468  156.3950 LP  0  0  0  0  0  0  0  0  0  0  0  0  # atno 17395 bound_to 11000

$$$$
