AV-unprocessed.smi:2865|AV-procd|sdf|11015|dock7
  -GOLD-   2272015473D 1   1.00000     0.00000
 Structure written by MMmdl.
 38 41  0  0  0  0  0  0  0  0  1 V2000
  146.2708  136.4009  153.2006 O   0  0  0  0  0  0  0  0  0  0  0  0
  145.6654  137.2789  152.5902 C   0  0  0  0  0  0  0  0  0  0  0  0
  145.9333  138.5968  152.6718 N   0  0  0  0  0  0  0  0  0  0  0  0
  146.9706  139.2530  153.3872 C   0  0  0  0  0  0  0  0  0  0  0  0
  148.1167  138.6225  153.9320 C   0  0  0  0  0  0  0  0  0  0  0  0
  149.0694  139.3240  154.5840 N   0  0  0  0  0  0  0  0  0  0  0  0
  148.8814  140.6415  154.6992 C   0  0  0  0  0  0  0  0  0  0  0  0
  149.9613  141.4173  155.3881 C   0  0  0  0  0  0  0  0  0  0  0  0
  151.1978  140.7219  155.9200 C   0  0  0  0  0  0  0  0  0  0  0  0
  150.1846  141.2792  156.8804 C   0  0  0  0  0  0  0  0  0  0  0  0
  147.8564  141.3445  154.2100 N   0  0  0  0  0  0  0  0  0  0  0  0
  146.8995  140.6515  153.5564 C   0  0  0  0  0  0  0  0  0  0  0  0
  144.6300  136.9783  151.7865 N   0  0  0  0  0  0  0  0  0  0  0  0
  144.0814  135.6563  151.4791 C   0  0  2  0  0  0  0  0  0  0  0  0
  143.7209  134.8523  152.7353 C   0  0  0  0  0  0  0  0  0  0  0  0
  144.5903  133.5989  152.5689 C   0  0  1  0  0  0  0  0  0  0  0  0
  144.1072  132.7076  151.4151 C   0  0  0  0  0  0  0  0  0  0  0  0
  144.5311  133.5189  150.1904 C   0  0  0  0  0  0  0  0  0  0  0  0
  145.1565  134.7589  150.8425 C   0  0  2  0  0  0  0  0  0  0  0  0
  145.7485  134.1709  151.9892 O   0  0  0  0  0  0  0  0  0  0  0  0
  145.2997  139.2055  152.1747 H   0  0  0  0  0  0  0  0  0  0  0  0
  148.3035  137.5643  153.8415 H   0  0  0  0  0  0  0  0  0  0  0  0
  150.0850  142.4034  154.9444 H   0  0  0  0  0  0  0  0  0  0  0  0
  151.2534  139.6391  155.8240 H   0  0  0  0  0  0  0  0  0  0  0  0
  152.1461  141.2475  155.8278 H   0  0  0  0  0  0  0  0  0  0  0  0
  150.4548  142.1774  157.4318 H   0  0  0  0  0  0  0  0  0  0  0  0
  149.5664  140.5669  157.4234 H   0  0  0  0  0  0  0  0  0  0  0  0
  146.0703  141.2214  153.1632 H   0  0  0  0  0  0  0  0  0  0  0  0
  144.1524  137.7580  151.3577 H   0  0  0  0  0  0  0  0  0  0  0  0
  143.2304  135.7563  150.8028 H   0  0  0  0  0  0  0  0  0  0  0  0
  143.9976  135.3848  153.6466 H   0  0  0  0  0  0  0  0  0  0  0  0
  142.6580  134.6154  152.7933 H   0  0  0  0  0  0  0  0  0  0  0  0
  144.7719  133.0605  153.4994 H   0  0  0  0  0  0  0  0  0  0  0  0
  144.6165  131.7435  151.4282 H   0  0  0  0  0  0  0  0  0  0  0  0
  143.0325  132.5277  151.4535 H   0  0  0  0  0  0  0  0  0  0  0  0
  145.2736  132.9722  149.6079 H   0  0  0  0  0  0  0  0  0  0  0  0
  143.6962  133.7661  149.5337 H   0  0  0  0  0  0  0  0  0  0  0  0
  145.8571  135.2850  150.1928 H   0  0  0  0  0  0  0  0  0  0  0  0
  1  2  2  0  0  0  0
  2  3  1  0  0  0  0
  2 13  1  0  0  0  0
  3  4  1  0  0  0  0
  3 21  1  0  0  0  0
  4 12  1  0  0  0  0
  4  5  2  0  0  0  0
  5  6  1  0  0  0  0
  5 22  1  0  0  0  0
  6  7  2  0  0  0  0
  7  8  1  0  0  0  0
  7 11  1  0  0  0  0
  8 10  1  0  0  0  0
  8  9  1  0  0  0  0
  8 23  1  0  0  0  0
  9 10  1  0  0  0  0
  9 24  1  0  0  0  0
  9 25  1  0  0  0  0
 10 26  1  0  0  0  0
 10 27  1  0  0  0  0
 11 12  2  0  0  0  0
 12 28  1  0  0  0  0
 13 14  1  0  0  0  0
 13 29  1  0  0  0  0
 14 19  1  0  0  0  0
 14 15  1  0  0  0  0
 14 30  1  0  0  0  0
 15 16  1  0  0  0  0
 15 31  1  0  0  0  0
 15 32  1  0  0  0  0
 16 20  1  0  0  0  0
 16 17  1  0  0  0  0
 16 33  1  0  0  0  0
 17 18  1  0  0  0  0
 17 34  1  0  0  0  0
 17 35  1  0  0  0  0
 18 19  1  0  0  0  0
 18 36  1  0  0  0  0
 18 37  1  0  0  0  0
 19 20  1  0  0  0  0
 19 38  1  0  0  0  0
M  END
> <s_m_source_file>
AV-unprocessed.smi

> <i_m_source_file_index>
2865

> <i_lp_mmshare_version>
43012

> <i_f3d_flags>
0

> <s_epik_input>
W0NIMl0xW0NIMl1bQ0BIXShPMilbQ0BASF0oW0NIMl1bQ0BASF0xMilbTkhdQyg9TylbTkhdYzNbY0hdbmMobltjSF0zKVtDSF00W0NIMl1bQ0gyXTQ=

> <s_epik_cmdline>
J2VwaWtfcHl0aG9uJywgJy1waCcsICc3LjAnLCAnLXRuJywgJzgnLCAnLW1hJywgJzIwMCcsICctbWV0YWxfYmluZGluZycsICctaW1hZScsICc8aW5maWxlLm1hZT4nLCAnLW9tYWUnLCAnPG91dGZpbGUubWFlPic=

> <r_lp_tautomer_probability>
1

> <r_epik_Ionization_Penalty>
2.43104e-05

> <r_epik_Ionization_Penalty_Charging>
0

> <r_epik_Ionization_Penalty_Neutral>
2.43104e-05

> <r_epik_State_Penalty>
-0

> <r_epik_Charging_Adjusted_Penalty>
0

> <i_epik_Tot_Q>
0

> <i_epik_Tot_abs_Q>
0

> <r_epik_Metal_State_Penalty>
-0

> <b_epik_Metal_Only>
0

> <s_lp_Force_Field>
OPLS_2005

> <r_lp_Energy>
45.9934

> <b_lp_Chiralities_Consistent>
1

> <s_lp_Variant>
AV-unprocessed.smi:2865-1

> <Gold.Version>
5.8.1

> <Gold.Id.Protein>
6NUR|6NUR_protein|mol2

> <Gold.PLP.Fitness>
43.1580

> <Gold.PLP.PLP>
-32.5308

> <Gold.PLP.part.hbond>
-2.0000

> <Gold.PLP.part.metal>
0.0000

> <Gold.PLP.part.buried>
-6.6757

> <Gold.PLP.part.nonpolar>
-26.6489

> <Gold.PLP.part.repulsive>
1.4085

> <Gold.PLP.ligand.clash>
0.0000

> <Gold.PLP.ligand.torsion>
0.1481

> <Gold.PLP.Chemscore.Hbond>
1.7120

> <Gold.PLP.Chemscore.CHOScore>
1.8805

> <Gold.PLP.Chemscore.Metal>
0.0000

> <Gold.Chemscore.Hbonds>
donor molecule, donor type, donor heavy atom, donor atom, acceptor molecule, acceptor atom, score
      L1  H     3    21       P1 10175  0.79
      L1  H    13    29       P1 10171  0.88
      L1  C     5    22       P1  7948  0.99
      L1  C    12    28       P1 10175  0.86

> <Gold.PLP.Chemscore.Internal.Correction>
0.1458

> <Gold.Rescore>
     Score         DG    S(hbond)    S(metal)    S(lipo)     H(rot)  DE(clash)    DE(int)     intcor
     12.77     -16.14       1.73        0.00      68.01       1.20       0.12       3.25       ----

> <Gold.Chemscore.Fitness>
12.7727

> <Gold.Chemscore.DG>
-16.1415

> <Gold.Chemscore.ZeroCoef>
-5.4800

> <Gold.Chemscore.Hbond>
1.7305

> <Gold.Chemscore.Metal>
0.0000

> <Gold.Chemscore.Lipo>
68.0061

> <Gold.Chemscore.Internal_Hbond>
0.0000

> <Gold.Chemscore.DEClash>
0.1206

> <Gold.Chemscore.DEInternal>
3.2482

> <Gold.Chemscore.Rot>
1.2012

> <Gold.Chemscore.Internal.Correction>
   9.000000E+99

> <Gold.Chemscore.Hbonds>
donor molecule, donor type, donor heavy atom, donor atom, acceptor molecule, acceptor atom, score
      L1  H     3    21       P1 10175  0.75
      L1  H    13    29       P1 10171  0.87

> <Gold.Chemscore.Hbond.Weighted>
-5.7800

> <Gold.Chemscore.Metal.Weighted>
-0.0000

> <Gold.Chemscore.Lipo.Weighted>
-7.9567

> <Gold.Chemscore.Internal_Hbond.Weighted>
0.0000

> <Gold.Chemscore.DEClash.Weighted>
0.1206

> <Gold.Chemscore.DEInternal.Weighted>
3.2482

> <Gold.Chemscore.Rot.Weighted>
3.0752

> <Gold.Chemscore.Internal.Correction.Weighted>
   9.000000E+99

> <Gold.Protein.RotatedTorsions>
[ 6907 6896 6895 6894 ] final  -22.52 input  -60.11 | X-H torsion
[ 7974 7965 7964 7962 ] final -124.27 input  175.53 | X-H torsion
[ 8008 7997 7996 7995 ] final  -69.80 input   59.86 | X-H torsion
[ 10167 10162 10161 10158 ] final -174.91 input  -65.29 | X-H torsion
[ 10718 10713 10712 10709 ] final   17.32 input   66.30 | X-H torsion
[ 10763 10752 10751 10750 ] final   52.99 input  -60.55 | X-H torsion
[ 11005 11000 10999 10996 ] final  146.61 input  -57.11 | X-H torsion

> <Gold.Protein.ActiveResidues>
 VAL166  LYS551  ARG553  GLY616  TRP617  ASP618  TYR619  PRO620  LYS621  CYS622 
 ASP623  PHE694  ASN695  SER759  ASP760  ASP761  ALA762  ILE779  LEU786  VAL792 
 PHE793  MET794  SER795  GLU796  ALA797  LYS798  CYS799  TRP800  GLU811  SER814 

> <Gold.Protein.RotatedAtoms>
  151.2175  135.0505  159.8935 H   0  0  0  0  0  0  0  0  0  0  0  0  # atno 6907 bound_to 6896
  152.5419  134.0677  159.8190 H   0  0  0  0  0  0  0  0  0  0  0  0  # atno 6908 bound_to 6896
  151.0839  133.5320  159.2650 H   0  0  0  0  0  0  0  0  0  0  0  0  # atno 6909 bound_to 6896
  145.0098  140.7896  143.4445 H   0  0  0  0  0  0  0  0  0  0  0  0  # atno 7974 bound_to 7965
  154.4965  140.0846  156.7707 H   0  0  0  0  0  0  0  0  0  0  0  0  # atno 8008 bound_to 7997
  155.4105  140.3441  155.4245 H   0  0  0  0  0  0  0  0  0  0  0  0  # atno 8009 bound_to 7997
  156.1400  140.1526  156.8923 H   0  0  0  0  0  0  0  0  0  0  0  0  # atno 8010 bound_to 7997
  139.5608  144.1874  152.1236 H   0  0  0  0  0  0  0  0  0  0  0  0  # atno 10167 bound_to 10162
  157.0804  130.6385  149.5825 H   0  0  0  0  0  0  0  0  0  0  0  0  # atno 10718 bound_to 10713
  152.9792  135.5794  154.4668 H   0  0  0  0  0  0  0  0  0  0  0  0  # atno 10763 bound_to 10752
  154.4236  135.2772  155.1961 H   0  0  0  0  0  0  0  0  0  0  0  0  # atno 10764 bound_to 10752
  154.3699  135.6170  153.5788 H   0  0  0  0  0  0  0  0  0  0  0  0  # atno 10765 bound_to 10752
  140.0807  134.9099  157.1496 H   0  0  0  0  0  0  0  0  0  0  0  0  # atno 11005 bound_to 11000
  145.2038  139.2238  143.5179 LP  0  0  0  0  0  0  0  0  0  0  0  0  # atno 17320 bound_to 7965
  146.3468  140.1861  142.8589 LP  0  0  0  0  0  0  0  0  0  0  0  0  # atno 17321 bound_to 7965
  140.1387  144.5222  150.6757 LP  0  0  0  0  0  0  0  0  0  0  0  0  # atno 17342 bound_to 10162
  140.6888  143.2364  151.5188 LP  0  0  0  0  0  0  0  0  0  0  0  0  # atno 17343 bound_to 10162
  155.9925  130.4983  150.7343 LP  0  0  0  0  0  0  0  0  0  0  0  0  # atno 17370 bound_to 10713
  157.4805  131.0902  151.0542 LP  0  0  0  0  0  0  0  0  0  0  0  0  # atno 17371 bound_to 10713
  140.3492  134.2617  155.7201 LP  0  0  0  0  0  0  0  0  0  0  0  0  # atno 17394 bound_to 11000
  141.2045  133.7883  157.0281 LP  0  0  0  0  0  0  0  0  0  0  0  0  # atno 17395 bound_to 11000

$$$$
