AV-unprocessed.smi:1491|AV-procd|sdf|6032|dock5
  -GOLD-   22720 6133D 1   1.00000     0.00000
 Structure written by MMmdl.
 39 40  0  0  0  0  0  0  0  0  2 V2000
  144.7658  136.4039  153.4445 O   0  0  0  0  0  0  0  0  0  0  0  0
  145.9089  136.3572  152.9906 C   0  0  0  0  0  0  0  0  0  0  0  0
  146.8331  137.3079  153.1858 N   0  0  0  0  0  0  0  0  0  0  0  0
  146.6343  138.5316  153.9578 C   0  0  0  0  0  0  0  0  0  0  0  0
  147.0854  139.8001  153.2059 C   0  0  0  0  0  0  0  0  0  0  0  0
  148.0466  140.6003  153.9697 N   0  0  0  0  0  0  0  0  0  0  0  0
  149.2862  140.2112  154.4086 C   0  0  0  0  0  0  0  0  0  0  0  0
  149.8202  141.2853  155.0725 C   0  0  0  0  0  0  0  0  0  0  0  0
  148.8839  142.2827  155.0120 N   0  3  0  0  0  0  0  0  0  0  0  0
  147.8059  141.8642  154.3408 C   0  0  0  0  0  0  0  0  0  0  0  0
  146.3862  135.3434  152.2555 N   0  0  0  0  0  0  0  0  0  0  0  0
  145.6362  134.1458  151.8893 C   0  0  2  0  0  0  0  0  0  0  0  0
  146.3272  133.4045  150.7254 C   0  0  0  0  0  0  0  0  0  0  0  0
  145.5131  132.1792  150.2790 C   0  0  0  0  0  0  0  0  0  0  0  0
  144.0744  132.5747  149.9048 C   0  0  1  0  0  0  0  0  0  0  0  0
  143.3383  131.4174  149.5701 O   0  0  0  0  0  0  0  0  0  0  0  0
  143.3814  133.3067  151.0666 C   0  0  0  0  0  0  0  0  0  0  0  0
  144.1944  134.5336  151.5105 C   0  0  0  0  0  0  0  0  0  0  0  0
  147.7419  137.1784  152.7653 H   0  0  0  0  0  0  0  0  0  0  0  0
  145.5759  138.6055  154.2095 H   0  0  0  0  0  0  0  0  0  0  0  0
  147.1699  138.4509  154.9050 H   0  0  0  0  0  0  0  0  0  0  0  0
  147.5526  139.5286  152.2582 H   0  0  0  0  0  0  0  0  0  0  0  0
  146.2354  140.4382  152.9613 H   0  0  0  0  0  0  0  0  0  0  0  0
  149.6855  139.2252  154.2176 H   0  0  0  0  0  0  0  0  0  0  0  0
  150.7707  141.4111  155.5701 H   0  0  0  0  0  0  0  0  0  0  0  0
  146.9170  142.4350  154.1384 H   0  0  0  0  0  0  0  0  0  0  0  0
  147.3387  135.4002  151.9263 H   0  0  0  0  0  0  0  0  0  0  0  0
  145.5901  133.4798  152.7534 H   0  0  0  0  0  0  0  0  0  0  0  0
  146.4547  134.0814  149.8793 H   0  0  0  0  0  0  0  0  0  0  0  0
  147.3281  133.0877  151.0204 H   0  0  0  0  0  0  0  0  0  0  0  0
  146.0034  131.6995  149.4311 H   0  0  0  0  0  0  0  0  0  0  0  0
  145.4981  131.4441  151.0849 H   0  0  0  0  0  0  0  0  0  0  0  0
  144.0943  133.2242  149.0287 H   0  0  0  0  0  0  0  0  0  0  0  0
  142.4208  131.5932  149.7128 H   0  0  0  0  0  0  0  0  0  0  0  0
  142.3787  133.6169  150.7698 H   0  0  0  0  0  0  0  0  0  0  0  0
  143.2586  132.6291  151.9127 H   0  0  0  0  0  0  0  0  0  0  0  0
  143.7015  135.0128  152.3572 H   0  0  0  0  0  0  0  0  0  0  0  0
  144.2075  135.2682  150.7041 H   0  0  0  0  0  0  0  0  0  0  0  0
  148.9893  143.2045  155.4175 H   0  0  0  0  0  0  0  0  0  0  0  0
  1  2  2  0  0  0  0
  2  3  1  0  0  0  0
  2 11  1  0  0  0  0
  3  4  1  0  0  0  0
  3 19  1  0  0  0  0
  4  5  1  0  0  0  0
  4 20  1  0  0  0  0
  4 21  1  0  0  0  0
  5  6  1  0  0  0  0
  5 22  1  0  0  0  0
  5 23  1  0  0  0  0
  6 10  1  0  0  0  0
  6  7  1  0  0  0  0
  7  8  2  0  0  0  0
  7 24  1  0  0  0  0
  8  9  1  0  0  0  0
  8 25  1  0  0  0  0
  9 10  2  0  0  0  0
  9 39  1  0  0  0  0
 10 26  1  0  0  0  0
 11 12  1  0  0  0  0
 11 27  1  0  0  0  0
 12 18  1  0  0  0  0
 12 13  1  0  0  0  0
 12 28  1  0  0  0  0
 13 14  1  0  0  0  0
 13 29  1  0  0  0  0
 13 30  1  0  0  0  0
 14 15  1  0  0  0  0
 14 31  1  0  0  0  0
 14 32  1  0  0  0  0
 15 16  1  0  0  0  0
 15 17  1  0  0  0  0
 15 33  1  0  0  0  0
 16 34  1  0  0  0  0
 17 18  1  0  0  0  0
 17 35  1  0  0  0  0
 17 36  1  0  0  0  0
 18 37  1  0  0  0  0
 18 38  1  0  0  0  0
M  CHG  1   9   1
M  END
> <s_m_source_file>
AV-unprocessed.smi

> <i_m_source_file_index>
1491

> <i_lp_mmshare_version>
43012

> <i_f3d_flags>
0

> <s_epik_input>
W0NIMl0xW0NIMl1bQ0BIXShbT0hdKVtDSDJdW0NIMl1bQ0BIXTFbTkhdQyg9TylbTkhdW0NIMl1bQ0gyXW4yW2NIXVtjSF1uW2NIXTI=

> <s_epik_cmdline>
J2VwaWtfcHl0aG9uJywgJy1waCcsICc3LjAnLCAnLXRuJywgJzgnLCAnLW1hJywgJzIwMCcsICctbWV0YWxfYmluZGluZycsICctaW1hZScsICc8aW5maWxlLm1hZT4nLCAnLW9tYWUnLCAnPG91dGZpbGUubWFlPic=

> <r_lp_tautomer_probability>
1

> <r_epik_Ionization_Penalty>
0.254652

> <r_epik_Ionization_Penalty_Charging>
0

> <r_epik_Ionization_Penalty_Neutral>
0.254652

> <r_epik_State_Penalty>
0.246077

> <r_epik_Charging_Adjusted_Penalty>
0.246077

> <i_epik_Tot_Q>
1

> <i_epik_Tot_abs_Q>
1

> <r_epik_Metal_State_Penalty>
0.536042

> <b_epik_Metal_Only>
0

> <s_lp_Force_Field>
OPLS_2005

> <r_lp_Energy>
9.33043

> <b_lp_Chiralities_Consistent>
1

> <s_lp_Variant>
AV-unprocessed.smi:1491-1

> <Gold.Version>
5.8.1

> <Gold.Id.Protein>
6NUR|6NUR_protein|mol2

> <Gold.PLP.Fitness>
50.4298

> <Gold.PLP.PLP>
-34.9740

> <Gold.PLP.part.hbond>
-4.8183

> <Gold.PLP.part.metal>
0.0000

> <Gold.PLP.part.buried>
-2.4715

> <Gold.PLP.part.nonpolar>
-27.6411

> <Gold.PLP.part.repulsive>
0.3382

> <Gold.PLP.ligand.clash>
0.0000

> <Gold.PLP.ligand.torsion>
0.6633

> <Gold.PLP.Chemscore.Hbond>
5.5920

> <Gold.PLP.Chemscore.CHOScore>
0.0000

> <Gold.PLP.Chemscore.Metal>
0.0000

> <Gold.Chemscore.Hbonds>
donor molecule, donor type, donor heavy atom, donor atom, acceptor molecule, acceptor atom, score
      L1  H     3    19       P1  7948  1.00
      L1  H     9    39       P1  8028  2.00
      L1  H    11    27       P1  7948  1.00
      L1  H    16    34       P1 10952  0.60
      P1  H 10785 10796       L1    16  0.94

> <Gold.PLP.Chemscore.Internal.Correction>
0.0063

> <Gold.Rescore>
     Score         DG    S(hbond)    S(metal)    S(lipo)     H(rot)  DE(clash)    DE(int)     intcor
     17.21     -19.50       3.84        0.00      68.32       2.65       0.30       1.99       ----

> <Gold.Chemscore.Fitness>
17.2090

> <Gold.Chemscore.DG>
-19.4984

> <Gold.Chemscore.ZeroCoef>
-5.4800

> <Gold.Chemscore.Hbond>
3.8378

> <Gold.Chemscore.Metal>
0.0000

> <Gold.Chemscore.Lipo>
68.3186

> <Gold.Chemscore.Internal_Hbond>
0.0000

> <Gold.Chemscore.DEClash>
0.2990

> <Gold.Chemscore.DEInternal>
1.9904

> <Gold.Chemscore.Rot>
2.6536

> <Gold.Chemscore.Internal.Correction>
   9.000000E+99

> <Gold.Chemscore.Hbonds>
donor molecule, donor type, donor heavy atom, donor atom, acceptor molecule, acceptor atom, score
      L1  H     3    19       P1  7948  0.97
      L1  H     9    39       P1  8028  0.93
      L1  H    11    27       P1  7948  0.96
      L1  H    16    34       P1 10952  0.56
      P1  H 10785 10796       L1    16  0.19

> <Gold.Chemscore.Hbond.Weighted>
-12.8184

> <Gold.Chemscore.Metal.Weighted>
-0.0000

> <Gold.Chemscore.Lipo.Weighted>
-7.9933

> <Gold.Chemscore.Internal_Hbond.Weighted>
0.0000

> <Gold.Chemscore.DEClash.Weighted>
0.2990

> <Gold.Chemscore.DEInternal.Weighted>
1.9904

> <Gold.Chemscore.Rot.Weighted>
6.7933

> <Gold.Chemscore.Internal.Correction.Weighted>
   9.000000E+99

> <Gold.Protein.RotatedTorsions>
[ 6907 6896 6895 6894 ] final   71.00 input  -60.11 | X-H torsion
[ 7974 7965 7964 7962 ] final  -95.07 input  175.53 | X-H torsion
[ 8008 7997 7996 7995 ] final -165.36 input   59.86 | X-H torsion
[ 10167 10162 10161 10158 ] final -161.66 input  -65.29 | X-H torsion
[ 10718 10713 10712 10709 ] final   77.79 input   66.30 | X-H torsion
[ 10763 10752 10751 10750 ] final  -78.39 input  -60.55 | X-H torsion
[ 11005 11000 10999 10996 ] final  114.72 input  -57.11 | X-H torsion

> <Gold.Protein.ActiveResidues>
 VAL166  LYS551  ARG553  GLY616  TRP617  ASP618  TYR619  PRO620  LYS621  CYS622 
 ASP623  PHE694  ASN695  SER759  ASP760  ASP761  ALA762  ILE779  LEU786  VAL792 
 PHE793  MET794  SER795  GLU796  ALA797  LYS798  CYS799  TRP800  GLU811  SER814 

> <Gold.Protein.RotatedAtoms>
  152.4783  134.4786  159.9657 H   0  0  0  0  0  0  0  0  0  0  0  0  # atno 6907 bound_to 6896
  151.4797  133.3543  159.2844 H   0  0  0  0  0  0  0  0  0  0  0  0  # atno 6908 bound_to 6896
  150.8837  134.8259  159.7305 H   0  0  0  0  0  0  0  0  0  0  0  0  # atno 6909 bound_to 6896
  145.3649  140.9497  143.2480 H   0  0  0  0  0  0  0  0  0  0  0  0  # atno 7974 bound_to 7965
  155.8486  140.0959  157.1689 H   0  0  0  0  0  0  0  0  0  0  0  0  # atno 8008 bound_to 7997
  154.3984  140.1387  156.3878 H   0  0  0  0  0  0  0  0  0  0  0  0  # atno 8009 bound_to 7997
  155.7986  140.3453  155.5392 H   0  0  0  0  0  0  0  0  0  0  0  0  # atno 8010 bound_to 7997
  139.6448  144.0192  152.2119 H   0  0  0  0  0  0  0  0  0  0  0  0  # atno 10167 bound_to 10162
  157.6723  130.9838  150.1692 H   0  0  0  0  0  0  0  0  0  0  0  0  # atno 10718 bound_to 10713
  154.5252  135.5731  153.6714 H   0  0  0  0  0  0  0  0  0  0  0  0  # atno 10763 bound_to 10752
  152.9926  135.6191  154.2701 H   0  0  0  0  0  0  0  0  0  0  0  0  # atno 10764 bound_to 10752
  154.2624  135.2855  155.2752 H   0  0  0  0  0  0  0  0  0  0  0  0  # atno 10765 bound_to 10752
  139.8988  134.9572  156.6935 H   0  0  0  0  0  0  0  0  0  0  0  0  # atno 11005 bound_to 11000
  144.8619  139.5165  143.6808 LP  0  0  0  0  0  0  0  0  0  0  0  0  # atno 17320 bound_to 7965
  146.2911  139.7142  142.9160 LP  0  0  0  0  0  0  0  0  0  0  0  0  # atno 17321 bound_to 7965
  139.9891  144.6374  150.7831 LP  0  0  0  0  0  0  0  0  0  0  0  0  # atno 17342 bound_to 10162
  140.7509  143.2964  151.3195 LP  0  0  0  0  0  0  0  0  0  0  0  0  # atno 17343 bound_to 10162
  156.2450  130.3695  149.8294 LP  0  0  0  0  0  0  0  0  0  0  0  0  # atno 17370 bound_to 10713
  156.6084  130.8576  151.3448 LP  0  0  0  0  0  0  0  0  0  0  0  0  # atno 17371 bound_to 10713
  140.7207  133.9143  155.8144 LP  0  0  0  0  0  0  0  0  0  0  0  0  # atno 17394 bound_to 11000
  141.0230  134.0863  157.4100 LP  0  0  0  0  0  0  0  0  0  0  0  0  # atno 17395 bound_to 11000

$$$$
