AV-unprocessed.smi:3048|AV-procd|sdf|11626|dock8
  -GOLD-   2272017 13D 1   1.00000     0.00000
 Structure written by MMmdl.
 38 39  0  0  0  0  0  0  0  0  2 V2000
  153.6092  141.8492  161.9713 C   0  0  0  0  0  0  0  0  0  0  0  0
  152.8272  142.8116  161.1242 C   0  0  0  0  0  0  0  0  0  0  0  0
  152.2060  144.0274  161.5284 C   0  0  0  0  0  0  0  0  0  0  0  0
  151.5926  144.6467  160.5329 N   0  0  0  0  0  0  0  0  0  0  0  0
  151.7980  143.8504  159.4619 N   0  0  0  0  0  0  0  0  0  0  0  0
  151.2627  144.2290  158.1658 C   0  0  0  0  0  0  0  0  0  0  0  0
  151.4868  143.1413  157.1025 C   0  0  0  0  0  0  0  0  0  0  0  0
  150.2157  142.5116  156.6924 N   0  3  0  0  0  0  0  0  0  0  0  0
  150.3464  141.5409  155.5887 C   0  0  0  0  0  0  0  0  0  0  0  0
  148.9727  140.9932  155.1763 C   0  0  1  0  0  0  0  0  0  0  0  0
  148.1978  141.9863  154.2888 C   0  0  0  0  0  0  0  0  0  0  0  0
  146.8687  141.3746  153.8309 C   0  0  0  0  0  0  0  0  0  0  0  0
  147.1247  140.0141  153.1740 C   0  0  0  0  0  0  0  0  0  0  0  0
  147.9649  139.1211  154.1009 C   0  0  0  0  0  0  0  0  0  0  0  0
  149.1771  139.7846  154.4472 O   0  0  0  0  0  0  0  0  0  0  0  0
  152.5394  142.7353  159.7907 C   0  0  0  0  0  0  0  0  0  0  0  0
  153.5826  142.1229  163.0264 H   0  0  0  0  0  0  0  0  0  0  0  0
  154.6578  141.8137  161.6757 H   0  0  0  0  0  0  0  0  0  0  0  0
  153.2178  140.8348  161.8934 H   0  0  0  0  0  0  0  0  0  0  0  0
  152.1848  144.4766  162.5106 H   0  0  0  0  0  0  0  0  0  0  0  0
  150.1945  144.4154  158.2817 H   0  0  0  0  0  0  0  0  0  0  0  0
  151.7110  145.1742  157.8554 H   0  0  0  0  0  0  0  0  0  0  0  0
  151.9829  143.5692  156.2303 H   0  0  0  0  0  0  0  0  0  0  0  0
  152.1479  142.3706  157.5005 H   0  0  0  0  0  0  0  0  0  0  0  0
  149.8162  142.0385  157.4907 H   0  0  0  0  0  0  0  0  0  0  0  0
  150.8125  142.0419  154.7391 H   0  0  0  0  0  0  0  0  0  0  0  0
  151.0090  140.7275  155.8877 H   0  0  0  0  0  0  0  0  0  0  0  0
  148.3906  140.7819  156.0755 H   0  0  0  0  0  0  0  0  0  0  0  0
  148.0122  142.9144  154.8303 H   0  0  0  0  0  0  0  0  0  0  0  0
  148.7985  142.2474  153.4163 H   0  0  0  0  0  0  0  0  0  0  0  0
  146.2064  141.2501  154.6888 H   0  0  0  0  0  0  0  0  0  0  0  0
  146.3599  142.0436  153.1362 H   0  0  0  0  0  0  0  0  0  0  0  0
  146.1794  139.5266  152.9339 H   0  0  0  0  0  0  0  0  0  0  0  0
  147.6525  140.1564  152.2301 H   0  0  0  0  0  0  0  0  0  0  0  0
  147.4086  138.8636  155.0035 H   0  0  0  0  0  0  0  0  0  0  0  0
  148.2070  138.1840  153.5989 H   0  0  0  0  0  0  0  0  0  0  0  0
  152.8004  141.9875  159.0559 H   0  0  0  0  0  0  0  0  0  0  0  0
  149.5810  143.2429  156.4040 H   0  0  0  0  0  0  0  0  0  0  0  0
  1  2  1  0  0  0  0
  1 17  1  0  0  0  0
  1 18  1  0  0  0  0
  1 19  1  0  0  0  0
  2 16  2  0  0  0  0
  2  3  1  0  0  0  0
  3  4  2  0  0  0  0
  3 20  1  0  0  0  0
  4  5  1  0  0  0  0
  5  6  1  0  0  0  0
  5 16  1  0  0  0  0
  6  7  1  0  0  0  0
  6 21  1  0  0  0  0
  6 22  1  0  0  0  0
  7  8  1  0  0  0  0
  7 23  1  0  0  0  0
  7 24  1  0  0  0  0
  8  9  1  0  0  0  0
  8 25  1  0  0  0  0
  8 38  1  0  0  0  0
  9 10  1  0  0  0  0
  9 26  1  0  0  0  0
  9 27  1  0  0  0  0
 10 15  1  0  0  0  0
 10 11  1  0  0  0  0
 10 28  1  0  0  0  0
 11 12  1  0  0  0  0
 11 29  1  0  0  0  0
 11 30  1  0  0  0  0
 12 13  1  0  0  0  0
 12 31  1  0  0  0  0
 12 32  1  0  0  0  0
 13 14  1  0  0  0  0
 13 33  1  0  0  0  0
 13 34  1  0  0  0  0
 14 15  1  0  0  0  0
 14 35  1  0  0  0  0
 14 36  1  0  0  0  0
 16 37  1  0  0  0  0
M  CHG  1   8   1
M  END
> <s_m_source_file>
AV-unprocessed.smi

> <i_m_source_file_index>
3048

> <i_lp_mmshare_version>
43012

> <i_f3d_flags>
0

> <s_epik_input>
W0NIM11jMVtjSF1ubihbY0hdMSlbQ0gyXVtDSDJdW05IXVtDSDJdW0NAQEhdMltDSDJdW0NIMl1bQ0gyXVtDSDJdTzI=

> <s_epik_cmdline>
J2VwaWtfcHl0aG9uJywgJy1waCcsICc3LjAnLCAnLXRuJywgJzgnLCAnLW1hJywgJzIwMCcsICctbWV0YWxfYmluZGluZycsICctaW1hZScsICc8aW5maWxlLm1hZT4nLCAnLW9tYWUnLCAnPG91dGZpbGUubWFlPic=

> <r_lp_tautomer_probability>
1

> <r_epik_Ionization_Penalty>
0.0084937

> <r_epik_Ionization_Penalty_Charging>
0.00848754

> <r_epik_Ionization_Penalty_Neutral>
6.1613e-06

> <r_epik_State_Penalty>
0.00639836

> <r_epik_Charging_Adjusted_Penalty>
0.0148859

> <i_epik_Tot_Q>
1

> <i_epik_Tot_abs_Q>
1

> <r_epik_Metal_State_Penalty>
0.00642541

> <b_epik_Metal_Only>
0

> <s_lp_Force_Field>
OPLS_2005

> <r_lp_Energy>
10.7756

> <b_lp_Chiralities_Consistent>
1

> <s_lp_Variant>
AV-unprocessed.smi:3048-2

> <Gold.Version>
5.8.1

> <Gold.Id.Protein>
6NUR|6NUR_protein|mol2

> <Gold.PLP.Fitness>
45.2787

> <Gold.PLP.PLP>
-40.3841

> <Gold.PLP.part.hbond>
-1.0000

> <Gold.PLP.part.metal>
0.0000

> <Gold.PLP.part.buried>
-3.6215

> <Gold.PLP.part.nonpolar>
-34.9461

> <Gold.PLP.part.repulsive>
0.3053

> <Gold.PLP.ligand.clash>
0.0000

> <Gold.PLP.ligand.torsion>
0.5583

> <Gold.PLP.Chemscore.Hbond>
2.0000

> <Gold.PLP.Chemscore.CHOScore>
0.0000

> <Gold.PLP.Chemscore.Metal>
0.0000

> <Gold.Chemscore.Hbonds>
donor molecule, donor type, donor heavy atom, donor atom, acceptor molecule, acceptor atom, score
      L1  H     8    38       P1  8028  2.00

> <Gold.PLP.Chemscore.Internal.Correction>
0.0111

> <Gold.Rescore>
     Score         DG    S(hbond)    S(metal)    S(lipo)     H(rot)  DE(clash)    DE(int)     intcor
     16.63     -17.72       1.00        0.00     111.48       1.61       0.48       0.61       ----

> <Gold.Chemscore.Fitness>
16.6281

> <Gold.Chemscore.DG>
-17.7218

> <Gold.Chemscore.ZeroCoef>
-5.4800

> <Gold.Chemscore.Hbond>
0.9978

> <Gold.Chemscore.Metal>
0.0000

> <Gold.Chemscore.Lipo>
111.4802

> <Gold.Chemscore.Internal_Hbond>
0.0000

> <Gold.Chemscore.DEClash>
0.4835

> <Gold.Chemscore.DEInternal>
0.6102

> <Gold.Chemscore.Rot>
1.6149

> <Gold.Chemscore.Internal.Correction>
   9.000000E+99

> <Gold.Chemscore.Hbonds>
donor molecule, donor type, donor heavy atom, donor atom, acceptor molecule, acceptor atom, score
      L1  H     8    38       P1  8028  1.00

> <Gold.Chemscore.Hbond.Weighted>
-3.3327

> <Gold.Chemscore.Metal.Weighted>
-0.0000

> <Gold.Chemscore.Lipo.Weighted>
-13.0432

> <Gold.Chemscore.Internal_Hbond.Weighted>
0.0000

> <Gold.Chemscore.DEClash.Weighted>
0.4835

> <Gold.Chemscore.DEInternal.Weighted>
0.6102

> <Gold.Chemscore.Rot.Weighted>
4.1341

> <Gold.Chemscore.Internal.Correction.Weighted>
   9.000000E+99

> <Gold.Protein.RotatedTorsions>
[ 6907 6896 6895 6894 ] final  112.23 input  -60.11 | X-H torsion
[ 7974 7965 7964 7962 ] final  -90.98 input  175.53 | X-H torsion
[ 8008 7997 7996 7995 ] final   93.45 input   59.86 | X-H torsion
[ 10167 10162 10161 10158 ] final   87.72 input  -65.29 | X-H torsion
[ 10718 10713 10712 10709 ] final   67.31 input   66.30 | X-H torsion
[ 10763 10752 10751 10750 ] final  -30.47 input  -60.55 | X-H torsion
[ 11005 11000 10999 10996 ] final -110.27 input  -57.11 | X-H torsion

> <Gold.Protein.ActiveResidues>
 VAL166  LYS551  ARG553  GLY616  TRP617  ASP618  TYR619  PRO620  LYS621  CYS622 
 ASP623  PHE694  ASN695  SER759  ASP760  ASP761  ALA762  ILE779  LEU786  VAL792 
 PHE793  MET794  SER795  GLU796  ALA797  LYS798  CYS799  TRP800  GLU811  SER814 

> <Gold.Protein.RotatedAtoms>
  152.4928  133.8546  159.7218 H   0  0  0  0  0  0  0  0  0  0  0  0  # atno 6907 bound_to 6896
  150.9074  133.7032  159.2870 H   0  0  0  0  0  0  0  0  0  0  0  0  # atno 6908 bound_to 6896
  151.4453  135.1028  159.9734 H   0  0  0  0  0  0  0  0  0  0  0  0  # atno 6909 bound_to 6896
  145.4192  140.9550  143.2190 H   0  0  0  0  0  0  0  0  0  0  0  0  # atno 7974 bound_to 7965
  156.0468  140.3313  155.7306 H   0  0  0  0  0  0  0  0  0  0  0  0  # atno 8008 bound_to 7997
  155.5661  140.0623  157.2835 H   0  0  0  0  0  0  0  0  0  0  0  0  # atno 8009 bound_to 7997
  154.4418  140.1869  156.0820 H   0  0  0  0  0  0  0  0  0  0  0  0  # atno 8010 bound_to 7997
  139.8745  144.6474  150.8912 H   0  0  0  0  0  0  0  0  0  0  0  0  # atno 10167 bound_to 10162
  157.6222  130.9314  150.0225 H   0  0  0  0  0  0  0  0  0  0  0  0  # atno 10718 bound_to 10713
  153.7816  135.6905  153.4887 H   0  0  0  0  0  0  0  0  0  0  0  0  # atno 10763 bound_to 10752
  153.1808  135.4507  155.0024 H   0  0  0  0  0  0  0  0  0  0  0  0  # atno 10764 bound_to 10752
  154.8079  135.3365  154.7318 H   0  0  0  0  0  0  0  0  0  0  0  0  # atno 10765 bound_to 10752
  141.0801  133.9234  157.2306 H   0  0  0  0  0  0  0  0  0  0  0  0  # atno 11005 bound_to 11000
  144.8256  139.5715  143.6967 LP  0  0  0  0  0  0  0  0  0  0  0  0  # atno 17320 bound_to 7965
  146.2665  139.6532  142.9326 LP  0  0  0  0  0  0  0  0  0  0  0  0  # atno 17321 bound_to 7965
  140.7755  143.3636  151.1781 LP  0  0  0  0  0  0  0  0  0  0  0  0  # atno 17342 bound_to 10162
  139.7253  143.9159  152.3000 LP  0  0  0  0  0  0  0  0  0  0  0  0  # atno 17343 bound_to 10162
  156.1374  130.3642  149.9635 LP  0  0  0  0  0  0  0  0  0  0  0  0  # atno 17370 bound_to 10713
  156.7683  130.9177  151.3643 LP  0  0  0  0  0  0  0  0  0  0  0  0  # atno 17371 bound_to 10713
  139.9615  135.0153  156.9273 LP  0  0  0  0  0  0  0  0  0  0  0  0  # atno 17394 bound_to 11000
  140.5487  134.0649  155.7362 LP  0  0  0  0  0  0  0  0  0  0  0  0  # atno 17395 bound_to 11000

$$$$
