AV-unprocessed.smi:2003|AV-procd|sdf|8118|dock6
  -GOLD-   2272010353D 1   1.00000     0.00000
 Structure written by MMmdl.
 43 44  0  0  0  0  0  0  0  0  1 V2000
  143.5320  132.8653  149.1875 C   0  0  0  0  0  0  0  0  0  0  0  0
  144.5466  133.5373  150.0655 C   0  0  0  0  0  0  0  0  0  0  0  0
  144.7564  134.9344  150.2526 C   0  0  0  0  0  0  0  0  0  0  0  0
  145.7890  134.9675  151.1499 C   0  0  0  0  0  0  0  0  0  0  0  0
  146.4085  136.0475  151.6965 N   0  0  0  0  0  0  0  0  0  0  0  0
  145.8593  137.1246  152.2842 C   0  0  0  0  0  0  0  0  0  0  0  0
  144.6526  137.3268  152.4219 O   0  0  0  0  0  0  0  0  0  0  0  0
  146.8029  137.9720  152.7194 N   0  0  0  0  0  0  0  0  0  0  0  0
  146.5418  139.2226  153.4272 C   0  0  0  0  0  0  0  0  0  0  0  0
  147.6748  140.2764  153.2557 C   0  0  1  0  0  0  0  0  0  0  0  0
  147.0310  141.6773  153.0942 C   0  0  0  0  0  0  0  0  0  0  0  0
  148.6877  140.2324  154.3359 N   0  0  0  0  0  0  0  0  0  0  0  0
  149.4171  141.4991  154.4719 C   0  0  0  0  0  0  0  0  0  0  0  0
  150.4952  141.4561  155.5686 C   0  0  0  0  0  0  0  0  0  0  0  0
  151.4047  140.3973  155.3041 O   0  0  0  0  0  0  0  0  0  0  0  0
  150.7506  139.1377  155.2442 C   0  0  0  0  0  0  0  0  0  0  0  0
  149.6747  139.1628  154.1447 C   0  0  0  0  0  0  0  0  0  0  0  0
  146.1523  133.6735  151.4570 N   0  0  0  0  0  0  0  0  0  0  0  0
  147.1804  133.1772  152.3517 C   0  0  0  0  0  0  0  0  0  0  0  0
  145.3795  132.7937  150.7848 N   0  0  0  0  0  0  0  0  0  0  0  0
  143.0640  133.5797  148.5101 H   0  0  0  0  0  0  0  0  0  0  0  0
  142.7424  132.4062  149.7828 H   0  0  0  0  0  0  0  0  0  0  0  0
  143.9895  132.0844  148.5796 H   0  0  0  0  0  0  0  0  0  0  0  0
  144.2253  135.7558  149.7958 H   0  0  0  0  0  0  0  0  0  0  0  0
  147.4170  136.0256  151.6635 H   0  0  0  0  0  0  0  0  0  0  0  0
  147.7709  137.7315  152.5636 H   0  0  0  0  0  0  0  0  0  0  0  0
  145.5983  139.6292  153.0617 H   0  0  0  0  0  0  0  0  0  0  0  0
  146.3784  138.9598  154.4714 H   0  0  0  0  0  0  0  0  0  0  0  0
  148.1832  140.0521  152.3168 H   0  0  0  0  0  0  0  0  0  0  0  0
  146.2486  141.6919  152.3363 H   0  0  0  0  0  0  0  0  0  0  0  0
  147.7509  142.4275  152.7705 H   0  0  0  0  0  0  0  0  0  0  0  0
  146.5864  142.0167  154.0301 H   0  0  0  0  0  0  0  0  0  0  0  0
  149.8807  141.7630  153.5202 H   0  0  0  0  0  0  0  0  0  0  0  0
  148.7362  142.3087  154.7279 H   0  0  0  0  0  0  0  0  0  0  0  0
  151.0441  142.3974  155.5959 H   0  0  0  0  0  0  0  0  0  0  0  0
  150.0419  141.3208  156.5518 H   0  0  0  0  0  0  0  0  0  0  0  0
  151.4887  138.3636  155.0339 H   0  0  0  0  0  0  0  0  0  0  0  0
  150.3076  138.9025  156.2132 H   0  0  0  0  0  0  0  0  0  0  0  0
  149.1942  138.1869  154.1551 H   0  0  0  0  0  0  0  0  0  0  0  0
  150.1544  139.2712  153.1707 H   0  0  0  0  0  0  0  0  0  0  0  0
  147.7976  133.9954  152.7221 H   0  0  0  0  0  0  0  0  0  0  0  0
  147.8196  132.4693  151.8232 H   0  0  0  0  0  0  0  0  0  0  0  0
  146.7152  132.6739  153.1998 H   0  0  0  0  0  0  0  0  0  0  0  0
  1  2  1  0  0  0  0
  1 21  1  0  0  0  0
  1 22  1  0  0  0  0
  1 23  1  0  0  0  0
  2 20  2  0  0  0  0
  2  3  1  0  0  0  0
  3  4  2  0  0  0  0
  3 24  1  0  0  0  0
  4  5  1  0  0  0  0
  4 18  1  0  0  0  0
  5  6  1  0  0  0  0
  5 25  1  0  0  0  0
  6  7  2  0  0  0  0
  6  8  1  0  0  0  0
  8  9  1  0  0  0  0
  8 26  1  0  0  0  0
  9 10  1  0  0  0  0
  9 27  1  0  0  0  0
  9 28  1  0  0  0  0
 10 11  1  0  0  0  0
 10 12  1  0  0  0  0
 10 29  1  0  0  0  0
 11 30  1  0  0  0  0
 11 31  1  0  0  0  0
 11 32  1  0  0  0  0
 12 17  1  0  0  0  0
 12 13  1  0  0  0  0
 13 14  1  0  0  0  0
 13 33  1  0  0  0  0
 13 34  1  0  0  0  0
 14 15  1  0  0  0  0
 14 35  1  0  0  0  0
 14 36  1  0  0  0  0
 15 16  1  0  0  0  0
 16 17  1  0  0  0  0
 16 37  1  0  0  0  0
 16 38  1  0  0  0  0
 17 39  1  0  0  0  0
 17 40  1  0  0  0  0
 18 19  1  0  0  0  0
 18 20  1  0  0  0  0
 19 41  1  0  0  0  0
 19 42  1  0  0  0  0
 19 43  1  0  0  0  0
M  END
> <s_m_source_file>
AV-unprocessed.smi

> <i_m_source_file_index>
2003

> <i_lp_mmshare_version>
43012

> <i_f3d_flags>
0

> <s_epik_input>
W0NIM11jMVtjSF1jKG4objEpW0NIM10pW05IXUMoPU8pW05IXVtDSDJdW0NASF0oW0NIM10pTjJbQ0gyXVtDSDJdT1tDSDJdW0NIMl0y

> <s_epik_cmdline>
J2VwaWtfcHl0aG9uJywgJy1waCcsICc3LjAnLCAnLXRuJywgJzgnLCAnLW1hJywgJzIwMCcsICctbWV0YWxfYmluZGluZycsICctaW1hZScsICc8aW5maWxlLm1hZT4nLCAnLW9tYWUnLCAnPG91dGZpbGUubWFlPic=

> <r_lp_tautomer_probability>
1

> <r_epik_Ionization_Penalty>
0.233974

> <r_epik_Ionization_Penalty_Charging>
0

> <r_epik_Ionization_Penalty_Neutral>
0.233974

> <r_epik_State_Penalty>
0.224627

> <r_epik_Charging_Adjusted_Penalty>
0.224627

> <i_epik_Tot_Q>
0

> <i_epik_Tot_abs_Q>
0

> <r_epik_Metal_State_Penalty>
0.224624

> <b_epik_Metal_Only>
0

> <s_lp_Force_Field>
OPLS_2005

> <r_lp_Energy>
29.1269

> <b_lp_Chiralities_Consistent>
1

> <s_lp_Variant>
AV-unprocessed.smi:2003-2

> <Gold.Version>
5.8.1

> <Gold.Id.Protein>
6NUR|6NUR_protein|mol2

> <Gold.PLP.Fitness>
42.2331

> <Gold.PLP.PLP>
-37.0927

> <Gold.PLP.part.hbond>
-2.9856

> <Gold.PLP.part.metal>
0.0000

> <Gold.PLP.part.buried>
-2.6722

> <Gold.PLP.part.nonpolar>
-31.3407

> <Gold.PLP.part.repulsive>
0.5147

> <Gold.PLP.ligand.clash>
0.0000

> <Gold.PLP.ligand.torsion>
1.6113

> <Gold.PLP.Chemscore.Hbond>
2.7760

> <Gold.PLP.Chemscore.CHOScore>
0.0000

> <Gold.PLP.Chemscore.Metal>
0.0000

> <Gold.Chemscore.Hbonds>
donor molecule, donor type, donor heavy atom, donor atom, acceptor molecule, acceptor atom, score
      L1  H     5    25       P1  7948  0.99
      L1  H     8    26       P1  7948  0.85
      P1  H  7989  7998       L1    15  0.65

> <Gold.PLP.Chemscore.Internal.Correction>
0.0349

> <Gold.Rescore>
     Score         DG    S(hbond)    S(metal)    S(lipo)     H(rot)  DE(clash)    DE(int)     intcor
     16.66     -18.35       2.14        0.00      81.66       1.49       0.10       1.59       ----

> <Gold.Chemscore.Fitness>
16.6555

> <Gold.Chemscore.DG>
-18.3487

> <Gold.Chemscore.ZeroCoef>
-5.4800

> <Gold.Chemscore.Hbond>
2.1372

> <Gold.Chemscore.Metal>
0.0000

> <Gold.Chemscore.Lipo>
81.6646

> <Gold.Chemscore.Internal_Hbond>
0.0000

> <Gold.Chemscore.DEClash>
0.0984

> <Gold.Chemscore.DEInternal>
1.5948

> <Gold.Chemscore.Rot>
1.4938

> <Gold.Chemscore.Internal.Correction>
   9.000000E+99

> <Gold.Chemscore.Hbonds>
donor molecule, donor type, donor heavy atom, donor atom, acceptor molecule, acceptor atom, score
      L1  H     5    25       P1  7948  0.92
      L1  H     8    26       P1  7948  0.79
      P1  H  7989  7998       L1    15  0.03

> <Gold.Chemscore.Hbond.Weighted>
-7.1381

> <Gold.Chemscore.Metal.Weighted>
-0.0000

> <Gold.Chemscore.Lipo.Weighted>
-9.5548

> <Gold.Chemscore.Internal_Hbond.Weighted>
0.0000

> <Gold.Chemscore.DEClash.Weighted>
0.0984

> <Gold.Chemscore.DEInternal.Weighted>
1.5948

> <Gold.Chemscore.Rot.Weighted>
3.8242

> <Gold.Chemscore.Internal.Correction.Weighted>
   9.000000E+99

> <Gold.Protein.RotatedTorsions>
[ 6907 6896 6895 6894 ] final  -80.23 input  -60.11 | X-H torsion
[ 7974 7965 7964 7962 ] final   29.38 input  175.53 | X-H torsion
[ 8008 7997 7996 7995 ] final -139.07 input   59.86 | X-H torsion
[ 10167 10162 10161 10158 ] final -131.03 input  -65.29 | X-H torsion
[ 10718 10713 10712 10709 ] final -135.05 input   66.30 | X-H torsion
[ 10763 10752 10751 10750 ] final  -57.01 input  -60.55 | X-H torsion
[ 11005 11000 10999 10996 ] final   40.23 input  -57.11 | X-H torsion

> <Gold.Protein.ActiveResidues>
 VAL166  LYS551  ARG553  GLY616  TRP617  ASP618  TYR619  PRO620  LYS621  CYS622 
 ASP623  PHE694  ASN695  SER759  ASP760  ASP761  ALA762  ILE779  LEU786  VAL792 
 PHE793  MET794  SER795  GLU796  ALA797  LYS798  CYS799  TRP800  GLU811  SER814 

> <Gold.Protein.RotatedAtoms>
  150.6933  134.4001  159.5114 H   0  0  0  0  0  0  0  0  0  0  0  0  # atno 6907 bound_to 6896
  152.1776  134.8779  160.0538 H   0  0  0  0  0  0  0  0  0  0  0  0  # atno 6908 bound_to 6896
  151.9782  133.3714  159.4134 H   0  0  0  0  0  0  0  0  0  0  0  0  # atno 6909 bound_to 6896
  146.1675  139.6930  142.8991 H   0  0  0  0  0  0  0  0  0  0  0  0  # atno 7974 bound_to 7965
  155.4387  140.0530  157.3012 H   0  0  0  0  0  0  0  0  0  0  0  0  # atno 8008 bound_to 7997
  154.4827  140.2088  155.9682 H   0  0  0  0  0  0  0  0  0  0  0  0  # atno 8009 bound_to 7997
  156.1230  140.3185  155.8241 H   0  0  0  0  0  0  0  0  0  0  0  0  # atno 8010 bound_to 7997
  139.9232  143.6358  152.2548 H   0  0  0  0  0  0  0  0  0  0  0  0  # atno 10167 bound_to 10162
  156.2620  130.7215  151.1152 H   0  0  0  0  0  0  0  0  0  0  0  0  # atno 10718 bound_to 10713
  154.2158  135.6386  153.5129 H   0  0  0  0  0  0  0  0  0  0  0  0  # atno 10763 bound_to 10752
  152.9980  135.5485  154.6167 H   0  0  0  0  0  0  0  0  0  0  0  0  # atno 10764 bound_to 10752
  154.5615  135.2909  155.0888 H   0  0  0  0  0  0  0  0  0  0  0  0  # atno 10765 bound_to 10752
  140.1951  134.3939  155.8125 H   0  0  0  0  0  0  0  0  0  0  0  0  # atno 11005 bound_to 11000
  145.4429  141.0423  143.2847 LP  0  0  0  0  0  0  0  0  0  0  0  0  # atno 17320 bound_to 7965
  144.8113  139.5956  143.7028 LP  0  0  0  0  0  0  0  0  0  0  0  0  # atno 17321 bound_to 7965
  139.6844  144.7653  151.1550 LP  0  0  0  0  0  0  0  0  0  0  0  0  # atno 17342 bound_to 10162
  140.7657  143.5678  150.9028 LP  0  0  0  0  0  0  0  0  0  0  0  0  # atno 17343 bound_to 10162
  157.7254  131.0653  150.5956 LP  0  0  0  0  0  0  0  0  0  0  0  0  # atno 17370 bound_to 10713
  156.6044  130.4363  149.5884 LP  0  0  0  0  0  0  0  0  0  0  0  0  # atno 17371 bound_to 10713
  141.2227  133.7066  156.8162 LP  0  0  0  0  0  0  0  0  0  0  0  0  # atno 17394 bound_to 11000
  140.2116  134.8823  157.3281 LP  0  0  0  0  0  0  0  0  0  0  0  0  # atno 17395 bound_to 11000

$$$$
