AV-unprocessed.smi:3343|AV-procd|sdf|12891|dock7
  -GOLD-   2272019293D 1   1.00000     0.00000
 Structure written by MMmdl.
 42 43  0  0  0  0  0  0  0  0  2 V2000
  149.0283  141.1760  154.6829 C   0  0  0  0  0  0  0  0  0  0  0  0
  149.0680  139.7167  154.1867 C   0  0  2  0  0  0  0  0  0  0  0  0
  147.9609  138.8574  154.8154 C   0  0  0  0  0  0  0  0  0  0  0  0
  147.9561  138.6296  156.0255 O   0  0  0  0  0  0  0  0  0  0  0  0
  147.0240  138.3855  153.9778 N   0  0  0  0  0  0  0  0  0  0  0  0
  145.8975  137.5378  154.3575 C   0  0  0  0  0  0  0  0  0  0  0  0
  146.0599  136.0754  153.8908 C   0  0  0  0  0  0  0  0  0  0  0  0
  145.2032  135.1422  154.6280 N   0  0  0  0  0  0  0  0  0  0  0  0
  143.7839  135.3295  154.3126 C   0  0  0  0  0  0  0  0  0  0  0  0
  143.4381  134.8600  152.8822 C   0  0  0  0  0  0  0  0  0  0  0  0
  143.8114  133.4382  152.6979 N   0  3  0  0  0  0  0  0  0  0  0  0
  143.4496  132.9210  151.3613 C   0  0  0  0  0  0  0  0  0  0  0  0
  145.2402  133.2256  153.0271 C   0  0  0  0  0  0  0  0  0  0  0  0
  145.5401  133.7246  154.4563 C   0  0  0  0  0  0  0  0  0  0  0  0
  150.3687  139.0940  154.4004 N   0  0  0  0  0  0  0  0  0  0  0  0
  150.7307  137.8125  154.3095 C   0  0  0  0  0  0  0  0  0  0  0  0
  151.9994  137.5870  154.6212 N   0  0  0  0  0  0  0  0  0  0  0  0
  152.3878  138.8597  154.9292 C   0  0  0  0  0  0  0  0  0  0  0  0
  151.4481  139.7988  154.8227 N   0  0  0  0  0  0  0  0  0  0  0  0
  148.0634  141.6368  154.4683 H   0  0  0  0  0  0  0  0  0  0  0  0
  149.7931  141.7748  154.1875 H   0  0  0  0  0  0  0  0  0  0  0  0
  149.1973  141.2508  155.7579 H   0  0  0  0  0  0  0  0  0  0  0  0
  148.8991  139.7399  153.1086 H   0  0  0  0  0  0  0  0  0  0  0  0
  147.1065  138.6165  152.9985 H   0  0  0  0  0  0  0  0  0  0  0  0
  145.7484  137.5913  155.4367 H   0  0  0  0  0  0  0  0  0  0  0  0
  144.9958  137.9591  153.9103 H   0  0  0  0  0  0  0  0  0  0  0  0
  145.7454  136.0369  152.8471 H   0  0  0  0  0  0  0  0  0  0  0  0
  147.1048  135.7682  153.8945 H   0  0  0  0  0  0  0  0  0  0  0  0
  143.1897  134.7672  155.0344 H   0  0  0  0  0  0  0  0  0  0  0  0
  143.5113  136.3774  154.4441 H   0  0  0  0  0  0  0  0  0  0  0  0
  142.3664  134.9729  152.7161 H   0  0  0  0  0  0  0  0  0  0  0  0
  143.9340  135.4786  152.1330 H   0  0  0  0  0  0  0  0  0  0  0  0
  143.9961  133.4457  150.5764 H   0  0  0  0  0  0  0  0  0  0  0  0
  142.3817  133.0455  151.1776 H   0  0  0  0  0  0  0  0  0  0  0  0
  143.6788  131.8574  151.2865 H   0  0  0  0  0  0  0  0  0  0  0  0
  145.4676  132.1610  152.9631 H   0  0  0  0  0  0  0  0  0  0  0  0
  145.8766  133.7227  152.2936 H   0  0  0  0  0  0  0  0  0  0  0  0
  146.5833  133.5459  154.7132 H   0  0  0  0  0  0  0  0  0  0  0  0
  144.9561  133.1435  155.1717 H   0  0  0  0  0  0  0  0  0  0  0  0
  150.0514  137.0269  154.0128 H   0  0  0  0  0  0  0  0  0  0  0  0
  153.3916  139.1007  155.2468 H   0  0  0  0  0  0  0  0  0  0  0  0
  143.2764  132.9090  153.3720 H   0  0  0  0  0  0  0  0  0  0  0  0
  1  2  1  0  0  0  0
  1 20  1  0  0  0  0
  1 21  1  0  0  0  0
  1 22  1  0  0  0  0
  2  3  1  0  0  0  0
  2 15  1  0  0  0  0
  2 23  1  0  0  0  0
  3  4  2  0  0  0  0
  3  5  1  0  0  0  0
  5  6  1  0  0  0  0
  5 24  1  0  0  0  0
  6  7  1  0  0  0  0
  6 25  1  0  0  0  0
  6 26  1  0  0  0  0
  7  8  1  0  0  0  0
  7 27  1  0  0  0  0
  7 28  1  0  0  0  0
  8 14  1  0  0  0  0
  8  9  1  0  0  0  0
  9 10  1  0  0  0  0
  9 29  1  0  0  0  0
  9 30  1  0  0  0  0
 10 11  1  0  0  0  0
 10 31  1  0  0  0  0
 10 32  1  0  0  0  0
 11 12  1  0  0  0  0
 11 13  1  0  0  0  0
 11 42  1  0  0  0  0
 12 33  1  0  0  0  0
 12 34  1  0  0  0  0
 12 35  1  0  0  0  0
 13 14  1  0  0  0  0
 13 36  1  0  0  0  0
 13 37  1  0  0  0  0
 14 38  1  0  0  0  0
 14 39  1  0  0  0  0
 15 19  1  0  0  0  0
 15 16  1  0  0  0  0
 16 17  2  0  0  0  0
 16 40  1  0  0  0  0
 17 18  1  0  0  0  0
 18 19  2  0  0  0  0
 18 41  1  0  0  0  0
M  CHG  1  11   1
M  END
> <s_m_source_file>
AV-unprocessed.smi

> <i_m_source_file_index>
3343

> <i_lp_mmshare_version>
43012

> <i_f3d_flags>
0

> <s_epik_input>
bjFbY0hdbltjSF1uMVtDQEhdKFtDSDNdKUMoPU8pW05IXVtDSDJdW0NIMl1OMltDSDJdW0NIMl1OKFtDSDNdKVtDSDJdW0NIMl0y

> <s_epik_cmdline>
J2VwaWtfcHl0aG9uJywgJy1waCcsICc3LjAnLCAnLXRuJywgJzgnLCAnLW1hJywgJzIwMCcsICctbWV0YWxfYmluZGluZycsICctaW1hZScsICc8aW5maWxlLm1hZT4nLCAnLW9tYWUnLCAnPG91dGZpbGUubWFlPic=

> <r_lp_tautomer_probability>
1

> <r_epik_Ionization_Penalty>
0.0359277

> <r_epik_Ionization_Penalty_Charging>
0.0358005

> <r_epik_Ionization_Penalty_Neutral>
0.000127293

> <r_epik_State_Penalty>
0.0476325

> <r_epik_Charging_Adjusted_Penalty>
0.0834329

> <i_epik_Tot_Q>
1

> <i_epik_Tot_abs_Q>
1

> <r_epik_Metal_State_Penalty>
0.0476323

> <b_epik_Metal_Only>
0

> <s_lp_Force_Field>
OPLS_2005

> <r_lp_Energy>
27.0486

> <b_lp_Chiralities_Consistent>
1

> <s_lp_Variant>
AV-unprocessed.smi:3343-1

> <Gold.Version>
5.8.1

> <Gold.Id.Protein>
6NUR|6NUR_protein|mol2

> <Gold.PLP.Fitness>
40.1703

> <Gold.PLP.PLP>
-26.6840

> <Gold.PLP.part.hbond>
-3.0000

> <Gold.PLP.part.metal>
0.0000

> <Gold.PLP.part.buried>
-3.1562

> <Gold.PLP.part.nonpolar>
-21.6538

> <Gold.PLP.part.repulsive>
0.2535

> <Gold.PLP.ligand.clash>
0.0000

> <Gold.PLP.ligand.torsion>
0.5649

> <Gold.PLP.Chemscore.Hbond>
3.7840

> <Gold.PLP.Chemscore.CHOScore>
1.0474

> <Gold.PLP.Chemscore.Metal>
0.0000

> <Gold.Chemscore.Hbonds>
donor molecule, donor type, donor heavy atom, donor atom, acceptor molecule, acceptor atom, score
      L1  H    11    42       P1 10957  2.00
      P1  H  7989  7998       L1    19  1.00
      P1  H 10752 10765       L1    17  0.46
      L1  C    16    40       P1  7948  1.00

> <Gold.PLP.Chemscore.Internal.Correction>
0.1220

> <Gold.Rescore>
     Score         DG    S(hbond)    S(metal)    S(lipo)     H(rot)  DE(clash)    DE(int)     intcor
      8.92      -9.32       1.91        0.00      35.80       2.63       0.14       0.26       ----

> <Gold.Chemscore.Fitness>
8.9229

> <Gold.Chemscore.DG>
-9.3218

> <Gold.Chemscore.ZeroCoef>
-5.4800

> <Gold.Chemscore.Hbond>
1.9101

> <Gold.Chemscore.Metal>
0.0000

> <Gold.Chemscore.Lipo>
35.8038

> <Gold.Chemscore.Internal_Hbond>
0.0000

> <Gold.Chemscore.DEClash>
0.1402

> <Gold.Chemscore.DEInternal>
0.2586

> <Gold.Chemscore.Rot>
2.6278

> <Gold.Chemscore.Internal.Correction>
   9.000000E+99

> <Gold.Chemscore.Hbonds>
donor molecule, donor type, donor heavy atom, donor atom, acceptor molecule, acceptor atom, score
      L1  H    11    42       P1 10957  0.74
      P1  H  7989  7998       L1    19  0.23
      P1  H 10752 10765       L1    17  0.46

> <Gold.Chemscore.Hbond.Weighted>
-6.3799

> <Gold.Chemscore.Metal.Weighted>
-0.0000

> <Gold.Chemscore.Lipo.Weighted>
-4.1890

> <Gold.Chemscore.Internal_Hbond.Weighted>
0.0000

> <Gold.Chemscore.DEClash.Weighted>
0.1402

> <Gold.Chemscore.DEInternal.Weighted>
0.2586

> <Gold.Chemscore.Rot.Weighted>
6.7271

> <Gold.Chemscore.Internal.Correction.Weighted>
   9.000000E+99

> <Gold.Protein.RotatedTorsions>
[ 6907 6896 6895 6894 ] final   10.16 input  -60.11 | X-H torsion
[ 7974 7965 7964 7962 ] final  138.63 input  175.53 | X-H torsion
[ 8008 7997 7996 7995 ] final -152.54 input   59.86 | X-H torsion
[ 10167 10162 10161 10158 ] final -112.64 input  -65.29 | X-H torsion
[ 10718 10713 10712 10709 ] final   82.63 input   66.30 | X-H torsion
[ 10763 10752 10751 10750 ] final  150.24 input  -60.55 | X-H torsion
[ 11005 11000 10999 10996 ] final  174.98 input  -57.11 | X-H torsion

> <Gold.Protein.ActiveResidues>
 VAL166  LYS551  ARG553  GLY616  TRP617  ASP618  TYR619  PRO620  LYS621  CYS622 
 ASP623  PHE694  ASN695  SER759  ASP760  ASP761  ALA762  ILE779  LEU786  VAL792 
 PHE793  MET794  SER795  GLU796  ALA797  LYS798  CYS799  TRP800  GLU811  SER814 

> <Gold.Protein.RotatedAtoms>
  151.7338  135.0869  160.0304 H   0  0  0  0  0  0  0  0  0  0  0  0  # atno 6907 bound_to 6896
  152.3524  133.6191  159.5963 H   0  0  0  0  0  0  0  0  0  0  0  0  # atno 6908 bound_to 6896
  150.7548  133.9470  159.3515 H   0  0  0  0  0  0  0  0  0  0  0  0  # atno 6909 bound_to 6896
  144.9354  139.4995  143.5597 H   0  0  0  0  0  0  0  0  0  0  0  0  # atno 7974 bound_to 7965
  155.6567  140.0718  157.2568 H   0  0  0  0  0  0  0  0  0  0  0  0  # atno 8008 bound_to 7997
  154.4151  140.1723  156.1783 H   0  0  0  0  0  0  0  0  0  0  0  0  # atno 8009 bound_to 7997
  155.9731  140.3360  155.6597 H   0  0  0  0  0  0  0  0  0  0  0  0  # atno 8010 bound_to 7997
  140.1205  143.4448  152.1694 H   0  0  0  0  0  0  0  0  0  0  0  0  # atno 10167 bound_to 10162
  157.6861  131.0056  150.2403 H   0  0  0  0  0  0  0  0  0  0  0  0  # atno 10718 bound_to 10713
  154.0842  135.2857  155.3284 H   0  0  0  0  0  0  0  0  0  0  0  0  # atno 10763 bound_to 10752
  154.6663  135.5316  153.8085 H   0  0  0  0  0  0  0  0  0  0  0  0  # atno 10764 bound_to 10752
  153.0437  135.6546  154.1015 H   0  0  0  0  0  0  0  0  0  0  0  0  # atno 10765 bound_to 10752
  140.3572  134.7144  157.4307 H   0  0  0  0  0  0  0  0  0  0  0  0  # atno 11005 bound_to 11000
  146.3264  139.8335  142.8904 LP  0  0  0  0  0  0  0  0  0  0  0  0  # atno 17320 bound_to 7965
  145.3075  141.0211  143.3573 LP  0  0  0  0  0  0  0  0  0  0  0  0  # atno 17321 bound_to 7965
  139.5571  144.7380  151.4262 LP  0  0  0  0  0  0  0  0  0  0  0  0  # atno 17342 bound_to 10162
  140.6875  143.7940  150.7207 LP  0  0  0  0  0  0  0  0  0  0  0  0  # atno 17343 bound_to 10162
  156.3018  130.3759  149.7743 LP  0  0  0  0  0  0  0  0  0  0  0  0  # atno 17370 bound_to 10713
  156.5370  130.8283  151.3256 LP  0  0  0  0  0  0  0  0  0  0  0  0  # atno 17371 bound_to 10713
  140.0655  134.5935  155.8700 LP  0  0  0  0  0  0  0  0  0  0  0  0  # atno 17394 bound_to 11000
  141.1995  133.6607  156.5845 LP  0  0  0  0  0  0  0  0  0  0  0  0  # atno 17395 bound_to 11000

$$$$
