AV-unprocessed.smi:862|AV-procd|sdf|3980|dock9
  -GOLD-   22720 1453D 1   1.00000     0.00000
 Structure written by MMmdl.
 45 47  0  0  0  0  0  0  0  0  3 V2000
  148.8714  130.7695  157.4125 N   0  0  0  0  0  0  0  0  0  0  0  0
  149.5842  131.7786  156.9026 C   0  0  0  0  0  0  0  0  0  0  0  0
  150.2076  132.5464  157.6334 O   0  0  0  0  0  0  0  0  0  0  0  0
  149.5983  131.8511  155.5476 N   0  0  0  0  0  0  0  0  0  0  0  0
  148.7262  131.0997  154.6297 C   0  0  0  0  0  0  0  0  0  0  0  0
  147.6495  132.0531  154.0790 C   0  0  0  0  0  0  0  0  0  0  0  0
  148.2845  133.2741  153.3800 C   0  0  0  0  0  0  0  0  0  0  0  0
  147.2272  134.2326  152.9860 N   0  3  0  0  0  0  0  0  0  0  0  0
  146.0293  133.6532  152.3334 C   0  0  2  0  0  0  0  0  0  0  0  0
  146.3495  132.4968  151.3813 C   0  0  0  0  0  0  0  0  0  0  0  0
  145.1544  132.4250  150.4237 C   0  0  0  0  0  0  0  0  0  0  0  0
  144.4990  133.8147  150.4384 C   0  0  0  0  0  0  0  0  0  0  0  0
  145.3299  134.6655  151.4141 C   0  0  1  0  0  0  0  0  0  0  0  0
  144.5453  135.6864  152.1281 N   0  0  0  0  0  0  0  0  0  0  0  0
  143.4012  135.4789  152.8568 C   0  0  0  0  0  0  0  0  0  0  0  0
  143.0158  136.7018  153.3425 C   0  0  0  0  0  0  0  0  0  0  0  0
  143.9373  137.6064  152.8898 N   0  3  0  0  0  0  0  0  0  0  0  0
  144.8650  136.9892  152.1511 C   0  0  0  0  0  0  0  0  0  0  0  0
  149.3358  133.9403  154.2967 C   0  0  0  0  0  0  0  0  0  0  0  0
  150.3361  132.9027  154.8375 C   0  0  0  0  0  0  0  0  0  0  0  0
  148.8265  130.6468  158.4138 H   0  0  0  0  0  0  0  0  0  0  0  0
  148.3914  130.1275  156.7992 H   0  0  0  0  0  0  0  0  0  0  0  0
  149.3270  130.7014  153.8109 H   0  0  0  0  0  0  0  0  0  0  0  0
  148.2494  130.2325  155.0862 H   0  0  0  0  0  0  0  0  0  0  0  0
  147.0046  131.5176  153.3811 H   0  0  0  0  0  0  0  0  0  0  0  0
  147.0104  132.3837  154.8996 H   0  0  0  0  0  0  0  0  0  0  0  0
  148.7868  132.9081  152.4830 H   0  0  0  0  0  0  0  0  0  0  0  0
  146.9073  134.6747  153.8357 H   0  0  0  0  0  0  0  0  0  0  0  0
  145.3288  133.3059  153.0947 H   0  0  0  0  0  0  0  0  0  0  0  0
  147.2536  132.7187  150.8118 H   0  0  0  0  0  0  0  0  0  0  0  0
  146.5092  131.5537  151.9049 H   0  0  0  0  0  0  0  0  0  0  0  0
  145.4651  132.1311  149.4205 H   0  0  0  0  0  0  0  0  0  0  0  0
  144.4392  131.6790  150.7729 H   0  0  0  0  0  0  0  0  0  0  0  0
  144.4822  134.2633  149.4445 H   0  0  0  0  0  0  0  0  0  0  0  0
  143.4622  133.7188  150.7619 H   0  0  0  0  0  0  0  0  0  0  0  0
  146.0909  135.1898  150.8324 H   0  0  0  0  0  0  0  0  0  0  0  0
  142.9570  134.5011  152.9780 H   0  0  0  0  0  0  0  0  0  0  0  0
  142.1779  136.9885  153.9616 H   0  0  0  0  0  0  0  0  0  0  0  0
  145.7093  137.4547  151.6738 H   0  0  0  0  0  0  0  0  0  0  0  0
  149.8796  134.7181  153.7625 H   0  0  0  0  0  0  0  0  0  0  0  0
  148.8397  134.4320  155.1351 H   0  0  0  0  0  0  0  0  0  0  0  0
  151.0786  133.3922  155.4695 H   0  0  0  0  0  0  0  0  0  0  0  0
  150.8985  132.4580  154.0152 H   0  0  0  0  0  0  0  0  0  0  0  0
  147.6297  134.9445  152.3928 H   0  0  0  0  0  0  0  0  0  0  0  0
  143.9234  138.5992  153.0889 H   0  0  0  0  0  0  0  0  0  0  0  0
  1  2  1  0  0  0  0
  1 21  1  0  0  0  0
  1 22  1  0  0  0  0
  2  3  2  0  0  0  0
  2  4  1  0  0  0  0
  4 20  1  0  0  0  0
  4  5  1  0  0  0  0
  5  6  1  0  0  0  0
  5 23  1  0  0  0  0
  5 24  1  0  0  0  0
  6  7  1  0  0  0  0
  6 25  1  0  0  0  0
  6 26  1  0  0  0  0
  7  8  1  0  0  0  0
  7 19  1  0  0  0  0
  7 27  1  0  0  0  0
  8  9  1  0  0  0  0
  8 28  1  0  0  0  0
  8 44  1  0  0  0  0
  9 13  1  0  0  0  0
  9 10  1  0  0  0  0
  9 29  1  0  0  0  0
 10 11  1  0  0  0  0
 10 30  1  0  0  0  0
 10 31  1  0  0  0  0
 11 12  1  0  0  0  0
 11 32  1  0  0  0  0
 11 33  1  0  0  0  0
 12 13  1  0  0  0  0
 12 34  1  0  0  0  0
 12 35  1  0  0  0  0
 13 14  1  0  0  0  0
 13 36  1  0  0  0  0
 14 18  1  0  0  0  0
 14 15  1  0  0  0  0
 15 16  2  0  0  0  0
 15 37  1  0  0  0  0
 16 17  1  0  0  0  0
 16 38  1  0  0  0  0
 17 18  2  0  0  0  0
 17 45  1  0  0  0  0
 18 39  1  0  0  0  0
 19 20  1  0  0  0  0
 19 40  1  0  0  0  0
 19 41  1  0  0  0  0
 20 42  1  0  0  0  0
 20 43  1  0  0  0  0
M  CHG  1   8   1
M  CHG  1  17   1
M  END
> <s_m_source_file>
AV-unprocessed.smi

> <i_m_source_file_index>
862

> <i_lp_mmshare_version>
43012

> <i_f3d_flags>
0

> <s_epik_input>
W05IMl1DKD1PKU4xW0NIMl1bQ0gyXVtDSF0oW0NIMl1bQ0gyXTEpW05IXVtDQEBIXTJbQ0gyXVtDSDJdW0NIMl1bQ0BIXTJuM1tjSF1bY0hdbltjSF0z

> <s_epik_cmdline>
J2VwaWtfcHl0aG9uJywgJy1waCcsICc3LjAnLCAnLXRuJywgJzgnLCAnLW1hJywgJzIwMCcsICctbWV0YWxfYmluZGluZycsICctaW1hZScsICc8aW5maWxlLm1hZT4nLCAnLW9tYWUnLCAnPG91dGZpbGUubWFlPic=

> <r_lp_tautomer_probability>
1

> <r_epik_Ionization_Penalty>
1.30217

> <r_epik_Ionization_Penalty_Charging>
0.00439521

> <r_epik_Ionization_Penalty_Neutral>
1.29777

> <r_epik_State_Penalty>
0.977606

> <r_epik_Charging_Adjusted_Penalty>
0.982001

> <i_epik_Tot_Q>
2

> <i_epik_Tot_abs_Q>
2

> <r_epik_Metal_State_Penalty>
1.03289

> <b_epik_Metal_Only>
0

> <s_lp_Force_Field>
OPLS_2005

> <r_lp_Energy>
65.3299

> <b_lp_Chiralities_Consistent>
1

> <s_lp_Variant>
AV-unprocessed.smi:862-5

> <Gold.Version>
5.8.1

> <Gold.Id.Protein>
6NUR|6NUR_protein|mol2

> <Gold.PLP.Fitness>
47.5128

> <Gold.PLP.PLP>
-33.4035

> <Gold.PLP.part.hbond>
-4.0000

> <Gold.PLP.part.metal>
0.0000

> <Gold.PLP.part.buried>
-1.5048

> <Gold.PLP.part.nonpolar>
-27.8383

> <Gold.PLP.part.repulsive>
0.0396

> <Gold.PLP.ligand.clash>
0.0000

> <Gold.PLP.ligand.torsion>
0.4711

> <Gold.PLP.Chemscore.Hbond>
5.0000

> <Gold.PLP.Chemscore.CHOScore>
0.0000

> <Gold.PLP.Chemscore.Metal>
0.0000

> <Gold.Chemscore.Hbonds>
donor molecule, donor type, donor heavy atom, donor atom, acceptor molecule, acceptor atom, score
      L1  H     8    44       P1  7948  2.00
      L1  H    17    45       P1 10175  1.95
      P1  H  6896  6907       L1     3  0.89
      L1  C    18    39       P1 10171  0.03

> <Gold.PLP.Chemscore.Internal.Correction>
0.0515

> <Gold.Rescore>
     Score         DG    S(hbond)    S(metal)    S(lipo)     H(rot)  DE(clash)    DE(int)     intcor
     16.64     -17.53       2.66        0.00      63.73       1.68       0.60       0.29       ----

> <Gold.Chemscore.Fitness>
16.6407

> <Gold.Chemscore.DG>
-17.5288

> <Gold.Chemscore.ZeroCoef>
-5.4800

> <Gold.Chemscore.Hbond>
2.6638

> <Gold.Chemscore.Metal>
0.0000

> <Gold.Chemscore.Lipo>
63.7265

> <Gold.Chemscore.Internal_Hbond>
0.0000

> <Gold.Chemscore.DEClash>
0.6022

> <Gold.Chemscore.DEInternal>
0.2859

> <Gold.Chemscore.Rot>
1.6814

> <Gold.Chemscore.Internal.Correction>
   9.000000E+99

> <Gold.Chemscore.Hbonds>
donor molecule, donor type, donor heavy atom, donor atom, acceptor molecule, acceptor atom, score
      L1  H     8    44       P1  7948  0.93
      L1  H    17    45       P1 10175  0.92
      P1  H  6896  6907       L1     3  0.86

> <Gold.Chemscore.Hbond.Weighted>
-8.8971

> <Gold.Chemscore.Metal.Weighted>
-0.0000

> <Gold.Chemscore.Lipo.Weighted>
-7.4560

> <Gold.Chemscore.Internal_Hbond.Weighted>
0.0000

> <Gold.Chemscore.DEClash.Weighted>
0.6022

> <Gold.Chemscore.DEInternal.Weighted>
0.2859

> <Gold.Chemscore.Rot.Weighted>
4.3043

> <Gold.Chemscore.Internal.Correction.Weighted>
   9.000000E+99

> <Gold.Protein.RotatedTorsions>
[ 6907 6896 6895 6894 ] final -156.74 input  -60.11 | X-H torsion
[ 7974 7965 7964 7962 ] final  -69.33 input  175.53 | X-H torsion
[ 8008 7997 7996 7995 ] final  163.79 input   59.86 | X-H torsion
[ 10167 10162 10161 10158 ] final   34.48 input  -65.29 | X-H torsion
[ 10718 10713 10712 10709 ] final  -85.99 input   66.30 | X-H torsion
[ 10763 10752 10751 10750 ] final  -94.98 input  -60.55 | X-H torsion
[ 11005 11000 10999 10996 ] final  175.97 input  -57.11 | X-H torsion

> <Gold.Protein.ActiveResidues>
 VAL166  LYS551  ARG553  GLY616  TRP617  ASP618  TYR619  PRO620  LYS621  CYS622 
 ASP623  PHE694  ASN695  SER759  ASP760  ASP761  ALA762  ILE779  LEU786  VAL792 
 PHE793  MET794  SER795  GLU796  ALA797  LYS798  CYS799  TRP800  GLU811  SER814 

> <Gold.Protein.RotatedAtoms>
  151.2922  133.4160  159.2633 H   0  0  0  0  0  0  0  0  0  0  0  0  # atno 6907 bound_to 6896
  151.0267  134.9510  159.8099 H   0  0  0  0  0  0  0  0  0  0  0  0  # atno 6908 bound_to 6896
  152.5336  134.2884  159.9086 H   0  0  0  0  0  0  0  0  0  0  0  0  # atno 6909 bound_to 6896
  145.7051  140.9101  143.0710 H   0  0  0  0  0  0  0  0  0  0  0  0  # atno 7974 bound_to 7965
  156.1930  140.1714  156.8054 H   0  0  0  0  0  0  0  0  0  0  0  0  # atno 8008 bound_to 7997
  154.5495  140.0720  156.8676 H   0  0  0  0  0  0  0  0  0  0  0  0  # atno 8009 bound_to 7997
  155.3057  140.3364  155.4248 H   0  0  0  0  0  0  0  0  0  0  0  0  # atno 8010 bound_to 7997
  140.4311  144.1323  150.6159 H   0  0  0  0  0  0  0  0  0  0  0  0  # atno 10167 bound_to 10162
  155.9992  130.4749  150.4646 H   0  0  0  0  0  0  0  0  0  0  0  0  # atno 10718 bound_to 10713
  154.7105  135.5137  153.8660 H   0  0  0  0  0  0  0  0  0  0  0  0  # atno 10763 bound_to 10752
  153.0777  135.6621  154.0120 H   0  0  0  0  0  0  0  0  0  0  0  0  # atno 10764 bound_to 10752
  153.9962  135.3015  155.3386 H   0  0  0  0  0  0  0  0  0  0  0  0  # atno 10765 bound_to 10752
  140.3680  134.7054  157.4374 H   0  0  0  0  0  0  0  0  0  0  0  0  # atno 11005 bound_to 11000
  144.6957  139.8999  143.7458 LP  0  0  0  0  0  0  0  0  0  0  0  0  # atno 17320 bound_to 7965
  146.0763  139.3751  143.0492 LP  0  0  0  0  0  0  0  0  0  0  0  0  # atno 17321 bound_to 7965
  140.4426  143.2520  151.9453 LP  0  0  0  0  0  0  0  0  0  0  0  0  # atno 17342 bound_to 10162
  139.4785  144.5640  151.8194 LP  0  0  0  0  0  0  0  0  0  0  0  0  # atno 17343 bound_to 10162
  157.2667  131.0578  151.2286 LP  0  0  0  0  0  0  0  0  0  0  0  0  # atno 17370 bound_to 10713
  157.3381  130.7019  149.6365 LP  0  0  0  0  0  0  0  0  0  0  0  0  # atno 17371 bound_to 10713
  140.0574  134.6044  155.8789 LP  0  0  0  0  0  0  0  0  0  0  0  0  # atno 17394 bound_to 11000
  141.1963  133.6591  156.5687 LP  0  0  0  0  0  0  0  0  0  0  0  0  # atno 17395 bound_to 11000

$$$$
