AV-unprocessed.smi:2158|AV-procd|sdf|8789|dock6
  -GOLD-   2272011563D 1   1.00000     0.00000
 Structure written by MMmdl.
 30 30  0  0  0  0  0  0  0  0  2 V2000
  153.0270  143.1804  159.8470 C   0  0  0  0  0  0  0  0  0  0  0  0
  152.9129  144.0826  158.6092 C   0  0  0  0  0  0  0  0  0  0  0  0
  151.5017  144.6612  158.3942 C   0  0  2  0  0  0  0  0  0  0  0  0
  150.7728  144.8925  159.7268 C   0  0  0  0  0  0  0  0  0  0  0  0
  150.7162  143.7693  157.5447 N   0  0  0  0  0  0  0  0  0  0  0  0
  150.4061  142.4949  157.8276 C   0  0  0  0  0  0  0  0  0  0  0  0
  150.7922  141.9124  158.8419 O   0  0  0  0  0  0  0  0  0  0  0  0
  149.5521  141.7604  156.7864 C   0  0  0  0  0  0  0  0  0  0  0  0
  150.2805  140.6588  156.1378 N   0  0  0  0  0  0  0  0  0  0  0  0
  151.0637  139.8214  156.9519 C   0  0  0  0  0  0  0  0  0  0  0  0
  151.7581  138.7852  156.4444 C   0  0  0  0  0  0  0  0  0  0  0  0
  151.6839  138.5410  155.0092 C   0  0  0  0  0  0  0  0  0  0  0  0
  152.3152  137.6019  154.5281 O   0  0  0  0  0  0  0  0  0  0  0  0
  150.9072  139.3791  154.2620 N   0  5  0  0  0  0  0  0  0  0  0  0
  150.2037  140.4273  154.7922 C   0  0  0  0  0  0  0  0  0  0  0  0
  149.5055  141.1698  154.1003 O   0  0  0  0  0  0  0  0  0  0  0  0
  154.0299  142.7610  159.9284 H   0  0  0  0  0  0  0  0  0  0  0  0
  152.3229  142.3498  159.7939 H   0  0  0  0  0  0  0  0  0  0  0  0
  152.8251  143.7310  160.7663 H   0  0  0  0  0  0  0  0  0  0  0  0
  153.6379  144.8938  158.6873 H   0  0  0  0  0  0  0  0  0  0  0  0
  153.2000  143.5039  157.7305 H   0  0  0  0  0  0  0  0  0  0  0  0
  151.6125  145.6263  157.8961 H   0  0  0  0  0  0  0  0  0  0  0  0
  151.3336  145.5735  160.3674 H   0  0  0  0  0  0  0  0  0  0  0  0
  150.6371  143.9582  160.2725 H   0  0  0  0  0  0  0  0  0  0  0  0
  149.7873  145.3316  159.5668 H   0  0  0  0  0  0  0  0  0  0  0  0
  150.3560  144.1608  156.6864 H   0  0  0  0  0  0  0  0  0  0  0  0
  148.6360  141.3851  157.2472 H   0  0  0  0  0  0  0  0  0  0  0  0
  149.2216  142.4884  156.0450 H   0  0  0  0  0  0  0  0  0  0  0  0
  151.0587  140.0666  158.0037 H   0  0  0  0  0  0  0  0  0  0  0  0
  152.3522  138.1489  157.0836 H   0  0  0  0  0  0  0  0  0  0  0  0
  1  2  1  0  0  0  0
  1 17  1  0  0  0  0
  1 18  1  0  0  0  0
  1 19  1  0  0  0  0
  2  3  1  0  0  0  0
  2 20  1  0  0  0  0
  2 21  1  0  0  0  0
  3  4  1  0  0  0  0
  3  5  1  0  0  0  0
  3 22  1  0  0  0  0
  4 23  1  0  0  0  0
  4 24  1  0  0  0  0
  4 25  1  0  0  0  0
  5  6  1  0  0  0  0
  5 26  1  0  0  0  0
  6  7  2  0  0  0  0
  6  8  1  0  0  0  0
  8  9  1  0  0  0  0
  8 27  1  0  0  0  0
  8 28  1  0  0  0  0
  9 15  1  0  0  0  0
  9 10  1  0  0  0  0
 10 11  2  0  0  0  0
 10 29  1  0  0  0  0
 11 12  1  0  0  0  0
 11 30  1  0  0  0  0
 12 13  2  0  0  0  0
 12 14  1  0  0  0  0
 14 15  1  0  0  0  0
 15 16  2  0  0  0  0
M  CHG  1  14  -1
M  END
> <s_m_source_file>
AV-unprocessed.smi

> <i_m_source_file_index>
2158

> <i_lp_mmshare_version>
43012

> <i_f3d_flags>
0

> <s_epik_input>
W0NIM11bQ0gyXVtDQEhdKFtDSDNdKVtOSF1DKD1PKVtDSDJdbjFbY0hdW2NIXWMoPU8pW25IXWMxPU8=

> <s_epik_cmdline>
J2VwaWtfcHl0aG9uJywgJy1waCcsICc3LjAnLCAnLXRuJywgJzgnLCAnLW1hJywgJzIwMCcsICctbWV0YWxfYmluZGluZycsICctaW1hZScsICc8aW5maWxlLm1hZT4nLCAnLW9tYWUnLCAnPG91dGZpbGUubWFlPic=

> <r_lp_tautomer_probability>
0.999537

> <r_epik_Ionization_Penalty>
3.08395

> <r_epik_Ionization_Penalty_Charging>
2.76809e-08

> <r_epik_Ionization_Penalty_Neutral>
3.08395

> <r_epik_State_Penalty>
3.08299

> <r_epik_Charging_Adjusted_Penalty>
3.08299

> <i_epik_Tot_Q>
-1

> <i_epik_Tot_abs_Q>
1

> <r_epik_Metal_State_Penalty>
0.460296

> <b_epik_Metal_Only>
1

> <s_lp_Force_Field>
OPLS_2005

> <r_lp_Energy>
12.2606

> <b_lp_Chiralities_Consistent>
1

> <s_lp_Variant>
AV-unprocessed.smi:2158-3

> <Gold.Version>
5.8.1

> <Gold.Id.Protein>
6NUR|6NUR_protein|mol2

> <Gold.PLP.Fitness>
39.8415

> <Gold.PLP.PLP>
-34.5670

> <Gold.PLP.part.hbond>
-5.0000

> <Gold.PLP.part.metal>
0.0000

> <Gold.PLP.part.buried>
-2.2245

> <Gold.PLP.part.nonpolar>
-27.3785

> <Gold.PLP.part.repulsive>
0.4684

> <Gold.PLP.ligand.clash>
0.0000

> <Gold.PLP.ligand.torsion>
0.6306

> <Gold.PLP.Chemscore.Hbond>
2.1739

> <Gold.PLP.Chemscore.CHOScore>
0.0000

> <Gold.PLP.Chemscore.Metal>
0.0000

> <Gold.Chemscore.Hbonds>
donor molecule, donor type, donor heavy atom, donor atom, acceptor molecule, acceptor atom, score
      L1  H     5    26       P1  8028  0.99
      P1  H  8011  8017       L1    16  0.50
      P1  H 10752 10765       L1    13  0.70

> <Gold.PLP.Chemscore.Internal.Correction>
0.0140

> <Gold.Rescore>
     Score         DG    S(hbond)    S(metal)    S(lipo)     H(rot)  DE(clash)    DE(int)     intcor
     11.44     -15.81       2.32        0.00      64.52       1.94       0.47       3.91       ----

> <Gold.Chemscore.Fitness>
11.4402

> <Gold.Chemscore.DG>
-15.8147

> <Gold.Chemscore.ZeroCoef>
-5.4800

> <Gold.Chemscore.Hbond>
2.3246

> <Gold.Chemscore.Metal>
0.0000

> <Gold.Chemscore.Lipo>
64.5249

> <Gold.Chemscore.Internal_Hbond>
0.0000

> <Gold.Chemscore.DEClash>
0.4682

> <Gold.Chemscore.DEInternal>
3.9063

> <Gold.Chemscore.Rot>
1.9449

> <Gold.Chemscore.Internal.Correction>
   9.000000E+99

> <Gold.Chemscore.Hbonds>
donor molecule, donor type, donor heavy atom, donor atom, acceptor molecule, acceptor atom, score
      L1  H     5    26       P1  8028  0.94
      P1  H  8011  8017       L1    16  0.49
      P1  H 10752 10765       L1    13  0.65

> <Gold.Chemscore.Hbond.Weighted>
-7.7643

> <Gold.Chemscore.Metal.Weighted>
-0.0000

> <Gold.Chemscore.Lipo.Weighted>
-7.5494

> <Gold.Chemscore.Internal_Hbond.Weighted>
0.0000

> <Gold.Chemscore.DEClash.Weighted>
0.4682

> <Gold.Chemscore.DEInternal.Weighted>
3.9063

> <Gold.Chemscore.Rot.Weighted>
4.9791

> <Gold.Chemscore.Internal.Correction.Weighted>
   9.000000E+99

> <Gold.Protein.RotatedTorsions>
[ 6907 6896 6895 6894 ] final   93.74 input  -60.11 | X-H torsion
[ 7974 7965 7964 7962 ] final  -24.09 input  175.53 | X-H torsion
[ 8008 7997 7996 7995 ] final   -7.21 input   59.86 | X-H torsion
[ 10167 10162 10161 10158 ] final -109.84 input  -65.29 | X-H torsion
[ 10718 10713 10712 10709 ] final   45.71 input   66.30 | X-H torsion
[ 10763 10752 10751 10750 ] final  162.23 input  -60.55 | X-H torsion
[ 11005 11000 10999 10996 ] final -112.69 input  -57.11 | X-H torsion

> <Gold.Protein.ActiveResidues>
 VAL166  LYS551  ARG553  GLY616  TRP617  ASP618  TYR619  PRO620  LYS621  CYS622 
 ASP623  PHE694  ASN695  SER759  ASP760  ASP761  ALA762  ILE779  LEU786  VAL792 
 PHE793  MET794  SER795  GLU796  ALA797  LYS798  CYS799  TRP800  GLU811  SER814 

> <Gold.Protein.RotatedAtoms>
  152.5452  134.1302  159.8435 H   0  0  0  0  0  0  0  0  0  0  0  0  # atno 6907 bound_to 6896
  151.1348  133.5004  159.2605 H   0  0  0  0  0  0  0  0  0  0  0  0  # atno 6908 bound_to 6896
  151.1636  135.0295  159.8776 H   0  0  0  0  0  0  0  0  0  0  0  0  # atno 6909 bound_to 6896
  146.1576  140.4704  142.8585 H   0  0  0  0  0  0  0  0  0  0  0  0  # atno 7974 bound_to 7965
  154.5861  140.2413  155.7985 H   0  0  0  0  0  0  0  0  0  0  0  0  # atno 8008 bound_to 7997
  156.2214  140.2996  155.9917 H   0  0  0  0  0  0  0  0  0  0  0  0  # atno 8009 bound_to 7997
  155.2455  140.0408  157.2971 H   0  0  0  0  0  0  0  0  0  0  0  0  # atno 8010 bound_to 7997
  140.1509  143.4199  152.1495 H   0  0  0  0  0  0  0  0  0  0  0  0  # atno 10167 bound_to 10162
  157.4404  130.8078  149.7689 H   0  0  0  0  0  0  0  0  0  0  0  0  # atno 10718 bound_to 10713
  154.2752  135.2764  155.2721 H   0  0  0  0  0  0  0  0  0  0  0  0  # atno 10763 bound_to 10752
  154.5266  135.5741  153.6728 H   0  0  0  0  0  0  0  0  0  0  0  0  # atno 10764 bound_to 10752
  152.9938  135.6217  154.2909 H   0  0  0  0  0  0  0  0  0  0  0  0  # atno 10765 bound_to 10752
  141.0660  133.9459  157.2578 H   0  0  0  0  0  0  0  0  0  0  0  0  # atno 11005 bound_to 11000
  144.7984  140.6167  143.6494 LP  0  0  0  0  0  0  0  0  0  0  0  0  # atno 17320 bound_to 7965
  145.4669  139.1507  143.3835 LP  0  0  0  0  0  0  0  0  0  0  0  0  # atno 17321 bound_to 7965
  139.5426  144.7270  151.4685 LP  0  0  0  0  0  0  0  0  0  0  0  0  # atno 17342 bound_to 10162
  140.6703  143.8309  150.6991 LP  0  0  0  0  0  0  0  0  0  0  0  0  # atno 17343 bound_to 10162
  155.9946  130.3916  150.2850 LP  0  0  0  0  0  0  0  0  0  0  0  0  # atno 17370 bound_to 10713
  157.1015  131.0197  151.3084 LP  0  0  0  0  0  0  0  0  0  0  0  0  # atno 17371 bound_to 10713
  139.9476  135.0181  156.8900 LP  0  0  0  0  0  0  0  0  0  0  0  0  # atno 17394 bound_to 11000
  140.5773  134.0386  155.7451 LP  0  0  0  0  0  0  0  0  0  0  0  0  # atno 17395 bound_to 11000

$$$$
