AV-unprocessed.smi:3250|AV-procd|sdf|12425|dock7
  -GOLD-   2272018313D 1   1.00000     0.00000
 Structure written by MMmdl.
 39 40  0  0  0  0  0  0  0  0  2 V2000
  143.6474  139.5718  155.7340 C   0  0  0  0  0  0  0  0  0  0  0  0
  143.8553  141.0873  155.8680 C   0  0  0  0  0  0  0  0  0  0  0  0
  144.8415  141.6179  154.8940 N   0  3  1  0  0  0  0  0  0  0  0  0
  144.7294  143.0864  154.7253 C   0  0  0  0  0  0  0  0  0  0  0  0
  145.7378  143.5897  153.6798 C   0  0  0  0  0  0  0  0  0  0  0  0
  147.0516  143.2023  154.0620 O   0  0  0  0  0  0  0  0  0  0  0  0
  147.1991  141.7883  154.1204 C   0  0  1  0  0  0  0  0  0  0  0  0
  148.6782  141.4836  154.4198 C   0  0  0  0  0  0  0  0  0  0  0  0
  149.1527  140.2782  153.7513 N   0  0  0  0  0  0  0  0  0  0  0  0
  149.8818  139.2737  154.3623 C   0  0  0  0  0  0  0  0  0  0  0  0
  149.2795  138.0847  154.4274 N   0  0  0  0  0  0  0  0  0  0  0  0
  149.9682  137.0796  155.0114 C   0  0  0  0  0  0  0  0  0  0  0  0
  151.2657  137.2699  155.5275 C   0  0  0  0  0  0  0  0  0  0  0  0
  151.8069  138.5653  155.4060 C   0  0  0  0  0  0  0  0  0  0  0  0
  153.0735  138.8226  155.8879 O   0  0  0  0  0  0  0  0  0  0  0  0
  153.7200  137.8078  156.6487 C   0  0  0  0  0  0  0  0  0  0  0  0
  151.1047  139.5661  154.8187 N   0  0  0  0  0  0  0  0  0  0  0  0
  146.2430  141.2372  155.1984 C   0  0  0  0  0  0  0  0  0  0  0  0
  142.8410  139.2380  156.3873 H   0  0  0  0  0  0  0  0  0  0  0  0
  144.5387  139.0096  156.0114 H   0  0  0  0  0  0  0  0  0  0  0  0
  143.3789  139.2987  154.7132 H   0  0  0  0  0  0  0  0  0  0  0  0
  142.8937  141.5726  155.6959 H   0  0  0  0  0  0  0  0  0  0  0  0
  144.1551  141.3461  156.8845 H   0  0  0  0  0  0  0  0  0  0  0  0
  143.7179  143.3475  154.4118 H   0  0  0  0  0  0  0  0  0  0  0  0
  144.9077  143.5788  155.6826 H   0  0  0  0  0  0  0  0  0  0  0  0
  145.5021  143.1986  152.6887 H   0  0  0  0  0  0  0  0  0  0  0  0
  145.6960  144.6768  153.6104 H   0  0  0  0  0  0  0  0  0  0  0  0
  146.9334  141.3726  153.1469 H   0  0  0  0  0  0  0  0  0  0  0  0
  149.3017  142.3246  154.1134 H   0  0  0  0  0  0  0  0  0  0  0  0
  148.8271  141.3679  155.4935 H   0  0  0  0  0  0  0  0  0  0  0  0
  148.9959  140.1919  152.7575 H   0  0  0  0  0  0  0  0  0  0  0  0
  149.4820  136.1167  155.0650 H   0  0  0  0  0  0  0  0  0  0  0  0
  151.8153  136.4647  155.9922 H   0  0  0  0  0  0  0  0  0  0  0  0
  154.7052  138.1587  156.9557 H   0  0  0  0  0  0  0  0  0  0  0  0
  153.8608  136.8978  156.0633 H   0  0  0  0  0  0  0  0  0  0  0  0
  153.1574  137.5676  157.5520 H   0  0  0  0  0  0  0  0  0  0  0  0
  146.5221  141.6196  156.1817 H   0  0  0  0  0  0  0  0  0  0  0  0
  146.3330  140.1522  155.2398 H   0  0  0  0  0  0  0  0  0  0  0  0
  144.6131  141.2112  153.9978 H   0  0  0  0  0  0  0  0  0  0  0  0
  1  2  1  0  0  0  0
  1 19  1  0  0  0  0
  1 20  1  0  0  0  0
  1 21  1  0  0  0  0
  2  3  1  0  0  0  0
  2 22  1  0  0  0  0
  2 23  1  0  0  0  0
  3 18  1  0  0  0  0
  3  4  1  0  0  0  0
  3 39  1  0  0  0  0
  4  5  1  0  0  0  0
  4 24  1  0  0  0  0
  4 25  1  0  0  0  0
  5  6  1  0  0  0  0
  5 26  1  0  0  0  0
  5 27  1  0  0  0  0
  6  7  1  0  0  0  0
  7  8  1  0  0  0  0
  7 18  1  0  0  0  0
  7 28  1  0  0  0  0
  8  9  1  0  0  0  0
  8 29  1  0  0  0  0
  8 30  1  0  0  0  0
  9 10  1  0  0  0  0
  9 31  1  0  0  0  0
 10 17  1  0  0  0  0
 10 11  2  0  0  0  0
 11 12  1  0  0  0  0
 12 13  2  0  0  0  0
 12 32  1  0  0  0  0
 13 14  1  0  0  0  0
 13 33  1  0  0  0  0
 14 15  1  0  0  0  0
 14 17  2  0  0  0  0
 15 16  1  0  0  0  0
 16 34  1  0  0  0  0
 16 35  1  0  0  0  0
 16 36  1  0  0  0  0
 18 37  1  0  0  0  0
 18 38  1  0  0  0  0
M  CHG  1   3   1
M  END
> <s_m_source_file>
AV-unprocessed.smi

> <i_m_source_file_index>
3250

> <i_lp_mmshare_version>
43012

> <i_f3d_flags>
0

> <s_epik_input>
W0NIM11bQ0gyXU4xW0NIMl1bQ0gyXU9bQ0BIXShbQ0gyXTEpW0NIMl1bTkhdYzJuW2NIXVtjSF1jKG4yKU9bQ0gzXQ==

> <s_epik_cmdline>
J2VwaWtfcHl0aG9uJywgJy1waCcsICc3LjAnLCAnLXRuJywgJzgnLCAnLW1hJywgJzIwMCcsICctbWV0YWxfYmluZGluZycsICctaW1hZScsICc8aW5maWxlLm1hZT4nLCAnLW9tYWUnLCAnPG91dGZpbGUubWFlPic=

> <r_lp_tautomer_probability>
1

> <r_epik_Ionization_Penalty>
0.19684

> <r_epik_Ionization_Penalty_Charging>
0.178504

> <r_epik_Ionization_Penalty_Neutral>
0.0183356

> <r_epik_State_Penalty>
0.162939

> <r_epik_Charging_Adjusted_Penalty>
0.341443

> <i_epik_Tot_Q>
1

> <i_epik_Tot_abs_Q>
1

> <r_epik_Metal_State_Penalty>
0.1608

> <b_epik_Metal_Only>
0

> <s_lp_Force_Field>
OPLS_2005

> <r_lp_Energy>
7.38775

> <b_lp_Chiralities_Consistent>
1

> <s_lp_Variant>
AV-unprocessed.smi:3250-1

> <Gold.Version>
5.8.1

> <Gold.Id.Protein>
6NUR|6NUR_protein|mol2

> <Gold.PLP.Fitness>
40.1229

> <Gold.PLP.PLP>
-27.1665

> <Gold.PLP.part.hbond>
-5.0000

> <Gold.PLP.part.metal>
0.0000

> <Gold.PLP.part.buried>
-4.1163

> <Gold.PLP.part.nonpolar>
-20.9517

> <Gold.PLP.part.repulsive>
2.6451

> <Gold.PLP.ligand.clash>
0.0000

> <Gold.PLP.ligand.torsion>
1.3324

> <Gold.PLP.Chemscore.Hbond>
5.1996

> <Gold.PLP.Chemscore.CHOScore>
0.0000

> <Gold.PLP.Chemscore.Metal>
0.0000

> <Gold.Chemscore.Hbonds>
donor molecule, donor type, donor heavy atom, donor atom, acceptor molecule, acceptor atom, score
      L1  H     3    39       P1 10175  2.00
      L1  H     9    31       P1  7957  1.00
      P1  H  7989  7998       L1    17  1.00
      P1  H  7997  8008       L1    15  0.90
      P1  H  8022  8030       L1     6  0.26

> <Gold.PLP.Chemscore.Internal.Correction>
0.0224

> <Gold.Rescore>
     Score         DG    S(hbond)    S(metal)    S(lipo)     H(rot)  DE(clash)    DE(int)     intcor
     12.58     -14.11       2.30        0.00      45.71       1.71       0.18       1.35       ----

> <Gold.Chemscore.Fitness>
12.5832

> <Gold.Chemscore.DG>
-14.1146

> <Gold.Chemscore.ZeroCoef>
-5.4800

> <Gold.Chemscore.Hbond>
2.2967

> <Gold.Chemscore.Metal>
0.0000

> <Gold.Chemscore.Lipo>
45.7127

> <Gold.Chemscore.Internal_Hbond>
0.0000

> <Gold.Chemscore.DEClash>
0.1794

> <Gold.Chemscore.DEInternal>
1.3520

> <Gold.Chemscore.Rot>
1.7127

> <Gold.Chemscore.Internal.Correction>
   9.000000E+99

> <Gold.Chemscore.Hbonds>
donor molecule, donor type, donor heavy atom, donor atom, acceptor molecule, acceptor atom, score
      L1  H     3    39       P1 10175  0.60
      L1  H     9    31       P1  7957  0.95
      P1  H  7989  7998       L1    17  0.25
      P1  H  7997  8008       L1    15  0.17
      P1  H  8022  8030       L1     6  0.21

> <Gold.Chemscore.Hbond.Weighted>
-7.6708

> <Gold.Chemscore.Metal.Weighted>
-0.0000

> <Gold.Chemscore.Lipo.Weighted>
-5.3484

> <Gold.Chemscore.Internal_Hbond.Weighted>
0.0000

> <Gold.Chemscore.DEClash.Weighted>
0.1794

> <Gold.Chemscore.DEInternal.Weighted>
1.3520

> <Gold.Chemscore.Rot.Weighted>
4.3846

> <Gold.Chemscore.Internal.Correction.Weighted>
   9.000000E+99

> <Gold.Protein.RotatedTorsions>
[ 6907 6896 6895 6894 ] final  146.96 input  -60.11 | X-H torsion
[ 7974 7965 7964 7962 ] final   -6.64 input  175.53 | X-H torsion
[ 8008 7997 7996 7995 ] final  -23.56 input   59.86 | X-H torsion
[ 10167 10162 10161 10158 ] final   80.86 input  -65.29 | X-H torsion
[ 10718 10713 10712 10709 ] final  125.57 input   66.30 | X-H torsion
[ 10763 10752 10751 10750 ] final   74.05 input  -60.55 | X-H torsion
[ 11005 11000 10999 10996 ] final -174.48 input  -57.11 | X-H torsion

> <Gold.Protein.ActiveResidues>
 VAL166  LYS551  ARG553  GLY616  TRP617  ASP618  TYR619  PRO620  LYS621  CYS622 
 ASP623  PHE694  ASN695  SER759  ASP760  ASP761  ALA762  ILE779  LEU786  VAL792 
 PHE793  MET794  SER795  GLU796  ALA797  LYS798  CYS799  TRP800  GLU811  SER814 

> <Gold.Protein.RotatedAtoms>
  152.1610  133.4582  159.4860 H   0  0  0  0  0  0  0  0  0  0  0  0  # atno 6907 bound_to 6896
  150.6907  134.2071  159.4354 H   0  0  0  0  0  0  0  0  0  0  0  0  # atno 6908 bound_to 6896
  151.9973  134.9947  160.0614 H   0  0  0  0  0  0  0  0  0  0  0  0  # atno 6909 bound_to 6896
  146.2326  140.2200  142.8337 H   0  0  0  0  0  0  0  0  0  0  0  0  # atno 7974 bound_to 7965
  154.4578  140.1977  156.0329 H   0  0  0  0  0  0  0  0  0  0  0  0  # atno 8008 bound_to 7997
  156.0781  140.3275  155.7631 H   0  0  0  0  0  0  0  0  0  0  0  0  # atno 8009 bound_to 7997
  155.5155  140.0565  157.2907 H   0  0  0  0  0  0  0  0  0  0  0  0  # atno 8010 bound_to 7997
  139.9453  144.6063  150.8213 H   0  0  0  0  0  0  0  0  0  0  0  0  # atno 10167 bound_to 10162
  157.5492  131.1094  150.8730 H   0  0  0  0  0  0  0  0  0  0  0  0  # atno 10718 bound_to 10713
  153.0561  135.5040  154.7985 H   0  0  0  0  0  0  0  0  0  0  0  0  # atno 10763 bound_to 10752
  154.6809  135.2968  154.9616 H   0  0  0  0  0  0  0  0  0  0  0  0  # atno 10764 bound_to 10752
  154.0402  135.6718  153.4842 H   0  0  0  0  0  0  0  0  0  0  0  0  # atno 10765 bound_to 10752
  140.4740  134.6138  157.4893 H   0  0  0  0  0  0  0  0  0  0  0  0  # atno 11005 bound_to 11000
  144.9639  140.8303  143.5496 LP  0  0  0  0  0  0  0  0  0  0  0  0  # atno 17320 bound_to 7965
  145.2174  139.2175  143.5111 LP  0  0  0  0  0  0  0  0  0  0  0  0  # atno 17321 bound_to 7965
  140.7599  143.3139  151.2779 LP  0  0  0  0  0  0  0  0  0  0  0  0  # atno 17342 bound_to 10162
  139.6672  144.0084  152.2730 LP  0  0  0  0  0  0  0  0  0  0  0  0  # atno 17343 bound_to 10162
  156.9260  130.5332  149.5279 LP  0  0  0  0  0  0  0  0  0  0  0  0  # atno 17370 bound_to 10713
  156.0562  130.5623  150.9096 LP  0  0  0  0  0  0  0  0  0  0  0  0  # atno 17371 bound_to 10713
  139.9867  134.7050  155.9761 LP  0  0  0  0  0  0  0  0  0  0  0  0  # atno 17394 bound_to 11000
  141.1563  133.6542  156.4172 LP  0  0  0  0  0  0  0  0  0  0  0  0  # atno 17395 bound_to 11000

$$$$
