AV-unprocessed.smi:1965|AV-procd|sdf|7933|dock2
  -GOLD-   2272010103D 1   1.00000     0.00000
 Structure written by MMmdl.
 37 39  0  0  0  0  0  0  0  0  2 V2000
  145.3523  137.9142  154.1597 O   0  0  0  0  0  0  0  0  0  0  0  0
  146.2982  137.3211  153.6443 C   0  0  0  0  0  0  0  0  0  0  0  0
  147.4930  137.9240  153.4704 N   0  0  0  0  0  0  0  0  0  0  0  0
  147.9321  139.2414  153.7908 C   0  0  0  0  0  0  0  0  0  0  0  0
  149.1848  139.5740  154.1289 N   0  0  0  0  0  0  0  0  0  0  0  0
  149.3101  140.9356  154.4159 C   0  0  0  0  0  0  0  0  0  0  0  0
  148.1326  141.6306  154.3002 C   0  0  0  0  0  0  0  0  0  0  0  0
  146.8124  140.5962  153.8252 S   0  0  0  0  0  0  0  0  0  0  0  0
  146.2129  136.0478  153.2253 N   0  0  0  0  0  0  0  0  0  0  0  0
  145.0453  135.1875  153.3844 C   0  0  1  0  0  0  0  0  0  0  0  0
  143.7748  135.7777  152.7862 C   0  0  0  0  0  0  0  0  0  0  0  0
  142.8673  134.5533  152.6306 C   0  0  0  0  0  0  0  0  0  0  0  0
  143.7570  133.3762  152.4740 N   0  3  1  0  0  0  0  0  0  0  0  0
  143.5084  132.5916  151.2350 C   0  0  0  0  0  0  0  0  0  0  0  0
  144.6833  131.6485  150.9366 C   0  0  0  0  0  0  0  0  0  0  0  0
  145.9872  132.4313  150.6929 C   0  0  0  0  0  0  0  0  0  0  0  0
  145.9723  133.8226  151.3543 C   0  0  0  0  0  0  0  0  0  0  0  0
  145.1642  133.8245  152.6764 C   0  0  1  0  0  0  0  0  0  0  0  0
  148.1670  137.3769  152.9545 H   0  0  0  0  0  0  0  0  0  0  0  0
  150.2766  141.3270  154.6973 H   0  0  0  0  0  0  0  0  0  0  0  0
  147.9619  142.6837  154.4676 H   0  0  0  0  0  0  0  0  0  0  0  0
  147.0348  135.6348  152.8072 H   0  0  0  0  0  0  0  0  0  0  0  0
  144.8637  135.0191  154.4483 H   0  0  0  0  0  0  0  0  0  0  0  0
  143.3318  136.5546  153.4102 H   0  0  0  0  0  0  0  0  0  0  0  0
  143.9830  136.2109  151.8065 H   0  0  0  0  0  0  0  0  0  0  0  0
  142.2789  134.4075  153.5373 H   0  0  0  0  0  0  0  0  0  0  0  0
  142.1650  134.6761  151.8050 H   0  0  0  0  0  0  0  0  0  0  0  0
  142.5826  132.0276  151.3513 H   0  0  0  0  0  0  0  0  0  0  0  0
  143.3644  133.2628  150.3866 H   0  0  0  0  0  0  0  0  0  0  0  0
  144.8164  130.9706  151.7810 H   0  0  0  0  0  0  0  0  0  0  0  0
  144.4605  131.0193  150.0743 H   0  0  0  0  0  0  0  0  0  0  0  0
  146.8275  131.8471  151.0701 H   0  0  0  0  0  0  0  0  0  0  0  0
  146.1582  132.5513  149.6224 H   0  0  0  0  0  0  0  0  0  0  0  0
  147.0006  134.1459  151.5189 H   0  0  0  0  0  0  0  0  0  0  0  0
  145.5359  134.5461  150.6641 H   0  0  0  0  0  0  0  0  0  0  0  0
  145.6467  133.1194  153.3550 H   0  0  0  0  0  0  0  0  0  0  0  0
  143.5519  132.7624  153.2496 H   0  0  0  0  0  0  0  0  0  0  0  0
  1  2  2  0  0  0  0
  2  3  1  0  0  0  0
  2  9  1  0  0  0  0
  3  4  1  0  0  0  0
  3 19  1  0  0  0  0
  4  8  1  0  0  0  0
  4  5  2  0  0  0  0
  5  6  1  0  0  0  0
  6  7  2  0  0  0  0
  6 20  1  0  0  0  0
  7  8  1  0  0  0  0
  7 21  1  0  0  0  0
  9 10  1  0  0  0  0
  9 22  1  0  0  0  0
 10 18  1  0  0  0  0
 10 11  1  0  0  0  0
 10 23  1  0  0  0  0
 11 12  1  0  0  0  0
 11 24  1  0  0  0  0
 11 25  1  0  0  0  0
 12 13  1  0  0  0  0
 12 26  1  0  0  0  0
 12 27  1  0  0  0  0
 13 18  1  0  0  0  0
 13 14  1  0  0  0  0
 13 37  1  0  0  0  0
 14 15  1  0  0  0  0
 14 28  1  0  0  0  0
 14 29  1  0  0  0  0
 15 16  1  0  0  0  0
 15 30  1  0  0  0  0
 15 31  1  0  0  0  0
 16 17  1  0  0  0  0
 16 32  1  0  0  0  0
 16 33  1  0  0  0  0
 17 18  1  0  0  0  0
 17 34  1  0  0  0  0
 17 35  1  0  0  0  0
 18 36  1  0  0  0  0
M  CHG  1  13   1
M  END
> <s_m_source_file>
AV-unprocessed.smi

> <i_m_source_file_index>
1965

> <i_lp_mmshare_version>
43012

> <i_f3d_flags>
0

> <s_epik_input>
czFbY0hdW2NIXW5jMVtOSF1DKD1PKVtOSF1bQ0BIXShbQ0gyXVtDSDJdMilbQ0BASF0oTjIzKVtDSDJdW0NIMl1bQ0gyXVtDSDJdMw==

> <s_epik_cmdline>
J2VwaWtfcHl0aG9uJywgJy1waCcsICc3LjAnLCAnLXRuJywgJzgnLCAnLW1hJywgJzIwMCcsICctbWV0YWxfYmluZGluZycsICctaW1hZScsICc8aW5maWxlLm1hZT4nLCAnLW9tYWUnLCAnPG91dGZpbGUubWFlPic=

> <r_lp_tautomer_probability>
1

> <r_epik_Ionization_Penalty>
0.00125962

> <r_epik_Ionization_Penalty_Charging>
0.00107044

> <r_epik_Ionization_Penalty_Neutral>
0.000189176

> <r_epik_State_Penalty>
-0

> <r_epik_Charging_Adjusted_Penalty>
0.00107044

> <i_epik_Tot_Q>
1

> <i_epik_Tot_abs_Q>
1

> <r_epik_Metal_State_Penalty>
0.0179285

> <b_epik_Metal_Only>
0

> <s_lp_Force_Field>
OPLS_2005

> <r_lp_Energy>
41.2924

> <b_lp_Chiralities_Consistent>
1

> <s_lp_Variant>
AV-unprocessed.smi:1965-2

> <Gold.Version>
5.8.1

> <Gold.Id.Protein>
6NUR|6NUR_protein|mol2

> <Gold.PLP.Fitness>
42.5237

> <Gold.PLP.PLP>
-29.5967

> <Gold.PLP.part.hbond>
-2.8985

> <Gold.PLP.part.metal>
0.0000

> <Gold.PLP.part.buried>
-5.4322

> <Gold.PLP.part.nonpolar>
-23.1279

> <Gold.PLP.part.repulsive>
0.9416

> <Gold.PLP.ligand.clash>
0.0000

> <Gold.PLP.ligand.torsion>
0.2145

> <Gold.PLP.Chemscore.Hbond>
3.4508

> <Gold.PLP.Chemscore.CHOScore>
1.0000

> <Gold.PLP.Chemscore.Metal>
0.0000

> <Gold.Chemscore.Hbonds>
donor molecule, donor type, donor heavy atom, donor atom, acceptor molecule, acceptor atom, score
      L1  H     3    19       P1  7948  1.00
      L1  H     9    22       P1  7948  0.45
      L1  H    13    37       P1 10957  2.00
      L1  C     7    21       P1  8028  1.00

> <Gold.PLP.Chemscore.Internal.Correction>
0.0034

> <Gold.Rescore>
     Score         DG    S(hbond)    S(metal)    S(lipo)     H(rot)  DE(clash)    DE(int)     intcor
     17.00     -18.18       2.26        0.00      65.79       1.00       0.00       1.17       ----

> <Gold.Chemscore.Fitness>
17.0013

> <Gold.Chemscore.DG>
-18.1769

> <Gold.Chemscore.ZeroCoef>
-5.4800

> <Gold.Chemscore.Hbond>
2.2632

> <Gold.Chemscore.Metal>
0.0000

> <Gold.Chemscore.Lipo>
65.7930

> <Gold.Chemscore.Internal_Hbond>
0.0000

> <Gold.Chemscore.DEClash>
0.0048

> <Gold.Chemscore.DEInternal>
1.1708

> <Gold.Chemscore.Rot>
1.0000

> <Gold.Chemscore.Internal.Correction>
   9.000000E+99

> <Gold.Chemscore.Hbonds>
donor molecule, donor type, donor heavy atom, donor atom, acceptor molecule, acceptor atom, score
      L1  H     3    19       P1  7948  1.00
      L1  H     9    22       P1  7948  0.46
      L1  H    13    37       P1 10957  0.42

> <Gold.Chemscore.Hbond.Weighted>
-7.5591

> <Gold.Chemscore.Metal.Weighted>
-0.0000

> <Gold.Chemscore.Lipo.Weighted>
-7.6978

> <Gold.Chemscore.Internal_Hbond.Weighted>
0.0000

> <Gold.Chemscore.DEClash.Weighted>
0.0048

> <Gold.Chemscore.DEInternal.Weighted>
1.1708

> <Gold.Chemscore.Rot.Weighted>
2.5600

> <Gold.Chemscore.Internal.Correction.Weighted>
   9.000000E+99

> <Gold.Protein.RotatedTorsions>
[ 6907 6896 6895 6894 ] final  -18.98 input  -60.11 | X-H torsion
[ 7974 7965 7964 7962 ] final -130.24 input  175.53 | X-H torsion
[ 8008 7997 7996 7995 ] final  -48.26 input   59.86 | X-H torsion
[ 10167 10162 10161 10158 ] final   42.40 input  -65.29 | X-H torsion
[ 10718 10713 10712 10709 ] final  -15.95 input   66.30 | X-H torsion
[ 10763 10752 10751 10750 ] final  -90.30 input  -60.55 | X-H torsion
[ 11005 11000 10999 10996 ] final   56.79 input  -57.11 | X-H torsion

> <Gold.Protein.ActiveResidues>
 VAL166  LYS551  ARG553  GLY616  TRP617  ASP618  TYR619  PRO620  LYS621  CYS622 
 ASP623  PHE694  ASN695  SER759  ASP760  ASP761  ALA762  ILE779  LEU786  VAL792 
 PHE793  MET794  SER795  GLU796  ALA797  LYS798  CYS799  TRP800  GLU811  SER814 

> <Gold.Protein.RotatedAtoms>
  151.2700  135.0681  159.9130 H   0  0  0  0  0  0  0  0  0  0  0  0  # atno 6907 bound_to 6896
  152.5352  134.0140  159.7961 H   0  0  0  0  0  0  0  0  0  0  0  0  # atno 6908 bound_to 6896
  151.0377  133.5684  159.2685 H   0  0  0  0  0  0  0  0  0  0  0  0  # atno 6909 bound_to 6896
  144.9494  140.7327  143.4797 H   0  0  0  0  0  0  0  0  0  0  0  0  # atno 7974 bound_to 7965
  154.4026  140.1326  156.4310 H   0  0  0  0  0  0  0  0  0  0  0  0  # atno 8008 bound_to 7997
  155.7551  140.3487  155.5149 H   0  0  0  0  0  0  0  0  0  0  0  0  # atno 8009 bound_to 7997
  155.8913  140.1003  157.1407 H   0  0  0  0  0  0  0  0  0  0  0  0  # atno 8010 bound_to 7997
  140.3548  144.2304  150.6142 H   0  0  0  0  0  0  0  0  0  0  0  0  # atno 10167 bound_to 10162
  156.5945  130.4808  149.6265 H   0  0  0  0  0  0  0  0  0  0  0  0  # atno 10718 bound_to 10713
  154.6643  135.5309  153.8058 H   0  0  0  0  0  0  0  0  0  0  0  0  # atno 10763 bound_to 10752
  153.0461  135.6513  154.0823 H   0  0  0  0  0  0  0  0  0  0  0  0  # atno 10764 bound_to 10752
  154.0728  135.2953  155.3285 H   0  0  0  0  0  0  0  0  0  0  0  0  # atno 10765 bound_to 10752
  140.0502  134.5748  155.9273 H   0  0  0  0  0  0  0  0  0  0  0  0  # atno 11005 bound_to 11000
  145.2868  139.1898  143.4762 LP  0  0  0  0  0  0  0  0  0  0  0  0  # atno 17320 bound_to 7965
  146.3315  140.2838  142.8611 LP  0  0  0  0  0  0  0  0  0  0  0  0  # atno 17321 bound_to 7965
  140.5184  143.2272  151.8426 LP  0  0  0  0  0  0  0  0  0  0  0  0  # atno 17342 bound_to 10162
  139.4821  144.4866  151.9239 LP  0  0  0  0  0  0  0  0  0  0  0  0  # atno 17343 bound_to 10162
  156.2521  130.6913  151.1654 LP  0  0  0  0  0  0  0  0  0  0  0  0  # atno 17370 bound_to 10713
  157.7295  131.0623  150.5770 LP  0  0  0  0  0  0  0  0  0  0  0  0  # atno 17371 bound_to 10713
  141.1926  133.6576  156.5512 LP  0  0  0  0  0  0  0  0  0  0  0  0  # atno 17394 bound_to 11000
  140.3930  134.7424  157.4733 LP  0  0  0  0  0  0  0  0  0  0  0  0  # atno 17395 bound_to 11000

$$$$
