AV-unprocessed.smi:1995|AV-procd|sdf|8082|dock10
  -GOLD-   2272010293D 1   1.00000     0.00000
 Structure written by MMmdl.
 42 43  0  0  0  0  0  0  0  0  3 V2000
  148.7785  131.8639  153.6514 C   0  0  0  0  0  0  0  0  0  0  0  0
  149.0197  133.3306  154.0502 C   0  0  0  0  0  0  0  0  0  0  0  0
  147.7555  134.1603  154.4309 C   0  0  1  0  0  0  0  0  0  0  0  0
  146.7696  133.2600  155.2235 C   0  0  0  0  0  0  0  0  0  0  0  0
  148.1454  135.3425  155.3691 C   0  0  0  0  0  0  0  0  0  0  0  0
  148.5442  134.8843  156.7013 N   0  0  0  0  0  0  0  0  0  0  0  0
  148.4014  135.5507  157.8558 C   0  0  0  0  0  0  0  0  0  0  0  0
  147.9947  136.7141  157.8537 O   0  0  0  0  0  0  0  0  0  0  0  0
  148.7106  134.8146  158.9452 N   0  5  0  0  0  0  0  0  0  0  0  0
  148.1873  135.1362  160.1393 C   0  0  0  0  0  0  0  0  0  0  0  0
  148.1410  136.3919  160.5993 N   0  0  0  0  0  0  0  0  0  0  0  0
  147.5559  136.4982  161.8624 C   0  0  0  0  0  0  0  0  0  0  0  0
  147.1410  135.2965  162.3719 C   0  0  0  0  0  0  0  0  0  0  0  0
  147.4759  133.9874  161.2749 S   0  0  0  0  0  0  0  0  0  0  0  0
  147.0890  134.7183  153.1964 N   0  3  0  0  0  0  0  0  0  0  0  0
  146.6217  133.7093  152.2059 C   0  0  0  0  0  0  0  0  0  0  0  0
  146.2459  134.4017  150.8880 C   0  0  0  0  0  0  0  0  0  0  0  0
  145.2055  135.3364  151.1403 O   0  0  0  0  0  0  0  0  0  0  0  0
  145.6169  136.3531  152.0449 C   0  0  0  0  0  0  0  0  0  0  0  0
  146.0206  135.7364  153.3973 C   0  0  0  0  0  0  0  0  0  0  0  0
  149.7266  131.3693  153.4399 H   0  0  0  0  0  0  0  0  0  0  0  0
  148.1682  131.7796  152.7527 H   0  0  0  0  0  0  0  0  0  0  0  0
  148.2933  131.3005  154.4477 H   0  0  0  0  0  0  0  0  0  0  0  0
  149.7216  133.3187  154.8838 H   0  0  0  0  0  0  0  0  0  0  0  0
  149.5412  133.8203  153.2273 H   0  0  0  0  0  0  0  0  0  0  0  0
  147.1501  133.0218  156.2171 H   0  0  0  0  0  0  0  0  0  0  0  0
  146.5916  132.3082  154.7220 H   0  0  0  0  0  0  0  0  0  0  0  0
  145.8048  133.7473  155.3706 H   0  0  0  0  0  0  0  0  0  0  0  0
  148.9944  135.8892  154.9593 H   0  0  0  0  0  0  0  0  0  0  0  0
  147.3437  136.0785  155.4352 H   0  0  0  0  0  0  0  0  0  0  0  0
  148.9058  133.9435  156.7624 H   0  0  0  0  0  0  0  0  0  0  0  0
  147.4734  137.4708  162.3244 H   0  0  0  0  0  0  0  0  0  0  0  0
  146.6607  135.1018  163.3190 H   0  0  0  0  0  0  0  0  0  0  0  0
  147.3842  132.9581  152.0102 H   0  0  0  0  0  0  0  0  0  0  0  0
  145.7487  133.1799  152.5895 H   0  0  0  0  0  0  0  0  0  0  0  0
  147.1097  134.8997  150.4437 H   0  0  0  0  0  0  0  0  0  0  0  0
  145.8921  133.6672  150.1645 H   0  0  0  0  0  0  0  0  0  0  0  0
  146.4464  136.9182  151.6159 H   0  0  0  0  0  0  0  0  0  0  0  0
  144.7941  137.0547  152.1833 H   0  0  0  0  0  0  0  0  0  0  0  0
  145.1560  135.2792  153.8800 H   0  0  0  0  0  0  0  0  0  0  0  0
  146.3509  136.5555  154.0334 H   0  0  0  0  0  0  0  0  0  0  0  0
  147.8328  135.2206  152.7306 H   0  0  0  0  0  0  0  0  0  0  0  0
  1  2  1  0  0  0  0
  1 21  1  0  0  0  0
  1 22  1  0  0  0  0
  1 23  1  0  0  0  0
  2  3  1  0  0  0  0
  2 24  1  0  0  0  0
  2 25  1  0  0  0  0
  3  4  1  0  0  0  0
  3  5  1  0  0  0  0
  3 15  1  0  0  0  0
  4 26  1  0  0  0  0
  4 27  1  0  0  0  0
  4 28  1  0  0  0  0
  5  6  1  0  0  0  0
  5 29  1  0  0  0  0
  5 30  1  0  0  0  0
  6  7  1  0  0  0  0
  6 31  1  0  0  0  0
  7  8  2  0  0  0  0
  7  9  1  0  0  0  0
  9 10  1  0  0  0  0
 10 14  1  0  0  0  0
 10 11  2  0  0  0  0
 11 12  1  0  0  0  0
 12 13  2  0  0  0  0
 12 32  1  0  0  0  0
 13 14  1  0  0  0  0
 13 33  1  0  0  0  0
 15 20  1  0  0  0  0
 15 16  1  0  0  0  0
 15 42  1  0  0  0  0
 16 17  1  0  0  0  0
 16 34  1  0  0  0  0
 16 35  1  0  0  0  0
 17 18  1  0  0  0  0
 17 36  1  0  0  0  0
 17 37  1  0  0  0  0
 18 19  1  0  0  0  0
 19 20  1  0  0  0  0
 19 38  1  0  0  0  0
 19 39  1  0  0  0  0
 20 40  1  0  0  0  0
 20 41  1  0  0  0  0
M  CHG  1   9  -1
M  CHG  1  15   1
M  END
> <s_m_source_file>
AV-unprocessed.smi

> <i_m_source_file_index>
1995

> <i_lp_mmshare_version>
43012

> <i_f3d_flags>
0

> <s_epik_input>
W0NIMl0xW0NIMl1PW0NIMl1bQ0gyXU4xW0NAQF0oW0NIM10pKFtDSDJdW0NIM10pW0NIMl1bTkhdQyg9TylbTkhdYzJuW2NIXVtjSF1zMg==

> <s_epik_cmdline>
J2VwaWtfcHl0aG9uJywgJy1waCcsICc3LjAnLCAnLXRuJywgJzgnLCAnLW1hJywgJzIwMCcsICctbWV0YWxfYmluZGluZycsICctaW1hZScsICc8aW5maWxlLm1hZT4nLCAnLW9tYWUnLCAnPG91dGZpbGUubWFlPic=

> <r_lp_tautomer_probability>
0.999

> <r_epik_Ionization_Penalty>
8.09417

> <r_epik_Ionization_Penalty_Charging>
6.70334

> <r_epik_Ionization_Penalty_Neutral>
1.39083

> <r_epik_State_Penalty>
6.86521

> <r_epik_Charging_Adjusted_Penalty>
13.5685

> <i_epik_Tot_Q>
0

> <i_epik_Tot_abs_Q>
2

> <r_epik_Metal_State_Penalty>
2.79608

> <b_epik_Metal_Only>
1

> <s_lp_Force_Field>
OPLS_2005

> <r_lp_Energy>
20.9753

> <b_lp_Chiralities_Consistent>
1

> <s_lp_Variant>
AV-unprocessed.smi:1995-7

> <Gold.Version>
5.8.1

> <Gold.Id.Protein>
6NUR|6NUR_protein|mol2

> <Gold.PLP.Fitness>
38.6664

> <Gold.PLP.PLP>
-28.9161

> <Gold.PLP.part.hbond>
-2.1556

> <Gold.PLP.part.metal>
0.0000

> <Gold.PLP.part.buried>
-4.4927

> <Gold.PLP.part.nonpolar>
-21.8572

> <Gold.PLP.part.repulsive>
0.2169

> <Gold.PLP.ligand.clash>
0.0000

> <Gold.PLP.ligand.torsion>
1.2443

> <Gold.PLP.Chemscore.Hbond>
4.0000

> <Gold.PLP.Chemscore.CHOScore>
0.0000

> <Gold.PLP.Chemscore.Metal>
0.0000

> <Gold.Chemscore.Hbonds>
donor molecule, donor type, donor heavy atom, donor atom, acceptor molecule, acceptor atom, score
      L1  H    15    42       P1  7948  2.00
      P1  H  6896  6908       L1     9  1.85

> <Gold.PLP.Chemscore.Internal.Correction>
0.2388

> <Gold.Rescore>
     Score         DG    S(hbond)    S(metal)    S(lipo)     H(rot)  DE(clash)    DE(int)     intcor
     11.98     -14.69       1.88        0.00      63.39       1.75       0.00       2.71       ----

> <Gold.Chemscore.Fitness>
11.9832

> <Gold.Chemscore.DG>
-14.6894

> <Gold.Chemscore.ZeroCoef>
-5.4800

> <Gold.Chemscore.Hbond>
1.8797

> <Gold.Chemscore.Metal>
0.0000

> <Gold.Chemscore.Lipo>
63.3936

> <Gold.Chemscore.Internal_Hbond>
0.0000

> <Gold.Chemscore.DEClash>
0.0000

> <Gold.Chemscore.DEInternal>
2.7061

> <Gold.Chemscore.Rot>
1.7523

> <Gold.Chemscore.Internal.Correction>
   9.000000E+99

> <Gold.Chemscore.Hbonds>
donor molecule, donor type, donor heavy atom, donor atom, acceptor molecule, acceptor atom, score
      L1  H    15    42       P1  7948  1.00
      P1  H  6896  6908       L1     9  0.35

> <Gold.Chemscore.Hbond.Weighted>
-6.2781

> <Gold.Chemscore.Metal.Weighted>
-0.0000

> <Gold.Chemscore.Lipo.Weighted>
-7.4171

> <Gold.Chemscore.Internal_Hbond.Weighted>
0.0000

> <Gold.Chemscore.DEClash.Weighted>
0.0000

> <Gold.Chemscore.DEInternal.Weighted>
2.7061

> <Gold.Chemscore.Rot.Weighted>
4.4858

> <Gold.Chemscore.Internal.Correction.Weighted>
   9.000000E+99

> <Gold.Protein.RotatedTorsions>
[ 6907 6896 6895 6894 ] final  146.16 input  -60.11 | X-H torsion
[ 7974 7965 7964 7962 ] final -145.36 input  175.53 | X-H torsion
[ 8008 7997 7996 7995 ] final  -93.87 input   59.86 | X-H torsion
[ 10167 10162 10161 10158 ] final  140.21 input  -65.29 | X-H torsion
[ 10718 10713 10712 10709 ] final  -29.59 input   66.30 | X-H torsion
[ 10763 10752 10751 10750 ] final   34.57 input  -60.55 | X-H torsion
[ 11005 11000 10999 10996 ] final   69.66 input  -57.11 | X-H torsion

> <Gold.Protein.ActiveResidues>
 VAL166  LYS551  ARG553  GLY616  TRP617  ASP618  TYR619  PRO620  LYS621  CYS622 
 ASP623  PHE694  ASN695  SER759  ASP760  ASP761  ALA762  ILE779  LEU786  VAL792 
 PHE793  MET794  SER795  GLU796  ALA797  LYS798  CYS799  TRP800  GLU811  SER814 

> <Gold.Protein.RotatedAtoms>
  152.1715  133.4647  159.4911 H   0  0  0  0  0  0  0  0  0  0  0  0  # atno 6907 bound_to 6896
  150.6920  134.1946  159.4308 H   0  0  0  0  0  0  0  0  0  0  0  0  # atno 6908 bound_to 6896
  151.9854  135.0007  160.0610 H   0  0  0  0  0  0  0  0  0  0  0  0  # atno 6909 bound_to 6896
  144.8233  140.5594  143.5564 H   0  0  0  0  0  0  0  0  0  0  0  0  # atno 7974 bound_to 7965
  154.7411  140.0494  157.0812 H   0  0  0  0  0  0  0  0  0  0  0  0  # atno 8008 bound_to 7997
  155.0177  140.3143  155.4786 H   0  0  0  0  0  0  0  0  0  0  0  0  # atno 8009 bound_to 7997
  156.2864  140.2173  156.5293 H   0  0  0  0  0  0  0  0  0  0  0  0  # atno 8010 bound_to 7997
  139.5056  144.6248  151.5963 H   0  0  0  0  0  0  0  0  0  0  0  0  # atno 10167 bound_to 10162
  156.4106  130.4407  149.7255 H   0  0  0  0  0  0  0  0  0  0  0  0  # atno 10718 bound_to 10713
  153.0158  135.6357  154.1689 H   0  0  0  0  0  0  0  0  0  0  0  0  # atno 10763 bound_to 10752
  154.1428  135.2833  155.3158 H   0  0  0  0  0  0  0  0  0  0  0  0  # atno 10764 bound_to 10752
  154.6112  135.5556  153.7536 H   0  0  0  0  0  0  0  0  0  0  0  0  # atno 10765 bound_to 10752
  139.9641  134.7011  156.0583 H   0  0  0  0  0  0  0  0  0  0  0  0  # atno 11005 bound_to 11000
  145.5056  139.1481  143.3633 LP  0  0  0  0  0  0  0  0  0  0  0  0  # atno 17320 bound_to 7965
  146.2538  140.5196  142.8882 LP  0  0  0  0  0  0  0  0  0  0  0  0  # atno 17321 bound_to 7965
  140.5962  143.9692  150.6356 LP  0  0  0  0  0  0  0  0  0  0  0  0  # atno 17342 bound_to 10162
  140.2889  143.3338  152.1081 LP  0  0  0  0  0  0  0  0  0  0  0  0  # atno 17343 bound_to 10162
  156.4235  130.7780  151.2798 LP  0  0  0  0  0  0  0  0  0  0  0  0  # atno 17370 bound_to 10713
  157.7507  131.0175  150.3590 LP  0  0  0  0  0  0  0  0  0  0  0  0  # atno 17371 bound_to 10713
  141.1320  133.6584  156.3490 LP  0  0  0  0  0  0  0  0  0  0  0  0  # atno 17394 bound_to 11000
  140.5435  134.6097  157.5387 LP  0  0  0  0  0  0  0  0  0  0  0  0  # atno 17395 bound_to 11000

$$$$
