AV-unprocessed.smi:2881|AV-procd|sdf|11066|dock7
  -GOLD-   2272015543D 1   1.00000     0.00000
 Structure written by MMmdl.
 40 42  0  0  0  0  0  0  0  0  1 V2000
  153.2040  146.0586  159.9566 C   0  0  0  0  0  0  0  0  0  0  0  0
  153.1193  144.6162  159.5512 C   0  0  0  0  0  0  0  0  0  0  0  0
  153.0018  143.4741  160.3962 C   0  0  0  0  0  0  0  0  0  0  0  0
  152.9555  142.4165  159.5313 C   0  0  0  0  0  0  0  0  0  0  0  0
  152.8065  140.9477  159.7748 C   0  0  0  0  0  0  0  0  0  0  0  0
  152.8923  140.1726  158.4594 C   0  0  0  0  0  0  0  0  0  0  0  0
  153.5969  139.1669  158.3808 O   0  0  0  0  0  0  0  0  0  0  0  0
  152.1916  140.6717  157.4290 N   0  0  0  0  0  0  0  0  0  0  0  0
  152.2287  140.1783  156.0532 C   0  0  1  0  0  0  0  0  0  0  0  0
  151.7878  138.6996  156.0060 C   0  0  2  0  0  0  0  0  0  0  0  0
  152.1831  138.1001  154.6442 C   0  0  0  0  0  0  0  0  0  0  0  0
  151.1903  138.7776  153.6804 C   0  0  0  0  0  0  0  0  0  0  0  0
  150.3563  139.6726  154.6190 C   0  0  1  0  0  0  0  0  0  0  0  0
  150.2736  138.8059  155.8691 C   0  0  0  0  0  0  0  0  0  0  0  0
  151.2183  140.8711  155.0873 C   0  0  1  0  0  0  0  0  0  0  0  0
  150.3833  142.0277  155.6868 C   0  0  0  0  0  0  0  0  0  0  0  0
  151.2280  143.0437  156.1839 O   0  0  0  0  0  0  0  0  0  0  0  0
  153.0548  142.9515  158.2668 N   0  0  0  0  0  0  0  0  0  0  0  0
  153.1515  144.2935  158.2667 N   0  0  0  0  0  0  0  0  0  0  0  0
  153.0479  142.4203  157.4073 H   0  0  0  0  0  0  0  0  0  0  0  0
  152.5413  146.2670  160.7967 H   0  0  0  0  0  0  0  0  0  0  0  0
  152.9200  146.7241  159.1406 H   0  0  0  0  0  0  0  0  0  0  0  0
  154.2179  146.3181  160.2611 H   0  0  0  0  0  0  0  0  0  0  0  0
  152.9489  143.4391  161.4741 H   0  0  0  0  0  0  0  0  0  0  0  0
  151.8482  140.7391  160.2517 H   0  0  0  0  0  0  0  0  0  0  0  0
  153.5813  140.5998  160.4594 H   0  0  0  0  0  0  0  0  0  0  0  0
  151.6377  141.4994  157.5958 H   0  0  0  0  0  0  0  0  0  0  0  0
  153.2466  140.2688  155.6692 H   0  0  0  0  0  0  0  0  0  0  0  0
  152.1341  138.1049  156.8523 H   0  0  0  0  0  0  0  0  0  0  0  0
  153.2229  138.3022  154.3840 H   0  0  0  0  0  0  0  0  0  0  0  0
  152.0425  137.0185  154.6406 H   0  0  0  0  0  0  0  0  0  0  0  0
  151.6914  139.3477  152.8974 H   0  0  0  0  0  0  0  0  0  0  0  0
  150.5598  138.0311  153.1958 H   0  0  0  0  0  0  0  0  0  0  0  0
  149.3928  139.9543  154.1935 H   0  0  0  0  0  0  0  0  0  0  0  0
  149.7865  137.8444  155.6974 H   0  0  0  0  0  0  0  0  0  0  0  0
  149.7930  139.3007  156.7143 H   0  0  0  0  0  0  0  0  0  0  0  0
  151.7685  141.2779  154.2372 H   0  0  0  0  0  0  0  0  0  0  0  0
  149.7033  142.4584  154.9514 H   0  0  0  0  0  0  0  0  0  0  0  0
  149.7773  141.6706  156.5192 H   0  0  0  0  0  0  0  0  0  0  0  0
  151.2230  143.7639  155.5714 H   0  0  0  0  0  0  0  0  0  0  0  0
  1 21  1  0  0  0  0
  1 22  1  0  0  0  0
  1 23  1  0  0  0  0
  1  2  1  0  0  0  0
  2 19  2  0  0  0  0
  2  3  1  0  0  0  0
  3  4  2  0  0  0  0
  3 24  1  0  0  0  0
  4 18  1  0  0  0  0
  4  5  1  0  0  0  0
  5  6  1  0  0  0  0
  5 25  1  0  0  0  0
  5 26  1  0  0  0  0
  6  7  2  0  0  0  0
  6  8  1  0  0  0  0
  8  9  1  0  0  0  0
  8 27  1  0  0  0  0
  9 15  1  0  0  0  0
  9 10  1  0  0  0  0
  9 28  1  0  0  0  0
 10 14  1  0  0  0  0
 10 11  1  0  0  0  0
 10 29  1  0  0  0  0
 11 12  1  0  0  0  0
 11 30  1  0  0  0  0
 11 31  1  0  0  0  0
 12 13  1  0  0  0  0
 12 32  1  0  0  0  0
 12 33  1  0  0  0  0
 13 14  1  0  0  0  0
 13 15  1  0  0  0  0
 13 34  1  0  0  0  0
 14 35  1  0  0  0  0
 14 36  1  0  0  0  0
 15 16  1  0  0  0  0
 15 37  1  0  0  0  0
 16 17  1  0  0  0  0
 16 38  1  0  0  0  0
 16 39  1  0  0  0  0
 17 40  1  0  0  0  0
 18 19  1  0  0  0  0
 18 20  1  0  0  0  0
M  END
> <s_m_source_file>
AV-unprocessed.smi

> <i_m_source_file_index>
2881

> <i_lp_mmshare_version>
43012

> <i_f3d_flags>
0

> <s_epik_input>
W0NIM11jMVtjSF1jKG5bbkhdMSlbQ0gyXUMoPU8pW05IXVtDQEhdKFtDQEBIXTIzKVtDQEhdKFtDSDJdW09IXSlbQ0BASF0oW0NIMl0zKVtDSDJdW0NIMl0y

> <s_epik_cmdline>
J2VwaWtfcHl0aG9uJywgJy1waCcsICc3LjAnLCAnLXRuJywgJzgnLCAnLW1hJywgJzIwMCcsICctbWV0YWxfYmluZGluZycsICctaW1hZScsICc8aW5maWxlLm1hZT4nLCAnLW9tYWUnLCAnPG91dGZpbGUubWFlPic=

> <r_lp_tautomer_probability>
0.5

> <r_epik_Ionization_Penalty>
0.00013396

> <r_epik_Ionization_Penalty_Charging>
0

> <r_epik_Ionization_Penalty_Neutral>
0.00013396

> <r_epik_State_Penalty>
0.41068

> <r_epik_Charging_Adjusted_Penalty>
0.41068

> <i_epik_Tot_Q>
0

> <i_epik_Tot_abs_Q>
0

> <r_epik_Metal_State_Penalty>
0.41066

> <b_epik_Metal_Only>
0

> <s_lp_Force_Field>
OPLS_2005

> <r_lp_Energy>
46.6503

> <b_lp_Chiralities_Consistent>
1

> <s_lp_Variant>
AV-unprocessed.smi:2881-12

> <Gold.Version>
5.8.1

> <Gold.Id.Protein>
6NUR|6NUR_protein|mol2

> <Gold.PLP.Fitness>
44.2585

> <Gold.PLP.PLP>
-38.6528

> <Gold.PLP.part.hbond>
-2.0000

> <Gold.PLP.part.metal>
0.0000

> <Gold.PLP.part.buried>
-3.1238

> <Gold.PLP.part.nonpolar>
-32.2501

> <Gold.PLP.part.repulsive>
0.1954

> <Gold.PLP.ligand.clash>
0.0000

> <Gold.PLP.ligand.torsion>
0.2086

> <Gold.PLP.Chemscore.Hbond>
2.0000

> <Gold.PLP.Chemscore.CHOScore>
0.0000

> <Gold.PLP.Chemscore.Metal>
0.0000

> <Gold.Chemscore.Hbonds>
donor molecule, donor type, donor heavy atom, donor atom, acceptor molecule, acceptor atom, score
      P1  H  7997  8010       L1     7  0.40

> <Gold.PLP.Chemscore.Internal.Correction>
0.0230

> <Gold.Rescore>
     Score         DG    S(hbond)    S(metal)    S(lipo)     H(rot)  DE(clash)    DE(int)     intcor
     14.70     -17.73       1.93        0.00      99.51       2.28       0.02       3.01       ----

> <Gold.Chemscore.Fitness>
14.7040

> <Gold.Chemscore.DG>
-17.7338

> <Gold.Chemscore.ZeroCoef>
-5.4800

> <Gold.Chemscore.Hbond>
1.9272

> <Gold.Chemscore.Metal>
0.0000

> <Gold.Chemscore.Lipo>
99.5067

> <Gold.Chemscore.Internal_Hbond>
0.0000

> <Gold.Chemscore.DEClash>
0.0230

> <Gold.Chemscore.DEInternal>
3.0068

> <Gold.Chemscore.Rot>
2.2755

> <Gold.Chemscore.Internal.Correction>
   9.000000E+99

> <Gold.Chemscore.Hbonds>
donor molecule, donor type, donor heavy atom, donor atom, acceptor molecule, acceptor atom, score
      P1  H  7997  8010       L1     7  0.01

> <Gold.Chemscore.Hbond.Weighted>
-6.4367

> <Gold.Chemscore.Metal.Weighted>
-0.0000

> <Gold.Chemscore.Lipo.Weighted>
-11.6423

> <Gold.Chemscore.Internal_Hbond.Weighted>
0.0000

> <Gold.Chemscore.DEClash.Weighted>
0.0230

> <Gold.Chemscore.DEInternal.Weighted>
3.0068

> <Gold.Chemscore.Rot.Weighted>
5.8252

> <Gold.Chemscore.Internal.Correction.Weighted>
   9.000000E+99

> <Gold.Protein.RotatedTorsions>
[ 6907 6896 6895 6894 ] final  131.85 input  -60.11 | X-H torsion
[ 7974 7965 7964 7962 ] final  -19.33 input  175.53 | X-H torsion
[ 8008 7997 7996 7995 ] final   41.27 input   59.86 | X-H torsion
[ 10167 10162 10161 10158 ] final  -20.34 input  -65.29 | X-H torsion
[ 10718 10713 10712 10709 ] final  147.07 input   66.30 | X-H torsion
[ 10763 10752 10751 10750 ] final   81.77 input  -60.55 | X-H torsion
[ 11005 11000 10999 10996 ] final  176.40 input  -57.11 | X-H torsion

> <Gold.Protein.ActiveResidues>
 VAL166  LYS551  ARG553  GLY616  TRP617  ASP618  TYR619  PRO620  LYS621  CYS622 
 ASP623  PHE694  ASN695  SER759  ASP760  ASP761  ALA762  ILE779  LEU786  VAL792 
 PHE793  MET794  SER795  GLU796  ALA797  LYS798  CYS799  TRP800  GLU811  SER814 

> <Gold.Protein.RotatedAtoms>
  152.3384  133.6038  159.5858 H   0  0  0  0  0  0  0  0  0  0  0  0  # atno 6907 bound_to 6896
  150.7464  133.9760  159.3570 H   0  0  0  0  0  0  0  0  0  0  0  0  # atno 6908 bound_to 6896
  151.7627  135.0806  160.0399 H   0  0  0  0  0  0  0  0  0  0  0  0  # atno 6909 bound_to 6896
  146.1847  140.4047  142.8481 H   0  0  0  0  0  0  0  0  0  0  0  0  # atno 7974 bound_to 7965
  155.2668  140.3363  155.4268 H   0  0  0  0  0  0  0  0  0  0  0  0  # atno 8008 bound_to 7997
  156.2150  140.1785  156.7651 H   0  0  0  0  0  0  0  0  0  0  0  0  # atno 8009 bound_to 7997
  154.5741  140.0665  156.8992 H   0  0  0  0  0  0  0  0  0  0  0  0  # atno 8010 bound_to 7997
  140.7275  143.4732  151.0218 H   0  0  0  0  0  0  0  0  0  0  0  0  # atno 10167 bound_to 10162
  157.3255  131.0911  151.1206 H   0  0  0  0  0  0  0  0  0  0  0  0  # atno 10718 bound_to 10713
  153.1145  135.4753  154.9093 H   0  0  0  0  0  0  0  0  0  0  0  0  # atno 10763 bound_to 10752
  154.7515  135.3107  154.8551 H   0  0  0  0  0  0  0  0  0  0  0  0  # atno 10764 bound_to 10752
  153.9131  135.6863  153.4804 H   0  0  0  0  0  0  0  0  0  0  0  0  # atno 10765 bound_to 10752
  140.3727  134.7016  157.4402 H   0  0  0  0  0  0  0  0  0  0  0  0  # atno 11005 bound_to 11000
  144.8375  140.6806  143.6251 LP  0  0  0  0  0  0  0  0  0  0  0  0  # atno 17320 bound_to 7965
  145.3975  139.1604  143.4195 LP  0  0  0  0  0  0  0  0  0  0  0  0  # atno 17321 bound_to 7965
  139.8425  143.7544  152.3180 LP  0  0  0  0  0  0  0  0  0  0  0  0  # atno 17342 bound_to 10162
  139.7698  144.7480  151.0241 LP  0  0  0  0  0  0  0  0  0  0  0  0  # atno 17343 bound_to 10162
  157.2475  130.6598  149.5916 LP  0  0  0  0  0  0  0  0  0  0  0  0  # atno 17370 bound_to 10713
  155.9690  130.4549  150.5867 LP  0  0  0  0  0  0  0  0  0  0  0  0  # atno 17371 bound_to 10713
  140.0539  134.6091  155.8828 LP  0  0  0  0  0  0  0  0  0  0  0  0  # atno 17394 bound_to 11000
  141.1949  133.6585  156.5619 LP  0  0  0  0  0  0  0  0  0  0  0  0  # atno 17395 bound_to 11000

$$$$
