AV-unprocessed.smi:37|AV-procd|sdf|306|dock1
  -GOLD-   2262016113D 1   1.00000     0.00000
 Structure written by MMmdl.
 44 45  0  0  0  0  0  0  0  0  1 V2000
  146.7169  134.4089  161.7163 C   0  0  0  0  0  0  0  0  0  0  0  0
  147.7000  135.5683  161.9349 C   0  0  0  0  0  0  0  0  0  0  0  0
  147.6741  136.6118  160.8164 C   0  0  0  0  0  0  0  0  0  0  0  0
  146.6519  137.2265  160.5072 O   0  0  0  0  0  0  0  0  0  0  0  0
  148.8738  136.7511  160.2374 O   0  0  0  0  0  0  0  0  0  0  0  0
  148.9974  137.4966  159.0380 C   0  0  0  0  0  0  0  0  0  0  0  0
  150.4703  137.8411  158.7555 C   0  0  1  0  0  0  0  0  0  0  0  0
  151.2315  136.6319  158.7142 O   0  0  0  0  0  0  0  0  0  0  0  0
  152.2043  136.7016  157.7144 C   0  0  2  0  0  0  0  0  0  0  0  0
  153.4990  137.2769  158.2702 N   0  0  0  0  0  0  0  0  0  0  0  0
  153.5244  138.3138  159.1985 C   0  0  0  0  0  0  0  0  0  0  0  0
  154.6705  138.8117  159.7204 C   0  0  0  0  0  0  0  0  0  0  0  0
  154.6115  139.8154  160.6122 F   0  0  0  0  0  0  0  0  0  0  0  0
  155.9656  138.2586  159.3395 C   0  0  0  0  0  0  0  0  0  0  0  0
  157.0570  138.6517  159.7462 O   0  0  0  0  0  0  0  0  0  0  0  0
  155.8926  137.1878  158.4454 N   0  0  0  0  0  0  0  0  0  0  0  0
  154.7182  136.6578  157.9092 C   0  0  0  0  0  0  0  0  0  0  0  0
  154.7739  135.6841  157.1591 O   0  0  0  0  0  0  0  0  0  0  0  0
  151.5979  137.6048  156.6308 C   0  0  1  0  0  0  0  0  0  0  0  0
  150.4253  136.4968  155.4549 Br  0  0  0  0  0  0  0  0  0  0  0  0
  150.7898  138.6016  157.4511 C   0  0  1  0  0  0  0  0  0  0  0  0
  149.6716  139.0951  156.7211 O   0  0  0  0  0  0  0  0  0  0  0  0
  149.8529  139.7990  155.5888 C   0  0  0  0  0  0  0  0  0  0  0  0
  150.9376  140.0630  155.0702 O   0  0  0  0  0  0  0  0  0  0  0  0
  148.5385  140.2629  154.9643 C   0  0  0  0  0  0  0  0  0  0  0  0
  148.5033  141.7796  154.7321 C   0  0  0  0  0  0  0  0  0  0  0  0
  156.7628  136.7537  158.1736 H   0  0  0  0  0  0  0  0  0  0  0  0
  146.7796  133.6938  162.5366 H   0  0  0  0  0  0  0  0  0  0  0  0
  146.9349  133.8709  160.7928 H   0  0  0  0  0  0  0  0  0  0  0  0
  145.6870  134.7641  161.6674 H   0  0  0  0  0  0  0  0  0  0  0  0
  147.4765  136.0674  162.8780 H   0  0  0  0  0  0  0  0  0  0  0  0
  148.7142  135.1771  162.0190 H   0  0  0  0  0  0  0  0  0  0  0  0
  148.5869  136.9269  158.2033 H   0  0  0  0  0  0  0  0  0  0  0  0
  148.4102  138.4120  159.1204 H   0  0  0  0  0  0  0  0  0  0  0  0
  150.8267  138.4468  159.5886 H   0  0  0  0  0  0  0  0  0  0  0  0
  152.4755  135.7035  157.3656 H   0  0  0  0  0  0  0  0  0  0  0  0
  152.6059  138.7560  159.5510 H   0  0  0  0  0  0  0  0  0  0  0  0
  152.3415  138.0839  155.9958 H   0  0  0  0  0  0  0  0  0  0  0  0
  151.4605  139.4261  157.7000 H   0  0  0  0  0  0  0  0  0  0  0  0
  148.4006  139.7431  154.0158 H   0  0  0  0  0  0  0  0  0  0  0  0
  147.7141  139.9636  155.6118 H   0  0  0  0  0  0  0  0  0  0  0  0
  147.5919  142.0667  154.2076 H   0  0  0  0  0  0  0  0  0  0  0  0
  149.3495  142.1109  154.1292 H   0  0  0  0  0  0  0  0  0  0  0  0
  148.5247  142.3268  155.6750 H   0  0  0  0  0  0  0  0  0  0  0  0
  1  2  1  0  0  0  0
  1 28  1  0  0  0  0
  1 29  1  0  0  0  0
  1 30  1  0  0  0  0
  2  3  1  0  0  0  0
  2 31  1  0  0  0  0
  2 32  1  0  0  0  0
  3  4  2  0  0  0  0
  3  5  1  0  0  0  0
  5  6  1  0  0  0  0
  6  7  1  0  0  0  0
  6 33  1  0  0  0  0
  6 34  1  0  0  0  0
  7 21  1  0  0  0  0
  7  8  1  0  0  0  0
  7 35  1  0  0  0  0
  8  9  1  0  0  0  0
  9 10  1  0  0  0  0
  9 19  1  0  0  0  0
  9 36  1  0  0  0  0
 10 17  1  0  0  0  0
 10 11  1  0  0  0  0
 11 12  2  0  0  0  0
 11 37  1  0  0  0  0
 12 13  1  0  0  0  0
 12 14  1  0  0  0  0
 14 15  2  0  0  0  0
 14 16  1  0  0  0  0
 16 27  1  0  0  0  0
 16 17  1  0  0  0  0
 17 18  2  0  0  0  0
 19 20  1  0  0  0  0
 19 21  1  0  0  0  0
 19 38  1  0  0  0  0
 21 22  1  0  0  0  0
 21 39  1  0  0  0  0
 22 23  1  0  0  0  0
 23 24  2  0  0  0  0
 23 25  1  0  0  0  0
 25 26  1  0  0  0  0
 25 40  1  0  0  0  0
 25 41  1  0  0  0  0
 26 42  1  0  0  0  0
 26 43  1  0  0  0  0
 26 44  1  0  0  0  0
M  END
> <s_m_source_file>
AV-unprocessed.smi

> <i_m_source_file_index>
37

> <i_lp_mmshare_version>
43012

> <i_f3d_flags>
0

> <s_epik_input>
W0NIM11bQ0gyXUMoPU8pT1tDSDJdW0NAQEhdMU9bQ0BASF0objJbY0hdYyhGKWMoPU8pW25IXWMyPU8pW0NAQEhdKEJyKVtDQEhdMU9DKD1PKVtDSDJdW0NIM10=

> <s_epik_cmdline>
J2VwaWtfcHl0aG9uJywgJy1waCcsICc3LjAnLCAnLXRuJywgJzgnLCAnLW1hJywgJzIwMCcsICctbWV0YWxfYmluZGluZycsICctaW1hZScsICc8aW5maWxlLm1hZT4nLCAnLW9tYWUnLCAnPG91dGZpbGUubWFlPic=

> <r_lp_tautomer_probability>
0.999537

> <r_epik_Ionization_Penalty>
0.104106

> <r_epik_Ionization_Penalty_Charging>
0.104106

> <r_epik_Ionization_Penalty_Neutral>
3.94675e-16

> <r_epik_State_Penalty>
0.0940182

> <r_epik_Charging_Adjusted_Penalty>
0.198124

> <i_epik_Tot_Q>
0

> <i_epik_Tot_abs_Q>
0

> <r_epik_Metal_State_Penalty>
3.05314

> <b_epik_Metal_Only>
0

> <s_epik_Chemistry_Notes>
This compound has an ester and may undergo hydrolysis at high or low pH. This compound contains an acetal/aminal-like group ( X-CH(R)-Y where X, Y are N, S, or O) that may be acid/base labile, releasing an aldehyde.

> <s_lp_Force_Field>
OPLS_2005

> <r_lp_Energy>
23.6922

> <b_lp_Chiralities_Consistent>
1

> <s_lp_Variant>
AV-unprocessed.smi:37-4

> <Gold.Version>
5.8.1

> <Gold.Id.Protein>
6NUR|6NUR_protein|mol2

> <Gold.PLP.Fitness>
41.8585

> <Gold.PLP.PLP>
-31.3977

> <Gold.PLP.part.hbond>
-5.0000

> <Gold.PLP.part.metal>
0.0000

> <Gold.PLP.part.buried>
-6.3606

> <Gold.PLP.part.nonpolar>
-21.5244

> <Gold.PLP.part.repulsive>
0.2017

> <Gold.PLP.ligand.clash>
0.0000

> <Gold.PLP.ligand.torsion>
0.6488

> <Gold.PLP.Chemscore.Hbond>
3.8320

> <Gold.PLP.Chemscore.CHOScore>
0.0000

> <Gold.PLP.Chemscore.Metal>
0.0000

> <Gold.Chemscore.Hbonds>
donor molecule, donor type, donor heavy atom, donor atom, acceptor molecule, acceptor atom, score
      P1  H  6896  6909       L1     8  0.85
      P1  H  6934  6947       L1     4  1.00
      P1  H  7989  7998       L1    24  1.00
      P1  H 10752 10765       L1    18  1.00

> <Gold.PLP.Chemscore.Internal.Correction>
0.2625

> <Gold.Rescore>
     Score         DG    S(hbond)    S(metal)    S(lipo)     H(rot)  DE(clash)    DE(int)     intcor
     15.46     -16.30       3.76        0.00      57.88       3.33       0.14       0.69       ----

> <Gold.Chemscore.Fitness>
15.4598

> <Gold.Chemscore.DG>
-16.2953

> <Gold.Chemscore.ZeroCoef>
-5.4800

> <Gold.Chemscore.Hbond>
3.7632

> <Gold.Chemscore.Metal>
0.0000

> <Gold.Chemscore.Lipo>
57.8799

> <Gold.Chemscore.Internal_Hbond>
0.0000

> <Gold.Chemscore.DEClash>
0.1421

> <Gold.Chemscore.DEInternal>
0.6934

> <Gold.Chemscore.Rot>
3.3303

> <Gold.Chemscore.Internal.Correction>
   9.000000E+99

> <Gold.Chemscore.Hbonds>
donor molecule, donor type, donor heavy atom, donor atom, acceptor molecule, acceptor atom, score
      P1  H  6896  6909       L1     8  0.81
      P1  H  6934  6947       L1     4  0.30
      P1  H  7989  7998       L1    24  1.00
      P1  H 10752 10765       L1    18  0.97

> <Gold.Chemscore.Hbond.Weighted>
-12.5690

> <Gold.Chemscore.Metal.Weighted>
-0.0000

> <Gold.Chemscore.Lipo.Weighted>
-6.7719

> <Gold.Chemscore.Internal_Hbond.Weighted>
0.0000

> <Gold.Chemscore.DEClash.Weighted>
0.1421

> <Gold.Chemscore.DEInternal.Weighted>
0.6934

> <Gold.Chemscore.Rot.Weighted>
8.5256

> <Gold.Chemscore.Internal.Correction.Weighted>
   9.000000E+99

> <Gold.Protein.RotatedTorsions>
[ 6907 6896 6895 6894 ] final   97.88 input  -60.11 | X-H torsion
[ 7974 7965 7964 7962 ] final   98.10 input  175.53 | X-H torsion
[ 8008 7997 7996 7995 ] final  147.52 input   59.86 | X-H torsion
[ 10167 10162 10161 10158 ] final   27.78 input  -65.29 | X-H torsion
[ 10718 10713 10712 10709 ] final -128.05 input   66.30 | X-H torsion
[ 10763 10752 10751 10750 ] final  -66.43 input  -60.55 | X-H torsion
[ 11005 11000 10999 10996 ] final -142.80 input  -57.11 | X-H torsion

> <Gold.Protein.ActiveResidues>
 VAL166  LYS551  ARG553  GLY616  TRP617  ASP618  TYR619  PRO620  LYS621  CYS622 
 ASP623  PHE694  ASN695  SER759  ASP760  ASP761  ALA762  ILE779  LEU786  VAL792 
 PHE793  MET794  SER795  GLU796  ALA797  LYS798  CYS799  TRP800  GLU811  SER814 

> <Gold.Protein.RotatedAtoms>
  152.5417  134.0665  159.8174 H   0  0  0  0  0  0  0  0  0  0  0  0  # atno 6907 bound_to 6896
  151.0785  133.5401  159.2629 H   0  0  0  0  0  0  0  0  0  0  0  0  # atno 6908 bound_to 6896
  151.2237  135.0537  159.9014 H   0  0  0  0  0  0  0  0  0  0  0  0  # atno 6909 bound_to 6896
  145.4167  139.2326  143.3218 H   0  0  0  0  0  0  0  0  0  0  0  0  # atno 7974 bound_to 7965
  156.2822  140.2153  156.5551 H   0  0  0  0  0  0  0  0  0  0  0  0  # atno 8008 bound_to 7997
  154.7259  140.0499  157.0705 H   0  0  0  0  0  0  0  0  0  0  0  0  # atno 8009 bound_to 7997
  155.0417  140.3146  155.4725 H   0  0  0  0  0  0  0  0  0  0  0  0  # atno 8010 bound_to 7997
  140.4909  144.0468  150.6297 H   0  0  0  0  0  0  0  0  0  0  0  0  # atno 10167 bound_to 10162
  156.1914  130.6798  151.0429 H   0  0  0  0  0  0  0  0  0  0  0  0  # atno 10718 bound_to 10713
  154.3597  135.6118  153.5684 H   0  0  0  0  0  0  0  0  0  0  0  0  # atno 10763 bound_to 10752
  152.9794  135.5812  154.4647 H   0  0  0  0  0  0  0  0  0  0  0  0  # atno 10764 bound_to 10752
  154.4382  135.2849  155.1843 H   0  0  0  0  0  0  0  0  0  0  0  0  # atno 10765 bound_to 10752
  140.8189  134.2655  157.4909 H   0  0  0  0  0  0  0  0  0  0  0  0  # atno 11005 bound_to 11000
  146.2677  140.4886  142.8827 LP  0  0  0  0  0  0  0  0  0  0  0  0  # atno 17320 bound_to 7965
  144.8272  140.6648  143.6314 LP  0  0  0  0  0  0  0  0  0  0  0  0  # atno 17321 bound_to 7965
  140.3737  143.2840  152.0249 LP  0  0  0  0  0  0  0  0  0  0  0  0  # atno 17342 bound_to 10162
  139.4851  144.6210  151.7256 LP  0  0  0  0  0  0  0  0  0  0  0  0  # atno 17343 bound_to 10162
  157.6931  131.0803  150.7048 LP  0  0  0  0  0  0  0  0  0  0  0  0  # atno 17370 bound_to 10713
  156.7105  130.4650  149.5548 LP  0  0  0  0  0  0  0  0  0  0  0  0  # atno 17371 bound_to 10713
  139.8709  134.9524  156.4114 LP  0  0  0  0  0  0  0  0  0  0  0  0  # atno 17394 bound_to 11000
  140.9120  133.7705  155.9803 LP  0  0  0  0  0  0  0  0  0  0  0  0  # atno 17395 bound_to 11000

$$$$
