AV-unprocessed.smi:1250|AV-procd|sdf|5255|dock5
  -GOLD-   22720 4363D 1   1.00000     0.00000
 Structure written by MMmdl.
 41 42  0  0  0  0  0  0  0  0  1 V2000
  152.9083  136.7914  163.0073 C   0  0  0  0  0  0  0  0  0  0  0  0
  154.0506  137.3630  162.1444 C   0  0  0  0  0  0  0  0  0  0  0  0
  154.0155  138.9012  162.2033 C   0  0  0  0  0  0  0  0  0  0  0  0
  154.0131  136.8282  160.6880 C   0  0  1  0  0  0  0  0  0  0  0  0
  154.1375  135.2954  160.5987 C   0  0  0  0  0  0  0  0  0  0  0  0
  152.7728  137.2365  160.0291 N   0  0  0  0  0  0  0  0  0  0  0  0
  152.6843  138.0548  158.9683 C   0  0  0  0  0  0  0  0  0  0  0  0
  153.6603  138.5680  158.4213 O   0  0  0  0  0  0  0  0  0  0  0  0
  151.2777  138.3359  158.4384 C   0  0  0  0  0  0  0  0  0  0  0  0
  151.1765  139.7542  157.9553 C   0  0  0  0  0  0  0  0  0  0  0  0
  150.8401  140.1724  156.6903 C   0  0  0  0  0  0  0  0  0  0  0  0
  150.8430  141.9085  156.5526 S   0  0  0  0  0  0  0  0  0  0  0  0
  151.3193  142.0085  158.2506 C   0  0  0  0  0  0  0  0  0  0  0  0
  151.5704  143.2040  158.9881 N   0  0  0  0  0  0  0  0  0  0  0  0
  151.8147  144.4807  158.3240 C   0  0  0  0  0  0  0  0  0  0  0  0
  151.7992  145.5405  159.4307 C   0  0  0  0  0  0  0  0  0  0  0  0
  151.9241  144.7610  160.7382 C   0  0  0  0  0  0  0  0  0  0  0  0
  151.6401  143.3261  160.3257 C   0  0  0  0  0  0  0  0  0  0  0  0
  151.5092  142.4321  161.1606 O   0  0  0  0  0  0  0  0  0  0  0  0
  151.4498  140.8106  158.8313 N   0  0  0  0  0  0  0  0  0  0  0  0
  151.9340  137.0309  162.5805 H   0  0  0  0  0  0  0  0  0  0  0  0
  152.9364  137.2008  164.0174 H   0  0  0  0  0  0  0  0  0  0  0  0
  152.9726  135.7076  163.1038 H   0  0  0  0  0  0  0  0  0  0  0  0
  154.9888  137.0418  162.5993 H   0  0  0  0  0  0  0  0  0  0  0  0
  153.1329  139.2966  161.6999 H   0  0  0  0  0  0  0  0  0  0  0  0
  154.8951  139.3460  161.7393 H   0  0  0  0  0  0  0  0  0  0  0  0
  153.9929  139.2543  163.2348 H   0  0  0  0  0  0  0  0  0  0  0  0
  154.8558  137.2690  160.1517 H   0  0  0  0  0  0  0  0  0  0  0  0
  155.1003  134.9446  160.9685 H   0  0  0  0  0  0  0  0  0  0  0  0
  154.0549  134.9534  159.5664 H   0  0  0  0  0  0  0  0  0  0  0  0
  153.3551  134.7994  161.1739 H   0  0  0  0  0  0  0  0  0  0  0  0
  151.9145  136.8626  160.4081 H   0  0  0  0  0  0  0  0  0  0  0  0
  151.0451  137.6288  157.6407 H   0  0  0  0  0  0  0  0  0  0  0  0
  150.5521  138.1522  159.2317 H   0  0  0  0  0  0  0  0  0  0  0  0
  150.5868  139.5637  155.8348 H   0  0  0  0  0  0  0  0  0  0  0  0
  152.7883  144.4490  157.8325 H   0  0  0  0  0  0  0  0  0  0  0  0
  151.0583  144.6911  157.5665 H   0  0  0  0  0  0  0  0  0  0  0  0
  152.6019  146.2680  159.3072 H   0  0  0  0  0  0  0  0  0  0  0  0
  150.8549  146.0864  159.4145 H   0  0  0  0  0  0  0  0  0  0  0  0
  152.9331  144.8268  161.1459 H   0  0  0  0  0  0  0  0  0  0  0  0
  151.2174  145.1071  161.4933 H   0  0  0  0  0  0  0  0  0  0  0  0
  1  2  1  0  0  0  0
  1 21  1  0  0  0  0
  1 22  1  0  0  0  0
  1 23  1  0  0  0  0
  2  3  1  0  0  0  0
  2  4  1  0  0  0  0
  2 24  1  0  0  0  0
  3 25  1  0  0  0  0
  3 26  1  0  0  0  0
  3 27  1  0  0  0  0
  4  5  1  0  0  0  0
  4  6  1  0  0  0  0
  4 28  1  0  0  0  0
  5 29  1  0  0  0  0
  5 30  1  0  0  0  0
  5 31  1  0  0  0  0
  6  7  1  0  0  0  0
  6 32  1  0  0  0  0
  7  8  2  0  0  0  0
  7  9  1  0  0  0  0
  9 10  1  0  0  0  0
  9 33  1  0  0  0  0
  9 34  1  0  0  0  0
 10 20  1  0  0  0  0
 10 11  2  0  0  0  0
 11 12  1  0  0  0  0
 11 35  1  0  0  0  0
 12 13  1  0  0  0  0
 13 14  1  0  0  0  0
 13 20  2  0  0  0  0
 14 18  1  0  0  0  0
 14 15  1  0  0  0  0
 15 16  1  0  0  0  0
 15 36  1  0  0  0  0
 15 37  1  0  0  0  0
 16 17  1  0  0  0  0
 16 38  1  0  0  0  0
 16 39  1  0  0  0  0
 17 18  1  0  0  0  0
 17 40  1  0  0  0  0
 17 41  1  0  0  0  0
 18 19  2  0  0  0  0
M  END
> <s_m_source_file>
AV-unprocessed.smi

> <i_m_source_file_index>
1250

> <i_lp_mmshare_version>
43012

> <i_f3d_flags>
0

> <s_epik_input>
W0NIM11bQ0hdKFtDSDNdKVtDQEhdKFtDSDNdKVtOSF1DKD1PKVtDSDJdYzFbY0hdc2MobjEpTjJbQ0gyXVtDSDJdW0NIMl1DMj1P

> <s_epik_cmdline>
J2VwaWtfcHl0aG9uJywgJy1waCcsICc3LjAnLCAnLXRuJywgJzgnLCAnLW1hJywgJzIwMCcsICctbWV0YWxfYmluZGluZycsICctaW1hZScsICc8aW5maWxlLm1hZT4nLCAnLW9tYWUnLCAnPG91dGZpbGUubWFlPic=

> <r_lp_tautomer_probability>
1

> <r_epik_Ionization_Penalty>
3.03552e-05

> <r_epik_Ionization_Penalty_Charging>
0

> <r_epik_Ionization_Penalty_Neutral>
3.03552e-05

> <r_epik_State_Penalty>
-0

> <r_epik_Charging_Adjusted_Penalty>
0

> <i_epik_Tot_Q>
0

> <i_epik_Tot_abs_Q>
0

> <r_epik_Metal_State_Penalty>
-0

> <b_epik_Metal_Only>
0

> <s_lp_Force_Field>
OPLS_2005

> <r_lp_Energy>
19.4329

> <b_lp_Chiralities_Consistent>
1

> <s_lp_Variant>
AV-unprocessed.smi:1250-2

> <Gold.Version>
5.8.1

> <Gold.Id.Protein>
6NUR|6NUR_protein|mol2

> <Gold.PLP.Fitness>
43.1966

> <Gold.PLP.PLP>
-40.3080

> <Gold.PLP.part.hbond>
-2.0000

> <Gold.PLP.part.metal>
0.0000

> <Gold.PLP.part.buried>
-5.6916

> <Gold.PLP.part.nonpolar>
-33.5717

> <Gold.PLP.part.repulsive>
0.1611

> <Gold.PLP.ligand.clash>
0.0000

> <Gold.PLP.ligand.torsion>
0.4848

> <Gold.PLP.Chemscore.Hbond>
1.2746

> <Gold.PLP.Chemscore.CHOScore>
0.0000

> <Gold.PLP.Chemscore.Metal>
0.0000

> <Gold.Chemscore.Hbonds>
donor molecule, donor type, donor heavy atom, donor atom, acceptor molecule, acceptor atom, score
      P1  H  6933  6945       L1    19  0.38
      P1  H  7997  8009       L1     8  0.46

> <Gold.PLP.Chemscore.Internal.Correction>
0.0346

> <Gold.Rescore>
     Score         DG    S(hbond)    S(metal)    S(lipo)     H(rot)  DE(clash)    DE(int)     intcor
     15.69     -17.33       1.58        0.00      90.66       1.58       0.06       1.59       ----

> <Gold.Chemscore.Fitness>
15.6854

> <Gold.Chemscore.DG>
-17.3311

> <Gold.Chemscore.ZeroCoef>
-5.4800

> <Gold.Chemscore.Hbond>
1.5814

> <Gold.Chemscore.Metal>
0.0000

> <Gold.Chemscore.Lipo>
90.6644

> <Gold.Chemscore.Internal_Hbond>
0.0000

> <Gold.Chemscore.DEClash>
0.0578

> <Gold.Chemscore.DEInternal>
1.5879

> <Gold.Chemscore.Rot>
1.5775

> <Gold.Chemscore.Internal.Correction>
   9.000000E+99

> <Gold.Chemscore.Hbonds>
donor molecule, donor type, donor heavy atom, donor atom, acceptor molecule, acceptor atom, score
      P1  H  6933  6945       L1    19  0.38
      P1  H  7997  8009       L1     8  0.45

> <Gold.Chemscore.Hbond.Weighted>
-5.2818

> <Gold.Chemscore.Metal.Weighted>
-0.0000

> <Gold.Chemscore.Lipo.Weighted>
-10.6077

> <Gold.Chemscore.Internal_Hbond.Weighted>
0.0000

> <Gold.Chemscore.DEClash.Weighted>
0.0578

> <Gold.Chemscore.DEInternal.Weighted>
1.5879

> <Gold.Chemscore.Rot.Weighted>
4.0385

> <Gold.Chemscore.Internal.Correction.Weighted>
   9.000000E+99

> <Gold.Protein.RotatedTorsions>
[ 6907 6896 6895 6894 ] final   94.53 input  -60.11 | X-H torsion
[ 7974 7965 7964 7962 ] final -125.12 input  175.53 | X-H torsion
[ 8008 7997 7996 7995 ] final  127.62 input   59.86 | X-H torsion
[ 10167 10162 10161 10158 ] final  -54.93 input  -65.29 | X-H torsion
[ 10718 10713 10712 10709 ] final  -12.78 input   66.30 | X-H torsion
[ 10763 10752 10751 10750 ] final -145.28 input  -60.55 | X-H torsion
[ 11005 11000 10999 10996 ] final  -73.63 input  -57.11 | X-H torsion

> <Gold.Protein.ActiveResidues>
 VAL166  LYS551  ARG553  GLY616  TRP617  ASP618  TYR619  PRO620  LYS621  CYS622 
 ASP623  PHE694  ASN695  SER759  ASP760  ASP761  ALA762  ILE779  LEU786  VAL792 
 PHE793  MET794  SER795  GLU796  ALA797  LYS798  CYS799  TRP800  GLU811  SER814 

> <Gold.Protein.RotatedAtoms>
  152.5449  134.1179  159.8386 H   0  0  0  0  0  0  0  0  0  0  0  0  # atno 6907 bound_to 6896
  151.1238  133.5078  159.2608 H   0  0  0  0  0  0  0  0  0  0  0  0  # atno 6908 bound_to 6896
  151.1750  135.0345  159.8822 H   0  0  0  0  0  0  0  0  0  0  0  0  # atno 6909 bound_to 6896
  145.0009  140.7819  143.4497 H   0  0  0  0  0  0  0  0  0  0  0  0  # atno 7974 bound_to 7965
  156.2895  140.2664  156.2302 H   0  0  0  0  0  0  0  0  0  0  0  0  # atno 8008 bound_to 7997
  155.0080  140.0387  157.2405 H   0  0  0  0  0  0  0  0  0  0  0  0  # atno 8009 bound_to 7997
  154.7543  140.2749  155.6271 H   0  0  0  0  0  0  0  0  0  0  0  0  # atno 8010 bound_to 7997
  140.6403  143.2504  151.5007 H   0  0  0  0  0  0  0  0  0  0  0  0  # atno 10167 bound_to 10162
  156.6396  130.4924  149.6099 H   0  0  0  0  0  0  0  0  0  0  0  0  # atno 10718 bound_to 10713
  154.8390  135.3417  154.6479 H   0  0  0  0  0  0  0  0  0  0  0  0  # atno 10763 bound_to 10752
  153.7092  135.6965  153.5046 H   0  0  0  0  0  0  0  0  0  0  0  0  # atno 10764 bound_to 10752
  153.2465  135.4367  155.0706 H   0  0  0  0  0  0  0  0  0  0  0  0  # atno 10765 bound_to 10752
  141.1625  133.6884  156.7241 H   0  0  0  0  0  0  0  0  0  0  0  0  # atno 11005 bound_to 11000
  145.2154  139.2184  143.5121 LP  0  0  0  0  0  0  0  0  0  0  0  0  # atno 17320 bound_to 7965
  146.3451  140.2001  142.8589 LP  0  0  0  0  0  0  0  0  0  0  0  0  # atno 17321 bound_to 7965
  139.5612  144.2151  152.1694 LP  0  0  0  0  0  0  0  0  0  0  0  0  # atno 17342 bound_to 10162
  140.1420  144.5193  150.6738 LP  0  0  0  0  0  0  0  0  0  0  0  0  # atno 17343 bound_to 10162
  156.2169  130.6713  151.1328 LP  0  0  0  0  0  0  0  0  0  0  0  0  # atno 17370 bound_to 10713
  157.7175  131.0701  150.6269 LP  0  0  0  0  0  0  0  0  0  0  0  0  # atno 17371 bound_to 10713
  140.2794  134.8329  157.3919 LP  0  0  0  0  0  0  0  0  0  0  0  0  # atno 17394 bound_to 11000
  140.1448  134.4926  155.8005 LP  0  0  0  0  0  0  0  0  0  0  0  0  # atno 17395 bound_to 11000

$$$$
