AV-unprocessed.smi:3148|AV-procd|sdf|11997|dock3
  -GOLD-   2272017403D 1   1.00000     0.00000
 Structure written by MMmdl.
 35 37  0  0  0  0  0  0  0  0  2 V2000
  151.5039  137.7110  153.8155 C   0  0  0  0  0  0  0  0  0  0  0  0
  151.8177  138.6841  154.8064 O   0  0  0  0  0  0  0  0  0  0  0  0
  151.0209  139.8067  154.8960 C   0  0  0  0  0  0  0  0  0  0  0  0
  149.9354  139.9591  154.0179 C   0  0  0  0  0  0  0  0  0  0  0  0
  149.1573  141.1243  154.1577 C   0  0  0  0  0  0  0  0  0  0  0  0
  147.9642  141.4065  153.2698 C   0  0  0  0  0  0  0  0  0  0  0  0
  149.4691  142.0406  155.1081 N   0  3  0  0  0  0  0  0  0  0  0  0
  150.5217  141.8374  155.9140 C   0  0  0  0  0  0  0  0  0  0  0  0
  150.8001  142.8078  156.8594 N   0  0  0  0  0  0  0  0  0  0  0  0
  151.9069  142.7331  157.8061 C   0  0  2  0  0  0  0  0  0  0  0  0
  151.6086  141.8410  159.0135 C   0  0  0  0  0  0  0  0  0  0  0  0
  151.9133  142.7857  160.1847 C   0  0  2  0  0  0  0  0  0  0  0  0
  150.8086  143.8352  160.3638 C   0  0  0  0  0  0  0  0  0  0  0  0
  151.0563  144.7535  159.1687 C   0  0  0  0  0  0  0  0  0  0  0  0
  152.2551  144.0721  158.4864 C   0  0  1  0  0  0  0  0  0  0  0  0
  152.9424  143.5855  159.6263 O   0  0  0  0  0  0  0  0  0  0  0  0
  151.2968  140.7474  155.8289 N   0  0  0  0  0  0  0  0  0  0  0  0
  152.2291  136.8988  153.8653 H   0  0  0  0  0  0  0  0  0  0  0  0
  151.5512  138.1338  152.8109 H   0  0  0  0  0  0  0  0  0  0  0  0
  150.5140  137.2817  153.9769 H   0  0  0  0  0  0  0  0  0  0  0  0
  149.7116  139.2122  153.2698 H   0  0  0  0  0  0  0  0  0  0  0  0
  147.7180  140.5403  152.6549 H   0  0  0  0  0  0  0  0  0  0  0  0
  148.1765  142.2464  152.6078 H   0  0  0  0  0  0  0  0  0  0  0  0
  147.0897  141.6548  153.8720 H   0  0  0  0  0  0  0  0  0  0  0  0
  150.3004  143.6821  156.7875 H   0  0  0  0  0  0  0  0  0  0  0  0
  152.7887  142.3466  157.2929 H   0  0  0  0  0  0  0  0  0  0  0  0
  150.5834  141.4689  159.0459 H   0  0  0  0  0  0  0  0  0  0  0  0
  152.2801  140.9817  159.0228 H   0  0  0  0  0  0  0  0  0  0  0  0
  152.1896  142.2737  161.1068 H   0  0  0  0  0  0  0  0  0  0  0  0
  149.8113  143.3940  160.3606 H   0  0  0  0  0  0  0  0  0  0  0  0
  150.9376  144.3812  161.2991 H   0  0  0  0  0  0  0  0  0  0  0  0
  150.1875  144.8496  158.5171 H   0  0  0  0  0  0  0  0  0  0  0  0
  151.3295  145.7523  159.5108 H   0  0  0  0  0  0  0  0  0  0  0  0
  152.8483  144.7439  157.8653 H   0  0  0  0  0  0  0  0  0  0  0  0
  148.8977  142.8808  155.1979 H   0  0  0  0  0  0  0  0  0  0  0  0
  1  2  1  0  0  0  0
  1 18  1  0  0  0  0
  1 19  1  0  0  0  0
  1 20  1  0  0  0  0
  2  3  1  0  0  0  0
  3 17  1  0  0  0  0
  3  4  2  0  0  0  0
  4  5  1  0  0  0  0
  4 21  1  0  0  0  0
  5  6  1  0  0  0  0
  5  7  2  0  0  0  0
  6 22  1  0  0  0  0
  6 23  1  0  0  0  0
  6 24  1  0  0  0  0
  7  8  1  0  0  0  0
  7 35  1  0  0  0  0
  8  9  1  0  0  0  0
  8 17  2  0  0  0  0
  9 10  1  0  0  0  0
  9 25  1  0  0  0  0
 10 15  1  0  0  0  0
 10 11  1  0  0  0  0
 10 26  1  0  0  0  0
 11 12  1  0  0  0  0
 11 27  1  0  0  0  0
 11 28  1  0  0  0  0
 12 16  1  0  0  0  0
 12 13  1  0  0  0  0
 12 29  1  0  0  0  0
 13 14  1  0  0  0  0
 13 30  1  0  0  0  0
 13 31  1  0  0  0  0
 14 15  1  0  0  0  0
 14 32  1  0  0  0  0
 14 33  1  0  0  0  0
 15 16  1  0  0  0  0
 15 34  1  0  0  0  0
M  CHG  1   7   1
M  END
> <s_m_source_file>
AV-unprocessed.smi

> <i_m_source_file_index>
3148

> <i_lp_mmshare_version>
43012

> <i_f3d_flags>
0

> <s_epik_input>
W0NIM11PYzFbY0hdYyhbQ0gzXSluYyhuMSlbTkhdW0NASF0oW0NIMl1bQ0BASF0yMylbQ0BASF0oTzMpW0NIMl1bQ0gyXTI=

> <s_epik_cmdline>
J2VwaWtfcHl0aG9uJywgJy1waCcsICc3LjAnLCAnLXRuJywgJzgnLCAnLW1hJywgJzIwMCcsICctbWV0YWxfYmluZGluZycsICctaW1hZScsICc8aW5maWxlLm1hZT4nLCAnLW9tYWUnLCAnPG91dGZpbGUubWFlPic=

> <r_lp_tautomer_probability>
0.999985

> <r_epik_Ionization_Penalty>
1.09461

> <r_epik_Ionization_Penalty_Charging>
1.0946

> <r_epik_Ionization_Penalty_Neutral>
6.69406e-06

> <r_epik_State_Penalty>
1.15119

> <r_epik_Charging_Adjusted_Penalty>
2.24579

> <i_epik_Tot_Q>
1

> <i_epik_Tot_abs_Q>
1

> <r_epik_Metal_State_Penalty>
1.2392

> <b_epik_Metal_Only>
0

> <s_lp_Force_Field>
OPLS_2005

> <r_lp_Energy>
36.3956

> <b_lp_Chiralities_Consistent>
1

> <s_lp_Variant>
AV-unprocessed.smi:3148-7

> <Gold.Version>
5.8.1

> <Gold.Id.Protein>
6NUR|6NUR_protein|mol2

> <Gold.PLP.Fitness>
49.7857

> <Gold.PLP.PLP>
-39.2808

> <Gold.PLP.part.hbond>
-2.0000

> <Gold.PLP.part.metal>
0.0000

> <Gold.PLP.part.buried>
-2.9650

> <Gold.PLP.part.nonpolar>
-33.0590

> <Gold.PLP.part.repulsive>
0.2706

> <Gold.PLP.ligand.clash>
0.0494

> <Gold.PLP.ligand.torsion>
0.2475

> <Gold.PLP.Chemscore.Hbond>
3.6800

> <Gold.PLP.Chemscore.CHOScore>
0.0000

> <Gold.PLP.Chemscore.Metal>
0.0000

> <Gold.Chemscore.Hbonds>
donor molecule, donor type, donor heavy atom, donor atom, acceptor molecule, acceptor atom, score
      L1  H     7    35       P1  8028  1.86
      L1  H     9    25       P1  8028  1.60

> <Gold.PLP.Chemscore.Internal.Correction>
0.0094

> <Gold.Rescore>
     Score         DG    S(hbond)    S(metal)    S(lipo)     H(rot)  DE(clash)    DE(int)     intcor
     18.90     -19.71       1.81        0.00      97.13       1.24       0.79       0.02       ----

> <Gold.Chemscore.Fitness>
18.8963

> <Gold.Chemscore.DG>
-19.7066

> <Gold.Chemscore.ZeroCoef>
-5.4800

> <Gold.Chemscore.Hbond>
1.8054

> <Gold.Chemscore.Metal>
0.0000

> <Gold.Chemscore.Lipo>
97.1341

> <Gold.Chemscore.Internal_Hbond>
0.0000

> <Gold.Chemscore.DEClash>
0.7917

> <Gold.Chemscore.DEInternal>
0.0186

> <Gold.Chemscore.Rot>
1.2376

> <Gold.Chemscore.Internal.Correction>
   9.000000E+99

> <Gold.Chemscore.Hbonds>
donor molecule, donor type, donor heavy atom, donor atom, acceptor molecule, acceptor atom, score
      L1  H     7    35       P1  8028  0.89
      L1  H     9    25       P1  8028  0.77

> <Gold.Chemscore.Hbond.Weighted>
-6.0301

> <Gold.Chemscore.Metal.Weighted>
-0.0000

> <Gold.Chemscore.Lipo.Weighted>
-11.3647

> <Gold.Chemscore.Internal_Hbond.Weighted>
0.0000

> <Gold.Chemscore.DEClash.Weighted>
0.7917

> <Gold.Chemscore.DEInternal.Weighted>
0.0186

> <Gold.Chemscore.Rot.Weighted>
3.1681

> <Gold.Chemscore.Internal.Correction.Weighted>
   9.000000E+99

> <Gold.Protein.RotatedTorsions>
[ 6907 6896 6895 6894 ] final -155.83 input  -60.11 | X-H torsion
[ 7974 7965 7964 7962 ] final  -98.19 input  175.53 | X-H torsion
[ 8008 7997 7996 7995 ] final   68.13 input   59.86 | X-H torsion
[ 10167 10162 10161 10158 ] final  -51.54 input  -65.29 | X-H torsion
[ 10718 10713 10712 10709 ] final  -18.79 input   66.30 | X-H torsion
[ 10763 10752 10751 10750 ] final  -74.71 input  -60.55 | X-H torsion
[ 11005 11000 10999 10996 ] final -115.15 input  -57.11 | X-H torsion

> <Gold.Protein.ActiveResidues>
 VAL166  LYS551  ARG553  GLY616  TRP617  ASP618  TYR619  PRO620  LYS621  CYS622 
 ASP623  PHE694  ASN695  SER759  ASP760  ASP761  ALA762  ILE779  LEU786  VAL792 
 PHE793  MET794  SER795  GLU796  ALA797  LYS798  CYS799  TRP800  GLU811  SER814 

> <Gold.Protein.RotatedAtoms>
  151.2785  133.4221  159.2625 H   0  0  0  0  0  0  0  0  0  0  0  0  # atno 6907 bound_to 6896
  151.0382  134.9588  159.8158 H   0  0  0  0  0  0  0  0  0  0  0  0  # atno 6908 bound_to 6896
  152.5360  134.2744  159.9036 H   0  0  0  0  0  0  0  0  0  0  0  0  # atno 6909 bound_to 6896
  145.3239  140.9427  143.2700 H   0  0  0  0  0  0  0  0  0  0  0  0  # atno 7974 bound_to 7965
  155.7036  140.3495  155.4943 H   0  0  0  0  0  0  0  0  0  0  0  0  # atno 8008 bound_to 7997
  155.9418  140.1103  157.1071 H   0  0  0  0  0  0  0  0  0  0  0  0  # atno 8009 bound_to 7997
  154.4104  140.1211  156.4924 H   0  0  0  0  0  0  0  0  0  0  0  0  # atno 8010 bound_to 7997
  140.6583  143.2616  151.4518 H   0  0  0  0  0  0  0  0  0  0  0  0  # atno 10167 bound_to 10162
  156.5546  130.4710  149.6435 H   0  0  0  0  0  0  0  0  0  0  0  0  # atno 10718 bound_to 10713
  154.4768  135.5855  153.6360 H   0  0  0  0  0  0  0  0  0  0  0  0  # atno 10763 bound_to 10752
  152.9842  135.6080  154.3297 H   0  0  0  0  0  0  0  0  0  0  0  0  # atno 10764 bound_to 10752
  154.3185  135.2844  155.2510 H   0  0  0  0  0  0  0  0  0  0  0  0  # atno 10765 bound_to 10752
  141.0506  133.9693  157.2842 H   0  0  0  0  0  0  0  0  0  0  0  0  # atno 11005 bound_to 11000
  144.8917  139.4765  143.6674 LP  0  0  0  0  0  0  0  0  0  0  0  0  # atno 17320 bound_to 7965
  146.3072  139.7619  142.9047 LP  0  0  0  0  0  0  0  0  0  0  0  0  # atno 17321 bound_to 7965
  139.5811  144.1708  152.1969 LP  0  0  0  0  0  0  0  0  0  0  0  0  # atno 17342 bound_to 10162
  140.1034  144.5520  150.6974 LP  0  0  0  0  0  0  0  0  0  0  0  0  # atno 17343 bound_to 10162
  156.2853  130.7094  151.1929 LP  0  0  0  0  0  0  0  0  0  0  0  0  # atno 17370 bound_to 10713
  157.7381  131.0545  150.5317 LP  0  0  0  0  0  0  0  0  0  0  0  0  # atno 17371 bound_to 10713
  139.9347  135.0197  156.8518 LP  0  0  0  0  0  0  0  0  0  0  0  0  # atno 17394 bound_to 11000
  140.6062  134.0125  155.7557 LP  0  0  0  0  0  0  0  0  0  0  0  0  # atno 17395 bound_to 11000

$$$$
