AV-unprocessed.smi:3331|AV-procd|sdf|12822|dock10
  -GOLD-   2272019193D 1   1.00000     0.00000
 Structure written by MMmdl.
 47 48  0  0  0  0  0  0  0  0  2 V2000
  150.7616  139.7525  155.9068 C   0  0  0  0  0  0  0  0  0  0  0  0
  149.2856  139.7847  155.4866 C   0  0  1  0  0  0  0  0  0  0  0  0
  148.8590  141.1977  155.0261 C   0  0  0  0  0  0  0  0  0  0  0  0
  147.4197  141.2407  154.4640 C   0  0  2  0  0  0  0  0  0  0  0  0
  146.3585  141.2114  155.5789 C   0  0  0  0  0  0  0  0  0  0  0  0
  147.2298  140.1139  153.4248 C   0  0  0  0  0  0  0  0  0  0  0  0
  147.5610  138.8183  154.0353 N   0  0  0  0  0  0  0  0  0  0  0  0
  146.6860  137.8307  154.3525 C   0  0  0  0  0  0  0  0  0  0  0  0
  145.4762  137.9386  154.1419 O   0  0  0  0  0  0  0  0  0  0  0  0
  147.1921  136.5220  154.9974 C   0  0  1  0  0  0  0  0  0  0  0  0
  146.0969  135.9150  155.8889 C   0  0  0  0  0  0  0  0  0  0  0  0
  147.6043  135.5308  153.9757 N   0  3  0  0  0  0  0  0  0  0  0  0
  146.4937  134.9252  153.2095 C   0  0  0  0  0  0  0  0  0  0  0  0
  147.0204  133.9102  152.1859 C   0  0  0  0  0  0  0  0  0  0  0  0
  145.9438  133.3101  151.4220 N   0  0  0  0  0  0  0  0  0  0  0  0
  146.0185  132.3179  150.4669 C   0  0  0  0  0  0  0  0  0  0  0  0
  144.7481  132.0857  150.0230 C   0  0  0  0  0  0  0  0  0  0  0  0
  143.9553  132.9990  150.7728 C   0  0  0  0  0  0  0  0  0  0  0  0
  144.6742  133.7317  151.6084 N   0  0  0  0  0  0  0  0  0  0  0  0
  148.9867  138.7481  154.3829 C   0  0  0  0  0  0  0  0  0  0  0  0
  151.4179  139.9992  155.0717 H   0  0  0  0  0  0  0  0  0  0  0  0
  151.0442  138.7646  156.2718 H   0  0  0  0  0  0  0  0  0  0  0  0
  150.9570  140.4669  156.7070 H   0  0  0  0  0  0  0  0  0  0  0  0
  148.6940  139.5204  156.3642 H   0  0  0  0  0  0  0  0  0  0  0  0
  148.9689  141.9131  155.8422 H   0  0  0  0  0  0  0  0  0  0  0  0
  149.5430  141.5305  154.2440 H   0  0  0  0  0  0  0  0  0  0  0  0
  147.2989  142.1925  153.9449 H   0  0  0  0  0  0  0  0  0  0  0  0
  146.4071  140.2952  156.1673 H   0  0  0  0  0  0  0  0  0  0  0  0
  145.3533  141.2852  155.1637 H   0  0  0  0  0  0  0  0  0  0  0  0
  146.4899  142.0489  156.2645 H   0  0  0  0  0  0  0  0  0  0  0  0
  146.2360  140.1595  152.9844 H   0  0  0  0  0  0  0  0  0  0  0  0
  147.9057  140.2817  152.5845 H   0  0  0  0  0  0  0  0  0  0  0  0
  148.0755  136.7081  155.6058 H   0  0  0  0  0  0  0  0  0  0  0  0
  145.7868  136.6072  156.6724 H   0  0  0  0  0  0  0  0  0  0  0  0
  146.4507  135.0076  156.3794 H   0  0  0  0  0  0  0  0  0  0  0  0
  145.2100  135.6532  155.3104 H   0  0  0  0  0  0  0  0  0  0  0  0
  148.2118  135.9954  153.3163 H   0  0  0  0  0  0  0  0  0  0  0  0
  145.8001  134.4315  153.8912 H   0  0  0  0  0  0  0  0  0  0  0  0
  145.9370  135.7146  152.7024 H   0  0  0  0  0  0  0  0  0  0  0  0
  147.7143  134.3876  151.4924 H   0  0  0  0  0  0  0  0  0  0  0  0
  147.5712  133.1150  152.6904 H   0  0  0  0  0  0  0  0  0  0  0  0
  146.9573  131.8639  150.1855 H   0  0  0  0  0  0  0  0  0  0  0  0
  144.4332  131.3733  149.2751 H   0  0  0  0  0  0  0  0  0  0  0  0
  142.8866  133.1501  150.7342 H   0  0  0  0  0  0  0  0  0  0  0  0
  149.5870  138.9557  153.4955 H   0  0  0  0  0  0  0  0  0  0  0  0
  149.2918  137.7547  154.7150 H   0  0  0  0  0  0  0  0  0  0  0  0
  148.1264  134.7983  154.4355 H   0  0  0  0  0  0  0  0  0  0  0  0
  1  2  1  0  0  0  0
  1 21  1  0  0  0  0
  1 22  1  0  0  0  0
  1 23  1  0  0  0  0
  2 20  1  0  0  0  0
  2  3  1  0  0  0  0
  2 24  1  0  0  0  0
  3  4  1  0  0  0  0
  3 25  1  0  0  0  0
  3 26  1  0  0  0  0
  4  5  1  0  0  0  0
  4  6  1  0  0  0  0
  4 27  1  0  0  0  0
  5 28  1  0  0  0  0
  5 29  1  0  0  0  0
  5 30  1  0  0  0  0
  6  7  1  0  0  0  0
  6 31  1  0  0  0  0
  6 32  1  0  0  0  0
  7  8  1  0  0  0  0
  7 20  1  0  0  0  0
  8  9  2  0  0  0  0
  8 10  1  0  0  0  0
 10 11  1  0  0  0  0
 10 12  1  0  0  0  0
 10 33  1  0  0  0  0
 11 34  1  0  0  0  0
 11 35  1  0  0  0  0
 11 36  1  0  0  0  0
 12 13  1  0  0  0  0
 12 37  1  0  0  0  0
 12 47  1  0  0  0  0
 13 14  1  0  0  0  0
 13 38  1  0  0  0  0
 13 39  1  0  0  0  0
 14 15  1  0  0  0  0
 14 40  1  0  0  0  0
 14 41  1  0  0  0  0
 15 19  1  0  0  0  0
 15 16  1  0  0  0  0
 16 17  2  0  0  0  0
 16 42  1  0  0  0  0
 17 18  1  0  0  0  0
 17 43  1  0  0  0  0
 18 19  2  0  0  0  0
 18 44  1  0  0  0  0
 20 45  1  0  0  0  0
 20 46  1  0  0  0  0
M  CHG  1  12   1
M  END
> <s_m_source_file>
AV-unprocessed.smi

> <i_m_source_file_index>
3331

> <i_lp_mmshare_version>
43012

> <i_f3d_flags>
0

> <s_epik_input>
W0NIM11bQ0BASF0xW0NIMl1bQ0BASF0oW0NIM10pW0NIMl1OKFtDSDJdMSlDKD1PKVtDQEhdKFtDSDNdKVtOSF1bQ0gyXVtDSDJdbjJbY0hdW2NIXVtjSF1uMg==

> <s_epik_cmdline>
J2VwaWtfcHl0aG9uJywgJy1waCcsICc3LjAnLCAnLXRuJywgJzgnLCAnLW1hJywgJzIwMCcsICctbWV0YWxfYmluZGluZycsICctaW1hZScsICc8aW5maWxlLm1hZT4nLCAnLW9tYWUnLCAnPG91dGZpbGUubWFlPic=

> <r_lp_tautomer_probability>
1

> <r_epik_Ionization_Penalty>
0.189706

> <r_epik_Ionization_Penalty_Charging>
0.189703

> <r_epik_Ionization_Penalty_Neutral>
2.45875e-06

> <r_epik_State_Penalty>
0.179341

> <r_epik_Charging_Adjusted_Penalty>
0.369044

> <i_epik_Tot_Q>
1

> <i_epik_Tot_abs_Q>
1

> <r_epik_Metal_State_Penalty>
0.179578

> <b_epik_Metal_Only>
0

> <s_lp_Force_Field>
OPLS_2005

> <r_lp_Energy>
28.0969

> <b_lp_Chiralities_Consistent>
1

> <s_lp_Variant>
AV-unprocessed.smi:3331-6

> <Gold.Version>
5.8.1

> <Gold.Id.Protein>
6NUR|6NUR_protein|mol2

> <Gold.PLP.Fitness>
42.7088

> <Gold.PLP.PLP>
-32.2957

> <Gold.PLP.part.hbond>
-1.0000

> <Gold.PLP.part.metal>
0.0000

> <Gold.PLP.part.buried>
-2.4620

> <Gold.PLP.part.nonpolar>
-29.6466

> <Gold.PLP.part.repulsive>
0.2642

> <Gold.PLP.ligand.clash>
0.0000

> <Gold.PLP.ligand.torsion>
0.8126

> <Gold.PLP.Chemscore.Hbond>
2.0000

> <Gold.PLP.Chemscore.CHOScore>
2.0000

> <Gold.PLP.Chemscore.Metal>
0.0000

> <Gold.Chemscore.Hbonds>
donor molecule, donor type, donor heavy atom, donor atom, acceptor molecule, acceptor atom, score
      L1  H    12    37       P1  7948  2.00
      L1  C    16    42       P1 10747  1.00
      L1  C    18    44       P1 10186  0.94

> <Gold.PLP.Chemscore.Internal.Correction>
0.0382

> <Gold.Rescore>
     Score         DG    S(hbond)    S(metal)    S(lipo)     H(rot)  DE(clash)    DE(int)     intcor
     12.90     -13.95       1.00        0.00      81.67       1.73       0.08       0.97       ----

> <Gold.Chemscore.Fitness>
12.9027

> <Gold.Chemscore.DG>
-13.9453

> <Gold.Chemscore.ZeroCoef>
-5.4800

> <Gold.Chemscore.Hbond>
0.9960

> <Gold.Chemscore.Metal>
0.0000

> <Gold.Chemscore.Lipo>
81.6719

> <Gold.Chemscore.Internal_Hbond>
0.0000

> <Gold.Chemscore.DEClash>
0.0755

> <Gold.Chemscore.DEInternal>
0.9670

> <Gold.Chemscore.Rot>
1.7254

> <Gold.Chemscore.Internal.Correction>
   9.000000E+99

> <Gold.Chemscore.Hbonds>
donor molecule, donor type, donor heavy atom, donor atom, acceptor molecule, acceptor atom, score
      L1  H    12    37       P1  7948  0.98

> <Gold.Chemscore.Hbond.Weighted>
-3.3267

> <Gold.Chemscore.Metal.Weighted>
-0.0000

> <Gold.Chemscore.Lipo.Weighted>
-9.5556

> <Gold.Chemscore.Internal_Hbond.Weighted>
0.0000

> <Gold.Chemscore.DEClash.Weighted>
0.0755

> <Gold.Chemscore.DEInternal.Weighted>
0.9670

> <Gold.Chemscore.Rot.Weighted>
4.4170

> <Gold.Chemscore.Internal.Correction.Weighted>
   9.000000E+99

> <Gold.Protein.RotatedTorsions>
[ 6907 6896 6895 6894 ] final  -23.37 input  -60.11 | X-H torsion
[ 7974 7965 7964 7962 ] final   10.62 input  175.53 | X-H torsion
[ 8008 7997 7996 7995 ] final  119.80 input   59.86 | X-H torsion
[ 10167 10162 10161 10158 ] final   74.46 input  -65.29 | X-H torsion
[ 10718 10713 10712 10709 ] final    1.98 input   66.30 | X-H torsion
[ 10763 10752 10751 10750 ] final   21.30 input  -60.55 | X-H torsion
[ 11005 11000 10999 10996 ] final  -43.67 input  -57.11 | X-H torsion

> <Gold.Protein.ActiveResidues>
 VAL166  LYS551  ARG553  GLY616  TRP617  ASP618  TYR619  PRO620  LYS621  CYS622 
 ASP623  PHE694  ASN695  SER759  ASP760  ASP761  ALA762  ILE779  LEU786  VAL792 
 PHE793  MET794  SER795  GLU796  ALA797  LYS798  CYS799  TRP800  GLU811  SER814 

> <Gold.Protein.RotatedAtoms>
  151.2050  135.0458  159.8887 H   0  0  0  0  0  0  0  0  0  0  0  0  # atno 6907 bound_to 6896
  152.5429  134.0808  159.8244 H   0  0  0  0  0  0  0  0  0  0  0  0  # atno 6908 bound_to 6896
  151.0953  133.5237  159.2644 H   0  0  0  0  0  0  0  0  0  0  0  0  # atno 6909 bound_to 6896
  146.2385  139.9607  142.8459 H   0  0  0  0  0  0  0  0  0  0  0  0  # atno 7974 bound_to 7965
  156.2613  140.2845  156.1050 H   0  0  0  0  0  0  0  0  0  0  0  0  # atno 8008 bound_to 7997
  155.1319  140.0394  157.2794 H   0  0  0  0  0  0  0  0  0  0  0  0  # atno 8009 bound_to 7997
  154.6593  140.2563  155.7133 H   0  0  0  0  0  0  0  0  0  0  0  0  # atno 8010 bound_to 7997
  140.0135  144.5596  150.7639 H   0  0  0  0  0  0  0  0  0  0  0  0  # atno 10167 bound_to 10162
  156.8563  130.5571  149.5666 H   0  0  0  0  0  0  0  0  0  0  0  0  # atno 10718 bound_to 10713
  153.1007  135.6671  153.9679 H   0  0  0  0  0  0  0  0  0  0  0  0  # atno 10763 bound_to 10752
  153.9250  135.3010  155.3448 H   0  0  0  0  0  0  0  0  0  0  0  0  # atno 10764 bound_to 10752
  154.7427  135.5072  153.9226 H   0  0  0  0  0  0  0  0  0  0  0  0  # atno 10765 bound_to 10752
  141.0399  133.6784  156.2765 H   0  0  0  0  0  0  0  0  0  0  0  0  # atno 11005 bound_to 11000
  145.1773  140.9750  143.4286 LP  0  0  0  0  0  0  0  0  0  0  0  0  # atno 17320 bound_to 7965
  144.9974  139.3631  143.6185 LP  0  0  0  0  0  0  0  0  0  0  0  0  # atno 17321 bound_to 7965
  140.7372  143.2762  151.3735 LP  0  0  0  0  0  0  0  0  0  0  0  0  # atno 17342 bound_to 10162
  139.6189  144.0947  152.2372 LP  0  0  0  0  0  0  0  0  0  0  0  0  # atno 17343 bound_to 10162
  156.0801  130.5813  150.9547 LP  0  0  0  0  0  0  0  0  0  0  0  0  # atno 17370 bound_to 10713
  157.6275  131.0924  150.8505 LP  0  0  0  0  0  0  0  0  0  0  0  0  # atno 17371 bound_to 10713
  140.6253  134.5320  157.5553 LP  0  0  0  0  0  0  0  0  0  0  0  0  # atno 17394 bound_to 11000
  139.9268  134.8040  156.1045 LP  0  0  0  0  0  0  0  0  0  0  0  0  # atno 17395 bound_to 11000

$$$$
