AV-unprocessed.smi:893|AV-procd|sdf|4068|dock6
  -GOLD-   22720 1553D 1   1.00000     0.00000
 Structure written by MMmdl.
 26 27  0  0  0  0  0  0  0  0  2 V2000
  148.7917  140.5119  154.5369 C   0  0  0  0  0  0  0  0  0  0  0  0
  149.6824  141.4232  155.3964 C   0  0  0  0  0  0  0  0  0  0  0  0
  150.4404  140.6861  156.5278 C   0  0  1  0  0  0  0  0  0  0  0  0
  151.1950  141.6393  157.4384 C   0  0  0  0  0  0  0  0  0  0  0  0
  152.0036  141.3313  158.5728 C   0  0  0  0  0  0  0  0  0  0  0  0
  152.5211  142.4034  159.1499 N   0  0  0  0  0  0  0  0  0  0  0  0
  152.0684  143.4331  158.4076 N   0  0  0  0  0  0  0  0  0  0  0  0
  152.4504  144.7850  158.7545 C   0  0  0  0  0  0  0  0  0  0  0  0
  151.2664  143.0043  157.3730 C   0  0  0  0  0  0  0  0  0  0  0  0
  149.5412  139.8189  157.2632 N   0  0  0  0  0  0  0  0  0  0  0  0
  149.9112  138.5426  157.1756 C   0  0  0  0  0  0  0  0  0  0  0  0
  149.2848  137.6485  157.7396 O   0  0  0  0  0  0  0  0  0  0  0  0
  151.0137  138.4303  156.4093 N   0  5  0  0  0  0  0  0  0  0  0  0
  151.4115  139.6413  155.9613 C   0  0  0  0  0  0  0  0  0  0  0  0
  152.3538  139.9440  155.2293 O   0  0  0  0  0  0  0  0  0  0  0  0
  148.2830  141.0893  153.7648 H   0  0  0  0  0  0  0  0  0  0  0  0
  148.0263  140.0194  155.1370 H   0  0  0  0  0  0  0  0  0  0  0  0
  149.3762  139.7388  154.0379 H   0  0  0  0  0  0  0  0  0  0  0  0
  150.3961  141.9266  154.7418 H   0  0  0  0  0  0  0  0  0  0  0  0
  149.0643  142.2141  155.8238 H   0  0  0  0  0  0  0  0  0  0  0  0
  152.2286  140.3620  158.9929 H   0  0  0  0  0  0  0  0  0  0  0  0
  152.0145  145.4903  158.0465 H   0  0  0  0  0  0  0  0  0  0  0  0
  153.5364  144.8802  158.7263 H   0  0  0  0  0  0  0  0  0  0  0  0
  152.0951  145.0230  159.7575 H   0  0  0  0  0  0  0  0  0  0  0  0
  150.8174  143.6969  156.6762 H   0  0  0  0  0  0  0  0  0  0  0  0
  148.7423  140.1550  157.7803 H   0  0  0  0  0  0  0  0  0  0  0  0
  1  2  1  0  0  0  0
  1 16  1  0  0  0  0
  1 17  1  0  0  0  0
  1 18  1  0  0  0  0
  2  3  1  0  0  0  0
  2 19  1  0  0  0  0
  2 20  1  0  0  0  0
  3 14  1  0  0  0  0
  3  4  1  0  0  0  0
  3 10  1  0  0  0  0
  4  9  2  0  0  0  0
  4  5  1  0  0  0  0
  5  6  2  0  0  0  0
  5 21  1  0  0  0  0
  6  7  1  0  0  0  0
  7  8  1  0  0  0  0
  7  9  1  0  0  0  0
  8 22  1  0  0  0  0
  8 23  1  0  0  0  0
  8 24  1  0  0  0  0
  9 25  1  0  0  0  0
 10 11  1  0  0  0  0
 10 26  1  0  0  0  0
 11 12  2  0  0  0  0
 11 13  1  0  0  0  0
 13 14  1  0  0  0  0
 14 15  2  0  0  0  0
M  CHG  1  13  -1
M  END
> <s_m_source_file>
AV-unprocessed.smi

> <i_m_source_file_index>
893

> <i_lp_mmshare_version>
43012

> <i_f3d_flags>
0

> <s_epik_input>
Tz1DMVtOSF1DKD1PKVtOSF1bQ0BAXTEoW0NIMl1bQ0gzXSljMltjSF1ubihbQ0gzXSlbY0hdMg==

> <s_epik_cmdline>
J2VwaWtfcHl0aG9uJywgJy1waCcsICc3LjAnLCAnLXRuJywgJzgnLCAnLW1hJywgJzIwMCcsICctbWV0YWxfYmluZGluZycsICctaW1hZScsICc8aW5maWxlLm1hZT4nLCAnLW9tYWUnLCAnPG91dGZpbGUubWFlPic=

> <r_lp_tautomer_probability>
1

> <r_epik_Ionization_Penalty>
1.92579

> <r_epik_Ionization_Penalty_Charging>
1.92573

> <r_epik_Ionization_Penalty_Neutral>
5.85665e-05

> <r_epik_State_Penalty>
2.04887

> <r_epik_Charging_Adjusted_Penalty>
3.97461

> <i_epik_Tot_Q>
-1

> <i_epik_Tot_abs_Q>
1

> <r_epik_Metal_State_Penalty>
0.530533

> <b_epik_Metal_Only>
0

> <s_lp_Force_Field>
OPLS_2005

> <r_lp_Energy>
5.94643

> <b_lp_Chiralities_Consistent>
1

> <s_lp_Variant>
AV-unprocessed.smi:893-3

> <Gold.Version>
5.8.1

> <Gold.Id.Protein>
6NUR|6NUR_protein|mol2

> <Gold.PLP.Fitness>
35.4226

> <Gold.PLP.PLP>
-27.8823

> <Gold.PLP.part.hbond>
-2.0000

> <Gold.PLP.part.metal>
0.0000

> <Gold.PLP.part.buried>
-2.8101

> <Gold.PLP.part.nonpolar>
-23.7094

> <Gold.PLP.part.repulsive>
0.0426

> <Gold.PLP.ligand.clash>
0.0000

> <Gold.PLP.ligand.torsion>
0.0977

> <Gold.PLP.Chemscore.Hbond>
1.5369

> <Gold.PLP.Chemscore.CHOScore>
1.0000

> <Gold.PLP.Chemscore.Metal>
0.0000

> <Gold.Chemscore.Hbonds>
donor molecule, donor type, donor heavy atom, donor atom, acceptor molecule, acceptor atom, score
      P1  H  7989  7998       L1    15  0.61
      P1  H  7997  8009       L1    15  0.57
      L1  C     9    25       P1  8028  1.00

> <Gold.PLP.Chemscore.Internal.Correction>
0.1250

> <Gold.Rescore>
     Score         DG    S(hbond)    S(metal)    S(lipo)     H(rot)  DE(clash)    DE(int)     intcor
     12.90     -13.00       1.19        0.00      58.20       1.28       0.00       0.10       ----

> <Gold.Chemscore.Fitness>
12.9040

> <Gold.Chemscore.DG>
-13.0001

> <Gold.Chemscore.ZeroCoef>
-5.4800

> <Gold.Chemscore.Hbond>
1.1943

> <Gold.Chemscore.Metal>
0.0000

> <Gold.Chemscore.Lipo>
58.1992

> <Gold.Chemscore.Internal_Hbond>
0.0000

> <Gold.Chemscore.DEClash>
0.0000

> <Gold.Chemscore.DEInternal>
0.0961

> <Gold.Chemscore.Rot>
1.2805

> <Gold.Chemscore.Internal.Correction>
   9.000000E+99

> <Gold.Chemscore.Hbonds>
donor molecule, donor type, donor heavy atom, donor atom, acceptor molecule, acceptor atom, score
      P1  H  7989  7998       L1    15  0.46
      P1  H  7997  8009       L1    15  0.58

> <Gold.Chemscore.Hbond.Weighted>
-3.9889

> <Gold.Chemscore.Metal.Weighted>
-0.0000

> <Gold.Chemscore.Lipo.Weighted>
-6.8093

> <Gold.Chemscore.Internal_Hbond.Weighted>
0.0000

> <Gold.Chemscore.DEClash.Weighted>
0.0000

> <Gold.Chemscore.DEInternal.Weighted>
0.0961

> <Gold.Chemscore.Rot.Weighted>
3.2782

> <Gold.Chemscore.Internal.Correction.Weighted>
   9.000000E+99

> <Gold.Protein.RotatedTorsions>
[ 6907 6896 6895 6894 ] final  135.80 input  -60.11 | X-H torsion
[ 7974 7965 7964 7962 ] final -117.15 input  175.53 | X-H torsion
[ 8008 7997 7996 7995 ] final -138.34 input   59.86 | X-H torsion
[ 10167 10162 10161 10158 ] final -113.23 input  -65.29 | X-H torsion
[ 10718 10713 10712 10709 ] final   13.72 input   66.30 | X-H torsion
[ 10763 10752 10751 10750 ] final   18.16 input  -60.55 | X-H torsion
[ 11005 11000 10999 10996 ] final  146.13 input  -57.11 | X-H torsion

> <Gold.Protein.ActiveResidues>
 VAL166  LYS551  ARG553  GLY616  TRP617  ASP618  TYR619  PRO620  LYS621  CYS622 
 ASP623  PHE694  ASN695  SER759  ASP760  ASP761  ALA762  ILE779  LEU786  VAL792 
 PHE793  MET794  SER795  GLU796  ALA797  LYS798  CYS799  TRP800  GLU811  SER814 

> <Gold.Protein.RotatedAtoms>
  152.2964  133.5612  159.5590 H   0  0  0  0  0  0  0  0  0  0  0  0  # atno 6907 bound_to 6896
  150.7258  134.0354  159.3756 H   0  0  0  0  0  0  0  0  0  0  0  0  # atno 6908 bound_to 6896
  151.8257  135.0638  160.0481 H   0  0  0  0  0  0  0  0  0  0  0  0  # atno 6909 bound_to 6896
  145.0885  140.8474  143.3997 H   0  0  0  0  0  0  0  0  0  0  0  0  # atno 7974 bound_to 7965
  155.4267  140.0522  157.3021 H   0  0  0  0  0  0  0  0  0  0  0  0  # atno 8008 bound_to 7997
  154.4878  140.2108  155.9574 H   0  0  0  0  0  0  0  0  0  0  0  0  # atno 8009 bound_to 7997
  156.1300  140.3173  155.8339 H   0  0  0  0  0  0  0  0  0  0  0  0  # atno 8010 bound_to 7997
  140.1141  143.4501  152.1733 H   0  0  0  0  0  0  0  0  0  0  0  0  # atno 10167 bound_to 10162
  157.0287  130.6184  149.5732 H   0  0  0  0  0  0  0  0  0  0  0  0  # atno 10718 bound_to 10713
  153.1274  135.6733  153.9234 H   0  0  0  0  0  0  0  0  0  0  0  0  # atno 10763 bound_to 10752
  153.8731  135.3067  155.3444 H   0  0  0  0  0  0  0  0  0  0  0  0  # atno 10764 bound_to 10752
  154.7677  135.4955  153.9668 H   0  0  0  0  0  0  0  0  0  0  0  0  # atno 10765 bound_to 10752
  140.0768  134.9120  157.1436 H   0  0  0  0  0  0  0  0  0  0  0  0  # atno 11005 bound_to 11000
  145.1094  139.2767  143.5645 LP  0  0  0  0  0  0  0  0  0  0  0  0  # atno 17320 bound_to 7965
  146.3531  140.0685  142.8625 LP  0  0  0  0  0  0  0  0  0  0  0  0  # atno 17321 bound_to 7965
  139.5603  144.7401  151.4174 LP  0  0  0  0  0  0  0  0  0  0  0  0  # atno 17342 bound_to 10162
  140.6909  143.7864  150.7254 LP  0  0  0  0  0  0  0  0  0  0  0  0  # atno 17343 bound_to 10162
  156.0077  130.5165  150.7885 LP  0  0  0  0  0  0  0  0  0  0  0  0  # atno 17370 bound_to 10713
  157.5194  131.0930  151.0098 LP  0  0  0  0  0  0  0  0  0  0  0  0  # atno 17371 bound_to 10713
  140.3546  134.2561  155.7194 LP  0  0  0  0  0  0  0  0  0  0  0  0  # atno 17394 bound_to 11000
  141.2032  133.7917  157.0350 LP  0  0  0  0  0  0  0  0  0  0  0  0  # atno 17395 bound_to 11000

$$$$
