AV-unprocessed.smi:196|AV-procd|sdf|1541|dock1
  -GOLD-   2262019403D 1   1.00000     0.00000
 Structure written by MMmdl.
 47 50  0  0  0  0  0  0  0  0  1 V2000
  153.2624  138.7735  155.4378 C   0  0  0  0  0  0  0  0  0  0  0  0
  151.7294  138.8574  155.5221 C   0  0  1  0  0  0  0  0  0  0  0  0
  151.2633  140.0819  154.9739 O   0  0  0  0  0  0  0  0  0  0  0  0
  149.8776  139.9242  154.7291 C   0  0  0  0  0  0  0  0  0  0  0  0
  149.8041  138.5410  154.0939 C   0  0  0  0  0  0  0  0  0  0  0  0
  150.9191  137.7542  154.7901 C   0  0  1  0  0  0  0  0  0  0  0  0
  151.6916  137.1085  153.7911 O   0  0  0  0  0  0  0  0  0  0  0  0
  150.3587  136.6712  155.7450 C   0  0  0  0  0  0  0  0  0  0  0  0
  149.5463  135.6681  155.0729 N   0  0  0  0  0  0  0  0  0  0  0  0
  149.9823  134.4784  154.5357 C   0  0  0  0  0  0  0  0  0  0  0  0
  149.0553  133.7436  153.9858 N   0  0  0  0  0  0  0  0  0  0  0  0
  147.8888  134.4823  154.1500 C   0  0  0  0  0  0  0  0  0  0  0  0
  146.5244  134.2824  153.7891 C   0  0  0  0  0  0  0  0  0  0  0  0
  146.0751  133.1706  153.1465 N   0  0  0  0  0  0  0  0  0  0  0  0
  144.8085  133.2284  152.4247 C   0  0  0  0  0  0  0  0  0  0  0  0
  144.9767  132.3037  151.2191 C   0  0  1  0  0  0  0  0  0  0  0  0
  145.4275  133.0076  150.1791 F   0  0  0  0  0  0  0  0  0  0  0  0
  146.0543  131.3247  151.6745 C   0  0  0  0  0  0  0  0  0  0  0  0
  146.9811  132.1824  152.5511 C   0  0  2  0  0  0  0  0  0  0  0  0
  147.7046  131.3245  153.6018 C   0  0  0  0  0  0  0  0  0  0  0  0
  148.5277  130.3794  153.1423 N   0  0  0  0  0  0  0  0  0  0  0  0
  147.5167  131.5002  154.8047 O   0  0  0  0  0  0  0  0  0  0  0  0
  145.6471  135.2713  154.1077 N   0  0  0  0  0  0  0  0  0  0  0  0
  146.0637  136.3712  154.7407 C   0  0  0  0  0  0  0  0  0  0  0  0
  147.2958  136.6855  155.1421 N   0  0  0  0  0  0  0  0  0  0  0  0
  148.1853  135.7030  154.8217 C   0  0  0  0  0  0  0  0  0  0  0  0
  144.0490  131.8198  150.9125 H   0  0  0  0  0  0  0  0  0  0  0  0
  147.7053  132.6947  151.9145 H   0  0  0  0  0  0  0  0  0  0  0  0
  153.6278  137.8295  155.8427 H   0  0  0  0  0  0  0  0  0  0  0  0
  153.7240  139.5784  156.0097 H   0  0  0  0  0  0  0  0  0  0  0  0
  153.6134  138.8595  154.4093 H   0  0  0  0  0  0  0  0  0  0  0  0
  151.4437  138.8764  156.5745 H   0  0  0  0  0  0  0  0  0  0  0  0
  149.3295  139.9528  155.6724 H   0  0  0  0  0  0  0  0  0  0  0  0
  149.4897  140.7085  154.0789 H   0  0  0  0  0  0  0  0  0  0  0  0
  148.8175  138.0892  154.2042 H   0  0  0  0  0  0  0  0  0  0  0  0
  149.9995  138.6363  153.0242 H   0  0  0  0  0  0  0  0  0  0  0  0
  151.1058  136.7673  153.1328 H   0  0  0  0  0  0  0  0  0  0  0  0
  151.1786  136.1621  156.2531 H   0  0  0  0  0  0  0  0  0  0  0  0
  149.7552  137.1296  156.5298 H   0  0  0  0  0  0  0  0  0  0  0  0
  151.0161  134.1671  154.5690 H   0  0  0  0  0  0  0  0  0  0  0  0
  144.0212  132.8566  153.0814 H   0  0  0  0  0  0  0  0  0  0  0  0
  144.5400  134.2392  152.1129 H   0  0  0  0  0  0  0  0  0  0  0  0
  145.5897  130.5290  152.2599 H   0  0  0  0  0  0  0  0  0  0  0  0
  146.5774  130.8588  150.8388 H   0  0  0  0  0  0  0  0  0  0  0  0
  149.0230  129.7833  153.7894 H   0  0  0  0  0  0  0  0  0  0  0  0
  148.6462  130.2607  152.1467 H   0  0  0  0  0  0  0  0  0  0  0  0
  145.3000  137.1034  154.9573 H   0  0  0  0  0  0  0  0  0  0  0  0
  1  2  1  0  0  0  0
  1 29  1  0  0  0  0
  1 30  1  0  0  0  0
  1 31  1  0  0  0  0
  2  6  1  0  0  0  0
  2  3  1  0  0  0  0
  2 32  1  0  0  0  0
  3  4  1  0  0  0  0
  4  5  1  0  0  0  0
  4 33  1  0  0  0  0
  4 34  1  0  0  0  0
  5  6  1  0  0  0  0
  5 35  1  0  0  0  0
  5 36  1  0  0  0  0
  6  7  1  0  0  0  0
  6  8  1  0  0  0  0
  7 37  1  0  0  0  0
  8  9  1  0  0  0  0
  8 38  1  0  0  0  0
  8 39  1  0  0  0  0
  9 26  1  0  0  0  0
  9 10  1  0  0  0  0
 10 11  2  0  0  0  0
 10 40  1  0  0  0  0
 11 12  1  0  0  0  0
 12 26  2  0  0  0  0
 12 13  1  0  0  0  0
 13 14  1  0  0  0  0
 13 23  2  0  0  0  0
 14 19  1  0  0  0  0
 14 15  1  0  0  0  0
 15 16  1  0  0  0  0
 15 41  1  0  0  0  0
 15 42  1  0  0  0  0
 16 27  1  0  0  0  0
 16 17  1  0  0  0  0
 16 18  1  0  0  0  0
 18 19  1  0  0  0  0
 18 43  1  0  0  0  0
 18 44  1  0  0  0  0
 19 28  1  0  0  0  0
 19 20  1  0  0  0  0
 20 21  1  0  0  0  0
 20 22  2  0  0  0  0
 21 45  1  0  0  0  0
 21 46  1  0  0  0  0
 23 24  1  0  0  0  0
 24 25  2  0  0  0  0
 24 47  1  0  0  0  0
 25 26  1  0  0  0  0
M  END
> <s_m_source_file>
AV-unprocessed.smi

> <i_m_source_file_index>
196

> <i_lp_mmshare_version>
43012

> <i_f3d_flags>
0

> <s_epik_input>
W0NIMl0xW0NIMl1PW0NAQEhdKFtDSDNdKVtDQEBdMShbT0hdKVtDSDJdbihbY0hdbjIpYyhjMjMpbltjSF1uYzNONFtDSDJdW0NASF0oRilbQ0gyXVtDQEhdNEMoPU8pW05IMl0=

> <s_epik_cmdline>
J2VwaWtfcHl0aG9uJywgJy1waCcsICc3LjAnLCAnLXRuJywgJzgnLCAnLW1hJywgJzIwMCcsICctbWV0YWxfYmluZGluZycsICctaW1hZScsICc8aW5maWxlLm1hZT4nLCAnLW9tYWUnLCAnPG91dGZpbGUubWFlPic=

> <r_lp_tautomer_probability>
1

> <r_epik_Ionization_Penalty>
0.000857933

> <r_epik_Ionization_Penalty_Charging>
0

> <r_epik_Ionization_Penalty_Neutral>
0.000857933

> <r_epik_State_Penalty>
0.000462053

> <r_epik_Charging_Adjusted_Penalty>
0.000462053

> <i_epik_Tot_Q>
0

> <i_epik_Tot_abs_Q>
0

> <r_epik_Metal_State_Penalty>
-0

> <b_epik_Metal_Only>
0

> <s_lp_Force_Field>
OPLS_2005

> <r_lp_Energy>
42.8122

> <b_lp_Chiralities_Consistent>
1

> <s_lp_Variant>
AV-unprocessed.smi:196-14

> <Gold.Version>
5.8.1

> <Gold.Id.Protein>
6NUR|6NUR_protein|mol2

> <Gold.PLP.Fitness>
44.4254

> <Gold.PLP.PLP>
-33.7748

> <Gold.PLP.part.hbond>
-4.0000

> <Gold.PLP.part.metal>
0.0000

> <Gold.PLP.part.buried>
-0.5322

> <Gold.PLP.part.nonpolar>
-29.3674

> <Gold.PLP.part.repulsive>
0.3955

> <Gold.PLP.ligand.clash>
0.0000

> <Gold.PLP.ligand.torsion>
0.5074

> <Gold.PLP.Chemscore.Hbond>
3.7840

> <Gold.PLP.Chemscore.CHOScore>
0.0000

> <Gold.PLP.Chemscore.Metal>
0.0000

> <Gold.Chemscore.Hbonds>
donor molecule, donor type, donor heavy atom, donor atom, acceptor molecule, acceptor atom, score
      L1  H     7    37       P1  7949  0.80
      L1  H    21    46       P1 10747  1.00
      P1  H  7989  7998       L1     3  0.85
      P1  H 10752 10765       L1     7  1.00

> <Gold.PLP.Chemscore.Internal.Correction>
0.3134

> <Gold.Rescore>
     Score         DG    S(hbond)    S(metal)    S(lipo)     H(rot)  DE(clash)    DE(int)     intcor
      9.32     -14.69       2.26        0.00      71.13       2.60       0.92       4.44       ----

> <Gold.Chemscore.Fitness>
9.3201

> <Gold.Chemscore.DG>
-14.6883

> <Gold.Chemscore.ZeroCoef>
-5.4800

> <Gold.Chemscore.Hbond>
2.2555

> <Gold.Chemscore.Metal>
0.0000

> <Gold.Chemscore.Lipo>
71.1347

> <Gold.Chemscore.Internal_Hbond>
0.0000

> <Gold.Chemscore.DEClash>
0.9234

> <Gold.Chemscore.DEInternal>
4.4448

> <Gold.Chemscore.Rot>
2.5968

> <Gold.Chemscore.Internal.Correction>
   9.000000E+99

> <Gold.Chemscore.Hbonds>
donor molecule, donor type, donor heavy atom, donor atom, acceptor molecule, acceptor atom, score
      L1  H     7    37       P1  7949  0.32
      L1  H    21    46       P1 10747  0.49
      P1  H  7989  7998       L1     3  0.15
      P1  H 10752 10765       L1     7  0.38

> <Gold.Chemscore.Hbond.Weighted>
-7.5333

> <Gold.Chemscore.Metal.Weighted>
-0.0000

> <Gold.Chemscore.Lipo.Weighted>
-8.3228

> <Gold.Chemscore.Internal_Hbond.Weighted>
0.0000

> <Gold.Chemscore.DEClash.Weighted>
0.9234

> <Gold.Chemscore.DEInternal.Weighted>
4.4448

> <Gold.Chemscore.Rot.Weighted>
6.6477

> <Gold.Chemscore.Internal.Correction.Weighted>
   9.000000E+99

> <Gold.Protein.RotatedTorsions>
[ 6907 6896 6895 6894 ] final  166.95 input  -60.11 | X-H torsion
[ 7974 7965 7964 7962 ] final   58.37 input  175.53 | X-H torsion
[ 8008 7997 7996 7995 ] final  -38.27 input   59.86 | X-H torsion
[ 10167 10162 10161 10158 ] final   76.00 input  -65.29 | X-H torsion
[ 10718 10713 10712 10709 ] final  148.78 input   66.30 | X-H torsion
[ 10763 10752 10751 10750 ] final  135.92 input  -60.55 | X-H torsion
[ 11005 11000 10999 10996 ] final -151.72 input  -57.11 | X-H torsion

> <Gold.Protein.ActiveResidues>
 VAL166  LYS551  ARG553  GLY616  TRP617  ASP618  TYR619  PRO620  LYS621  CYS622 
 ASP623  PHE694  ASN695  SER759  ASP760  ASP761  ALA762  ILE779  LEU786  VAL792 
 PHE793  MET794  SER795  GLU796  ALA797  LYS798  CYS799  TRP800  GLU811  SER814 

> <Gold.Protein.RotatedAtoms>
  151.8710  133.3475  159.3734 H   0  0  0  0  0  0  0  0  0  0  0  0  # atno 6907 bound_to 6896
  150.7153  134.5113  159.5618 H   0  0  0  0  0  0  0  0  0  0  0  0  # atno 6908 bound_to 6896
  152.2646  134.7999  160.0476 H   0  0  0  0  0  0  0  0  0  0  0  0  # atno 6909 bound_to 6896
  145.9189  139.3713  143.0490 H   0  0  0  0  0  0  0  0  0  0  0  0  # atno 7974 bound_to 7965
  154.4039  140.1582  156.2673 H   0  0  0  0  0  0  0  0  0  0  0  0  # atno 8008 bound_to 7997
  155.8984  140.3434  155.5986 H   0  0  0  0  0  0  0  0  0  0  0  0  # atno 8009 bound_to 7997
  155.7477  140.0801  157.2206 H   0  0  0  0  0  0  0  0  0  0  0  0  # atno 8010 bound_to 7997
  139.9969  144.5715  150.7770 H   0  0  0  0  0  0  0  0  0  0  0  0  # atno 10167 bound_to 10162
  157.3043  131.0876  151.1366 H   0  0  0  0  0  0  0  0  0  0  0  0  # atno 10718 bound_to 10713
  153.8480  135.3083  155.3430 H   0  0  0  0  0  0  0  0  0  0  0  0  # atno 10763 bound_to 10752
  154.7904  135.4786  154.0042 H   0  0  0  0  0  0  0  0  0  0  0  0  # atno 10764 bound_to 10752
  153.1535  135.6847  153.8939 H   0  0  0  0  0  0  0  0  0  0  0  0  # atno 10765 bound_to 10752
  140.7266  134.3668  157.5174 H   0  0  0  0  0  0  0  0  0  0  0  0  # atno 11005 bound_to 11000
  145.8576  140.9493  143.0717 LP  0  0  0  0  0  0  0  0  0  0  0  0  # atno 17320 bound_to 7965
  144.6751  140.0488  143.7479 LP  0  0  0  0  0  0  0  0  0  0  0  0  # atno 17321 bound_to 7965
  140.7433  143.2845  151.3503 LP  0  0  0  0  0  0  0  0  0  0  0  0  # atno 17342 bound_to 10162
  139.6299  144.0740  152.2467 LP  0  0  0  0  0  0  0  0  0  0  0  0  # atno 17343 bound_to 10162
  157.2712  130.6705  149.6020 LP  0  0  0  0  0  0  0  0  0  0  0  0  # atno 17370 bound_to 10713
  155.9673  130.4478  150.5596 LP  0  0  0  0  0  0  0  0  0  0  0  0  # atno 17371 bound_to 10713
  139.8836  134.8990  156.2758 LP  0  0  0  0  0  0  0  0  0  0  0  0  # atno 17394 bound_to 11000
  140.9957  133.7181  156.0883 LP  0  0  0  0  0  0  0  0  0  0  0  0  # atno 17395 bound_to 11000

$$$$
