AV-unprocessed.smi:434|AV-procd|sdf|2555|dock3
  -GOLD-   2262022523D 1   1.00000     0.00000
 Structure written by MMmdl.
 40 42  0  0  0  0  0  0  0  0  2 V2000
  149.6208  141.4362  155.0826 C   0  0  0  0  0  0  0  0  0  0  0  0
  150.5097  141.8494  156.2072 C   0  0  0  0  0  0  0  0  0  0  0  0
  150.7193  143.1258  156.6359 N   0  3  0  0  0  0  0  0  0  0  0  0
  151.6112  143.1229  157.7091 C   0  0  0  0  0  0  0  0  0  0  0  0
  152.1242  144.1697  158.4688 C   0  0  0  0  0  0  0  0  0  0  0  0
  153.0248  143.8234  159.4974 C   0  0  0  0  0  0  0  0  0  0  0  0
  153.3831  142.4810  159.7376 C   0  0  0  0  0  0  0  0  0  0  0  0
  152.8548  141.4281  158.9619 C   0  0  0  0  0  0  0  0  0  0  0  0
  151.9638  141.7783  157.9472 C   0  0  0  0  0  0  0  0  0  0  0  0
  151.2582  141.0285  156.9978 N   0  0  0  0  0  0  0  0  0  0  0  0
  151.3991  139.5634  156.9690 C   0  0  0  0  0  0  0  0  0  0  0  0
  151.3895  138.9878  155.5386 C   0  0  1  0  0  0  0  0  0  0  0  0
  152.2994  139.7135  154.7364 O   0  0  0  0  0  0  0  0  0  0  0  0
  151.7978  137.5069  155.5137 C   0  0  0  0  0  0  0  0  0  0  0  0
  150.7823  136.7409  156.1399 O   0  0  0  0  0  0  0  0  0  0  0  0
  151.2369  135.4650  156.5563 C   0  0  0  0  0  0  0  0  0  0  0  0
  150.5059  134.4635  155.7284 C   0  0  0  0  0  0  0  0  0  0  0  0
  150.5449  133.0987  155.6513 C   0  0  0  0  0  0  0  0  0  0  0  0
  149.5935  132.7258  154.6620 C   0  0  0  0  0  0  0  0  0  0  0  0
  149.0448  133.8917  154.2092 C   0  0  0  0  0  0  0  0  0  0  0  0
  149.5903  134.9615  154.8500 O   0  0  0  0  0  0  0  0  0  0  0  0
  149.2259  142.3105  154.5646 H   0  0  0  0  0  0  0  0  0  0  0  0
  148.7838  140.8501  155.4623 H   0  0  0  0  0  0  0  0  0  0  0  0
  150.1746  140.8303  154.3656 H   0  0  0  0  0  0  0  0  0  0  0  0
  151.8534  145.1988  158.2843 H   0  0  0  0  0  0  0  0  0  0  0  0
  153.4505  144.6028  160.1129 H   0  0  0  0  0  0  0  0  0  0  0  0
  154.0792  142.2537  160.5320 H   0  0  0  0  0  0  0  0  0  0  0  0
  153.1426  140.4046  159.1509 H   0  0  0  0  0  0  0  0  0  0  0  0
  152.3018  139.2747  157.5079 H   0  0  0  0  0  0  0  0  0  0  0  0
  150.5648  139.1523  157.5388 H   0  0  0  0  0  0  0  0  0  0  0  0
  150.3881  139.0959  155.1196 H   0  0  0  0  0  0  0  0  0  0  0  0
  152.8265  140.2566  155.3029 H   0  0  0  0  0  0  0  0  0  0  0  0
  151.9855  137.1654  154.4939 H   0  0  0  0  0  0  0  0  0  0  0  0
  152.7232  137.3711  156.0758 H   0  0  0  0  0  0  0  0  0  0  0  0
  152.3138  135.3710  156.4075 H   0  0  0  0  0  0  0  0  0  0  0  0
  151.0264  135.3073  157.6150 H   0  0  0  0  0  0  0  0  0  0  0  0
  151.1791  132.4493  156.2363 H   0  0  0  0  0  0  0  0  0  0  0  0
  149.3420  131.7311  154.3247 H   0  0  0  0  0  0  0  0  0  0  0  0
  148.2918  134.1301  153.4725 H   0  0  0  0  0  0  0  0  0  0  0  0
  150.2829  143.9393  156.2211 H   0  0  0  0  0  0  0  0  0  0  0  0
  1  2  1  0  0  0  0
  1 22  1  0  0  0  0
  1 23  1  0  0  0  0
  1 24  1  0  0  0  0
  2 10  1  0  0  0  0
  2  3  2  0  0  0  0
  3  4  1  0  0  0  0
  3 40  1  0  0  0  0
  4  9  2  0  0  0  0
  4  5  1  0  0  0  0
  5  6  2  0  0  0  0
  5 25  1  0  0  0  0
  6  7  1  0  0  0  0
  6 26  1  0  0  0  0
  7  8  2  0  0  0  0
  7 27  1  0  0  0  0
  8  9  1  0  0  0  0
  8 28  1  0  0  0  0
  9 10  1  0  0  0  0
 10 11  1  0  0  0  0
 11 12  1  0  0  0  0
 11 29  1  0  0  0  0
 11 30  1  0  0  0  0
 12 13  1  0  0  0  0
 12 14  1  0  0  0  0
 12 31  1  0  0  0  0
 13 32  1  0  0  0  0
 14 15  1  0  0  0  0
 14 33  1  0  0  0  0
 14 34  1  0  0  0  0
 15 16  1  0  0  0  0
 16 17  1  0  0  0  0
 16 35  1  0  0  0  0
 16 36  1  0  0  0  0
 17 21  1  0  0  0  0
 17 18  2  0  0  0  0
 18 19  1  0  0  0  0
 18 37  1  0  0  0  0
 19 20  2  0  0  0  0
 19 38  1  0  0  0  0
 20 21  1  0  0  0  0
 20 39  1  0  0  0  0
M  CHG  1   3   1
M  END
> <s_m_source_file>
AV-unprocessed.smi

> <i_m_source_file_index>
434

> <i_lp_mmshare_version>
43012

> <i_f3d_flags>
0

> <s_epik_input>
W2NIXTFbY0hdW2NIXVtjSF1jKGMxMiluKGMobjIpW0NIM10pW0NIMl1bQ0BIXShbT0hdKVtDSDJdT1tDSDJdYzNbY0hdW2NIXVtjSF1vMw==

> <s_epik_cmdline>
J2VwaWtfcHl0aG9uJywgJy1waCcsICc3LjAnLCAnLXRuJywgJzgnLCAnLW1hJywgJzIwMCcsICctbWV0YWxfYmluZGluZycsICctaW1hZScsICc8aW5maWxlLm1hZT4nLCAnLW9tYWUnLCAnPG91dGZpbGUubWFlPic=

> <r_epik_Ionization_Penalty>
0.976413

> <r_epik_Ionization_Penalty_Charging>
0.976412

> <r_epik_Ionization_Penalty_Neutral>
9.34185e-07

> <r_epik_State_Penalty>
1.02286

> <r_epik_Charging_Adjusted_Penalty>
1.99927

> <i_epik_Tot_Q>
1

> <i_epik_Tot_abs_Q>
1

> <r_epik_Metal_State_Penalty>
4.99966

> <b_epik_Metal_Only>
0

> <s_lp_Force_Field>
OPLS_2005

> <r_lp_Energy>
13.0994

> <b_lp_Chiralities_Consistent>
1

> <s_lp_Variant>
AV-unprocessed.smi:434-4

> <Gold.Version>
5.8.1

> <Gold.Id.Protein>
6NUR|6NUR_protein|mol2

> <Gold.PLP.Fitness>
53.6609

> <Gold.PLP.PLP>
-45.1244

> <Gold.PLP.part.hbond>
-2.0000

> <Gold.PLP.part.metal>
0.0000

> <Gold.PLP.part.buried>
-5.4218

> <Gold.PLP.part.nonpolar>
-38.5247

> <Gold.PLP.part.repulsive>
0.2564

> <Gold.PLP.ligand.clash>
0.0000

> <Gold.PLP.ligand.torsion>
0.8785

> <Gold.PLP.Chemscore.Hbond>
2.7040

> <Gold.PLP.Chemscore.CHOScore>
0.7034

> <Gold.PLP.Chemscore.Metal>
0.0000

> <Gold.Chemscore.Hbonds>
donor molecule, donor type, donor heavy atom, donor atom, acceptor molecule, acceptor atom, score
      L1  H     3    40       P1  8028  2.00
      P1  H  7989  7998       L1    13  0.72
      L1  C    20    39       P1  7948  0.40

> <Gold.PLP.Chemscore.Internal.Correction>
0.0713

> <Gold.Rescore>
     Score         DG    S(hbond)    S(metal)    S(lipo)     H(rot)  DE(clash)    DE(int)     intcor
     17.47     -18.28       1.78        0.00     112.30       2.45       0.01       0.80       ----

> <Gold.Chemscore.Fitness>
17.4682

> <Gold.Chemscore.DG>
-18.2801

> <Gold.Chemscore.ZeroCoef>
-5.4800

> <Gold.Chemscore.Hbond>
1.7797

> <Gold.Chemscore.Metal>
0.0000

> <Gold.Chemscore.Lipo>
112.2956

> <Gold.Chemscore.Internal_Hbond>
0.0000

> <Gold.Chemscore.DEClash>
0.0110

> <Gold.Chemscore.DEInternal>
0.8009

> <Gold.Chemscore.Rot>
2.4543

> <Gold.Chemscore.Internal.Correction>
   9.000000E+99

> <Gold.Chemscore.Hbonds>
donor molecule, donor type, donor heavy atom, donor atom, acceptor molecule, acceptor atom, score
      L1  H     3    40       P1  8028  0.95
      P1  H  7989  7998       L1    13  0.31

> <Gold.Chemscore.Hbond.Weighted>
-5.9444

> <Gold.Chemscore.Metal.Weighted>
-0.0000

> <Gold.Chemscore.Lipo.Weighted>
-13.1386

> <Gold.Chemscore.Internal_Hbond.Weighted>
0.0000

> <Gold.Chemscore.DEClash.Weighted>
0.0110

> <Gold.Chemscore.DEInternal.Weighted>
0.8009

> <Gold.Chemscore.Rot.Weighted>
6.2829

> <Gold.Chemscore.Internal.Correction.Weighted>
   9.000000E+99

> <Gold.Protein.RotatedTorsions>
[ 6907 6896 6895 6894 ] final  160.56 input  -60.11 | X-H torsion
[ 7974 7965 7964 7962 ] final   92.64 input  175.53 | X-H torsion
[ 8008 7997 7996 7995 ] final -104.22 input   59.86 | X-H torsion
[ 10167 10162 10161 10158 ] final  116.74 input  -65.29 | X-H torsion
[ 10718 10713 10712 10709 ] final -170.11 input   66.30 | X-H torsion
[ 10763 10752 10751 10750 ] final  131.16 input  -60.55 | X-H torsion
[ 11005 11000 10999 10996 ] final   16.73 input  -57.11 | X-H torsion

> <Gold.Protein.ActiveResidues>
 VAL166  LYS551  ARG553  GLY616  TRP617  ASP618  TYR619  PRO620  LYS621  CYS622 
 ASP623  PHE694  ASN695  SER759  ASP760  ASP761  ALA762  ILE779  LEU786  VAL792 
 PHE793  MET794  SER795  GLU796  ALA797  LYS798  CYS799  TRP800  GLU811  SER814 

> <Gold.Protein.RotatedAtoms>
  151.9688  133.3719  159.4062 H   0  0  0  0  0  0  0  0  0  0  0  0  # atno 6907 bound_to 6896
  150.6952  134.4162  159.5193 H   0  0  0  0  0  0  0  0  0  0  0  0  # atno 6908 bound_to 6896
  152.1863  134.8711  160.0572 H   0  0  0  0  0  0  0  0  0  0  0  0  # atno 6909 bound_to 6896
  145.4896  139.2277  143.2837 H   0  0  0  0  0  0  0  0  0  0  0  0  # atno 7974 bound_to 7965
  154.8822  140.0419  157.1789 H   0  0  0  0  0  0  0  0  0  0  0  0  # atno 8008 bound_to 7997
  154.8627  140.2946  155.5508 H   0  0  0  0  0  0  0  0  0  0  0  0  # atno 8009 bound_to 7997
  156.2998  140.2444  156.3604 H   0  0  0  0  0  0  0  0  0  0  0  0  # atno 8010 bound_to 7997
  139.6226  144.7103  151.2601 H   0  0  0  0  0  0  0  0  0  0  0  0  # atno 10167 bound_to 10162
  156.7213  130.9271  151.3097 H   0  0  0  0  0  0  0  0  0  0  0  0  # atno 10718 bound_to 10713
  153.7698  135.3183  155.3350 H   0  0  0  0  0  0  0  0  0  0  0  0  # atno 10763 bound_to 10752
  154.8200  135.4610  154.0755 H   0  0  0  0  0  0  0  0  0  0  0  0  # atno 10764 bound_to 10752
  153.2011  135.6922  153.8314 H   0  0  0  0  0  0  0  0  0  0  0  0  # atno 10765 bound_to 10752
  140.4439  134.1294  155.7694 H   0  0  0  0  0  0  0  0  0  0  0  0  # atno 11005 bound_to 11000
  146.2292  140.5689  142.8983 LP  0  0  0  0  0  0  0  0  0  0  0  0  # atno 17320 bound_to 7965
  144.7841  140.5901  143.6585 LP  0  0  0  0  0  0  0  0  0  0  0  0  # atno 17321 bound_to 7965
  140.7391  143.6627  150.8150 LP  0  0  0  0  0  0  0  0  0  0  0  0  # atno 17342 bound_to 10162
  140.0240  143.5513  152.2788 LP  0  0  0  0  0  0  0  0  0  0  0  0  # atno 17343 bound_to 10162
  157.6897  130.9221  150.0480 LP  0  0  0  0  0  0  0  0  0  0  0  0  # atno 17370 bound_to 10713
  156.1592  130.3643  149.9324 LP  0  0  0  0  0  0  0  0  0  0  0  0  # atno 17371 bound_to 10713
  141.1694  133.8639  157.1618 LP  0  0  0  0  0  0  0  0  0  0  0  0  # atno 17394 bound_to 11000
  140.0052  135.0011  157.0276 LP  0  0  0  0  0  0  0  0  0  0  0  0  # atno 17395 bound_to 11000

$$$$
