AV-unprocessed.smi:2889|AV-procd|sdf|11111|dock4
  -GOLD-   2272015573D 1   1.00000     0.00000
 Structure written by MMmdl.
 36 37  0  0  0  0  0  0  0  0  1 V2000
  153.2402  143.7244  163.3856 C   0  0  0  0  0  0  0  0  0  0  0  0
  153.6894  142.7195  161.9440 S   0  0  0  0  0  0  0  0  0  0  0  0
  152.3696  143.1661  160.7705 C   0  0  1  0  0  0  0  0  0  0  0  0
  152.4418  144.6748  160.4679 C   0  0  0  0  0  0  0  0  0  0  0  0
  151.3783  145.1080  159.4477 C   0  0  0  0  0  0  0  0  0  0  0  0
  151.5009  144.2987  158.1492 C   0  0  0  0  0  0  0  0  0  0  0  0
  151.4086  142.7923  158.4304 C   0  0  0  0  0  0  0  0  0  0  0  0
  152.4588  142.3414  159.4640 C   0  0  2  0  0  0  0  0  0  0  0  0
  152.2649  140.9177  159.7453 N   0  0  0  0  0  0  0  0  0  0  0  0
  153.2200  139.7641  158.8897 S   0  0  0  0  0  0  0  0  0  0  0  0
  154.6347  140.0543  159.1718 O   0  0  0  0  0  0  0  0  0  0  0  0
  152.6585  138.4383  159.1897 O   0  0  0  0  0  0  0  0  0  0  0  0
  152.8560  140.1840  157.1305 C   0  0  0  0  0  0  0  0  0  0  0  0
  153.3106  139.0704  156.2279 C   0  0  0  0  0  0  0  0  0  0  0  0
  152.5283  138.2591  155.3596 C   0  0  0  0  0  0  0  0  0  0  0  0
  153.4459  137.4251  154.7890 C   0  0  0  0  0  0  0  0  0  0  0  0
  154.6883  137.6890  155.2656 O   0  0  0  0  0  0  0  0  0  0  0  0
  154.5915  138.7397  156.1849 N   0  0  0  0  0  0  0  0  0  0  0  0
  153.9801  143.5926  164.1748 H   0  0  0  0  0  0  0  0  0  0  0  0
  152.2675  143.4322  163.7795 H   0  0  0  0  0  0  0  0  0  0  0  0
  153.2066  144.7808  163.1194 H   0  0  0  0  0  0  0  0  0  0  0  0
  151.4108  142.9708  161.2529 H   0  0  0  0  0  0  0  0  0  0  0  0
  152.3175  145.2451  161.3889 H   0  0  0  0  0  0  0  0  0  0  0  0
  153.4316  144.9245  160.0831 H   0  0  0  0  0  0  0  0  0  0  0  0
  150.3836  144.9719  159.8736 H   0  0  0  0  0  0  0  0  0  0  0  0
  151.4808  146.1721  159.2334 H   0  0  0  0  0  0  0  0  0  0  0  0
  150.7188  144.5958  157.4499 H   0  0  0  0  0  0  0  0  0  0  0  0
  152.4518  144.5232  157.6646 H   0  0  0  0  0  0  0  0  0  0  0  0
  150.4078  142.5558  158.7948 H   0  0  0  0  0  0  0  0  0  0  0  0
  151.5357  142.2373  157.5000 H   0  0  0  0  0  0  0  0  0  0  0  0
  153.4536  142.4841  159.0388 H   0  0  0  0  0  0  0  0  0  0  0  0
  152.2937  140.7408  160.7490 H   0  0  0  0  0  0  0  0  0  0  0  0
  151.7801  140.3389  157.0433 H   0  0  0  0  0  0  0  0  0  0  0  0
  153.3436  141.1269  156.8848 H   0  0  0  0  0  0  0  0  0  0  0  0
  151.4641  138.2894  155.1792 H   0  0  0  0  0  0  0  0  0  0  0  0
  153.3753  136.6287  154.0629 H   0  0  0  0  0  0  0  0  0  0  0  0
  1  2  1  0  0  0  0
  1 19  1  0  0  0  0
  1 20  1  0  0  0  0
  1 21  1  0  0  0  0
  2  3  1  0  0  0  0
  3  8  1  0  0  0  0
  3  4  1  0  0  0  0
  3 22  1  0  0  0  0
  4  5  1  0  0  0  0
  4 23  1  0  0  0  0
  4 24  1  0  0  0  0
  5  6  1  0  0  0  0
  5 25  1  0  0  0  0
  5 26  1  0  0  0  0
  6  7  1  0  0  0  0
  6 27  1  0  0  0  0
  6 28  1  0  0  0  0
  7  8  1  0  0  0  0
  7 29  1  0  0  0  0
  7 30  1  0  0  0  0
  8  9  1  0  0  0  0
  8 31  1  0  0  0  0
  9 10  1  0  0  0  0
  9 32  1  0  0  0  0
 10 11  2  0  0  0  0
 10 12  2  0  0  0  0
 10 13  1  0  0  0  0
 13 14  1  0  0  0  0
 13 33  1  0  0  0  0
 13 34  1  0  0  0  0
 14 18  2  0  0  0  0
 14 15  1  0  0  0  0
 15 16  2  0  0  0  0
 15 35  1  0  0  0  0
 16 17  1  0  0  0  0
 16 36  1  0  0  0  0
 17 18  1  0  0  0  0
M  END
> <s_m_source_file>
AV-unprocessed.smi

> <i_m_source_file_index>
2889

> <i_lp_mmshare_version>
43012

> <i_f3d_flags>
0

> <s_epik_input>
W0NIM11TW0NAQEhdMVtDSDJdW0NIMl1bQ0gyXVtDSDJdW0NASF0xW05IXVMoPU8pKD1PKVtDSDJdYzJbY0hdW2NIXW9uMg==

> <s_epik_cmdline>
J2VwaWtfcHl0aG9uJywgJy1waCcsICc3LjAnLCAnLXRuJywgJzgnLCAnLW1hJywgJzIwMCcsICctbWV0YWxfYmluZGluZycsICctaW1hZScsICc8aW5maWxlLm1hZT4nLCAnLW9tYWUnLCAnPG91dGZpbGUubWFlPic=

> <r_lp_tautomer_probability>
1

> <r_epik_Ionization_Penalty>
0.000229547

> <r_epik_Ionization_Penalty_Charging>
0

> <r_epik_Ionization_Penalty_Neutral>
0.000229547

> <r_epik_State_Penalty>
-0

> <r_epik_Charging_Adjusted_Penalty>
0

> <i_epik_Tot_Q>
0

> <i_epik_Tot_abs_Q>
0

> <r_epik_Metal_State_Penalty>
0.145979

> <b_epik_Metal_Only>
0

> <s_lp_Force_Field>
OPLS_2005

> <r_lp_Energy>
3.91212

> <b_lp_Chiralities_Consistent>
1

> <s_lp_Variant>
AV-unprocessed.smi:2889-4

> <Gold.Version>
5.8.1

> <Gold.Id.Protein>
6NUR|6NUR_protein|mol2

> <Gold.PLP.Fitness>
49.8435

> <Gold.PLP.PLP>
-43.4441

> <Gold.PLP.part.hbond>
-3.0000

> <Gold.PLP.part.metal>
0.0000

> <Gold.PLP.part.buried>
-6.6198

> <Gold.PLP.part.nonpolar>
-32.6509

> <Gold.PLP.part.repulsive>
0.0512

> <Gold.PLP.ligand.clash>
0.0000

> <Gold.PLP.ligand.torsion>
0.8401

> <Gold.PLP.Chemscore.Hbond>
1.6384

> <Gold.PLP.Chemscore.CHOScore>
1.0000

> <Gold.PLP.Chemscore.Metal>
0.0000

> <Gold.Chemscore.Hbonds>
donor molecule, donor type, donor heavy atom, donor atom, acceptor molecule, acceptor atom, score
      P1  H  7997  8010       L1    11  0.55

> <Gold.PLP.Chemscore.Internal.Correction>
0.1643

> <Gold.Rescore>
     Score         DG    S(hbond)    S(metal)    S(lipo)     H(rot)  DE(clash)    DE(int)     intcor
     17.24     -17.87       0.99        0.00     117.13       1.81       0.07       0.56       ----

> <Gold.Chemscore.Fitness>
17.2379

> <Gold.Chemscore.DG>
-17.8719

> <Gold.Chemscore.ZeroCoef>
-5.4800

> <Gold.Chemscore.Hbond>
0.9913

> <Gold.Chemscore.Metal>
0.0000

> <Gold.Chemscore.Lipo>
117.1271

> <Gold.Chemscore.Internal_Hbond>
0.0000

> <Gold.Chemscore.DEClash>
0.0698

> <Gold.Chemscore.DEInternal>
0.5643

> <Gold.Chemscore.Rot>
1.8058

> <Gold.Chemscore.Internal.Correction>
   9.000000E+99

> <Gold.Chemscore.Hbonds>
donor molecule, donor type, donor heavy atom, donor atom, acceptor molecule, acceptor atom, score
      P1  H  7997  8010       L1    11  0.03

> <Gold.Chemscore.Hbond.Weighted>
-3.3109

> <Gold.Chemscore.Metal.Weighted>
-0.0000

> <Gold.Chemscore.Lipo.Weighted>
-13.7039

> <Gold.Chemscore.Internal_Hbond.Weighted>
0.0000

> <Gold.Chemscore.DEClash.Weighted>
0.0698

> <Gold.Chemscore.DEInternal.Weighted>
0.5643

> <Gold.Chemscore.Rot.Weighted>
4.6228

> <Gold.Chemscore.Internal.Correction.Weighted>
   9.000000E+99

> <Gold.Protein.RotatedTorsions>
[ 6907 6896 6895 6894 ] final  -30.79 input  -60.11 | X-H torsion
[ 7974 7965 7964 7962 ] final  177.06 input  175.53 | X-H torsion
[ 8008 7997 7996 7995 ] final    3.89 input   59.86 | X-H torsion
[ 10167 10162 10161 10158 ] final  126.35 input  -65.29 | X-H torsion
[ 10718 10713 10712 10709 ] final   31.35 input   66.30 | X-H torsion
[ 10763 10752 10751 10750 ] final  -90.66 input  -60.55 | X-H torsion
[ 11005 11000 10999 10996 ] final  -80.92 input  -57.11 | X-H torsion

> <Gold.Protein.ActiveResidues>
 VAL166  LYS551  ARG553  GLY616  TRP617  ASP618  TYR619  PRO620  LYS621  CYS622 
 ASP623  PHE694  ASN695  SER759  ASP760  ASP761  ALA762  ILE779  LEU786  VAL792 
 PHE793  MET794  SER795  GLU796  ALA797  LYS798  CYS799  TRP800  GLU811  SER814 

> <Gold.Protein.RotatedAtoms>
  151.1008  134.9971  159.8447 H   0  0  0  0  0  0  0  0  0  0  0  0  # atno 6907 bound_to 6896
  152.5437  134.1952  159.8700 H   0  0  0  0  0  0  0  0  0  0  0  0  # atno 6908 bound_to 6896
  151.1995  133.4575  159.2629 H   0  0  0  0  0  0  0  0  0  0  0  0  # atno 6909 bound_to 6896
  144.7174  140.0190  143.6440 H   0  0  0  0  0  0  0  0  0  0  0  0  # atno 7974 bound_to 7965
  154.7092  140.2689  155.6645 H   0  0  0  0  0  0  0  0  0  0  0  0  # atno 8008 bound_to 7997
  156.2790  140.2756  156.1653 H   0  0  0  0  0  0  0  0  0  0  0  0  # atno 8009 bound_to 7997
  155.0657  140.0371  157.2582 H   0  0  0  0  0  0  0  0  0  0  0  0  # atno 8010 bound_to 7997
  139.5636  144.6897  151.3974 H   0  0  0  0  0  0  0  0  0  0  0  0  # atno 10167 bound_to 10162
  157.2713  130.7209  149.6506 H   0  0  0  0  0  0  0  0  0  0  0  0  # atno 10718 bound_to 10713
  154.6680  135.5296  153.8102 H   0  0  0  0  0  0  0  0  0  0  0  0  # atno 10763 bound_to 10752
  153.0483  135.6522  154.0768 H   0  0  0  0  0  0  0  0  0  0  0  0  # atno 10764 bound_to 10752
  154.0670  135.2957  155.3294 H   0  0  0  0  0  0  0  0  0  0  0  0  # atno 10765 bound_to 10752
  141.1667  133.7172  156.8345 H   0  0  0  0  0  0  0  0  0  0  0  0  # atno 11005 bound_to 11000
  146.0196  139.3239  143.0821 LP  0  0  0  0  0  0  0  0  0  0  0  0  # atno 17320 bound_to 7965
  145.8584  140.9489  143.0713 LP  0  0  0  0  0  0  0  0  0  0  0  0  # atno 17321 bound_to 7965
  140.6917  143.7845  150.7266 LP  0  0  0  0  0  0  0  0  0  0  0  0  # atno 17342 bound_to 10162
  140.1329  143.4510  152.2243 LP  0  0  0  0  0  0  0  0  0  0  0  0  # atno 17343 bound_to 10162
  155.9663  130.4366  150.5143 LP  0  0  0  0  0  0  0  0  0  0  0  0  # atno 17370 bound_to 10713
  157.3068  131.0656  151.2030 LP  0  0  0  0  0  0  0  0  0  0  0  0  # atno 17371 bound_to 10713
  140.2027  134.8885  157.3187 LP  0  0  0  0  0  0  0  0  0  0  0  0  # atno 17394 bound_to 11000
  140.2170  134.4069  155.7584 LP  0  0  0  0  0  0  0  0  0  0  0  0  # atno 17395 bound_to 11000

$$$$
