AV-unprocessed.smi:338|AV-procd|sdf|2374|dock4
  -GOLD-   2262022293D 1   1.00000     0.00000
 Structure written by MMmdl.
 41 43  0  0  0  0  0  0  0  0  1 V2000
  151.6745  145.6720  159.9515 C   0  0  0  0  0  0  0  0  0  0  0  0
  152.1956  144.4857  159.1417 C   0  0  0  0  0  0  0  0  0  0  0  0
  152.1372  144.5391  157.9135 O   0  0  0  0  0  0  0  0  0  0  0  0
  152.7510  143.3214  159.8902 C   0  0  0  0  0  0  0  0  0  0  0  0
  152.8738  143.3362  161.2991 C   0  0  0  0  0  0  0  0  0  0  0  0
  153.4025  142.2232  161.9775 C   0  0  0  0  0  0  0  0  0  0  0  0
  153.8121  141.0864  161.2581 C   0  0  0  0  0  0  0  0  0  0  0  0
  153.6987  141.0448  159.8547 C   0  0  0  0  0  0  0  0  0  0  0  0
  154.1225  139.8917  159.2289 O   0  0  0  0  0  0  0  0  0  0  0  0
  154.0718  138.6709  159.9560 C   0  0  0  0  0  0  0  0  0  0  0  0
  155.5041  138.1996  160.2470 C   0  0  2  0  0  0  0  0  0  0  0  0
  156.2992  138.4595  159.1068 O   0  0  0  0  0  0  0  0  0  0  0  0
  155.5722  136.7012  160.6004 C   0  0  0  0  0  0  0  0  0  0  0  0
  154.9637  136.4053  161.8851 N   0  0  0  0  0  0  0  0  0  0  0  0
  154.4850  137.2936  162.7773 C   0  0  0  0  0  0  0  0  0  0  0  0
  153.9629  136.8086  163.9002 N   0  0  0  0  0  0  0  0  0  0  0  0
  154.1192  135.4456  163.7153 C   0  0  0  0  0  0  0  0  0  0  0  0
  153.7653  134.3600  164.5483 C   0  0  0  0  0  0  0  0  0  0  0  0
  154.0290  133.0343  164.1451 C   0  0  0  0  0  0  0  0  0  0  0  0
  154.6506  132.7736  162.9066 C   0  0  0  0  0  0  0  0  0  0  0  0
  155.0118  133.8386  162.0592 C   0  0  0  0  0  0  0  0  0  0  0  0
  154.7445  135.1598  162.4639 C   0  0  0  0  0  0  0  0  0  0  0  0
  153.1657  142.1713  159.1778 C   0  0  0  0  0  0  0  0  0  0  0  0
  152.4710  146.0981  160.5615 H   0  0  0  0  0  0  0  0  0  0  0  0
  150.8590  145.3608  160.6045 H   0  0  0  0  0  0  0  0  0  0  0  0
  151.3002  146.4521  159.2880 H   0  0  0  0  0  0  0  0  0  0  0  0
  152.5685  144.1923  161.8820 H   0  0  0  0  0  0  0  0  0  0  0  0
  153.4937  142.2415  163.0536 H   0  0  0  0  0  0  0  0  0  0  0  0
  154.2165  140.2371  161.7891 H   0  0  0  0  0  0  0  0  0  0  0  0
  153.5239  138.8003  160.8910 H   0  0  0  0  0  0  0  0  0  0  0  0
  153.5538  137.9167  159.3605 H   0  0  0  0  0  0  0  0  0  0  0  0
  155.9103  138.7876  161.0710 H   0  0  0  0  0  0  0  0  0  0  0  0
  155.9328  139.2007  158.6490 H   0  0  0  0  0  0  0  0  0  0  0  0
  155.0618  136.1094  159.8392 H   0  0  0  0  0  0  0  0  0  0  0  0
  156.6074  136.3580  160.6160 H   0  0  0  0  0  0  0  0  0  0  0  0
  154.5242  138.3571  162.5917 H   0  0  0  0  0  0  0  0  0  0  0  0
  153.2895  134.5477  165.4995 H   0  0  0  0  0  0  0  0  0  0  0  0
  153.7536  132.2129  164.7902 H   0  0  0  0  0  0  0  0  0  0  0  0
  154.8500  131.7552  162.6073 H   0  0  0  0  0  0  0  0  0  0  0  0
  155.4897  133.6429  161.1107 H   0  0  0  0  0  0  0  0  0  0  0  0
  153.0708  142.1665  158.1023 H   0  0  0  0  0  0  0  0  0  0  0  0
  1  2  1  0  0  0  0
  1 24  1  0  0  0  0
  1 25  1  0  0  0  0
  1 26  1  0  0  0  0
  2  3  2  0  0  0  0
  2  4  1  0  0  0  0
  4 23  1  0  0  0  0
  4  5  2  0  0  0  0
  5  6  1  0  0  0  0
  5 27  1  0  0  0  0
  6  7  2  0  0  0  0
  6 28  1  0  0  0  0
  7  8  1  0  0  0  0
  7 29  1  0  0  0  0
  8  9  1  0  0  0  0
  8 23  2  0  0  0  0
  9 10  1  0  0  0  0
 10 11  1  0  0  0  0
 10 30  1  0  0  0  0
 10 31  1  0  0  0  0
 11 12  1  0  0  0  0
 11 13  1  0  0  0  0
 11 32  1  0  0  0  0
 12 33  1  0  0  0  0
 13 14  1  0  0  0  0
 13 34  1  0  0  0  0
 13 35  1  0  0  0  0
 14 22  1  0  0  0  0
 14 15  1  0  0  0  0
 15 16  2  0  0  0  0
 15 36  1  0  0  0  0
 16 17  1  0  0  0  0
 17 22  2  0  0  0  0
 17 18  1  0  0  0  0
 18 19  2  0  0  0  0
 18 37  1  0  0  0  0
 19 20  1  0  0  0  0
 19 38  1  0  0  0  0
 20 21  2  0  0  0  0
 20 39  1  0  0  0  0
 21 22  1  0  0  0  0
 21 40  1  0  0  0  0
 23 41  1  0  0  0  0
M  END
> <s_m_source_file>
AV-unprocessed.smi

> <i_m_source_file_index>
338

> <i_lp_mmshare_version>
43012

> <i_f3d_flags>
0

> <s_epik_input>
W0NIM11DKD1PKWMxW2NIXVtjSF1bY0hdYyhbY0hdMSlPW0NIMl1bQ0BIXShbT0hdKVtDSDJdbihbY0hdbjIpYyhjMjMpW2NIXVtjSF1bY0hdW2NIXTM=

> <s_epik_cmdline>
J2VwaWtfcHl0aG9uJywgJy1waCcsICc3LjAnLCAnLXRuJywgJzgnLCAnLW1hJywgJzIwMCcsICctbWV0YWxfYmluZGluZycsICctaW1hZScsICc8aW5maWxlLm1hZT4nLCAnLW9tYWUnLCAnPG91dGZpbGUubWFlPic=

> <r_lp_tautomer_probability>
0.99995

> <r_epik_Ionization_Penalty>
0.0640132

> <r_epik_Ionization_Penalty_Charging>
0

> <r_epik_Ionization_Penalty_Neutral>
0.0640132

> <r_epik_State_Penalty>
0.0557325

> <r_epik_Charging_Adjusted_Penalty>
0.0557325

> <i_epik_Tot_Q>
0

> <i_epik_Tot_abs_Q>
0

> <r_epik_Metal_State_Penalty>
5.8435e-05

> <b_epik_Metal_Only>
0

> <s_lp_Force_Field>
OPLS_2005

> <r_lp_Energy>
20.8584

> <b_lp_Chiralities_Consistent>
1

> <s_lp_Variant>
AV-unprocessed.smi:338-1

> <Gold.Version>
5.8.1

> <Gold.Id.Protein>
6NUR|6NUR_protein|mol2

> <Gold.PLP.Fitness>
50.6027

> <Gold.PLP.PLP>
-50.1278

> <Gold.PLP.part.hbond>
-0.9216

> <Gold.PLP.part.metal>
0.0000

> <Gold.PLP.part.buried>
-6.5981

> <Gold.PLP.part.nonpolar>
-41.5445

> <Gold.PLP.part.repulsive>
0.1507

> <Gold.PLP.ligand.clash>
0.0000

> <Gold.PLP.ligand.torsion>
0.9948

> <Gold.PLP.Chemscore.Hbond>
0.7963

> <Gold.PLP.Chemscore.CHOScore>
0.0000

> <Gold.PLP.Chemscore.Metal>
0.0000

> <Gold.Chemscore.Hbonds>
donor molecule, donor type, donor heavy atom, donor atom, acceptor molecule, acceptor atom, score
      P1  H  7997  8010       L1     9  0.80

> <Gold.PLP.Chemscore.Internal.Correction>
0.0756

> <Gold.Rescore>
     Score         DG    S(hbond)    S(metal)    S(lipo)     H(rot)  DE(clash)    DE(int)     intcor
     16.09     -17.28       0.82        0.00     130.05       2.40       0.20       0.99       ----

> <Gold.Chemscore.Fitness>
16.0918

> <Gold.Chemscore.DG>
-17.2773

> <Gold.Chemscore.ZeroCoef>
-5.4800

> <Gold.Chemscore.Hbond>
0.8163

> <Gold.Chemscore.Metal>
0.0000

> <Gold.Chemscore.Lipo>
130.0515

> <Gold.Chemscore.Internal_Hbond>
0.0000

> <Gold.Chemscore.DEClash>
0.1983

> <Gold.Chemscore.DEInternal>
0.9872

> <Gold.Chemscore.Rot>
2.4005

> <Gold.Chemscore.Internal.Correction>
   9.000000E+99

> <Gold.Chemscore.Hbonds>
donor molecule, donor type, donor heavy atom, donor atom, acceptor molecule, acceptor atom, score
      P1  H  7997  8010       L1     9  0.74

> <Gold.Chemscore.Hbond.Weighted>
-2.7265

> <Gold.Chemscore.Metal.Weighted>
-0.0000

> <Gold.Chemscore.Lipo.Weighted>
-15.2160

> <Gold.Chemscore.Internal_Hbond.Weighted>
0.0000

> <Gold.Chemscore.DEClash.Weighted>
0.1983

> <Gold.Chemscore.DEInternal.Weighted>
0.9872

> <Gold.Chemscore.Rot.Weighted>
6.1453

> <Gold.Chemscore.Internal.Correction.Weighted>
   9.000000E+99

> <Gold.Protein.RotatedTorsions>
[ 6907 6896 6895 6894 ] final   47.76 input  -60.11 | X-H torsion
[ 7974 7965 7964 7962 ] final  -97.80 input  175.53 | X-H torsion
[ 8008 7997 7996 7995 ] final   11.72 input   59.86 | X-H torsion
[ 10167 10162 10161 10158 ] final  -61.08 input  -65.29 | X-H torsion
[ 10718 10713 10712 10709 ] final   82.06 input   66.30 | X-H torsion
[ 10763 10752 10751 10750 ] final  -87.95 input  -60.55 | X-H torsion
[ 11005 11000 10999 10996 ] final   80.82 input  -57.11 | X-H torsion

> <Gold.Protein.ActiveResidues>
 VAL166  LYS551  ARG553  GLY616  TRP617  ASP618  TYR619  PRO620  LYS621  CYS622 
 ASP623  PHE694  ASN695  SER759  ASP760  ASP761  ALA762  ILE779  LEU786  VAL792 
 PHE793  MET794  SER795  GLU796  ALA797  LYS798  CYS799  TRP800  GLU811  SER814 

> <Gold.Protein.RotatedAtoms>
  152.2717  134.7925  160.0412 H   0  0  0  0  0  0  0  0  0  0  0  0  # atno 6907 bound_to 6896
  151.8535  133.3439  159.3689 H   0  0  0  0  0  0  0  0  0  0  0  0  # atno 6908 bound_to 6896
  150.7154  134.5204  159.5695 H   0  0  0  0  0  0  0  0  0  0  0  0  # atno 6909 bound_to 6896
  145.3290  140.9437  143.2672 H   0  0  0  0  0  0  0  0  0  0  0  0  # atno 7974 bound_to 7965
  154.8108  140.2867  155.5855 H   0  0  0  0  0  0  0  0  0  0  0  0  # atno 8008 bound_to 7997
  156.2988  140.2568  156.2925 H   0  0  0  0  0  0  0  0  0  0  0  0  # atno 8009 bound_to 7997
  154.9450  140.0380  157.2105 H   0  0  0  0  0  0  0  0  0  0  0  0  # atno 8010 bound_to 7997
  140.6029  143.2366  151.5886 H   0  0  0  0  0  0  0  0  0  0  0  0  # atno 10167 bound_to 10162
  157.6848  131.0031  150.2319 H   0  0  0  0  0  0  0  0  0  0  0  0  # atno 10718 bound_to 10713
  154.6392  135.5395  153.7769 H   0  0  0  0  0  0  0  0  0  0  0  0  # atno 10763 bound_to 10752
  153.0325  135.6455  154.1185 H   0  0  0  0  0  0  0  0  0  0  0  0  # atno 10764 bound_to 10752
  154.1111  135.2926  155.3210 H   0  0  0  0  0  0  0  0  0  0  0  0  # atno 10765 bound_to 10752
  139.9120  134.7949  156.1960 H   0  0  0  0  0  0  0  0  0  0  0  0  # atno 11005 bound_to 11000
  144.8879  139.4814  143.6692 LP  0  0  0  0  0  0  0  0  0  0  0  0  # atno 17320 bound_to 7965
  146.3053  139.7559  142.9061 LP  0  0  0  0  0  0  0  0  0  0  0  0  # atno 17321 bound_to 7965
  139.5304  144.2933  152.1134 LP  0  0  0  0  0  0  0  0  0  0  0  0  # atno 17342 bound_to 10162
  140.2117  144.4556  150.6383 LP  0  0  0  0  0  0  0  0  0  0  0  0  # atno 17343 bound_to 10162
  156.2950  130.3751  149.7805 LP  0  0  0  0  0  0  0  0  0  0  0  0  # atno 17370 bound_to 10713
  156.5452  130.8317  151.3282 LP  0  0  0  0  0  0  0  0  0  0  0  0  # atno 17371 bound_to 10713
  141.0554  133.6867  156.1851 LP  0  0  0  0  0  0  0  0  0  0  0  0  # atno 17394 bound_to 11000
  140.6744  134.4833  157.5588 LP  0  0  0  0  0  0  0  0  0  0  0  0  # atno 17395 bound_to 11000

$$$$
