AV-unprocessed.smi:289|AV-procd|sdf|2213|dock3
  -GOLD-   2262022 43D 1   1.00000     0.00000
 Structure written by MMmdl.
 51 54  0  0  0  0  0  0  0  0  1 V2000
  152.1138  136.1988  158.3784 O   0  0  0  0  0  0  0  0  0  0  0  0
  151.5088  137.1963  157.9802 C   0  0  0  0  0  0  0  0  0  0  0  0
  150.0909  137.0264  157.3942 C   0  0  0  0  0  0  0  0  0  0  0  0
  149.2297  136.1053  158.1701 N   0  0  0  0  0  0  0  0  0  0  0  0
  148.7178  134.9501  157.5300 C   0  0  0  0  0  0  0  0  0  0  0  0
  148.9938  134.6934  156.3573 O   0  0  0  0  0  0  0  0  0  0  0  0
  147.8428  134.1165  158.3451 C   0  0  0  0  0  0  0  0  0  0  0  0
  147.2803  133.0199  157.8093 F   0  0  0  0  0  0  0  0  0  0  0  0
  147.5724  134.4371  159.6270 C   0  0  0  0  0  0  0  0  0  0  0  0
  148.1090  135.5486  160.2562 N   0  0  0  0  0  0  0  0  0  0  0  0
  147.7318  135.9530  161.6739 C   0  0  2  0  0  0  0  0  0  0  0  0
  146.8309  134.9454  162.4009 C   0  0  0  0  0  0  0  0  0  0  0  0
  145.4294  135.5135  162.1927 C   0  0  0  0  0  0  0  0  0  0  0  0
  145.6436  136.7982  161.3850 C   0  0  0  0  0  0  0  0  0  0  0  0
  147.0041  137.1380  161.6158 O   0  0  0  0  0  0  0  0  0  0  0  0
  148.9192  136.4352  159.5115 C   0  0  0  0  0  0  0  0  0  0  0  0
  149.3439  137.4762  160.0182 O   0  0  0  0  0  0  0  0  0  0  0  0
  152.0503  138.4375  158.0414 N   0  0  0  0  0  0  0  0  0  0  0  0
  151.3836  139.6887  157.6509 C   0  0  0  0  0  0  0  0  0  0  0  0
  151.2339  140.5960  158.8893 C   0  0  0  0  0  0  0  0  0  0  0  0
  152.5616  140.8441  159.4797 N   0  0  0  0  0  0  0  0  0  0  0  0
  153.1921  142.0441  159.5431 C   0  0  0  0  0  0  0  0  0  0  0  0
  154.3995  142.1479  159.7610 O   0  0  0  0  0  0  0  0  0  0  0  0
  152.4084  143.2846  159.3572 C   0  0  0  0  0  0  0  0  0  0  0  0
  152.1942  144.3297  160.2152 C   0  0  0  0  0  0  0  0  0  0  0  0
  151.3172  145.2304  159.5501 C   0  0  0  0  0  0  0  0  0  0  0  0
  151.0386  144.6595  158.3417 C   0  0  0  0  0  0  0  0  0  0  0  0
  151.6824  143.4676  158.2147 O   0  0  0  0  0  0  0  0  0  0  0  0
  153.2326  139.5874  159.8490 C   0  0  0  0  0  0  0  0  0  0  0  0
  153.3842  138.6990  158.6000 C   0  0  0  0  0  0  0  0  0  0  0  0
  149.6266  138.0105  157.3125 H   0  0  0  0  0  0  0  0  0  0  0  0
  150.1732  136.6766  156.3640 H   0  0  0  0  0  0  0  0  0  0  0  0
  146.8940  133.7897  160.1594 H   0  0  0  0  0  0  0  0  0  0  0  0
  148.6789  136.0887  162.1986 H   0  0  0  0  0  0  0  0  0  0  0  0
  146.9749  133.9223  162.0543 H   0  0  0  0  0  0  0  0  0  0  0  0
  147.0811  134.9708  163.4622 H   0  0  0  0  0  0  0  0  0  0  0  0
  144.7729  134.8178  161.6697 H   0  0  0  0  0  0  0  0  0  0  0  0
  144.9732  135.7400  163.1569 H   0  0  0  0  0  0  0  0  0  0  0  0
  145.4840  136.6216  160.3206 H   0  0  0  0  0  0  0  0  0  0  0  0
  144.9759  137.6024  161.6943 H   0  0  0  0  0  0  0  0  0  0  0  0
  151.9874  140.1894  156.8925 H   0  0  0  0  0  0  0  0  0  0  0  0
  150.4055  139.5453  157.1962 H   0  0  0  0  0  0  0  0  0  0  0  0
  150.7187  141.5003  158.5727 H   0  0  0  0  0  0  0  0  0  0  0  0
  150.5920  140.1226  159.6336 H   0  0  0  0  0  0  0  0  0  0  0  0
  152.6199  144.4340  161.2026 H   0  0  0  0  0  0  0  0  0  0  0  0
  150.9319  146.1715  159.9136 H   0  0  0  0  0  0  0  0  0  0  0  0
  150.4272  144.9469  157.4990 H   0  0  0  0  0  0  0  0  0  0  0  0
  154.2102  139.7487  160.3053 H   0  0  0  0  0  0  0  0  0  0  0  0
  152.6354  139.0738  160.6041 H   0  0  0  0  0  0  0  0  0  0  0  0
  153.9205  137.7871  158.8650 H   0  0  0  0  0  0  0  0  0  0  0  0
  153.9988  139.2001  157.8506 H   0  0  0  0  0  0  0  0  0  0  0  0
  1  2  2  0  0  0  0
  2  3  1  0  0  0  0
  2 18  1  0  0  0  0
  3  4  1  0  0  0  0
  3 31  1  0  0  0  0
  3 32  1  0  0  0  0
  4 16  1  0  0  0  0
  4  5  1  0  0  0  0
  5  6  2  0  0  0  0
  5  7  1  0  0  0  0
  7  8  1  0  0  0  0
  7  9  2  0  0  0  0
  9 10  1  0  0  0  0
  9 33  1  0  0  0  0
 10 11  1  0  0  0  0
 10 16  1  0  0  0  0
 11 15  1  0  0  0  0
 11 12  1  0  0  0  0
 11 34  1  0  0  0  0
 12 13  1  0  0  0  0
 12 35  1  0  0  0  0
 12 36  1  0  0  0  0
 13 14  1  0  0  0  0
 13 37  1  0  0  0  0
 13 38  1  0  0  0  0
 14 15  1  0  0  0  0
 14 39  1  0  0  0  0
 14 40  1  0  0  0  0
 16 17  2  0  0  0  0
 18 30  1  0  0  0  0
 18 19  1  0  0  0  0
 19 20  1  0  0  0  0
 19 41  1  0  0  0  0
 19 42  1  0  0  0  0
 20 21  1  0  0  0  0
 20 43  1  0  0  0  0
 20 44  1  0  0  0  0
 21 22  1  0  0  0  0
 21 29  1  0  0  0  0
 22 23  2  0  0  0  0
 22 24  1  0  0  0  0
 24 28  1  0  0  0  0
 24 25  2  0  0  0  0
 25 26  1  0  0  0  0
 25 45  1  0  0  0  0
 26 27  2  0  0  0  0
 26 46  1  0  0  0  0
 27 28  1  0  0  0  0
 27 47  1  0  0  0  0
 29 30  1  0  0  0  0
 29 48  1  0  0  0  0
 29 49  1  0  0  0  0
 30 50  1  0  0  0  0
 30 51  1  0  0  0  0
M  END
> <s_m_source_file>
AV-unprocessed.smi

> <i_m_source_file_index>
289

> <i_lp_mmshare_version>
43012

> <i_f3d_flags>
0

> <s_epik_input>
bzFbY0hdW2NIXVtjSF1jMUMoPU8pTihbQ0gyXVtDSDJdMilbQ0gyXVtDSDJdTjJDKD1PKVtDSDJdbjNjKD1PKWMoRilbY0hdbihjMz1PKVtDQEBIXTRbQ0gyXVtDSDJdW0NIMl1PNA==

> <s_epik_cmdline>
J2VwaWtfcHl0aG9uJywgJy1waCcsICc3LjAnLCAnLXRuJywgJzgnLCAnLW1hJywgJzIwMCcsICctbWV0YWxfYmluZGluZycsICctaW1hZScsICc8aW5maWxlLm1hZT4nLCAnLW9tYWUnLCAnPG91dGZpbGUubWFlPic=

> <r_lp_tautomer_probability>
1

> <r_epik_Ionization_Penalty>
6.38128e-09

> <r_epik_Ionization_Penalty_Charging>
4.20153e-09

> <r_epik_Ionization_Penalty_Neutral>
2.17976e-09

> <r_epik_State_Penalty>
-0

> <r_epik_Charging_Adjusted_Penalty>
4.20153e-09

> <i_epik_Tot_Q>
0

> <i_epik_Tot_abs_Q>
0

> <r_epik_Metal_State_Penalty>
-0

> <b_epik_Metal_Only>
0

> <s_epik_Chemistry_Notes>
This compound contains an acetal/aminal-like group ( X-CH(R)-Y where X, Y are N, S, or O) that may be acid/base labile, releasing an aldehyde.

> <s_lp_Force_Field>
OPLS_2005

> <r_lp_Energy>
70.009

> <b_lp_Chiralities_Consistent>
1

> <s_lp_Variant>
AV-unprocessed.smi:289-1

> <Gold.Version>
5.8.1

> <Gold.Id.Protein>
6NUR|6NUR_protein|mol2

> <Gold.PLP.Fitness>
55.1743

> <Gold.PLP.PLP>
-49.7616

> <Gold.PLP.part.hbond>
-4.0659

> <Gold.PLP.part.metal>
0.0000

> <Gold.PLP.part.buried>
-3.9737

> <Gold.PLP.part.nonpolar>
-41.6281

> <Gold.PLP.part.repulsive>
0.0761

> <Gold.PLP.ligand.clash>
0.0000

> <Gold.PLP.ligand.torsion>
1.4711

> <Gold.PLP.Chemscore.Hbond>
1.6640

> <Gold.PLP.Chemscore.CHOScore>
0.9297

> <Gold.PLP.Chemscore.Metal>
0.0000

> <Gold.Chemscore.Hbonds>
donor molecule, donor type, donor heavy atom, donor atom, acceptor molecule, acceptor atom, score
      P1  H  6896  6909       L1     1  0.42
      P1  H  6931  6943       L1    17  0.27
      P1  H  6934  6947       L1    15  0.99
      L1  C    27    47       P1  8028  0.87
      L1  C    27    47       P1  8029  0.06

> <Gold.PLP.Chemscore.Internal.Correction>
0.5739

> <Gold.Rescore>
     Score         DG    S(hbond)    S(metal)    S(lipo)     H(rot)  DE(clash)    DE(int)     intcor
     13.73     -17.96       1.71        0.00      94.02       1.66       0.26       3.97       ----

> <Gold.Chemscore.Fitness>
13.7263

> <Gold.Chemscore.DG>
-17.9609

> <Gold.Chemscore.ZeroCoef>
-5.4800

> <Gold.Chemscore.Hbond>
1.7140

> <Gold.Chemscore.Metal>
0.0000

> <Gold.Chemscore.Lipo>
94.0234

> <Gold.Chemscore.Internal_Hbond>
0.0000

> <Gold.Chemscore.DEClash>
0.2604

> <Gold.Chemscore.DEInternal>
3.9742

> <Gold.Chemscore.Rot>
1.6580

> <Gold.Chemscore.Internal.Correction>
   9.000000E+99

> <Gold.Chemscore.Hbonds>
donor molecule, donor type, donor heavy atom, donor atom, acceptor molecule, acceptor atom, score
      P1  H  6896  6909       L1     1  0.39
      P1  H  6931  6943       L1    17  0.26
      P1  H  6934  6947       L1    15  0.45

> <Gold.Chemscore.Hbond.Weighted>
-5.7247

> <Gold.Chemscore.Metal.Weighted>
-0.0000

> <Gold.Chemscore.Lipo.Weighted>
-11.0007

> <Gold.Chemscore.Internal_Hbond.Weighted>
0.0000

> <Gold.Chemscore.DEClash.Weighted>
0.2604

> <Gold.Chemscore.DEInternal.Weighted>
3.9742

> <Gold.Chemscore.Rot.Weighted>
4.2446

> <Gold.Chemscore.Internal.Correction.Weighted>
   9.000000E+99

> <Gold.Protein.RotatedTorsions>
[ 6907 6896 6895 6894 ] final  116.59 input  -60.11 | X-H torsion
[ 7974 7965 7964 7962 ] final  -33.07 input  175.53 | X-H torsion
[ 8008 7997 7996 7995 ] final  108.60 input   59.86 | X-H torsion
[ 10167 10162 10161 10158 ] final -106.00 input  -65.29 | X-H torsion
[ 10718 10713 10712 10709 ] final -147.92 input   66.30 | X-H torsion
[ 10763 10752 10751 10750 ] final   49.61 input  -60.55 | X-H torsion
[ 11005 11000 10999 10996 ] final  -80.40 input  -57.11 | X-H torsion

> <Gold.Protein.ActiveResidues>
 VAL166  LYS551  ARG553  GLY616  TRP617  ASP618  TYR619  PRO620  LYS621  CYS622 
 ASP623  PHE694  ASN695  SER759  ASP760  ASP761  ALA762  ILE779  LEU786  VAL792 
 PHE793  MET794  SER795  GLU796  ALA797  LYS798  CYS799  TRP800  GLU811  SER814 

> <Gold.Protein.RotatedAtoms>
  152.4668  133.7940  159.6917 H   0  0  0  0  0  0  0  0  0  0  0  0  # atno 6907 bound_to 6896
  150.8636  133.7597  159.2990 H   0  0  0  0  0  0  0  0  0  0  0  0  # atno 6908 bound_to 6896
  151.5154  135.1069  159.9917 H   0  0  0  0  0  0  0  0  0  0  0  0  # atno 6909 bound_to 6896
  146.0940  140.5871  142.8851 H   0  0  0  0  0  0  0  0  0  0  0  0  # atno 7974 bound_to 7965
  156.1916  140.3073  155.9343 H   0  0  0  0  0  0  0  0  0  0  0  0  # atno 8008 bound_to 7997
  155.3161  140.0453  157.3054 H   0  0  0  0  0  0  0  0  0  0  0  0  # atno 8009 bound_to 7997
  154.5459  140.2276  155.8574 H   0  0  0  0  0  0  0  0  0  0  0  0  # atno 8010 bound_to 7997
  140.1924  143.3881  152.1195 H   0  0  0  0  0  0  0  0  0  0  0  0  # atno 10167 bound_to 10162
  156.4137  130.7994  151.2213 H   0  0  0  0  0  0  0  0  0  0  0  0  # atno 10718 bound_to 10713
  152.9786  135.5906  154.4118 H   0  0  0  0  0  0  0  0  0  0  0  0  # atno 10763 bound_to 10752
  154.3752  135.2767  155.2245 H   0  0  0  0  0  0  0  0  0  0  0  0  # atno 10764 bound_to 10752
  154.4183  135.6065  153.6049 H   0  0  0  0  0  0  0  0  0  0  0  0  # atno 10765 bound_to 10752
  141.1668  133.7148  156.8267 H   0  0  0  0  0  0  0  0  0  0  0  0  # atno 11005 bound_to 11000
  144.7381  140.4865  143.6889 LP  0  0  0  0  0  0  0  0  0  0  0  0  # atno 17320 bound_to 7965
  145.5985  139.1501  143.3142 LP  0  0  0  0  0  0  0  0  0  0  0  0  # atno 17321 bound_to 7965
  139.5250  144.7091  151.5263 LP  0  0  0  0  0  0  0  0  0  0  0  0  # atno 17342 bound_to 10162
  140.6446  143.8820  150.6725 LP  0  0  0  0  0  0  0  0  0  0  0  0  # atno 17343 bound_to 10162
  157.7507  131.0250  150.3899 LP  0  0  0  0  0  0  0  0  0  0  0  0  # atno 17370 bound_to 10713
  156.4202  130.3951  149.6830 LP  0  0  0  0  0  0  0  0  0  0  0  0  # atno 17371 bound_to 10713
  140.2080  134.8848  157.3243 LP  0  0  0  0  0  0  0  0  0  0  0  0  # atno 17394 bound_to 11000
  140.2116  134.4131  155.7610 LP  0  0  0  0  0  0  0  0  0  0  0  0  # atno 17395 bound_to 11000

$$$$
