AV-unprocessed.smi:1856|AV-procd|sdf|7538|dock6
  -GOLD-   22720 9253D 1   1.00000     0.00000
 Structure written by MMmdl.
 45 46  0  0  0  0  0  0  0  0  2 V2000
  144.9032  145.0705  153.0786 C   0  0  0  0  0  0  0  0  0  0  0  0
  145.6030  143.7479  153.4093 C   0  0  0  0  0  0  0  0  0  0  0  0
  145.5949  143.4389  154.9181 C   0  0  0  0  0  0  0  0  0  0  0  0
  146.3532  142.1603  155.2896 C   0  0  0  0  0  0  0  0  0  0  0  0
  145.7545  141.1053  155.5028 O   0  0  0  0  0  0  0  0  0  0  0  0
  147.6881  142.2739  155.3762 N   0  0  0  0  0  0  0  0  0  0  0  0
  148.6051  141.1859  155.7092 C   0  0  1  0  0  0  0  0  0  0  0  0
  149.1927  140.5909  154.4231 C   0  0  0  0  0  0  0  0  0  0  0  0
  149.7043  141.6195  156.6369 C   0  0  0  0  0  0  0  0  0  0  0  0
  149.9989  142.9051  156.9876 N   0  3  0  0  0  0  0  0  0  0  0  0
  151.0745  142.9207  157.8751 C   0  0  0  0  0  0  0  0  0  0  0  0
  151.7173  143.9789  158.5097 C   0  0  0  0  0  0  0  0  0  0  0  0
  152.7897  143.6468  159.3636 C   0  0  0  0  0  0  0  0  0  0  0  0
  153.1862  142.3076  159.5576 C   0  0  0  0  0  0  0  0  0  0  0  0
  152.5276  141.2436  158.9065 C   0  0  0  0  0  0  0  0  0  0  0  0
  151.4671  141.5809  158.0660 C   0  0  0  0  0  0  0  0  0  0  0  0
  150.6014  140.8145  157.2779 N   0  0  0  0  0  0  0  0  0  0  0  0
  150.7681  139.3529  157.2519 C   0  0  0  0  0  0  0  0  0  0  0  0
  151.8655  138.8901  156.2746 C   0  0  2  0  0  0  0  0  0  0  0  0
  151.7868  137.3852  155.9917 C   0  0  0  0  0  0  0  0  0  0  0  0
  153.1424  139.1799  156.8053 O   0  0  0  0  0  0  0  0  0  0  0  0
  144.9261  145.2632  152.0058 H   0  0  0  0  0  0  0  0  0  0  0  0
  145.3896  145.9090  153.5777 H   0  0  0  0  0  0  0  0  0  0  0  0
  143.8590  145.0521  153.3911 H   0  0  0  0  0  0  0  0  0  0  0  0
  145.1124  142.9421  152.8614 H   0  0  0  0  0  0  0  0  0  0  0  0
  146.6306  143.7898  153.0453 H   0  0  0  0  0  0  0  0  0  0  0  0
  146.0346  144.2736  155.4654 H   0  0  0  0  0  0  0  0  0  0  0  0
  144.5660  143.3413  155.2670 H   0  0  0  0  0  0  0  0  0  0  0  0
  148.1008  143.1748  155.1817 H   0  0  0  0  0  0  0  0  0  0  0  0
  148.0216  140.4083  156.2040 H   0  0  0  0  0  0  0  0  0  0  0  0
  149.8294  139.7337  154.6448 H   0  0  0  0  0  0  0  0  0  0  0  0
  149.7956  141.3222  153.8837 H   0  0  0  0  0  0  0  0  0  0  0  0
  148.4041  140.2484  153.7523 H   0  0  0  0  0  0  0  0  0  0  0  0
  151.4150  145.0054  158.3628 H   0  0  0  0  0  0  0  0  0  0  0  0
  153.3185  144.4348  159.8806 H   0  0  0  0  0  0  0  0  0  0  0  0
  154.0122  142.0917  160.2198 H   0  0  0  0  0  0  0  0  0  0  0  0
  152.8376  140.2209  159.0634 H   0  0  0  0  0  0  0  0  0  0  0  0
  150.9956  139.0221  158.2658 H   0  0  0  0  0  0  0  0  0  0  0  0
  149.8080  138.9025  156.9976 H   0  0  0  0  0  0  0  0  0  0  0  0
  151.7674  139.4294  155.3322 H   0  0  0  0  0  0  0  0  0  0  0  0
  150.8229  137.1194  155.5569 H   0  0  0  0  0  0  0  0  0  0  0  0
  151.9121  136.8015  156.9045 H   0  0  0  0  0  0  0  0  0  0  0  0
  152.5616  137.0753  155.2894 H   0  0  0  0  0  0  0  0  0  0  0  0
  153.1414  138.9767  157.7285 H   0  0  0  0  0  0  0  0  0  0  0  0
  149.4878  143.7105  156.6504 H   0  0  0  0  0  0  0  0  0  0  0  0
  1  2  1  0  0  0  0
  1 22  1  0  0  0  0
  1 23  1  0  0  0  0
  1 24  1  0  0  0  0
  2  3  1  0  0  0  0
  2 25  1  0  0  0  0
  2 26  1  0  0  0  0
  3  4  1  0  0  0  0
  3 27  1  0  0  0  0
  3 28  1  0  0  0  0
  4  5  2  0  0  0  0
  4  6  1  0  0  0  0
  6  7  1  0  0  0  0
  6 29  1  0  0  0  0
  7  8  1  0  0  0  0
  7  9  1  0  0  0  0
  7 30  1  0  0  0  0
  8 31  1  0  0  0  0
  8 32  1  0  0  0  0
  8 33  1  0  0  0  0
  9 17  1  0  0  0  0
  9 10  2  0  0  0  0
 10 11  1  0  0  0  0
 10 45  1  0  0  0  0
 11 16  2  0  0  0  0
 11 12  1  0  0  0  0
 12 13  2  0  0  0  0
 12 34  1  0  0  0  0
 13 14  1  0  0  0  0
 13 35  1  0  0  0  0
 14 15  2  0  0  0  0
 14 36  1  0  0  0  0
 15 16  1  0  0  0  0
 15 37  1  0  0  0  0
 16 17  1  0  0  0  0
 17 18  1  0  0  0  0
 18 19  1  0  0  0  0
 18 38  1  0  0  0  0
 18 39  1  0  0  0  0
 19 20  1  0  0  0  0
 19 21  1  0  0  0  0
 19 40  1  0  0  0  0
 20 41  1  0  0  0  0
 20 42  1  0  0  0  0
 20 43  1  0  0  0  0
 21 44  1  0  0  0  0
M  CHG  1  10   1
M  END
> <s_m_source_file>
AV-unprocessed.smi

> <i_m_source_file_index>
1856

> <i_lp_mmshare_version>
43012

> <i_f3d_flags>
0

> <s_epik_input>
W0NIM11bQ0gyXVtDSDJdQyg9TylbTkhdW0NASF0oW0NIM10pYyhuMSluKFtDSDJdW0NASF0oW0NIM10pW09IXSljKGMxMilbY0hdW2NIXVtjSF1bY0hdMg==

> <s_epik_cmdline>
J2VwaWtfcHl0aG9uJywgJy1waCcsICc3LjAnLCAnLXRuJywgJzgnLCAnLW1hJywgJzIwMCcsICctbWV0YWxfYmluZGluZycsICctaW1hZScsICc8aW5maWxlLm1hZT4nLCAnLW9tYWUnLCAnPG91dGZpbGUubWFlPic=

> <r_epik_Ionization_Penalty>
0.945588

> <r_epik_Ionization_Penalty_Charging>
0.945588

> <r_epik_Ionization_Penalty_Neutral>
8.64698e-08

> <r_epik_State_Penalty>
0.989378

> <r_epik_Charging_Adjusted_Penalty>
1.93497

> <i_epik_Tot_Q>
1

> <i_epik_Tot_abs_Q>
1

> <r_epik_Metal_State_Penalty>
1.10045

> <b_epik_Metal_Only>
0

> <s_lp_Force_Field>
OPLS_2005

> <r_lp_Energy>
6.55933

> <b_lp_Chiralities_Consistent>
1

> <s_lp_Variant>
AV-unprocessed.smi:1856-6

> <Gold.Version>
5.8.1

> <Gold.Id.Protein>
6NUR|6NUR_protein|mol2

> <Gold.PLP.Fitness>
53.9566

> <Gold.PLP.PLP>
-44.1959

> <Gold.PLP.part.hbond>
-2.9165

> <Gold.PLP.part.metal>
0.0000

> <Gold.PLP.part.buried>
-7.7362

> <Gold.PLP.part.nonpolar>
-36.1010

> <Gold.PLP.part.repulsive>
0.1865

> <Gold.PLP.ligand.clash>
0.0000

> <Gold.PLP.ligand.torsion>
1.1402

> <Gold.PLP.Chemscore.Hbond>
4.0000

> <Gold.PLP.Chemscore.CHOScore>
0.0000

> <Gold.PLP.Chemscore.Metal>
0.0000

> <Gold.Chemscore.Hbonds>
donor molecule, donor type, donor heavy atom, donor atom, acceptor molecule, acceptor atom, score
      L1  H     6    29       P1  8028  1.00
      L1  H    10    45       P1  8028  1.98
      P1  H  7997  8010       L1    21  1.00

> <Gold.PLP.Chemscore.Internal.Correction>
0.0411

> <Gold.Rescore>
     Score         DG    S(hbond)    S(metal)    S(lipo)     H(rot)  DE(clash)    DE(int)     intcor
     19.98     -21.29       2.85        0.00     108.79       2.52       0.01       1.30       ----

> <Gold.Chemscore.Fitness>
19.9777

> <Gold.Chemscore.DG>
-21.2880

> <Gold.Chemscore.ZeroCoef>
-5.4800

> <Gold.Chemscore.Hbond>
2.8505

> <Gold.Chemscore.Metal>
0.0000

> <Gold.Chemscore.Lipo>
108.7903

> <Gold.Chemscore.Internal_Hbond>
0.0000

> <Gold.Chemscore.DEClash>
0.0149

> <Gold.Chemscore.DEInternal>
1.2954

> <Gold.Chemscore.Rot>
2.5161

> <Gold.Chemscore.Internal.Correction>
   9.000000E+99

> <Gold.Chemscore.Hbonds>
donor molecule, donor type, donor heavy atom, donor atom, acceptor molecule, acceptor atom, score
      L1  H     6    29       P1  8028  0.88
      L1  H    10    45       P1  8028  0.92
      P1  H  7997  8010       L1    21  0.61

> <Gold.Chemscore.Hbond.Weighted>
-9.5207

> <Gold.Chemscore.Metal.Weighted>
-0.0000

> <Gold.Chemscore.Lipo.Weighted>
-12.7285

> <Gold.Chemscore.Internal_Hbond.Weighted>
0.0000

> <Gold.Chemscore.DEClash.Weighted>
0.0149

> <Gold.Chemscore.DEInternal.Weighted>
1.2954

> <Gold.Chemscore.Rot.Weighted>
6.4412

> <Gold.Chemscore.Internal.Correction.Weighted>
   9.000000E+99

> <Gold.Protein.RotatedTorsions>
[ 6907 6896 6895 6894 ] final   96.93 input  -60.11 | X-H torsion
[ 7974 7965 7964 7962 ] final  131.55 input  175.53 | X-H torsion
[ 8008 7997 7996 7995 ] final   67.24 input   59.86 | X-H torsion
[ 10167 10162 10161 10158 ] final  -48.83 input  -65.29 | X-H torsion
[ 10718 10713 10712 10709 ] final  167.36 input   66.30 | X-H torsion
[ 10763 10752 10751 10750 ] final -134.97 input  -60.55 | X-H torsion
[ 11005 11000 10999 10996 ] final  158.59 input  -57.11 | X-H torsion

> <Gold.Protein.ActiveResidues>
 VAL166  LYS551  ARG553  GLY616  TRP617  ASP618  TYR619  PRO620  LYS621  CYS622 
 ASP623  PHE694  ASN695  SER759  ASP760  ASP761  ALA762  ILE779  LEU786  VAL792 
 PHE793  MET794  SER795  GLU796  ALA797  LYS798  CYS799  TRP800  GLU811  SER814 

> <Gold.Protein.RotatedAtoms>
  152.5429  134.0811  159.8235 H   0  0  0  0  0  0  0  0  0  0  0  0  # atno 6907 bound_to 6896
  151.0913  133.5307  159.2622 H   0  0  0  0  0  0  0  0  0  0  0  0  # atno 6908 bound_to 6896
  151.2097  135.0485  159.8960 H   0  0  0  0  0  0  0  0  0  0  0  0  # atno 6909 bound_to 6896
  145.0061  139.4265  143.5268 H   0  0  0  0  0  0  0  0  0  0  0  0  # atno 7974 bound_to 7965
  155.6898  140.3496  155.4889 H   0  0  0  0  0  0  0  0  0  0  0  0  # atno 8008 bound_to 7997
  155.9534  140.1123  157.0979 H   0  0  0  0  0  0  0  0  0  0  0  0  # atno 8009 bound_to 7997
  154.4127  140.1189  156.5069 H   0  0  0  0  0  0  0  0  0  0  0  0  # atno 8010 bound_to 7997
  140.6713  143.2723  151.4127 H   0  0  0  0  0  0  0  0  0  0  0  0  # atno 10167 bound_to 10162
  157.0526  131.0317  151.2675 H   0  0  0  0  0  0  0  0  0  0  0  0  # atno 10718 bound_to 10713
  154.8711  135.3718  154.4823 H   0  0  0  0  0  0  0  0  0  0  0  0  # atno 10763 bound_to 10752
  153.5475  135.7025  153.5612 H   0  0  0  0  0  0  0  0  0  0  0  0  # atno 10764 bound_to 10752
  153.3745  135.4012  155.1777 H   0  0  0  0  0  0  0  0  0  0  0  0  # atno 10765 bound_to 10752
  140.1880  134.8428  157.2879 H   0  0  0  0  0  0  0  0  0  0  0  0  # atno 11005 bound_to 11000
  146.3461  139.9478  142.8732 LP  0  0  0  0  0  0  0  0  0  0  0  0  # atno 17320 bound_to 7965
  145.2086  140.9886  143.4114 LP  0  0  0  0  0  0  0  0  0  0  0  0  # atno 17321 bound_to 7965
  139.5983  144.1350  152.2169 LP  0  0  0  0  0  0  0  0  0  0  0  0  # atno 17342 bound_to 10162
  140.0726  144.5767  150.7180 LP  0  0  0  0  0  0  0  0  0  0  0  0  # atno 17343 bound_to 10162
  157.5018  130.7885  149.7613 LP  0  0  0  0  0  0  0  0  0  0  0  0  # atno 17370 bound_to 10713
  156.0003  130.3884  150.2632 LP  0  0  0  0  0  0  0  0  0  0  0  0  # atno 17371 bound_to 10713
  140.2192  134.4044  155.7574 LP  0  0  0  0  0  0  0  0  0  0  0  0  # atno 17394 bound_to 11000
  141.2225  133.7157  156.8463 LP  0  0  0  0  0  0  0  0  0  0  0  0  # atno 17395 bound_to 11000

$$$$
