AV-unprocessed.smi:2789|AV-procd|sdf|10762|dock7
  -GOLD-   2272015193D 1   1.00000     0.00000
 Structure written by MMmdl.
 35 36  0  0  0  0  0  0  0  0  1 V2000
  150.7852  137.8745  154.4244 C   0  0  0  0  0  0  0  0  0  0  0  0
  150.5819  139.2402  154.0986 O   0  0  0  0  0  0  0  0  0  0  0  0
  149.4601  139.8239  154.7471 C   0  0  2  0  0  0  0  0  0  0  0  0
  148.1310  139.3194  154.1688 C   0  0  0  0  0  0  0  0  0  0  0  0
  147.1702  140.4889  154.3480 C   0  0  0  0  0  0  0  0  0  0  0  0
  148.0322  141.7174  154.0623 C   0  0  0  0  0  0  0  0  0  0  0  0
  149.4558  141.3526  154.5295 C   0  0  1  0  0  0  0  0  0  0  0  0
  149.8001  142.0503  155.7661 N   0  0  0  0  0  0  0  0  0  0  0  0
  150.7819  141.6921  156.6055 C   0  0  0  0  0  0  0  0  0  0  0  0
  151.5180  140.7240  156.4134 O   0  0  0  0  0  0  0  0  0  0  0  0
  150.8470  142.5257  157.6582 N   0  0  0  0  0  0  0  0  0  0  0  0
  151.6981  142.4918  158.7180 C   0  0  0  0  0  0  0  0  0  0  0  0
  152.0766  141.4232  159.4844 C   0  0  0  0  0  0  0  0  0  0  0  0
  152.9681  142.0175  160.4228 C   0  0  0  0  0  0  0  0  0  0  0  0
  153.1168  143.3239  160.2436 N   0  0  0  0  0  0  0  0  0  0  0  0
  152.3293  143.6231  159.1874 N   0  0  0  0  0  0  0  0  0  0  0  0
  152.2474  144.9886  158.7066 C   0  0  0  0  0  0  0  0  0  0  0  0
  151.6726  137.5063  153.9096 H   0  0  0  0  0  0  0  0  0  0  0  0
  149.9414  137.2567  154.1157 H   0  0  0  0  0  0  0  0  0  0  0  0
  150.9417  137.7436  155.4958 H   0  0  0  0  0  0  0  0  0  0  0  0
  149.4891  139.6052  155.8169 H   0  0  0  0  0  0  0  0  0  0  0  0
  148.2449  139.1079  153.1047 H   0  0  0  0  0  0  0  0  0  0  0  0
  147.7786  138.4087  154.6536 H   0  0  0  0  0  0  0  0  0  0  0  0
  146.3007  140.4240  153.6934 H   0  0  0  0  0  0  0  0  0  0  0  0
  146.8135  140.5192  155.3785 H   0  0  0  0  0  0  0  0  0  0  0  0
  148.0462  141.9024  152.9874 H   0  0  0  0  0  0  0  0  0  0  0  0
  147.6333  142.6162  154.5345 H   0  0  0  0  0  0  0  0  0  0  0  0
  150.1701  141.6201  153.7479 H   0  0  0  0  0  0  0  0  0  0  0  0
  149.2436  142.8592  156.0000 H   0  0  0  0  0  0  0  0  0  0  0  0
  150.1783  143.2818  157.6680 H   0  0  0  0  0  0  0  0  0  0  0  0
  151.7795  140.3884  159.4061 H   0  0  0  0  0  0  0  0  0  0  0  0
  153.5095  141.5406  161.2265 H   0  0  0  0  0  0  0  0  0  0  0  0
  152.6475  145.0440  157.6942 H   0  0  0  0  0  0  0  0  0  0  0  0
  152.8191  145.6583  159.3504 H   0  0  0  0  0  0  0  0  0  0  0  0
  151.2064  145.3126  158.6976 H   0  0  0  0  0  0  0  0  0  0  0  0
  1  2  1  0  0  0  0
  1 18  1  0  0  0  0
  1 19  1  0  0  0  0
  1 20  1  0  0  0  0
  2  3  1  0  0  0  0
  3  7  1  0  0  0  0
  3  4  1  0  0  0  0
  3 21  1  0  0  0  0
  4  5  1  0  0  0  0
  4 22  1  0  0  0  0
  4 23  1  0  0  0  0
  5  6  1  0  0  0  0
  5 24  1  0  0  0  0
  5 25  1  0  0  0  0
  6  7  1  0  0  0  0
  6 26  1  0  0  0  0
  6 27  1  0  0  0  0
  7  8  1  0  0  0  0
  7 28  1  0  0  0  0
  8  9  1  0  0  0  0
  8 29  1  0  0  0  0
  9 10  2  0  0  0  0
  9 11  1  0  0  0  0
 11 12  1  0  0  0  0
 11 30  1  0  0  0  0
 12 16  1  0  0  0  0
 12 13  2  0  0  0  0
 13 14  1  0  0  0  0
 13 31  1  0  0  0  0
 14 15  2  0  0  0  0
 14 32  1  0  0  0  0
 15 16  1  0  0  0  0
 16 17  1  0  0  0  0
 17 33  1  0  0  0  0
 17 34  1  0  0  0  0
 17 35  1  0  0  0  0
M  END
> <s_m_source_file>
AV-unprocessed.smi

> <i_m_source_file_index>
2789

> <i_lp_mmshare_version>
43012

> <i_f3d_flags>
0

> <s_epik_input>
W0NIM11PW0NAQEhdMVtDSDJdW0NIMl1bQ0gyXVtDQEhdMVtOSF1DKD1PKVtOSF1jMltjSF1bY0hdbm4yW0NIM10=

> <s_epik_cmdline>
J2VwaWtfcHl0aG9uJywgJy1waCcsICc3LjAnLCAnLXRuJywgJzgnLCAnLW1hJywgJzIwMCcsICctbWV0YWxfYmluZGluZycsICctaW1hZScsICc8aW5maWxlLm1hZT4nLCAnLW9tYWUnLCAnPG91dGZpbGUubWFlPic=

> <r_lp_tautomer_probability>
1

> <r_epik_Ionization_Penalty>
4.40608e-05

> <r_epik_Ionization_Penalty_Charging>
0

> <r_epik_Ionization_Penalty_Neutral>
4.40608e-05

> <r_epik_State_Penalty>
-0

> <r_epik_Charging_Adjusted_Penalty>
0

> <i_epik_Tot_Q>
0

> <i_epik_Tot_abs_Q>
0

> <r_epik_Metal_State_Penalty>
-0

> <b_epik_Metal_Only>
0

> <s_lp_Force_Field>
OPLS_2005

> <r_lp_Energy>
20.8704

> <b_lp_Chiralities_Consistent>
1

> <s_lp_Variant>
AV-unprocessed.smi:2789-1

> <Gold.Version>
5.8.1

> <Gold.Id.Protein>
6NUR|6NUR_protein|mol2

> <Gold.PLP.Fitness>
41.7613

> <Gold.PLP.PLP>
-37.3879

> <Gold.PLP.part.hbond>
-2.0000

> <Gold.PLP.part.metal>
0.0000

> <Gold.PLP.part.buried>
-3.9102

> <Gold.PLP.part.nonpolar>
-31.3827

> <Gold.PLP.part.repulsive>
0.3634

> <Gold.PLP.ligand.clash>
0.0000

> <Gold.PLP.ligand.torsion>
0.6840

> <Gold.PLP.Chemscore.Hbond>
1.9120

> <Gold.PLP.Chemscore.CHOScore>
0.0000

> <Gold.PLP.Chemscore.Metal>
0.0000

> <Gold.Chemscore.Hbonds>
donor molecule, donor type, donor heavy atom, donor atom, acceptor molecule, acceptor atom, score
      L1  H     8    29       P1  8028  0.94
      P1  H  7989  7998       L1     2  1.00

> <Gold.PLP.Chemscore.Internal.Correction>
0.0055

> <Gold.Rescore>
     Score         DG    S(hbond)    S(metal)    S(lipo)     H(rot)  DE(clash)    DE(int)     intcor
     12.60     -15.97       1.55        0.00      73.10       1.27       0.04       3.34       ----

> <Gold.Chemscore.Fitness>
12.5971

> <Gold.Chemscore.DG>
-15.9696

> <Gold.Chemscore.ZeroCoef>
-5.4800

> <Gold.Chemscore.Hbond>
1.5541

> <Gold.Chemscore.Metal>
0.0000

> <Gold.Chemscore.Lipo>
73.1039

> <Gold.Chemscore.Internal_Hbond>
0.0000

> <Gold.Chemscore.DEClash>
0.0354

> <Gold.Chemscore.DEInternal>
3.3371

> <Gold.Chemscore.Rot>
1.2712

> <Gold.Chemscore.Internal.Correction>
   9.000000E+99

> <Gold.Chemscore.Hbonds>
donor molecule, donor type, donor heavy atom, donor atom, acceptor molecule, acceptor atom, score
      L1  H     8    29       P1  8028  0.91
      P1  H  7989  7998       L1     2  0.37

> <Gold.Chemscore.Hbond.Weighted>
-5.1908

> <Gold.Chemscore.Metal.Weighted>
-0.0000

> <Gold.Chemscore.Lipo.Weighted>
-8.5532

> <Gold.Chemscore.Internal_Hbond.Weighted>
0.0000

> <Gold.Chemscore.DEClash.Weighted>
0.0354

> <Gold.Chemscore.DEInternal.Weighted>
3.3371

> <Gold.Chemscore.Rot.Weighted>
3.2544

> <Gold.Chemscore.Internal.Correction.Weighted>
   9.000000E+99

> <Gold.Protein.RotatedTorsions>
[ 6907 6896 6895 6894 ] final  -26.86 input  -60.11 | X-H torsion
[ 7974 7965 7964 7962 ] final  130.54 input  175.53 | X-H torsion
[ 8008 7997 7996 7995 ] final  -54.52 input   59.86 | X-H torsion
[ 10167 10162 10161 10158 ] final  148.96 input  -65.29 | X-H torsion
[ 10718 10713 10712 10709 ] final   44.67 input   66.30 | X-H torsion
[ 10763 10752 10751 10750 ] final   82.56 input  -60.55 | X-H torsion
[ 11005 11000 10999 10996 ] final -117.99 input  -57.11 | X-H torsion

> <Gold.Protein.ActiveResidues>
 VAL166  LYS551  ARG553  GLY616  TRP617  ASP618  TYR619  PRO620  LYS621  CYS622 
 ASP623  PHE694  ASN695  SER759  ASP760  ASP761  ALA762  ILE779  LEU786  VAL792 
 PHE793  MET794  SER795  GLU796  ALA797  LYS798  CYS799  TRP800  GLU811  SER814 

> <Gold.Protein.RotatedAtoms>
  151.1551  135.0246  159.8685 H   0  0  0  0  0  0  0  0  0  0  0  0  # atno 6907 bound_to 6896
  152.5452  134.1344  159.8463 H   0  0  0  0  0  0  0  0  0  0  0  0  # atno 6908 bound_to 6896
  151.1433  133.4910  159.2629 H   0  0  0  0  0  0  0  0  0  0  0  0  # atno 6909 bound_to 6896
  145.0168  139.4169  143.5217 H   0  0  0  0  0  0  0  0  0  0  0  0  # atno 7974 bound_to 7965
  154.4165  140.1174  156.5329 H   0  0  0  0  0  0  0  0  0  0  0  0  # atno 8008 bound_to 7997
  155.6587  140.3496  155.4755 H   0  0  0  0  0  0  0  0  0  0  0  0  # atno 8009 bound_to 7997
  155.9731  140.1145  157.0784 H   0  0  0  0  0  0  0  0  0  0  0  0  # atno 8010 bound_to 7997
  139.4868  144.5639  151.7181 H   0  0  0  0  0  0  0  0  0  0  0  0  # atno 10167 bound_to 10162
  157.4293  130.8015  149.7588 H   0  0  0  0  0  0  0  0  0  0  0  0  # atno 10718 bound_to 10713
  153.1214  135.4723  154.9201 H   0  0  0  0  0  0  0  0  0  0  0  0  # atno 10763 bound_to 10752
  154.7579  135.3123  154.8438 H   0  0  0  0  0  0  0  0  0  0  0  0  # atno 10764 bound_to 10752
  153.9001  135.6876  153.4809 H   0  0  0  0  0  0  0  0  0  0  0  0  # atno 10765 bound_to 10752
  141.0317  133.9971  157.3133 H   0  0  0  0  0  0  0  0  0  0  0  0  # atno 11005 bound_to 11000
  146.3479  139.9643  142.8713 LP  0  0  0  0  0  0  0  0  0  0  0  0  # atno 17320 bound_to 7965
  145.1949  140.9828  143.4189 LP  0  0  0  0  0  0  0  0  0  0  0  0  # atno 17321 bound_to 7965
  140.5214  144.0874  150.6024 LP  0  0  0  0  0  0  0  0  0  0  0  0  # atno 17342 bound_to 10162
  140.3833  143.2791  152.0145 LP  0  0  0  0  0  0  0  0  0  0  0  0  # atno 17343 bound_to 10162
  155.9907  130.3942  150.3015 LP  0  0  0  0  0  0  0  0  0  0  0  0  # atno 17370 bound_to 10713
  157.1170  131.0236  151.3025 LP  0  0  0  0  0  0  0  0  0  0  0  0  # atno 17371 bound_to 10713
  139.9212  135.0200  156.8071 LP  0  0  0  0  0  0  0  0  0  0  0  0  # atno 17394 bound_to 11000
  140.6395  133.9831  155.7700 LP  0  0  0  0  0  0  0  0  0  0  0  0  # atno 17395 bound_to 11000

$$$$
