AV-unprocessed.smi:76|AV-procd|sdf|767|dock6
  -GOLD-   2262017113D 1   1.00000     0.00000
 Structure written by MMmdl.
 55 58  0  0  0  0  0  0  0  0  1 V2000
  150.1855  139.3667  157.8321 C   0  0  0  0  0  0  0  0  0  0  0  0
  150.7820  140.5716  157.0774 C   0  0  2  0  0  0  0  0  0  0  0  0
  151.9266  141.2494  157.8601 C   0  0  0  0  0  0  0  0  0  0  0  0
  151.4186  142.0780  159.0604 C   0  0  1  0  0  0  0  0  0  0  0  0
  152.5687  142.7705  159.8191 C   0  0  0  0  0  0  0  0  0  0  0  0
  152.1279  143.3285  160.9469 F   0  0  0  0  0  0  0  0  0  0  0  0
  153.5156  141.8819  160.1200 F   0  0  0  0  0  0  0  0  0  0  0  0
  153.1135  143.7167  159.0543 F   0  0  0  0  0  0  0  0  0  0  0  0
  150.3591  143.0838  158.5684 C   0  0  0  0  0  0  0  0  0  0  0  0
  149.2272  142.3801  157.8042 C   0  0  0  0  0  0  0  0  0  0  0  0
  149.7631  141.5632  156.7128 N   0  0  0  0  0  0  0  0  0  0  0  0
  148.9061  141.1984  155.7237 C   0  0  0  0  0  0  0  0  0  0  0  0
  149.0674  141.7067  154.4724 N   0  0  0  0  0  0  0  0  0  0  0  0
  148.2289  141.3653  153.4904 C   0  0  0  0  0  0  0  0  0  0  0  0
  147.1795  140.5437  153.5391 N   0  0  0  0  0  0  0  0  0  0  0  0
  147.0108  140.0282  154.7900 C   0  0  0  0  0  0  0  0  0  0  0  0
  147.8230  140.2967  155.9281 C   0  0  0  0  0  0  0  0  0  0  0  0
  147.3598  139.5694  157.0181 N   0  0  0  0  0  0  0  0  0  0  0  0
  146.3316  138.9150  156.5526 C   0  0  0  0  0  0  0  0  0  0  0  0
  146.0380  139.1449  155.2271 N   0  0  0  0  0  0  0  0  0  0  0  0
  144.9605  138.5440  154.4533 C   0  0  0  0  0  0  0  0  0  0  0  0
  145.4163  137.5216  153.3639 C   0  0  0  0  0  0  0  0  0  0  0  0
  146.3998  138.1807  152.3607 C   0  0  0  0  0  0  0  0  0  0  0  0
  146.8164  137.2851  151.3498 O   0  0  0  0  0  0  0  0  0  0  0  0
  146.1028  136.3042  154.0324 C   0  0  0  0  0  0  0  0  0  0  0  0
  145.1120  135.4017  154.7916 C   0  0  0  0  0  0  0  0  0  0  0  0
  144.0759  134.9692  153.9188 O   0  0  0  0  0  0  0  0  0  0  0  0
  143.3122  136.0445  153.3873 C   0  0  0  0  0  0  0  0  0  0  0  0
  144.2200  136.9641  152.5515 C   0  0  0  0  0  0  0  0  0  0  0  0
  150.9609  138.6420  158.0808 H   0  0  0  0  0  0  0  0  0  0  0  0
  149.4430  138.8491  157.2241 H   0  0  0  0  0  0  0  0  0  0  0  0
  149.7003  139.6607  158.7625 H   0  0  0  0  0  0  0  0  0  0  0  0
  151.2297  140.1769  156.1666 H   0  0  0  0  0  0  0  0  0  0  0  0
  152.6430  140.4979  158.1930 H   0  0  0  0  0  0  0  0  0  0  0  0
  152.4731  141.9047  157.1806 H   0  0  0  0  0  0  0  0  0  0  0  0
  150.9339  141.3985  159.7623 H   0  0  0  0  0  0  0  0  0  0  0  0
  149.9405  143.6353  159.4105 H   0  0  0  0  0  0  0  0  0  0  0  0
  150.8268  143.8234  157.9176 H   0  0  0  0  0  0  0  0  0  0  0  0
  148.6481  141.7529  158.4830 H   0  0  0  0  0  0  0  0  0  0  0  0
  148.5458  143.1339  157.4067 H   0  0  0  0  0  0  0  0  0  0  0  0
  148.4275  141.8146  152.5285 H   0  0  0  0  0  0  0  0  0  0  0  0
  145.7541  138.2422  157.1698 H   0  0  0  0  0  0  0  0  0  0  0  0
  144.2759  138.0618  155.1519 H   0  0  0  0  0  0  0  0  0  0  0  0
  144.3869  139.3586  154.0140 H   0  0  0  0  0  0  0  0  0  0  0  0
  145.9307  139.0347  151.8711 H   0  0  0  0  0  0  0  0  0  0  0  0
  147.2819  138.5690  152.8703 H   0  0  0  0  0  0  0  0  0  0  0  0
  147.4538  136.6924  151.7197 H   0  0  0  0  0  0  0  0  0  0  0  0
  146.5964  135.6999  153.2698 H   0  0  0  0  0  0  0  0  0  0  0  0
  146.8909  136.6328  154.7109 H   0  0  0  0  0  0  0  0  0  0  0  0
  145.6322  134.5233  155.1737 H   0  0  0  0  0  0  0  0  0  0  0  0
  144.6876  135.9092  155.6581 H   0  0  0  0  0  0  0  0  0  0  0  0
  142.5247  135.6304  152.7573 H   0  0  0  0  0  0  0  0  0  0  0  0
  142.8142  136.5895  154.1896 H   0  0  0  0  0  0  0  0  0  0  0  0
  143.6358  137.7670  152.1041 H   0  0  0  0  0  0  0  0  0  0  0  0
  144.5963  136.3794  151.7107 H   0  0  0  0  0  0  0  0  0  0  0  0
  1  2  1  0  0  0  0
  1 30  1  0  0  0  0
  1 31  1  0  0  0  0
  1 32  1  0  0  0  0
  2 11  1  0  0  0  0
  2  3  1  0  0  0  0
  2 33  1  0  0  0  0
  3  4  1  0  0  0  0
  3 34  1  0  0  0  0
  3 35  1  0  0  0  0
  4  5  1  0  0  0  0
  4  9  1  0  0  0  0
  4 36  1  0  0  0  0
  5  6  1  0  0  0  0
  5  7  1  0  0  0  0
  5  8  1  0  0  0  0
  9 10  1  0  0  0  0
  9 37  1  0  0  0  0
  9 38  1  0  0  0  0
 10 11  1  0  0  0  0
 10 39  1  0  0  0  0
 10 40  1  0  0  0  0
 11 12  1  0  0  0  0
 12 17  1  0  0  0  0
 12 13  2  0  0  0  0
 13 14  1  0  0  0  0
 14 15  2  0  0  0  0
 14 41  1  0  0  0  0
 15 16  1  0  0  0  0
 16 20  1  0  0  0  0
 16 17  2  0  0  0  0
 17 18  1  0  0  0  0
 18 19  2  0  0  0  0
 19 20  1  0  0  0  0
 19 42  1  0  0  0  0
 20 21  1  0  0  0  0
 21 22  1  0  0  0  0
 21 43  1  0  0  0  0
 21 44  1  0  0  0  0
 22 29  1  0  0  0  0
 22 23  1  0  0  0  0
 22 25  1  0  0  0  0
 23 24  1  0  0  0  0
 23 45  1  0  0  0  0
 23 46  1  0  0  0  0
 24 47  1  0  0  0  0
 25 26  1  0  0  0  0
 25 48  1  0  0  0  0
 25 49  1  0  0  0  0
 26 27  1  0  0  0  0
 26 50  1  0  0  0  0
 26 51  1  0  0  0  0
 27 28  1  0  0  0  0
 28 29  1  0  0  0  0
 28 52  1  0  0  0  0
 28 53  1  0  0  0  0
 29 54  1  0  0  0  0
 29 55  1  0  0  0  0
M  END
> <s_m_source_file>
AV-unprocessed.smi

> <i_m_source_file_index>
76

> <i_lp_mmshare_version>
43012

> <i_f3d_flags>
0

> <s_epik_input>
W0NIM11bQ0BASF0xW0NIMl1bQ0BASF0oQyhGKShGKUYpW0NIMl1bQ0gyXU4xYyhuW2NIXW4yKWMoYzIzKW5bY0hdbjNbQ0gyXUM0KFtDSDJdW09IXSlbQ0gyXVtDSDJdT1tDSDJdW0NIMl00

> <s_epik_cmdline>
J2VwaWtfcHl0aG9uJywgJy1waCcsICc3LjAnLCAnLXRuJywgJzgnLCAnLW1hJywgJzIwMCcsICctbWV0YWxfYmluZGluZycsICctaW1hZScsICc8aW5maWxlLm1hZT4nLCAnLW9tYWUnLCAnPG91dGZpbGUubWFlPic=

> <r_lp_tautomer_probability>
1

> <r_epik_Ionization_Penalty>
0.00244097

> <r_epik_Ionization_Penalty_Charging>
0

> <r_epik_Ionization_Penalty_Neutral>
0.00244097

> <r_epik_State_Penalty>
0.00151846

> <r_epik_Charging_Adjusted_Penalty>
0.00151846

> <i_epik_Tot_Q>
0

> <i_epik_Tot_abs_Q>
0

> <r_epik_Metal_State_Penalty>
-0

> <b_epik_Metal_Only>
0

> <s_lp_Force_Field>
OPLS_2005

> <r_lp_Energy>
36.8654

> <b_lp_Chiralities_Consistent>
1

> <s_lp_Variant>
AV-unprocessed.smi:76-1

> <Gold.Version>
5.8.1

> <Gold.Id.Protein>
6NUR|6NUR_protein|mol2

> <Gold.PLP.Fitness>
43.0830

> <Gold.PLP.PLP>
-37.6253

> <Gold.PLP.part.hbond>
-2.2384

> <Gold.PLP.part.metal>
0.0000

> <Gold.PLP.part.buried>
-2.9235

> <Gold.PLP.part.nonpolar>
-32.4848

> <Gold.PLP.part.repulsive>
0.4938

> <Gold.PLP.ligand.clash>
0.0000

> <Gold.PLP.ligand.torsion>
0.4330

> <Gold.PLP.Chemscore.Hbond>
1.3985

> <Gold.PLP.Chemscore.CHOScore>
0.5219

> <Gold.PLP.Chemscore.Metal>
0.0000

> <Gold.Chemscore.Hbonds>
donor molecule, donor type, donor heavy atom, donor atom, acceptor molecule, acceptor atom, score
      L1  H    24    47       P1  7948  0.96
      P1  H  7954  7966       L1    24  0.46
      L1  C    14    41       P1  7957  0.54

> <Gold.PLP.Chemscore.Internal.Correction>
0.5626

> <Gold.Rescore>
     Score         DG    S(hbond)    S(metal)    S(lipo)     H(rot)  DE(clash)    DE(int)     intcor
      8.33     -10.44       1.00        0.00      67.86       2.47       0.25       1.87       ----

> <Gold.Chemscore.Fitness>
8.3268

> <Gold.Chemscore.DG>
-10.4442

> <Gold.Chemscore.ZeroCoef>
-5.4800

> <Gold.Chemscore.Hbond>
0.9997

> <Gold.Chemscore.Metal>
0.0000

> <Gold.Chemscore.Lipo>
67.8581

> <Gold.Chemscore.Internal_Hbond>
0.0000

> <Gold.Chemscore.DEClash>
0.2461

> <Gold.Chemscore.DEInternal>
1.8713

> <Gold.Chemscore.Rot>
2.4665

> <Gold.Chemscore.Internal.Correction>
   9.000000E+99

> <Gold.Chemscore.Hbonds>
donor molecule, donor type, donor heavy atom, donor atom, acceptor molecule, acceptor atom, score
      L1  H    24    47       P1  7948  0.88
      P1  H  7954  7966       L1    24  0.02

> <Gold.Chemscore.Hbond.Weighted>
-3.3390

> <Gold.Chemscore.Metal.Weighted>
-0.0000

> <Gold.Chemscore.Lipo.Weighted>
-7.9394

> <Gold.Chemscore.Internal_Hbond.Weighted>
0.0000

> <Gold.Chemscore.DEClash.Weighted>
0.2461

> <Gold.Chemscore.DEInternal.Weighted>
1.8713

> <Gold.Chemscore.Rot.Weighted>
6.3142

> <Gold.Chemscore.Internal.Correction.Weighted>
   9.000000E+99

> <Gold.Protein.RotatedTorsions>
[ 6907 6896 6895 6894 ] final  -30.72 input  -60.11 | X-H torsion
[ 7974 7965 7964 7962 ] final  -66.79 input  175.53 | X-H torsion
[ 8008 7997 7996 7995 ] final -148.93 input   59.86 | X-H torsion
[ 10167 10162 10161 10158 ] final   44.04 input  -65.29 | X-H torsion
[ 10718 10713 10712 10709 ] final -150.38 input   66.30 | X-H torsion
[ 10763 10752 10751 10750 ] final   63.95 input  -60.55 | X-H torsion
[ 11005 11000 10999 10996 ] final  119.13 input  -57.11 | X-H torsion

> <Gold.Protein.ActiveResidues>
 VAL166  LYS551  ARG553  GLY616  TRP617  ASP618  TYR619  PRO620  LYS621  CYS622 
 ASP623  PHE694  ASN695  SER759  ASP760  ASP761  ALA762  ILE779  LEU786  VAL792 
 PHE793  MET794  SER795  GLU796  ALA797  LYS798  CYS799  TRP800  GLU811  SER814 

> <Gold.Protein.RotatedAtoms>
  151.1017  134.9976  159.8451 H   0  0  0  0  0  0  0  0  0  0  0  0  # atno 6907 bound_to 6896
  152.5437  134.1942  159.8696 H   0  0  0  0  0  0  0  0  0  0  0  0  # atno 6908 bound_to 6896
  151.1986  133.4580  159.2629 H   0  0  0  0  0  0  0  0  0  0  0  0  # atno 6909 bound_to 6896
  145.7374  140.8969  143.0548 H   0  0  0  0  0  0  0  0  0  0  0  0  # atno 7974 bound_to 7965
  155.5995  140.0660  157.2737 H   0  0  0  0  0  0  0  0  0  0  0  0  # atno 8008 bound_to 7997
  154.4283  140.1821  156.1205 H   0  0  0  0  0  0  0  0  0  0  0  0  # atno 8009 bound_to 7997
  156.0170  140.3321  155.7003 H   0  0  0  0  0  0  0  0  0  0  0  0  # atno 8010 bound_to 7997
  140.3383  144.2502  150.6159 H   0  0  0  0  0  0  0  0  0  0  0  0  # atno 10167 bound_to 10162
  156.4454  130.8142  151.2372 H   0  0  0  0  0  0  0  0  0  0  0  0  # atno 10718 bound_to 10713
  153.0037  135.5410  154.6433 H   0  0  0  0  0  0  0  0  0  0  0  0  # atno 10763 bound_to 10752
  154.5683  135.2839  155.0855 H   0  0  0  0  0  0  0  0  0  0  0  0  # atno 10764 bound_to 10752
  154.2030  135.6480  153.5145 H   0  0  0  0  0  0  0  0  0  0  0  0  # atno 10765 bound_to 10752
  139.9135  134.9626  156.7608 H   0  0  0  0  0  0  0  0  0  0  0  0  # atno 11005 bound_to 11000
  144.6878  139.9413  143.7475 LP  0  0  0  0  0  0  0  0  0  0  0  0  # atno 17320 bound_to 7965
  146.0481  139.3484  143.0656 LP  0  0  0  0  0  0  0  0  0  0  0  0  # atno 17321 bound_to 7965
  140.5333  143.2239  151.8204 LP  0  0  0  0  0  0  0  0  0  0  0  0  # atno 17342 bound_to 10162
  139.4844  144.4693  151.9444 LP  0  0  0  0  0  0  0  0  0  0  0  0  # atno 17343 bound_to 10162
  157.7505  131.0155  150.3506 LP  0  0  0  0  0  0  0  0  0  0  0  0  # atno 17370 bound_to 10713
  156.3872  130.3891  149.7056 LP  0  0  0  0  0  0  0  0  0  0  0  0  # atno 17371 bound_to 10713
  140.6699  133.9569  155.7851 LP  0  0  0  0  0  0  0  0  0  0  0  0  # atno 17394 bound_to 11000
  141.0585  134.0381  157.3690 LP  0  0  0  0  0  0  0  0  0  0  0  0  # atno 17395 bound_to 11000

$$$$
