AV-unprocessed.smi:1981|AV-procd|sdf|8019|dock6
  -GOLD-   2272010213D 1   1.00000     0.00000
 Structure written by MMmdl.
 45 46  0  0  0  0  0  0  0  0  1 V2000
  147.6602  136.1241  162.4808 C   0  0  0  0  0  0  0  0  0  0  0  0
  147.5811  137.0808  161.4387 O   0  0  0  0  0  0  0  0  0  0  0  0
  147.6426  136.4873  160.1532 C   0  0  0  0  0  0  0  0  0  0  0  0
  149.1137  136.3720  159.7271 C   0  0  0  0  0  0  0  0  0  0  0  0
  149.2954  136.7393  158.3194 N   0  0  0  0  0  0  0  0  0  0  0  0
  149.9580  137.9407  158.1320 N   0  0  0  0  0  0  0  0  0  0  0  0
  150.1888  138.3765  156.9357 C   0  0  0  0  0  0  0  0  0  0  0  0
  150.8989  139.6627  156.6926 C   0  0  0  0  0  0  0  0  0  0  0  0
  151.0854  140.0985  155.5552 O   0  0  0  0  0  0  0  0  0  0  0  0
  151.3179  140.3050  157.7979 N   0  0  0  0  0  0  0  0  0  0  0  0
  152.0307  141.5780  157.8201 C   0  0  0  0  0  0  0  0  0  0  0  0
  152.7049  141.8040  159.1937 C   0  0  0  0  0  0  0  0  0  0  0  0
  153.2772  143.2279  159.3090 C   0  0  0  0  0  0  0  0  0  0  0  0
  152.1994  144.1911  159.0575 N   0  0  0  0  0  0  0  0  0  0  0  0
  151.6543  144.9519  160.0369 C   0  0  0  0  0  0  0  0  0  0  0  0
  152.2372  144.8831  161.4502 C   0  0  0  0  0  0  0  0  0  0  0  0
  150.7042  145.7097  159.8397 O   0  0  0  0  0  0  0  0  0  0  0  0
  151.7065  144.0999  157.6777 C   0  0  0  0  0  0  0  0  0  0  0  0
  151.0514  142.7217  157.4775 C   0  0  0  0  0  0  0  0  0  0  0  0
  149.7600  137.6188  155.7722 C   0  0  0  0  0  0  0  0  0  0  0  0
  149.1202  136.4455  155.9709 C   0  0  0  0  0  0  0  0  0  0  0  0
  148.8514  135.9272  157.3133 C   0  0  0  0  0  0  0  0  0  0  0  0
  148.2818  134.8562  157.5201 O   0  0  0  0  0  0  0  0  0  0  0  0
  147.6117  136.6281  163.4461 H   0  0  0  0  0  0  0  0  0  0  0  0
  148.5987  135.5701  162.4375 H   0  0  0  0  0  0  0  0  0  0  0  0
  146.8326  135.4156  162.4287 H   0  0  0  0  0  0  0  0  0  0  0  0
  147.1807  135.4988  160.1780 H   0  0  0  0  0  0  0  0  0  0  0  0
  147.0862  137.0939  159.4370 H   0  0  0  0  0  0  0  0  0  0  0  0
  149.7396  136.9941  160.3692 H   0  0  0  0  0  0  0  0  0  0  0  0
  149.4583  135.3492  159.8903 H   0  0  0  0  0  0  0  0  0  0  0  0
  151.1244  139.8763  158.6917 H   0  0  0  0  0  0  0  0  0  0  0  0
  152.8069  141.5652  157.0526 H   0  0  0  0  0  0  0  0  0  0  0  0
  151.9786  141.6460  159.9928 H   0  0  0  0  0  0  0  0  0  0  0  0
  153.4989  141.0733  159.3506 H   0  0  0  0  0  0  0  0  0  0  0  0
  153.7459  143.3624  160.2847 H   0  0  0  0  0  0  0  0  0  0  0  0
  154.0723  143.3730  158.5762 H   0  0  0  0  0  0  0  0  0  0  0  0
  153.2924  145.1577  161.4471 H   0  0  0  0  0  0  0  0  0  0  0  0
  152.1314  143.8798  161.8635 H   0  0  0  0  0  0  0  0  0  0  0  0
  151.7161  145.5737  162.1144 H   0  0  0  0  0  0  0  0  0  0  0  0
  151.0035  144.8878  157.4118 H   0  0  0  0  0  0  0  0  0  0  0  0
  152.5450  144.2162  156.9895 H   0  0  0  0  0  0  0  0  0  0  0  0
  150.7037  142.6205  156.4488 H   0  0  0  0  0  0  0  0  0  0  0  0
  150.1655  142.6539  158.1112 H   0  0  0  0  0  0  0  0  0  0  0  0
  149.9452  137.9771  154.7698 H   0  0  0  0  0  0  0  0  0  0  0  0
  148.7969  135.8712  155.1150 H   0  0  0  0  0  0  0  0  0  0  0  0
  1  2  1  0  0  0  0
  1 24  1  0  0  0  0
  1 25  1  0  0  0  0
  1 26  1  0  0  0  0
  2  3  1  0  0  0  0
  3  4  1  0  0  0  0
  3 27  1  0  0  0  0
  3 28  1  0  0  0  0
  4  5  1  0  0  0  0
  4 29  1  0  0  0  0
  4 30  1  0  0  0  0
  5 22  1  0  0  0  0
  5  6  1  0  0  0  0
  6  7  2  0  0  0  0
  7  8  1  0  0  0  0
  7 20  1  0  0  0  0
  8  9  2  0  0  0  0
  8 10  1  0  0  0  0
 10 11  1  0  0  0  0
 10 31  1  0  0  0  0
 11 19  1  0  0  0  0
 11 12  1  0  0  0  0
 11 32  1  0  0  0  0
 12 13  1  0  0  0  0
 12 33  1  0  0  0  0
 12 34  1  0  0  0  0
 13 14  1  0  0  0  0
 13 35  1  0  0  0  0
 13 36  1  0  0  0  0
 14 15  1  0  0  0  0
 14 18  1  0  0  0  0
 15 16  1  0  0  0  0
 15 17  2  0  0  0  0
 16 37  1  0  0  0  0
 16 38  1  0  0  0  0
 16 39  1  0  0  0  0
 18 19  1  0  0  0  0
 18 40  1  0  0  0  0
 18 41  1  0  0  0  0
 19 42  1  0  0  0  0
 19 43  1  0  0  0  0
 20 21  2  0  0  0  0
 20 44  1  0  0  0  0
 21 22  1  0  0  0  0
 21 45  1  0  0  0  0
 22 23  2  0  0  0  0
M  END
> <s_m_source_file>
AV-unprocessed.smi

> <i_m_source_file_index>
1981

> <i_lp_mmshare_version>
43012

> <i_f3d_flags>
0

> <s_epik_input>
W0NIM11PW0NIMl1bQ0gyXW4xbmMoW2NIXVtjSF1jMT1PKUMoPU8pW05IXVtDSF0yW0NIMl1bQ0gyXU4oQyg9TylbQ0gzXSlbQ0gyXVtDSDJdMg==

> <s_epik_cmdline>
J2VwaWtfcHl0aG9uJywgJy1waCcsICc3LjAnLCAnLXRuJywgJzgnLCAnLW1hJywgJzIwMCcsICctbWV0YWxfYmluZGluZycsICctaW1hZScsICc8aW5maWxlLm1hZT4nLCAnLW9tYWUnLCAnPG91dGZpbGUubWFlPic=

> <r_lp_tautomer_probability>
1

> <r_epik_Ionization_Penalty>
2.32097e-06

> <r_epik_Ionization_Penalty_Charging>
6.14723e-09

> <r_epik_Ionization_Penalty_Neutral>
2.31482e-06

> <r_epik_State_Penalty>
-0

> <r_epik_Charging_Adjusted_Penalty>
6.14723e-09

> <i_epik_Tot_Q>
0

> <i_epik_Tot_abs_Q>
0

> <r_epik_Metal_State_Penalty>
-0

> <b_epik_Metal_Only>
0

> <s_lp_Force_Field>
OPLS_2005

> <r_lp_Energy>
40.8399

> <b_lp_Chiralities_Consistent>
1

> <s_lp_Variant>
AV-unprocessed.smi:1981-1

> <Gold.Version>
5.8.1

> <Gold.Id.Protein>
6NUR|6NUR_protein|mol2

> <Gold.PLP.Fitness>
45.0575

> <Gold.PLP.PLP>
-39.6530

> <Gold.PLP.part.hbond>
-4.1216

> <Gold.PLP.part.metal>
0.0000

> <Gold.PLP.part.buried>
-3.8008

> <Gold.PLP.part.nonpolar>
-32.3282

> <Gold.PLP.part.repulsive>
0.3195

> <Gold.PLP.ligand.clash>
0.0000

> <Gold.PLP.ligand.torsion>
0.7767

> <Gold.PLP.Chemscore.Hbond>
2.3108

> <Gold.PLP.Chemscore.CHOScore>
0.0000

> <Gold.PLP.Chemscore.Metal>
0.0000

> <Gold.Chemscore.Hbonds>
donor molecule, donor type, donor heavy atom, donor atom, acceptor molecule, acceptor atom, score
      P1  H  6931  6943       L1     2  1.00
      P1  H  6934  6947       L1     2  0.84
      P1  H  7989  7998       L1     9  0.42

> <Gold.PLP.Chemscore.Internal.Correction>
0.0257

> <Gold.Rescore>
     Score         DG    S(hbond)    S(metal)    S(lipo)     H(rot)  DE(clash)    DE(int)     intcor
     16.84     -17.79       1.89        0.00      88.05       1.69       0.07       0.88       ----

> <Gold.Chemscore.Fitness>
16.8390

> <Gold.Chemscore.DG>
-17.7914

> <Gold.Chemscore.ZeroCoef>
-5.4800

> <Gold.Chemscore.Hbond>
1.8940

> <Gold.Chemscore.Metal>
0.0000

> <Gold.Chemscore.Lipo>
88.0488

> <Gold.Chemscore.Internal_Hbond>
0.0000

> <Gold.Chemscore.DEClash>
0.0728

> <Gold.Chemscore.DEInternal>
0.8795

> <Gold.Chemscore.Rot>
1.6861

> <Gold.Chemscore.Internal.Correction>
   9.000000E+99

> <Gold.Chemscore.Hbonds>
donor molecule, donor type, donor heavy atom, donor atom, acceptor molecule, acceptor atom, score
      P1  H  6931  6943       L1     2  0.27
      P1  H  6934  6947       L1     2  0.23
      P1  H  7989  7998       L1     9  0.42

> <Gold.Chemscore.Hbond.Weighted>
-6.3261

> <Gold.Chemscore.Metal.Weighted>
-0.0000

> <Gold.Chemscore.Lipo.Weighted>
-10.3017

> <Gold.Chemscore.Internal_Hbond.Weighted>
0.0000

> <Gold.Chemscore.DEClash.Weighted>
0.0728

> <Gold.Chemscore.DEInternal.Weighted>
0.8795

> <Gold.Chemscore.Rot.Weighted>
4.3164

> <Gold.Chemscore.Internal.Correction.Weighted>
   9.000000E+99

> <Gold.Protein.RotatedTorsions>
[ 6907 6896 6895 6894 ] final   97.58 input  -60.11 | X-H torsion
[ 7974 7965 7964 7962 ] final  -66.36 input  175.53 | X-H torsion
[ 8008 7997 7996 7995 ] final -101.16 input   59.86 | X-H torsion
[ 10167 10162 10161 10158 ] final -112.20 input  -65.29 | X-H torsion
[ 10718 10713 10712 10709 ] final  -97.72 input   66.30 | X-H torsion
[ 10763 10752 10751 10750 ] final   62.38 input  -60.55 | X-H torsion
[ 11005 11000 10999 10996 ] final   66.03 input  -57.11 | X-H torsion

> <Gold.Protein.ActiveResidues>
 VAL166  LYS551  ARG553  GLY616  TRP617  ASP618  TYR619  PRO620  LYS621  CYS622 
 ASP623  PHE694  ASN695  SER759  ASP760  ASP761  ALA762  ILE779  LEU786  VAL792 
 PHE793  MET794  SER795  GLU796  ALA797  LYS798  CYS799  TRP800  GLU811  SER814 

> <Gold.Protein.RotatedAtoms>
  152.5421  134.0712  159.8194 H   0  0  0  0  0  0  0  0  0  0  0  0  # atno 6907 bound_to 6896
  151.0826  133.5371  159.2627 H   0  0  0  0  0  0  0  0  0  0  0  0  # atno 6908 bound_to 6896
  151.2192  135.0520  159.8997 H   0  0  0  0  0  0  0  0  0  0  0  0  # atno 6909 bound_to 6896
  145.7427  140.8946  143.0521 H   0  0  0  0  0  0  0  0  0  0  0  0  # atno 7974 bound_to 7965
  154.8387  140.0436  157.1527 H   0  0  0  0  0  0  0  0  0  0  0  0  # atno 8008 bound_to 7997
  154.9070  140.3008  155.5266 H   0  0  0  0  0  0  0  0  0  0  0  0  # atno 8009 bound_to 7997
  156.2991  140.2365  156.4105 H   0  0  0  0  0  0  0  0  0  0  0  0  # atno 8010 bound_to 7997
  140.1254  143.4407  152.1663 H   0  0  0  0  0  0  0  0  0  0  0  0  # atno 10167 bound_to 10162
  156.0090  130.5206  150.6416 H   0  0  0  0  0  0  0  0  0  0  0  0  # atno 10718 bound_to 10713
  152.9981  135.5467  154.6183 H   0  0  0  0  0  0  0  0  0  0  0  0  # atno 10763 bound_to 10752
  154.5488  135.2825  155.1030 H   0  0  0  0  0  0  0  0  0  0  0  0  # atno 10764 bound_to 10752
  154.2277  135.6439  153.5218 H   0  0  0  0  0  0  0  0  0  0  0  0  # atno 10765 bound_to 10752
  139.9857  134.6671  156.0180 H   0  0  0  0  0  0  0  0  0  0  0  0  # atno 11005 bound_to 11000
  144.6867  139.9483  143.7477 LP  0  0  0  0  0  0  0  0  0  0  0  0  # atno 17320 bound_to 7965
  146.0432  139.3441  143.0684 LP  0  0  0  0  0  0  0  0  0  0  0  0  # atno 17321 bound_to 7965
  139.5547  144.7364  151.4329 LP  0  0  0  0  0  0  0  0  0  0  0  0  # atno 17342 bound_to 10162
  140.6848  143.7999  150.7171 LP  0  0  0  0  0  0  0  0  0  0  0  0  # atno 17343 bound_to 10162
  157.4195  131.0835  151.1145 LP  0  0  0  0  0  0  0  0  0  0  0  0  # atno 17370 bound_to 10713
  157.1751  130.6284  149.5653 LP  0  0  0  0  0  0  0  0  0  0  0  0  # atno 17371 bound_to 10713
  141.1522  133.6547  156.4050 LP  0  0  0  0  0  0  0  0  0  0  0  0  # atno 17394 bound_to 11000
  140.5007  134.6489  157.5247 LP  0  0  0  0  0  0  0  0  0  0  0  0  # atno 17395 bound_to 11000

$$$$
