AV-unprocessed.smi:2100|AV-procd|sdf|8576|dock2
  -GOLD-   2272011303D 1   1.00000     0.00000
 Structure written by MMmdl.
 40 41  0  0  0  0  0  0  0  0  2 V2000
  155.0143  136.5255  164.4526 C   0  0  0  0  0  0  0  0  0  0  0  0
  155.0832  137.6531  163.4171 C   0  0  2  0  0  0  0  0  0  0  0  0
  154.5510  137.2038  162.0468 C   0  0  0  0  0  0  0  0  0  0  0  0
  154.7395  138.2600  161.0347 N   0  0  0  0  0  0  0  0  0  0  0  0
  153.8942  138.0908  159.5271 S   0  0  0  0  0  0  0  0  0  0  0  0
  154.9031  138.2067  158.4616 O   0  0  0  0  0  0  0  0  0  0  0  0
  153.1436  136.8283  159.6299 O   0  0  0  0  0  0  0  0  0  0  0  0
  152.9778  139.4192  159.6631 N   0  5  0  0  0  0  0  0  0  0  0  0
  153.5525  140.7209  159.3702 C   0  0  0  0  0  0  0  0  0  0  0  0
  153.1177  141.7464  160.4429 C   0  0  0  0  0  0  0  0  0  0  0  0
  152.5398  143.0511  159.8960 C   0  0  0  0  0  0  0  0  0  0  0  0
  152.3698  143.2354  158.5044 C   0  0  0  0  0  0  0  0  0  0  0  0
  151.8351  144.4532  158.0438 C   0  0  0  0  0  0  0  0  0  0  0  0
  151.4790  145.4368  158.9860 C   0  0  0  0  0  0  0  0  0  0  0  0
  151.6753  145.1565  160.3528 C   0  0  0  0  0  0  0  0  0  0  0  0
  152.1892  143.9931  160.8059 N   0  0  0  0  0  0  0  0  0  0  0  0
  156.1269  138.7474  160.9755 C   0  0  0  0  0  0  0  0  0  0  0  0
  156.6598  139.1211  162.3730 C   0  0  1  0  0  0  0  0  0  0  0  0
  156.1169  140.4643  162.8935 C   0  0  0  0  0  0  0  0  0  0  0  0
  156.4419  138.0594  163.2988 O   0  0  0  0  0  0  0  0  0  0  0  0
  153.9879  136.1848  164.5918 H   0  0  0  0  0  0  0  0  0  0  0  0
  155.3875  136.8616  165.4201 H   0  0  0  0  0  0  0  0  0  0  0  0
  155.6128  135.6682  164.1433 H   0  0  0  0  0  0  0  0  0  0  0  0
  154.4793  138.4818  163.7868 H   0  0  0  0  0  0  0  0  0  0  0  0
  155.0685  136.3035  161.7133 H   0  0  0  0  0  0  0  0  0  0  0  0
  153.4968  136.9437  162.1370 H   0  0  0  0  0  0  0  0  0  0  0  0
  154.6416  140.6720  159.3512 H   0  0  0  0  0  0  0  0  0  0  0  0
  153.2552  141.0878  158.3871 H   0  0  0  0  0  0  0  0  0  0  0  0
  152.3901  141.2916  161.1165 H   0  0  0  0  0  0  0  0  0  0  0  0
  153.9788  141.9913  161.0659 H   0  0  0  0  0  0  0  0  0  0  0  0
  152.6588  142.4634  157.8060 H   0  0  0  0  0  0  0  0  0  0  0  0
  151.7014  144.6292  156.9868 H   0  0  0  0  0  0  0  0  0  0  0  0
  151.0655  146.3827  158.6695 H   0  0  0  0  0  0  0  0  0  0  0  0
  151.4113  145.8874  161.1029 H   0  0  0  0  0  0  0  0  0  0  0  0
  156.7475  137.9641  160.5390 H   0  0  0  0  0  0  0  0  0  0  0  0
  156.1952  139.6086  160.3110 H   0  0  0  0  0  0  0  0  0  0  0  0
  157.7415  139.2317  162.2940 H   0  0  0  0  0  0  0  0  0  0  0  0
  156.4285  141.2836  162.2456 H   0  0  0  0  0  0  0  0  0  0  0  0
  156.4929  140.6744  163.8950 H   0  0  0  0  0  0  0  0  0  0  0  0
  155.0278  140.4824  162.9316 H   0  0  0  0  0  0  0  0  0  0  0  0
  1  2  1  0  0  0  0
  1 21  1  0  0  0  0
  1 22  1  0  0  0  0
  1 23  1  0  0  0  0
  2 20  1  0  0  0  0
  2  3  1  0  0  0  0
  2 24  1  0  0  0  0
  3  4  1  0  0  0  0
  3 25  1  0  0  0  0
  3 26  1  0  0  0  0
  4  5  1  0  0  0  0
  4 17  1  0  0  0  0
  5  6  2  0  0  0  0
  5  7  2  0  0  0  0
  5  8  1  0  0  0  0
  8  9  1  0  0  0  0
  9 10  1  0  0  0  0
  9 27  1  0  0  0  0
  9 28  1  0  0  0  0
 10 11  1  0  0  0  0
 10 29  1  0  0  0  0
 10 30  1  0  0  0  0
 11 16  1  0  0  0  0
 11 12  2  0  0  0  0
 12 13  1  0  0  0  0
 12 31  1  0  0  0  0
 13 14  2  0  0  0  0
 13 32  1  0  0  0  0
 14 15  1  0  0  0  0
 14 33  1  0  0  0  0
 15 16  2  0  0  0  0
 15 34  1  0  0  0  0
 17 18  1  0  0  0  0
 17 35  1  0  0  0  0
 17 36  1  0  0  0  0
 18 19  1  0  0  0  0
 18 20  1  0  0  0  0
 18 37  1  0  0  0  0
 19 38  1  0  0  0  0
 19 39  1  0  0  0  0
 19 40  1  0  0  0  0
M  CHG  1   8  -1
M  END
> <s_m_source_file>
AV-unprocessed.smi

> <i_m_source_file_index>
2100

> <i_lp_mmshare_version>
43012

> <i_f3d_flags>
0

> <s_epik_input>
W0NIM11bQ0BASF0xW0NIMl1OKFtDSDJdW0NASF0oTzEpW0NIM10pUyg9TykoPU8pW05IXVtDSDJdW0NIMl1jMltjSF1bY0hdW2NIXVtjSF1uMg==

> <s_epik_cmdline>
J2VwaWtfcHl0aG9uJywgJy1waCcsICc3LjAnLCAnLXRuJywgJzgnLCAnLW1hJywgJzIwMCcsICctbWV0YWxfYmluZGluZycsICctaW1hZScsICc8aW5maWxlLm1hZT4nLCAnLW9tYWUnLCAnPG91dGZpbGUubWFlPic=

> <r_epik_Ionization_Penalty>
1.27779

> <r_epik_Ionization_Penalty_Charging>
1.20871

> <r_epik_Ionization_Penalty_Neutral>
0.0690773

> <r_epik_State_Penalty>
1.64557

> <r_epik_Charging_Adjusted_Penalty>
2.85428

> <i_epik_Tot_Q>
-1

> <i_epik_Tot_abs_Q>
1

> <r_epik_Metal_State_Penalty>
0.643506

> <b_epik_Metal_Only>
0

> <s_lp_Force_Field>
OPLS_2005

> <r_lp_Energy>
11.2488

> <b_lp_Chiralities_Consistent>
1

> <s_lp_Variant>
AV-unprocessed.smi:2100-4

> <Gold.Version>
5.8.1

> <Gold.Id.Protein>
6NUR|6NUR_protein|mol2

> <Gold.PLP.Fitness>
47.4857

> <Gold.PLP.PLP>
-44.1776

> <Gold.PLP.part.hbond>
-1.6984

> <Gold.PLP.part.metal>
0.0000

> <Gold.PLP.part.buried>
-4.0754

> <Gold.PLP.part.nonpolar>
-38.3135

> <Gold.PLP.part.repulsive>
0.1211

> <Gold.PLP.ligand.clash>
0.0000

> <Gold.PLP.ligand.torsion>
1.2775

> <Gold.PLP.Chemscore.Hbond>
1.4463

> <Gold.PLP.Chemscore.CHOScore>
0.0000

> <Gold.PLP.Chemscore.Metal>
0.0000

> <Gold.Chemscore.Hbonds>
donor molecule, donor type, donor heavy atom, donor atom, acceptor molecule, acceptor atom, score
      P1  H  6896  6909       L1     7  0.70
      P1  H  7997  8008       L1     6  0.76

> <Gold.PLP.Chemscore.Internal.Correction>
1.5243

> <Gold.Rescore>
     Score         DG    S(hbond)    S(metal)    S(lipo)     H(rot)  DE(clash)    DE(int)     intcor
     19.26     -20.52       1.52        0.00     117.48       1.47       0.00       1.26       ----

> <Gold.Chemscore.Fitness>
19.2605

> <Gold.Chemscore.DG>
-20.5211

> <Gold.Chemscore.ZeroCoef>
-5.4800

> <Gold.Chemscore.Hbond>
1.5171

> <Gold.Chemscore.Metal>
0.0000

> <Gold.Chemscore.Lipo>
117.4794

> <Gold.Chemscore.Internal_Hbond>
0.0000

> <Gold.Chemscore.DEClash>
0.0000

> <Gold.Chemscore.DEInternal>
1.2606

> <Gold.Chemscore.Rot>
1.4731

> <Gold.Chemscore.Internal.Correction>
   9.000000E+99

> <Gold.Chemscore.Hbonds>
donor molecule, donor type, donor heavy atom, donor atom, acceptor molecule, acceptor atom, score
      P1  H  6896  6909       L1     7  0.70
      P1  H  7997  8008       L1     6  0.71

> <Gold.Chemscore.Hbond.Weighted>
-5.0672

> <Gold.Chemscore.Metal.Weighted>
-0.0000

> <Gold.Chemscore.Lipo.Weighted>
-13.7451

> <Gold.Chemscore.Internal_Hbond.Weighted>
0.0000

> <Gold.Chemscore.DEClash.Weighted>
0.0000

> <Gold.Chemscore.DEInternal.Weighted>
1.2606

> <Gold.Chemscore.Rot.Weighted>
3.7712

> <Gold.Chemscore.Internal.Correction.Weighted>
   9.000000E+99

> <Gold.Protein.RotatedTorsions>
[ 6907 6896 6895 6894 ] final  140.99 input  -60.11 | X-H torsion
[ 7974 7965 7964 7962 ] final   68.22 input  175.53 | X-H torsion
[ 8008 7997 7996 7995 ] final -119.70 input   59.86 | X-H torsion
[ 10167 10162 10161 10158 ] final   11.05 input  -65.29 | X-H torsion
[ 10718 10713 10712 10709 ] final   41.46 input   66.30 | X-H torsion
[ 10763 10752 10751 10750 ] final   75.92 input  -60.55 | X-H torsion
[ 11005 11000 10999 10996 ] final -153.44 input  -57.11 | X-H torsion

> <Gold.Protein.ActiveResidues>
 VAL166  LYS551  ARG553  GLY616  TRP617  ASP618  TYR619  PRO620  LYS621  CYS622 
 ASP623  PHE694  ASN695  SER759  ASP760  ASP761  ALA762  ILE779  LEU786  VAL792 
 PHE793  MET794  SER795  GLU796  ALA797  LYS798  CYS799  TRP800  GLU811  SER814 

> <Gold.Protein.RotatedAtoms>
  152.2364  133.5099  159.5244 H   0  0  0  0  0  0  0  0  0  0  0  0  # atno 6907 bound_to 6896
  150.7052  134.1148  159.4022 H   0  0  0  0  0  0  0  0  0  0  0  0  # atno 6908 bound_to 6896
  151.9069  135.0355  160.0562 H   0  0  0  0  0  0  0  0  0  0  0  0  # atno 6909 bound_to 6896
  145.8053  139.3003  143.1131 H   0  0  0  0  0  0  0  0  0  0  0  0  # atno 7974 bound_to 7965
  155.1200  140.0398  157.2747 H   0  0  0  0  0  0  0  0  0  0  0  0  # atno 8008 bound_to 7997
  154.6621  140.2593  155.7072 H   0  0  0  0  0  0  0  0  0  0  0  0  # atno 8009 bound_to 7997
  156.2623  140.2815  156.1097 H   0  0  0  0  0  0  0  0  0  0  0  0  # atno 8010 bound_to 7997
  140.6156  143.8315  150.7115 H   0  0  0  0  0  0  0  0  0  0  0  0  # atno 10167 bound_to 10162
  157.3938  130.7821  149.7292 H   0  0  0  0  0  0  0  0  0  0  0  0  # atno 10718 bound_to 10713
  153.0688  135.4971  154.8259 H   0  0  0  0  0  0  0  0  0  0  0  0  # atno 10763 bound_to 10752
  154.6993  135.2998  154.9367 H   0  0  0  0  0  0  0  0  0  0  0  0  # atno 10764 bound_to 10752
  154.0097  135.6756  153.4817 H   0  0  0  0  0  0  0  0  0  0  0  0  # atno 10765 bound_to 10752
  140.7081  134.3863  157.5201 H   0  0  0  0  0  0  0  0  0  0  0  0  # atno 11005 bound_to 11000
  145.9835  140.8663  143.0102 LP  0  0  0  0  0  0  0  0  0  0  0  0  # atno 17320 bound_to 7965
  144.6764  140.2114  143.7376 LP  0  0  0  0  0  0  0  0  0  0  0  0  # atno 17321 bound_to 7965
  140.1893  143.4049  152.1875 LP  0  0  0  0  0  0  0  0  0  0  0  0  # atno 17342 bound_to 10162
  139.5396  144.7243  151.4778 LP  0  0  0  0  0  0  0  0  0  0  0  0  # atno 17343 bound_to 10162
  155.9805  130.4029  150.3524 LP  0  0  0  0  0  0  0  0  0  0  0  0  # atno 17370 bound_to 10713
  157.1643  131.0353  151.2826 LP  0  0  0  0  0  0  0  0  0  0  0  0  # atno 17371 bound_to 10713
  139.8879  134.8871  156.2505 LP  0  0  0  0  0  0  0  0  0  0  0  0  # atno 17394 bound_to 11000
  141.0107  133.7097  156.1108 LP  0  0  0  0  0  0  0  0  0  0  0  0  # atno 17395 bound_to 11000

$$$$
