AV-unprocessed.smi:1697|AV-procd|sdf|6812|dock3
  -GOLD-   22720 7593D 1   1.00000     0.00000
 Structure written by MMmdl.
 53 55  0  0  0  0  0  0  0  0  1 V2000
  150.4939  142.0438  156.7612 C   0  0  0  0  0  0  0  0  0  0  0  0
  151.8029  141.5644  156.1186 C   0  0  0  0  0  0  0  0  0  0  0  0
  151.5684  140.7918  154.9483 O   0  0  0  0  0  0  0  0  0  0  0  0
  151.8165  139.3972  155.0829 C   0  0  0  0  0  0  0  0  0  0  0  0
  151.2734  138.6581  153.8494 C   0  0  0  0  0  0  0  0  0  0  0  0
  151.3713  137.1368  154.0523 C   0  0  0  0  0  0  0  0  0  0  0  0
  150.6579  136.6771  155.2458 N   0  0  0  0  0  0  0  0  0  0  0  0
  150.7297  135.2179  155.3543 C   0  0  0  0  0  0  0  0  0  0  0  0
  149.5837  134.4389  154.6770 C   0  0  1  0  0  0  0  0  0  0  0  0
  148.7710  135.3606  153.9772 O   0  0  0  0  0  0  0  0  0  0  0  0
  150.1243  133.3876  153.6893 C   0  0  0  0  0  0  0  0  0  0  0  0
  149.1567  132.3438  153.4005 N   0  0  0  0  0  0  0  0  0  0  0  0
  149.2529  131.0405  153.7258 C   0  0  0  0  0  0  0  0  0  0  0  0
  148.2509  130.2457  153.3618 N   0  0  0  0  0  0  0  0  0  0  0  0
  147.4052  131.1381  152.7255 C   0  0  0  0  0  0  0  0  0  0  0  0
  146.1546  130.9301  152.1036 C   0  0  0  0  0  0  0  0  0  0  0  0
  145.4557  132.0024  151.5050 C   0  0  0  0  0  0  0  0  0  0  0  0
  144.1149  131.7327  150.8451 C   0  0  0  0  0  0  0  0  0  0  0  0
  146.0067  133.3089  151.5246 C   0  0  0  0  0  0  0  0  0  0  0  0
  145.2738  134.4761  150.8873 C   0  0  0  0  0  0  0  0  0  0  0  0
  147.2546  133.5343  152.1427 C   0  0  0  0  0  0  0  0  0  0  0  0
  147.9420  132.4589  152.7328 C   0  0  0  0  0  0  0  0  0  0  0  0
  151.1973  137.3527  156.4319 C   0  0  0  0  0  0  0  0  0  0  0  0
  151.0968  138.8851  156.3394 C   0  0  0  0  0  0  0  0  0  0  0  0
  150.6929  142.5675  157.6964 H   0  0  0  0  0  0  0  0  0  0  0  0
  149.8375  141.2022  156.9837 H   0  0  0  0  0  0  0  0  0  0  0  0
  149.9522  142.7303  156.1107 H   0  0  0  0  0  0  0  0  0  0  0  0
  152.4645  142.4037  155.8988 H   0  0  0  0  0  0  0  0  0  0  0  0
  152.3342  140.9313  156.8294 H   0  0  0  0  0  0  0  0  0  0  0  0
  152.8828  139.1854  155.1863 H   0  0  0  0  0  0  0  0  0  0  0  0
  150.2326  138.9366  153.6781 H   0  0  0  0  0  0  0  0  0  0  0  0
  151.8250  138.9528  152.9566 H   0  0  0  0  0  0  0  0  0  0  0  0
  150.9651  136.6417  153.1692 H   0  0  0  0  0  0  0  0  0  0  0  0
  152.4212  136.8453  154.1125 H   0  0  0  0  0  0  0  0  0  0  0  0
  151.6701  134.8671  154.9262 H   0  0  0  0  0  0  0  0  0  0  0  0
  150.7716  134.9465  156.4104 H   0  0  0  0  0  0  0  0  0  0  0  0
  148.9671  133.9280  155.4149 H   0  0  0  0  0  0  0  0  0  0  0  0
  149.1559  135.5099  153.1269 H   0  0  0  0  0  0  0  0  0  0  0  0
  150.4244  133.8590  152.7525 H   0  0  0  0  0  0  0  0  0  0  0  0
  151.0182  132.9147  154.0982 H   0  0  0  0  0  0  0  0  0  0  0  0
  150.1080  130.6536  154.2608 H   0  0  0  0  0  0  0  0  0  0  0  0
  145.7355  129.9347  152.0894 H   0  0  0  0  0  0  0  0  0  0  0  0
  144.1505  131.9943  149.7873 H   0  0  0  0  0  0  0  0  0  0  0  0
  143.3295  132.3194  151.3218 H   0  0  0  0  0  0  0  0  0  0  0  0
  143.8386  130.6804  150.9201 H   0  0  0  0  0  0  0  0  0  0  0  0
  145.8351  135.4046  150.9948 H   0  0  0  0  0  0  0  0  0  0  0  0
  144.2999  134.6178  151.3559 H   0  0  0  0  0  0  0  0  0  0  0  0
  145.1241  134.2970  149.8226 H   0  0  0  0  0  0  0  0  0  0  0  0
  147.6848  134.5247  152.1675 H   0  0  0  0  0  0  0  0  0  0  0  0
  150.6630  137.0371  157.3263 H   0  0  0  0  0  0  0  0  0  0  0  0
  152.2399  137.0664  156.5786 H   0  0  0  0  0  0  0  0  0  0  0  0
  151.5266  139.3441  157.2302 H   0  0  0  0  0  0  0  0  0  0  0  0
  150.0467  139.1801  156.3119 H   0  0  0  0  0  0  0  0  0  0  0  0
  1  2  1  0  0  0  0
  1 25  1  0  0  0  0
  1 26  1  0  0  0  0
  1 27  1  0  0  0  0
  2  3  1  0  0  0  0
  2 28  1  0  0  0  0
  2 29  1  0  0  0  0
  3  4  1  0  0  0  0
  4 24  1  0  0  0  0
  4  5  1  0  0  0  0
  4 30  1  0  0  0  0
  5  6  1  0  0  0  0
  5 31  1  0  0  0  0
  5 32  1  0  0  0  0
  6  7  1  0  0  0  0
  6 33  1  0  0  0  0
  6 34  1  0  0  0  0
  7  8  1  0  0  0  0
  7 23  1  0  0  0  0
  8  9  1  0  0  0  0
  8 35  1  0  0  0  0
  8 36  1  0  0  0  0
  9 10  1  0  0  0  0
  9 11  1  0  0  0  0
  9 37  1  0  0  0  0
 10 38  1  0  0  0  0
 11 12  1  0  0  0  0
 11 39  1  0  0  0  0
 11 40  1  0  0  0  0
 12 22  1  0  0  0  0
 12 13  1  0  0  0  0
 13 14  2  0  0  0  0
 13 41  1  0  0  0  0
 14 15  1  0  0  0  0
 15 22  2  0  0  0  0
 15 16  1  0  0  0  0
 16 17  2  0  0  0  0
 16 42  1  0  0  0  0
 17 18  1  0  0  0  0
 17 19  1  0  0  0  0
 18 43  1  0  0  0  0
 18 44  1  0  0  0  0
 18 45  1  0  0  0  0
 19 20  1  0  0  0  0
 19 21  2  0  0  0  0
 20 46  1  0  0  0  0
 20 47  1  0  0  0  0
 20 48  1  0  0  0  0
 21 22  1  0  0  0  0
 21 49  1  0  0  0  0
 23 24  1  0  0  0  0
 23 50  1  0  0  0  0
 23 51  1  0  0  0  0
 24 52  1  0  0  0  0
 24 53  1  0  0  0  0
M  END
> <s_m_source_file>
AV-unprocessed.smi

> <i_m_source_file_index>
1697

> <i_lp_mmshare_version>
43012

> <i_f3d_flags>
0

> <s_epik_input>
W0NIM11bQ0gyXU9bQ0hdMVtDSDJdW0NIMl1OKFtDSDJdW0NIMl0xKVtDSDJdW0NASF0oW09IXSlbQ0gyXW4oW2NIXW4yKWMoYzIzKVtjSF1jKFtDSDNdKWMoW2NIXTMpW0NIM10=

> <s_epik_cmdline>
J2VwaWtfcHl0aG9uJywgJy1waCcsICc3LjAnLCAnLXRuJywgJzgnLCAnLW1hJywgJzIwMCcsICctbWV0YWxfYmluZGluZycsICctaW1hZScsICc8aW5maWxlLm1hZT4nLCAnLW9tYWUnLCAnPG91dGZpbGUubWFlPic=

> <r_epik_Ionization_Penalty>
1.9836

> <r_epik_Ionization_Penalty_Charging>
0

> <r_epik_Ionization_Penalty_Neutral>
1.9836

> <r_epik_State_Penalty>
2.07269

> <r_epik_Charging_Adjusted_Penalty>
2.07269

> <i_epik_Tot_Q>
0

> <i_epik_Tot_abs_Q>
0

> <r_epik_Metal_State_Penalty>
2.00215

> <b_epik_Metal_Only>
0

> <s_lp_Force_Field>
OPLS_2005

> <r_lp_Energy>
35.1996

> <b_lp_Chiralities_Consistent>
1

> <s_lp_Variant>
AV-unprocessed.smi:1697-10

> <Gold.Version>
5.8.1

> <Gold.Id.Protein>
6NUR|6NUR_protein|mol2

> <Gold.PLP.Fitness>
45.5029

> <Gold.PLP.PLP>
-43.4848

> <Gold.PLP.part.hbond>
-2.0000

> <Gold.PLP.part.metal>
0.0000

> <Gold.PLP.part.buried>
-5.7655

> <Gold.PLP.part.nonpolar>
-35.8966

> <Gold.PLP.part.repulsive>
0.2027

> <Gold.PLP.ligand.clash>
0.0000

> <Gold.PLP.ligand.torsion>
1.7763

> <Gold.PLP.Chemscore.Hbond>
1.8080

> <Gold.PLP.Chemscore.CHOScore>
0.0000

> <Gold.PLP.Chemscore.Metal>
0.0000

> <Gold.Chemscore.Hbonds>
donor molecule, donor type, donor heavy atom, donor atom, acceptor molecule, acceptor atom, score
      L1  H    10    38       P1  7948  0.68
      P1  H  7989  7998       L1     3  0.50

> <Gold.PLP.Chemscore.Internal.Correction>
0.1467

> <Gold.Rescore>
     Score         DG    S(hbond)    S(metal)    S(lipo)     H(rot)  DE(clash)    DE(int)     intcor
     15.42     -18.69       1.59        0.00     115.53       2.19       1.21       2.05       ----

> <Gold.Chemscore.Fitness>
15.4237

> <Gold.Chemscore.DG>
-18.6865

> <Gold.Chemscore.ZeroCoef>
-5.4800

> <Gold.Chemscore.Hbond>
1.5887

> <Gold.Chemscore.Metal>
0.0000

> <Gold.Chemscore.Lipo>
115.5349

> <Gold.Chemscore.Internal_Hbond>
0.0000

> <Gold.Chemscore.DEClash>
1.2090

> <Gold.Chemscore.DEInternal>
2.0537

> <Gold.Chemscore.Rot>
2.1943

> <Gold.Chemscore.Internal.Correction>
   9.000000E+99

> <Gold.Chemscore.Hbonds>
donor molecule, donor type, donor heavy atom, donor atom, acceptor molecule, acceptor atom, score
      L1  H    10    38       P1  7948  0.23
      P1  H  7989  7998       L1     3  0.12

> <Gold.Chemscore.Hbond.Weighted>
-5.3063

> <Gold.Chemscore.Metal.Weighted>
-0.0000

> <Gold.Chemscore.Lipo.Weighted>
-13.5176

> <Gold.Chemscore.Internal_Hbond.Weighted>
0.0000

> <Gold.Chemscore.DEClash.Weighted>
1.2090

> <Gold.Chemscore.DEInternal.Weighted>
2.0537

> <Gold.Chemscore.Rot.Weighted>
5.6174

> <Gold.Chemscore.Internal.Correction.Weighted>
   9.000000E+99

> <Gold.Protein.RotatedTorsions>
[ 6907 6896 6895 6894 ] final -108.98 input  -60.11 | X-H torsion
[ 7974 7965 7964 7962 ] final  159.46 input  175.53 | X-H torsion
[ 8008 7997 7996 7995 ] final -135.54 input   59.86 | X-H torsion
[ 10167 10162 10161 10158 ] final  125.21 input  -65.29 | X-H torsion
[ 10718 10713 10712 10709 ] final   13.13 input   66.30 | X-H torsion
[ 10763 10752 10751 10750 ] final  129.73 input  -60.55 | X-H torsion
[ 11005 11000 10999 10996 ] final    4.44 input  -57.11 | X-H torsion

> <Gold.Protein.ActiveResidues>
 VAL166  LYS551  ARG553  GLY616  TRP617  ASP618  TYR619  PRO620  LYS621  CYS622 
 ASP623  PHE694  ASN695  SER759  ASP760  ASP761  ALA762  ILE779  LEU786  VAL792 
 PHE793  MET794  SER795  GLU796  ALA797  LYS798  CYS799  TRP800  GLU811  SER814 

> <Gold.Protein.RotatedAtoms>
  150.7534  133.9597  159.3511 H   0  0  0  0  0  0  0  0  0  0  0  0  # atno 6907 bound_to 6896
  151.7522  135.0828  160.0342 H   0  0  0  0  0  0  0  0  0  0  0  0  # atno 6908 bound_to 6896
  152.3459  133.6084  159.5945 H   0  0  0  0  0  0  0  0  0  0  0  0  # atno 6909 bound_to 6896
  144.7789  139.7620  143.6267 H   0  0  0  0  0  0  0  0  0  0  0  0  # atno 7974 bound_to 7965
  155.3803  140.0493  157.3044 H   0  0  0  0  0  0  0  0  0  0  0  0  # atno 8008 bound_to 7997
  154.5086  140.2183  155.9164 H   0  0  0  0  0  0  0  0  0  0  0  0  # atno 8009 bound_to 7997
  156.1555  140.3127  155.8725 H   0  0  0  0  0  0  0  0  0  0  0  0  # atno 8010 bound_to 7997
  139.5698  144.6932  151.3809 H   0  0  0  0  0  0  0  0  0  0  0  0  # atno 10167 bound_to 10162
  157.0202  130.6152  149.5720 H   0  0  0  0  0  0  0  0  0  0  0  0  # atno 10718 bound_to 10713
  153.7466  135.3216  155.3313 H   0  0  0  0  0  0  0  0  0  0  0  0  # atno 10763 bound_to 10752
  154.8277  135.4557  154.0974 H   0  0  0  0  0  0  0  0  0  0  0  0  # atno 10764 bound_to 10752
  153.2164  135.6942  153.8134 H   0  0  0  0  0  0  0  0  0  0  0  0  # atno 10765 bound_to 10752
  140.5819  134.0005  155.8051 H   0  0  0  0  0  0  0  0  0  0  0  0  # atno 11005 bound_to 11000
  146.1985  139.5266  142.9758 LP  0  0  0  0  0  0  0  0  0  0  0  0  # atno 17320 bound_to 7965
  145.6106  141.0340  143.1968 LP  0  0  0  0  0  0  0  0  0  0  0  0  # atno 17321 bound_to 7965
  140.6983  143.7696  150.7361 LP  0  0  0  0  0  0  0  0  0  0  0  0  # atno 17342 bound_to 10162
  140.1198  143.4622  152.2320 LP  0  0  0  0  0  0  0  0  0  0  0  0  # atno 17343 bound_to 10162
  156.0105  130.5196  150.7972 LP  0  0  0  0  0  0  0  0  0  0  0  0  # atno 17370 bound_to 10713
  157.5255  131.0934  151.0023 LP  0  0  0  0  0  0  0  0  0  0  0  0  # atno 17371 bound_to 10713
  141.0991  133.9797  157.3110 LP  0  0  0  0  0  0  0  0  0  0  0  0  # atno 17394 bound_to 11000
  139.9313  135.0199  156.8411 LP  0  0  0  0  0  0  0  0  0  0  0  0  # atno 17395 bound_to 11000

$$$$
