AV-unprocessed.smi:2909|AV-procd|sdf|11174|dock6
  -GOLD-   2272016 63D 1   1.00000     0.00000
 Structure written by MMmdl.
 44 45  0  0  0  0  0  0  0  0  1 V2000
  149.7202  141.6964  155.2834 C   0  0  0  0  0  0  0  0  0  0  0  0
  149.1214  140.6244  154.4213 C   0  0  0  0  0  0  0  0  0  0  0  0
  147.7902  140.5405  153.9180 C   0  0  0  0  0  0  0  0  0  0  0  0
  147.7727  139.3776  153.1995 C   0  0  0  0  0  0  0  0  0  0  0  0
  146.6800  138.7055  152.4273 C   0  0  0  0  0  0  0  0  0  0  0  0
  146.0086  137.5857  153.2289 C   0  0  0  0  0  0  0  0  0  0  0  0
  145.0648  137.8485  153.9736 O   0  0  0  0  0  0  0  0  0  0  0  0
  146.4828  136.3418  153.0516 N   0  0  0  0  0  0  0  0  0  0  0  0
  145.9716  135.1313  153.6904 C   0  0  2  0  0  0  0  0  0  0  0  0
  146.8132  133.9148  153.2734 C   0  0  0  0  0  0  0  0  0  0  0  0
  146.6214  133.5505  151.7905 C   0  0  0  0  0  0  0  0  0  0  0  0
  145.1365  133.3111  151.4200 C   0  0  2  0  0  0  0  0  0  0  0  0
  144.9538  132.9712  149.9113 C   0  0  0  0  0  0  0  0  0  0  0  0
  143.5363  132.4656  149.5802 C   0  0  0  0  0  0  0  0  0  0  0  0
  145.9786  131.9367  149.4065 C   0  0  0  0  0  0  0  0  0  0  0  0
  144.2970  134.5388  151.8534 C   0  0  0  0  0  0  0  0  0  0  0  0
  144.4922  134.8972  153.3371 C   0  0  0  0  0  0  0  0  0  0  0  0
  149.0400  138.8487  153.2970 N   0  0  0  0  0  0  0  0  0  0  0  0
  149.8711  139.5998  154.0424 N   0  0  0  0  0  0  0  0  0  0  0  0
  149.3476  137.9884  152.8656 H   0  0  0  0  0  0  0  0  0  0  0  0
  148.9537  142.3752  155.6573 H   0  0  0  0  0  0  0  0  0  0  0  0
  150.4440  142.2890  154.7238 H   0  0  0  0  0  0  0  0  0  0  0  0
  150.2330  141.2692  156.1456 H   0  0  0  0  0  0  0  0  0  0  0  0
  146.9705  141.2281  154.0662 H   0  0  0  0  0  0  0  0  0  0  0  0
  147.0731  138.2846  151.5014 H   0  0  0  0  0  0  0  0  0  0  0  0
  145.9292  139.4425  152.1394 H   0  0  0  0  0  0  0  0  0  0  0  0
  147.2620  136.2223  152.4206 H   0  0  0  0  0  0  0  0  0  0  0  0
  146.0609  135.2464  154.7723 H   0  0  0  0  0  0  0  0  0  0  0  0
  147.8685  134.1006  153.4775 H   0  0  0  0  0  0  0  0  0  0  0  0
  146.5332  133.0586  153.8883 H   0  0  0  0  0  0  0  0  0  0  0  0
  147.0355  134.3397  151.1616 H   0  0  0  0  0  0  0  0  0  0  0  0
  147.2148  132.6591  151.5925 H   0  0  0  0  0  0  0  0  0  0  0  0
  144.7866  132.4545  151.9983 H   0  0  0  0  0  0  0  0  0  0  0  0
  145.1106  133.8857  149.3374 H   0  0  0  0  0  0  0  0  0  0  0  0
  143.2678  131.6060  150.1949 H   0  0  0  0  0  0  0  0  0  0  0  0
  143.4615  132.1607  148.5360 H   0  0  0  0  0  0  0  0  0  0  0  0
  142.7815  133.2372  149.7282 H   0  0  0  0  0  0  0  0  0  0  0  0
  145.9496  131.0255  150.0046 H   0  0  0  0  0  0  0  0  0  0  0  0
  146.9966  132.3238  149.4282 H   0  0  0  0  0  0  0  0  0  0  0  0
  145.7790  131.6573  148.3715 H   0  0  0  0  0  0  0  0  0  0  0  0
  144.5517  135.3977  151.2313 H   0  0  0  0  0  0  0  0  0  0  0  0
  143.2352  134.3522  151.6982 H   0  0  0  0  0  0  0  0  0  0  0  0
  144.1027  134.0854  153.9527 H   0  0  0  0  0  0  0  0  0  0  0  0
  143.8981  135.7765  153.5893 H   0  0  0  0  0  0  0  0  0  0  0  0
  1 21  1  0  0  0  0
  1 22  1  0  0  0  0
  1 23  1  0  0  0  0
  1  2  1  0  0  0  0
  2 19  2  0  0  0  0
  2  3  1  0  0  0  0
  3  4  2  0  0  0  0
  3 24  1  0  0  0  0
  4 18  1  0  0  0  0
  4  5  1  0  0  0  0
  5  6  1  0  0  0  0
  5 25  1  0  0  0  0
  5 26  1  0  0  0  0
  6  7  2  0  0  0  0
  6  8  1  0  0  0  0
  8  9  1  0  0  0  0
  8 27  1  0  0  0  0
  9 17  1  0  0  0  0
  9 10  1  0  0  0  0
  9 28  1  0  0  0  0
 10 11  1  0  0  0  0
 10 29  1  0  0  0  0
 10 30  1  0  0  0  0
 11 12  1  0  0  0  0
 11 31  1  0  0  0  0
 11 32  1  0  0  0  0
 12 13  1  0  0  0  0
 12 16  1  0  0  0  0
 12 33  1  0  0  0  0
 13 14  1  0  0  0  0
 13 15  1  0  0  0  0
 13 34  1  0  0  0  0
 14 35  1  0  0  0  0
 14 36  1  0  0  0  0
 14 37  1  0  0  0  0
 15 38  1  0  0  0  0
 15 39  1  0  0  0  0
 15 40  1  0  0  0  0
 16 17  1  0  0  0  0
 16 41  1  0  0  0  0
 16 42  1  0  0  0  0
 17 43  1  0  0  0  0
 17 44  1  0  0  0  0
 18 19  1  0  0  0  0
 18 20  1  0  0  0  0
M  END
> <s_m_source_file>
AV-unprocessed.smi

> <i_m_source_file_index>
2909

> <i_lp_mmshare_version>
43012

> <i_f3d_flags>
0

> <s_epik_input>
W0NIM11jMVtjSF1jKG5bbkhdMSlbQ0gyXUMoPU8pW05IXVtDQEBIXTJbQ0gyXVtDSDJdW0NAQEhdKFtDSF0oW0NIM10pW0NIM10pW0NIMl1bQ0gyXTI=

> <s_epik_cmdline>
J2VwaWtfcHl0aG9uJywgJy1waCcsICc3LjAnLCAnLXRuJywgJzgnLCAnLW1hJywgJzIwMCcsICctbWV0YWxfYmluZGluZycsICctaW1hZScsICc8aW5maWxlLm1hZT4nLCAnLW9tYWUnLCAnPG91dGZpbGUubWFlPic=

> <r_lp_tautomer_probability>
0.5

> <r_epik_Ionization_Penalty>
0.00013296

> <r_epik_Ionization_Penalty_Charging>
0

> <r_epik_Ionization_Penalty_Neutral>
0.00013296

> <r_epik_State_Penalty>
0.41068

> <r_epik_Charging_Adjusted_Penalty>
0.41068

> <i_epik_Tot_Q>
0

> <i_epik_Tot_abs_Q>
0

> <r_epik_Metal_State_Penalty>
0.41066

> <b_epik_Metal_Only>
0

> <s_lp_Force_Field>
OPLS_2005

> <r_lp_Energy>
9.99393

> <b_lp_Chiralities_Consistent>
1

> <s_lp_Variant>
AV-unprocessed.smi:2909-4

> <Gold.Version>
5.8.1

> <Gold.Id.Protein>
6NUR|6NUR_protein|mol2

> <Gold.PLP.Fitness>
38.9215

> <Gold.PLP.PLP>
-33.3395

> <Gold.PLP.part.hbond>
-3.5839

> <Gold.PLP.part.metal>
0.0000

> <Gold.PLP.part.buried>
-1.6705

> <Gold.PLP.part.nonpolar>
-30.2619

> <Gold.PLP.part.repulsive>
1.8192

> <Gold.PLP.ligand.clash>
0.0000

> <Gold.PLP.ligand.torsion>
0.8027

> <Gold.PLP.Chemscore.Hbond>
2.3886

> <Gold.PLP.Chemscore.CHOScore>
0.0000

> <Gold.PLP.Chemscore.Metal>
0.0000

> <Gold.Chemscore.Hbonds>
donor molecule, donor type, donor heavy atom, donor atom, acceptor molecule, acceptor atom, score
      L1  H     8    27       P1  7948  1.00
      L1  H    18    20       P1  7948  1.00
      P1  H  7989  7998       L1    19  0.34

> <Gold.PLP.Chemscore.Internal.Correction>
0.0216

> <Gold.Rescore>
     Score         DG    S(hbond)    S(metal)    S(lipo)     H(rot)  DE(clash)    DE(int)     intcor
     18.45     -19.26       1.94        0.00      95.20       1.50       0.22       0.59       ----

> <Gold.Chemscore.Fitness>
18.4464

> <Gold.Chemscore.DG>
-19.2582

> <Gold.Chemscore.ZeroCoef>
-5.4800

> <Gold.Chemscore.Hbond>
1.9410

> <Gold.Chemscore.Metal>
0.0000

> <Gold.Chemscore.Lipo>
95.1976

> <Gold.Chemscore.Internal_Hbond>
0.0000

> <Gold.Chemscore.DEClash>
0.2184

> <Gold.Chemscore.DEInternal>
0.5935

> <Gold.Chemscore.Rot>
1.5011

> <Gold.Chemscore.Internal.Correction>
   9.000000E+99

> <Gold.Chemscore.Hbonds>
donor molecule, donor type, donor heavy atom, donor atom, acceptor molecule, acceptor atom, score
      L1  H     8    27       P1  7948  0.99
      L1  H    18    20       P1  7948  0.83
      P1  H  7989  7998       L1    19  0.04

> <Gold.Chemscore.Hbond.Weighted>
-6.4830

> <Gold.Chemscore.Metal.Weighted>
-0.0000

> <Gold.Chemscore.Lipo.Weighted>
-11.1381

> <Gold.Chemscore.Internal_Hbond.Weighted>
0.0000

> <Gold.Chemscore.DEClash.Weighted>
0.2184

> <Gold.Chemscore.DEInternal.Weighted>
0.5935

> <Gold.Chemscore.Rot.Weighted>
3.8429

> <Gold.Chemscore.Internal.Correction.Weighted>
   9.000000E+99

> <Gold.Protein.RotatedTorsions>
[ 6907 6896 6895 6894 ] final  -43.66 input  -60.11 | X-H torsion
[ 7974 7965 7964 7962 ] final  -70.02 input  175.53 | X-H torsion
[ 8008 7997 7996 7995 ] final  -20.01 input   59.86 | X-H torsion
[ 10167 10162 10161 10158 ] final  109.05 input  -65.29 | X-H torsion
[ 10718 10713 10712 10709 ] final -122.39 input   66.30 | X-H torsion
[ 10763 10752 10751 10750 ] final  129.71 input  -60.55 | X-H torsion
[ 11005 11000 10999 10996 ] final  -41.28 input  -57.11 | X-H torsion

> <Gold.Protein.ActiveResidues>
 VAL166  LYS551  ARG553  GLY616  TRP617  ASP618  TYR619  PRO620  LYS621  CYS622 
 ASP623  PHE694  ASN695  SER759  ASP760  ASP761  ALA762  ILE779  LEU786  VAL792 
 PHE793  MET794  SER795  GLU796  ALA797  LYS798  CYS799  TRP800  GLU811  SER814 

> <Gold.Protein.RotatedAtoms>
  150.9414  134.8823  159.7614 H   0  0  0  0  0  0  0  0  0  0  0  0  # atno 6907 bound_to 6896
  152.5082  134.3936  159.9402 H   0  0  0  0  0  0  0  0  0  0  0  0  # atno 6908 bound_to 6896
  151.3957  133.3734  159.2761 H   0  0  0  0  0  0  0  0  0  0  0  0  # atno 6909 bound_to 6896
  145.6964  140.9133  143.0754 H   0  0  0  0  0  0  0  0  0  0  0  0  # atno 7974 bound_to 7965
  154.4798  140.2073  155.9791 H   0  0  0  0  0  0  0  0  0  0  0  0  # atno 8008 bound_to 7997
  156.1147  140.3223  155.8092 H   0  0  0  0  0  0  0  0  0  0  0  0  # atno 8009 bound_to 7997
  155.4573  140.0521  157.2985 H   0  0  0  0  0  0  0  0  0  0  0  0  # atno 8010 bound_to 7997
  139.6797  144.7119  151.1538 H   0  0  0  0  0  0  0  0  0  0  0  0  # atno 10167 bound_to 10162
  156.1415  130.6469  150.9778 H   0  0  0  0  0  0  0  0  0  0  0  0  # atno 10718 bound_to 10713
  153.7462  135.3216  155.3313 H   0  0  0  0  0  0  0  0  0  0  0  0  # atno 10763 bound_to 10752
  154.8278  135.4556  154.0977 H   0  0  0  0  0  0  0  0  0  0  0  0  # atno 10764 bound_to 10752
  153.2166  135.6943  153.8132 H   0  0  0  0  0  0  0  0  0  0  0  0  # atno 10765 bound_to 10752
  141.0235  133.6852  156.2436 H   0  0  0  0  0  0  0  0  0  0  0  0  # atno 11005 bound_to 11000
  144.6981  139.8889  143.7452 LP  0  0  0  0  0  0  0  0  0  0  0  0  # atno 17320 bound_to 7965
  146.0837  139.3825  143.0449 LP  0  0  0  0  0  0  0  0  0  0  0  0  # atno 17321 bound_to 7965
  140.7648  143.5718  150.8988 LP  0  0  0  0  0  0  0  0  0  0  0  0  # atno 17342 bound_to 10162
  139.9389  143.6405  152.3058 LP  0  0  0  0  0  0  0  0  0  0  0  0  # atno 17343 bound_to 10162
  157.6579  131.0886  150.7904 LP  0  0  0  0  0  0  0  0  0  0  0  0  # atno 17370 bound_to 10713
  156.7979  130.4911  149.5374 LP  0  0  0  0  0  0  0  0  0  0  0  0  # atno 17371 bound_to 10713
  140.6532  134.5045  157.5579 LP  0  0  0  0  0  0  0  0  0  0  0  0  # atno 17394 bound_to 11000
  139.9161  134.8244  156.1363 LP  0  0  0  0  0  0  0  0  0  0  0  0  # atno 17395 bound_to 11000

$$$$
