AV-unprocessed.smi:1535|AV-procd|sdf|6176|dock7
  -GOLD-   22720 6333D 1   1.00000     0.00000
 Structure written by MMmdl.
 47 48  0  0  0  0  0  0  0  0  2 V2000
  152.3075  144.7401  160.5283 C   0  0  0  0  0  0  0  0  0  0  0  0
  152.0901  143.6103  159.5362 C   0  0  0  0  0  0  0  0  0  0  0  0
  151.2328  143.8343  158.4354 C   0  0  0  0  0  0  0  0  0  0  0  0
  151.0541  142.7815  157.5458 C   0  0  0  0  0  0  0  0  0  0  0  0
  150.2844  142.6872  156.3845 N   0  3  0  0  0  0  0  0  0  0  0  0
  150.4283  141.4460  155.8434 C   0  0  0  0  0  0  0  0  0  0  0  0
  151.2800  140.7462  156.6409 N   0  0  0  0  0  0  0  0  0  0  0  0
  151.7698  139.3671  156.5068 C   0  0  0  0  0  0  0  0  0  0  0  0
  151.0430  138.5861  155.3933 C   0  0  2  0  0  0  0  0  0  0  0  0
  151.3130  139.1509  154.1257 O   0  0  0  0  0  0  0  0  0  0  0  0
  149.5125  138.4340  155.5507 C   0  0  0  0  0  0  0  0  0  0  0  0
  149.0644  137.2505  156.2932 N   0  0  0  0  0  0  0  0  0  0  0  0
  149.9661  136.1282  156.0508 C   0  0  0  0  0  0  0  0  0  0  0  0
  148.9546  137.5095  157.7325 C   0  0  0  0  0  0  0  0  0  0  0  0
  147.9326  136.6247  158.4690 C   0  0  1  0  0  0  0  0  0  0  0  0
  148.3714  135.1554  158.4724 C   0  0  0  0  0  0  0  0  0  0  0  0
  147.7120  137.1022  159.8444 C   0  0  0  0  0  0  0  0  0  0  0  0
  147.5405  137.4783  160.9252 N   0  0  0  0  0  0  0  0  0  0  0  0
  151.6940  141.5387  157.7188 C   0  0  0  0  0  0  0  0  0  0  0  0
  152.5389  141.3012  158.8007 C   0  0  0  0  0  0  0  0  0  0  0  0
  152.7348  142.3592  159.7164 C   0  0  0  0  0  0  0  0  0  0  0  0
  153.6546  142.1275  160.9029 C   0  0  0  0  0  0  0  0  0  0  0  0
  151.7433  145.6306  160.2494 H   0  0  0  0  0  0  0  0  0  0  0  0
  153.3620  145.0137  160.5718 H   0  0  0  0  0  0  0  0  0  0  0  0
  151.9851  144.4408  161.5255 H   0  0  0  0  0  0  0  0  0  0  0  0
  150.7375  144.7835  158.2925 H   0  0  0  0  0  0  0  0  0  0  0  0
  149.9523  141.0824  154.9441 H   0  0  0  0  0  0  0  0  0  0  0  0
  152.8356  139.4278  156.2839 H   0  0  0  0  0  0  0  0  0  0  0  0
  151.6792  138.8692  157.4712 H   0  0  0  0  0  0  0  0  0  0  0  0
  151.4624  137.5796  155.3715 H   0  0  0  0  0  0  0  0  0  0  0  0
  150.6301  138.8825  153.5298 H   0  0  0  0  0  0  0  0  0  0  0  0
  149.1647  139.3359  156.0575 H   0  0  0  0  0  0  0  0  0  0  0  0
  149.0327  138.4595  154.5709 H   0  0  0  0  0  0  0  0  0  0  0  0
  149.6184  135.2228  156.5465 H   0  0  0  0  0  0  0  0  0  0  0  0
  150.9739  136.3473  156.4063 H   0  0  0  0  0  0  0  0  0  0  0  0
  150.0257  135.9038  154.9852 H   0  0  0  0  0  0  0  0  0  0  0  0
  149.9360  137.3955  158.1956 H   0  0  0  0  0  0  0  0  0  0  0  0
  148.6810  138.5458  157.9140 H   0  0  0  0  0  0  0  0  0  0  0  0
  146.9673  136.6806  157.9674 H   0  0  0  0  0  0  0  0  0  0  0  0
  147.6333  134.5286  158.9739 H   0  0  0  0  0  0  0  0  0  0  0  0
  149.3223  135.0288  158.9911 H   0  0  0  0  0  0  0  0  0  0  0  0
  148.4907  134.7782  157.4566 H   0  0  0  0  0  0  0  0  0  0  0  0
  153.0266  140.3490  158.9447 H   0  0  0  0  0  0  0  0  0  0  0  0
  154.0609  141.1154  160.9016 H   0  0  0  0  0  0  0  0  0  0  0  0
  153.1152  142.2680  161.8398 H   0  0  0  0  0  0  0  0  0  0  0  0
  154.4939  142.8230  160.8776 H   0  0  0  0  0  0  0  0  0  0  0  0
  149.7021  143.4140  155.9890 H   0  0  0  0  0  0  0  0  0  0  0  0
  1  2  1  0  0  0  0
  1 23  1  0  0  0  0
  1 24  1  0  0  0  0
  1 25  1  0  0  0  0
  2 21  1  0  0  0  0
  2  3  2  0  0  0  0
  3  4  1  0  0  0  0
  3 26  1  0  0  0  0
  4 19  2  0  0  0  0
  4  5  1  0  0  0  0
  5  6  2  0  0  0  0
  5 47  1  0  0  0  0
  6  7  1  0  0  0  0
  6 27  1  0  0  0  0
  7  8  1  0  0  0  0
  7 19  1  0  0  0  0
  8  9  1  0  0  0  0
  8 28  1  0  0  0  0
  8 29  1  0  0  0  0
  9 10  1  0  0  0  0
  9 11  1  0  0  0  0
  9 30  1  0  0  0  0
 10 31  1  0  0  0  0
 11 12  1  0  0  0  0
 11 32  1  0  0  0  0
 11 33  1  0  0  0  0
 12 13  1  0  0  0  0
 12 14  1  0  0  0  0
 13 34  1  0  0  0  0
 13 35  1  0  0  0  0
 13 36  1  0  0  0  0
 14 15  1  0  0  0  0
 14 37  1  0  0  0  0
 14 38  1  0  0  0  0
 15 16  1  0  0  0  0
 15 17  1  0  0  0  0
 15 39  1  0  0  0  0
 16 40  1  0  0  0  0
 16 41  1  0  0  0  0
 16 42  1  0  0  0  0
 17 18  3  0  0  0  0
 19 20  1  0  0  0  0
 20 21  2  0  0  0  0
 20 43  1  0  0  0  0
 21 22  1  0  0  0  0
 22 44  1  0  0  0  0
 22 45  1  0  0  0  0
 22 46  1  0  0  0  0
M  CHG  1   5   1
M  END
> <s_m_source_file>
AV-unprocessed.smi

> <i_m_source_file_index>
1535

> <i_lp_mmshare_version>
43012

> <i_f3d_flags>
0

> <s_epik_input>
W0NIM11jKFtjSF0xKWMoW0NIM10pW2NIXWMoYzEyKW4oW2NIXW4yKVtDSDJdW0NASF0oW09IXSlbQ0gyXU4oW0NIM10pW0NIMl1bQ0BIXShbQ0gzXSlDI04=

> <s_epik_cmdline>
J2VwaWtfcHl0aG9uJywgJy1waCcsICc3LjAnLCAnLXRuJywgJzgnLCAnLW1hJywgJzIwMCcsICctbWV0YWxfYmluZGluZycsICctaW1hZScsICc8aW5maWxlLm1hZT4nLCAnLW9tYWUnLCAnPG91dGZpbGUubWFlPic=

> <r_epik_Ionization_Penalty>
1.22846

> <r_epik_Ionization_Penalty_Charging>
1.21333

> <r_epik_Ionization_Penalty_Neutral>
0.0151341

> <r_epik_State_Penalty>
1.27012

> <r_epik_Charging_Adjusted_Penalty>
2.48344

> <i_epik_Tot_Q>
1

> <i_epik_Tot_abs_Q>
1

> <r_epik_Metal_State_Penalty>
5.28751

> <b_epik_Metal_Only>
0

> <s_lp_Force_Field>
OPLS_2005

> <r_lp_Energy>
31.5295

> <b_lp_Chiralities_Consistent>
1

> <s_lp_Variant>
AV-unprocessed.smi:1535-7

> <Gold.Version>
5.8.1

> <Gold.Id.Protein>
6NUR|6NUR_protein|mol2

> <Gold.PLP.Fitness>
52.5091

> <Gold.PLP.PLP>
-40.4099

> <Gold.PLP.part.hbond>
-4.0000

> <Gold.PLP.part.metal>
0.0000

> <Gold.PLP.part.buried>
-4.1937

> <Gold.PLP.part.nonpolar>
-32.3755

> <Gold.PLP.part.repulsive>
0.0914

> <Gold.PLP.ligand.clash>
0.0000

> <Gold.PLP.ligand.torsion>
1.1539

> <Gold.PLP.Chemscore.Hbond>
4.7760

> <Gold.PLP.Chemscore.CHOScore>
0.0000

> <Gold.PLP.Chemscore.Metal>
0.0000

> <Gold.Chemscore.Hbonds>
donor molecule, donor type, donor heavy atom, donor atom, acceptor molecule, acceptor atom, score
      L1  H     5    47       P1  8028  2.00
      P1  H  6931  6943       L1    18  0.70
      P1  H  6934  6947       L1    18  0.96
      P1  H  7989  7998       L1    10  1.00

> <Gold.PLP.Chemscore.Internal.Correction>
0.0790

> <Gold.Rescore>
     Score         DG    S(hbond)    S(metal)    S(lipo)     H(rot)  DE(clash)    DE(int)     intcor
     18.38     -21.23       3.09        0.00     103.22       2.59       0.36       2.49       ----

> <Gold.Chemscore.Fitness>
18.3807

> <Gold.Chemscore.DG>
-21.2295

> <Gold.Chemscore.ZeroCoef>
-5.4800

> <Gold.Chemscore.Hbond>
3.0861

> <Gold.Chemscore.Metal>
0.0000

> <Gold.Chemscore.Lipo>
103.2216

> <Gold.Chemscore.Internal_Hbond>
0.0000

> <Gold.Chemscore.DEClash>
0.3559

> <Gold.Chemscore.DEInternal>
2.4929

> <Gold.Chemscore.Rot>
2.5918

> <Gold.Chemscore.Internal.Correction>
   9.000000E+99

> <Gold.Chemscore.Hbonds>
donor molecule, donor type, donor heavy atom, donor atom, acceptor molecule, acceptor atom, score
      L1  H     5    47       P1  8028  0.97
      P1  H  6931  6943       L1    18  0.67
      P1  H  6934  6947       L1    18  0.71
      P1  H  7989  7998       L1    10  0.25

> <Gold.Chemscore.Hbond.Weighted>
-10.3077

> <Gold.Chemscore.Metal.Weighted>
-0.0000

> <Gold.Chemscore.Lipo.Weighted>
-12.0769

> <Gold.Chemscore.Internal_Hbond.Weighted>
0.0000

> <Gold.Chemscore.DEClash.Weighted>
0.3559

> <Gold.Chemscore.DEInternal.Weighted>
2.4929

> <Gold.Chemscore.Rot.Weighted>
6.6351

> <Gold.Chemscore.Internal.Correction.Weighted>
   9.000000E+99

> <Gold.Protein.RotatedTorsions>
[ 6907 6896 6895 6894 ] final  -89.71 input  -60.11 | X-H torsion
[ 7974 7965 7964 7962 ] final -175.37 input  175.53 | X-H torsion
[ 8008 7997 7996 7995 ] final  -43.69 input   59.86 | X-H torsion
[ 10167 10162 10161 10158 ] final  178.86 input  -65.29 | X-H torsion
[ 10718 10713 10712 10709 ] final   24.81 input   66.30 | X-H torsion
[ 10763 10752 10751 10750 ] final  106.04 input  -60.55 | X-H torsion
[ 11005 11000 10999 10996 ] final    0.21 input  -57.11 | X-H torsion

> <Gold.Protein.ActiveResidues>
 VAL166  LYS551  ARG553  GLY616  TRP617  ASP618  TYR619  PRO620  LYS621  CYS622 
 ASP623  PHE694  ASN695  SER759  ASP760  ASP761  ALA762  ILE779  LEU786  VAL792 
 PHE793  MET794  SER795  GLU796  ALA797  LYS798  CYS799  TRP800  GLU811  SER814 

> <Gold.Protein.RotatedAtoms>
  150.6876  134.2544  159.4523 H   0  0  0  0  0  0  0  0  0  0  0  0  # atno 6907 bound_to 6896
  152.0479  134.9669  160.0584 H   0  0  0  0  0  0  0  0  0  0  0  0  # atno 6908 bound_to 6896
  152.1145  133.4284  159.4683 H   0  0  0  0  0  0  0  0  0  0  0  0  # atno 6909 bound_to 6896
  144.7128  140.1331  143.6397 H   0  0  0  0  0  0  0  0  0  0  0  0  # atno 7974 bound_to 7965
  154.3997  140.1441  156.3561 H   0  0  0  0  0  0  0  0  0  0  0  0  # atno 8008 bound_to 7997
  155.8224  140.3469  155.5501 H   0  0  0  0  0  0  0  0  0  0  0  0  # atno 8009 bound_to 7997
  155.8274  140.0907  157.1803 H   0  0  0  0  0  0  0  0  0  0  0  0  # atno 8010 bound_to 7997
  139.5312  144.2630  152.0691 H   0  0  0  0  0  0  0  0  0  0  0  0  # atno 10167 bound_to 10162
  157.1848  130.6819  149.6127 H   0  0  0  0  0  0  0  0  0  0  0  0  # atno 10718 bound_to 10713
  153.3876  135.3890  155.1901 H   0  0  0  0  0  0  0  0  0  0  0  0  # atno 10763 bound_to 10752
  154.8715  135.3740  154.4778 H   0  0  0  0  0  0  0  0  0  0  0  0  # atno 10764 bound_to 10752
  153.5261  135.7086  153.5768 H   0  0  0  0  0  0  0  0  0  0  0  0  # atno 10765 bound_to 10752
  140.6291  133.9591  155.8265 H   0  0  0  0  0  0  0  0  0  0  0  0  # atno 11005 bound_to 11000
  145.9269  139.2581  143.1348 LP  0  0  0  0  0  0  0  0  0  0  0  0  # atno 17320 bound_to 7965
  145.9563  140.8870  143.0234 LP  0  0  0  0  0  0  0  0  0  0  0  0  # atno 17321 bound_to 7965
  140.2093  144.4579  150.6393 LP  0  0  0  0  0  0  0  0  0  0  0  0  # atno 17342 bound_to 10162
  140.6491  143.2220  151.6119 LP  0  0  0  0  0  0  0  0  0  0  0  0  # atno 17343 bound_to 10162
  155.9719  130.4634  150.6182 LP  0  0  0  0  0  0  0  0  0  0  0  0  # atno 17370 bound_to 10713
  157.3918  131.0797  151.1387 LP  0  0  0  0  0  0  0  0  0  0  0  0  # atno 17371 bound_to 10713
  141.0688  134.0236  157.3556 LP  0  0  0  0  0  0  0  0  0  0  0  0  # atno 17394 bound_to 11000
  139.9123  135.0192  156.7742 LP  0  0  0  0  0  0  0  0  0  0  0  0  # atno 17395 bound_to 11000

$$$$
