AV-unprocessed.smi:194|AV-procd|sdf|1522|dock7
  -GOLD-   2262019363D 1   1.00000     0.00000
 Structure written by MMmdl.
 53 55  0  0  0  0  0  0  0  0  1 V2000
  147.4009  136.9981  163.1205 C   0  0  0  0  0  0  0  0  0  0  0  0
  146.3356  136.6683  162.0622 C   0  0  2  0  0  0  0  0  0  0  0  0
  144.9210  137.0449  162.5534 C   0  0  0  0  0  0  0  0  0  0  0  0
  143.6350  136.3487  161.4049 S   0  0  2  0  0  0  0  0  0  0  0  0
  142.1227  136.7892  162.3847 C   0  0  0  0  0  0  0  0  0  0  0  0
  143.7734  134.8260  161.4568 O   0  0  0  0  0  0  0  0  0  0  0  0
  146.4328  135.2627  161.6444 N   0  0  0  0  0  0  0  0  0  0  0  0
  146.2009  134.1823  162.5987 C   0  0  0  0  0  0  0  0  0  0  0  0
  147.0996  134.9754  160.4960 C   0  0  0  0  0  0  0  0  0  0  0  0
  146.9326  133.7406  159.9535 N   0  0  0  0  0  0  0  0  0  0  0  0
  147.5737  133.3984  158.8333 C   0  0  0  0  0  0  0  0  0  0  0  0
  148.4190  134.1256  158.1022 N   0  0  0  0  0  0  0  0  0  0  0  0
  148.5960  135.3671  158.6379 C   0  0  0  0  0  0  0  0  0  0  0  0
  147.9767  135.8732  159.8173 C   0  0  0  0  0  0  0  0  0  0  0  0
  148.3785  137.1880  160.0268 N   0  0  0  0  0  0  0  0  0  0  0  0
  149.1913  137.4388  159.0383 C   0  0  0  0  0  0  0  0  0  0  0  0
  149.3968  136.3939  158.1667 N   0  0  0  0  0  0  0  0  0  0  0  0
  150.2456  136.4051  156.9842 C   0  0  0  0  0  0  0  0  0  0  0  0
  149.8783  137.4571  155.8933 C   0  0  0  0  0  0  0  0  0  0  0  0
  148.4542  137.1928  155.3172 C   0  0  0  0  0  0  0  0  0  0  0  0
  148.3418  135.9748  154.6085 O   0  0  0  0  0  0  0  0  0  0  0  0
  150.0187  138.9006  156.4417 C   0  0  0  0  0  0  0  0  0  0  0  0
  149.9862  139.9622  155.3292 C   0  0  0  0  0  0  0  0  0  0  0  0
  151.0297  139.7114  154.3968 O   0  0  0  0  0  0  0  0  0  0  0  0
  150.8891  138.4612  153.7351 C   0  0  0  0  0  0  0  0  0  0  0  0
  150.9241  137.3087  154.7583 C   0  0  0  0  0  0  0  0  0  0  0  0
  147.3859  138.0588  163.3723 H   0  0  0  0  0  0  0  0  0  0  0  0
  148.4014  136.7613  162.7569 H   0  0  0  0  0  0  0  0  0  0  0  0
  147.2393  136.4384  164.0422 H   0  0  0  0  0  0  0  0  0  0  0  0
  146.5622  137.3144  161.2158 H   0  0  0  0  0  0  0  0  0  0  0  0
  144.7424  136.6575  163.5560 H   0  0  0  0  0  0  0  0  0  0  0  0
  144.7996  138.1269  162.6102 H   0  0  0  0  0  0  0  0  0  0  0  0
  142.0247  137.8678  162.4969 H   0  0  0  0  0  0  0  0  0  0  0  0
  142.1645  136.3358  163.3749 H   0  0  0  0  0  0  0  0  0  0  0  0
  141.2331  136.4201  161.8746 H   0  0  0  0  0  0  0  0  0  0  0  0
  146.0051  133.2413  162.0835 H   0  0  0  0  0  0  0  0  0  0  0  0
  145.3375  134.3908  163.2286 H   0  0  0  0  0  0  0  0  0  0  0  0
  147.0667  134.0482  163.2476 H   0  0  0  0  0  0  0  0  0  0  0  0
  147.3834  132.3984  158.4724 H   0  0  0  0  0  0  0  0  0  0  0  0
  149.6772  138.3968  158.9228 H   0  0  0  0  0  0  0  0  0  0  0  0
  151.2711  136.5597  157.3228 H   0  0  0  0  0  0  0  0  0  0  0  0
  150.2276  135.4035  156.5525 H   0  0  0  0  0  0  0  0  0  0  0  0
  147.7051  137.1554  156.1058 H   0  0  0  0  0  0  0  0  0  0  0  0
  148.1555  138.0075  154.6567 H   0  0  0  0  0  0  0  0  0  0  0  0
  148.7817  136.0682  153.7773 H   0  0  0  0  0  0  0  0  0  0  0  0
  149.2482  139.1206  157.1807 H   0  0  0  0  0  0  0  0  0  0  0  0
  150.9700  138.9942  156.9669 H   0  0  0  0  0  0  0  0  0  0  0  0
  149.0200  139.9826  154.8233 H   0  0  0  0  0  0  0  0  0  0  0  0
  150.1354  140.9530  155.7591 H   0  0  0  0  0  0  0  0  0  0  0  0
  149.9754  138.4515  153.1409 H   0  0  0  0  0  0  0  0  0  0  0  0
  151.7129  138.3508  153.0297 H   0  0  0  0  0  0  0  0  0  0  0  0
  151.9264  137.2812  155.1883 H   0  0  0  0  0  0  0  0  0  0  0  0
  150.7936  136.3556  154.2441 H   0  0  0  0  0  0  0  0  0  0  0  0
  1  2  1  0  0  0  0
  1 27  1  0  0  0  0
  1 28  1  0  0  0  0
  1 29  1  0  0  0  0
  2  3  1  0  0  0  0
  2  7  1  0  0  0  0
  2 30  1  0  0  0  0
  3  4  1  0  0  0  0
  3 31  1  0  0  0  0
  3 32  1  0  0  0  0
  4  5  1  0  0  0  0
  4  6  2  0  0  0  0
  5 33  1  0  0  0  0
  5 34  1  0  0  0  0
  5 35  1  0  0  0  0
  7  8  1  0  0  0  0
  7  9  1  0  0  0  0
  8 36  1  0  0  0  0
  8 37  1  0  0  0  0
  8 38  1  0  0  0  0
  9 14  1  0  0  0  0
  9 10  2  0  0  0  0
 10 11  1  0  0  0  0
 11 12  2  0  0  0  0
 11 39  1  0  0  0  0
 12 13  1  0  0  0  0
 13 17  1  0  0  0  0
 13 14  2  0  0  0  0
 14 15  1  0  0  0  0
 15 16  2  0  0  0  0
 16 17  1  0  0  0  0
 16 40  1  0  0  0  0
 17 18  1  0  0  0  0
 18 19  1  0  0  0  0
 18 41  1  0  0  0  0
 18 42  1  0  0  0  0
 19 26  1  0  0  0  0
 19 20  1  0  0  0  0
 19 22  1  0  0  0  0
 20 21  1  0  0  0  0
 20 43  1  0  0  0  0
 20 44  1  0  0  0  0
 21 45  1  0  0  0  0
 22 23  1  0  0  0  0
 22 46  1  0  0  0  0
 22 47  1  0  0  0  0
 23 24  1  0  0  0  0
 23 48  1  0  0  0  0
 23 49  1  0  0  0  0
 24 25  1  0  0  0  0
 25 26  1  0  0  0  0
 25 50  1  0  0  0  0
 25 51  1  0  0  0  0
 26 52  1  0  0  0  0
 26 53  1  0  0  0  0
M  END
> <s_m_source_file>
AV-unprocessed.smi

> <i_m_source_file_index>
194

> <i_lp_mmshare_version>
43012

> <i_f3d_flags>
0

> <s_epik_input>
W0NIM11bU0BAXSg9TylbQ0gyXVtDQEBIXShbQ0gzXSlOKFtDSDNdKWMobltjSF1uMSljKGMxMiluW2NIXW4yW0NIMl1DMyhbQ0gyXVtPSF0pW0NIMl1bQ0gyXU9bQ0gyXVtDSDJdMw==

> <s_epik_cmdline>
J2VwaWtfcHl0aG9uJywgJy1waCcsICc3LjAnLCAnLXRuJywgJzgnLCAnLW1hJywgJzIwMCcsICctbWV0YWxfYmluZGluZycsICctaW1hZScsICc8aW5maWxlLm1hZT4nLCAnLW9tYWUnLCAnPG91dGZpbGUubWFlPic=

> <r_lp_tautomer_probability>
1

> <r_epik_Ionization_Penalty>
0.00101625

> <r_epik_Ionization_Penalty_Charging>
0

> <r_epik_Ionization_Penalty_Neutral>
0.00101625

> <r_epik_State_Penalty>
0.000568005

> <r_epik_Charging_Adjusted_Penalty>
0.000568005

> <i_epik_Tot_Q>
0

> <i_epik_Tot_abs_Q>
0

> <r_epik_Metal_State_Penalty>
-0

> <b_epik_Metal_Only>
0

> <s_lp_Force_Field>
OPLS_2005

> <r_lp_Energy>
28.7742

> <b_lp_Chiralities_Consistent>
1

> <s_lp_Variant>
AV-unprocessed.smi:194-3

> <Gold.Version>
5.8.1

> <Gold.Id.Protein>
6NUR|6NUR_protein|mol2

> <Gold.PLP.Fitness>
41.5724

> <Gold.PLP.PLP>
-34.4727

> <Gold.PLP.part.hbond>
-3.9058

> <Gold.PLP.part.metal>
0.0000

> <Gold.PLP.part.buried>
-5.3893

> <Gold.PLP.part.nonpolar>
-25.7172

> <Gold.PLP.part.repulsive>
0.0797

> <Gold.PLP.ligand.clash>
0.0000

> <Gold.PLP.ligand.torsion>
0.7123

> <Gold.PLP.Chemscore.Hbond>
2.6484

> <Gold.PLP.Chemscore.CHOScore>
0.0000

> <Gold.PLP.Chemscore.Metal>
0.0000

> <Gold.Chemscore.Hbonds>
donor molecule, donor type, donor heavy atom, donor atom, acceptor molecule, acceptor atom, score
      L1  H    21    45       P1  7948  1.00
      P1  H  6931  6943       L1    15  0.28
      P1  H  6934  6947       L1    15  0.11
      P1  H  7989  7998       L1    24  1.00

> <Gold.PLP.Chemscore.Internal.Correction>
0.5789

> <Gold.Rescore>
     Score         DG    S(hbond)    S(metal)    S(lipo)     H(rot)  DE(clash)    DE(int)     intcor
     11.93     -14.43       2.58        0.00      69.10       3.03       0.23       2.27       ----

> <Gold.Chemscore.Fitness>
11.9323

> <Gold.Chemscore.DG>
-14.4285

> <Gold.Chemscore.ZeroCoef>
-5.4800

> <Gold.Chemscore.Hbond>
2.5807

> <Gold.Chemscore.Metal>
0.0000

> <Gold.Chemscore.Lipo>
69.0986

> <Gold.Chemscore.Internal_Hbond>
0.0000

> <Gold.Chemscore.DEClash>
0.2285

> <Gold.Chemscore.DEInternal>
2.2677

> <Gold.Chemscore.Rot>
3.0295

> <Gold.Chemscore.Internal.Correction>
   9.000000E+99

> <Gold.Chemscore.Hbonds>
donor molecule, donor type, donor heavy atom, donor atom, acceptor molecule, acceptor atom, score
      L1  H    21    45       P1  7948  0.99
      P1  H  6931  6943       L1    15  0.21
      P1  H  6934  6947       L1    15  0.10
      P1  H  7989  7998       L1    24  0.85

> <Gold.Chemscore.Hbond.Weighted>
-8.6195

> <Gold.Chemscore.Metal.Weighted>
-0.0000

> <Gold.Chemscore.Lipo.Weighted>
-8.0845

> <Gold.Chemscore.Internal_Hbond.Weighted>
0.0000

> <Gold.Chemscore.DEClash.Weighted>
0.2285

> <Gold.Chemscore.DEInternal.Weighted>
2.2677

> <Gold.Chemscore.Rot.Weighted>
7.7555

> <Gold.Chemscore.Internal.Correction.Weighted>
   9.000000E+99

> <Gold.Protein.RotatedTorsions>
[ 6907 6896 6895 6894 ] final   20.16 input  -60.11 | X-H torsion
[ 7974 7965 7964 7962 ] final -159.40 input  175.53 | X-H torsion
[ 8008 7997 7996 7995 ] final -177.79 input   59.86 | X-H torsion
[ 10167 10162 10161 10158 ] final  -88.34 input  -65.29 | X-H torsion
[ 10718 10713 10712 10709 ] final   47.76 input   66.30 | X-H torsion
[ 10763 10752 10751 10750 ] final  123.53 input  -60.55 | X-H torsion
[ 11005 11000 10999 10996 ] final  151.03 input  -57.11 | X-H torsion

> <Gold.Protein.ActiveResidues>
 VAL166  LYS551  ARG553  GLY616  TRP617  ASP618  TYR619  PRO620  LYS621  CYS622 
 ASP623  PHE694  ASN695  SER759  ASP760  ASP761  ALA762  ILE779  LEU786  VAL792 
 PHE793  MET794  SER795  GLU796  ALA797  LYS798  CYS799  TRP800  GLU811  SER814 

> <Gold.Protein.RotatedAtoms>
  151.8920  135.0412  160.0498 H   0  0  0  0  0  0  0  0  0  0  0  0  # atno 6907 bound_to 6896
  152.2428  133.5145  159.5288 H   0  0  0  0  0  0  0  0  0  0  0  0  # atno 6908 bound_to 6896
  150.7059  134.0982  159.3999 H   0  0  0  0  0  0  0  0  0  0  0  0  # atno 6909 bound_to 6896
  144.7467  140.3690  143.6080 H   0  0  0  0  0  0  0  0  0  0  0  0  # atno 7974 bound_to 7965
  156.0112  140.1241  157.0452 H   0  0  0  0  0  0  0  0  0  0  0  0  # atno 8008 bound_to 7997
  154.4276  140.1087  156.5901 H   0  0  0  0  0  0  0  0  0  0  0  0  # atno 8009 bound_to 7997
  155.6077  140.3471  155.4615 H   0  0  0  0  0  0  0  0  0  0  0  0  # atno 8010 bound_to 7997
  140.3756  143.2773  151.9447 H   0  0  0  0  0  0  0  0  0  0  0  0  # atno 10167 bound_to 10162
  157.4618  130.8201  149.7894 H   0  0  0  0  0  0  0  0  0  0  0  0  # atno 10718 bound_to 10713
  153.6470  135.3369  155.3088 H   0  0  0  0  0  0  0  0  0  0  0  0  # atno 10763 bound_to 10752
  154.8546  135.4332  154.1944 H   0  0  0  0  0  0  0  0  0  0  0  0  # atno 10764 bound_to 10752
  153.2877  135.7014  153.7398 H   0  0  0  0  0  0  0  0  0  0  0  0  # atno 10765 bound_to 10752
  140.1183  134.8880  157.2036 H   0  0  0  0  0  0  0  0  0  0  0  0  # atno 11005 bound_to 11000
  145.7098  139.1682  143.2545 LP  0  0  0  0  0  0  0  0  0  0  0  0  # atno 17320 bound_to 7965
  146.1355  140.7128  142.9391 LP  0  0  0  0  0  0  0  0  0  0  0  0  # atno 17321 bound_to 7965
  139.4799  144.5866  151.7843 LP  0  0  0  0  0  0  0  0  0  0  0  0  # atno 17342 bound_to 10162
  140.4989  144.1198  150.5966 LP  0  0  0  0  0  0  0  0  0  0  0  0  # atno 17343 bound_to 10162
  156.0032  130.3869  150.2528 LP  0  0  0  0  0  0  0  0  0  0  0  0  # atno 17370 bound_to 10713
  157.0706  131.0115  151.3191 LP  0  0  0  0  0  0  0  0  0  0  0  0  # atno 17371 bound_to 10713
  140.2999  134.3144  155.7292 LP  0  0  0  0  0  0  0  0  0  0  0  0  # atno 17394 bound_to 11000
  141.2146  133.7585  156.9625 LP  0  0  0  0  0  0  0  0  0  0  0  0  # atno 17395 bound_to 11000

$$$$
