AV-unprocessed.smi:3057|AV-procd|sdf|11661|dock7
  -GOLD-   2272017 63D 1   1.00000     0.00000
 Structure written by MMmdl.
 40 42  0  0  0  0  0  0  0  0  1 V2000
  150.3760  144.1805  160.6323 C   0  0  0  0  0  0  0  0  0  0  0  0
  151.9026  144.1521  160.4259 C   0  0  1  0  0  0  0  0  0  0  0  0
  152.6514  144.0741  161.7689 C   0  0  0  0  0  0  0  0  0  0  0  0
  152.9268  142.5767  161.9701 C   0  0  0  0  0  0  0  0  0  0  0  0
  152.8754  142.0414  160.5484 C   0  0  0  0  0  0  0  0  0  0  0  0
  153.3464  140.9544  160.2176 O   0  0  0  0  0  0  0  0  0  0  0  0
  152.3184  142.9468  159.7341 N   0  0  0  0  0  0  0  0  0  0  0  0
  152.4067  142.9848  158.2723 C   0  0  1  0  0  0  0  0  0  0  0  0
  151.3392  142.0735  157.6431 C   0  0  0  0  0  0  0  0  0  0  0  0
  150.6426  141.3377  158.3435 O   0  0  0  0  0  0  0  0  0  0  0  0
  151.2180  142.1451  156.3101 N   0  0  0  0  0  0  0  0  0  0  0  0
  150.2757  141.3643  155.5195 C   0  0  0  0  0  0  0  0  0  0  0  0
  148.8444  141.5641  156.0370 C   0  0  0  0  0  0  0  0  0  0  0  0
  147.8316  140.7349  155.2698 C   0  0  0  0  0  0  0  0  0  0  0  0
  146.4754  140.7122  155.6598 C   0  0  0  0  0  0  0  0  0  0  0  0
  145.5762  139.9251  154.9145 C   0  0  0  0  0  0  0  0  0  0  0  0
  146.0650  139.1941  153.8147 C   0  0  0  0  0  0  0  0  0  0  0  0
  147.4376  139.2824  153.5081 C   0  0  0  0  0  0  0  0  0  0  0  0
  148.3080  140.0350  154.2155 N   0  0  0  0  0  0  0  0  0  0  0  0
  152.1616  144.4569  157.8562 C   0  0  0  0  0  0  0  0  0  0  0  0
  152.4423  145.4760  159.3312 S   0  0  0  0  0  0  0  0  0  0  0  0
  150.0326  143.3116  161.1948 H   0  0  0  0  0  0  0  0  0  0  0  0
  149.8388  144.1917  159.6841 H   0  0  0  0  0  0  0  0  0  0  0  0
  150.0747  145.0710  161.1846 H   0  0  0  0  0  0  0  0  0  0  0  0
  153.5989  144.6123  161.7126 H   0  0  0  0  0  0  0  0  0  0  0  0
  152.0828  144.5043  162.5944 H   0  0  0  0  0  0  0  0  0  0  0  0
  153.8916  142.3911  162.4428 H   0  0  0  0  0  0  0  0  0  0  0  0
  152.1439  142.1017  162.5622 H   0  0  0  0  0  0  0  0  0  0  0  0
  153.4090  142.6758  157.9690 H   0  0  0  0  0  0  0  0  0  0  0  0
  151.8280  142.7742  155.8084 H   0  0  0  0  0  0  0  0  0  0  0  0
  150.3333  141.6591  154.4702 H   0  0  0  0  0  0  0  0  0  0  0  0
  150.5549  140.3113  155.5750 H   0  0  0  0  0  0  0  0  0  0  0  0
  148.7907  141.3049  157.0953 H   0  0  0  0  0  0  0  0  0  0  0  0
  148.5650  142.6164  155.9645 H   0  0  0  0  0  0  0  0  0  0  0  0
  146.1304  141.2836  156.5092 H   0  0  0  0  0  0  0  0  0  0  0  0
  144.5306  139.8833  155.1815 H   0  0  0  0  0  0  0  0  0  0  0  0
  145.4043  138.5805  153.2205 H   0  0  0  0  0  0  0  0  0  0  0  0
  147.8468  138.7347  152.6720 H   0  0  0  0  0  0  0  0  0  0  0  0
  152.8175  144.7675  157.0431 H   0  0  0  0  0  0  0  0  0  0  0  0
  151.1337  144.6278  157.5320 H   0  0  0  0  0  0  0  0  0  0  0  0
  1  2  1  0  0  0  0
  1 22  1  0  0  0  0
  1 23  1  0  0  0  0
  1 24  1  0  0  0  0
  2  7  1  0  0  0  0
  2 21  1  0  0  0  0
  2  3  1  0  0  0  0
  3  4  1  0  0  0  0
  3 25  1  0  0  0  0
  3 26  1  0  0  0  0
  4  5  1  0  0  0  0
  4 27  1  0  0  0  0
  4 28  1  0  0  0  0
  5  6  2  0  0  0  0
  5  7  1  0  0  0  0
  7  8  1  0  0  0  0
  8  9  1  0  0  0  0
  8 20  1  0  0  0  0
  8 29  1  0  0  0  0
  9 10  2  0  0  0  0
  9 11  1  0  0  0  0
 11 12  1  0  0  0  0
 11 30  1  0  0  0  0
 12 13  1  0  0  0  0
 12 31  1  0  0  0  0
 12 32  1  0  0  0  0
 13 14  1  0  0  0  0
 13 33  1  0  0  0  0
 13 34  1  0  0  0  0
 14 19  1  0  0  0  0
 14 15  2  0  0  0  0
 15 16  1  0  0  0  0
 15 35  1  0  0  0  0
 16 17  2  0  0  0  0
 16 36  1  0  0  0  0
 17 18  1  0  0  0  0
 17 37  1  0  0  0  0
 18 19  2  0  0  0  0
 18 38  1  0  0  0  0
 20 21  1  0  0  0  0
 20 39  1  0  0  0  0
 20 40  1  0  0  0  0
M  END
> <s_m_source_file>
AV-unprocessed.smi

> <i_m_source_file_index>
3057

> <i_lp_mmshare_version>
43012

> <i_f3d_flags>
0

> <s_epik_input>
W0NIMl0xW0NIMl1DKD1PKU4oW0NAQF0xMltDSDNdKVtDQEhdKFtDSDJdUzIpQyg9TylbTkhdW0NIMl1bQ0gyXWMzW2NIXVtjSF1bY0hdW2NIXW4z

> <s_epik_cmdline>
J2VwaWtfcHl0aG9uJywgJy1waCcsICc3LjAnLCAnLXRuJywgJzgnLCAnLW1hJywgJzIwMCcsICctbWV0YWxfYmluZGluZycsICctaW1hZScsICc8aW5maWxlLm1hZT4nLCAnLW9tYWUnLCAnPG91dGZpbGUubWFlPic=

> <r_epik_Ionization_Penalty>
0.0249631

> <r_epik_Ionization_Penalty_Charging>
0

> <r_epik_Ionization_Penalty_Neutral>
0.0249631

> <r_epik_State_Penalty>
0.0202943

> <r_epik_Charging_Adjusted_Penalty>
0.0202943

> <i_epik_Tot_Q>
0

> <i_epik_Tot_abs_Q>
0

> <r_epik_Metal_State_Penalty>
0.0194661

> <b_epik_Metal_Only>
0

> <s_lp_Force_Field>
OPLS_2005

> <r_lp_Energy>
25.4312

> <b_lp_Chiralities_Consistent>
1

> <s_lp_Variant>
AV-unprocessed.smi:3057-1

> <Gold.Version>
5.8.1

> <Gold.Id.Protein>
6NUR|6NUR_protein|mol2

> <Gold.PLP.Fitness>
44.3587

> <Gold.PLP.PLP>
-39.3098

> <Gold.PLP.part.hbond>
0.0000

> <Gold.PLP.part.metal>
0.0000

> <Gold.PLP.part.buried>
-0.5552

> <Gold.PLP.part.nonpolar>
-38.1463

> <Gold.PLP.part.repulsive>
0.2537

> <Gold.PLP.ligand.clash>
0.0000

> <Gold.PLP.ligand.torsion>
0.1064

> <Gold.PLP.Chemscore.Hbond>
0.0000

> <Gold.PLP.Chemscore.CHOScore>
1.7500

> <Gold.PLP.Chemscore.Metal>
0.0000

> <Gold.Chemscore.Hbonds>
donor molecule, donor type, donor heavy atom, donor atom, acceptor molecule, acceptor atom, score
      L1  C    18    38       P1  7948  0.25
      L1  C    18    38       P1  7957  0.53

> <Gold.PLP.Chemscore.Internal.Correction>
0.0118

> <Gold.Rescore>
     Score         DG    S(hbond)    S(metal)    S(lipo)     H(rot)  DE(clash)    DE(int)     intcor
     12.49     -14.41       0.00        0.00     109.85       1.53       1.69       0.23       ----

> <Gold.Chemscore.Fitness>
12.4884

> <Gold.Chemscore.DG>
-14.4055

> <Gold.Chemscore.ZeroCoef>
-5.4800

> <Gold.Chemscore.Hbond>
0.0000

> <Gold.Chemscore.Metal>
0.0000

> <Gold.Chemscore.Lipo>
109.8485

> <Gold.Chemscore.Internal_Hbond>
0.0000

> <Gold.Chemscore.DEClash>
1.6875

> <Gold.Chemscore.DEInternal>
0.2297

> <Gold.Chemscore.Rot>
1.5339

> <Gold.Chemscore.Internal.Correction>
   9.000000E+99

> <Gold.Chemscore.Hbond.Weighted>
-0.0000

> <Gold.Chemscore.Metal.Weighted>
-0.0000

> <Gold.Chemscore.Lipo.Weighted>
-12.8523

> <Gold.Chemscore.Internal_Hbond.Weighted>
0.0000

> <Gold.Chemscore.DEClash.Weighted>
1.6875

> <Gold.Chemscore.DEInternal.Weighted>
0.2297

> <Gold.Chemscore.Rot.Weighted>
3.9267

> <Gold.Chemscore.Internal.Correction.Weighted>
   9.000000E+99

> <Gold.Protein.RotatedTorsions>
[ 6907 6896 6895 6894 ] final   38.13 input  -60.11 | X-H torsion
[ 7974 7965 7964 7962 ] final  151.53 input  175.53 | X-H torsion
[ 8008 7997 7996 7995 ] final  103.15 input   59.86 | X-H torsion
[ 10167 10162 10161 10158 ] final  102.17 input  -65.29 | X-H torsion
[ 10718 10713 10712 10709 ] final -163.92 input   66.30 | X-H torsion
[ 10763 10752 10751 10750 ] final   86.89 input  -60.55 | X-H torsion
[ 11005 11000 10999 10996 ] final -157.12 input  -57.11 | X-H torsion

> <Gold.Protein.ActiveResidues>
 VAL166  LYS551  ARG553  GLY616  TRP617  ASP618  TYR619  PRO620  LYS621  CYS622 
 ASP623  PHE694  ASN695  SER759  ASP760  ASP761  ALA762  ILE779  LEU786  VAL792 
 PHE793  MET794  SER795  GLU796  ALA797  LYS798  CYS799  TRP800  GLU811  SER814 

> <Gold.Protein.RotatedAtoms>
  152.1523  134.8978  160.0546 H   0  0  0  0  0  0  0  0  0  0  0  0  # atno 6907 bound_to 6896
  152.0005  133.3819  159.4188 H   0  0  0  0  0  0  0  0  0  0  0  0  # atno 6908 bound_to 6896
  150.6877  134.3761  159.5057 H   0  0  0  0  0  0  0  0  0  0  0  0  # atno 6909 bound_to 6896
  144.8286  139.6549  143.6069 H   0  0  0  0  0  0  0  0  0  0  0  0  # atno 7974 bound_to 7965
  156.1457  140.3169  155.8567 H   0  0  0  0  0  0  0  0  0  0  0  0  # atno 8008 bound_to 7997
  155.4068  140.0503  157.3051 H   0  0  0  0  0  0  0  0  0  0  0  0  # atno 8009 bound_to 7997
  154.5015  140.2131  155.9350 H   0  0  0  0  0  0  0  0  0  0  0  0  # atno 8010 bound_to 7997
  139.7374  144.7020  151.0628 H   0  0  0  0  0  0  0  0  0  0  0  0  # atno 10167 bound_to 10162
  156.6316  130.8932  151.2978 H   0  0  0  0  0  0  0  0  0  0  0  0  # atno 10718 bound_to 10713
  153.1615  135.4563  154.9778 H   0  0  0  0  0  0  0  0  0  0  0  0  # atno 10763 bound_to 10752
  154.7901  135.3217  154.7800 H   0  0  0  0  0  0  0  0  0  0  0  0  # atno 10764 bound_to 10752
  153.8289  135.6940  153.4871 H   0  0  0  0  0  0  0  0  0  0  0  0  # atno 10765 bound_to 10752
  140.6681  134.4277  157.5232 H   0  0  0  0  0  0  0  0  0  0  0  0  # atno 11005 bound_to 11000
  146.2590  139.6368  142.9375 LP  0  0  0  0  0  0  0  0  0  0  0  0  # atno 17320 bound_to 7965
  145.4945  141.0438  143.2574 LP  0  0  0  0  0  0  0  0  0  0  0  0  # atno 17321 bound_to 7965
  140.7781  143.4967  150.9823 LP  0  0  0  0  0  0  0  0  0  0  0  0  # atno 17342 bound_to 10162
  139.8656  143.7259  152.3170 LP  0  0  0  0  0  0  0  0  0  0  0  0  # atno 17343 bound_to 10162
  157.7198  130.9544  150.1395 LP  0  0  0  0  0  0  0  0  0  0  0  0  # atno 17370 bound_to 10713
  156.2230  130.3675  149.8533 LP  0  0  0  0  0  0  0  0  0  0  0  0  # atno 17371 bound_to 10713
  139.8991  134.8599  156.1975 LP  0  0  0  0  0  0  0  0  0  0  0  0  # atno 17394 bound_to 11000
  141.0414  133.6936  156.1604 LP  0  0  0  0  0  0  0  0  0  0  0  0  # atno 17395 bound_to 11000

$$$$
