AV-unprocessed.smi:447|AV-procd|sdf|2598|dock9
  -GOLD-   2262022593D 1   1.00000     0.00000
 Structure written by MMmdl.
 45 47  0  0  0  0  0  0  0  0  1 V2000
  151.5260  135.3802  156.4202 C   0  0  0  0  0  0  0  0  0  0  0  0
  151.6289  136.6219  155.5419 C   0  0  0  0  0  0  0  0  0  0  0  0
  151.4867  136.5289  154.3230 O   0  0  0  0  0  0  0  0  0  0  0  0
  151.8878  137.7761  156.1739 N   0  0  0  0  0  0  0  0  0  0  0  0
  152.0842  139.0725  155.5280 C   0  0  1  0  0  0  0  0  0  0  0  0
  153.1247  138.9802  154.4014 C   0  0  0  0  0  0  0  0  0  0  0  0
  150.7449  139.5422  155.0193 C   0  0  0  0  0  0  0  0  0  0  0  0
  149.9775  138.7746  154.2389 N   0  0  0  0  0  0  0  0  0  0  0  0
  148.8781  139.5734  154.0012 C   0  0  0  0  0  0  0  0  0  0  0  0
  147.7082  139.3261  153.2478 C   0  0  0  0  0  0  0  0  0  0  0  0
  146.7030  140.3101  153.1473 C   0  0  0  0  0  0  0  0  0  0  0  0
  146.8536  141.5526  153.7964 C   0  0  0  0  0  0  0  0  0  0  0  0
  148.0124  141.8188  154.5509 C   0  0  0  0  0  0  0  0  0  0  0  0
  149.0125  140.8326  154.6485 C   0  0  0  0  0  0  0  0  0  0  0  0
  150.2429  140.7757  155.2959 N   0  0  0  0  0  0  0  0  0  0  0  0
  150.8205  141.8499  156.0946 C   0  0  0  0  0  0  0  0  0  0  0  0
  150.4164  141.7572  157.5804 C   0  0  2  0  0  0  0  0  0  0  0  0
  149.3986  142.7074  157.8215 O   0  0  0  0  0  0  0  0  0  0  0  0
  151.5989  141.9186  158.5269 C   0  0  0  0  0  0  0  0  0  0  0  0
  152.2377  140.7742  159.0517 C   0  0  0  0  0  0  0  0  0  0  0  0
  153.3368  140.9088  159.9216 C   0  0  0  0  0  0  0  0  0  0  0  0
  153.8023  142.1894  160.2755 C   0  0  0  0  0  0  0  0  0  0  0  0
  153.1724  143.3351  159.7530 C   0  0  0  0  0  0  0  0  0  0  0  0
  152.0761  143.2010  158.8793 C   0  0  0  0  0  0  0  0  0  0  0  0
  150.9392  135.5864  157.3159 H   0  0  0  0  0  0  0  0  0  0  0  0
  152.5203  135.0527  156.7253 H   0  0  0  0  0  0  0  0  0  0  0  0
  151.0471  134.5633  155.8795 H   0  0  0  0  0  0  0  0  0  0  0  0
  151.9864  137.7565  157.1788 H   0  0  0  0  0  0  0  0  0  0  0  0
  152.4486  139.7625  156.2863 H   0  0  0  0  0  0  0  0  0  0  0  0
  153.2657  139.9498  153.9232 H   0  0  0  0  0  0  0  0  0  0  0  0
  152.8163  138.2716  153.6320 H   0  0  0  0  0  0  0  0  0  0  0  0
  154.0940  138.6581  154.7826 H   0  0  0  0  0  0  0  0  0  0  0  0
  147.5838  138.3778  152.7464 H   0  0  0  0  0  0  0  0  0  0  0  0
  145.8126  140.1109  152.5691 H   0  0  0  0  0  0  0  0  0  0  0  0
  146.0794  142.3013  153.7147 H   0  0  0  0  0  0  0  0  0  0  0  0
  148.1309  142.7698  155.0486 H   0  0  0  0  0  0  0  0  0  0  0  0
  151.9026  141.8786  155.9740 H   0  0  0  0  0  0  0  0  0  0  0  0
  150.4585  142.7911  155.6787 H   0  0  0  0  0  0  0  0  0  0  0  0
  149.9654  140.7810  157.7634 H   0  0  0  0  0  0  0  0  0  0  0  0
  149.3493  143.2876  157.0770 H   0  0  0  0  0  0  0  0  0  0  0  0
  151.8899  139.7875  158.7820 H   0  0  0  0  0  0  0  0  0  0  0  0
  153.8241  140.0293  160.3160 H   0  0  0  0  0  0  0  0  0  0  0  0
  154.6469  142.2931  160.9407 H   0  0  0  0  0  0  0  0  0  0  0  0
  153.5348  144.3177  160.0166 H   0  0  0  0  0  0  0  0  0  0  0  0
  151.6076  144.0874  158.4773 H   0  0  0  0  0  0  0  0  0  0  0  0
  1  2  1  0  0  0  0
  1 25  1  0  0  0  0
  1 26  1  0  0  0  0
  1 27  1  0  0  0  0
  2  3  2  0  0  0  0
  2  4  1  0  0  0  0
  4  5  1  0  0  0  0
  4 28  1  0  0  0  0
  5  6  1  0  0  0  0
  5  7  1  0  0  0  0
  5 29  1  0  0  0  0
  6 30  1  0  0  0  0
  6 31  1  0  0  0  0
  6 32  1  0  0  0  0
  7 15  1  0  0  0  0
  7  8  2  0  0  0  0
  8  9  1  0  0  0  0
  9 14  2  0  0  0  0
  9 10  1  0  0  0  0
 10 11  2  0  0  0  0
 10 33  1  0  0  0  0
 11 12  1  0  0  0  0
 11 34  1  0  0  0  0
 12 13  2  0  0  0  0
 12 35  1  0  0  0  0
 13 14  1  0  0  0  0
 13 36  1  0  0  0  0
 14 15  1  0  0  0  0
 15 16  1  0  0  0  0
 16 17  1  0  0  0  0
 16 37  1  0  0  0  0
 16 38  1  0  0  0  0
 17 18  1  0  0  0  0
 17 19  1  0  0  0  0
 17 39  1  0  0  0  0
 18 40  1  0  0  0  0
 19 24  1  0  0  0  0
 19 20  2  0  0  0  0
 20 21  1  0  0  0  0
 20 41  1  0  0  0  0
 21 22  2  0  0  0  0
 21 42  1  0  0  0  0
 22 23  1  0  0  0  0
 22 43  1  0  0  0  0
 23 24  2  0  0  0  0
 23 44  1  0  0  0  0
 24 45  1  0  0  0  0
M  END
> <s_m_source_file>
AV-unprocessed.smi

> <i_m_source_file_index>
447

> <i_lp_mmshare_version>
43012

> <i_f3d_flags>
0

> <s_epik_input>
W0NIM11DKD1PKVtOSF1bQ0BIXShbQ0gzXSljKG4xKW4oYyhjMTIpW2NIXVtjSF1bY0hdW2NIXTIpW0NIMl1bQ0BIXShbT0hdKWMzW2NIXVtjSF1bY0hdW2NIXVtjSF0z

> <s_epik_cmdline>
J2VwaWtfcHl0aG9uJywgJy1waCcsICc3LjAnLCAnLXRuJywgJzgnLCAnLW1hJywgJzIwMCcsICctbWV0YWxfYmluZGluZycsICctaW1hZScsICc8aW5maWxlLm1hZT4nLCAnLW9tYWUnLCAnPG91dGZpbGUubWFlPic=

> <r_epik_Ionization_Penalty>
0.13301

> <r_epik_Ionization_Penalty_Charging>
0

> <r_epik_Ionization_Penalty_Neutral>
0.13301

> <r_epik_State_Penalty>
0.122384

> <r_epik_Charging_Adjusted_Penalty>
0.122384

> <i_epik_Tot_Q>
0

> <i_epik_Tot_abs_Q>
0

> <r_epik_Metal_State_Penalty>
0.0997374

> <b_epik_Metal_Only>
0

> <s_lp_Force_Field>
OPLS_2005

> <r_lp_Energy>
6.90784

> <b_lp_Chiralities_Consistent>
1

> <s_lp_Variant>
AV-unprocessed.smi:447-2

> <Gold.Version>
5.8.1

> <Gold.Id.Protein>
6NUR|6NUR_protein|mol2

> <Gold.PLP.Fitness>
51.6419

> <Gold.PLP.PLP>
-49.3615

> <Gold.PLP.part.hbond>
-2.0000

> <Gold.PLP.part.metal>
0.0000

> <Gold.PLP.part.buried>
-0.3768

> <Gold.PLP.part.nonpolar>
-47.1986

> <Gold.PLP.part.repulsive>
0.4374

> <Gold.PLP.ligand.clash>
0.0000

> <Gold.PLP.ligand.torsion>
1.8838

> <Gold.PLP.Chemscore.Hbond>
2.0000

> <Gold.PLP.Chemscore.CHOScore>
0.0000

> <Gold.PLP.Chemscore.Metal>
0.0000

> <Gold.Chemscore.Hbonds>
donor molecule, donor type, donor heavy atom, donor atom, acceptor molecule, acceptor atom, score
      L1  H    18    40       P1  8028  0.93
      P1  H 10752 10763       L1     3  0.25

> <Gold.PLP.Chemscore.Internal.Correction>
0.0480

> <Gold.Rescore>
     Score         DG    S(hbond)    S(metal)    S(lipo)     H(rot)  DE(clash)    DE(int)     intcor
     16.57     -22.18       1.93        0.00     139.16       2.35       1.12       4.49       ----

> <Gold.Chemscore.Fitness>
16.5697

> <Gold.Chemscore.DG>
-22.1827

> <Gold.Chemscore.ZeroCoef>
-5.4800

> <Gold.Chemscore.Hbond>
1.9295

> <Gold.Chemscore.Metal>
0.0000

> <Gold.Chemscore.Lipo>
139.1566

> <Gold.Chemscore.Internal_Hbond>
0.0000

> <Gold.Chemscore.DEClash>
1.1206

> <Gold.Chemscore.DEInternal>
4.4924

> <Gold.Chemscore.Rot>
2.3528

> <Gold.Chemscore.Internal.Correction>
   9.000000E+99

> <Gold.Chemscore.Hbonds>
donor molecule, donor type, donor heavy atom, donor atom, acceptor molecule, acceptor atom, score
      L1  H    18    40       P1  8028  0.80

> <Gold.Chemscore.Hbond.Weighted>
-6.4445

> <Gold.Chemscore.Metal.Weighted>
-0.0000

> <Gold.Chemscore.Lipo.Weighted>
-16.2813

> <Gold.Chemscore.Internal_Hbond.Weighted>
0.0000

> <Gold.Chemscore.DEClash.Weighted>
1.1206

> <Gold.Chemscore.DEInternal.Weighted>
4.4924

> <Gold.Chemscore.Rot.Weighted>
6.0231

> <Gold.Chemscore.Internal.Correction.Weighted>
   9.000000E+99

> <Gold.Protein.RotatedTorsions>
[ 6907 6896 6895 6894 ] final   17.40 input  -60.11 | X-H torsion
[ 7974 7965 7964 7962 ] final  122.26 input  175.53 | X-H torsion
[ 8008 7997 7996 7995 ] final  -84.65 input   59.86 | X-H torsion
[ 10167 10162 10161 10158 ] final   -8.57 input  -65.29 | X-H torsion
[ 10718 10713 10712 10709 ] final   72.49 input   66.30 | X-H torsion
[ 10763 10752 10751 10750 ] final   46.46 input  -60.55 | X-H torsion
[ 11005 11000 10999 10996 ] final   41.16 input  -57.11 | X-H torsion

> <Gold.Protein.ActiveResidues>
 VAL166  LYS551  ARG553  GLY616  TRP617  ASP618  TYR619  PRO620  LYS621  CYS622 
 ASP623  PHE694  ASN695  SER759  ASP760  ASP761  ALA762  ILE779  LEU786  VAL792 
 PHE793  MET794  SER795  GLU796  ALA797  LYS798  CYS799  TRP800  GLU811  SER814 

> <Gold.Protein.RotatedAtoms>
  151.8490  135.0564  160.0456 H   0  0  0  0  0  0  0  0  0  0  0  0  # atno 6907 bound_to 6896
  152.2751  133.5414  159.5471 H   0  0  0  0  0  0  0  0  0  0  0  0  # atno 6908 bound_to 6896
  150.7167  134.0559  159.3856 H   0  0  0  0  0  0  0  0  0  0  0  0  # atno 6909 bound_to 6896
  145.1097  139.3461  143.4769 H   0  0  0  0  0  0  0  0  0  0  0  0  # atno 7974 bound_to 7965
  154.6321  140.0602  156.9745 H   0  0  0  0  0  0  0  0  0  0  0  0  # atno 8008 bound_to 7997
  155.1649  140.3286  155.4385 H   0  0  0  0  0  0  0  0  0  0  0  0  # atno 8009 bound_to 7997
  156.2488  140.1924  156.6754 H   0  0  0  0  0  0  0  0  0  0  0  0  # atno 8010 bound_to 7997
  140.7063  143.5954  150.8851 H   0  0  0  0  0  0  0  0  0  0  0  0  # atno 10167 bound_to 10162
  157.6503  130.9581  150.0937 H   0  0  0  0  0  0  0  0  0  0  0  0  # atno 10718 bound_to 10713
  152.9810  135.6007  154.3603 H   0  0  0  0  0  0  0  0  0  0  0  0  # atno 10763 bound_to 10752
  154.3285  135.2769  155.2485 H   0  0  0  0  0  0  0  0  0  0  0  0  # atno 10764 bound_to 10752
  154.4620  135.5963  153.6318 H   0  0  0  0  0  0  0  0  0  0  0  0  # atno 10765 bound_to 10752
  140.1861  134.4044  155.8172 H   0  0  0  0  0  0  0  0  0  0  0  0  # atno 11005 bound_to 11000
  146.3527  140.1010  142.8608 LP  0  0  0  0  0  0  0  0  0  0  0  0  # atno 17320 bound_to 7965
  145.0861  140.9254  143.4796 LP  0  0  0  0  0  0  0  0  0  0  0  0  # atno 17321 bound_to 7965
  139.9679  143.6090  152.2982 LP  0  0  0  0  0  0  0  0  0  0  0  0  # atno 17342 bound_to 10162
  139.6666  144.7662  151.1862 LP  0  0  0  0  0  0  0  0  0  0  0  0  # atno 17343 bound_to 10162
  156.1879  130.3653  149.8949 LP  0  0  0  0  0  0  0  0  0  0  0  0  # atno 17370 bound_to 10713
  156.6885  130.8886  151.3585 LP  0  0  0  0  0  0  0  0  0  0  0  0  # atno 17371 bound_to 10713
  141.2225  133.7024  156.8015 LP  0  0  0  0  0  0  0  0  0  0  0  0  # atno 17394 bound_to 11000
  140.2212  134.8756  157.3379 LP  0  0  0  0  0  0  0  0  0  0  0  0  # atno 17395 bound_to 11000

$$$$
