AV-unprocessed.smi:1405|AV-procd|sdf|5707|dock10
  -GOLD-   22720 5343D 1   1.00000     0.00000
 Structure written by MMmdl.
 49 52  0  0  0  0  0  0  0  0  1 V2000
  152.4825  138.3514  157.4042 O   0  0  0  0  0  0  0  0  0  0  0  0
  151.6305  138.4875  158.2816 C   0  0  0  0  0  0  0  0  0  0  0  0
  150.2828  137.7596  158.1336 C   0  0  0  0  0  0  0  0  0  0  0  0
  149.5221  138.1052  156.9209 N   0  0  0  0  0  0  0  0  0  0  0  0
  148.7618  139.2656  156.8800 C   0  0  0  0  0  0  0  0  0  0  0  0
  148.0425  139.6480  155.7982 C   0  0  0  0  0  0  0  0  0  0  0  0
  148.0349  138.8309  154.5896 C   0  0  0  0  0  0  0  0  0  0  0  0
  147.4163  139.0925  153.5605 O   0  0  0  0  0  0  0  0  0  0  0  0
  148.8123  137.6725  154.6693 N   0  0  0  0  0  0  0  0  0  0  0  0
  149.5566  137.2728  155.7803 C   0  0  0  0  0  0  0  0  0  0  0  0
  150.2156  136.2346  155.7420 O   0  0  0  0  0  0  0  0  0  0  0  0
  151.8247  139.2523  159.3696 N   0  0  0  0  0  0  0  0  0  0  0  0
  153.0250  140.0291  159.6511 C   0  0  0  0  0  0  0  0  0  0  0  0
  152.7050  141.2354  160.5584 C   0  0  0  0  0  0  0  0  0  0  0  0
  152.1790  142.5091  159.8485 C   0  0  0  0  0  0  0  0  0  0  0  0
  150.9743  142.1927  158.9207 C   0  0  0  0  0  0  0  0  0  0  0  0
  150.4393  143.4880  158.2716 C   0  0  2  0  0  0  0  0  0  0  0  0
  151.5575  144.1467  157.4362 C   0  0  0  0  0  0  0  0  0  0  0  0
  152.7465  144.4909  158.3583 C   0  0  1  0  0  0  0  0  0  0  0  0
  152.2833  145.4694  159.4567 C   0  0  0  0  0  0  0  0  0  0  0  0
  151.1643  144.8059  160.2852 C   0  0  1  0  0  0  0  0  0  0  0  0
  149.9708  144.4641  159.3700 C   0  0  0  0  0  0  0  0  0  0  0  0
  151.7020  143.5130  160.9331 C   0  0  0  0  0  0  0  0  0  0  0  0
  153.2878  143.1984  159.0076 C   0  0  0  0  0  0  0  0  0  0  0  0
  148.8386  137.0755  153.8554 H   0  0  0  0  0  0  0  0  0  0  0  0
  150.4618  136.6834  158.1731 H   0  0  0  0  0  0  0  0  0  0  0  0
  149.6857  137.9775  159.0202 H   0  0  0  0  0  0  0  0  0  0  0  0
  148.7406  139.9038  157.7522 H   0  0  0  0  0  0  0  0  0  0  0  0
  147.4703  140.5640  155.8270 H   0  0  0  0  0  0  0  0  0  0  0  0
  151.0749  139.3118  160.0432 H   0  0  0  0  0  0  0  0  0  0  0  0
  153.7347  139.3607  160.1370 H   0  0  0  0  0  0  0  0  0  0  0  0
  153.4827  140.3449  158.7135 H   0  0  0  0  0  0  0  0  0  0  0  0
  151.9722  140.9260  161.3053 H   0  0  0  0  0  0  0  0  0  0  0  0
  153.6049  141.4907  161.1203 H   0  0  0  0  0  0  0  0  0  0  0  0
  151.2641  141.4975  158.1330 H   0  0  0  0  0  0  0  0  0  0  0  0
  150.1796  141.7024  159.4847 H   0  0  0  0  0  0  0  0  0  0  0  0
  149.5983  143.2451  157.6214 H   0  0  0  0  0  0  0  0  0  0  0  0
  151.8790  143.4759  156.6385 H   0  0  0  0  0  0  0  0  0  0  0  0
  151.1838  145.0480  156.9485 H   0  0  0  0  0  0  0  0  0  0  0  0
  153.5372  144.9574  157.7699 H   0  0  0  0  0  0  0  0  0  0  0  0
  153.1216  145.7399  160.1001 H   0  0  0  0  0  0  0  0  0  0  0  0
  151.9242  146.3977  159.0106 H   0  0  0  0  0  0  0  0  0  0  0  0
  150.8365  145.4931  161.0659 H   0  0  0  0  0  0  0  0  0  0  0  0
  149.5647  145.3720  158.9221 H   0  0  0  0  0  0  0  0  0  0  0  0
  149.1627  144.0190  159.9520 H   0  0  0  0  0  0  0  0  0  0  0  0
  150.9243  143.0618  161.5511 H   0  0  0  0  0  0  0  0  0  0  0  0
  152.5226  143.7562  161.6099 H   0  0  0  0  0  0  0  0  0  0  0  0
  154.1502  143.4291  159.6344 H   0  0  0  0  0  0  0  0  0  0  0  0
  153.6478  142.5335  158.2225 H   0  0  0  0  0  0  0  0  0  0  0  0
  1  2  2  0  0  0  0
  2  3  1  0  0  0  0
  2 12  1  0  0  0  0
  3  4  1  0  0  0  0
  3 26  1  0  0  0  0
  3 27  1  0  0  0  0
  4 10  1  0  0  0  0
  4  5  1  0  0  0  0
  5  6  2  0  0  0  0
  5 28  1  0  0  0  0
  6  7  1  0  0  0  0
  6 29  1  0  0  0  0
  7  8  2  0  0  0  0
  7  9  1  0  0  0  0
  9 25  1  0  0  0  0
  9 10  1  0  0  0  0
 10 11  2  0  0  0  0
 12 13  1  0  0  0  0
 12 30  1  0  0  0  0
 13 14  1  0  0  0  0
 13 31  1  0  0  0  0
 13 32  1  0  0  0  0
 14 15  1  0  0  0  0
 14 33  1  0  0  0  0
 14 34  1  0  0  0  0
 15 23  1  0  0  0  0
 15 24  1  0  0  0  0
 15 16  1  0  0  0  0
 16 17  1  0  0  0  0
 16 35  1  0  0  0  0
 16 36  1  0  0  0  0
 17 22  1  0  0  0  0
 17 18  1  0  0  0  0
 17 37  1  0  0  0  0
 18 19  1  0  0  0  0
 18 38  1  0  0  0  0
 18 39  1  0  0  0  0
 19 20  1  0  0  0  0
 19 24  1  0  0  0  0
 19 40  1  0  0  0  0
 20 21  1  0  0  0  0
 20 41  1  0  0  0  0
 20 42  1  0  0  0  0
 21 22  1  0  0  0  0
 21 23  1  0  0  0  0
 21 43  1  0  0  0  0
 22 44  1  0  0  0  0
 22 45  1  0  0  0  0
 23 46  1  0  0  0  0
 23 47  1  0  0  0  0
 24 48  1  0  0  0  0
 24 49  1  0  0  0  0
M  END
> <s_m_source_file>
AV-unprocessed.smi

> <i_m_source_file_index>
1405

> <i_lp_mmshare_version>
43012

> <i_f3d_flags>
0

> <s_epik_input>
Tz1jMVtuSF1jKD1PKVtjSF1bY0hdbjFbQ0gyXUMoPU8pW05IXVtDSDJdW0NIMl1DMjNbQ0gyXVtDQEBIXTRbQ0gyXVtDQEhdKFtDSDJdMylbQ0gyXVtDQEBIXShbQ0gyXTQpW0NIMl0y

> <s_epik_cmdline>
J2VwaWtfcHl0aG9uJywgJy1waCcsICc3LjAnLCAnLXRuJywgJzgnLCAnLW1hJywgJzIwMCcsICctbWV0YWxfYmluZGluZycsICctaW1hZScsICc8aW5maWxlLm1hZT4nLCAnLW9tYWUnLCAnPG91dGZpbGUubWFlPic=

> <r_lp_tautomer_probability>
0.999537

> <r_epik_Ionization_Penalty>
0.00301971

> <r_epik_Ionization_Penalty_Charging>
0.00301969

> <r_epik_Ionization_Penalty_Neutral>
2.18059e-08

> <r_epik_State_Penalty>
0.00212114

> <r_epik_Charging_Adjusted_Penalty>
0.00514083

> <i_epik_Tot_Q>
0

> <i_epik_Tot_abs_Q>
0

> <r_epik_Metal_State_Penalty>
0.361473

> <b_epik_Metal_Only>
0

> <s_lp_Force_Field>
OPLS_2005

> <r_lp_Energy>
33.2851

> <b_lp_Chiralities_Consistent>
1

> <s_lp_Variant>
AV-unprocessed.smi:1405-1

> <Gold.Version>
5.8.1

> <Gold.Id.Protein>
6NUR|6NUR_protein|mol2

> <Gold.PLP.Fitness>
52.4318

> <Gold.PLP.PLP>
-44.7546

> <Gold.PLP.part.hbond>
-3.0000

> <Gold.PLP.part.metal>
0.0000

> <Gold.PLP.part.buried>
-5.9515

> <Gold.PLP.part.nonpolar>
-36.4920

> <Gold.PLP.part.repulsive>
0.9363

> <Gold.PLP.ligand.clash>
0.0000

> <Gold.PLP.ligand.torsion>
0.6701

> <Gold.PLP.Chemscore.Hbond>
3.0000

> <Gold.PLP.Chemscore.CHOScore>
0.0000

> <Gold.PLP.Chemscore.Metal>
0.0000

> <Gold.Chemscore.Hbonds>
donor molecule, donor type, donor heavy atom, donor atom, acceptor molecule, acceptor atom, score
      L1  H     9    25       P1  7948  0.68

> <Gold.PLP.Chemscore.Internal.Correction>
0.0174

> <Gold.Rescore>
     Score         DG    S(hbond)    S(metal)    S(lipo)     H(rot)  DE(clash)    DE(int)     intcor
     24.44     -24.87       2.80        0.00     133.37       2.18       0.00       0.43       ----

> <Gold.Chemscore.Fitness>
24.4405

> <Gold.Chemscore.DG>
-24.8669

> <Gold.Chemscore.ZeroCoef>
-5.4800

> <Gold.Chemscore.Hbond>
2.8031

> <Gold.Chemscore.Metal>
0.0000

> <Gold.Chemscore.Lipo>
133.3714

> <Gold.Chemscore.Internal_Hbond>
0.0000

> <Gold.Chemscore.DEClash>
0.0000

> <Gold.Chemscore.DEInternal>
0.4264

> <Gold.Chemscore.Rot>
2.1797

> <Gold.Chemscore.Internal.Correction>
   9.000000E+99

> <Gold.Chemscore.Hbonds>
donor molecule, donor type, donor heavy atom, donor atom, acceptor molecule, acceptor atom, score
      L1  H     9    25       P1  7948  0.69

> <Gold.Chemscore.Hbond.Weighted>
-9.3624

> <Gold.Chemscore.Metal.Weighted>
-0.0000

> <Gold.Chemscore.Lipo.Weighted>
-15.6045

> <Gold.Chemscore.Internal_Hbond.Weighted>
0.0000

> <Gold.Chemscore.DEClash.Weighted>
0.0000

> <Gold.Chemscore.DEInternal.Weighted>
0.4264

> <Gold.Chemscore.Rot.Weighted>
5.5799

> <Gold.Chemscore.Internal.Correction.Weighted>
   9.000000E+99

> <Gold.Protein.RotatedTorsions>
[ 6907 6896 6895 6894 ] final  149.62 input  -60.11 | X-H torsion
[ 7974 7965 7964 7962 ] final   60.52 input  175.53 | X-H torsion
[ 8008 7997 7996 7995 ] final  174.81 input   59.86 | X-H torsion
[ 10167 10162 10161 10158 ] final   24.16 input  -65.29 | X-H torsion
[ 10718 10713 10712 10709 ] final   64.08 input   66.30 | X-H torsion
[ 10763 10752 10751 10750 ] final  163.46 input  -60.55 | X-H torsion
[ 11005 11000 10999 10996 ] final    3.24 input  -57.11 | X-H torsion

> <Gold.Protein.ActiveResidues>
 VAL166  LYS551  ARG553  GLY616  TRP617  ASP618  TYR619  PRO620  LYS621  CYS622 
 ASP623  PHE694  ASN695  SER759  ASP760  ASP761  ALA762  ILE779  LEU786  VAL792 
 PHE793  MET794  SER795  GLU796  ALA797  LYS798  CYS799  TRP800  GLU811  SER814 

> <Gold.Protein.RotatedAtoms>
  152.1256  133.4378  159.4695 H   0  0  0  0  0  0  0  0  0  0  0  0  # atno 6907 bound_to 6896
  150.6874  134.2482  159.4509 H   0  0  0  0  0  0  0  0  0  0  0  0  # atno 6908 bound_to 6896
  152.0362  134.9738  160.0624 H   0  0  0  0  0  0  0  0  0  0  0  0  # atno 6909 bound_to 6896
  145.8951  139.3539  143.0626 H   0  0  0  0  0  0  0  0  0  0  0  0  # atno 7974 bound_to 7965
  156.0936  140.1425  156.9560 H   0  0  0  0  0  0  0  0  0  0  0  0  # atno 8008 bound_to 7997
  154.4657  140.0927  156.7060 H   0  0  0  0  0  0  0  0  0  0  0  0  # atno 8009 bound_to 7997
  155.4878  140.3447  155.4352 H   0  0  0  0  0  0  0  0  0  0  0  0  # atno 8010 bound_to 7997
  140.5210  144.0002  150.6417 H   0  0  0  0  0  0  0  0  0  0  0  0  # atno 10167 bound_to 10162
  157.6015  130.9140  149.9799 H   0  0  0  0  0  0  0  0  0  0  0  0  # atno 10718 bound_to 10713
  154.2940  135.2760  155.2641 H   0  0  0  0  0  0  0  0  0  0  0  0  # atno 10763 bound_to 10752
  154.5108  135.5783  153.6606 H   0  0  0  0  0  0  0  0  0  0  0  0  # atno 10764 bound_to 10752
  152.9910  135.6180  154.3107 H   0  0  0  0  0  0  0  0  0  0  0  0  # atno 10765 bound_to 10752
  140.5953  133.9886  155.8107 H   0  0  0  0  0  0  0  0  0  0  0  0  # atno 11005 bound_to 11000
  145.8860  140.9333  143.0576 LP  0  0  0  0  0  0  0  0  0  0  0  0  # atno 17320 bound_to 7965
  144.6732  140.0843  143.7468 LP  0  0  0  0  0  0  0  0  0  0  0  0  # atno 17321 bound_to 7965
  140.3351  143.3054  152.0647 LP  0  0  0  0  0  0  0  0  0  0  0  0  # atno 17342 bound_to 10162
  139.4923  144.6482  151.6733 LP  0  0  0  0  0  0  0  0  0  0  0  0  # atno 17343 bound_to 10162
  156.1090  130.3651  150.0083 LP  0  0  0  0  0  0  0  0  0  0  0  0  # atno 17370 bound_to 10713
  156.8185  130.9350  151.3642 LP  0  0  0  0  0  0  0  0  0  0  0  0  # atno 17371 bound_to 10713
  141.0908  133.9919  157.3240 LP  0  0  0  0  0  0  0  0  0  0  0  0  # atno 17394 bound_to 11000
  139.9256  135.0201  156.8222 LP  0  0  0  0  0  0  0  0  0  0  0  0  # atno 17395 bound_to 11000

$$$$
