AV-unprocessed.smi:2874|AV-procd|sdf|11039|dock2
  -GOLD-   2272015503D 1   1.00000     0.00000
 Structure written by MMmdl.
 40 42  0  0  0  0  0  0  0  0  2 V2000
  145.3046  143.8183  154.5302 C   0  0  0  0  0  0  0  0  0  0  0  0
  145.8223  142.8115  155.3813 O   0  0  0  0  0  0  0  0  0  0  0  0
  146.7435  141.9594  154.7202 C   0  0  0  0  0  0  0  0  0  0  0  0
  147.1805  140.8386  155.6739 C   0  0  0  0  0  0  0  0  0  0  0  0
  147.8824  139.7548  154.9722 N   0  0  0  0  0  0  0  0  0  0  0  0
  147.3967  138.7182  154.2329 C   0  0  0  0  0  0  0  0  0  0  0  0
  145.6937  138.3781  153.9097 S   0  0  0  0  0  0  0  0  0  0  0  0
  145.4107  136.6387  154.3548 C   0  0  0  0  0  0  0  0  0  0  0  0
  145.3925  135.7648  153.1132 C   0  0  0  0  0  0  0  0  0  0  0  0
  145.5372  134.4486  153.2983 N   0  0  0  0  0  0  0  0  0  0  0  0
  145.5394  133.6727  152.1927 C   0  0  0  0  0  0  0  0  0  0  0  0
  145.3969  134.2206  150.9017 C   0  0  0  0  0  0  0  0  0  0  0  0
  145.2478  135.6201  150.8317 C   0  0  0  0  0  0  0  0  0  0  0  0
  145.1011  136.2623  149.6052 N   0  0  0  0  0  0  0  0  0  0  0  0
  145.2459  136.3908  151.9401 N   0  0  0  0  0  0  0  0  0  0  0  0
  148.4632  137.9995  153.7849 N   0  3  0  0  0  0  0  0  0  0  0  0
  149.6454  138.5769  154.2486 C   0  0  0  0  0  0  0  0  0  0  0  0
  150.9734  138.2058  154.0647 C   0  0  0  0  0  0  0  0  0  0  0  0
  151.9496  139.0200  154.6763 C   0  0  0  0  0  0  0  0  0  0  0  0
  153.6179  138.6216  154.4921 Cl  0  0  0  0  0  0  0  0  0  0  0  0
  151.5874  140.1532  155.4340 C   0  0  0  0  0  0  0  0  0  0  0  0
  150.2374  140.5196  155.6145 C   0  0  0  0  0  0  0  0  0  0  0  0
  149.2800  139.7072  155.0087 C   0  0  0  0  0  0  0  0  0  0  0  0
  144.6070  144.4443  155.0866 H   0  0  0  0  0  0  0  0  0  0  0  0
  144.7674  143.3835  153.6864 H   0  0  0  0  0  0  0  0  0  0  0  0
  146.1001  144.4588  154.1472 H   0  0  0  0  0  0  0  0  0  0  0  0
  146.2810  141.5334  153.8286 H   0  0  0  0  0  0  0  0  0  0  0  0
  147.6152  142.5289  154.3948 H   0  0  0  0  0  0  0  0  0  0  0  0
  147.8232  141.2238  156.4659 H   0  0  0  0  0  0  0  0  0  0  0  0
  146.3088  140.4074  156.1671 H   0  0  0  0  0  0  0  0  0  0  0  0
  146.2077  136.3067  155.0208 H   0  0  0  0  0  0  0  0  0  0  0  0
  144.4738  136.5542  154.9071 H   0  0  0  0  0  0  0  0  0  0  0  0
  145.6573  132.6090  152.3386 H   0  0  0  0  0  0  0  0  0  0  0  0
  145.4002  133.5974  150.0194 H   0  0  0  0  0  0  0  0  0  0  0  0
  145.0979  135.7440  148.7382 H   0  0  0  0  0  0  0  0  0  0  0  0
  144.8685  137.2435  149.5513 H   0  0  0  0  0  0  0  0  0  0  0  0
  151.2506  137.3387  153.4834 H   0  0  0  0  0  0  0  0  0  0  0  0
  152.3612  140.7553  155.8879 H   0  0  0  0  0  0  0  0  0  0  0  0
  149.9716  141.3900  156.1962 H   0  0  0  0  0  0  0  0  0  0  0  0
  148.3836  137.1669  153.2146 H   0  0  0  0  0  0  0  0  0  0  0  0
  1  2  1  0  0  0  0
  1 24  1  0  0  0  0
  1 25  1  0  0  0  0
  1 26  1  0  0  0  0
  2  3  1  0  0  0  0
  3  4  1  0  0  0  0
  3 27  1  0  0  0  0
  3 28  1  0  0  0  0
  4  5  1  0  0  0  0
  4 29  1  0  0  0  0
  4 30  1  0  0  0  0
  5 23  1  0  0  0  0
  5  6  1  0  0  0  0
  6  7  1  0  0  0  0
  6 16  2  0  0  0  0
  7  8  1  0  0  0  0
  8  9  1  0  0  0  0
  8 31  1  0  0  0  0
  8 32  1  0  0  0  0
  9 15  1  0  0  0  0
  9 10  2  0  0  0  0
 10 11  1  0  0  0  0
 11 12  2  0  0  0  0
 11 33  1  0  0  0  0
 12 13  1  0  0  0  0
 12 34  1  0  0  0  0
 13 14  1  0  0  0  0
 13 15  2  0  0  0  0
 14 35  1  0  0  0  0
 14 36  1  0  0  0  0
 16 17  1  0  0  0  0
 16 40  1  0  0  0  0
 17 23  2  0  0  0  0
 17 18  1  0  0  0  0
 18 19  2  0  0  0  0
 18 37  1  0  0  0  0
 19 20  1  0  0  0  0
 19 21  1  0  0  0  0
 21 22  2  0  0  0  0
 21 38  1  0  0  0  0
 22 23  1  0  0  0  0
 22 39  1  0  0  0  0
M  CHG  1  16   1
M  END
> <s_m_source_file>
AV-unprocessed.smi

> <i_m_source_file_index>
2874

> <i_lp_mmshare_version>
43012

> <i_f3d_flags>
0

> <s_epik_input>
W2NIXTFjKENsKVtjSF1bY0hdYyhjMTIpbihbQ0gyXVtDSDJdT1tDSDNdKWMobjIpU1tDSDJdYzNuW2NIXVtjSF1jKG4zKVtOSDJd

> <s_epik_cmdline>
J2VwaWtfcHl0aG9uJywgJy1waCcsICc3LjAnLCAnLXRuJywgJzgnLCAnLW1hJywgJzIwMCcsICctbWV0YWxfYmluZGluZycsICctaW1hZScsICc8aW5maWxlLm1hZT4nLCAnLW9tYWUnLCAnPG91dGZpbGUubWFlPic=

> <r_lp_tautomer_probability>
1

> <r_epik_Ionization_Penalty>
2.48176

> <r_epik_Ionization_Penalty_Charging>
2.48043

> <r_epik_Ionization_Penalty_Neutral>
0.00132706

> <r_epik_State_Penalty>
2.64401

> <r_epik_Charging_Adjusted_Penalty>
5.12444

> <i_epik_Tot_Q>
1

> <i_epik_Tot_abs_Q>
1

> <r_epik_Metal_State_Penalty>
2.65168

> <b_epik_Metal_Only>
0

> <s_lp_Force_Field>
OPLS_2005

> <r_lp_Energy>
0.65944

> <b_lp_Chiralities_Consistent>
1

> <s_lp_Variant>
AV-unprocessed.smi:2874-2

> <Gold.Version>
5.8.1

> <Gold.Id.Protein>
6NUR|6NUR_protein|mol2

> <Gold.PLP.Fitness>
46.1353

> <Gold.PLP.PLP>
-35.8913

> <Gold.PLP.part.hbond>
-2.8425

> <Gold.PLP.part.metal>
0.0000

> <Gold.PLP.part.buried>
-3.8208

> <Gold.PLP.part.nonpolar>
-30.0730

> <Gold.PLP.part.repulsive>
0.6488

> <Gold.PLP.ligand.clash>
0.0000

> <Gold.PLP.ligand.torsion>
0.8924

> <Gold.PLP.Chemscore.Hbond>
3.9840

> <Gold.PLP.Chemscore.CHOScore>
0.0000

> <Gold.PLP.Chemscore.Metal>
0.0000

> <Gold.Chemscore.Hbonds>
donor molecule, donor type, donor heavy atom, donor atom, acceptor molecule, acceptor atom, score
      L1  H    14    35       P1  7921  0.86
      L1  H    14    36       P1 10171  1.00
      L1  H    16    40       P1  7948  1.92

> <Gold.PLP.Chemscore.Internal.Correction>
0.0767

> <Gold.Rescore>
     Score         DG    S(hbond)    S(metal)    S(lipo)     H(rot)  DE(clash)    DE(int)     intcor
     16.58     -17.50       2.79        0.00      78.10       2.51       0.02       0.90       ----

> <Gold.Chemscore.Fitness>
16.5825

> <Gold.Chemscore.DG>
-17.5019

> <Gold.Chemscore.ZeroCoef>
-5.4800

> <Gold.Chemscore.Hbond>
2.7866

> <Gold.Chemscore.Metal>
0.0000

> <Gold.Chemscore.Lipo>
78.0953

> <Gold.Chemscore.Internal_Hbond>
0.0000

> <Gold.Chemscore.DEClash>
0.0163

> <Gold.Chemscore.DEInternal>
0.9031

> <Gold.Chemscore.Rot>
2.5088

> <Gold.Chemscore.Internal.Correction>
   9.000000E+99

> <Gold.Chemscore.Hbonds>
donor molecule, donor type, donor heavy atom, donor atom, acceptor molecule, acceptor atom, score
      L1  H    14    35       P1  7921  0.85
      L1  H    14    36       P1 10171  0.98
      L1  H    16    40       P1  7948  0.92

> <Gold.Chemscore.Hbond.Weighted>
-9.3072

> <Gold.Chemscore.Metal.Weighted>
-0.0000

> <Gold.Chemscore.Lipo.Weighted>
-9.1372

> <Gold.Chemscore.Internal_Hbond.Weighted>
0.0000

> <Gold.Chemscore.DEClash.Weighted>
0.0163

> <Gold.Chemscore.DEInternal.Weighted>
0.9031

> <Gold.Chemscore.Rot.Weighted>
6.4224

> <Gold.Chemscore.Internal.Correction.Weighted>
   9.000000E+99

> <Gold.Protein.RotatedTorsions>
[ 6907 6896 6895 6894 ] final  -53.56 input  -60.11 | X-H torsion
[ 7974 7965 7964 7962 ] final   89.07 input  175.53 | X-H torsion
[ 8008 7997 7996 7995 ] final  104.77 input   59.86 | X-H torsion
[ 10167 10162 10161 10158 ] final   48.43 input  -65.29 | X-H torsion
[ 10718 10713 10712 10709 ] final -152.39 input   66.30 | X-H torsion
[ 10763 10752 10751 10750 ] final   29.55 input  -60.55 | X-H torsion
[ 11005 11000 10999 10996 ] final   89.60 input  -57.11 | X-H torsion

> <Gold.Protein.ActiveResidues>
 VAL166  LYS551  ARG553  GLY616  TRP617  ASP618  TYR619  PRO620  LYS621  CYS622 
 ASP623  PHE694  ASN695  SER759  ASP760  ASP761  ALA762  ILE779  LEU786  VAL792 
 PHE793  MET794  SER795  GLU796  ALA797  LYS798  CYS799  TRP800  GLU811  SER814 

> <Gold.Protein.RotatedAtoms>
  150.8416  134.7710  159.6936 H   0  0  0  0  0  0  0  0  0  0  0  0  # atno 6907 bound_to 6896
  152.4502  134.5406  159.9848 H   0  0  0  0  0  0  0  0  0  0  0  0  # atno 6908 bound_to 6896
  151.5545  133.3374  159.2995 H   0  0  0  0  0  0  0  0  0  0  0  0  # atno 6909 bound_to 6896
  145.5373  139.2286  143.2585 H   0  0  0  0  0  0  0  0  0  0  0  0  # atno 7974 bound_to 7965
  156.1602  140.3142  155.8794 H   0  0  0  0  0  0  0  0  0  0  0  0  # atno 8008 bound_to 7997
  155.3798  140.0487  157.3061 H   0  0  0  0  0  0  0  0  0  0  0  0  # atno 8009 bound_to 7997
  154.5139  140.2174  155.9114 H   0  0  0  0  0  0  0  0  0  0  0  0  # atno 8010 bound_to 7997
  140.2934  144.3020  150.6235 H   0  0  0  0  0  0  0  0  0  0  0  0  # atno 10167 bound_to 10162
  156.4718  130.8262  151.2491 H   0  0  0  0  0  0  0  0  0  0  0  0  # atno 10718 bound_to 10713
  153.0423  135.6486  154.0908 H   0  0  0  0  0  0  0  0  0  0  0  0  # atno 10763 bound_to 10752
  154.0612  135.2888  155.3326 H   0  0  0  0  0  0  0  0  0  0  0  0  # atno 10764 bound_to 10752
  154.6656  135.5375  153.8138 H   0  0  0  0  0  0  0  0  0  0  0  0  # atno 10765 bound_to 10752
  139.8872  134.8562  156.3166 H   0  0  0  0  0  0  0  0  0  0  0  0  # atno 11005 bound_to 11000
  146.2004  140.6192  142.9105 LP  0  0  0  0  0  0  0  0  0  0  0  0  # atno 17320 bound_to 7965
  144.7595  140.5388  143.6745 LP  0  0  0  0  0  0  0  0  0  0  0  0  # atno 17321 bound_to 7965
  140.5713  143.2180  151.7594 LP  0  0  0  0  0  0  0  0  0  0  0  0  # atno 17342 bound_to 10162
  139.4932  144.4212  151.9975 LP  0  0  0  0  0  0  0  0  0  0  0  0  # atno 17343 bound_to 10162
  157.7490  131.0073  150.3187 LP  0  0  0  0  0  0  0  0  0  0  0  0  # atno 17370 bound_to 10713
  156.3610  130.3847  149.7251 LP  0  0  0  0  0  0  0  0  0  0  0  0  # atno 17371 bound_to 10713
  140.9815  133.7264  156.0679 LP  0  0  0  0  0  0  0  0  0  0  0  0  # atno 17394 bound_to 11000
  140.7743  134.3797  157.5501 LP  0  0  0  0  0  0  0  0  0  0  0  0  # atno 17395 bound_to 11000

$$$$
