AV-unprocessed.smi:1412|AV-procd|sdf|5747|dock2
  -GOLD-   22720 5383D 1   1.00000     0.00000
 Structure written by MMmdl.
 41 42  0  0  0  0  0  0  0  0  3 V2000
  147.0779  133.8086  154.9743 C   0  0  0  0  0  0  0  0  0  0  0  0
  147.6866  135.2036  154.7470 C   0  0  0  0  0  0  0  0  0  0  0  0
  149.2123  135.3472  155.0347 C   0  0  2  0  0  0  0  0  0  0  0  0
  149.9815  134.2104  154.3093 C   0  0  0  0  0  0  0  0  0  0  0  0
  149.4937  135.1846  156.5591 C   0  0  0  0  0  0  0  0  0  0  0  0
  148.6510  136.0618  157.3744 N   0  0  0  0  0  0  0  0  0  0  0  0
  148.2204  135.8270  158.6222 C   0  0  0  0  0  0  0  0  0  0  0  0
  148.6244  134.8415  159.2423 O   0  0  0  0  0  0  0  0  0  0  0  0
  147.3215  136.7336  159.0629 N   0  5  0  0  0  0  0  0  0  0  0  0
  146.8466  136.6470  160.3162 C   0  0  0  0  0  0  0  0  0  0  0  0
  147.4575  137.2384  161.3557 N   0  0  0  0  0  0  0  0  0  0  0  0
  146.8028  137.0322  162.5621 N   0  0  0  0  0  0  0  0  0  0  0  0
  145.7158  136.2774  162.4023 C   0  0  0  0  0  0  0  0  0  0  0  0
  145.3922  135.7522  160.7634 S   0  0  0  0  0  0  0  0  0  0  0  0
  149.7173  136.6983  154.5882 N   0  3  0  0  0  0  0  0  0  0  0  0
  148.9130  137.8907  154.9748 C   0  0  0  0  0  0  0  0  0  0  0  0
  149.4435  139.1433  154.2530 C   0  0  0  0  0  0  0  0  0  0  0  0
  150.8236  139.3307  154.5374 O   0  0  0  0  0  0  0  0  0  0  0  0
  151.6068  138.2266  154.1037 C   0  0  0  0  0  0  0  0  0  0  0  0
  151.1556  136.9698  154.8619 C   0  0  0  0  0  0  0  0  0  0  0  0
  146.0044  133.8296  154.7851 H   0  0  0  0  0  0  0  0  0  0  0  0
  147.2168  133.4651  155.9987 H   0  0  0  0  0  0  0  0  0  0  0  0
  147.5042  133.0630  154.3038 H   0  0  0  0  0  0  0  0  0  0  0  0
  147.4819  135.4948  153.7165 H   0  0  0  0  0  0  0  0  0  0  0  0
  147.1243  135.8984  155.3710 H   0  0  0  0  0  0  0  0  0  0  0  0
  149.7873  133.2381  154.7625 H   0  0  0  0  0  0  0  0  0  0  0  0
  151.0611  134.3608  154.3509 H   0  0  0  0  0  0  0  0  0  0  0  0
  149.6948  134.1277  153.2605 H   0  0  0  0  0  0  0  0  0  0  0  0
  149.3913  134.1454  156.8728 H   0  0  0  0  0  0  0  0  0  0  0  0
  150.5277  135.4442  156.7848 H   0  0  0  0  0  0  0  0  0  0  0  0
  148.3067  136.8978  156.9246 H   0  0  0  0  0  0  0  0  0  0  0  0
  145.1014  136.0279  163.2544 H   0  0  0  0  0  0  0  0  0  0  0  0
  147.8656  137.7849  154.6978 H   0  0  0  0  0  0  0  0  0  0  0  0
  148.9501  138.0307  156.0558 H   0  0  0  0  0  0  0  0  0  0  0  0
  149.2948  139.0596  153.1749 H   0  0  0  0  0  0  0  0  0  0  0  0
  148.8935  140.0257  154.5807 H   0  0  0  0  0  0  0  0  0  0  0  0
  151.5144  138.0903  153.0247 H   0  0  0  0  0  0  0  0  0  0  0  0
  152.6562  138.4353  154.3117 H   0  0  0  0  0  0  0  0  0  0  0  0
  151.3141  137.1246  155.9300 H   0  0  0  0  0  0  0  0  0  0  0  0
  151.7831  136.1306  154.5691 H   0  0  0  0  0  0  0  0  0  0  0  0
  149.6433  136.6590  153.5806 H   0  0  0  0  0  0  0  0  0  0  0  0
  1  2  1  0  0  0  0
  1 21  1  0  0  0  0
  1 22  1  0  0  0  0
  1 23  1  0  0  0  0
  2  3  1  0  0  0  0
  2 24  1  0  0  0  0
  2 25  1  0  0  0  0
  3  4  1  0  0  0  0
  3  5  1  0  0  0  0
  3 15  1  0  0  0  0
  4 26  1  0  0  0  0
  4 27  1  0  0  0  0
  4 28  1  0  0  0  0
  5  6  1  0  0  0  0
  5 29  1  0  0  0  0
  5 30  1  0  0  0  0
  6  7  1  0  0  0  0
  6 31  1  0  0  0  0
  7  8  2  0  0  0  0
  7  9  1  0  0  0  0
  9 10  1  0  0  0  0
 10 14  1  0  0  0  0
 10 11  2  0  0  0  0
 11 12  1  0  0  0  0
 12 13  2  0  0  0  0
 13 14  1  0  0  0  0
 13 32  1  0  0  0  0
 15 20  1  0  0  0  0
 15 16  1  0  0  0  0
 15 41  1  0  0  0  0
 16 17  1  0  0  0  0
 16 33  1  0  0  0  0
 16 34  1  0  0  0  0
 17 18  1  0  0  0  0
 17 35  1  0  0  0  0
 17 36  1  0  0  0  0
 18 19  1  0  0  0  0
 19 20  1  0  0  0  0
 19 37  1  0  0  0  0
 19 38  1  0  0  0  0
 20 39  1  0  0  0  0
 20 40  1  0  0  0  0
M  CHG  1   9  -1
M  CHG  1  15   1
M  END
> <s_m_source_file>
AV-unprocessed.smi

> <i_m_source_file_index>
1412

> <i_lp_mmshare_version>
43012

> <i_f3d_flags>
0

> <s_epik_input>
W0NIMl0xW0NIMl1PW0NIMl1bQ0gyXU4xW0NAQF0oW0NIM10pKFtDSDJdW0NIM10pW0NIMl1bTkhdQyg9TylbTkhdYzJubltjSF1zMg==

> <s_epik_cmdline>
J2VwaWtfcHl0aG9uJywgJy1waCcsICc3LjAnLCAnLXRuJywgJzgnLCAnLW1hJywgJzIwMCcsICctbWV0YWxfYmluZGluZycsICctaW1hZScsICc8aW5maWxlLm1hZT4nLCAnLW9tYWUnLCAnPG91dGZpbGUubWFlPic=

> <r_lp_tautomer_probability>
1

> <r_epik_Ionization_Penalty>
4.35651

> <r_epik_Ionization_Penalty_Charging>
4.3235

> <r_epik_Ionization_Penalty_Neutral>
0.0330098

> <r_epik_State_Penalty>
4.4846

> <r_epik_Charging_Adjusted_Penalty>
8.8081

> <i_epik_Tot_Q>
0

> <i_epik_Tot_abs_Q>
2

> <r_epik_Metal_State_Penalty>
1.11611

> <b_epik_Metal_Only>
1

> <s_lp_Force_Field>
OPLS_2005

> <r_lp_Energy>
23.2358

> <b_lp_Chiralities_Consistent>
1

> <s_lp_Variant>
AV-unprocessed.smi:1412-8

> <Gold.Version>
5.8.1

> <Gold.Id.Protein>
6NUR|6NUR_protein|mol2

> <Gold.PLP.Fitness>
36.6429

> <Gold.PLP.PLP>
-21.2264

> <Gold.PLP.part.hbond>
-5.0000

> <Gold.PLP.part.metal>
0.0000

> <Gold.PLP.part.buried>
-3.9264

> <Gold.PLP.part.nonpolar>
-12.5011

> <Gold.PLP.part.repulsive>
0.1885

> <Gold.PLP.ligand.clash>
0.0000

> <Gold.PLP.ligand.torsion>
1.1986

> <Gold.PLP.Chemscore.Hbond>
5.8240

> <Gold.PLP.Chemscore.CHOScore>
0.0000

> <Gold.PLP.Chemscore.Metal>
0.0000

> <Gold.Chemscore.Hbonds>
donor molecule, donor type, donor heavy atom, donor atom, acceptor molecule, acceptor atom, score
      L1  H    15    41       P1  7948  2.00
      P1  H  6896  6907       L1     8  0.84
      P1  H  6931  6943       L1    11  0.90
      P1  H  6934  6947       L1    11  0.91
      P1  H  7989  7998       L1    18  1.00

> <Gold.PLP.Chemscore.Internal.Correction>
0.3416

> <Gold.Rescore>
     Score         DG    S(hbond)    S(metal)    S(lipo)     H(rot)  DE(clash)    DE(int)     intcor
     16.32     -17.83       3.24        0.00      54.19       1.88       0.14       1.37       ----

> <Gold.Chemscore.Fitness>
16.3205

> <Gold.Chemscore.DG>
-17.8253

> <Gold.Chemscore.ZeroCoef>
-5.4800

> <Gold.Chemscore.Hbond>
3.2374

> <Gold.Chemscore.Metal>
0.0000

> <Gold.Chemscore.Lipo>
54.1856

> <Gold.Chemscore.Internal_Hbond>
0.0000

> <Gold.Chemscore.DEClash>
0.1364

> <Gold.Chemscore.DEInternal>
1.3684

> <Gold.Chemscore.Rot>
1.8779

> <Gold.Chemscore.Internal.Correction>
   9.000000E+99

> <Gold.Chemscore.Hbonds>
donor molecule, donor type, donor heavy atom, donor atom, acceptor molecule, acceptor atom, score
      L1  H    15    41       P1  7948  0.60
      P1  H  6896  6907       L1     8  0.82
      P1  H  6931  6943       L1    11  0.30
      P1  H  6934  6947       L1    11  0.13
      P1  H  7989  7998       L1    18  0.28

> <Gold.Chemscore.Hbond.Weighted>
-10.8130

> <Gold.Chemscore.Metal.Weighted>
-0.0000

> <Gold.Chemscore.Lipo.Weighted>
-6.3397

> <Gold.Chemscore.Internal_Hbond.Weighted>
0.0000

> <Gold.Chemscore.DEClash.Weighted>
0.1364

> <Gold.Chemscore.DEInternal.Weighted>
1.3684

> <Gold.Chemscore.Rot.Weighted>
4.8074

> <Gold.Chemscore.Internal.Correction.Weighted>
   9.000000E+99

> <Gold.Protein.RotatedTorsions>
[ 6907 6896 6895 6894 ] final  -90.58 input  -60.11 | X-H torsion
[ 7974 7965 7964 7962 ] final  120.64 input  175.53 | X-H torsion
[ 8008 7997 7996 7995 ] final  179.62 input   59.86 | X-H torsion
[ 10167 10162 10161 10158 ] final  -38.40 input  -65.29 | X-H torsion
[ 10718 10713 10712 10709 ] final -144.58 input   66.30 | X-H torsion
[ 10763 10752 10751 10750 ] final  -45.30 input  -60.55 | X-H torsion
[ 11005 11000 10999 10996 ] final   43.96 input  -57.11 | X-H torsion

> <Gold.Protein.ActiveResidues>
 VAL166  LYS551  ARG553  GLY616  TRP617  ASP618  TYR619  PRO620  LYS621  CYS622 
 ASP623  PHE694  ASN695  SER759  ASP760  ASP761  ALA762  ILE779  LEU786  VAL792 
 PHE793  MET794  SER795  GLU796  ALA797  LYS798  CYS799  TRP800  GLU811  SER814 

> <Gold.Protein.RotatedAtoms>
  150.6883  134.2411  159.4472 H   0  0  0  0  0  0  0  0  0  0  0  0  # atno 6907 bound_to 6896
  152.0355  134.9740  160.0582 H   0  0  0  0  0  0  0  0  0  0  0  0  # atno 6908 bound_to 6896
  152.1263  133.4347  159.4736 H   0  0  0  0  0  0  0  0  0  0  0  0  # atno 6909 bound_to 6896
  145.1287  139.3341  143.4676 H   0  0  0  0  0  0  0  0  0  0  0  0  # atno 7974 bound_to 7965
  156.0414  140.1304  157.0152 H   0  0  0  0  0  0  0  0  0  0  0  0  # atno 8008 bound_to 7997
  154.4392  140.1029  156.6312 H   0  0  0  0  0  0  0  0  0  0  0  0  # atno 8009 bound_to 7997
  155.5661  140.3465  155.4506 H   0  0  0  0  0  0  0  0  0  0  0  0  # atno 8010 bound_to 7997
  140.7093  143.3279  151.2636 H   0  0  0  0  0  0  0  0  0  0  0  0  # atno 10167 bound_to 10162
  156.3718  130.7792  151.1973 H   0  0  0  0  0  0  0  0  0  0  0  0  # atno 10718 bound_to 10713
  154.0262  135.6662  153.4776 H   0  0  0  0  0  0  0  0  0  0  0  0  # atno 10763 bound_to 10752
  153.0559  135.5056  154.7976 H   0  0  0  0  0  0  0  0  0  0  0  0  # atno 10764 bound_to 10752
  154.6907  135.3061  154.9449 H   0  0  0  0  0  0  0  0  0  0  0  0  # atno 10765 bound_to 10752
  140.1596  134.4358  155.8327 H   0  0  0  0  0  0  0  0  0  0  0  0  # atno 11005 bound_to 11000
  146.3515  140.1277  142.8598 LP  0  0  0  0  0  0  0  0  0  0  0  0  # atno 17320 bound_to 7965
  145.0659  140.9121  143.4911 LP  0  0  0  0  0  0  0  0  0  0  0  0  # atno 17321 bound_to 7965
  139.6753  143.9948  152.2777 LP  0  0  0  0  0  0  0  0  0  0  0  0  # atno 17342 bound_to 10162
  139.9560  144.6589  150.8125 LP  0  0  0  0  0  0  0  0  0  0  0  0  # atno 17343 bound_to 10162
  157.7484  131.0370  150.4435 LP  0  0  0  0  0  0  0  0  0  0  0  0  # atno 17370 bound_to 10713
  156.4663  130.4043  149.6545 LP  0  0  0  0  0  0  0  0  0  0  0  0  # atno 17371 bound_to 10713
  141.2208  133.6907  156.7569 LP  0  0  0  0  0  0  0  0  0  0  0  0  # atno 17394 bound_to 11000
  140.2506  134.8543  157.3663 LP  0  0  0  0  0  0  0  0  0  0  0  0  # atno 17395 bound_to 11000

$$$$
