AV-unprocessed.smi:270|AV-procd|sdf|2046|dock8
  -GOLD-   2262021273D 1   1.00000     0.00000
 Structure written by MMmdl.
 54 57  0  0  0  0  0  0  0  0  1 V2000
  150.7253  145.1491  159.4686 C   0  0  0  0  0  0  0  0  0  0  0  0
  151.8774  144.2464  158.9940 C   0  0  1  0  0  0  0  0  0  0  0  0
  152.7862  144.0090  160.0680 O   0  0  0  0  0  0  0  0  0  0  0  0
  152.8243  142.6232  160.3703 C   0  0  0  0  0  0  0  0  0  0  0  0
  152.5455  141.9520  159.0328 C   0  0  0  0  0  0  0  0  0  0  0  0
  151.4878  142.8588  158.4205 C   0  0  1  0  0  0  0  0  0  0  0  0
  150.2202  142.4458  158.9060 O   0  0  0  0  0  0  0  0  0  0  0  0
  151.4724  142.7829  156.8747 C   0  0  0  0  0  0  0  0  0  0  0  0
  150.9301  141.5356  156.3599 N   0  0  0  0  0  0  0  0  0  0  0  0
  149.8116  141.3860  155.5721 C   0  0  0  0  0  0  0  0  0  0  0  0
  149.5228  140.1567  155.2445 N   0  0  0  0  0  0  0  0  0  0  0  0
  150.5228  139.3983  155.8425 C   0  0  0  0  0  0  0  0  0  0  0  0
  150.8065  138.0020  155.8855 C   0  0  0  0  0  0  0  0  0  0  0  0
  150.0172  137.0098  155.2345 N   0  0  0  0  0  0  0  0  0  0  0  0
  149.1359  136.2357  156.0967 C   0  0  0  0  0  0  0  0  0  0  0  0
  149.5932  134.9942  155.3249 C   0  0  0  0  0  0  0  0  0  0  0  0
  148.6571  134.5416  154.3588 O   0  0  0  0  0  0  0  0  0  0  0  0
  148.8711  133.1909  153.9802 C   0  0  0  0  0  0  0  0  0  0  0  0
  147.6747  132.7120  153.1500 C   0  0  0  0  0  0  0  0  0  0  0  0
  147.0332  133.5506  152.5155 O   0  0  0  0  0  0  0  0  0  0  0  0
  147.3682  131.3935  153.1294 N   0  0  0  0  0  0  0  0  0  0  0  0
  146.2807  130.8343  152.3214 C   0  0  0  0  0  0  0  0  0  0  0  0
  148.1422  130.4328  153.9197 C   0  0  0  0  0  0  0  0  0  0  0  0
  150.7050  135.8392  154.7018 C   0  0  0  0  0  0  0  0  0  0  0  0
  151.9305  137.6382  156.5599 N   0  0  0  0  0  0  0  0  0  0  0  0
  152.6960  138.5474  157.1703 C   0  0  0  0  0  0  0  0  0  0  0  0
  152.5348  139.8696  157.2266 N   0  0  0  0  0  0  0  0  0  0  0  0
  151.4242  140.2549  156.5375 C   0  0  0  0  0  0  0  0  0  0  0  0
  150.0094  145.3341  158.6678 H   0  0  0  0  0  0  0  0  0  0  0  0
  151.1050  146.1151  159.8013 H   0  0  0  0  0  0  0  0  0  0  0  0
  150.1862  144.7052  160.3059 H   0  0  0  0  0  0  0  0  0  0  0  0
  152.4537  144.7921  158.2465 H   0  0  0  0  0  0  0  0  0  0  0  0
  153.7841  142.3326  160.7979 H   0  0  0  0  0  0  0  0  0  0  0  0
  152.0409  142.3895  161.0927 H   0  0  0  0  0  0  0  0  0  0  0  0
  153.4549  141.9689  158.4302 H   0  0  0  0  0  0  0  0  0  0  0  0
  152.2310  140.9122  159.1314 H   0  0  0  0  0  0  0  0  0  0  0  0
  149.7491  142.0284  158.2011 H   0  0  0  0  0  0  0  0  0  0  0  0
  150.8790  143.6009  156.4641 H   0  0  0  0  0  0  0  0  0  0  0  0
  152.4806  142.9113  156.4785 H   0  0  0  0  0  0  0  0  0  0  0  0
  149.2070  142.2219  155.2513 H   0  0  0  0  0  0  0  0  0  0  0  0
  149.4480  136.2244  157.1421 H   0  0  0  0  0  0  0  0  0  0  0  0
  148.0828  136.4906  155.9759 H   0  0  0  0  0  0  0  0  0  0  0  0
  149.9829  134.1981  155.9614 H   0  0  0  0  0  0  0  0  0  0  0  0
  149.7802  133.1178  153.3807 H   0  0  0  0  0  0  0  0  0  0  0  0
  149.0115  132.5472  154.8493 H   0  0  0  0  0  0  0  0  0  0  0  0
  145.3128  131.1709  152.6941 H   0  0  0  0  0  0  0  0  0  0  0  0
  146.2727  129.7441  152.3337 H   0  0  0  0  0  0  0  0  0  0  0  0
  146.3707  131.1322  151.2765 H   0  0  0  0  0  0  0  0  0  0  0  0
  149.0960  130.2273  153.4330 H   0  0  0  0  0  0  0  0  0  0  0  0
  147.6204  129.4842  154.0479 H   0  0  0  0  0  0  0  0  0  0  0  0
  148.3473  130.8139  154.9215 H   0  0  0  0  0  0  0  0  0  0  0  0
  150.7359  135.8120  153.6123 H   0  0  0  0  0  0  0  0  0  0  0  0
  151.6786  135.6429  155.1535 H   0  0  0  0  0  0  0  0  0  0  0  0
  153.5615  138.1588  157.6865 H   0  0  0  0  0  0  0  0  0  0  0  0
  1  2  1  0  0  0  0
  1 29  1  0  0  0  0
  1 30  1  0  0  0  0
  1 31  1  0  0  0  0
  2  6  1  0  0  0  0
  2  3  1  0  0  0  0
  2 32  1  0  0  0  0
  3  4  1  0  0  0  0
  4  5  1  0  0  0  0
  4 33  1  0  0  0  0
  4 34  1  0  0  0  0
  5  6  1  0  0  0  0
  5 35  1  0  0  0  0
  5 36  1  0  0  0  0
  6  7  1  0  0  0  0
  6  8  1  0  0  0  0
  7 37  1  0  0  0  0
  8  9  1  0  0  0  0
  8 38  1  0  0  0  0
  8 39  1  0  0  0  0
  9 28  1  0  0  0  0
  9 10  1  0  0  0  0
 10 11  2  0  0  0  0
 10 40  1  0  0  0  0
 11 12  1  0  0  0  0
 12 28  2  0  0  0  0
 12 13  1  0  0  0  0
 13 14  1  0  0  0  0
 13 25  2  0  0  0  0
 14 24  1  0  0  0  0
 14 15  1  0  0  0  0
 15 16  1  0  0  0  0
 15 41  1  0  0  0  0
 15 42  1  0  0  0  0
 16 17  1  0  0  0  0
 16 24  1  0  0  0  0
 16 43  1  0  0  0  0
 17 18  1  0  0  0  0
 18 19  1  0  0  0  0
 18 44  1  0  0  0  0
 18 45  1  0  0  0  0
 19 20  2  0  0  0  0
 19 21  1  0  0  0  0
 21 22  1  0  0  0  0
 21 23  1  0  0  0  0
 22 46  1  0  0  0  0
 22 47  1  0  0  0  0
 22 48  1  0  0  0  0
 23 49  1  0  0  0  0
 23 50  1  0  0  0  0
 23 51  1  0  0  0  0
 24 52  1  0  0  0  0
 24 53  1  0  0  0  0
 25 26  1  0  0  0  0
 26 27  2  0  0  0  0
 26 54  1  0  0  0  0
 27 28  1  0  0  0  0
M  END
> <s_m_source_file>
AV-unprocessed.smi

> <i_m_source_file_index>
270

> <i_lp_mmshare_version>
43012

> <i_f3d_flags>
0

> <s_epik_input>
W0NIMl0xW0NIMl1PW0NAQEhdKFtDSDNdKVtDQEBdMShbT0hdKVtDSDJdbihbY0hdbjIpYyhjMjMpbltjSF1uYzNONFtDSDJdW0NIXShbQ0gyXTQpT1tDSDJdQyg9TylOKFtDSDNdKVtDSDNd

> <s_epik_cmdline>
J2VwaWtfcHl0aG9uJywgJy1waCcsICc3LjAnLCAnLXRuJywgJzgnLCAnLW1hJywgJzIwMCcsICctbWV0YWxfYmluZGluZycsICctaW1hZScsICc8aW5maWxlLm1hZT4nLCAnLW9tYWUnLCAnPG91dGZpbGUubWFlPic=

> <r_lp_tautomer_probability>
1

> <r_epik_Ionization_Penalty>
0.00375854

> <r_epik_Ionization_Penalty_Charging>
0

> <r_epik_Ionization_Penalty_Neutral>
0.00375854

> <r_epik_State_Penalty>
-0

> <r_epik_Charging_Adjusted_Penalty>
0

> <i_epik_Tot_Q>
0

> <i_epik_Tot_abs_Q>
0

> <r_epik_Metal_State_Penalty>
-0

> <b_epik_Metal_Only>
0

> <s_lp_Force_Field>
OPLS_2005

> <r_lp_Energy>
55.1289

> <b_lp_Chiralities_Consistent>
1

> <s_lp_Variant>
AV-unprocessed.smi:270-2

> <Gold.Version>
5.8.1

> <Gold.Id.Protein>
6NUR|6NUR_protein|mol2

> <Gold.PLP.Fitness>
45.9881

> <Gold.PLP.PLP>
-44.2106

> <Gold.PLP.part.hbond>
-1.5935

> <Gold.PLP.part.metal>
0.0000

> <Gold.PLP.part.buried>
-5.9273

> <Gold.PLP.part.nonpolar>
-38.0609

> <Gold.PLP.part.repulsive>
1.3303

> <Gold.PLP.ligand.clash>
0.0000

> <Gold.PLP.ligand.torsion>
1.4712

> <Gold.PLP.Chemscore.Hbond>
0.5000

> <Gold.PLP.Chemscore.CHOScore>
0.9625

> <Gold.PLP.Chemscore.Metal>
0.0000

> <Gold.Chemscore.Hbonds>
donor molecule, donor type, donor heavy atom, donor atom, acceptor molecule, acceptor atom, score
      P1  H  7997  8010       L1    27  0.45
      L1  C    10    40       P1  8028  0.96

> <Gold.PLP.Chemscore.Internal.Correction>
0.3323

> <Gold.Rescore>
     Score         DG    S(hbond)    S(metal)    S(lipo)     H(rot)  DE(clash)    DE(int)     intcor
      6.34     -10.83       0.63        0.00      95.95       3.12       1.63       2.87       ----

> <Gold.Chemscore.Fitness>
6.3361

> <Gold.Chemscore.DG>
-10.8309

> <Gold.Chemscore.ZeroCoef>
-5.4800

> <Gold.Chemscore.Hbond>
0.6349

> <Gold.Chemscore.Metal>
0.0000

> <Gold.Chemscore.Lipo>
95.9497

> <Gold.Chemscore.Internal_Hbond>
0.0000

> <Gold.Chemscore.DEClash>
1.6268

> <Gold.Chemscore.DEInternal>
2.8679

> <Gold.Chemscore.Rot>
3.1234

> <Gold.Chemscore.Internal.Correction>
   9.000000E+99

> <Gold.Chemscore.Hbonds>
donor molecule, donor type, donor heavy atom, donor atom, acceptor molecule, acceptor atom, score
      P1  H  7997  8010       L1    27  0.02

> <Gold.Chemscore.Hbond.Weighted>
-2.1206

> <Gold.Chemscore.Metal.Weighted>
-0.0000

> <Gold.Chemscore.Lipo.Weighted>
-11.2261

> <Gold.Chemscore.Internal_Hbond.Weighted>
0.0000

> <Gold.Chemscore.DEClash.Weighted>
1.6268

> <Gold.Chemscore.DEInternal.Weighted>
2.8679

> <Gold.Chemscore.Rot.Weighted>
7.9959

> <Gold.Chemscore.Internal.Correction.Weighted>
   9.000000E+99

> <Gold.Protein.RotatedTorsions>
[ 6907 6896 6895 6894 ] final  -55.92 input  -60.11 | X-H torsion
[ 7974 7965 7964 7962 ] final -102.57 input  175.53 | X-H torsion
[ 8008 7997 7996 7995 ] final   62.37 input   59.86 | X-H torsion
[ 10167 10162 10161 10158 ] final -159.50 input  -65.29 | X-H torsion
[ 10718 10713 10712 10709 ] final  129.85 input   66.30 | X-H torsion
[ 10763 10752 10751 10750 ] final -150.82 input  -60.55 | X-H torsion
[ 11005 11000 10999 10996 ] final  -60.05 input  -57.11 | X-H torsion

> <Gold.Protein.ActiveResidues>
 VAL166  LYS551  ARG553  GLY616  TRP617  ASP618  TYR619  PRO620  LYS621  CYS622 
 ASP623  PHE694  ASN695  SER759  ASP760  ASP761  ALA762  ILE779  LEU786  VAL792 
 PHE793  MET794  SER795  GLU796  ALA797  LYS798  CYS799  TRP800  GLU811  SER814 

> <Gold.Protein.RotatedAtoms>
  150.8211  134.7419  159.6772 H   0  0  0  0  0  0  0  0  0  0  0  0  # atno 6907 bound_to 6896
  152.4327  134.5744  159.9940 H   0  0  0  0  0  0  0  0  0  0  0  0  # atno 6908 bound_to 6896
  151.5928  133.3327  159.3067 H   0  0  0  0  0  0  0  0  0  0  0  0  # atno 6909 bound_to 6896
  145.2671  140.9287  143.3008 H   0  0  0  0  0  0  0  0  0  0  0  0  # atno 7974 bound_to 7965
  155.6132  140.3495  155.4629 H   0  0  0  0  0  0  0  0  0  0  0  0  # atno 8008 bound_to 7997
  156.0138  140.1239  157.0451 H   0  0  0  0  0  0  0  0  0  0  0  0  # atno 8009 bound_to 7997
  154.4290  140.1076  156.5853 H   0  0  0  0  0  0  0  0  0  0  0  0  # atno 8010 bound_to 7997
  139.6611  143.9912  152.2225 H   0  0  0  0  0  0  0  0  0  0  0  0  # atno 10167 bound_to 10162
  157.5116  131.1097  150.9284 H   0  0  0  0  0  0  0  0  0  0  0  0  # atno 10718 bound_to 10713
  154.8095  135.3275  154.7342 H   0  0  0  0  0  0  0  0  0  0  0  0  # atno 10763 bound_to 10752
  153.7993  135.6904  153.4862 H   0  0  0  0  0  0  0  0  0  0  0  0  # atno 10764 bound_to 10752
  153.1864  135.4567  155.0040 H   0  0  0  0  0  0  0  0  0  0  0  0  # atno 10765 bound_to 10752
  141.1272  133.6620  156.5165 H   0  0  0  0  0  0  0  0  0  0  0  0  # atno 11005 bound_to 11000
  144.9368  139.4235  143.6468 LP  0  0  0  0  0  0  0  0  0  0  0  0  # atno 17320 bound_to 7965
  146.3258  139.8307  142.8909 LP  0  0  0  0  0  0  0  0  0  0  0  0  # atno 17321 bound_to 7965
  139.9651  144.6532  150.8042 LP  0  0  0  0  0  0  0  0  0  0  0  0  # atno 17342 bound_to 10162
  140.7580  143.3098  151.2872 LP  0  0  0  0  0  0  0  0  0  0  0  0  # atno 17343 bound_to 10162
  156.9923  130.5568  149.5304 LP  0  0  0  0  0  0  0  0  0  0  0  0  # atno 17370 bound_to 10713
  156.0293  130.5385  150.8491 LP  0  0  0  0  0  0  0  0  0  0  0  0  # atno 17371 bound_to 10713
  140.4327  134.7087  157.4950 LP  0  0  0  0  0  0  0  0  0  0  0  0  # atno 17394 bound_to 11000
  140.0283  134.6444  155.9142 LP  0  0  0  0  0  0  0  0  0  0  0  0  # atno 17395 bound_to 11000

$$$$
