AV-unprocessed.smi:1195|AV-procd|sdf|4995|dock1
  -GOLD-   22720 3593D 1   1.00000     0.00000
 Structure written by MMmdl.
 39 40  0  0  0  0  0  0  0  0  1 V2000
  142.2648  132.2653  147.8991 N   0  0  0  0  0  0  0  0  0  0  0  0
  143.3416  132.9945  148.2016 C   0  0  0  0  0  0  0  0  0  0  0  0
  143.7287  133.9123  147.4795 O   0  0  0  0  0  0  0  0  0  0  0  0
  144.0712  132.6266  149.5006 C   0  0  0  0  0  0  0  0  0  0  0  0
  144.1111  133.7219  150.4560 N   0  0  0  0  0  0  0  0  0  0  0  0
  144.6674  134.9757  150.2927 C   0  0  0  0  0  0  0  0  0  0  0  0
  144.4413  135.6366  151.4669 C   0  0  0  0  0  0  0  0  0  0  0  0
  144.7973  136.9580  151.8376 N   0  0  0  0  0  0  0  0  0  0  0  0
  145.6263  137.3307  152.8265 C   0  0  0  0  0  0  0  0  0  0  0  0
  146.2114  136.5595  153.5873 O   0  0  0  0  0  0  0  0  0  0  0  0
  145.7416  138.6650  152.8895 N   0  0  0  0  0  0  0  0  0  0  0  0
  146.5598  139.3936  153.8540 C   0  0  2  0  0  0  0  0  0  0  0  0
  146.7627  140.8414  153.3721 C   0  0  0  0  0  0  0  0  0  0  0  0
  147.6568  141.6384  154.3385 C   0  0  0  0  0  0  0  0  0  0  0  0
  149.0069  140.9422  154.5953 C   0  0  2  0  0  0  0  0  0  0  0  0
  149.8127  141.0039  153.4350 O   0  0  0  0  0  0  0  0  0  0  0  0
  148.8163  139.4761  155.0280 C   0  0  0  0  0  0  0  0  0  0  0  0
  147.9179  138.6922  154.0556 C   0  0  0  0  0  0  0  0  0  0  0  0
  143.7425  134.7225  152.2974 C   0  0  0  0  0  0  0  0  0  0  0  0
  143.5495  133.5662  151.6813 N   0  0  0  0  0  0  0  0  0  0  0  0
  141.7466  132.4657  147.0559 H   0  0  0  0  0  0  0  0  0  0  0  0
  141.9712  131.5188  148.5118 H   0  0  0  0  0  0  0  0  0  0  0  0
  143.5841  131.7654  149.9605 H   0  0  0  0  0  0  0  0  0  0  0  0
  145.0963  132.3322  149.2723 H   0  0  0  0  0  0  0  0  0  0  0  0
  145.1553  135.2707  149.3756 H   0  0  0  0  0  0  0  0  0  0  0  0
  144.3743  137.6964  151.2944 H   0  0  0  0  0  0  0  0  0  0  0  0
  145.2267  139.2194  152.2211 H   0  0  0  0  0  0  0  0  0  0  0  0
  146.0336  139.4267  154.8101 H   0  0  0  0  0  0  0  0  0  0  0  0
  147.2119  140.8412  152.3779 H   0  0  0  0  0  0  0  0  0  0  0  0
  145.7981  141.3407  153.2729 H   0  0  0  0  0  0  0  0  0  0  0  0
  147.8180  142.6464  153.9543 H   0  0  0  0  0  0  0  0  0  0  0  0
  147.1326  141.7566  155.2877 H   0  0  0  0  0  0  0  0  0  0  0  0
  149.5398  141.4791  155.3806 H   0  0  0  0  0  0  0  0  0  0  0  0
  149.5468  140.3132  152.8474 H   0  0  0  0  0  0  0  0  0  0  0  0
  149.7832  138.9813  155.1272 H   0  0  0  0  0  0  0  0  0  0  0  0
  148.3622  139.4551  156.0194 H   0  0  0  0  0  0  0  0  0  0  0  0
  147.7676  137.6816  154.4370 H   0  0  0  0  0  0  0  0  0  0  0  0
  148.4245  138.5845  153.0955 H   0  0  0  0  0  0  0  0  0  0  0  0
  143.3777  134.8554  153.3053 H   0  0  0  0  0  0  0  0  0  0  0  0
  1  2  1  0  0  0  0
  1 21  1  0  0  0  0
  1 22  1  0  0  0  0
  2  3  2  0  0  0  0
  2  4  1  0  0  0  0
  4  5  1  0  0  0  0
  4 23  1  0  0  0  0
  4 24  1  0  0  0  0
  5 20  1  0  0  0  0
  5  6  1  0  0  0  0
  6  7  2  0  0  0  0
  6 25  1  0  0  0  0
  7  8  1  0  0  0  0
  7 19  1  0  0  0  0
  8  9  1  0  0  0  0
  8 26  1  0  0  0  0
  9 10  2  0  0  0  0
  9 11  1  0  0  0  0
 11 12  1  0  0  0  0
 11 27  1  0  0  0  0
 12 18  1  0  0  0  0
 12 13  1  0  0  0  0
 12 28  1  0  0  0  0
 13 14  1  0  0  0  0
 13 29  1  0  0  0  0
 13 30  1  0  0  0  0
 14 15  1  0  0  0  0
 14 31  1  0  0  0  0
 14 32  1  0  0  0  0
 15 16  1  0  0  0  0
 15 17  1  0  0  0  0
 15 33  1  0  0  0  0
 16 34  1  0  0  0  0
 17 18  1  0  0  0  0
 17 35  1  0  0  0  0
 17 36  1  0  0  0  0
 18 37  1  0  0  0  0
 18 38  1  0  0  0  0
 19 20  2  0  0  0  0
 19 39  1  0  0  0  0
M  END
> <s_m_source_file>
AV-unprocessed.smi

> <i_m_source_file_index>
1195

> <i_lp_mmshare_version>
43012

> <i_f3d_flags>
0

> <s_epik_input>
W05IMl1DKD1PKVtDSDJdbjFbY0hdYyhbY0hdbjEpW05IXUMoPU8pW05IXVtDQEBIXTJbQ0gyXVtDSDJdW0NAQEhdKFtPSF0pW0NIMl1bQ0gyXTI=

> <s_epik_cmdline>
J2VwaWtfcHl0aG9uJywgJy1waCcsICc3LjAnLCAnLXRuJywgJzgnLCAnLW1hJywgJzIwMCcsICctbWV0YWxfYmluZGluZycsICctaW1hZScsICc8aW5maWxlLm1hZT4nLCAnLW9tYWUnLCAnPG91dGZpbGUubWFlPic=

> <r_lp_tautomer_probability>
1

> <r_epik_Ionization_Penalty>
4.75851e-05

> <r_epik_Ionization_Penalty_Charging>
0

> <r_epik_Ionization_Penalty_Neutral>
4.75851e-05

> <r_epik_State_Penalty>
-0

> <r_epik_Charging_Adjusted_Penalty>
0

> <i_epik_Tot_Q>
0

> <i_epik_Tot_abs_Q>
0

> <r_epik_Metal_State_Penalty>
-0

> <b_epik_Metal_Only>
0

> <s_lp_Force_Field>
OPLS_2005

> <r_lp_Energy>
14.5792

> <b_lp_Chiralities_Consistent>
1

> <s_lp_Variant>
AV-unprocessed.smi:1195-2

> <Gold.Version>
5.8.1

> <Gold.Id.Protein>
6NUR|6NUR_protein|mol2

> <Gold.PLP.Fitness>
55.3315

> <Gold.PLP.PLP>
-32.5066

> <Gold.PLP.part.hbond>
-8.9761

> <Gold.PLP.part.metal>
0.0000

> <Gold.PLP.part.buried>
-2.9978

> <Gold.PLP.part.nonpolar>
-27.4229

> <Gold.PLP.part.repulsive>
6.5442

> <Gold.PLP.ligand.clash>
0.0000

> <Gold.PLP.ligand.torsion>
0.8327

> <Gold.PLP.Chemscore.Hbond>
7.1520

> <Gold.PLP.Chemscore.CHOScore>
1.0000

> <Gold.PLP.Chemscore.Metal>
0.0000

> <Gold.Chemscore.Hbonds>
donor molecule, donor type, donor heavy atom, donor atom, acceptor molecule, acceptor atom, score
      L1  H     1    21       P1 10195  0.94
      L1  H     1    22       P1 10952  1.00
      L1  H     8    26       P1 10171  1.00
      L1  H    11    27       P1 10175  0.64
      L1  H    16    34       P1  7957  0.70
      P1  H  7918  7932       L1     3  0.81
      P1  H  7989  7998       L1    16  0.22
      P1  H  8011  8017       L1    16  1.00
      P1  H 10192 10197       L1     3  0.73
      L1  C     6    25       P1  7921  1.00

> <Gold.PLP.Chemscore.Internal.Correction>
0.0342

> <Gold.Rescore>
     Score         DG    S(hbond)    S(metal)    S(lipo)     H(rot)  DE(clash)    DE(int)     intcor
     19.32     -25.13       5.68        0.00      63.03       2.62       3.61       2.21       ----

> <Gold.Chemscore.Fitness>
19.3156

> <Gold.Chemscore.DG>
-25.1279

> <Gold.Chemscore.ZeroCoef>
-5.4800

> <Gold.Chemscore.Hbond>
5.6836

> <Gold.Chemscore.Metal>
0.0000

> <Gold.Chemscore.Lipo>
63.0341

> <Gold.Chemscore.Internal_Hbond>
0.0000

> <Gold.Chemscore.DEClash>
3.6066

> <Gold.Chemscore.DEInternal>
2.2056

> <Gold.Chemscore.Rot>
2.6212

> <Gold.Chemscore.Internal.Correction>
   9.000000E+99

> <Gold.Chemscore.Hbonds>
donor molecule, donor type, donor heavy atom, donor atom, acceptor molecule, acceptor atom, score
      L1  H     1    21       P1 10195  0.88
      L1  H     1    22       P1 10952  0.99
      L1  H     8    26       P1 10171  0.99
      L1  H    11    27       P1 10175  0.62
      L1  H    16    34       P1  7957  0.72
      P1  H  7918  7932       L1     3  0.63
      P1  H  7989  7998       L1    16  0.11
      P1  H  8011  8017       L1    16  0.29
      P1  H 10192 10197       L1     3  0.40

> <Gold.Chemscore.Hbond.Weighted>
-18.9831

> <Gold.Chemscore.Metal.Weighted>
-0.0000

> <Gold.Chemscore.Lipo.Weighted>
-7.3750

> <Gold.Chemscore.Internal_Hbond.Weighted>
0.0000

> <Gold.Chemscore.DEClash.Weighted>
3.6066

> <Gold.Chemscore.DEInternal.Weighted>
2.2056

> <Gold.Chemscore.Rot.Weighted>
6.7103

> <Gold.Chemscore.Internal.Correction.Weighted>
   9.000000E+99

> <Gold.Protein.RotatedTorsions>
[ 6907 6896 6895 6894 ] final -109.64 input  -60.11 | X-H torsion
[ 7974 7965 7964 7962 ] final  135.32 input  175.53 | X-H torsion
[ 8008 7997 7996 7995 ] final   39.96 input   59.86 | X-H torsion
[ 10167 10162 10161 10158 ] final  -29.05 input  -65.29 | X-H torsion
[ 10718 10713 10712 10709 ] final  -32.21 input   66.30 | X-H torsion
[ 10763 10752 10751 10750 ] final  -19.91 input  -60.55 | X-H torsion
[ 11005 11000 10999 10996 ] final  145.48 input  -57.11 | X-H torsion

> <Gold.Protein.ActiveResidues>
 VAL166  LYS551  ARG553  GLY616  TRP617  ASP618  TYR619  PRO620  LYS621  CYS622 
 ASP623  PHE694  ASN695  SER759  ASP760  ASP761  ALA762  ILE779  LEU786  VAL792 
 PHE793  MET794  SER795  GLU796  ALA797  LYS798  CYS799  TRP800  GLU811  SER814 

> <Gold.Protein.RotatedAtoms>
  150.7575  133.9499  159.3482 H   0  0  0  0  0  0  0  0  0  0  0  0  # atno 6907 bound_to 6896
  151.7415  135.0851  160.0326 H   0  0  0  0  0  0  0  0  0  0  0  0  # atno 6908 bound_to 6896
  152.3525  133.6159  159.5991 H   0  0  0  0  0  0  0  0  0  0  0  0  # atno 6909 bound_to 6896
  144.9675  139.4642  143.5449 H   0  0  0  0  0  0  0  0  0  0  0  0  # atno 7974 bound_to 7965
  155.2452  140.3348  155.4288 H   0  0  0  0  0  0  0  0  0  0  0  0  # atno 8008 bound_to 7997
  156.2239  140.1821  156.7455 H   0  0  0  0  0  0  0  0  0  0  0  0  # atno 8009 bound_to 7997
  154.5868  140.0644  156.9167 H   0  0  0  0  0  0  0  0  0  0  0  0  # atno 8010 bound_to 7997
  140.7264  143.3960  151.1347 H   0  0  0  0  0  0  0  0  0  0  0  0  # atno 10167 bound_to 10162
  156.3777  130.4350  149.7494 H   0  0  0  0  0  0  0  0  0  0  0  0  # atno 10718 bound_to 10713
  153.6121  135.6996  153.5343 H   0  0  0  0  0  0  0  0  0  0  0  0  # atno 10763 bound_to 10752
  153.3008  135.4129  155.1250 H   0  0  0  0  0  0  0  0  0  0  0  0  # atno 10764 bound_to 10752
  154.8561  135.3648  154.5660 H   0  0  0  0  0  0  0  0  0  0  0  0  # atno 10765 bound_to 10752
  140.0715  134.9149  157.1353 H   0  0  0  0  0  0  0  0  0  0  0  0  # atno 11005 bound_to 11000
  146.3372  139.8866  142.8816 LP  0  0  0  0  0  0  0  0  0  0  0  0  # atno 17320 bound_to 7965
  145.2608  141.0076  143.3828 LP  0  0  0  0  0  0  0  0  0  0  0  0  # atno 17321 bound_to 7965
  139.7572  143.8689  152.3091 LP  0  0  0  0  0  0  0  0  0  0  0  0  # atno 17342 bound_to 10162
  139.8563  144.7139  150.9153 LP  0  0  0  0  0  0  0  0  0  0  0  0  # atno 17343 bound_to 10162
  156.4596  130.7945  151.2966 LP  0  0  0  0  0  0  0  0  0  0  0  0  # atno 17370 bound_to 10713
  157.7490  131.0070  150.3172 LP  0  0  0  0  0  0  0  0  0  0  0  0  # atno 17371 bound_to 10713
  140.3620  134.2484  155.7186 LP  0  0  0  0  0  0  0  0  0  0  0  0  # atno 17394 bound_to 11000
  141.2013  133.7964  157.0444 LP  0  0  0  0  0  0  0  0  0  0  0  0  # atno 17395 bound_to 11000

$$$$
