AV-unprocessed.smi:1459|AV-procd|sdf|5925|dock7
  -GOLD-   22720 6 03D 1   1.00000     0.00000
 Structure written by MMmdl.
 34 35  0  0  0  0  0  0  0  0  1 V2000
  147.3344  139.9923  152.7694 C   0  0  0  0  0  0  0  0  0  0  0  0
  148.3819  140.5763  153.6535 C   0  0  0  0  0  0  0  0  0  0  0  0
  148.4908  141.7751  154.3004 C   0  0  0  0  0  0  0  0  0  0  0  0
  149.7418  141.6675  154.9638 C   0  0  0  0  0  0  0  0  0  0  0  0
  150.2359  142.7314  155.7607 N   0  0  0  0  0  0  0  0  0  0  0  0
  151.0598  142.6479  156.8189 C   0  0  0  0  0  0  0  0  0  0  0  0
  151.5189  141.6017  157.2781 O   0  0  0  0  0  0  0  0  0  0  0  0
  151.3210  143.8620  157.3261 N   0  0  0  0  0  0  0  0  0  0  0  0
  152.1553  144.1342  158.4945 C   0  0  1  0  0  0  0  0  0  0  0  0
  151.9682  145.6051  158.8971 C   0  0  0  0  0  0  0  0  0  0  0  0
  151.7910  143.1608  159.6348 C   0  0  2  0  0  0  0  0  0  0  0  0
  152.0730  143.6955  161.0405 C   0  0  0  0  0  0  0  0  0  0  0  0
  152.2371  142.4184  161.8308 C   0  0  0  0  0  0  0  0  0  0  0  0
  152.9859  141.5378  160.8370 C   0  0  0  0  0  0  0  0  0  0  0  0
  152.5630  141.9634  159.5448 O   0  0  0  0  0  0  0  0  0  0  0  0
  150.3426  140.5084  154.7418 N   0  0  0  0  0  0  0  0  0  0  0  0
  149.4738  139.8031  153.9009 O   0  0  0  0  0  0  0  0  0  0  0  0
  146.5151  140.6956  152.6193 H   0  0  0  0  0  0  0  0  0  0  0  0
  146.9237  139.0818  153.2061 H   0  0  0  0  0  0  0  0  0  0  0  0
  147.7489  139.7427  151.7927 H   0  0  0  0  0  0  0  0  0  0  0  0
  147.7870  142.5942  154.2980 H   0  0  0  0  0  0  0  0  0  0  0  0
  149.9267  143.6554  155.4987 H   0  0  0  0  0  0  0  0  0  0  0  0
  150.8951  144.6615  156.8812 H   0  0  0  0  0  0  0  0  0  0  0  0
  153.2071  143.9944  158.2384 H   0  0  0  0  0  0  0  0  0  0  0  0
  152.6177  145.8758  159.7295 H   0  0  0  0  0  0  0  0  0  0  0  0
  150.9397  145.8079  159.1971 H   0  0  0  0  0  0  0  0  0  0  0  0
  152.2112  146.2714  158.0686 H   0  0  0  0  0  0  0  0  0  0  0  0
  150.7391  142.8775  159.5673 H   0  0  0  0  0  0  0  0  0  0  0  0
  153.0037  144.2647  161.0572 H   0  0  0  0  0  0  0  0  0  0  0  0
  151.2749  144.3324  161.4226 H   0  0  0  0  0  0  0  0  0  0  0  0
  152.7751  142.5573  162.7689 H   0  0  0  0  0  0  0  0  0  0  0  0
  151.2599  141.9884  162.0544 H   0  0  0  0  0  0  0  0  0  0  0  0
  154.0615  141.6999  160.9184 H   0  0  0  0  0  0  0  0  0  0  0  0
  152.7902  140.4765  160.9917 H   0  0  0  0  0  0  0  0  0  0  0  0
  1  2  1  0  0  0  0
  1 18  1  0  0  0  0
  1 19  1  0  0  0  0
  1 20  1  0  0  0  0
  2 17  1  0  0  0  0
  2  3  2  0  0  0  0
  3  4  1  0  0  0  0
  3 21  1  0  0  0  0
  4  5  1  0  0  0  0
  4 16  2  0  0  0  0
  5  6  1  0  0  0  0
  5 22  1  0  0  0  0
  6  7  2  0  0  0  0
  6  8  1  0  0  0  0
  8  9  1  0  0  0  0
  8 23  1  0  0  0  0
  9 10  1  0  0  0  0
  9 11  1  0  0  0  0
  9 24  1  0  0  0  0
 10 25  1  0  0  0  0
 10 26  1  0  0  0  0
 10 27  1  0  0  0  0
 11 15  1  0  0  0  0
 11 12  1  0  0  0  0
 11 28  1  0  0  0  0
 12 13  1  0  0  0  0
 12 29  1  0  0  0  0
 12 30  1  0  0  0  0
 13 14  1  0  0  0  0
 13 31  1  0  0  0  0
 13 32  1  0  0  0  0
 14 15  1  0  0  0  0
 14 33  1  0  0  0  0
 14 34  1  0  0  0  0
 16 17  1  0  0  0  0
M  END
> <s_m_source_file>
AV-unprocessed.smi

> <i_m_source_file_index>
1459

> <i_lp_mmshare_version>
43012

> <i_f3d_flags>
0

> <s_epik_input>
W0NIM11jMVtjSF1jKG5vMSlbTkhdQyg9TylbTkhdW0NASF0oW0NIM10pW0NAQEhdMltDSDJdW0NIMl1bQ0gyXU8y

> <s_epik_cmdline>
J2VwaWtfcHl0aG9uJywgJy1waCcsICc3LjAnLCAnLXRuJywgJzgnLCAnLW1hJywgJzIwMCcsICctbWV0YWxfYmluZGluZycsICctaW1hZScsICc8aW5maWxlLm1hZT4nLCAnLW9tYWUnLCAnPG91dGZpbGUubWFlPic=

> <r_lp_tautomer_probability>
1

> <r_epik_Ionization_Penalty>
2.20869e-05

> <r_epik_Ionization_Penalty_Charging>
0

> <r_epik_Ionization_Penalty_Neutral>
2.20869e-05

> <r_epik_State_Penalty>
-0

> <r_epik_Charging_Adjusted_Penalty>
0

> <i_epik_Tot_Q>
0

> <i_epik_Tot_abs_Q>
0

> <r_epik_Metal_State_Penalty>
-0

> <b_epik_Metal_Only>
0

> <s_lp_Force_Field>
OPLS_2005

> <r_lp_Energy>
15.9423

> <b_lp_Chiralities_Consistent>
1

> <s_lp_Variant>
AV-unprocessed.smi:1459-2

> <Gold.Version>
5.8.1

> <Gold.Id.Protein>
6NUR|6NUR_protein|mol2

> <Gold.PLP.Fitness>
45.8212

> <Gold.PLP.PLP>
-40.5272

> <Gold.PLP.part.hbond>
-2.9270

> <Gold.PLP.part.metal>
0.0000

> <Gold.PLP.part.buried>
-4.5232

> <Gold.PLP.part.nonpolar>
-34.1617

> <Gold.PLP.part.repulsive>
1.2465

> <Gold.PLP.ligand.clash>
0.0000

> <Gold.PLP.ligand.torsion>
0.9884

> <Gold.PLP.Chemscore.Hbond>
2.4204

> <Gold.PLP.Chemscore.CHOScore>
0.0000

> <Gold.PLP.Chemscore.Metal>
0.0000

> <Gold.Chemscore.Hbonds>
donor molecule, donor type, donor heavy atom, donor atom, acceptor molecule, acceptor atom, score
      L1  H     5    22       P1  8028  0.86
      L1  H     8    23       P1  8028  0.17
      P1  H  7989  7998       L1    16  0.83

> <Gold.PLP.Chemscore.Internal.Correction>
0.0097

> <Gold.Rescore>
     Score         DG    S(hbond)    S(metal)    S(lipo)     H(rot)  DE(clash)    DE(int)     intcor
     16.84     -21.15       2.76        0.00      82.98       1.28       0.60       3.71       ----

> <Gold.Chemscore.Fitness>
16.8383

> <Gold.Chemscore.DG>
-21.1525

> <Gold.Chemscore.ZeroCoef>
-5.4800

> <Gold.Chemscore.Hbond>
2.7649

> <Gold.Chemscore.Metal>
0.0000

> <Gold.Chemscore.Lipo>
82.9776

> <Gold.Chemscore.Internal_Hbond>
0.0000

> <Gold.Chemscore.DEClash>
0.6010

> <Gold.Chemscore.DEInternal>
3.7132

> <Gold.Chemscore.Rot>
1.2776

> <Gold.Chemscore.Internal.Correction>
   9.000000E+99

> <Gold.Chemscore.Hbonds>
donor molecule, donor type, donor heavy atom, donor atom, acceptor molecule, acceptor atom, score
      L1  H     5    22       P1  8028  0.80
      L1  H     8    23       P1  8028  0.15
      P1  H  7989  7998       L1    16  0.06

> <Gold.Chemscore.Hbond.Weighted>
-9.2348

> <Gold.Chemscore.Metal.Weighted>
-0.0000

> <Gold.Chemscore.Lipo.Weighted>
-9.7084

> <Gold.Chemscore.Internal_Hbond.Weighted>
0.0000

> <Gold.Chemscore.DEClash.Weighted>
0.6010

> <Gold.Chemscore.DEInternal.Weighted>
3.7132

> <Gold.Chemscore.Rot.Weighted>
3.2707

> <Gold.Chemscore.Internal.Correction.Weighted>
   9.000000E+99

> <Gold.Protein.RotatedTorsions>
[ 6907 6896 6895 6894 ] final   69.00 input  -60.11 | X-H torsion
[ 7974 7965 7964 7962 ] final -175.18 input  175.53 | X-H torsion
[ 8008 7997 7996 7995 ] final  173.43 input   59.86 | X-H torsion
[ 10167 10162 10161 10158 ] final -142.30 input  -65.29 | X-H torsion
[ 10718 10713 10712 10709 ] final  -47.44 input   66.30 | X-H torsion
[ 10763 10752 10751 10750 ] final -156.67 input  -60.55 | X-H torsion
[ 11005 11000 10999 10996 ] final   99.41 input  -57.11 | X-H torsion

> <Gold.Protein.ActiveResidues>
 VAL166  LYS551  ARG553  GLY616  TRP617  ASP618  TYR619  PRO620  LYS621  CYS622 
 ASP623  PHE694  ASN695  SER759  ASP760  ASP761  ALA762  ILE779  LEU786  VAL792 
 PHE793  MET794  SER795  GLU796  ALA797  LYS798  CYS799  TRP800  GLU811  SER814 

> <Gold.Protein.RotatedAtoms>
  152.4657  134.5080  159.9744 H   0  0  0  0  0  0  0  0  0  0  0  0  # atno 6907 bound_to 6896
  151.5119  133.3477  159.2894 H   0  0  0  0  0  0  0  0  0  0  0  0  # atno 6908 bound_to 6896
  150.8641  134.8028  159.7167 H   0  0  0  0  0  0  0  0  0  0  0  0  # atno 6909 bound_to 6896
  144.7129  140.1359  143.6395 H   0  0  0  0  0  0  0  0  0  0  0  0  # atno 7974 bound_to 7965
  156.1076  140.1460  156.9382 H   0  0  0  0  0  0  0  0  0  0  0  0  # atno 8008 bound_to 7997
  154.4745  140.0899  156.7271 H   0  0  0  0  0  0  0  0  0  0  0  0  # atno 8009 bound_to 7997
  155.4652  140.3440  155.4320 H   0  0  0  0  0  0  0  0  0  0  0  0  # atno 8010 bound_to 7997
  139.8101  143.7714  152.2663 H   0  0  0  0  0  0  0  0  0  0  0  0  # atno 10167 bound_to 10162
  156.2084  130.4159  149.9148 H   0  0  0  0  0  0  0  0  0  0  0  0  # atno 10718 bound_to 10713
  154.7695  135.3141  154.8218 H   0  0  0  0  0  0  0  0  0  0  0  0  # atno 10763 bound_to 10752
  153.8957  135.6821  153.4762 H   0  0  0  0  0  0  0  0  0  0  0  0  # atno 10764 bound_to 10752
  153.1307  135.4781  154.9278 H   0  0  0  0  0  0  0  0  0  0  0  0  # atno 10765 bound_to 10752
  139.8771  134.9094  156.4601 H   0  0  0  0  0  0  0  0  0  0  0  0  # atno 11005 bound_to 11000
  145.9245  139.2566  143.1362 LP  0  0  0  0  0  0  0  0  0  0  0  0  # atno 17320 bound_to 7965
  145.9586  140.8853  143.0222 LP  0  0  0  0  0  0  0  0  0  0  0  0  # atno 17321 bound_to 7965
  139.7860  144.7427  151.0021 LP  0  0  0  0  0  0  0  0  0  0  0  0  # atno 17342 bound_to 10162
  140.7818  143.4491  151.0438 LP  0  0  0  0  0  0  0  0  0  0  0  0  # atno 17343 bound_to 10162
  156.6834  130.8867  151.3579 LP  0  0  0  0  0  0  0  0  0  0  0  0  # atno 17370 bound_to 10713
  157.7025  130.9348  150.0828 LP  0  0  0  0  0  0  0  0  0  0  0  0  # atno 17371 bound_to 10713
  140.8870  133.7876  155.9529 LP  0  0  0  0  0  0  0  0  0  0  0  0  # atno 17394 bound_to 11000
  140.8794  134.2630  157.5151 LP  0  0  0  0  0  0  0  0  0  0  0  0  # atno 17395 bound_to 11000

$$$$
