AV-unprocessed.smi:2199|AV-procd|sdf|8924|dock1
  -GOLD-   2272012143D 1   1.00000     0.00000
 Structure written by MMmdl.
 25 26  0  0  0  0  0  0  0  0  2 V2000
  151.5796  141.5633  158.0933 O   0  0  0  0  0  0  0  0  0  0  0  0
  150.9827  142.2710  157.2804 C   0  0  0  0  0  0  0  0  0  0  0  0
  149.9960  141.6505  156.2818 C   0  0  0  0  0  0  0  0  0  0  0  0
  150.4910  140.3943  155.6960 N   0  0  0  0  0  0  0  0  0  0  0  0
  151.8738  140.1454  155.7536 C   0  0  0  0  0  0  0  0  0  0  0  0
  152.4162  139.0266  155.2364 C   0  0  0  0  0  0  0  0  0  0  0  0
  151.5291  138.0580  154.6039 C   0  0  0  0  0  0  0  0  0  0  0  0
  152.0067  137.0290  154.1298 O   0  0  0  0  0  0  0  0  0  0  0  0
  150.1951  138.3466  154.5700 N   0  5  0  0  0  0  0  0  0  0  0  0
  149.6580  139.4906  155.0970 C   0  0  0  0  0  0  0  0  0  0  0  0
  148.4515  139.7339  155.0515 O   0  0  0  0  0  0  0  0  0  0  0  0
  151.1199  143.6036  157.2217 N   0  0  0  0  0  0  0  0  0  0  0  0
  151.9737  144.3867  158.0546 C   0  0  0  0  0  0  0  0  0  0  0  0
  152.1050  143.9814  159.5068 C   0  0  0  0  0  0  0  0  0  0  0  0
  151.3252  145.2148  159.1430 C   0  0  0  0  0  0  0  0  0  0  0  0
  149.0509  141.4825  156.7996 H   0  0  0  0  0  0  0  0  0  0  0  0
  149.7651  142.3677  155.4917 H   0  0  0  0  0  0  0  0  0  0  0  0
  152.4602  140.9156  156.2324 H   0  0  0  0  0  0  0  0  0  0  0  0
  153.4809  138.8516  155.2851 H   0  0  0  0  0  0  0  0  0  0  0  0
  150.5867  144.1000  156.5225 H   0  0  0  0  0  0  0  0  0  0  0  0
  152.8637  144.8157  157.5960 H   0  0  0  0  0  0  0  0  0  0  0  0
  151.5426  143.1138  159.8467 H   0  0  0  0  0  0  0  0  0  0  0  0
  153.0746  144.1218  159.9802 H   0  0  0  0  0  0  0  0  0  0  0  0
  151.7737  146.1788  159.3741 H   0  0  0  0  0  0  0  0  0  0  0  0
  150.2419  145.1707  159.2384 H   0  0  0  0  0  0  0  0  0  0  0  0
  1  2  2  0  0  0  0
  2  3  1  0  0  0  0
  2 12  1  0  0  0  0
  3  4  1  0  0  0  0
  3 16  1  0  0  0  0
  3 17  1  0  0  0  0
  4 10  1  0  0  0  0
  4  5  1  0  0  0  0
  5  6  2  0  0  0  0
  5 18  1  0  0  0  0
  6  7  1  0  0  0  0
  6 19  1  0  0  0  0
  7  8  2  0  0  0  0
  7  9  1  0  0  0  0
  9 10  1  0  0  0  0
 10 11  2  0  0  0  0
 12 13  1  0  0  0  0
 12 20  1  0  0  0  0
 13 15  1  0  0  0  0
 13 14  1  0  0  0  0
 13 21  1  0  0  0  0
 14 15  1  0  0  0  0
 14 22  1  0  0  0  0
 14 23  1  0  0  0  0
 15 24  1  0  0  0  0
 15 25  1  0  0  0  0
M  CHG  1   9  -1
M  END
> <s_m_source_file>
AV-unprocessed.smi

> <i_m_source_file_index>
2199

> <i_lp_mmshare_version>
43012

> <i_f3d_flags>
0

> <s_epik_input>
W0NIMl0xW0NIMl1bQ0hdMVtOSF1DKD1PKVtDSDJdbjJbY0hdW2NIXWMoPU8pW25IXWMyPU8=

> <s_epik_cmdline>
J2VwaWtfcHl0aG9uJywgJy1waCcsICc3LjAnLCAnLXRuJywgJzgnLCAnLW1hJywgJzIwMCcsICctbWV0YWxfYmluZGluZycsICctaW1hZScsICc8aW5maWxlLm1hZT4nLCAnLW9tYWUnLCAnPG91dGZpbGUubWFlPic=

> <r_lp_tautomer_probability>
0.999537

> <r_epik_Ionization_Penalty>
3.07884

> <r_epik_Ionization_Penalty_Charging>
2.69291e-08

> <r_epik_Ionization_Penalty_Neutral>
3.07884

> <r_epik_State_Penalty>
3.07787

> <r_epik_Charging_Adjusted_Penalty>
3.07787

> <i_epik_Tot_Q>
-1

> <i_epik_Tot_abs_Q>
1

> <r_epik_Metal_State_Penalty>
0.459857

> <b_epik_Metal_Only>
1

> <s_lp_Force_Field>
OPLS_2005

> <r_lp_Energy>
24.3409

> <b_lp_Chiralities_Consistent>
1

> <s_lp_Variant>
AV-unprocessed.smi:2199-2

> <Gold.Version>
5.8.1

> <Gold.Id.Protein>
6NUR|6NUR_protein|mol2

> <Gold.PLP.Fitness>
39.0517

> <Gold.PLP.PLP>
-34.7633

> <Gold.PLP.part.hbond>
-2.0000

> <Gold.PLP.part.metal>
0.0000

> <Gold.PLP.part.buried>
-5.1918

> <Gold.PLP.part.nonpolar>
-29.7872

> <Gold.PLP.part.repulsive>
1.1831

> <Gold.PLP.ligand.clash>
0.0000

> <Gold.PLP.ligand.torsion>
0.7670

> <Gold.PLP.Chemscore.Hbond>
1.9280

> <Gold.PLP.Chemscore.CHOScore>
0.0000

> <Gold.PLP.Chemscore.Metal>
0.0000

> <Gold.Chemscore.Hbonds>
donor molecule, donor type, donor heavy atom, donor atom, acceptor molecule, acceptor atom, score
      L1  H    12    20       P1  8028  1.00
      P1  H 10752 10765       L1     8  1.00

> <Gold.PLP.Chemscore.Internal.Correction>
0.0384

> <Gold.Rescore>
     Score         DG    S(hbond)    S(metal)    S(lipo)     H(rot)  DE(clash)    DE(int)     intcor
     11.58     -14.93       1.98        0.00      62.41       1.75       0.17       3.18       ----

> <Gold.Chemscore.Fitness>
11.5783

> <Gold.Chemscore.DG>
-14.9305

> <Gold.Chemscore.ZeroCoef>
-5.4800

> <Gold.Chemscore.Hbond>
1.9846

> <Gold.Chemscore.Metal>
0.0000

> <Gold.Chemscore.Lipo>
62.4073

> <Gold.Chemscore.Internal_Hbond>
0.0000

> <Gold.Chemscore.DEClash>
0.1750

> <Gold.Chemscore.DEInternal>
3.1772

> <Gold.Chemscore.Rot>
1.7499

> <Gold.Chemscore.Internal.Correction>
   9.000000E+99

> <Gold.Chemscore.Hbonds>
donor molecule, donor type, donor heavy atom, donor atom, acceptor molecule, acceptor atom, score
      L1  H    12    20       P1  8028  0.95
      P1  H 10752 10765       L1     8  0.94

> <Gold.Chemscore.Hbond.Weighted>
-6.6287

> <Gold.Chemscore.Metal.Weighted>
-0.0000

> <Gold.Chemscore.Lipo.Weighted>
-7.3017

> <Gold.Chemscore.Internal_Hbond.Weighted>
0.0000

> <Gold.Chemscore.DEClash.Weighted>
0.1750

> <Gold.Chemscore.DEInternal.Weighted>
3.1772

> <Gold.Chemscore.Rot.Weighted>
4.4798

> <Gold.Chemscore.Internal.Correction.Weighted>
   9.000000E+99

> <Gold.Protein.RotatedTorsions>
[ 6907 6896 6895 6894 ] final -126.44 input  -60.11 | X-H torsion
[ 7974 7965 7964 7962 ] final   25.53 input  175.53 | X-H torsion
[ 8008 7997 7996 7995 ] final -176.52 input   59.86 | X-H torsion
[ 10167 10162 10161 10158 ] final -101.56 input  -65.29 | X-H torsion
[ 10718 10713 10712 10709 ] final  -55.16 input   66.30 | X-H torsion
[ 10763 10752 10751 10750 ] final  165.28 input  -60.55 | X-H torsion
[ 11005 11000 10999 10996 ] final  -44.82 input  -57.11 | X-H torsion

> <Gold.Protein.ActiveResidues>
 VAL166  LYS551  ARG553  GLY616  TRP617  ASP618  TYR619  PRO620  LYS621  CYS622 
 ASP623  PHE694  ASN695  SER759  ASP760  ASP761  ALA762  ILE779  LEU786  VAL792 
 PHE793  MET794  SER795  GLU796  ALA797  LYS798  CYS799  TRP800  GLU811  SER814 

> <Gold.Protein.RotatedAtoms>
  150.8970  133.7168  159.2888 H   0  0  0  0  0  0  0  0  0  0  0  0  # atno 6907 bound_to 6896
  151.4699  135.1043  159.9758 H   0  0  0  0  0  0  0  0  0  0  0  0  # atno 6908 bound_to 6896
  152.4854  133.8312  159.7160 H   0  0  0  0  0  0  0  0  0  0  0  0  # atno 6909 bound_to 6896
  146.1884  139.7454  142.8850 H   0  0  0  0  0  0  0  0  0  0  0  0  # atno 7974 bound_to 7965
  155.9958  140.1210  157.0594 H   0  0  0  0  0  0  0  0  0  0  0  0  # atno 8008 bound_to 7997
  154.4226  140.1116  156.5697 H   0  0  0  0  0  0  0  0  0  0  0  0  # atno 8009 bound_to 7997
  155.6280  140.3472  155.4675 H   0  0  0  0  0  0  0  0  0  0  0  0  # atno 8010 bound_to 7997
  140.2400  143.3546  152.0810 H   0  0  0  0  0  0  0  0  0  0  0  0  # atno 10167 bound_to 10162
  156.1391  130.4155  150.0134 H   0  0  0  0  0  0  0  0  0  0  0  0  # atno 10718 bound_to 10713
  154.3216  135.2756  155.2516 H   0  0  0  0  0  0  0  0  0  0  0  0  # atno 10763 bound_to 10752
  154.4867  135.5844  153.6433 H   0  0  0  0  0  0  0  0  0  0  0  0  # atno 10764 bound_to 10752
  152.9876  135.6124  154.3401 H   0  0  0  0  0  0  0  0  0  0  0  0  # atno 10765 bound_to 10752
  141.0476  133.6755  156.2927 H   0  0  0  0  0  0  0  0  0  0  0  0  # atno 11005 bound_to 11000
  145.3868  141.0366  143.3146 LP  0  0  0  0  0  0  0  0  0  0  0  0  # atno 17320 bound_to 7965
  144.8440  139.5426  143.6887 LP  0  0  0  0  0  0  0  0  0  0  0  0  # atno 17321 bound_to 7965
  139.5080  144.6843  151.5928 LP  0  0  0  0  0  0  0  0  0  0  0  0  # atno 17342 bound_to 10162
  140.6121  143.9417  150.6461 LP  0  0  0  0  0  0  0  0  0  0  0  0  # atno 17343 bound_to 10162
  156.8025  130.9295  151.3645 LP  0  0  0  0  0  0  0  0  0  0  0  0  # atno 17370 bound_to 10713
  157.6559  130.8924  149.9728 LP  0  0  0  0  0  0  0  0  0  0  0  0  # atno 17371 bound_to 10713
  140.6118  134.5451  157.5534 LP  0  0  0  0  0  0  0  0  0  0  0  0  # atno 17394 bound_to 11000
  139.9324  134.7939  156.0895 LP  0  0  0  0  0  0  0  0  0  0  0  0  # atno 17395 bound_to 11000

$$$$
