AV-unprocessed.smi:2573|AV-procd|sdf|10112|dock2
  -GOLD-   2272014133D 1   1.00000     0.00000
 Structure written by MMmdl.
 38 39  0  0  0  0  0  0  0  0  1 V2000
  155.4372  139.9156  161.9493 C   0  0  0  0  0  0  0  0  0  0  0  0
  154.8898  140.6813  160.7369 C   0  0  0  0  0  0  0  0  0  0  0  0
  153.5331  140.1596  160.2289 C   0  0  0  0  0  0  0  0  0  0  0  0
  152.8253  141.1461  159.4136 N   0  0  0  0  0  0  0  0  0  0  0  0
  152.3927  140.9873  158.1401 C   0  0  0  0  0  0  0  0  0  0  0  0
  152.5197  139.9736  157.4536 O   0  0  0  0  0  0  0  0  0  0  0  0
  151.7897  142.1359  157.7539 N   0  0  0  0  0  0  0  0  0  0  0  0
  151.1642  142.3962  156.4583 C   0  0  0  0  0  0  0  0  0  0  0  0
  150.3680  141.1736  155.9574 C   0  0  2  0  0  0  0  0  0  0  0  0
  151.2703  140.3033  155.3029 O   0  0  0  0  0  0  0  0  0  0  0  0
  149.2695  141.5766  154.9511 C   0  0  0  0  0  0  0  0  0  0  0  0
  148.3378  140.4285  154.5202 C   0  0  0  0  0  0  0  0  0  0  0  0
  147.5656  140.8509  153.5195 F   0  0  0  0  0  0  0  0  0  0  0  0
  149.0316  139.3717  154.0984 F   0  0  0  0  0  0  0  0  0  0  0  0
  147.5537  140.0632  155.5344 F   0  0  0  0  0  0  0  0  0  0  0  0
  151.8242  143.0520  158.8155 C   0  0  0  0  0  0  0  0  0  0  0  0
  151.3262  144.3622  158.9256 C   0  0  0  0  0  0  0  0  0  0  0  0
  151.5282  145.0294  160.1567 C   0  0  0  0  0  0  0  0  0  0  0  0
  152.2059  144.3902  161.2275 C   0  0  0  0  0  0  0  0  0  0  0  0
  152.6939  143.0698  161.0907 C   0  0  0  0  0  0  0  0  0  0  0  0
  152.4792  142.4300  159.8578 C   0  0  0  0  0  0  0  0  0  0  0  0
  156.3597  140.3709  162.3099 H   0  0  0  0  0  0  0  0  0  0  0  0
  155.6601  138.8782  161.6997 H   0  0  0  0  0  0  0  0  0  0  0  0
  154.7211  139.9177  162.7714 H   0  0  0  0  0  0  0  0  0  0  0  0
  154.7800  141.7316  161.0074 H   0  0  0  0  0  0  0  0  0  0  0  0
  155.6237  140.6540  159.9308 H   0  0  0  0  0  0  0  0  0  0  0  0
  153.6784  139.2374  159.6641 H   0  0  0  0  0  0  0  0  0  0  0  0
  152.9031  139.8908  161.0774 H   0  0  0  0  0  0  0  0  0  0  0  0
  150.4979  143.2502  156.5837 H   0  0  0  0  0  0  0  0  0  0  0  0
  151.9055  142.7137  155.7224 H   0  0  0  0  0  0  0  0  0  0  0  0
  149.9112  140.6542  156.8008 H   0  0  0  0  0  0  0  0  0  0  0  0
  151.6805  139.7501  155.9503 H   0  0  0  0  0  0  0  0  0  0  0  0
  148.6488  142.3515  155.4026 H   0  0  0  0  0  0  0  0  0  0  0  0
  149.7235  142.0341  154.0708 H   0  0  0  0  0  0  0  0  0  0  0  0
  150.8093  144.8434  158.1086 H   0  0  0  0  0  0  0  0  0  0  0  0
  151.1620  146.0375  160.2833 H   0  0  0  0  0  0  0  0  0  0  0  0
  152.3500  144.9176  162.1591 H   0  0  0  0  0  0  0  0  0  0  0  0
  153.2089  142.5772  161.9021 H   0  0  0  0  0  0  0  0  0  0  0  0
  1  2  1  0  0  0  0
  1 22  1  0  0  0  0
  1 23  1  0  0  0  0
  1 24  1  0  0  0  0
  2  3  1  0  0  0  0
  2 25  1  0  0  0  0
  2 26  1  0  0  0  0
  3  4  1  0  0  0  0
  3 27  1  0  0  0  0
  3 28  1  0  0  0  0
  4 21  1  0  0  0  0
  4  5  1  0  0  0  0
  5  6  2  0  0  0  0
  5  7  1  0  0  0  0
  7  8  1  0  0  0  0
  7 16  1  0  0  0  0
  8  9  1  0  0  0  0
  8 29  1  0  0  0  0
  8 30  1  0  0  0  0
  9 10  1  0  0  0  0
  9 11  1  0  0  0  0
  9 31  1  0  0  0  0
 10 32  1  0  0  0  0
 11 12  1  0  0  0  0
 11 33  1  0  0  0  0
 11 34  1  0  0  0  0
 12 13  1  0  0  0  0
 12 14  1  0  0  0  0
 12 15  1  0  0  0  0
 16 21  2  0  0  0  0
 16 17  1  0  0  0  0
 17 18  2  0  0  0  0
 17 35  1  0  0  0  0
 18 19  1  0  0  0  0
 18 36  1  0  0  0  0
 19 20  2  0  0  0  0
 19 37  1  0  0  0  0
 20 21  1  0  0  0  0
 20 38  1  0  0  0  0
M  END
> <s_m_source_file>
AV-unprocessed.smi

> <i_m_source_file_index>
2573

> <i_lp_mmshare_version>
43012

> <i_f3d_flags>
0

> <s_epik_input>
W2NIXTFbY0hdW2NIXVtjSF1jKGMxMiluKFtDSDJdW0NIMl1bQ0gzXSljKD1PKW4yW0NIMl1bQ0BIXShbT0hdKVtDSDJdQyhGKShGKUY=

> <s_epik_cmdline>
J2VwaWtfcHl0aG9uJywgJy1waCcsICc3LjAnLCAnLXRuJywgJzgnLCAnLW1hJywgJzIwMCcsICctbWV0YWxfYmluZGluZycsICctaW1hZScsICc8aW5maWxlLm1hZT4nLCAnLW9tYWUnLCAnPG91dGZpbGUubWFlPic=

> <r_lp_tautomer_probability>
1

> <r_epik_Ionization_Penalty>
2.4024e-06

> <r_epik_Ionization_Penalty_Charging>
3.10219e-09

> <r_epik_Ionization_Penalty_Neutral>
2.3993e-06

> <r_epik_State_Penalty>
-0

> <r_epik_Charging_Adjusted_Penalty>
3.10219e-09

> <i_epik_Tot_Q>
0

> <i_epik_Tot_abs_Q>
0

> <r_epik_Metal_State_Penalty>
-0

> <b_epik_Metal_Only>
0

> <s_lp_Force_Field>
OPLS_2005

> <r_lp_Energy>
43.3878

> <b_lp_Chiralities_Consistent>
1

> <s_lp_Variant>
AV-unprocessed.smi:2573-1

> <Gold.Version>
5.8.1

> <Gold.Id.Protein>
6NUR|6NUR_protein|mol2

> <Gold.PLP.Fitness>
53.4364

> <Gold.PLP.PLP>
-48.7355

> <Gold.PLP.part.hbond>
-2.0000

> <Gold.PLP.part.metal>
0.0000

> <Gold.PLP.part.buried>
-4.7129

> <Gold.PLP.part.nonpolar>
-41.4605

> <Gold.PLP.part.repulsive>
0.0000

> <Gold.PLP.ligand.clash>
0.0000

> <Gold.PLP.ligand.torsion>
0.6996

> <Gold.PLP.Chemscore.Hbond>
2.0000

> <Gold.PLP.Chemscore.CHOScore>
0.0000

> <Gold.PLP.Chemscore.Metal>
0.0000

> <Gold.Chemscore.Hbonds>
donor molecule, donor type, donor heavy atom, donor atom, acceptor molecule, acceptor atom, score
      P1  H  7989  7998       L1    10  1.00
      P1  H  7997  8008       L1     6  1.00

> <Gold.PLP.Chemscore.Internal.Correction>
0.1001

> <Gold.Rescore>
     Score         DG    S(hbond)    S(metal)    S(lipo)     H(rot)  DE(clash)    DE(int)     intcor
     15.25     -18.62       1.63        0.00     120.02       2.48       0.02       3.35       ----

> <Gold.Chemscore.Fitness>
15.2511

> <Gold.Chemscore.DG>
-18.6225

> <Gold.Chemscore.ZeroCoef>
-5.4800

> <Gold.Chemscore.Hbond>
1.6322

> <Gold.Chemscore.Metal>
0.0000

> <Gold.Chemscore.Lipo>
120.0223

> <Gold.Chemscore.Internal_Hbond>
0.0000

> <Gold.Chemscore.DEClash>
0.0184

> <Gold.Chemscore.DEInternal>
3.3530

> <Gold.Chemscore.Rot>
2.4812

> <Gold.Chemscore.Internal.Correction>
   9.000000E+99

> <Gold.Chemscore.Hbonds>
donor molecule, donor type, donor heavy atom, donor atom, acceptor molecule, acceptor atom, score
      P1  H  7989  7998       L1    10  0.77
      P1  H  7997  8008       L1     6  0.42

> <Gold.Chemscore.Hbond.Weighted>
-5.4517

> <Gold.Chemscore.Metal.Weighted>
-0.0000

> <Gold.Chemscore.Lipo.Weighted>
-14.0426

> <Gold.Chemscore.Internal_Hbond.Weighted>
0.0000

> <Gold.Chemscore.DEClash.Weighted>
0.0184

> <Gold.Chemscore.DEInternal.Weighted>
3.3530

> <Gold.Chemscore.Rot.Weighted>
6.3518

> <Gold.Chemscore.Internal.Correction.Weighted>
   9.000000E+99

> <Gold.Protein.RotatedTorsions>
[ 6907 6896 6895 6894 ] final -128.12 input  -60.11 | X-H torsion
[ 7974 7965 7964 7962 ] final  -64.89 input  175.53 | X-H torsion
[ 8008 7997 7996 7995 ] final  -65.71 input   59.86 | X-H torsion
[ 10167 10162 10161 10158 ] final   98.38 input  -65.29 | X-H torsion
[ 10718 10713 10712 10709 ] final  -52.39 input   66.30 | X-H torsion
[ 10763 10752 10751 10750 ] final  -25.67 input  -60.55 | X-H torsion
[ 11005 11000 10999 10996 ] final   74.48 input  -57.11 | X-H torsion

> <Gold.Protein.ActiveResidues>
 VAL166  LYS551  ARG553  GLY616  TRP617  ASP618  TYR619  PRO620  LYS621  CYS622 
 ASP623  PHE694  ASN695  SER759  ASP760  ASP761  ALA762  ILE779  LEU786  VAL792 
 PHE793  MET794  SER795  GLU796  ALA797  LYS798  CYS799  TRP800  GLU811  SER814 

> <Gold.Protein.RotatedAtoms>
  150.9145  133.6956  159.2846 H   0  0  0  0  0  0  0  0  0  0  0  0  # atno 6907 bound_to 6896
  151.4431  135.1021  159.9685 H   0  0  0  0  0  0  0  0  0  0  0  0  # atno 6908 bound_to 6896
  152.4947  133.8549  159.7275 H   0  0  0  0  0  0  0  0  0  0  0  0  # atno 6909 bound_to 6896
  145.7611  140.8861  143.0429 H   0  0  0  0  0  0  0  0  0  0  0  0  # atno 7974 bound_to 7965
  154.4689  140.0927  156.7092 H   0  0  0  0  0  0  0  0  0  0  0  0  # atno 8008 bound_to 7997
  155.4780  140.3466  155.4317 H   0  0  0  0  0  0  0  0  0  0  0  0  # atno 8009 bound_to 7997
  156.1004  140.1421  156.9463 H   0  0  0  0  0  0  0  0  0  0  0  0  # atno 8010 bound_to 7997
  139.7714  144.6921  151.0150 H   0  0  0  0  0  0  0  0  0  0  0  0  # atno 10167 bound_to 10162
  156.1626  130.4149  149.9770 H   0  0  0  0  0  0  0  0  0  0  0  0  # atno 10718 bound_to 10713
  153.7035  135.6955  153.5056 H   0  0  0  0  0  0  0  0  0  0  0  0  # atno 10763 bound_to 10752
  153.2325  135.4333  155.0609 H   0  0  0  0  0  0  0  0  0  0  0  0  # atno 10764 bound_to 10752
  154.8337  135.3487  154.6574 H   0  0  0  0  0  0  0  0  0  0  0  0  # atno 10765 bound_to 10752
  139.9389  134.7437  156.1153 H   0  0  0  0  0  0  0  0  0  0  0  0  # atno 11005 bound_to 11000
  144.6830  139.9724  143.7482 LP  0  0  0  0  0  0  0  0  0  0  0  0  # atno 17320 bound_to 7965
  146.0263  139.3295  143.0782 LP  0  0  0  0  0  0  0  0  0  0  0  0  # atno 17321 bound_to 7965
  140.7814  143.4584  151.0313 LP  0  0  0  0  0  0  0  0  0  0  0  0  # atno 17342 bound_to 10162
  139.8268  143.7745  152.3179 LP  0  0  0  0  0  0  0  0  0  0  0  0  # atno 17343 bound_to 10162
  156.7595  130.9145  151.3641 LP  0  0  0  0  0  0  0  0  0  0  0  0  # atno 17370 bound_to 10713
  157.6744  130.9080  150.0114 LP  0  0  0  0  0  0  0  0  0  0  0  0  # atno 17371 bound_to 10713
  141.1015  133.6675  156.2765 LP  0  0  0  0  0  0  0  0  0  0  0  0  # atno 17394 bound_to 11000
  140.6003  134.5561  157.5516 LP  0  0  0  0  0  0  0  0  0  0  0  0  # atno 17395 bound_to 11000

$$$$
