AV-unprocessed.smi:3340|AV-procd|sdf|12879|dock9
  -GOLD-   2272019283D 1   1.00000     0.00000
 Structure written by MMmdl.
 42 43  0  0  0  0  0  0  0  0  2 V2000
  152.4846  130.0191  157.5786 C   0  0  0  0  0  0  0  0  0  0  0  0
  152.0172  131.4713  157.4578 C   0  0  0  0  0  0  0  0  0  0  0  0
  152.6740  132.3386  158.0340 O   0  0  0  0  0  0  0  0  0  0  0  0
  150.9109  131.7543  156.7288 N   0  0  0  0  0  0  0  0  0  0  0  0
  150.4324  133.1270  156.5091 C   0  0  0  0  0  0  0  0  0  0  0  0
  150.5476  133.4622  155.0083 C   0  0  0  0  0  0  0  0  0  0  0  0
  149.7548  132.4851  154.2364 N   0  0  0  0  0  0  0  0  0  0  0  0
  148.6106  132.7447  153.5557 C   0  0  0  0  0  0  0  0  0  0  0  0
  148.2224  133.8840  153.2933 O   0  0  0  0  0  0  0  0  0  0  0  0
  147.8915  131.6555  153.2340 N   0  0  0  0  0  0  0  0  0  0  0  0
  146.6070  131.6582  152.5405 C   0  0  2  0  0  0  0  0  0  0  0  0
  146.2467  130.2172  152.1436 C   0  0  0  0  0  0  0  0  0  0  0  0
  146.6560  132.6266  151.3391 C   0  0  0  0  0  0  0  0  0  0  0  0
  145.4261  132.6091  150.5420 N   0  0  0  0  0  0  0  0  0  0  0  0
  145.2368  132.0038  149.3264 C   0  0  0  0  0  0  0  0  0  0  0  0
  143.9369  132.2495  148.9657 C   0  0  0  0  0  0  0  0  0  0  0  0
  143.3875  132.9914  149.9770 N   0  3  0  0  0  0  0  0  0  0  0  0
  144.2938  133.2061  150.9364 C   0  0  0  0  0  0  0  0  0  0  0  0
  150.2317  131.1122  154.4651 C   0  0  0  0  0  0  0  0  0  0  0  0
  150.1182  130.7784  155.9658 C   0  0  0  0  0  0  0  0  0  0  0  0
  152.7191  129.6058  156.5973 H   0  0  0  0  0  0  0  0  0  0  0  0
  151.7181  129.4038  158.0505 H   0  0  0  0  0  0  0  0  0  0  0  0
  153.3857  129.9549  158.1895 H   0  0  0  0  0  0  0  0  0  0  0  0
  149.3942  133.2037  156.8358 H   0  0  0  0  0  0  0  0  0  0  0  0
  150.9845  133.8655  157.0914 H   0  0  0  0  0  0  0  0  0  0  0  0
  150.2493  134.4986  154.8530 H   0  0  0  0  0  0  0  0  0  0  0  0
  151.5897  133.4054  154.6902 H   0  0  0  0  0  0  0  0  0  0  0  0
  148.2619  130.7550  153.5016 H   0  0  0  0  0  0  0  0  0  0  0  0
  145.8392  132.0037  153.2353 H   0  0  0  0  0  0  0  0  0  0  0  0
  145.2487  130.1593  151.7092 H   0  0  0  0  0  0  0  0  0  0  0  0
  146.2576  129.5582  153.0124 H   0  0  0  0  0  0  0  0  0  0  0  0
  146.9525  129.8181  151.4145 H   0  0  0  0  0  0  0  0  0  0  0  0
  146.8068  133.6529  151.6771 H   0  0  0  0  0  0  0  0  0  0  0  0
  147.4946  132.3841  150.6839 H   0  0  0  0  0  0  0  0  0  0  0  0
  146.0219  131.4590  148.8217 H   0  0  0  0  0  0  0  0  0  0  0  0
  143.3767  131.9594  148.0886 H   0  0  0  0  0  0  0  0  0  0  0  0
  144.1414  133.7581  151.8467 H   0  0  0  0  0  0  0  0  0  0  0  0
  149.6828  130.3727  153.8806 H   0  0  0  0  0  0  0  0  0  0  0  0
  151.2701  131.0350  154.1392 H   0  0  0  0  0  0  0  0  0  0  0  0
  150.4190  129.7451  156.1305 H   0  0  0  0  0  0  0  0  0  0  0  0
  149.0768  130.8361  156.2855 H   0  0  0  0  0  0  0  0  0  0  0  0
  142.4336  133.3297  149.9984 H   0  0  0  0  0  0  0  0  0  0  0  0
  1  2  1  0  0  0  0
  1 21  1  0  0  0  0
  1 22  1  0  0  0  0
  1 23  1  0  0  0  0
  2  3  2  0  0  0  0
  2  4  1  0  0  0  0
  4 20  1  0  0  0  0
  4  5  1  0  0  0  0
  5  6  1  0  0  0  0
  5 24  1  0  0  0  0
  5 25  1  0  0  0  0
  6  7  1  0  0  0  0
  6 26  1  0  0  0  0
  6 27  1  0  0  0  0
  7  8  1  0  0  0  0
  7 19  1  0  0  0  0
  8  9  2  0  0  0  0
  8 10  1  0  0  0  0
 10 11  1  0  0  0  0
 10 28  1  0  0  0  0
 11 12  1  0  0  0  0
 11 13  1  0  0  0  0
 11 29  1  0  0  0  0
 12 30  1  0  0  0  0
 12 31  1  0  0  0  0
 12 32  1  0  0  0  0
 13 14  1  0  0  0  0
 13 33  1  0  0  0  0
 13 34  1  0  0  0  0
 14 18  1  0  0  0  0
 14 15  1  0  0  0  0
 15 16  2  0  0  0  0
 15 35  1  0  0  0  0
 16 17  1  0  0  0  0
 16 36  1  0  0  0  0
 17 18  2  0  0  0  0
 17 42  1  0  0  0  0
 18 37  1  0  0  0  0
 19 20  1  0  0  0  0
 19 38  1  0  0  0  0
 19 39  1  0  0  0  0
 20 40  1  0  0  0  0
 20 41  1  0  0  0  0
M  CHG  1  17   1
M  END
> <s_m_source_file>
AV-unprocessed.smi

> <i_m_source_file_index>
3340

> <i_lp_mmshare_version>
43012

> <i_f3d_flags>
0

> <s_epik_input>
W0NIM11DKD1PKU4xW0NIMl1bQ0gyXU4oW0NIMl1bQ0gyXTEpQyg9TylbTkhdW0NASF0oW0NIM10pW0NIMl1uMltjSF1bY0hdbltjSF0y

> <s_epik_cmdline>
J2VwaWtfcHl0aG9uJywgJy1waCcsICc3LjAnLCAnLXRuJywgJzgnLCAnLW1hJywgJzIwMCcsICctbWV0YWxfYmluZGluZycsICctaW1hZScsICc8aW5maWxlLm1hZT4nLCAnLW9tYWUnLCAnPG91dGZpbGUubWFlPic=

> <r_lp_tautomer_probability>
1

> <r_epik_Ionization_Penalty>
0.254791

> <r_epik_Ionization_Penalty_Charging>
0

> <r_epik_Ionization_Penalty_Neutral>
0.254791

> <r_epik_State_Penalty>
0.246235

> <r_epik_Charging_Adjusted_Penalty>
0.246235

> <i_epik_Tot_Q>
1

> <i_epik_Tot_abs_Q>
1

> <r_epik_Metal_State_Penalty>
0.536161

> <b_epik_Metal_Only>
0

> <s_lp_Force_Field>
OPLS_2005

> <r_lp_Energy>
50.8971

> <b_lp_Chiralities_Consistent>
1

> <s_lp_Variant>
AV-unprocessed.smi:3340-1

> <Gold.Version>
5.8.1

> <Gold.Id.Protein>
6NUR|6NUR_protein|mol2

> <Gold.PLP.Fitness>
43.0243

> <Gold.PLP.PLP>
-36.6414

> <Gold.PLP.part.hbond>
-2.1396

> <Gold.PLP.part.metal>
0.0000

> <Gold.PLP.part.buried>
-5.6097

> <Gold.PLP.part.nonpolar>
-29.9020

> <Gold.PLP.part.repulsive>
1.2825

> <Gold.PLP.ligand.clash>
1.8200

> <Gold.PLP.ligand.torsion>
0.4294

> <Gold.PLP.Chemscore.Hbond>
3.0000

> <Gold.PLP.Chemscore.CHOScore>
0.0000

> <Gold.PLP.Chemscore.Metal>
0.0000

> <Gold.Chemscore.Hbonds>
donor molecule, donor type, donor heavy atom, donor atom, acceptor molecule, acceptor atom, score
      L1  H    17    42       P1 10186  2.00
      P1  H  6896  6908       L1     3  1.00

> <Gold.PLP.Chemscore.Internal.Correction>
0.0615

> <Gold.Rescore>
     Score         DG    S(hbond)    S(metal)    S(lipo)     H(rot)  DE(clash)    DE(int)     intcor
     14.28     -16.06       2.00        0.00      70.52       1.70       0.22       1.56       ----

> <Gold.Chemscore.Fitness>
14.2782

> <Gold.Chemscore.DG>
-16.0576

> <Gold.Chemscore.ZeroCoef>
-5.4800

> <Gold.Chemscore.Hbond>
1.9978

> <Gold.Chemscore.Metal>
0.0000

> <Gold.Chemscore.Lipo>
70.5178

> <Gold.Chemscore.Internal_Hbond>
0.0000

> <Gold.Chemscore.DEClash>
0.2220

> <Gold.Chemscore.DEInternal>
1.5573

> <Gold.Chemscore.Rot>
1.6975

> <Gold.Chemscore.Internal.Correction>
   9.000000E+99

> <Gold.Chemscore.Hbonds>
donor molecule, donor type, donor heavy atom, donor atom, acceptor molecule, acceptor atom, score
      L1  H    17    42       P1 10186  0.99
      P1  H  6896  6908       L1     3  1.00

> <Gold.Chemscore.Hbond.Weighted>
-6.6725

> <Gold.Chemscore.Metal.Weighted>
-0.0000

> <Gold.Chemscore.Lipo.Weighted>
-8.2506

> <Gold.Chemscore.Internal_Hbond.Weighted>
0.0000

> <Gold.Chemscore.DEClash.Weighted>
0.2220

> <Gold.Chemscore.DEInternal.Weighted>
1.5573

> <Gold.Chemscore.Rot.Weighted>
4.3455

> <Gold.Chemscore.Internal.Correction.Weighted>
   9.000000E+99

> <Gold.Protein.RotatedTorsions>
[ 6907 6896 6895 6894 ] final   34.06 input  -60.11 | X-H torsion
[ 7974 7965 7964 7962 ] final -163.80 input  175.53 | X-H torsion
[ 8008 7997 7996 7995 ] final   60.81 input   59.86 | X-H torsion
[ 10167 10162 10161 10158 ] final  137.93 input  -65.29 | X-H torsion
[ 10718 10713 10712 10709 ] final  114.81 input   66.30 | X-H torsion
[ 10763 10752 10751 10750 ] final -149.39 input  -60.55 | X-H torsion
[ 11005 11000 10999 10996 ] final   65.22 input  -57.11 | X-H torsion

> <Gold.Protein.ActiveResidues>
 VAL166  LYS551  ARG553  GLY616  TRP617  ASP618  TYR619  PRO620  LYS621  CYS622 
 ASP623  PHE694  ASN695  SER759  ASP760  ASP761  ALA762  ILE779  LEU786  VAL792 
 PHE793  MET794  SER795  GLU796  ALA797  LYS798  CYS799  TRP800  GLU811  SER814 

> <Gold.Protein.RotatedAtoms>
  152.0972  134.9367  160.0570 H   0  0  0  0  0  0  0  0  0  0  0  0  # atno 6907 bound_to 6896
  152.0595  133.4051  159.4420 H   0  0  0  0  0  0  0  0  0  0  0  0  # atno 6908 bound_to 6896
  150.6838  134.3136  159.4800 H   0  0  0  0  0  0  0  0  0  0  0  0  # atno 6909 bound_to 6896
  144.7315  140.3053  143.6197 H   0  0  0  0  0  0  0  0  0  0  0  0  # atno 7974 bound_to 7965
  155.5883  140.3492  155.4559 H   0  0  0  0  0  0  0  0  0  0  0  0  # atno 8008 bound_to 7997
  156.0321  140.1277  157.0272 H   0  0  0  0  0  0  0  0  0  0  0  0  # atno 8009 bound_to 7997
  154.4356  140.1041  156.6100 H   0  0  0  0  0  0  0  0  0  0  0  0  # atno 8010 bound_to 7997
  139.5128  144.6382  151.5639 H   0  0  0  0  0  0  0  0  0  0  0  0  # atno 10167 bound_to 10162
  157.6259  131.1004  150.7239 H   0  0  0  0  0  0  0  0  0  0  0  0  # atno 10718 bound_to 10713
  154.8180  135.3310  154.7121 H   0  0  0  0  0  0  0  0  0  0  0  0  # atno 10763 bound_to 10752
  153.7759  135.6922  153.4902 H   0  0  0  0  0  0  0  0  0  0  0  0  # atno 10764 bound_to 10752
  153.2013  135.4515  155.0218 H   0  0  0  0  0  0  0  0  0  0  0  0  # atno 10765 bound_to 10752
  139.9908  134.6594  156.0094 H   0  0  0  0  0  0  0  0  0  0  0  0  # atno 11005 bound_to 11000
  145.7719  139.1860  143.2207 LP  0  0  0  0  0  0  0  0  0  0  0  0  # atno 17320 bound_to 7965
  146.0904  140.7662  142.9598 LP  0  0  0  0  0  0  0  0  0  0  0  0  # atno 17321 bound_to 7965
  140.6139  143.9384  150.6474 LP  0  0  0  0  0  0  0  0  0  0  0  0  # atno 17342 bound_to 10162
  140.2636  143.3506  152.1301 LP  0  0  0  0  0  0  0  0  0  0  0  0  # atno 17343 bound_to 10162
  156.7587  130.4792  149.5441 LP  0  0  0  0  0  0  0  0  0  0  0  0  # atno 17370 bound_to 10713
  156.1431  130.6259  151.0495 LP  0  0  0  0  0  0  0  0  0  0  0  0  # atno 17371 bound_to 10713
  141.1564  133.6542  156.4176 LP  0  0  0  0  0  0  0  0  0  0  0  0  # atno 17394 bound_to 11000
  140.4911  134.6574  157.5211 LP  0  0  0  0  0  0  0  0  0  0  0  0  # atno 17395 bound_to 11000

$$$$
