AV-unprocessed.smi:1452|AV-procd|sdf|5903|dock7
  -GOLD-   22720 5593D 1   1.00000     0.00000
 Structure written by MMmdl.
 40 42  0  0  0  0  0  0  0  0  2 V2000
  142.9748  135.8563  153.1493 O   0  0  0  0  0  0  0  0  0  0  0  0
  143.1297  137.0580  152.9388 C   0  0  0  0  0  0  0  0  0  0  0  0
  142.1268  137.9375  153.1487 N   0  0  0  0  0  0  0  0  0  0  0  0
  140.7890  137.7556  153.6097 C   0  0  0  0  0  0  0  0  0  0  0  0
  139.8639  138.6969  153.1042 C   0  0  0  0  0  0  0  0  0  0  0  0
  138.5119  138.6222  153.4909 C   0  0  0  0  0  0  0  0  0  0  0  0
  138.1158  137.6051  154.3770 C   0  0  0  0  0  0  0  0  0  0  0  0
  139.0969  136.7078  154.8358 C   0  0  0  0  0  0  0  0  0  0  0  0
  140.3936  136.7790  154.4666 N   0  0  0  0  0  0  0  0  0  0  0  0
  144.2876  137.5710  152.4923 N   0  0  0  0  0  0  0  0  0  0  0  0
  145.4950  136.8109  152.1882 C   0  0  2  0  0  0  0  0  0  0  0  0
  145.2404  135.6568  151.2022 C   0  0  0  0  0  0  0  0  0  0  0  0
  146.1233  134.4939  151.6964 C   0  0  0  0  0  0  0  0  0  0  0  0
  146.8972  135.0436  152.8256 N   0  3  2  0  0  0  0  0  0  0  0  0
  147.4074  134.0802  153.8251 C   0  0  0  0  0  0  0  0  0  0  0  0
  148.2547  134.8331  154.8701 C   0  0  0  0  0  0  0  0  0  0  0  0
  147.4804  136.0134  155.4912 C   0  0  0  0  0  0  0  0  0  0  0  0
  146.8934  136.9297  154.4003 C   0  0  0  0  0  0  0  0  0  0  0  0
  146.0548  136.0929  153.4191 C   0  0  1  0  0  0  0  0  0  0  0  0
  142.3725  138.8989  152.9619 H   0  0  0  0  0  0  0  0  0  0  0  0
  140.1830  139.4731  152.4233 H   0  0  0  0  0  0  0  0  0  0  0  0
  137.7919  139.3332  153.1131 H   0  0  0  0  0  0  0  0  0  0  0  0
  137.0878  137.5152  154.6959 H   0  0  0  0  0  0  0  0  0  0  0  0
  138.8350  135.9113  155.5164 H   0  0  0  0  0  0  0  0  0  0  0  0
  144.3282  138.5708  152.3491 H   0  0  0  0  0  0  0  0  0  0  0  0
  146.2625  137.4618  151.7639 H   0  0  0  0  0  0  0  0  0  0  0  0
  144.1929  135.3509  151.2058 H   0  0  0  0  0  0  0  0  0  0  0  0
  145.4908  135.9508  150.1822 H   0  0  0  0  0  0  0  0  0  0  0  0
  145.4966  133.6684  152.0375 H   0  0  0  0  0  0  0  0  0  0  0  0
  146.7885  134.1162  150.9196 H   0  0  0  0  0  0  0  0  0  0  0  0
  146.5737  133.5668  154.3068 H   0  0  0  0  0  0  0  0  0  0  0  0
  148.0109  133.3205  153.3272 H   0  0  0  0  0  0  0  0  0  0  0  0
  148.5806  134.1471  155.6523 H   0  0  0  0  0  0  0  0  0  0  0  0
  149.1614  135.2097  154.3950 H   0  0  0  0  0  0  0  0  0  0  0  0
  146.6723  135.6281  156.1142 H   0  0  0  0  0  0  0  0  0  0  0  0
  148.1332  136.5852  156.1514 H   0  0  0  0  0  0  0  0  0  0  0  0
  146.2803  137.7052  154.8595 H   0  0  0  0  0  0  0  0  0  0  0  0
  147.6984  137.4390  153.8688 H   0  0  0  0  0  0  0  0  0  0  0  0
  145.2337  135.6153  153.9592 H   0  0  0  0  0  0  0  0  0  0  0  0
  147.6958  135.5141  152.4244 H   0  0  0  0  0  0  0  0  0  0  0  0
  1  2  2  0  0  0  0
  2  3  1  0  0  0  0
  2 10  1  0  0  0  0
  3  4  1  0  0  0  0
  3 20  1  0  0  0  0
  4  9  1  0  0  0  0
  4  5  2  0  0  0  0
  5  6  1  0  0  0  0
  5 21  1  0  0  0  0
  6  7  2  0  0  0  0
  6 22  1  0  0  0  0
  7  8  1  0  0  0  0
  7 23  1  0  0  0  0
  8  9  2  0  0  0  0
  8 24  1  0  0  0  0
 10 11  1  0  0  0  0
 10 25  1  0  0  0  0
 11 19  1  0  0  0  0
 11 12  1  0  0  0  0
 11 26  1  0  0  0  0
 12 13  1  0  0  0  0
 12 27  1  0  0  0  0
 12 28  1  0  0  0  0
 13 14  1  0  0  0  0
 13 29  1  0  0  0  0
 13 30  1  0  0  0  0
 14 19  1  0  0  0  0
 14 15  1  0  0  0  0
 14 40  1  0  0  0  0
 15 16  1  0  0  0  0
 15 31  1  0  0  0  0
 15 32  1  0  0  0  0
 16 17  1  0  0  0  0
 16 33  1  0  0  0  0
 16 34  1  0  0  0  0
 17 18  1  0  0  0  0
 17 35  1  0  0  0  0
 17 36  1  0  0  0  0
 18 19  1  0  0  0  0
 18 37  1  0  0  0  0
 18 38  1  0  0  0  0
 19 39  1  0  0  0  0
M  CHG  1  14   1
M  END
> <s_m_source_file>
AV-unprocessed.smi

> <i_m_source_file_index>
1452

> <i_lp_mmshare_version>
43012

> <i_f3d_flags>
0

> <s_epik_input>
W0NIMl0xW0NIMl1bQ0gyXVtDSDJdW0NASF0oTjEyKVtDQEBIXShbQ0gyXVtDSDJdMilbTkhdQyg9TylbTkhdYzNbY0hdW2NIXVtjSF1bY0hdbjM=

> <s_epik_cmdline>
J2VwaWtfcHl0aG9uJywgJy1waCcsICc3LjAnLCAnLXRuJywgJzgnLCAnLW1hJywgJzIwMCcsICctbWV0YWxfYmluZGluZycsICctaW1hZScsICc8aW5maWxlLm1hZT4nLCAnLW9tYWUnLCAnPG91dGZpbGUubWFlPic=

> <r_epik_Ionization_Penalty>
0.00100813

> <r_epik_Ionization_Penalty_Charging>
0.000974069

> <r_epik_Ionization_Penalty_Neutral>
3.40643e-05

> <r_epik_State_Penalty>
0.000633842

> <r_epik_Charging_Adjusted_Penalty>
0.00160791

> <i_epik_Tot_Q>
1

> <i_epik_Tot_abs_Q>
1

> <r_epik_Metal_State_Penalty>
-0

> <b_epik_Metal_Only>
0

> <s_lp_Force_Field>
OPLS_2005

> <r_lp_Energy>
38.1413

> <b_lp_Chiralities_Consistent>
1

> <s_lp_Variant>
AV-unprocessed.smi:1452-1

> <Gold.Version>
5.8.1

> <Gold.Id.Protein>
6NUR|6NUR_protein|mol2

> <Gold.PLP.Fitness>
42.5576

> <Gold.PLP.PLP>
-28.1148

> <Gold.PLP.part.hbond>
-4.0000

> <Gold.PLP.part.metal>
0.0000

> <Gold.PLP.part.buried>
-3.4008

> <Gold.PLP.part.nonpolar>
-22.6049

> <Gold.PLP.part.repulsive>
0.2239

> <Gold.PLP.ligand.clash>
0.0000

> <Gold.PLP.ligand.torsion>
0.2086

> <Gold.PLP.Chemscore.Hbond>
4.0000

> <Gold.PLP.Chemscore.CHOScore>
0.9502

> <Gold.PLP.Chemscore.Metal>
0.0000

> <Gold.Chemscore.Hbonds>
donor molecule, donor type, donor heavy atom, donor atom, acceptor molecule, acceptor atom, score
      L1  H     3    20       P1 10175  1.00
      L1  H    10    25       P1 10175  1.00
      L1  H    14    40       P1  7948  2.00
      L1  C     8    24       P1 11000  0.95

> <Gold.PLP.Chemscore.Internal.Correction>
0.0093

> <Gold.Rescore>
     Score         DG    S(hbond)    S(metal)    S(lipo)     H(rot)  DE(clash)    DE(int)     intcor
     16.94     -19.11       2.92        0.00      55.01       1.00       0.07       2.10       ----

> <Gold.Chemscore.Fitness>
16.9360

> <Gold.Chemscore.DG>
-19.1092

> <Gold.Chemscore.ZeroCoef>
-5.4800

> <Gold.Chemscore.Hbond>
2.9200

> <Gold.Chemscore.Metal>
0.0000

> <Gold.Chemscore.Lipo>
55.0114

> <Gold.Chemscore.Internal_Hbond>
0.0000

> <Gold.Chemscore.DEClash>
0.0727

> <Gold.Chemscore.DEInternal>
2.1005

> <Gold.Chemscore.Rot>
1.0000

> <Gold.Chemscore.Internal.Correction>
   9.000000E+99

> <Gold.Chemscore.Hbonds>
donor molecule, donor type, donor heavy atom, donor atom, acceptor molecule, acceptor atom, score
      L1  H     3    20       P1 10175  0.92
      L1  H    10    25       P1 10175  0.95
      L1  H    14    40       P1  7948  0.93

> <Gold.Chemscore.Hbond.Weighted>
-9.7528

> <Gold.Chemscore.Metal.Weighted>
-0.0000

> <Gold.Chemscore.Lipo.Weighted>
-6.4363

> <Gold.Chemscore.Internal_Hbond.Weighted>
0.0000

> <Gold.Chemscore.DEClash.Weighted>
0.0727

> <Gold.Chemscore.DEInternal.Weighted>
2.1005

> <Gold.Chemscore.Rot.Weighted>
2.5600

> <Gold.Chemscore.Internal.Correction.Weighted>
   9.000000E+99

> <Gold.Protein.RotatedTorsions>
[ 6907 6896 6895 6894 ] final  162.22 input  -60.11 | X-H torsion
[ 7974 7965 7964 7962 ] final  128.34 input  175.53 | X-H torsion
[ 8008 7997 7996 7995 ] final  103.32 input   59.86 | X-H torsion
[ 10167 10162 10161 10158 ] final   31.77 input  -65.29 | X-H torsion
[ 10718 10713 10712 10709 ] final  122.77 input   66.30 | X-H torsion
[ 10763 10752 10751 10750 ] final  140.66 input  -60.55 | X-H torsion
[ 11005 11000 10999 10996 ] final  -60.12 input  -57.11 | X-H torsion

> <Gold.Protein.ActiveResidues>
 VAL166  LYS551  ARG553  GLY616  TRP617  ASP618  TYR619  PRO620  LYS621  CYS622 
 ASP623  PHE694  ASN695  SER759  ASP760  ASP761  ALA762  ILE779  LEU786  VAL792 
 PHE793  MET794  SER795  GLU796  ALA797  LYS798  CYS799  TRP800  GLU811  SER814 

> <Gold.Protein.RotatedAtoms>
  151.9437  133.3645  159.3974 H   0  0  0  0  0  0  0  0  0  0  0  0  # atno 6907 bound_to 6896
  150.6993  134.4412  159.5302 H   0  0  0  0  0  0  0  0  0  0  0  0  # atno 6908 bound_to 6896
  152.2074  134.8533  160.0552 H   0  0  0  0  0  0  0  0  0  0  0  0  # atno 6909 bound_to 6896
  145.0406  139.3967  143.5104 H   0  0  0  0  0  0  0  0  0  0  0  0  # atno 7974 bound_to 7965
  156.1473  140.3167  155.8591 H   0  0  0  0  0  0  0  0  0  0  0  0  # atno 8008 bound_to 7997
  155.4039  140.0501  157.3052 H   0  0  0  0  0  0  0  0  0  0  0  0  # atno 8009 bound_to 7997
  154.5027  140.2135  155.9325 H   0  0  0  0  0  0  0  0  0  0  0  0  # atno 8010 bound_to 7997
  140.4559  144.0979  150.6201 H   0  0  0  0  0  0  0  0  0  0  0  0  # atno 10167 bound_to 10162
  157.5717  131.1082  150.8355 H   0  0  0  0  0  0  0  0  0  0  0  0  # atno 10718 bound_to 10713
  153.9264  135.2995  155.3446 H   0  0  0  0  0  0  0  0  0  0  0  0  # atno 10763 bound_to 10752
  154.7549  135.4962  153.9360 H   0  0  0  0  0  0  0  0  0  0  0  0  # atno 10764 bound_to 10752
  153.1115  135.6760  153.9597 H   0  0  0  0  0  0  0  0  0  0  0  0  # atno 10765 bound_to 10752
  141.1275  133.6620  156.5175 H   0  0  0  0  0  0  0  0  0  0  0  0  # atno 11005 bound_to 11000
  146.3509  140.0004  142.8676 LP  0  0  0  0  0  0  0  0  0  0  0  0  # atno 17320 bound_to 7965
  145.1653  140.9693  143.4353 LP  0  0  0  0  0  0  0  0  0  0  0  0  # atno 17321 bound_to 7965
  140.4152  143.2638  151.9784 LP  0  0  0  0  0  0  0  0  0  0  0  0  # atno 17342 bound_to 10162
  139.4801  144.5880  151.7820 LP  0  0  0  0  0  0  0  0  0  0  0  0  # atno 17343 bound_to 10162
  156.8825  130.5184  149.5290 LP  0  0  0  0  0  0  0  0  0  0  0  0  # atno 17370 bound_to 10713
  156.0762  130.5784  150.9478 LP  0  0  0  0  0  0  0  0  0  0  0  0  # atno 17371 bound_to 10713
  140.4319  134.7094  157.4946 LP  0  0  0  0  0  0  0  0  0  0  0  0  # atno 17394 bound_to 11000
  140.0288  134.6437  155.9135 LP  0  0  0  0  0  0  0  0  0  0  0  0  # atno 17395 bound_to 11000

$$$$
