AV-unprocessed.smi:1059|AV-procd|sdf|4655|dock2
  -GOLD-   22720 3163D 1   1.00000     0.00000
 Structure written by MMmdl.
 54 55  0  0  0  0  0  0  0  0  1 V2000
  134.4181  143.0803  150.3397 C   0  0  0  0  0  0  0  0  0  0  0  0
  135.8905  143.1011  149.9006 C   0  0  0  0  0  0  0  0  0  0  0  0
  135.9824  143.1298  148.3631 C   0  0  0  0  0  0  0  0  0  0  0  0
  136.6603  141.9104  150.5238 C   0  0  0  0  0  0  0  0  0  0  0  0
  137.2966  142.1738  151.9033 C   0  0  0  0  0  0  0  0  0  0  0  0
  137.4550  143.3365  152.2789 O   0  0  0  0  0  0  0  0  0  0  0  0
  137.6595  141.1166  152.6712 N   0  0  0  0  0  0  0  0  0  0  0  0
  137.4895  139.7252  152.2344 C   0  0  0  0  0  0  0  0  0  0  0  0
  138.8721  139.1273  151.9185 C   0  0  0  0  0  0  0  0  0  0  0  0
  139.8235  139.2382  153.1288 C   0  0  0  0  0  0  0  0  0  0  0  0
  141.1673  138.8289  152.7310 N   0  0  0  0  0  0  0  0  0  0  0  0
  141.5761  137.5630  152.5632 C   0  0  0  0  0  0  0  0  0  0  0  0
  140.8514  136.5846  152.7444 O   0  0  0  0  0  0  0  0  0  0  0  0
  142.8557  137.5168  152.1550 N   0  0  0  0  0  0  0  0  0  0  0  0
  143.6533  136.3716  151.8891 C   0  0  0  0  0  0  0  0  0  0  0  0
  143.0144  135.1169  151.8256 C   0  0  0  0  0  0  0  0  0  0  0  0
  143.7800  133.9697  151.5441 C   0  0  0  0  0  0  0  0  0  0  0  0
  145.1642  134.1172  151.3209 C   0  0  0  0  0  0  0  0  0  0  0  0
  145.9362  132.9812  151.0401 N   0  0  0  0  0  0  0  0  0  0  0  0
  145.9461  132.0134  152.1269 C   0  0  0  0  0  0  0  0  0  0  0  0
  145.6896  132.4455  149.7099 C   0  0  0  0  0  0  0  0  0  0  0  0
  145.7856  135.3194  151.3639 N   0  0  0  0  0  0  0  0  0  0  0  0
  145.0464  136.4157  151.6388 C   0  0  0  0  0  0  0  0  0  0  0  0
  139.8321  140.6727  153.7063 C   0  0  0  0  0  0  0  0  0  0  0  0
  138.4015  141.1918  153.9370 C   0  0  0  0  0  0  0  0  0  0  0  0
  133.9151  142.1748  149.9982 H   0  0  0  0  0  0  0  0  0  0  0  0
  133.8750  143.9354  149.9356 H   0  0  0  0  0  0  0  0  0  0  0  0
  134.3289  143.1211  151.4257 H   0  0  0  0  0  0  0  0  0  0  0  0
  136.3189  144.0301  150.2799 H   0  0  0  0  0  0  0  0  0  0  0  0
  135.5647  142.2226  147.9260 H   0  0  0  0  0  0  0  0  0  0  0  0
  137.0109  143.2212  148.0152 H   0  0  0  0  0  0  0  0  0  0  0  0
  135.4298  143.9764  147.9549 H   0  0  0  0  0  0  0  0  0  0  0  0
  135.9787  141.0670  150.6414 H   0  0  0  0  0  0  0  0  0  0  0  0
  137.4358  141.5976  149.8236 H   0  0  0  0  0  0  0  0  0  0  0  0
  137.0053  139.1537  153.0279 H   0  0  0  0  0  0  0  0  0  0  0  0
  136.8376  139.6304  151.3650 H   0  0  0  0  0  0  0  0  0  0  0  0
  138.7662  138.0839  151.6194 H   0  0  0  0  0  0  0  0  0  0  0  0
  139.2984  139.6528  151.0623 H   0  0  0  0  0  0  0  0  0  0  0  0
  139.4588  138.5574  153.9006 H   0  0  0  0  0  0  0  0  0  0  0  0
  141.8325  139.5685  152.5585 H   0  0  0  0  0  0  0  0  0  0  0  0
  143.2927  138.4049  151.9575 H   0  0  0  0  0  0  0  0  0  0  0  0
  141.9512  135.0300  151.9957 H   0  0  0  0  0  0  0  0  0  0  0  0
  143.3121  132.9970  151.4991 H   0  0  0  0  0  0  0  0  0  0  0  0
  146.1632  132.5007  153.0782 H   0  0  0  0  0  0  0  0  0  0  0  0
  146.7139  131.2593  151.9524 H   0  0  0  0  0  0  0  0  0  0  0  0
  144.9832  131.5077  152.2092 H   0  0  0  0  0  0  0  0  0  0  0  0
  145.7165  133.2373  148.9603 H   0  0  0  0  0  0  0  0  0  0  0  0
  144.7160  131.9566  149.6609 H   0  0  0  0  0  0  0  0  0  0  0  0
  146.4533  131.7118  149.4517 H   0  0  0  0  0  0  0  0  0  0  0  0
  145.5954  137.3444  151.6319 H   0  0  0  0  0  0  0  0  0  0  0  0
  140.3891  140.6994  154.6437 H   0  0  0  0  0  0  0  0  0  0  0  0
  140.3495  141.3453  153.0203 H   0  0  0  0  0  0  0  0  0  0  0  0
  138.4425  142.1902  154.3680 H   0  0  0  0  0  0  0  0  0  0  0  0
  137.8982  140.5756  154.6835 H   0  0  0  0  0  0  0  0  0  0  0  0
  1  2  1  0  0  0  0
  1 26  1  0  0  0  0
  1 27  1  0  0  0  0
  1 28  1  0  0  0  0
  2  3  1  0  0  0  0
  2  4  1  0  0  0  0
  2 29  1  0  0  0  0
  3 30  1  0  0  0  0
  3 31  1  0  0  0  0
  3 32  1  0  0  0  0
  4  5  1  0  0  0  0
  4 33  1  0  0  0  0
  4 34  1  0  0  0  0
  5  6  2  0  0  0  0
  5  7  1  0  0  0  0
  7 25  1  0  0  0  0
  7  8  1  0  0  0  0
  8  9  1  0  0  0  0
  8 35  1  0  0  0  0
  8 36  1  0  0  0  0
  9 10  1  0  0  0  0
  9 37  1  0  0  0  0
  9 38  1  0  0  0  0
 10 11  1  0  0  0  0
 10 24  1  0  0  0  0
 10 39  1  0  0  0  0
 11 12  1  0  0  0  0
 11 40  1  0  0  0  0
 12 13  2  0  0  0  0
 12 14  1  0  0  0  0
 14 15  1  0  0  0  0
 14 41  1  0  0  0  0
 15 23  1  0  0  0  0
 15 16  2  0  0  0  0
 16 17  1  0  0  0  0
 16 42  1  0  0  0  0
 17 18  2  0  0  0  0
 17 43  1  0  0  0  0
 18 19  1  0  0  0  0
 18 22  1  0  0  0  0
 19 20  1  0  0  0  0
 19 21  1  0  0  0  0
 20 44  1  0  0  0  0
 20 45  1  0  0  0  0
 20 46  1  0  0  0  0
 21 47  1  0  0  0  0
 21 48  1  0  0  0  0
 21 49  1  0  0  0  0
 22 23  2  0  0  0  0
 23 50  1  0  0  0  0
 24 25  1  0  0  0  0
 24 51  1  0  0  0  0
 24 52  1  0  0  0  0
 25 53  1  0  0  0  0
 25 54  1  0  0  0  0
M  END
> <s_m_source_file>
AV-unprocessed.smi

> <i_m_source_file_index>
1059

> <i_lp_mmshare_version>
43012

> <i_f3d_flags>
0

> <s_epik_input>
W0NIM11bQ0hdKFtDSDNdKVtDSDJdQyg9TylOMVtDSDJdW0NIMl1bQ0hdKFtDSDJdW0NIMl0xKVtOSF1DKD1PKVtOSF1jMltjSF1bY0hdYyhOKFtDSDNdKVtDSDNdKW5bY0hdMg==

> <s_epik_cmdline>
J2VwaWtfcHl0aG9uJywgJy1waCcsICc3LjAnLCAnLXRuJywgJzgnLCAnLW1hJywgJzIwMCcsICctbWV0YWxfYmluZGluZycsICctaW1hZScsICc8aW5maWxlLm1hZT4nLCAnLW9tYWUnLCAnPG91dGZpbGUubWFlPic=

> <r_lp_tautomer_probability>
1

> <r_epik_Ionization_Penalty>
0.622059

> <r_epik_Ionization_Penalty_Charging>
0

> <r_epik_Ionization_Penalty_Neutral>
0.622059

> <r_epik_State_Penalty>
0.637048

> <r_epik_Charging_Adjusted_Penalty>
0.637048

> <i_epik_Tot_Q>
0

> <i_epik_Tot_abs_Q>
0

> <r_epik_Metal_State_Penalty>
0.306613

> <b_epik_Metal_Only>
0

> <s_lp_Force_Field>
OPLS_2005

> <r_lp_Energy>
31.4899

> <b_lp_Chiralities_Consistent>
1

> <s_lp_Variant>
AV-unprocessed.smi:1059-2

> <Gold.Version>
5.8.1

> <Gold.Id.Protein>
6NUR|6NUR_protein|mol2

> <Gold.PLP.Fitness>
43.2368

> <Gold.PLP.PLP>
-37.8325

> <Gold.PLP.part.hbond>
-3.0000

> <Gold.PLP.part.metal>
0.0000

> <Gold.PLP.part.buried>
-5.3354

> <Gold.PLP.part.nonpolar>
-30.7366

> <Gold.PLP.part.repulsive>
0.5073

> <Gold.PLP.ligand.clash>
0.0000

> <Gold.PLP.ligand.torsion>
1.0629

> <Gold.PLP.Chemscore.Hbond>
1.9516

> <Gold.PLP.Chemscore.CHOScore>
0.4670

> <Gold.PLP.Chemscore.Metal>
0.0000

> <Gold.Chemscore.Hbonds>
donor molecule, donor type, donor heavy atom, donor atom, acceptor molecule, acceptor atom, score
      L1  H    11    40       P1 10175  1.00
      L1  H    14    41       P1 10175  0.81
      L1  C    23    50       P1 10171  0.10

> <Gold.PLP.Chemscore.Internal.Correction>
0.2744

> <Gold.Rescore>
     Score         DG    S(hbond)    S(metal)    S(lipo)     H(rot)  DE(clash)    DE(int)     intcor
     15.76     -19.20       1.79        0.00      99.35       1.52       0.59       2.85       ----

> <Gold.Chemscore.Fitness>
15.7597

> <Gold.Chemscore.DG>
-19.1981

> <Gold.Chemscore.ZeroCoef>
-5.4800

> <Gold.Chemscore.Hbond>
1.7947

> <Gold.Chemscore.Metal>
0.0000

> <Gold.Chemscore.Lipo>
99.3486

> <Gold.Chemscore.Internal_Hbond>
0.0000

> <Gold.Chemscore.DEClash>
0.5897

> <Gold.Chemscore.DEInternal>
2.8486

> <Gold.Chemscore.Rot>
1.5235

> <Gold.Chemscore.Internal.Correction>
   9.000000E+99

> <Gold.Chemscore.Hbonds>
donor molecule, donor type, donor heavy atom, donor atom, acceptor molecule, acceptor atom, score
      L1  H    11    40       P1 10175  0.25
      L1  H    14    41       P1 10175  0.76

> <Gold.Chemscore.Hbond.Weighted>
-5.9944

> <Gold.Chemscore.Metal.Weighted>
-0.0000

> <Gold.Chemscore.Lipo.Weighted>
-11.6238

> <Gold.Chemscore.Internal_Hbond.Weighted>
0.0000

> <Gold.Chemscore.DEClash.Weighted>
0.5897

> <Gold.Chemscore.DEInternal.Weighted>
2.8486

> <Gold.Chemscore.Rot.Weighted>
3.9001

> <Gold.Chemscore.Internal.Correction.Weighted>
   9.000000E+99

> <Gold.Protein.RotatedTorsions>
[ 6907 6896 6895 6894 ] final   11.08 input  -60.11 | X-H torsion
[ 7974 7965 7964 7962 ] final -126.06 input  175.53 | X-H torsion
[ 8008 7997 7996 7995 ] final  -67.10 input   59.86 | X-H torsion
[ 10167 10162 10161 10158 ] final  140.15 input  -65.29 | X-H torsion
[ 10718 10713 10712 10709 ] final  -28.54 input   66.30 | X-H torsion
[ 10763 10752 10751 10750 ] final  126.32 input  -60.55 | X-H torsion
[ 11005 11000 10999 10996 ] final  164.91 input  -57.11 | X-H torsion

> <Gold.Protein.ActiveResidues>
 VAL166  LYS551  ARG553  GLY616  TRP617  ASP618  TYR619  PRO620  LYS621  CYS622 
 ASP623  PHE694  ASN695  SER759  ASP760  ASP761  ALA762  ILE779  LEU786  VAL792 
 PHE793  MET794  SER795  GLU796  ALA797  LYS798  CYS799  TRP800  GLU811  SER814 

> <Gold.Protein.RotatedAtoms>
  151.7486  135.0838  160.0327 H   0  0  0  0  0  0  0  0  0  0  0  0  # atno 6907 bound_to 6896
  152.3431  133.6086  159.5899 H   0  0  0  0  0  0  0  0  0  0  0  0  # atno 6908 bound_to 6896
  150.7492  133.9607  159.3556 H   0  0  0  0  0  0  0  0  0  0  0  0  # atno 6909 bound_to 6896
  144.9912  140.7733  143.4553 H   0  0  0  0  0  0  0  0  0  0  0  0  # atno 7974 bound_to 7965
  154.4777  140.0899  156.7303 H   0  0  0  0  0  0  0  0  0  0  0  0  # atno 8008 bound_to 7997
  155.4552  140.3459  155.4287 H   0  0  0  0  0  0  0  0  0  0  0  0  # atno 8009 bound_to 7997
  156.1143  140.1456  156.9283 H   0  0  0  0  0  0  0  0  0  0  0  0  # atno 8010 bound_to 7997
  139.5057  144.6252  151.5955 H   0  0  0  0  0  0  0  0  0  0  0  0  # atno 10167 bound_to 10162
  156.4239  130.4432  149.7164 H   0  0  0  0  0  0  0  0  0  0  0  0  # atno 10718 bound_to 10713
  153.6914  135.3298  155.3203 H   0  0  0  0  0  0  0  0  0  0  0  0  # atno 10763 bound_to 10752
  154.8439  135.4432  154.1504 H   0  0  0  0  0  0  0  0  0  0  0  0  # atno 10764 bound_to 10752
  153.2547  135.6985  153.7720 H   0  0  0  0  0  0  0  0  0  0  0  0  # atno 10765 bound_to 10752
  140.2507  134.7979  157.3499 H   0  0  0  0  0  0  0  0  0  0  0  0  # atno 11005 bound_to 11000
  145.2283  139.2126  143.5056 LP  0  0  0  0  0  0  0  0  0  0  0  0  # atno 17320 bound_to 7965
  146.3431  140.2155  142.8590 LP  0  0  0  0  0  0  0  0  0  0  0  0  # atno 17321 bound_to 7965
  140.5966  143.9684  150.6359 LP  0  0  0  0  0  0  0  0  0  0  0  0  # atno 17342 bound_to 10162
  140.2882  143.3342  152.1087 LP  0  0  0  0  0  0  0  0  0  0  0  0  # atno 17343 bound_to 10162
  156.4094  130.7714  151.2727 LP  0  0  0  0  0  0  0  0  0  0  0  0  # atno 17370 bound_to 10713
  157.7508  131.0216  150.3756 LP  0  0  0  0  0  0  0  0  0  0  0  0  # atno 17371 bound_to 10713
  140.1561  134.4788  155.7927 LP  0  0  0  0  0  0  0  0  0  0  0  0  # atno 17394 bound_to 11000
  141.2201  133.6882  156.7462 LP  0  0  0  0  0  0  0  0  0  0  0  0  # atno 17395 bound_to 11000

$$$$
