AV-unprocessed.smi:825|AV-procd|sdf|3851|dock5
  -GOLD-   22720 1303D 1   1.00000     0.00000
 Structure written by MMmdl.
 38 39  0  0  0  0  0  0  0  0  1 V2000
  149.3855  142.2354  157.4243 O   0  0  0  0  0  0  0  0  0  0  0  0
  150.5337  142.1488  156.9895 C   0  0  0  0  0  0  0  0  0  0  0  0
  151.5800  142.8067  157.5081 N   0  0  0  0  0  0  0  0  0  0  0  0
  151.5320  143.7220  158.6440 C   0  0  0  0  0  0  0  0  0  0  0  0
  151.8478  142.9878  159.9580 C   0  0  0  0  0  0  0  0  0  0  0  0
  151.9712  143.8998  161.1850 C   0  0  0  0  0  0  0  0  0  0  0  0
  152.8309  143.1247  162.1936 C   0  0  0  0  0  0  0  0  0  0  0  0
  153.4938  141.9802  161.4126 C   0  0  0  0  0  0  0  0  0  0  0  0
  153.1831  142.2432  159.9377 C   0  0  0  0  0  0  0  0  0  0  0  0
  150.9060  141.3935  155.9437 N   0  0  0  0  0  0  0  0  0  0  0  0
  150.0849  140.5352  155.1706 C   0  0  0  0  0  0  0  0  0  0  0  0
  150.4424  139.3821  154.4160 C   0  0  0  0  0  0  0  0  0  0  0  0
  149.3820  138.8564  153.8211 N   0  0  0  0  0  0  0  0  0  0  0  0
  148.3446  139.6518  154.1812 N   0  0  0  0  0  0  0  0  0  0  0  0
  147.0133  139.3609  153.6861 C   0  0  0  0  0  0  0  0  0  0  0  0
  146.9896  139.2743  152.1538 C   0  0  0  0  0  0  0  0  0  0  0  0
  145.6570  139.1822  151.6984 O   0  0  0  0  0  0  0  0  0  0  0  0
  148.7410  140.6862  155.0052 C   0  0  0  0  0  0  0  0  0  0  0  0
  152.4837  142.6686  157.0798 H   0  0  0  0  0  0  0  0  0  0  0  0
  152.2288  144.5520  158.5177 H   0  0  0  0  0  0  0  0  0  0  0  0
  150.5351  144.1616  158.6865 H   0  0  0  0  0  0  0  0  0  0  0  0
  151.0598  142.2577  160.1527 H   0  0  0  0  0  0  0  0  0  0  0  0
  152.4836  144.8231  160.9110 H   0  0  0  0  0  0  0  0  0  0  0  0
  150.9994  144.1746  161.5963 H   0  0  0  0  0  0  0  0  0  0  0  0
  153.5754  143.7797  162.6472 H   0  0  0  0  0  0  0  0  0  0  0  0
  152.2166  142.7233  163.0003 H   0  0  0  0  0  0  0  0  0  0  0  0
  154.5662  141.9164  161.5996 H   0  0  0  0  0  0  0  0  0  0  0  0
  153.0525  141.0298  161.7156 H   0  0  0  0  0  0  0  0  0  0  0  0
  153.1426  141.3257  159.3498 H   0  0  0  0  0  0  0  0  0  0  0  0
  153.9593  142.8786  159.5086 H   0  0  0  0  0  0  0  0  0  0  0  0
  151.8800  141.4264  155.6808 H   0  0  0  0  0  0  0  0  0  0  0  0
  151.4058  138.9158  154.2731 H   0  0  0  0  0  0  0  0  0  0  0  0
  146.6706  138.4248  154.1297 H   0  0  0  0  0  0  0  0  0  0  0  0
  146.3365  140.1429  154.0334 H   0  0  0  0  0  0  0  0  0  0  0  0
  147.4558  140.1555  151.7119 H   0  0  0  0  0  0  0  0  0  0  0  0
  147.5451  138.4022  151.8070 H   0  0  0  0  0  0  0  0  0  0  0  0
  145.1746  139.9249  152.0284 H   0  0  0  0  0  0  0  0  0  0  0  0
  148.0491  141.4216  155.3884 H   0  0  0  0  0  0  0  0  0  0  0  0
  1  2  2  0  0  0  0
  2  3  1  0  0  0  0
  2 10  1  0  0  0  0
  3  4  1  0  0  0  0
  3 19  1  0  0  0  0
  4  5  1  0  0  0  0
  4 20  1  0  0  0  0
  4 21  1  0  0  0  0
  5  9  1  0  0  0  0
  5  6  1  0  0  0  0
  5 22  1  0  0  0  0
  6  7  1  0  0  0  0
  6 23  1  0  0  0  0
  6 24  1  0  0  0  0
  7  8  1  0  0  0  0
  7 25  1  0  0  0  0
  7 26  1  0  0  0  0
  8  9  1  0  0  0  0
  8 27  1  0  0  0  0
  8 28  1  0  0  0  0
  9 29  1  0  0  0  0
  9 30  1  0  0  0  0
 10 11  1  0  0  0  0
 10 31  1  0  0  0  0
 11 18  2  0  0  0  0
 11 12  1  0  0  0  0
 12 13  2  0  0  0  0
 12 32  1  0  0  0  0
 13 14  1  0  0  0  0
 14 15  1  0  0  0  0
 14 18  1  0  0  0  0
 15 16  1  0  0  0  0
 15 33  1  0  0  0  0
 15 34  1  0  0  0  0
 16 17  1  0  0  0  0
 16 35  1  0  0  0  0
 16 36  1  0  0  0  0
 17 37  1  0  0  0  0
 18 38  1  0  0  0  0
M  END
> <s_m_source_file>
AV-unprocessed.smi

> <i_m_source_file_index>
825

> <i_lp_mmshare_version>
43012

> <i_f3d_flags>
0

> <s_epik_input>
W0NIMl0xW0NIMl1bQ0gyXVtDSDJdW0NIXTFbQ0gyXVtOSF1DKD1PKVtOSF1jMltjSF1ubihbY0hdMilbQ0gyXVtDSDJdW09IXQ==

> <s_epik_cmdline>
J2VwaWtfcHl0aG9uJywgJy1waCcsICc3LjAnLCAnLXRuJywgJzgnLCAnLW1hJywgJzIwMCcsICctbWV0YWxfYmluZGluZycsICctaW1hZScsICc8aW5maWxlLm1hZT4nLCAnLW9tYWUnLCAnPG91dGZpbGUubWFlPic=

> <r_lp_tautomer_probability>
1

> <r_epik_Ionization_Penalty>
0.000577844

> <r_epik_Ionization_Penalty_Charging>
0

> <r_epik_Ionization_Penalty_Neutral>
0.000577844

> <r_epik_State_Penalty>
-0

> <r_epik_Charging_Adjusted_Penalty>
0

> <i_epik_Tot_Q>
0

> <i_epik_Tot_abs_Q>
0

> <r_epik_Metal_State_Penalty>
-0

> <b_epik_Metal_Only>
0

> <s_lp_Force_Field>
OPLS_2005

> <r_lp_Energy>
26.6731

> <b_lp_Chiralities_Consistent>
1

> <s_lp_Variant>
AV-unprocessed.smi:825-1

> <Gold.Version>
5.8.1

> <Gold.Id.Protein>
6NUR|6NUR_protein|mol2

> <Gold.PLP.Fitness>
41.5625

> <Gold.PLP.PLP>
-39.3177

> <Gold.PLP.part.hbond>
-2.0000

> <Gold.PLP.part.metal>
0.0000

> <Gold.PLP.part.buried>
-1.9905

> <Gold.PLP.part.nonpolar>
-35.9699

> <Gold.PLP.part.repulsive>
1.1641

> <Gold.PLP.ligand.clash>
0.0000

> <Gold.PLP.ligand.torsion>
0.3834

> <Gold.PLP.Chemscore.Hbond>
1.0000

> <Gold.PLP.Chemscore.CHOScore>
0.0000

> <Gold.PLP.Chemscore.Metal>
0.0000

> <Gold.Chemscore.Hbonds>
donor molecule, donor type, donor heavy atom, donor atom, acceptor molecule, acceptor atom, score
      L1  H    17    37       P1 10175  0.90

> <Gold.PLP.Chemscore.Internal.Correction>
0.0117

> <Gold.Rescore>
     Score         DG    S(hbond)    S(metal)    S(lipo)     H(rot)  DE(clash)    DE(int)     intcor
     12.84     -14.55       0.98        0.00     100.05       2.31       0.15       1.57       ----

> <Gold.Chemscore.Fitness>
12.8377

> <Gold.Chemscore.DG>
-14.5529

> <Gold.Chemscore.ZeroCoef>
-5.4800

> <Gold.Chemscore.Hbond>
0.9819

> <Gold.Chemscore.Metal>
0.0000

> <Gold.Chemscore.Lipo>
100.0534

> <Gold.Chemscore.Internal_Hbond>
0.0000

> <Gold.Chemscore.DEClash>
0.1473

> <Gold.Chemscore.DEInternal>
1.5679

> <Gold.Chemscore.Rot>
2.3097

> <Gold.Chemscore.Internal.Correction>
   9.000000E+99

> <Gold.Chemscore.Hbonds>
donor molecule, donor type, donor heavy atom, donor atom, acceptor molecule, acceptor atom, score
      L1  H    17    37       P1 10175  0.65

> <Gold.Chemscore.Hbond.Weighted>
-3.2794

> <Gold.Chemscore.Metal.Weighted>
-0.0000

> <Gold.Chemscore.Lipo.Weighted>
-11.7062

> <Gold.Chemscore.Internal_Hbond.Weighted>
0.0000

> <Gold.Chemscore.DEClash.Weighted>
0.1473

> <Gold.Chemscore.DEInternal.Weighted>
1.5679

> <Gold.Chemscore.Rot.Weighted>
5.9128

> <Gold.Chemscore.Internal.Correction.Weighted>
   9.000000E+99

> <Gold.Protein.RotatedTorsions>
[ 6907 6896 6895 6894 ] final  137.27 input  -60.11 | X-H torsion
[ 7974 7965 7964 7962 ] final -157.23 input  175.53 | X-H torsion
[ 8008 7997 7996 7995 ] final  171.06 input   59.86 | X-H torsion
[ 10167 10162 10161 10158 ] final -100.67 input  -65.29 | X-H torsion
[ 10718 10713 10712 10709 ] final   11.13 input   66.30 | X-H torsion
[ 10763 10752 10751 10750 ] final  -46.09 input  -60.55 | X-H torsion
[ 11005 11000 10999 10996 ] final  138.48 input  -57.11 | X-H torsion

> <Gold.Protein.ActiveResidues>
 VAL166  LYS551  ARG553  GLY616  TRP617  ASP618  TYR619  PRO620  LYS621  CYS622 
 ASP623  PHE694  ASN695  SER759  ASP760  ASP761  ALA762  ILE779  LEU786  VAL792 
 PHE793  MET794  SER795  GLU796  ALA797  LYS798  CYS799  TRP800  GLU811  SER814 

> <Gold.Protein.RotatedAtoms>
  152.2800  133.5461  159.5491 H   0  0  0  0  0  0  0  0  0  0  0  0  # atno 6907 bound_to 6896
  150.7192  134.0577  159.3829 H   0  0  0  0  0  0  0  0  0  0  0  0  # atno 6908 bound_to 6896
  151.8488  135.0565  160.0507 H   0  0  0  0  0  0  0  0  0  0  0  0  # atno 6909 bound_to 6896
  144.7557  140.3998  143.6014 H   0  0  0  0  0  0  0  0  0  0  0  0  # atno 7974 bound_to 7965
  156.1307  140.1521  156.9070 H   0  0  0  0  0  0  0  0  0  0  0  0  # atno 8008 bound_to 7997
  154.4907  140.0852  156.7627 H   0  0  0  0  0  0  0  0  0  0  0  0  # atno 8009 bound_to 7997
  155.4262  140.3425  155.4278 H   0  0  0  0  0  0  0  0  0  0  0  0  # atno 8010 bound_to 7997
  140.2494  143.3483  152.0729 H   0  0  0  0  0  0  0  0  0  0  0  0  # atno 10167 bound_to 10162
  156.9911  130.6043  149.5686 H   0  0  0  0  0  0  0  0  0  0  0  0  # atno 10718 bound_to 10713
  154.0393  135.6646  153.4788 H   0  0  0  0  0  0  0  0  0  0  0  0  # atno 10763 bound_to 10752
  153.0508  135.5085  154.7858 H   0  0  0  0  0  0  0  0  0  0  0  0  # atno 10764 bound_to 10752
  154.6829  135.3048  154.9554 H   0  0  0  0  0  0  0  0  0  0  0  0  # atno 10765 bound_to 10752
  140.0187  134.9407  157.0429 H   0  0  0  0  0  0  0  0  0  0  0  0  # atno 11005 bound_to 11000
  145.6787  139.1614  143.2713 LP  0  0  0  0  0  0  0  0  0  0  0  0  # atno 17320 bound_to 7965
  146.1564  140.6851  142.9298 LP  0  0  0  0  0  0  0  0  0  0  0  0  # atno 17321 bound_to 7965
  139.5051  144.6788  151.6060 LP  0  0  0  0  0  0  0  0  0  0  0  0  # atno 17342 bound_to 10162
  140.6052  143.9537  150.6414 LP  0  0  0  0  0  0  0  0  0  0  0  0  # atno 17343 bound_to 10162
  156.0207  130.5301  150.8266 LP  0  0  0  0  0  0  0  0  0  0  0  0  # atno 17370 bound_to 10713
  157.5458  131.0942  150.9765 LP  0  0  0  0  0  0  0  0  0  0  0  0  # atno 17371 bound_to 10713
  140.4426  134.1665  155.7175 LP  0  0  0  0  0  0  0  0  0  0  0  0  # atno 17394 bound_to 11000
  141.1759  133.8514  157.1421 LP  0  0  0  0  0  0  0  0  0  0  0  0  # atno 17395 bound_to 11000

$$$$
