AV-unprocessed.smi:606|AV-procd|sdf|3041|dock3
  -GOLD-   2262023563D 1   1.00000     0.00000
 Structure written by MMmdl.
 36 37  0  0  0  0  0  0  0  0  1 V2000
  146.8892  138.9945  152.7151 C   0  0  0  0  0  0  0  0  0  0  0  0
  147.9279  139.6756  153.5386 C   0  0  0  0  0  0  0  0  0  0  0  0
  147.9256  140.8280  154.2732 C   0  0  0  0  0  0  0  0  0  0  0  0
  149.2446  140.8751  154.7983 C   0  0  0  0  0  0  0  0  0  0  0  0
  149.6584  141.9437  155.6343 N   0  0  0  0  0  0  0  0  0  0  0  0
  150.6247  141.9250  156.5684 C   0  0  0  0  0  0  0  0  0  0  0  0
  151.3106  140.9441  156.8584 O   0  0  0  0  0  0  0  0  0  0  0  0
  150.7533  143.1216  157.1618 N   0  0  0  0  0  0  0  0  0  0  0  0
  151.7126  143.4454  158.2161 C   0  0  0  0  0  0  0  0  0  0  0  0
  151.7944  142.2773  159.2244 C   0  0  0  0  0  0  0  0  0  0  0  0
  153.0075  142.3745  160.1648 C   0  0  0  0  0  0  0  0  0  0  0  0
  152.7942  143.2025  161.4443 C   0  0  0  0  0  0  0  0  0  0  0  0
  151.9845  144.5029  161.2976 C   0  0  0  0  0  0  0  0  0  0  0  0
  152.2104  145.2786  159.9900 C   0  0  0  0  0  0  0  0  0  0  0  0
  151.3058  144.7916  158.8446 C   0  0  0  0  0  0  0  0  0  0  0  0
  149.9853  139.8459  154.4166 N   0  0  0  0  0  0  0  0  0  0  0  0
  149.1454  139.0720  153.6073 O   0  0  0  0  0  0  0  0  0  0  0  0
  145.9123  139.4563  152.8595 H   0  0  0  0  0  0  0  0  0  0  0  0
  146.8084  137.9418  152.9869 H   0  0  0  0  0  0  0  0  0  0  0  0
  147.1376  139.0528  151.6553 H   0  0  0  0  0  0  0  0  0  0  0  0
  147.1099  141.5220  154.4111 H   0  0  0  0  0  0  0  0  0  0  0  0
  149.1677  142.8161  155.5055 H   0  0  0  0  0  0  0  0  0  0  0  0
  150.1429  143.8677  156.8622 H   0  0  0  0  0  0  0  0  0  0  0  0
  152.6937  143.5799  157.7563 H   0  0  0  0  0  0  0  0  0  0  0  0
  150.8683  142.1810  159.7925 H   0  0  0  0  0  0  0  0  0  0  0  0
  151.8955  141.3464  158.6645 H   0  0  0  0  0  0  0  0  0  0  0  0
  153.3001  141.3681  160.4662 H   0  0  0  0  0  0  0  0  0  0  0  0
  153.8636  142.7651  159.6134 H   0  0  0  0  0  0  0  0  0  0  0  0
  152.3041  142.5812  162.1946 H   0  0  0  0  0  0  0  0  0  0  0  0
  153.7747  143.4390  161.8588 H   0  0  0  0  0  0  0  0  0  0  0  0
  150.9218  144.2849  161.4096 H   0  0  0  0  0  0  0  0  0  0  0  0
  152.2334  145.1484  162.1406 H   0  0  0  0  0  0  0  0  0  0  0  0
  151.9685  146.3253  160.1771 H   0  0  0  0  0  0  0  0  0  0  0  0
  153.2612  145.2646  159.6986 H   0  0  0  0  0  0  0  0  0  0  0  0
  151.3153  145.5505  158.0611 H   0  0  0  0  0  0  0  0  0  0  0  0
  150.2730  144.7438  159.1930 H   0  0  0  0  0  0  0  0  0  0  0  0
  1  2  1  0  0  0  0
  1 18  1  0  0  0  0
  1 19  1  0  0  0  0
  1 20  1  0  0  0  0
  2 17  1  0  0  0  0
  2  3  2  0  0  0  0
  3  4  1  0  0  0  0
  3 21  1  0  0  0  0
  4  5  1  0  0  0  0
  4 16  2  0  0  0  0
  5  6  1  0  0  0  0
  5 22  1  0  0  0  0
  6  7  2  0  0  0  0
  6  8  1  0  0  0  0
  8  9  1  0  0  0  0
  8 23  1  0  0  0  0
  9 15  1  0  0  0  0
  9 10  1  0  0  0  0
  9 24  1  0  0  0  0
 10 11  1  0  0  0  0
 10 25  1  0  0  0  0
 10 26  1  0  0  0  0
 11 12  1  0  0  0  0
 11 27  1  0  0  0  0
 11 28  1  0  0  0  0
 12 13  1  0  0  0  0
 12 29  1  0  0  0  0
 12 30  1  0  0  0  0
 13 14  1  0  0  0  0
 13 31  1  0  0  0  0
 13 32  1  0  0  0  0
 14 15  1  0  0  0  0
 14 33  1  0  0  0  0
 14 34  1  0  0  0  0
 15 35  1  0  0  0  0
 15 36  1  0  0  0  0
 16 17  1  0  0  0  0
M  END
> <s_m_source_file>
AV-unprocessed.smi

> <i_m_source_file_index>
606

> <i_lp_mmshare_version>
43012

> <i_f3d_flags>
0

> <s_epik_input>
W0NIM11jMVtjSF1jKG5vMSlbTkhdQyg9TylbTkhdW0NIXTJbQ0gyXVtDSDJdW0NIMl1bQ0gyXVtDSDJdW0NIMl0y

> <s_epik_cmdline>
J2VwaWtfcHl0aG9uJywgJy1waCcsICc3LjAnLCAnLXRuJywgJzgnLCAnLW1hJywgJzIwMCcsICctbWV0YWxfYmluZGluZycsICctaW1hZScsICc8aW5maWxlLm1hZT4nLCAnLW9tYWUnLCAnPG91dGZpbGUubWFlPic=

> <r_lp_tautomer_probability>
1

> <r_epik_Ionization_Penalty>
2.39396e-05

> <r_epik_Ionization_Penalty_Charging>
0

> <r_epik_Ionization_Penalty_Neutral>
2.39396e-05

> <r_epik_State_Penalty>
-0

> <r_epik_Charging_Adjusted_Penalty>
0

> <i_epik_Tot_Q>
0

> <i_epik_Tot_abs_Q>
0

> <r_epik_Metal_State_Penalty>
-0

> <b_epik_Metal_Only>
0

> <s_lp_Force_Field>
OPLS_2005

> <r_lp_Energy>
12.5841

> <b_lp_Chiralities_Consistent>
1

> <s_lp_Variant>
AV-unprocessed.smi:606-1

> <Gold.Version>
5.8.1

> <Gold.Id.Protein>
6NUR|6NUR_protein|mol2

> <Gold.PLP.Fitness>
45.3415

> <Gold.PLP.PLP>
-37.0332

> <Gold.PLP.part.hbond>
-3.0000

> <Gold.PLP.part.metal>
0.0000

> <Gold.PLP.part.buried>
-3.7091

> <Gold.PLP.part.nonpolar>
-34.6051

> <Gold.PLP.part.repulsive>
4.3319

> <Gold.PLP.ligand.clash>
0.0000

> <Gold.PLP.ligand.torsion>
0.3527

> <Gold.PLP.Chemscore.Hbond>
3.0000

> <Gold.PLP.Chemscore.CHOScore>
0.0000

> <Gold.PLP.Chemscore.Metal>
0.0000

> <Gold.Chemscore.Hbonds>
donor molecule, donor type, donor heavy atom, donor atom, acceptor molecule, acceptor atom, score
      L1  H     5    22       P1  8028  1.00
      L1  H     8    23       P1  8028  1.00
      P1  H  7989  7998       L1    16  0.73

> <Gold.PLP.Chemscore.Internal.Correction>
0.0138

> <Gold.Rescore>
     Score         DG    S(hbond)    S(metal)    S(lipo)     H(rot)  DE(clash)    DE(int)     intcor
     18.64     -23.56       2.70        0.00      99.46       1.00       2.37       2.56       ----

> <Gold.Chemscore.Fitness>
18.6355

> <Gold.Chemscore.DG>
-23.5613

> <Gold.Chemscore.ZeroCoef>
-5.4800

> <Gold.Chemscore.Hbond>
2.6959

> <Gold.Chemscore.Metal>
0.0000

> <Gold.Chemscore.Lipo>
99.4607

> <Gold.Chemscore.Internal_Hbond>
0.0000

> <Gold.Chemscore.DEClash>
2.3661

> <Gold.Chemscore.DEInternal>
2.5596

> <Gold.Chemscore.Rot>
1.0000

> <Gold.Chemscore.Internal.Correction>
   9.000000E+99

> <Gold.Chemscore.Hbonds>
donor molecule, donor type, donor heavy atom, donor atom, acceptor molecule, acceptor atom, score
      L1  H     5    22       P1  8028  0.98
      L1  H     8    23       P1  8028  0.97
      P1  H  7989  7998       L1    16  0.17

> <Gold.Chemscore.Hbond.Weighted>
-9.0044

> <Gold.Chemscore.Metal.Weighted>
-0.0000

> <Gold.Chemscore.Lipo.Weighted>
-11.6369

> <Gold.Chemscore.Internal_Hbond.Weighted>
0.0000

> <Gold.Chemscore.DEClash.Weighted>
2.3661

> <Gold.Chemscore.DEInternal.Weighted>
2.5596

> <Gold.Chemscore.Rot.Weighted>
2.5600

> <Gold.Chemscore.Internal.Correction.Weighted>
   9.000000E+99

> <Gold.Protein.RotatedTorsions>
[ 6907 6896 6895 6894 ] final   12.55 input  -60.11 | X-H torsion
[ 7974 7965 7964 7962 ] final  147.81 input  175.53 | X-H torsion
[ 8008 7997 7996 7995 ] final -173.00 input   59.86 | X-H torsion
[ 10167 10162 10161 10158 ] final   73.75 input  -65.29 | X-H torsion
[ 10718 10713 10712 10709 ] final  139.31 input   66.30 | X-H torsion
[ 10763 10752 10751 10750 ] final   23.38 input  -60.55 | X-H torsion
[ 11005 11000 10999 10996 ] final  -64.76 input  -57.11 | X-H torsion

> <Gold.Protein.ActiveResidues>
 VAL166  LYS551  ARG553  GLY616  TRP617  ASP618  TYR619  PRO620  LYS621  CYS622 
 ASP623  PHE694  ASN695  SER759  ASP760  ASP761  ALA762  ILE779  LEU786  VAL792 
 PHE793  MET794  SER795  GLU796  ALA797  LYS798  CYS799  TRP800  GLU811  SER814 

> <Gold.Protein.RotatedAtoms>
  151.7722  135.0783  160.0361 H   0  0  0  0  0  0  0  0  0  0  0  0  # atno 6907 bound_to 6896
  152.3281  133.5923  159.5799 H   0  0  0  0  0  0  0  0  0  0  0  0  # atno 6908 bound_to 6896
  150.7407  133.9826  159.3623 H   0  0  0  0  0  0  0  0  0  0  0  0  # atno 6909 bound_to 6896
  144.8562  139.6075  143.5951 H   0  0  0  0  0  0  0  0  0  0  0  0  # atno 7974 bound_to 7965
  155.9518  140.1128  157.0970 H   0  0  0  0  0  0  0  0  0  0  0  0  # atno 8008 bound_to 7997
  154.4111  140.1199  156.5129 H   0  0  0  0  0  0  0  0  0  0  0  0  # atno 8009 bound_to 7997
  155.6833  140.3473  155.4866 H   0  0  0  0  0  0  0  0  0  0  0  0  # atno 8010 bound_to 7997
  140.0211  144.5540  150.7581 H   0  0  0  0  0  0  0  0  0  0  0  0  # atno 10167 bound_to 10162
  157.4157  131.1033  151.0407 H   0  0  0  0  0  0  0  0  0  0  0  0  # atno 10718 bound_to 10713
  153.0842  135.6628  153.9982 H   0  0  0  0  0  0  0  0  0  0  0  0  # atno 10763 bound_to 10752
  153.9596  135.2975  155.3435 H   0  0  0  0  0  0  0  0  0  0  0  0  # atno 10764 bound_to 10752
  154.7248  135.5149  153.8940 H   0  0  0  0  0  0  0  0  0  0  0  0  # atno 10765 bound_to 10752
  141.1434  133.6671  156.5883 H   0  0  0  0  0  0  0  0  0  0  0  0  # atno 11005 bound_to 11000
  146.2825  139.6915  142.9219 LP  0  0  0  0  0  0  0  0  0  0  0  0  # atno 17320 bound_to 7965
  145.4401  141.0422  143.2862 LP  0  0  0  0  0  0  0  0  0  0  0  0  # atno 17321 bound_to 7965
  140.7342  143.2726  151.3841 LP  0  0  0  0  0  0  0  0  0  0  0  0  # atno 17342 bound_to 10162
  139.6139  144.1042  152.2326 LP  0  0  0  0  0  0  0  0  0  0  0  0  # atno 17343 bound_to 10162
  157.1355  130.6120  149.5541 LP  0  0  0  0  0  0  0  0  0  0  0  0  # atno 17370 bound_to 10713
  155.9864  130.4899  150.7079 LP  0  0  0  0  0  0  0  0  0  0  0  0  # atno 17371 bound_to 10713
  140.3783  134.7545  157.4644 LP  0  0  0  0  0  0  0  0  0  0  0  0  # atno 17394 bound_to 11000
  140.0657  134.5933  155.8698 LP  0  0  0  0  0  0  0  0  0  0  0  0  # atno 17395 bound_to 11000

$$$$
