AV-unprocessed.smi:1762|AV-procd|sdf|7123|dock7
  -GOLD-   22720 8353D 1   1.00000     0.00000
 Structure written by MMmdl.
 52 53  0  0  0  0  0  0  0  0  3 V2000
  150.9111  134.3969  156.0042 C   0  0  0  0  0  0  0  0  0  0  0  0
  149.8417  135.1760  155.2306 C   0  0  2  0  0  0  0  0  0  0  0  0
  150.2378  136.6497  155.0194 C   0  0  0  0  0  0  0  0  0  0  0  0
  149.1548  137.4044  154.3301 N   0  3  2  0  0  0  0  0  0  0  0  0
  149.4701  138.8439  154.0370 C   0  0  2  0  0  0  0  0  0  0  0  0
  150.4730  139.4086  155.0731 C   0  0  0  0  0  0  0  0  0  0  0  0
  151.6398  139.6069  154.7161 O   0  0  0  0  0  0  0  0  0  0  0  0
  149.8731  139.6285  156.2746 N   0  5  0  0  0  0  0  0  0  0  0  0
  150.4871  140.3833  157.3655 C   0  0  0  0  0  0  0  0  0  0  0  0
  151.8661  139.7834  157.7265 C   0  0  0  0  0  0  0  0  0  0  0  0
  152.5831  140.4582  158.8946 C   0  0  0  0  0  0  0  0  0  0  0  0
  151.9749  141.5291  159.5885 C   0  0  0  0  0  0  0  0  0  0  0  0
  152.6707  142.1239  160.6580 C   0  0  0  0  0  0  0  0  0  0  0  0
  153.9491  141.6372  160.9895 C   0  0  0  0  0  0  0  0  0  0  0  0
  154.4778  140.5741  160.2311 C   0  0  0  0  0  0  0  0  0  0  0  0
  153.8195  139.9960  159.2040 N   0  0  0  0  0  0  0  0  0  0  0  0
  148.2147  139.7737  153.9066 C   0  0  0  0  0  0  0  0  0  0  0  0
  147.2400  139.3204  152.8024 C   0  0  0  0  0  0  0  0  0  0  0  0
  148.5448  141.2717  153.7385 C   0  0  0  0  0  0  0  0  0  0  0  0
  147.8831  137.2288  155.0894 C   0  0  0  0  0  0  0  0  0  0  0  0
  147.5528  135.7389  155.2861 C   0  0  2  0  0  0  0  0  0  0  0  0
  146.2800  135.5340  156.1153 C   0  0  0  0  0  0  0  0  0  0  0  0
  148.6302  135.1143  155.9704 O   0  0  0  0  0  0  0  0  0  0  0  0
  151.8630  134.4016  155.4727 H   0  0  0  0  0  0  0  0  0  0  0  0
  150.6129  133.3572  156.1407 H   0  0  0  0  0  0  0  0  0  0  0  0
  151.0771  134.8279  156.9917 H   0  0  0  0  0  0  0  0  0  0  0  0
  149.6965  134.6936  154.2623 H   0  0  0  0  0  0  0  0  0  0  0  0
  150.4600  137.1264  155.9755 H   0  0  0  0  0  0  0  0  0  0  0  0
  151.1554  136.6534  154.4346 H   0  0  0  0  0  0  0  0  0  0  0  0
  149.9419  138.8380  153.0510 H   0  0  0  0  0  0  0  0  0  0  0  0
  150.6141  141.4400  157.1250 H   0  0  0  0  0  0  0  0  0  0  0  0
  149.8549  140.3587  158.2536 H   0  0  0  0  0  0  0  0  0  0  0  0
  151.7370  138.7287  157.9730 H   0  0  0  0  0  0  0  0  0  0  0  0
  152.5168  139.8010  156.8511 H   0  0  0  0  0  0  0  0  0  0  0  0
  150.9893  141.8758  159.3145 H   0  0  0  0  0  0  0  0  0  0  0  0
  152.2303  142.9374  161.2150 H   0  0  0  0  0  0  0  0  0  0  0  0
  154.5117  142.0683  161.8041 H   0  0  0  0  0  0  0  0  0  0  0  0
  155.4573  140.1786  160.4549 H   0  0  0  0  0  0  0  0  0  0  0  0
  147.6331  139.6726  154.8217 H   0  0  0  0  0  0  0  0  0  0  0  0
  147.6633  139.4437  151.8048 H   0  0  0  0  0  0  0  0  0  0  0  0
  146.3158  139.8977  152.8350 H   0  0  0  0  0  0  0  0  0  0  0  0
  146.9729  138.2703  152.9236 H   0  0  0  0  0  0  0  0  0  0  0  0
  148.9926  141.4798  152.7669 H   0  0  0  0  0  0  0  0  0  0  0  0
  149.2341  141.6285  154.5031 H   0  0  0  0  0  0  0  0  0  0  0  0
  147.6402  141.8762  153.8104 H   0  0  0  0  0  0  0  0  0  0  0  0
  147.9692  137.7254  156.0575 H   0  0  0  0  0  0  0  0  0  0  0  0
  147.0454  137.6959  154.5719 H   0  0  0  0  0  0  0  0  0  0  0  0
  147.4137  135.2606  154.3148 H   0  0  0  0  0  0  0  0  0  0  0  0
  145.4167  135.9885  155.6287 H   0  0  0  0  0  0  0  0  0  0  0  0
  146.3783  135.9783  157.1063 H   0  0  0  0  0  0  0  0  0  0  0  0
  146.0664  134.4729  156.2458 H   0  0  0  0  0  0  0  0  0  0  0  0
  149.0204  136.9630  153.4316 H   0  0  0  0  0  0  0  0  0  0  0  0
  1  2  1  0  0  0  0
  1 24  1  0  0  0  0
  1 25  1  0  0  0  0
  1 26  1  0  0  0  0
  2 23  1  0  0  0  0
  2  3  1  0  0  0  0
  2 27  1  0  0  0  0
  3  4  1  0  0  0  0
  3 28  1  0  0  0  0
  3 29  1  0  0  0  0
  4  5  1  0  0  0  0
  4 20  1  0  0  0  0
  4 52  1  0  0  0  0
  5  6  1  0  0  0  0
  5 17  1  0  0  0  0
  5 30  1  0  0  0  0
  6  7  2  0  0  0  0
  6  8  1  0  0  0  0
  8  9  1  0  0  0  0
  9 10  1  0  0  0  0
  9 31  1  0  0  0  0
  9 32  1  0  0  0  0
 10 11  1  0  0  0  0
 10 33  1  0  0  0  0
 10 34  1  0  0  0  0
 11 16  1  0  0  0  0
 11 12  2  0  0  0  0
 12 13  1  0  0  0  0
 12 35  1  0  0  0  0
 13 14  2  0  0  0  0
 13 36  1  0  0  0  0
 14 15  1  0  0  0  0
 14 37  1  0  0  0  0
 15 16  2  0  0  0  0
 15 38  1  0  0  0  0
 17 18  1  0  0  0  0
 17 19  1  0  0  0  0
 17 39  1  0  0  0  0
 18 40  1  0  0  0  0
 18 41  1  0  0  0  0
 18 42  1  0  0  0  0
 19 43  1  0  0  0  0
 19 44  1  0  0  0  0
 19 45  1  0  0  0  0
 20 21  1  0  0  0  0
 20 46  1  0  0  0  0
 20 47  1  0  0  0  0
 21 22  1  0  0  0  0
 21 23  1  0  0  0  0
 21 48  1  0  0  0  0
 22 49  1  0  0  0  0
 22 50  1  0  0  0  0
 22 51  1  0  0  0  0
M  CHG  1   4   1
M  CHG  1   8  -1
M  END
> <s_m_source_file>
AV-unprocessed.smi

> <i_m_source_file_index>
1762

> <i_lp_mmshare_version>
43012

> <i_f3d_flags>
0

> <s_epik_input>
W0NIM11bQ0BASF0xW0NIMl1OKFtDSDJdW0NASF0oTzEpW0NIM10pW0NAQEhdKFtDSF0oW0NIM10pW0NIM10pQyg9TylbTkhdW0NIMl1bQ0gyXWMyW2NIXVtjSF1bY0hdW2NIXW4y

> <s_epik_cmdline>
J2VwaWtfcHl0aG9uJywgJy1waCcsICc3LjAnLCAnLXRuJywgJzgnLCAnLW1hJywgJzIwMCcsICctbWV0YWxfYmluZGluZycsICctaW1hZScsICc8aW5maWxlLm1hZT4nLCAnLW9tYWUnLCAnPG91dGZpbGUubWFlPic=

> <r_epik_Ionization_Penalty>
7.82966

> <r_epik_Ionization_Penalty_Charging>
7.7461

> <r_epik_Ionization_Penalty_Neutral>
0.0835571

> <r_epik_State_Penalty>
8.52273

> <r_epik_Charging_Adjusted_Penalty>
16.2688

> <i_epik_Tot_Q>
0

> <i_epik_Tot_abs_Q>
2

> <r_epik_Metal_State_Penalty>
4.47451

> <b_epik_Metal_Only>
1

> <s_lp_Force_Field>
OPLS_2005

> <r_lp_Energy>
21.039

> <b_lp_Chiralities_Consistent>
1

> <s_lp_Variant>
AV-unprocessed.smi:1762-25

> <Gold.Version>
5.8.1

> <Gold.Id.Protein>
6NUR|6NUR_protein|mol2

> <Gold.PLP.Fitness>
46.9376

> <Gold.PLP.PLP>
-36.8108

> <Gold.PLP.part.hbond>
-3.0000

> <Gold.PLP.part.metal>
0.0000

> <Gold.PLP.part.buried>
-2.7839

> <Gold.PLP.part.nonpolar>
-30.7387

> <Gold.PLP.part.repulsive>
0.1070

> <Gold.PLP.ligand.clash>
0.0000

> <Gold.PLP.ligand.torsion>
1.0928

> <Gold.PLP.Chemscore.Hbond>
3.9920

> <Gold.PLP.Chemscore.CHOScore>
0.0000

> <Gold.PLP.Chemscore.Metal>
0.0000

> <Gold.Chemscore.Hbonds>
donor molecule, donor type, donor heavy atom, donor atom, acceptor molecule, acceptor atom, score
      L1  H     4    52       P1  7948  2.00
      P1  H  7989  7998       L1     7  1.00
      P1  H  7997  8008       L1    16  0.54

> <Gold.PLP.Chemscore.Internal.Correction>
0.3364

> <Gold.Rescore>
     Score         DG    S(hbond)    S(metal)    S(lipo)     H(rot)  DE(clash)    DE(int)     intcor
     20.39     -21.43       2.57        0.00      97.96       1.60       0.11       0.92       ----

> <Gold.Chemscore.Fitness>
20.3872

> <Gold.Chemscore.DG>
-21.4254

> <Gold.Chemscore.ZeroCoef>
-5.4800

> <Gold.Chemscore.Hbond>
2.5698

> <Gold.Chemscore.Metal>
0.0000

> <Gold.Chemscore.Lipo>
97.9580

> <Gold.Chemscore.Internal_Hbond>
0.0000

> <Gold.Chemscore.DEClash>
0.1142

> <Gold.Chemscore.DEInternal>
0.9240

> <Gold.Chemscore.Rot>
1.6012

> <Gold.Chemscore.Internal.Correction>
   9.000000E+99

> <Gold.Chemscore.Hbonds>
donor molecule, donor type, donor heavy atom, donor atom, acceptor molecule, acceptor atom, score
      L1  H     4    52       P1  7948  1.00
      P1  H  7989  7998       L1     7  0.69
      P1  H  7997  8008       L1    16  0.16

> <Gold.Chemscore.Hbond.Weighted>
-8.5833

> <Gold.Chemscore.Metal.Weighted>
-0.0000

> <Gold.Chemscore.Lipo.Weighted>
-11.4611

> <Gold.Chemscore.Internal_Hbond.Weighted>
0.0000

> <Gold.Chemscore.DEClash.Weighted>
0.1142

> <Gold.Chemscore.DEInternal.Weighted>
0.9240

> <Gold.Chemscore.Rot.Weighted>
4.0990

> <Gold.Chemscore.Internal.Correction.Weighted>
   9.000000E+99

> <Gold.Protein.RotatedTorsions>
[ 6907 6896 6895 6894 ] final   37.85 input  -60.11 | X-H torsion
[ 7974 7965 7964 7962 ] final    6.02 input  175.53 | X-H torsion
[ 8008 7997 7996 7995 ] final -103.07 input   59.86 | X-H torsion
[ 10167 10162 10161 10158 ] final -164.47 input  -65.29 | X-H torsion
[ 10718 10713 10712 10709 ] final   21.19 input   66.30 | X-H torsion
[ 10763 10752 10751 10750 ] final  -28.63 input  -60.55 | X-H torsion
[ 11005 11000 10999 10996 ] final  -47.99 input  -57.11 | X-H torsion

> <Gold.Protein.ActiveResidues>
 VAL166  LYS551  ARG553  GLY616  TRP617  ASP618  TYR619  PRO620  LYS621  CYS622 
 ASP623  PHE694  ASN695  SER759  ASP760  ASP761  ALA762  ILE779  LEU786  VAL792 
 PHE793  MET794  SER795  GLU796  ALA797  LYS798  CYS799  TRP800  GLU811  SER814 

> <Gold.Protein.RotatedAtoms>
  152.1486  134.9006  160.0549 H   0  0  0  0  0  0  0  0  0  0  0  0  # atno 6907 bound_to 6896
  152.0047  133.3833  159.4204 H   0  0  0  0  0  0  0  0  0  0  0  0  # atno 6908 bound_to 6896
  150.6873  134.3718  159.5039 H   0  0  0  0  0  0  0  0  0  0  0  0  # atno 6909 bound_to 6896
  146.2437  140.0296  142.8391 H   0  0  0  0  0  0  0  0  0  0  0  0  # atno 7974 bound_to 7965
  154.8657  140.0425  157.1693 H   0  0  0  0  0  0  0  0  0  0  0  0  # atno 8008 bound_to 7997
  154.8792  140.2970  155.5414 H   0  0  0  0  0  0  0  0  0  0  0  0  # atno 8009 bound_to 7997
  156.2999  140.2414  156.3793 H   0  0  0  0  0  0  0  0  0  0  0  0  # atno 8010 bound_to 7997
  139.6249  144.0553  152.1965 H   0  0  0  0  0  0  0  0  0  0  0  0  # atno 10167 bound_to 10162
  157.1350  130.6607  149.5963 H   0  0  0  0  0  0  0  0  0  0  0  0  # atno 10718 bound_to 10713
  153.7515  135.6925  153.4944 H   0  0  0  0  0  0  0  0  0  0  0  0  # atno 10763 bound_to 10752
  153.2000  135.4440  155.0253 H   0  0  0  0  0  0  0  0  0  0  0  0  # atno 10764 bound_to 10752
  154.8185  135.3410  154.7036 H   0  0  0  0  0  0  0  0  0  0  0  0  # atno 10765 bound_to 10752
  141.0674  133.6689  156.3377 H   0  0  0  0  0  0  0  0  0  0  0  0  # atno 11005 bound_to 11000
  145.1167  140.9437  143.4625 LP  0  0  0  0  0  0  0  0  0  0  0  0  # atno 17320 bound_to 7965
  145.0522  139.3172  143.5923 LP  0  0  0  0  0  0  0  0  0  0  0  0  # atno 17321 bound_to 7965
  140.0203  144.6158  150.7572 LP  0  0  0  0  0  0  0  0  0  0  0  0  # atno 17342 bound_to 10162
  140.7404  143.2805  151.3614 LP  0  0  0  0  0  0  0  0  0  0  0  0  # atno 17343 bound_to 10162
  155.9800  130.4798  150.6748 LP  0  0  0  0  0  0  0  0  0  0  0  0  # atno 17370 bound_to 10713
  157.4358  131.0855  151.0993 LP  0  0  0  0  0  0  0  0  0  0  0  0  # atno 17371 bound_to 10713
  140.5744  134.5808  157.5465 LP  0  0  0  0  0  0  0  0  0  0  0  0  # atno 17394 bound_to 11000
  139.9490  134.7651  156.0494 LP  0  0  0  0  0  0  0  0  0  0  0  0  # atno 17395 bound_to 11000

$$$$
