AV-unprocessed.smi:2102|AV-procd|sdf|8581|dock4
  -GOLD-   2272011313D 1   1.00000     0.00000
 Structure written by MMmdl.
 29 30  0  0  0  0  0  0  0  0  1 V2000
  153.3711  141.2428  160.2895 C   0  0  0  0  0  0  0  0  0  0  0  0
  152.4481  141.8961  159.3849 N   0  0  0  0  0  0  0  0  0  0  0  0
  151.8532  143.1226  159.7685 C   0  0  0  0  0  0  0  0  0  0  0  0
  152.0896  143.6683  160.8468 O   0  0  0  0  0  0  0  0  0  0  0  0
  150.9369  143.6824  158.7820 C   0  0  0  0  0  0  0  0  0  0  0  0
  150.7041  143.0489  157.6116 C   0  0  0  0  0  0  0  0  0  0  0  0
  151.3000  141.8509  157.2616 N   0  0  0  0  0  0  0  0  0  0  0  0
  151.0056  141.2435  155.9573 C   0  0  0  0  0  0  0  0  0  0  0  0
  149.5134  140.9394  155.7643 C   0  0  0  0  0  0  0  0  0  0  0  0
  149.1001  139.7793  155.7988 O   0  0  0  0  0  0  0  0  0  0  0  0
  148.7215  141.9983  155.5418 N   0  0  0  0  0  0  0  0  0  0  0  0
  147.3106  141.9483  155.3326 C   0  0  0  0  0  0  0  0  0  0  0  0
  146.7985  141.1031  154.1865 C   0  0  0  0  0  0  0  0  0  0  0  0
  146.7619  142.6029  154.0831 C   0  0  0  0  0  0  0  0  0  0  0  0
  152.2001  141.2390  158.1601 C   0  0  0  0  0  0  0  0  0  0  0  0
  152.7457  140.1696  157.8753 O   0  0  0  0  0  0  0  0  0  0  0  0
  153.5278  141.8320  161.1923 H   0  0  0  0  0  0  0  0  0  0  0  0
  154.3182  141.1260  159.7596 H   0  0  0  0  0  0  0  0  0  0  0  0
  152.9376  140.2751  160.5475 H   0  0  0  0  0  0  0  0  0  0  0  0
  150.4394  144.6179  158.9912 H   0  0  0  0  0  0  0  0  0  0  0  0
  150.0195  143.5073  156.9128 H   0  0  0  0  0  0  0  0  0  0  0  0
  151.3605  141.8912  155.1534 H   0  0  0  0  0  0  0  0  0  0  0  0
  151.5594  140.3098  155.8485 H   0  0  0  0  0  0  0  0  0  0  0  0
  149.1505  142.9122  155.5266 H   0  0  0  0  0  0  0  0  0  0  0  0
  146.6723  141.9924  156.2142 H   0  0  0  0  0  0  0  0  0  0  0  0
  147.5290  140.5758  153.5756 H   0  0  0  0  0  0  0  0  0  0  0  0
  145.8516  140.5863  154.3294 H   0  0  0  0  0  0  0  0  0  0  0  0
  145.7911  143.0889  154.1578 H   0  0  0  0  0  0  0  0  0  0  0  0
  147.4675  143.0759  153.4026 H   0  0  0  0  0  0  0  0  0  0  0  0
  1  2  1  0  0  0  0
  1 17  1  0  0  0  0
  1 18  1  0  0  0  0
  1 19  1  0  0  0  0
  2 15  1  0  0  0  0
  2  3  1  0  0  0  0
  3  4  2  0  0  0  0
  3  5  1  0  0  0  0
  5  6  2  0  0  0  0
  5 20  1  0  0  0  0
  6  7  1  0  0  0  0
  6 21  1  0  0  0  0
  7  8  1  0  0  0  0
  7 15  1  0  0  0  0
  8  9  1  0  0  0  0
  8 22  1  0  0  0  0
  8 23  1  0  0  0  0
  9 10  2  0  0  0  0
  9 11  1  0  0  0  0
 11 12  1  0  0  0  0
 11 24  1  0  0  0  0
 12 14  1  0  0  0  0
 12 13  1  0  0  0  0
 12 25  1  0  0  0  0
 13 14  1  0  0  0  0
 13 26  1  0  0  0  0
 13 27  1  0  0  0  0
 14 28  1  0  0  0  0
 14 29  1  0  0  0  0
 15 16  2  0  0  0  0
M  END
> <s_m_source_file>
AV-unprocessed.smi

> <i_m_source_file_index>
2102

> <i_lp_mmshare_version>
43012

> <i_f3d_flags>
0

> <s_epik_input>
W0NIM11uMWMoPU8pW2NIXVtjSF1uKGMxPU8pW0NIMl1DKD1PKVtOSF1bQ0hdMltDSDJdW0NIMl0y

> <s_epik_cmdline>
J2VwaWtfcHl0aG9uJywgJy1waCcsICc3LjAnLCAnLXRuJywgJzgnLCAnLW1hJywgJzIwMCcsICctbWV0YWxfYmluZGluZycsICctaW1hZScsICc8aW5maWxlLm1hZT4nLCAnLW9tYWUnLCAnPG91dGZpbGUubWFlPic=

> <r_lp_tautomer_probability>
1

> <r_epik_Ionization_Penalty>
3.25544e-08

> <r_epik_Ionization_Penalty_Charging>
1.18841e-08

> <r_epik_Ionization_Penalty_Neutral>
2.06703e-08

> <r_epik_State_Penalty>
-0

> <r_epik_Charging_Adjusted_Penalty>
1.18841e-08

> <i_epik_Tot_Q>
0

> <i_epik_Tot_abs_Q>
0

> <r_epik_Metal_State_Penalty>
-0

> <b_epik_Metal_Only>
0

> <s_lp_Force_Field>
OPLS_2005

> <r_lp_Energy>
23.1094

> <b_lp_Chiralities_Consistent>
1

> <s_lp_Variant>
AV-unprocessed.smi:2102-1

> <Gold.Version>
5.8.1

> <Gold.Id.Protein>
6NUR|6NUR_protein|mol2

> <Gold.PLP.Fitness>
39.9105

> <Gold.PLP.PLP>
-31.4410

> <Gold.PLP.part.hbond>
-2.0000

> <Gold.PLP.part.metal>
0.0000

> <Gold.PLP.part.buried>
-3.1410

> <Gold.PLP.part.nonpolar>
-25.9575

> <Gold.PLP.part.repulsive>
0.2348

> <Gold.PLP.ligand.clash>
0.0000

> <Gold.PLP.ligand.torsion>
0.1760

> <Gold.PLP.Chemscore.Hbond>
1.9280

> <Gold.PLP.Chemscore.CHOScore>
1.0000

> <Gold.PLP.Chemscore.Metal>
0.0000

> <Gold.Chemscore.Hbonds>
donor molecule, donor type, donor heavy atom, donor atom, acceptor molecule, acceptor atom, score
      L1  H    11    24       P1  8028  0.91
      P1  H  7997  8008       L1    16  1.00
      L1  C     6    21       P1  8028  1.00

> <Gold.PLP.Chemscore.Internal.Correction>
0.0375

> <Gold.Rescore>
     Score         DG    S(hbond)    S(metal)    S(lipo)     H(rot)  DE(clash)    DE(int)     intcor
     13.45     -13.75       1.85        0.00      53.29       1.62       0.02       0.28       ----

> <Gold.Chemscore.Fitness>
13.4463

> <Gold.Chemscore.DG>
-13.7512

> <Gold.Chemscore.ZeroCoef>
-5.4800

> <Gold.Chemscore.Hbond>
1.8507

> <Gold.Chemscore.Metal>
0.0000

> <Gold.Chemscore.Lipo>
53.2920

> <Gold.Chemscore.Internal_Hbond>
0.0000

> <Gold.Chemscore.DEClash>
0.0221

> <Gold.Chemscore.DEInternal>
0.2828

> <Gold.Chemscore.Rot>
1.6192

> <Gold.Chemscore.Internal.Correction>
   9.000000E+99

> <Gold.Chemscore.Hbonds>
donor molecule, donor type, donor heavy atom, donor atom, acceptor molecule, acceptor atom, score
      L1  H    11    24       P1  8028  0.90
      P1  H  7997  8008       L1    16  0.90

> <Gold.Chemscore.Hbond.Weighted>
-6.1813

> <Gold.Chemscore.Metal.Weighted>
-0.0000

> <Gold.Chemscore.Lipo.Weighted>
-6.2352

> <Gold.Chemscore.Internal_Hbond.Weighted>
0.0000

> <Gold.Chemscore.DEClash.Weighted>
0.0221

> <Gold.Chemscore.DEInternal.Weighted>
0.2828

> <Gold.Chemscore.Rot.Weighted>
4.1452

> <Gold.Chemscore.Internal.Correction.Weighted>
   9.000000E+99

> <Gold.Protein.RotatedTorsions>
[ 6907 6896 6895 6894 ] final   51.24 input  -60.11 | X-H torsion
[ 7974 7965 7964 7962 ] final  -48.72 input  175.53 | X-H torsion
[ 8008 7997 7996 7995 ] final  -77.67 input   59.86 | X-H torsion
[ 10167 10162 10161 10158 ] final   45.32 input  -65.29 | X-H torsion
[ 10718 10713 10712 10709 ] final   85.16 input   66.30 | X-H torsion
[ 10763 10752 10751 10750 ] final   56.49 input  -60.55 | X-H torsion
[ 11005 11000 10999 10996 ] final  -66.61 input  -57.11 | X-H torsion

> <Gold.Protein.ActiveResidues>
 VAL166  LYS551  ARG553  GLY616  TRP617  ASP618  TYR619  PRO620  LYS621  CYS622 
 ASP623  PHE694  ASN695  SER759  ASP760  ASP761  ALA762  ILE779  LEU786  VAL792 
 PHE793  MET794  SER795  GLU796  ALA797  LYS798  CYS799  TRP800  GLU811  SER814 

> <Gold.Protein.RotatedAtoms>
  152.3105  134.7502  160.0337 H   0  0  0  0  0  0  0  0  0  0  0  0  # atno 6907 bound_to 6896
  151.7985  133.3362  159.3528 H   0  0  0  0  0  0  0  0  0  0  0  0  # atno 6908 bound_to 6896
  150.7318  134.5706  159.5933 H   0  0  0  0  0  0  0  0  0  0  0  0  # atno 6909 bound_to 6896
  145.9482  140.7598  142.9518 H   0  0  0  0  0  0  0  0  0  0  0  0  # atno 7974 bound_to 7965
  154.5617  140.0707  156.8830 H   0  0  0  0  0  0  0  0  0  0  0  0  # atno 8008 bound_to 7997
  155.2798  140.3371  155.4241 H   0  0  0  0  0  0  0  0  0  0  0  0  # atno 8009 bound_to 7997
  156.2048  140.1735  156.7809 H   0  0  0  0  0  0  0  0  0  0  0  0  # atno 8010 bound_to 7997
  140.3253  144.2655  150.6176 H   0  0  0  0  0  0  0  0  0  0  0  0  # atno 10167 bound_to 10162
  157.6910  131.0163  150.2781 H   0  0  0  0  0  0  0  0  0  0  0  0  # atno 10718 bound_to 10713
  152.9833  135.5674  154.5237 H   0  0  0  0  0  0  0  0  0  0  0  0  # atno 10763 bound_to 10752
  154.4721  135.2785  155.1637 H   0  0  0  0  0  0  0  0  0  0  0  0  # atno 10764 bound_to 10752
  154.3181  135.6274  153.5548 H   0  0  0  0  0  0  0  0  0  0  0  0  # atno 10765 bound_to 10752
  141.1487  133.6703  156.6166 H   0  0  0  0  0  0  0  0  0  0  0  0  # atno 11005 bound_to 11000
  144.6791  140.2391  143.7346 LP  0  0  0  0  0  0  0  0  0  0  0  0  # atno 17320 bound_to 7965
  145.8207  139.2043  143.1939 LP  0  0  0  0  0  0  0  0  0  0  0  0  # atno 17321 bound_to 7965
  140.5446  143.2217  151.8028 LP  0  0  0  0  0  0  0  0  0  0  0  0  # atno 17342 bound_to 10162
  139.4866  144.4555  151.9603 LP  0  0  0  0  0  0  0  0  0  0  0  0  # atno 17343 bound_to 10162
  156.3332  130.3803  149.7472 LP  0  0  0  0  0  0  0  0  0  0  0  0  # atno 17370 bound_to 10713
  156.5005  130.8126  151.3130 LP  0  0  0  0  0  0  0  0  0  0  0  0  # atno 17371 bound_to 10713
  140.3573  134.7718  157.4509 LP  0  0  0  0  0  0  0  0  0  0  0  0  # atno 17394 bound_to 11000
  140.0813  134.5727  155.8537 LP  0  0  0  0  0  0  0  0  0  0  0  0  # atno 17395 bound_to 11000

$$$$
