AV-unprocessed.smi:1285|AV-procd|sdf|5368|dock7
  -GOLD-   22720 4513D 1   1.00000     0.00000
 Structure written by MMmdl.
 46 47  0  0  0  0  0  0  0  0  1 V2000
  146.0930  139.2039  156.6186 C   0  0  0  0  0  0  0  0  0  0  0  0
  146.1329  139.5749  155.1250 C   0  0  0  0  0  0  0  0  0  0  0  0
  147.2638  138.8936  154.2893 C   0  0  2  0  0  0  0  0  0  0  0  0
  147.1077  139.4208  152.8370 C   0  0  0  0  0  0  0  0  0  0  0  0
  147.0138  137.3495  154.2903 C   0  0  0  0  0  0  0  0  0  0  0  0
  146.0595  136.9155  153.2720 N   0  0  0  0  0  0  0  0  0  0  0  0
  146.0009  135.6975  152.7098 C   0  0  0  0  0  0  0  0  0  0  0  0
  146.7036  134.7530  153.0718 O   0  0  0  0  0  0  0  0  0  0  0  0
  145.0114  135.5450  151.5426 C   0  0  2  0  0  0  0  0  0  0  0  0
  143.5525  135.8480  151.9407 C   0  0  0  0  0  0  0  0  0  0  0  0
  145.1485  134.2228  150.9418 N   0  0  0  0  0  0  0  0  0  0  0  0
  144.2116  133.3573  150.5477 C   0  0  0  0  0  0  0  0  0  0  0  0
  144.6947  132.2623  149.9782 N   0  0  0  0  0  0  0  0  0  0  0  0
  146.0307  132.5373  150.0525 C   0  0  0  0  0  0  0  0  0  0  0  0
  146.3570  133.7017  150.6128 N   0  0  0  0  0  0  0  0  0  0  0  0
  148.6108  139.2413  154.8244 N   0  0  0  0  0  0  0  0  0  0  0  0
  148.9048  140.6780  154.8926 C   0  0  0  0  0  0  0  0  0  0  0  0
  150.2491  140.9590  155.5857 C   0  0  0  0  0  0  0  0  0  0  0  0
  151.2917  140.2652  154.9111 O   0  0  0  0  0  0  0  0  0  0  0  0
  151.0727  138.8602  154.8733 C   0  0  0  0  0  0  0  0  0  0  0  0
  149.7373  138.5641  154.1706 C   0  0  0  0  0  0  0  0  0  0  0  0
  145.2686  139.7150  157.1158 H   0  0  0  0  0  0  0  0  0  0  0  0
  147.0090  139.4941  157.1322 H   0  0  0  0  0  0  0  0  0  0  0  0
  145.9484  138.1340  156.7682 H   0  0  0  0  0  0  0  0  0  0  0  0
  145.1583  139.3641  154.6847 H   0  0  0  0  0  0  0  0  0  0  0  0
  146.2274  140.6598  155.0670 H   0  0  0  0  0  0  0  0  0  0  0  0
  146.0691  139.4109  152.5054 H   0  0  0  0  0  0  0  0  0  0  0  0
  147.6643  138.8147  152.1219 H   0  0  0  0  0  0  0  0  0  0  0  0
  147.4633  140.4467  152.7399 H   0  0  0  0  0  0  0  0  0  0  0  0
  147.9482  136.7994  154.1773 H   0  0  0  0  0  0  0  0  0  0  0  0
  146.5977  137.0312  155.2453 H   0  0  0  0  0  0  0  0  0  0  0  0
  145.4368  137.6249  152.9142 H   0  0  0  0  0  0  0  0  0  0  0  0
  145.3003  136.2745  150.7841 H   0  0  0  0  0  0  0  0  0  0  0  0
  143.4530  136.8621  152.3291 H   0  0  0  0  0  0  0  0  0  0  0  0
  143.1867  135.1630  152.7067 H   0  0  0  0  0  0  0  0  0  0  0  0
  142.8896  135.7635  151.0792 H   0  0  0  0  0  0  0  0  0  0  0  0
  143.1534  133.5366  150.6700 H   0  0  0  0  0  0  0  0  0  0  0  0
  146.7851  131.8624  149.6760 H   0  0  0  0  0  0  0  0  0  0  0  0
  148.9330  141.1076  153.8913 H   0  0  0  0  0  0  0  0  0  0  0  0
  148.1306  141.2095  155.4433 H   0  0  0  0  0  0  0  0  0  0  0  0
  150.4661  142.0273  155.5724 H   0  0  0  0  0  0  0  0  0  0  0  0
  150.2154  140.6520  156.6322 H   0  0  0  0  0  0  0  0  0  0  0  0
  151.8956  138.3864  154.3380 H   0  0  0  0  0  0  0  0  0  0  0  0
  151.0739  138.4553  155.8867 H   0  0  0  0  0  0  0  0  0  0  0  0
  149.5960  137.4849  154.1655 H   0  0  0  0  0  0  0  0  0  0  0  0
  149.8160  138.8784  153.1300 H   0  0  0  0  0  0  0  0  0  0  0  0
  1  2  1  0  0  0  0
  1 22  1  0  0  0  0
  1 23  1  0  0  0  0
  1 24  1  0  0  0  0
  2  3  1  0  0  0  0
  2 25  1  0  0  0  0
  2 26  1  0  0  0  0
  3  4  1  0  0  0  0
  3  5  1  0  0  0  0
  3 16  1  0  0  0  0
  4 27  1  0  0  0  0
  4 28  1  0  0  0  0
  4 29  1  0  0  0  0
  5  6  1  0  0  0  0
  5 30  1  0  0  0  0
  5 31  1  0  0  0  0
  6  7  1  0  0  0  0
  6 32  1  0  0  0  0
  7  8  2  0  0  0  0
  7  9  1  0  0  0  0
  9 10  1  0  0  0  0
  9 11  1  0  0  0  0
  9 33  1  0  0  0  0
 10 34  1  0  0  0  0
 10 35  1  0  0  0  0
 10 36  1  0  0  0  0
 11 15  1  0  0  0  0
 11 12  1  0  0  0  0
 12 13  2  0  0  0  0
 12 37  1  0  0  0  0
 13 14  1  0  0  0  0
 14 15  2  0  0  0  0
 14 38  1  0  0  0  0
 16 21  1  0  0  0  0
 16 17  1  0  0  0  0
 17 18  1  0  0  0  0
 17 39  1  0  0  0  0
 17 40  1  0  0  0  0
 18 19  1  0  0  0  0
 18 41  1  0  0  0  0
 18 42  1  0  0  0  0
 19 20  1  0  0  0  0
 20 21  1  0  0  0  0
 20 43  1  0  0  0  0
 20 44  1  0  0  0  0
 21 45  1  0  0  0  0
 21 46  1  0  0  0  0
M  END
> <s_m_source_file>
AV-unprocessed.smi

> <i_m_source_file_index>
1285

> <i_lp_mmshare_version>
43012

> <i_f3d_flags>
0

> <s_epik_input>
W0NIMl0xW0NIMl1PW0NIMl1bQ0gyXU4xW0NAQF0oW0NIM10pKFtDSDJdW0NIM10pW0NIMl1bTkhdQyg9TylbQ0BIXShbQ0gzXSluMltjSF1uW2NIXW4y

> <s_epik_cmdline>
J2VwaWtfcHl0aG9uJywgJy1waCcsICc3LjAnLCAnLXRuJywgJzgnLCAnLW1hJywgJzIwMCcsICctbWV0YWxfYmluZGluZycsICctaW1hZScsICc8aW5maWxlLm1hZT4nLCAnLW9tYWUnLCAnPG91dGZpbGUubWFlPic=

> <r_lp_tautomer_probability>
1

> <r_epik_Ionization_Penalty>
0.285697

> <r_epik_Ionization_Penalty_Charging>
0

> <r_epik_Ionization_Penalty_Neutral>
0.285697

> <r_epik_State_Penalty>
0.278478

> <r_epik_Charging_Adjusted_Penalty>
0.278478

> <i_epik_Tot_Q>
0

> <i_epik_Tot_abs_Q>
0

> <r_epik_Metal_State_Penalty>
0.278477

> <b_epik_Metal_Only>
0

> <s_lp_Force_Field>
OPLS_2005

> <r_lp_Energy>
47.2582

> <b_lp_Chiralities_Consistent>
1

> <s_lp_Variant>
AV-unprocessed.smi:1285-2

> <Gold.Version>
5.8.1

> <Gold.Id.Protein>
6NUR|6NUR_protein|mol2

> <Gold.PLP.Fitness>
36.1568

> <Gold.PLP.PLP>
-28.7113

> <Gold.PLP.part.hbond>
-1.0000

> <Gold.PLP.part.metal>
0.0000

> <Gold.PLP.part.buried>
-4.7589

> <Gold.PLP.part.nonpolar>
-24.2577

> <Gold.PLP.part.repulsive>
1.0282

> <Gold.PLP.ligand.clash>
0.0000

> <Gold.PLP.ligand.torsion>
0.9215

> <Gold.PLP.Chemscore.Hbond>
1.0000

> <Gold.PLP.Chemscore.CHOScore>
2.0000

> <Gold.PLP.Chemscore.Metal>
0.0000

> <Gold.Chemscore.Hbonds>
donor molecule, donor type, donor heavy atom, donor atom, acceptor molecule, acceptor atom, score
      P1  H  7989  7998       L1    19  1.00
      L1  C    12    37       P1 10186  0.89
      L1  C    14    38       P1 10747  1.00

> <Gold.PLP.Chemscore.Internal.Correction>
0.2884

> <Gold.Rescore>
     Score         DG    S(hbond)    S(metal)    S(lipo)     H(rot)  DE(clash)    DE(int)     intcor
      4.53      -7.32       0.87        0.00      49.58       2.68       0.00       2.80       ----

> <Gold.Chemscore.Fitness>
4.5252

> <Gold.Chemscore.DG>
-7.3237

> <Gold.Chemscore.ZeroCoef>
-5.4800

> <Gold.Chemscore.Hbond>
0.8711

> <Gold.Chemscore.Metal>
0.0000

> <Gold.Chemscore.Lipo>
49.5768

> <Gold.Chemscore.Internal_Hbond>
0.0000

> <Gold.Chemscore.DEClash>
0.0009

> <Gold.Chemscore.DEInternal>
2.7976

> <Gold.Chemscore.Rot>
2.6821

> <Gold.Chemscore.Internal.Correction>
   9.000000E+99

> <Gold.Chemscore.Hbonds>
donor molecule, donor type, donor heavy atom, donor atom, acceptor molecule, acceptor atom, score
      P1  H  7989  7998       L1    19  0.72

> <Gold.Chemscore.Hbond.Weighted>
-2.9094

> <Gold.Chemscore.Metal.Weighted>
-0.0000

> <Gold.Chemscore.Lipo.Weighted>
-5.8005

> <Gold.Chemscore.Internal_Hbond.Weighted>
0.0000

> <Gold.Chemscore.DEClash.Weighted>
0.0009

> <Gold.Chemscore.DEInternal.Weighted>
2.7976

> <Gold.Chemscore.Rot.Weighted>
6.8661

> <Gold.Chemscore.Internal.Correction.Weighted>
   9.000000E+99

> <Gold.Protein.RotatedTorsions>
[ 6907 6896 6895 6894 ] final -142.56 input  -60.11 | X-H torsion
[ 7974 7965 7964 7962 ] final   95.44 input  175.53 | X-H torsion
[ 8008 7997 7996 7995 ] final   97.56 input   59.86 | X-H torsion
[ 10167 10162 10161 10158 ] final  176.35 input  -65.29 | X-H torsion
[ 10718 10713 10712 10709 ] final   -9.56 input   66.30 | X-H torsion
[ 10763 10752 10751 10750 ] final  165.92 input  -60.55 | X-H torsion
[ 11005 11000 10999 10996 ] final   20.66 input  -57.11 | X-H torsion

> <Gold.Protein.ActiveResidues>
 VAL166  LYS551  ARG553  GLY616  TRP617  ASP618  TYR619  PRO620  LYS621  CYS622 
 ASP623  PHE694  ASN695  SER759  ASP760  ASP761  ALA762  ILE779  LEU786  VAL792 
 PHE793  MET794  SER795  GLU796  ALA797  LYS798  CYS799  TRP800  GLU811  SER814 

> <Gold.Protein.RotatedAtoms>
  151.0887  133.5333  159.2615 H   0  0  0  0  0  0  0  0  0  0  0  0  # atno 6907 bound_to 6896
  151.2208  135.0517  159.8959 H   0  0  0  0  0  0  0  0  0  0  0  0  # atno 6908 bound_to 6896
  152.5432  134.0690  159.8239 H   0  0  0  0  0  0  0  0  0  0  0  0  # atno 6909 bound_to 6896
  145.4521  139.2292  143.3034 H   0  0  0  0  0  0  0  0  0  0  0  0  # atno 7974 bound_to 7965
  156.0914  140.3256  155.7821 H   0  0  0  0  0  0  0  0  0  0  0  0  # atno 8008 bound_to 7997
  155.4990  140.0567  157.2959 H   0  0  0  0  0  0  0  0  0  0  0  0  # atno 8009 bound_to 7997
  154.4640  140.1980  156.0183 H   0  0  0  0  0  0  0  0  0  0  0  0  # atno 8010 bound_to 7997
  139.5211  144.2926  152.0450 H   0  0  0  0  0  0  0  0  0  0  0  0  # atno 10167 bound_to 10162
  156.6862  130.5051  149.5956 H   0  0  0  0  0  0  0  0  0  0  0  0  # atno 10718 bound_to 10713
  154.3312  135.2755  155.2471 H   0  0  0  0  0  0  0  0  0  0  0  0  # atno 10763 bound_to 10752
  154.4782  135.5865  153.6374 H   0  0  0  0  0  0  0  0  0  0  0  0  # atno 10764 bound_to 10752
  152.9866  135.6105  154.3504 H   0  0  0  0  0  0  0  0  0  0  0  0  # atno 10765 bound_to 10752
  140.4002  134.1727  155.7664 H   0  0  0  0  0  0  0  0  0  0  0  0  # atno 11005 bound_to 11000
  146.2498  140.5281  142.8898 LP  0  0  0  0  0  0  0  0  0  0  0  0  # atno 17320 bound_to 7965
  144.8055  140.6291  143.6450 LP  0  0  0  0  0  0  0  0  0  0  0  0  # atno 17321 bound_to 7965
  140.2377  144.4303  150.6273 LP  0  0  0  0  0  0  0  0  0  0  0  0  # atno 17342 bound_to 10162
  140.6312  143.2188  151.6491 LP  0  0  0  0  0  0  0  0  0  0  0  0  # atno 17343 bound_to 10162
  156.1831  130.6511  151.0974 LP  0  0  0  0  0  0  0  0  0  0  0  0  # atno 17370 bound_to 10713
  157.7025  131.0770  150.6773 LP  0  0  0  0  0  0  0  0  0  0  0  0  # atno 17371 bound_to 10713
  141.1859  133.8312  157.1086 LP  0  0  0  0  0  0  0  0  0  0  0  0  # atno 17394 bound_to 11000
  140.0342  134.9886  157.0839 LP  0  0  0  0  0  0  0  0  0  0  0  0  # atno 17395 bound_to 11000

$$$$
