AV-unprocessed.smi:2229|AV-procd|sdf|9028|dock1
  -GOLD-   2272012233D 1   1.00000     0.00000
 Structure written by MMmdl.
 44 45  0  0  0  0  0  0  0  0  1 V2000
  151.8444  143.2958  160.9835 C   0  0  0  0  0  0  0  0  0  0  0  0
  152.1804  143.6142  159.5161 C   0  0  0  0  0  0  0  0  0  0  0  0
  151.9787  145.1109  159.2346 C   0  0  0  0  0  0  0  0  0  0  0  0
  151.3712  142.7574  158.5197 C   0  0  0  0  0  0  0  0  0  0  0  0
  151.5303  141.2431  158.7377 C   0  0  0  0  0  0  0  0  0  0  0  0
  151.0947  140.3807  157.5316 C   0  0  1  0  0  0  0  0  0  0  0  0
  151.5829  140.9051  156.1771 C   0  0  0  0  0  0  0  0  0  0  0  0
  151.4155  139.7165  155.2364 C   0  0  0  0  0  0  0  0  0  0  0  0
  151.7810  138.4957  156.0836 C   0  0  0  0  0  0  0  0  0  0  0  0
  151.5326  138.8911  157.5536 C   0  0  1  0  0  0  0  0  0  0  0  0
  152.7416  138.6628  158.3473 N   0  0  0  0  0  0  0  0  0  0  0  0
  152.8566  137.7921  159.3622 C   0  0  0  0  0  0  0  0  0  0  0  0
  151.9570  137.0236  159.7035 O   0  0  0  0  0  0  0  0  0  0  0  0
  154.1935  137.7914  160.1105 C   0  0  0  0  0  0  0  0  0  0  0  0
  154.5256  139.1208  160.6248 N   0  0  0  0  0  0  0  0  0  0  0  0
  153.7825  139.7741  161.5850 C   0  0  0  0  0  0  0  0  0  0  0  0
  154.2642  140.9393  161.8556 N   0  0  0  0  0  0  0  0  0  0  0  0
  155.3393  141.0118  161.0346 N   0  0  0  0  0  0  0  0  0  0  0  0
  155.5238  139.9294  160.2776 C   0  0  0  0  0  0  0  0  0  0  0  0
  156.4133  139.7312  159.4519 O   0  0  0  0  0  0  0  0  0  0  0  0
  155.9117  141.8438  161.0426 H   0  0  0  0  0  0  0  0  0  0  0  0
  150.7847  143.4488  161.1900 H   0  0  0  0  0  0  0  0  0  0  0  0
  152.4095  143.9364  161.6610 H   0  0  0  0  0  0  0  0  0  0  0  0
  152.0900  142.2665  161.2425 H   0  0  0  0  0  0  0  0  0  0  0  0
  153.2389  143.3980  159.3634 H   0  0  0  0  0  0  0  0  0  0  0  0
  150.9362  145.4018  159.3677 H   0  0  0  0  0  0  0  0  0  0  0  0
  152.2676  145.3638  158.2140 H   0  0  0  0  0  0  0  0  0  0  0  0
  152.5832  145.7224  159.9054 H   0  0  0  0  0  0  0  0  0  0  0  0
  150.3160  143.0281  158.5704 H   0  0  0  0  0  0  0  0  0  0  0  0
  151.6980  143.0010  157.5086 H   0  0  0  0  0  0  0  0  0  0  0  0
  152.5686  141.0256  158.9904 H   0  0  0  0  0  0  0  0  0  0  0  0
  150.9322  140.9525  159.6004 H   0  0  0  0  0  0  0  0  0  0  0  0
  150.0038  140.3834  157.5015 H   0  0  0  0  0  0  0  0  0  0  0  0
  151.0269  141.7795  155.8375 H   0  0  0  0  0  0  0  0  0  0  0  0
  152.6367  141.1813  156.2380 H   0  0  0  0  0  0  0  0  0  0  0  0
  150.3738  139.6452  154.9209 H   0  0  0  0  0  0  0  0  0  0  0  0
  152.0286  139.8026  154.3387 H   0  0  0  0  0  0  0  0  0  0  0  0
  151.1971  137.6215  155.7939 H   0  0  0  0  0  0  0  0  0  0  0  0
  152.8303  138.2448  155.9184 H   0  0  0  0  0  0  0  0  0  0  0  0
  150.7139  138.2870  157.9491 H   0  0  0  0  0  0  0  0  0  0  0  0
  153.5360  139.2505  158.1393 H   0  0  0  0  0  0  0  0  0  0  0  0
  154.1384  137.0652  160.9230 H   0  0  0  0  0  0  0  0  0  0  0  0
  154.9958  137.4565  159.4503 H   0  0  0  0  0  0  0  0  0  0  0  0
  152.9025  139.2888  162.0107 H   0  0  0  0  0  0  0  0  0  0  0  0
  1  2  1  0  0  0  0
  1 22  1  0  0  0  0
  1 23  1  0  0  0  0
  1 24  1  0  0  0  0
  2  3  1  0  0  0  0
  2  4  1  0  0  0  0
  2 25  1  0  0  0  0
  3 26  1  0  0  0  0
  3 27  1  0  0  0  0
  3 28  1  0  0  0  0
  4  5  1  0  0  0  0
  4 29  1  0  0  0  0
  4 30  1  0  0  0  0
  5  6  1  0  0  0  0
  5 31  1  0  0  0  0
  5 32  1  0  0  0  0
  6 10  1  0  0  0  0
  6  7  1  0  0  0  0
  6 33  1  0  0  0  0
  7  8  1  0  0  0  0
  7 34  1  0  0  0  0
  7 35  1  0  0  0  0
  8  9  1  0  0  0  0
  8 36  1  0  0  0  0
  8 37  1  0  0  0  0
  9 10  1  0  0  0  0
  9 38  1  0  0  0  0
  9 39  1  0  0  0  0
 10 11  1  0  0  0  0
 10 40  1  0  0  0  0
 11 12  1  0  0  0  0
 11 41  1  0  0  0  0
 12 13  2  0  0  0  0
 12 14  1  0  0  0  0
 14 15  1  0  0  0  0
 14 42  1  0  0  0  0
 14 43  1  0  0  0  0
 15 19  1  0  0  0  0
 15 16  1  0  0  0  0
 16 17  2  0  0  0  0
 16 44  1  0  0  0  0
 17 18  1  0  0  0  0
 18 21  1  0  0  0  0
 18 19  1  0  0  0  0
 19 20  2  0  0  0  0
M  END
> <s_m_source_file>
AV-unprocessed.smi

> <i_m_source_file_index>
2229

> <i_lp_mmshare_version>
43012

> <i_f3d_flags>
0

> <s_epik_input>
W0NIM11bQ0hdKFtDSDNdKVtDSDJdW0NIMl1bQ0BASF0xW0NIMl1bQ0gyXVtDSDJdW0NASF0xW05IXUMoPU8pW0NIMl1uMltjSF1uW25IXWMyPU8=

> <s_epik_cmdline>
J2VwaWtfcHl0aG9uJywgJy1waCcsICc3LjAnLCAnLXRuJywgJzgnLCAnLW1hJywgJzIwMCcsICctbWV0YWxfYmluZGluZycsICctaW1hZScsICc8aW5maWxlLm1hZT4nLCAnLW9tYWUnLCAnPG91dGZpbGUubWFlPic=

> <r_lp_tautomer_probability>
1

> <r_epik_Ionization_Penalty>
4.14174e-05

> <r_epik_Ionization_Penalty_Charging>
4.13165e-05

> <r_epik_Ionization_Penalty_Neutral>
1.00911e-07

> <r_epik_State_Penalty>
-0

> <r_epik_Charging_Adjusted_Penalty>
4.13165e-05

> <i_epik_Tot_Q>
0

> <i_epik_Tot_abs_Q>
0

> <r_epik_Metal_State_Penalty>
0.0399369

> <b_epik_Metal_Only>
0

> <s_lp_Force_Field>
OPLS_2005

> <r_lp_Energy>
36.1569

> <b_lp_Chiralities_Consistent>
1

> <s_lp_Variant>
AV-unprocessed.smi:2229-2

> <Gold.Version>
5.8.1

> <Gold.Id.Protein>
6NUR|6NUR_protein|mol2

> <Gold.PLP.Fitness>
42.3878

> <Gold.PLP.PLP>
-36.7361

> <Gold.PLP.part.hbond>
-4.0000

> <Gold.PLP.part.metal>
0.0000

> <Gold.PLP.part.buried>
-3.4706

> <Gold.PLP.part.nonpolar>
-28.5273

> <Gold.PLP.part.repulsive>
0.1832

> <Gold.PLP.ligand.clash>
0.0000

> <Gold.PLP.ligand.torsion>
0.2466

> <Gold.PLP.Chemscore.Hbond>
2.0000

> <Gold.PLP.Chemscore.CHOScore>
0.0000

> <Gold.PLP.Chemscore.Metal>
0.0000

> <Gold.Chemscore.Hbonds>
donor molecule, donor type, donor heavy atom, donor atom, acceptor molecule, acceptor atom, score
      P1  H  6896  6909       L1    13  1.00
      P1  H  7997  8009       L1    20  0.37

> <Gold.PLP.Chemscore.Internal.Correction>
0.1448

> <Gold.Rescore>
     Score         DG    S(hbond)    S(metal)    S(lipo)     H(rot)  DE(clash)    DE(int)     intcor
     14.78     -15.16       1.97        0.00      84.16       2.64       0.07       0.31       ----

> <Gold.Chemscore.Fitness>
14.7836

> <Gold.Chemscore.DG>
-15.1627

> <Gold.Chemscore.ZeroCoef>
-5.4800

> <Gold.Chemscore.Hbond>
1.9719

> <Gold.Chemscore.Metal>
0.0000

> <Gold.Chemscore.Lipo>
84.1602

> <Gold.Chemscore.Internal_Hbond>
0.0000

> <Gold.Chemscore.DEClash>
0.0650

> <Gold.Chemscore.DEInternal>
0.3140

> <Gold.Chemscore.Rot>
2.6368

> <Gold.Chemscore.Internal.Correction>
   9.000000E+99

> <Gold.Chemscore.Hbonds>
donor molecule, donor type, donor heavy atom, donor atom, acceptor molecule, acceptor atom, score
      P1  H  6896  6909       L1    13  0.97
      P1  H  7997  8009       L1    20  0.33

> <Gold.Chemscore.Hbond.Weighted>
-6.5860

> <Gold.Chemscore.Metal.Weighted>
-0.0000

> <Gold.Chemscore.Lipo.Weighted>
-9.8467

> <Gold.Chemscore.Internal_Hbond.Weighted>
0.0000

> <Gold.Chemscore.DEClash.Weighted>
0.0650

> <Gold.Chemscore.DEInternal.Weighted>
0.3140

> <Gold.Chemscore.Rot.Weighted>
6.7501

> <Gold.Chemscore.Internal.Correction.Weighted>
   9.000000E+99

> <Gold.Protein.RotatedTorsions>
[ 6907 6896 6895 6894 ] final  140.66 input  -60.11 | X-H torsion
[ 7974 7965 7964 7962 ] final  134.83 input  175.53 | X-H torsion
[ 8008 7997 7996 7995 ] final   82.57 input   59.86 | X-H torsion
[ 10167 10162 10161 10158 ] final  162.93 input  -65.29 | X-H torsion
[ 10718 10713 10712 10709 ] final -155.86 input   66.30 | X-H torsion
[ 10763 10752 10751 10750 ] final   86.59 input  -60.55 | X-H torsion
[ 11005 11000 10999 10996 ] final   71.04 input  -57.11 | X-H torsion

> <Gold.Protein.ActiveResidues>
 VAL166  LYS551  ARG553  GLY616  TRP617  ASP618  TYR619  PRO620  LYS621  CYS622 
 ASP623  PHE694  ASN695  SER759  ASP760  ASP761  ALA762  ILE779  LEU786  VAL792 
 PHE793  MET794  SER795  GLU796  ALA797  LYS798  CYS799  TRP800  GLU811  SER814 

> <Gold.Protein.RotatedAtoms>
  152.2403  133.5130  159.5266 H   0  0  0  0  0  0  0  0  0  0  0  0  # atno 6907 bound_to 6896
  150.7062  134.1097  159.4005 H   0  0  0  0  0  0  0  0  0  0  0  0  # atno 6908 bound_to 6896
  151.9018  135.0375  160.0558 H   0  0  0  0  0  0  0  0  0  0  0  0  # atno 6909 bound_to 6896
  144.9724  139.4591  143.5426 H   0  0  0  0  0  0  0  0  0  0  0  0  # atno 7974 bound_to 7965
  155.9123  140.3426  155.6108 H   0  0  0  0  0  0  0  0  0  0  0  0  # atno 8008 bound_to 7997
  155.7372  140.0803  157.2281 H   0  0  0  0  0  0  0  0  0  0  0  0  # atno 8009 bound_to 7997
  154.4057  140.1577  156.2563 H   0  0  0  0  0  0  0  0  0  0  0  0  # atno 8010 bound_to 7997
  139.4867  144.4388  151.8978 H   0  0  0  0  0  0  0  0  0  0  0  0  # atno 10167 bound_to 10162
  156.5186  130.8468  151.2673 H   0  0  0  0  0  0  0  0  0  0  0  0  # atno 10718 bound_to 10713
  153.1585  135.4575  154.9739 H   0  0  0  0  0  0  0  0  0  0  0  0  # atno 10763 bound_to 10752
  154.7880  135.3210  154.7845 H   0  0  0  0  0  0  0  0  0  0  0  0  # atno 10764 bound_to 10752
  153.8339  135.6936  153.4865 H   0  0  0  0  0  0  0  0  0  0  0  0  # atno 10765 bound_to 10752
  139.9565  134.7136  156.0742 H   0  0  0  0  0  0  0  0  0  0  0  0  # atno 11005 bound_to 11000
  146.3386  139.8945  142.8804 LP  0  0  0  0  0  0  0  0  0  0  0  0  # atno 17320 bound_to 7965
  145.2539  141.0053  143.3865 LP  0  0  0  0  0  0  0  0  0  0  0  0  # atno 17321 bound_to 7965
  140.3839  144.2702  150.5906 LP  0  0  0  0  0  0  0  0  0  0  0  0  # atno 17342 bound_to 10162
  140.5208  143.2266  151.8391 LP  0  0  0  0  0  0  0  0  0  0  0  0  # atno 17343 bound_to 10162
  157.7440  130.9925  150.2638 LP  0  0  0  0  0  0  0  0  0  0  0  0  # atno 17370 bound_to 10713
  156.3171  130.3780  149.7609 LP  0  0  0  0  0  0  0  0  0  0  0  0  # atno 17371 bound_to 10713
  141.1237  133.6605  156.3280 LP  0  0  0  0  0  0  0  0  0  0  0  0  # atno 17394 bound_to 11000
  140.5598  134.5945  157.5430 LP  0  0  0  0  0  0  0  0  0  0  0  0  # atno 17395 bound_to 11000

$$$$
