AV-unprocessed.smi:957|AV-procd|sdf|4266|dock4
  -GOLD-   22720 2173D 1   1.00000     0.00000
 Structure written by MMmdl.
 30 31  0  0  0  0  0  0  0  0  2 V2000
  154.9652  140.2317  162.2282 C   0  0  0  0  0  0  0  0  0  0  0  0
  153.9947  141.0668  161.3841 C   0  0  0  0  0  0  0  0  0  0  0  0
  153.7155  140.4399  160.1037 N   0  0  0  0  0  0  0  0  0  0  0  0
  154.1658  139.2601  159.6497 C   0  0  0  0  0  0  0  0  0  0  0  0
  153.7499  138.9277  158.4292 N   0  0  0  0  0  0  0  0  0  0  0  0
  152.9523  139.9818  158.0363 N   0  0  0  0  0  0  0  0  0  0  0  0
  152.9599  140.8468  159.0594 C   0  0  0  0  0  0  0  0  0  0  0  0
  152.2100  142.1499  159.0365 C   0  0  1  0  0  0  0  0  0  0  0  0
  153.1411  143.3544  159.2739 C   0  0  0  0  0  0  0  0  0  0  0  0
  152.3451  144.6676  159.2279 C   0  0  0  0  0  0  0  0  0  0  0  0
  151.5539  144.7837  157.9147 C   0  0  0  0  0  0  0  0  0  0  0  0
  150.6708  143.6114  157.7309 N   0  3  0  0  0  0  0  0  0  0  0  0
  151.4064  142.3275  157.7316 C   0  0  0  0  0  0  0  0  0  0  0  0
  155.1525  140.7109  163.1892 H   0  0  0  0  0  0  0  0  0  0  0  0
  155.9255  140.1057  161.7282 H   0  0  0  0  0  0  0  0  0  0  0  0
  154.5590  139.2392  162.4261 H   0  0  0  0  0  0  0  0  0  0  0  0
  153.0537  141.1936  161.9207 H   0  0  0  0  0  0  0  0  0  0  0  0
  154.3894  142.0685  161.2136 H   0  0  0  0  0  0  0  0  0  0  0  0
  154.8191  138.6239  160.2289 H   0  0  0  0  0  0  0  0  0  0  0  0
  151.4876  142.1438  159.8518 H   0  0  0  0  0  0  0  0  0  0  0  0
  153.6453  143.2593  160.2362 H   0  0  0  0  0  0  0  0  0  0  0  0
  153.9231  143.3786  158.5137 H   0  0  0  0  0  0  0  0  0  0  0  0
  151.6593  144.7112  160.0752 H   0  0  0  0  0  0  0  0  0  0  0  0
  153.0206  145.5172  159.3334 H   0  0  0  0  0  0  0  0  0  0  0  0
  150.9477  145.6898  157.9163 H   0  0  0  0  0  0  0  0  0  0  0  0
  152.2353  144.8565  157.0659 H   0  0  0  0  0  0  0  0  0  0  0  0
  149.9964  143.5965  158.4825 H   0  0  0  0  0  0  0  0  0  0  0  0
  152.0679  142.3001  156.8645 H   0  0  0  0  0  0  0  0  0  0  0  0
  150.6915  141.5128  157.6125 H   0  0  0  0  0  0  0  0  0  0  0  0
  150.1789  143.7059  156.8536 H   0  0  0  0  0  0  0  0  0  0  0  0
  1  2  1  0  0  0  0
  1 14  1  0  0  0  0
  1 15  1  0  0  0  0
  1 16  1  0  0  0  0
  2  3  1  0  0  0  0
  2 17  1  0  0  0  0
  2 18  1  0  0  0  0
  3  7  1  0  0  0  0
  3  4  1  0  0  0  0
  4  5  2  0  0  0  0
  4 19  1  0  0  0  0
  5  6  1  0  0  0  0
  6  7  2  0  0  0  0
  7  8  1  0  0  0  0
  8 13  1  0  0  0  0
  8  9  1  0  0  0  0
  8 20  1  0  0  0  0
  9 10  1  0  0  0  0
  9 21  1  0  0  0  0
  9 22  1  0  0  0  0
 10 11  1  0  0  0  0
 10 23  1  0  0  0  0
 10 24  1  0  0  0  0
 11 12  1  0  0  0  0
 11 25  1  0  0  0  0
 11 26  1  0  0  0  0
 12 13  1  0  0  0  0
 12 27  1  0  0  0  0
 12 30  1  0  0  0  0
 13 28  1  0  0  0  0
 13 29  1  0  0  0  0
M  CHG  1  12   1
M  END
> <s_m_source_file>
AV-unprocessed.smi

> <i_m_source_file_index>
957

> <i_lp_mmshare_version>
43012

> <i_f3d_flags>
0

> <s_epik_input>
W0NIM11bQ0gyXW4xW2NIXW5uYzFbQ0BASF0yW0NIMl1bQ0gyXVtDSDJdW05IXVtDSDJdMg==

> <s_epik_cmdline>
J2VwaWtfcHl0aG9uJywgJy1waCcsICc3LjAnLCAnLXRuJywgJzgnLCAnLW1hJywgJzIwMCcsICctbWV0YWxfYmluZGluZycsICctaW1hZScsICc8aW5maWxlLm1hZT4nLCAnLW9tYWUnLCAnPG91dGZpbGUubWFlPic=

> <r_lp_tautomer_probability>
1

> <r_epik_Ionization_Penalty>
0.000442722

> <r_epik_Ionization_Penalty_Charging>
0.000426856

> <r_epik_Ionization_Penalty_Neutral>
1.58656e-05

> <r_epik_State_Penalty>
-0

> <r_epik_Charging_Adjusted_Penalty>
0.000426856

> <i_epik_Tot_Q>
1

> <i_epik_Tot_abs_Q>
1

> <r_epik_Metal_State_Penalty>
-0

> <b_epik_Metal_Only>
0

> <s_lp_Force_Field>
OPLS_2005

> <r_lp_Energy>
16.0383

> <b_lp_Chiralities_Consistent>
1

> <s_lp_Variant>
AV-unprocessed.smi:957-2

> <Gold.Version>
5.8.1

> <Gold.Id.Protein>
6NUR|6NUR_protein|mol2

> <Gold.PLP.Fitness>
37.0095

> <Gold.PLP.PLP>
-30.8504

> <Gold.PLP.part.hbond>
-3.0000

> <Gold.PLP.part.metal>
0.0000

> <Gold.PLP.part.buried>
-3.2119

> <Gold.PLP.part.nonpolar>
-24.5566

> <Gold.PLP.part.repulsive>
0.0095

> <Gold.PLP.ligand.clash>
0.0000

> <Gold.PLP.ligand.torsion>
0.0193

> <Gold.PLP.Chemscore.Hbond>
2.0570

> <Gold.PLP.Chemscore.CHOScore>
0.0000

> <Gold.PLP.Chemscore.Metal>
0.0000

> <Gold.Chemscore.Hbonds>
donor molecule, donor type, donor heavy atom, donor atom, acceptor molecule, acceptor atom, score
      L1  H    12    30       P1  8028  1.95
      P1  H  7997  8009       L1     6  0.06

> <Gold.PLP.Chemscore.Internal.Correction>
0.0267

> <Gold.Rescore>
     Score         DG    S(hbond)    S(metal)    S(lipo)     H(rot)  DE(clash)    DE(int)     intcor
     14.22     -14.40       0.98        0.00      75.69       1.26       0.16       0.03       ----

> <Gold.Chemscore.Fitness>
14.2162

> <Gold.Chemscore.DG>
-14.4010

> <Gold.Chemscore.ZeroCoef>
-5.4800

> <Gold.Chemscore.Hbond>
0.9832

> <Gold.Chemscore.Metal>
0.0000

> <Gold.Chemscore.Lipo>
75.6925

> <Gold.Chemscore.Internal_Hbond>
0.0000

> <Gold.Chemscore.DEClash>
0.1596

> <Gold.Chemscore.DEInternal>
0.0253

> <Gold.Chemscore.Rot>
1.2573

> <Gold.Chemscore.Internal.Correction>
   9.000000E+99

> <Gold.Chemscore.Hbonds>
donor molecule, donor type, donor heavy atom, donor atom, acceptor molecule, acceptor atom, score
      L1  H    12    30       P1  8028  0.88

> <Gold.Chemscore.Hbond.Weighted>
-3.2838

> <Gold.Chemscore.Metal.Weighted>
-0.0000

> <Gold.Chemscore.Lipo.Weighted>
-8.8560

> <Gold.Chemscore.Internal_Hbond.Weighted>
0.0000

> <Gold.Chemscore.DEClash.Weighted>
0.1596

> <Gold.Chemscore.DEInternal.Weighted>
0.0253

> <Gold.Chemscore.Rot.Weighted>
3.2188

> <Gold.Chemscore.Internal.Correction.Weighted>
   9.000000E+99

> <Gold.Protein.RotatedTorsions>
[ 6907 6896 6895 6894 ] final -139.72 input  -60.11 | X-H torsion
[ 7974 7965 7964 7962 ] final -135.38 input  175.53 | X-H torsion
[ 8008 7997 7996 7995 ] final -165.65 input   59.86 | X-H torsion
[ 10167 10162 10161 10158 ] final  -16.15 input  -65.29 | X-H torsion
[ 10718 10713 10712 10709 ] final  -82.30 input   66.30 | X-H torsion
[ 10763 10752 10751 10750 ] final -174.44 input  -60.55 | X-H torsion
[ 11005 11000 10999 10996 ] final  -36.07 input  -57.11 | X-H torsion

> <Gold.Protein.ActiveResidues>
 VAL166  LYS551  ARG553  GLY616  TRP617  ASP618  TYR619  PRO620  LYS621  CYS622 
 ASP623  PHE694  ASN695  SER759  ASP760  ASP761  ALA762  ILE779  LEU786  VAL792 
 PHE793  MET794  SER795  GLU796  ALA797  LYS798  CYS799  TRP800  GLU811  SER814 

> <Gold.Protein.RotatedAtoms>
  151.0515  133.5620  159.2641 H   0  0  0  0  0  0  0  0  0  0  0  0  # atno 6907 bound_to 6896
  151.2630  135.0659  159.9115 H   0  0  0  0  0  0  0  0  0  0  0  0  # atno 6908 bound_to 6896
  152.5382  134.0257  159.8056 H   0  0  0  0  0  0  0  0  0  0  0  0  # atno 6909 bound_to 6896
  144.9019  140.6783  143.5079 H   0  0  0  0  0  0  0  0  0  0  0  0  # atno 7974 bound_to 7965
  155.8527  140.0965  157.1664 H   0  0  0  0  0  0  0  0  0  0  0  0  # atno 8008 bound_to 7997
  154.3986  140.1380  156.3926 H   0  0  0  0  0  0  0  0  0  0  0  0  # atno 8009 bound_to 7997
  155.7943  140.3455  155.5369 H   0  0  0  0  0  0  0  0  0  0  0  0  # atno 8010 bound_to 7997
  140.7229  143.5145  150.9709 H   0  0  0  0  0  0  0  0  0  0  0  0  # atno 10167 bound_to 10162
  156.0035  130.4630  150.4083 H   0  0  0  0  0  0  0  0  0  0  0  0  # atno 10718 bound_to 10713
  154.5962  135.2850  155.0583 H   0  0  0  0  0  0  0  0  0  0  0  0  # atno 10763 bound_to 10752
  154.1865  135.6448  153.5052 H   0  0  0  0  0  0  0  0  0  0  0  0  # atno 10764 bound_to 10752
  153.0139  135.5436  154.6665 H   0  0  0  0  0  0  0  0  0  0  0  0  # atno 10765 bound_to 10752
  140.9846  133.7037  156.1743 H   0  0  0  0  0  0  0  0  0  0  0  0  # atno 11005 bound_to 11000
  145.3601  139.1684  143.4388 LP  0  0  0  0  0  0  0  0  0  0  0  0  # atno 17320 bound_to 7965
  146.3113  140.3662  142.8669 LP  0  0  0  0  0  0  0  0  0  0  0  0  # atno 17321 bound_to 7965
  139.8860  143.7012  152.3151 LP  0  0  0  0  0  0  0  0  0  0  0  0  # atno 17342 bound_to 10162
  139.7311  144.7582  151.0800 LP  0  0  0  0  0  0  0  0  0  0  0  0  # atno 17343 bound_to 10162
  157.2148  131.0469  151.2579 LP  0  0  0  0  0  0  0  0  0  0  0  0  # atno 17370 bound_to 10713
  157.3855  130.7254  149.6660 LP  0  0  0  0  0  0  0  0  0  0  0  0  # atno 17371 bound_to 10713
  140.7134  134.4437  157.5580 LP  0  0  0  0  0  0  0  0  0  0  0  0  # atno 17394 bound_to 11000
  139.8965  134.8658  156.2085 LP  0  0  0  0  0  0  0  0  0  0  0  0  # atno 17395 bound_to 11000

$$$$
