AV-unprocessed.smi:2463|AV-procd|sdf|9719|dock1
  -GOLD-   2272013363D 1   1.00000     0.00000
 Structure written by MMmdl.
 47 48  0  0  0  0  0  0  0  0  1 V2000
  152.5410  142.3818  158.7844 C   0  0  0  0  0  0  0  0  0  0  0  0
  152.3299  141.0534  158.0498 C   0  0  0  0  0  0  0  0  0  0  0  0
  151.5610  141.2260  156.7313 C   0  0  0  0  0  0  0  0  0  0  0  0
  151.5834  140.0154  155.9333 N   0  0  0  0  0  0  0  0  0  0  0  0
  150.5661  139.1019  155.7419 C   0  0  0  0  0  0  0  0  0  0  0  0
  151.0808  138.1445  154.9142 C   0  0  0  0  0  0  0  0  0  0  0  0
  150.4641  136.9785  154.3943 N   0  0  0  0  0  0  0  0  0  0  0  0
  150.6211  135.7149  154.8209 C   0  0  0  0  0  0  0  0  0  0  0  0
  151.3630  135.3650  155.7389 O   0  0  0  0  0  0  0  0  0  0  0  0
  149.8587  134.8667  154.1176 N   0  0  0  0  0  0  0  0  0  0  0  0
  149.7737  133.4254  154.3449 C   0  0  2  0  0  0  0  0  0  0  0  0
  148.8325  132.7607  153.3598 C   0  0  0  0  0  0  0  0  0  0  0  0
  148.4167  131.4768  154.0879 C   0  0  0  0  0  0  0  0  0  0  0  0
  146.9559  131.0932  153.8051 C   0  0  0  0  0  0  0  0  0  0  0  0
  149.3645  130.3061  153.7760 C   0  0  0  0  0  0  0  0  0  0  0  0
  148.5467  131.7693  155.4786 O   0  0  0  0  0  0  0  0  0  0  0  0
  149.1554  133.0397  155.7067 C   0  0  0  0  0  0  0  0  0  0  0  0
  150.2179  132.8610  156.8028 C   0  0  0  0  0  0  0  0  0  0  0  0
  148.0321  133.9834  156.1854 C   0  0  0  0  0  0  0  0  0  0  0  0
  152.4162  138.5421  154.6451 C   0  0  0  0  0  0  0  0  0  0  0  0
  152.7129  139.6744  155.2645 N   0  0  0  0  0  0  0  0  0  0  0  0
  153.0886  142.2285  159.7145 H   0  0  0  0  0  0  0  0  0  0  0  0
  151.5883  142.8498  159.0331 H   0  0  0  0  0  0  0  0  0  0  0  0
  153.1109  143.0826  158.1740 H   0  0  0  0  0  0  0  0  0  0  0  0
  153.2997  140.5953  157.8527 H   0  0  0  0  0  0  0  0  0  0  0  0
  151.7900  140.3650  158.7009 H   0  0  0  0  0  0  0  0  0  0  0  0
  150.5214  141.4887  156.9306 H   0  0  0  0  0  0  0  0  0  0  0  0
  151.9860  142.0405  156.1429 H   0  0  0  0  0  0  0  0  0  0  0  0
  149.5962  139.2189  156.2025 H   0  0  0  0  0  0  0  0  0  0  0  0
  149.8277  137.1239  153.6244 H   0  0  0  0  0  0  0  0  0  0  0  0
  149.2815  135.2442  153.3807 H   0  0  0  0  0  0  0  0  0  0  0  0
  150.7577  132.9654  154.2347 H   0  0  0  0  0  0  0  0  0  0  0  0
  147.9625  133.3968  153.1880 H   0  0  0  0  0  0  0  0  0  0  0  0
  149.2958  132.5743  152.3902 H   0  0  0  0  0  0  0  0  0  0  0  0
  146.8014  130.8832  152.7463 H   0  0  0  0  0  0  0  0  0  0  0  0
  146.2742  131.8957  154.0888 H   0  0  0  0  0  0  0  0  0  0  0  0
  146.6662  130.2047  154.3666 H   0  0  0  0  0  0  0  0  0  0  0  0
  149.3251  130.0365  152.7202 H   0  0  0  0  0  0  0  0  0  0  0  0
  149.0981  129.4204  154.3537 H   0  0  0  0  0  0  0  0  0  0  0  0
  150.3988  130.5529  154.0171 H   0  0  0  0  0  0  0  0  0  0  0  0
  150.7135  133.8043  157.0320 H   0  0  0  0  0  0  0  0  0  0  0  0
  150.9842  132.1473  156.4988 H   0  0  0  0  0  0  0  0  0  0  0  0
  149.7722  132.4896  157.7259 H   0  0  0  0  0  0  0  0  0  0  0  0
  148.4167  134.9736  156.4316 H   0  0  0  0  0  0  0  0  0  0  0  0
  147.5505  133.5912  157.0816 H   0  0  0  0  0  0  0  0  0  0  0  0
  147.2576  134.1048  155.4278 H   0  0  0  0  0  0  0  0  0  0  0  0
  153.1638  138.0580  154.0342 H   0  0  0  0  0  0  0  0  0  0  0  0
  1  2  1  0  0  0  0
  1 22  1  0  0  0  0
  1 23  1  0  0  0  0
  1 24  1  0  0  0  0
  2  3  1  0  0  0  0
  2 25  1  0  0  0  0
  2 26  1  0  0  0  0
  3  4  1  0  0  0  0
  3 27  1  0  0  0  0
  3 28  1  0  0  0  0
  4 21  1  0  0  0  0
  4  5  1  0  0  0  0
  5  6  2  0  0  0  0
  5 29  1  0  0  0  0
  6  7  1  0  0  0  0
  6 20  1  0  0  0  0
  7  8  1  0  0  0  0
  7 30  1  0  0  0  0
  8  9  2  0  0  0  0
  8 10  1  0  0  0  0
 10 11  1  0  0  0  0
 10 31  1  0  0  0  0
 11 17  1  0  0  0  0
 11 12  1  0  0  0  0
 11 32  1  0  0  0  0
 12 13  1  0  0  0  0
 12 33  1  0  0  0  0
 12 34  1  0  0  0  0
 13 14  1  0  0  0  0
 13 15  1  0  0  0  0
 13 16  1  0  0  0  0
 14 35  1  0  0  0  0
 14 36  1  0  0  0  0
 14 37  1  0  0  0  0
 15 38  1  0  0  0  0
 15 39  1  0  0  0  0
 15 40  1  0  0  0  0
 16 17  1  0  0  0  0
 17 18  1  0  0  0  0
 17 19  1  0  0  0  0
 18 41  1  0  0  0  0
 18 42  1  0  0  0  0
 18 43  1  0  0  0  0
 19 44  1  0  0  0  0
 19 45  1  0  0  0  0
 19 46  1  0  0  0  0
 20 21  2  0  0  0  0
 20 47  1  0  0  0  0
M  END
> <s_m_source_file>
AV-unprocessed.smi

> <i_m_source_file_index>
2463

> <i_lp_mmshare_version>
43012

> <i_f3d_flags>
0

> <s_epik_input>
W0NIM11bQ0gyXVtDSDJdbjFbY0hdYyhbY0hdbjEpW05IXUMoPU8pW05IXVtDQEBIXShDKE8yKShbQ0gzXSlbQ0gzXSlbQ0gyXUMyKFtDSDNdKVtDSDNd

> <s_epik_cmdline>
J2VwaWtfcHl0aG9uJywgJy1waCcsICc3LjAnLCAnLXRuJywgJzgnLCAnLW1hJywgJzIwMCcsICctbWV0YWxfYmluZGluZycsICctaW1hZScsICc8aW5maWxlLm1hZT4nLCAnLW9tYWUnLCAnPG91dGZpbGUubWFlPic=

> <r_lp_tautomer_probability>
1

> <r_epik_Ionization_Penalty>
3.69628e-05

> <r_epik_Ionization_Penalty_Charging>
0

> <r_epik_Ionization_Penalty_Neutral>
3.69628e-05

> <r_epik_State_Penalty>
-0

> <r_epik_Charging_Adjusted_Penalty>
0

> <i_epik_Tot_Q>
0

> <i_epik_Tot_abs_Q>
0

> <r_epik_Metal_State_Penalty>
-0

> <b_epik_Metal_Only>
0

> <s_lp_Force_Field>
OPLS_2005

> <r_lp_Energy>
21.6414

> <b_lp_Chiralities_Consistent>
1

> <s_lp_Variant>
AV-unprocessed.smi:2463-1

> <Gold.Version>
5.8.1

> <Gold.Id.Protein>
6NUR|6NUR_protein|mol2

> <Gold.PLP.Fitness>
44.7961

> <Gold.PLP.PLP>
-35.7710

> <Gold.PLP.part.hbond>
-6.4794

> <Gold.PLP.part.metal>
0.0000

> <Gold.PLP.part.buried>
-3.5529

> <Gold.PLP.part.nonpolar>
-26.3003

> <Gold.PLP.part.repulsive>
0.1728

> <Gold.PLP.ligand.clash>
0.0000

> <Gold.PLP.ligand.torsion>
0.9548

> <Gold.PLP.Chemscore.Hbond>
3.6343

> <Gold.PLP.Chemscore.CHOScore>
0.0000

> <Gold.PLP.Chemscore.Metal>
0.0000

> <Gold.Chemscore.Hbonds>
donor molecule, donor type, donor heavy atom, donor atom, acceptor molecule, acceptor atom, score
      L1  H     7    30       P1  7948  0.67
      L1  H    10    31       P1  7948  0.85
      P1  H  7989  7998       L1    21  0.01
      P1  H  7997  8009       L1    21  1.00
      P1  H 10752 10763       L1     9  0.85

> <Gold.PLP.Chemscore.Internal.Correction>
0.0319

> <Gold.Rescore>
     Score         DG    S(hbond)    S(metal)    S(lipo)     H(rot)  DE(clash)    DE(int)     intcor
     16.71     -17.84       2.02        0.00      76.09       1.29       0.03       1.10       ----

> <Gold.Chemscore.Fitness>
16.7097

> <Gold.Chemscore.DG>
-17.8373

> <Gold.Chemscore.ZeroCoef>
-5.4800

> <Gold.Chemscore.Hbond>
2.0200

> <Gold.Chemscore.Metal>
0.0000

> <Gold.Chemscore.Lipo>
76.0882

> <Gold.Chemscore.Internal_Hbond>
0.0000

> <Gold.Chemscore.DEClash>
0.0308

> <Gold.Chemscore.DEInternal>
1.0968

> <Gold.Chemscore.Rot>
1.2859

> <Gold.Chemscore.Internal.Correction>
   9.000000E+99

> <Gold.Chemscore.Hbonds>
donor molecule, donor type, donor heavy atom, donor atom, acceptor molecule, acceptor atom, score
      L1  H     7    30       P1  7948  0.40
      L1  H    10    31       P1  7948  0.14
      P1  H  7997  8009       L1    21  0.97
      P1  H 10752 10763       L1     9  0.14

> <Gold.Chemscore.Hbond.Weighted>
-6.7469

> <Gold.Chemscore.Metal.Weighted>
-0.0000

> <Gold.Chemscore.Lipo.Weighted>
-8.9023

> <Gold.Chemscore.Internal_Hbond.Weighted>
0.0000

> <Gold.Chemscore.DEClash.Weighted>
0.0308

> <Gold.Chemscore.DEInternal.Weighted>
1.0968

> <Gold.Chemscore.Rot.Weighted>
3.2919

> <Gold.Chemscore.Internal.Correction.Weighted>
   9.000000E+99

> <Gold.Protein.RotatedTorsions>
[ 6907 6896 6895 6894 ] final  124.36 input  -60.11 | X-H torsion
[ 7974 7965 7964 7962 ] final  154.89 input  175.53 | X-H torsion
[ 8008 7997 7996 7995 ] final -140.94 input   59.86 | X-H torsion
[ 10167 10162 10161 10158 ] final  -86.10 input  -65.29 | X-H torsion
[ 10718 10713 10712 10709 ] final   41.99 input   66.30 | X-H torsion
[ 10763 10752 10751 10750 ] final   71.83 input  -60.55 | X-H torsion
[ 11005 11000 10999 10996 ] final   15.42 input  -57.11 | X-H torsion

> <Gold.Protein.ActiveResidues>
 VAL166  LYS551  ARG553  GLY616  TRP617  ASP618  TYR619  PRO620  LYS621  CYS622 
 ASP623  PHE694  ASN695  SER759  ASP760  ASP761  ALA762  ILE779  LEU786  VAL792 
 PHE793  MET794  SER795  GLU796  ALA797  LYS798  CYS799  TRP800  GLU811  SER814 

> <Gold.Protein.RotatedAtoms>
  152.4084  133.6925  159.6376 H   0  0  0  0  0  0  0  0  0  0  0  0  # atno 6907 bound_to 6896
  150.7967  133.8667  159.3256 H   0  0  0  0  0  0  0  0  0  0  0  0  # atno 6908 bound_to 6896
  151.6416  135.1014  160.0194 H   0  0  0  0  0  0  0  0  0  0  0  0  # atno 6909 bound_to 6896
  144.8059  139.6995  143.6162 H   0  0  0  0  0  0  0  0  0  0  0  0  # atno 7974 bound_to 7965
  155.4697  140.0552  157.2981 H   0  0  0  0  0  0  0  0  0  0  0  0  # atno 8008 bound_to 7997
  154.4703  140.2037  155.9965 H   0  0  0  0  0  0  0  0  0  0  0  0  # atno 8009 bound_to 7997
  156.1045  140.3214  155.7992 H   0  0  0  0  0  0  0  0  0  0  0  0  # atno 8010 bound_to 7997
  140.3974  143.2678  151.9187 H   0  0  0  0  0  0  0  0  0  0  0  0  # atno 10167 bound_to 10162
  157.3998  130.7853  149.7339 H   0  0  0  0  0  0  0  0  0  0  0  0  # atno 10718 bound_to 10713
  153.0422  135.5122  154.7652 H   0  0  0  0  0  0  0  0  0  0  0  0  # atno 10763 bound_to 10752
  154.6580  135.2934  154.9905 H   0  0  0  0  0  0  0  0  0  0  0  0  # atno 10764 bound_to 10752
  154.0766  135.6670  153.4884 H   0  0  0  0  0  0  0  0  0  0  0  0  # atno 10765 bound_to 10752
  140.4585  134.1152  155.7713 H   0  0  0  0  0  0  0  0  0  0  0  0  # atno 11005 bound_to 11000
  146.2351  139.5888  142.9529 LP  0  0  0  0  0  0  0  0  0  0  0  0  # atno 17320 bound_to 7965
  145.5439  141.0419  143.2316 LP  0  0  0  0  0  0  0  0  0  0  0  0  # atno 17321 bound_to 7965
  139.4786  144.5668  151.8152 LP  0  0  0  0  0  0  0  0  0  0  0  0  # atno 17342 bound_to 10162
  140.4776  144.1496  150.5927 LP  0  0  0  0  0  0  0  0  0  0  0  0  # atno 17343 bound_to 10162
  155.9820  130.4014  150.3440 LP  0  0  0  0  0  0  0  0  0  0  0  0  # atno 17370 bound_to 10713
  157.1566  131.0334  151.2860 LP  0  0  0  0  0  0  0  0  0  0  0  0  # atno 17371 bound_to 10713
  141.1632  133.8753  157.1789 LP  0  0  0  0  0  0  0  0  0  0  0  0  # atno 17394 bound_to 11000
  139.9961  135.0046  157.0085 LP  0  0  0  0  0  0  0  0  0  0  0  0  # atno 17395 bound_to 11000

$$$$
