AV-unprocessed.smi:565|AV-procd|sdf|2952|dock9
  -GOLD-   2262023453D 1   1.00000     0.00000
 Structure written by MMmdl.
 50 51  0  0  0  0  0  0  0  0  2 V2000
  148.4899  136.7185  158.6448 C   0  0  0  0  0  0  0  0  0  0  0  0
  147.9665  136.1865  159.9485 C   0  0  0  0  0  0  0  0  0  0  0  0
  147.8645  137.0026  160.9837 N   0  0  0  0  0  0  0  0  0  0  0  0
  147.3838  136.2349  161.9819 N   0  0  0  0  0  0  0  0  0  0  0  0
  147.1447  136.8283  163.2834 C   0  0  0  0  0  0  0  0  0  0  0  0
  147.1894  134.9281  161.5788 C   0  0  0  0  0  0  0  0  0  0  0  0
  146.6735  133.8759  162.5073 C   0  0  0  0  0  0  0  0  0  0  0  0
  147.5528  134.8572  160.2603 C   0  0  0  0  0  0  0  0  0  0  0  0
  147.5354  133.6604  159.3435 C   0  0  0  0  0  0  0  0  0  0  0  0
  146.3713  133.7938  158.3631 C   0  0  0  0  0  0  0  0  0  0  0  0
  145.2923  134.2478  158.7441 O   0  0  0  0  0  0  0  0  0  0  0  0
  146.5933  133.3715  157.1089 N   0  0  0  0  0  0  0  0  0  0  0  0
  145.5937  133.3452  156.0492 C   0  0  0  0  0  0  0  0  0  0  0  0
  146.0699  132.4904  154.8587 C   0  0  0  0  0  0  0  0  0  0  0  0
  145.2212  132.6691  153.6542 N   0  3  2  0  0  0  0  0  0  0  0  0
  145.5177  131.6597  152.6049 C   0  0  0  0  0  0  0  0  0  0  0  0
  144.5193  131.7604  151.4407 C   0  0  0  0  0  0  0  0  0  0  0  0
  144.4994  133.1783  150.8522 C   0  0  0  0  0  0  0  0  0  0  0  0
  144.2564  134.2342  151.9462 C   0  0  1  0  0  0  0  0  0  0  0  0
  142.7980  134.2606  152.4373 C   0  0  0  0  0  0  0  0  0  0  0  0
  145.2576  134.0524  153.1057 C   0  0  0  0  0  0  0  0  0  0  0  0
  147.9673  136.2724  157.7988 H   0  0  0  0  0  0  0  0  0  0  0  0
  149.5514  136.4965  158.5346 H   0  0  0  0  0  0  0  0  0  0  0  0
  148.3671  137.8000  158.5728 H   0  0  0  0  0  0  0  0  0  0  0  0
  146.1129  136.6468  163.5850 H   0  0  0  0  0  0  0  0  0  0  0  0
  147.3184  137.9048  163.2545 H   0  0  0  0  0  0  0  0  0  0  0  0
  147.8149  136.3818  164.0180 H   0  0  0  0  0  0  0  0  0  0  0  0
  146.8102  132.8784  162.0898 H   0  0  0  0  0  0  0  0  0  0  0  0
  145.6098  134.0182  162.6985 H   0  0  0  0  0  0  0  0  0  0  0  0
  147.1974  133.9070  163.4629 H   0  0  0  0  0  0  0  0  0  0  0  0
  148.4632  133.5734  158.7775 H   0  0  0  0  0  0  0  0  0  0  0  0
  147.4406  132.7298  159.9043 H   0  0  0  0  0  0  0  0  0  0  0  0
  147.5118  133.0170  156.8835 H   0  0  0  0  0  0  0  0  0  0  0  0
  144.6447  132.9704  156.4367 H   0  0  0  0  0  0  0  0  0  0  0  0
  145.4199  134.3768  155.7458 H   0  0  0  0  0  0  0  0  0  0  0  0
  147.1111  132.7089  154.6153 H   0  0  0  0  0  0  0  0  0  0  0  0
  146.0393  131.4418  155.1582 H   0  0  0  0  0  0  0  0  0  0  0  0
  146.5376  131.7989  152.2426 H   0  0  0  0  0  0  0  0  0  0  0  0
  145.4663  130.6565  153.0296 H   0  0  0  0  0  0  0  0  0  0  0  0
  144.7817  131.0413  150.6643 H   0  0  0  0  0  0  0  0  0  0  0  0
  143.5223  131.4852  151.7859 H   0  0  0  0  0  0  0  0  0  0  0  0
  145.4575  133.3759  150.3697 H   0  0  0  0  0  0  0  0  0  0  0  0
  143.7431  133.2538  150.0701 H   0  0  0  0  0  0  0  0  0  0  0  0
  144.4466  135.2116  151.5007 H   0  0  0  0  0  0  0  0  0  0  0  0
  142.5145  133.3279  152.9252 H   0  0  0  0  0  0  0  0  0  0  0  0
  142.1084  134.4240  151.6087 H   0  0  0  0  0  0  0  0  0  0  0  0
  142.6420  135.0665  153.1551 H   0  0  0  0  0  0  0  0  0  0  0  0
  145.0376  134.7828  153.8833 H   0  0  0  0  0  0  0  0  0  0  0  0
  146.2687  134.2695  152.7571 H   0  0  0  0  0  0  0  0  0  0  0  0
  144.2709  132.4941  153.9487 H   0  0  0  0  0  0  0  0  0  0  0  0
  1  2  1  0  0  0  0
  1 22  1  0  0  0  0
  1 23  1  0  0  0  0
  1 24  1  0  0  0  0
  2  8  1  0  0  0  0
  2  3  2  0  0  0  0
  3  4  1  0  0  0  0
  4  5  1  0  0  0  0
  4  6  1  0  0  0  0
  5 25  1  0  0  0  0
  5 26  1  0  0  0  0
  5 27  1  0  0  0  0
  6  7  1  0  0  0  0
  6  8  2  0  0  0  0
  7 28  1  0  0  0  0
  7 29  1  0  0  0  0
  7 30  1  0  0  0  0
  8  9  1  0  0  0  0
  9 10  1  0  0  0  0
  9 31  1  0  0  0  0
  9 32  1  0  0  0  0
 10 11  2  0  0  0  0
 10 12  1  0  0  0  0
 12 13  1  0  0  0  0
 12 33  1  0  0  0  0
 13 14  1  0  0  0  0
 13 34  1  0  0  0  0
 13 35  1  0  0  0  0
 14 15  1  0  0  0  0
 14 36  1  0  0  0  0
 14 37  1  0  0  0  0
 15 21  1  0  0  0  0
 15 16  1  0  0  0  0
 15 50  1  0  0  0  0
 16 17  1  0  0  0  0
 16 38  1  0  0  0  0
 16 39  1  0  0  0  0
 17 18  1  0  0  0  0
 17 40  1  0  0  0  0
 17 41  1  0  0  0  0
 18 19  1  0  0  0  0
 18 42  1  0  0  0  0
 18 43  1  0  0  0  0
 19 20  1  0  0  0  0
 19 21  1  0  0  0  0
 19 44  1  0  0  0  0
 20 45  1  0  0  0  0
 20 46  1  0  0  0  0
 20 47  1  0  0  0  0
 21 48  1  0  0  0  0
 21 49  1  0  0  0  0
M  CHG  1  15   1
M  END
> <s_m_source_file>
AV-unprocessed.smi

> <i_m_source_file_index>
565

> <i_lp_mmshare_version>
43012

> <i_f3d_flags>
0

> <s_epik_input>
W0NIM11jMW5uKFtDSDNdKWMoW0NIM10pYzFbQ0gyXUMoPU8pW05IXVtDSDJdW0NIMl1OMltDSDJdW0NIMl1bQ0gyXVtDQEBIXShbQ0gzXSlbQ0gyXTI=

> <s_epik_cmdline>
J2VwaWtfcHl0aG9uJywgJy1waCcsICc3LjAnLCAnLXRuJywgJzgnLCAnLW1hJywgJzIwMCcsICctbWV0YWxfYmluZGluZycsICctaW1hZScsICc8aW5maWxlLm1hZT4nLCAnLW9tYWUnLCAnPG91dGZpbGUubWFlPic=

> <r_lp_tautomer_probability>
1

> <r_epik_Ionization_Penalty>
0.00411138

> <r_epik_Ionization_Penalty_Charging>
0.0019503

> <r_epik_Ionization_Penalty_Neutral>
0.00216107

> <r_epik_State_Penalty>
-0

> <r_epik_Charging_Adjusted_Penalty>
0.0019503

> <i_epik_Tot_Q>
1

> <i_epik_Tot_abs_Q>
1

> <r_epik_Metal_State_Penalty>
-0

> <b_epik_Metal_Only>
0

> <s_lp_Force_Field>
OPLS_2005

> <r_lp_Energy>
12.6128

> <b_lp_Chiralities_Consistent>
1

> <s_lp_Variant>
AV-unprocessed.smi:565-2

> <Gold.Version>
5.8.1

> <Gold.Id.Protein>
6NUR|6NUR_protein|mol2

> <Gold.PLP.Fitness>
43.9794

> <Gold.PLP.PLP>
-34.3664

> <Gold.PLP.part.hbond>
-3.0000

> <Gold.PLP.part.metal>
0.0000

> <Gold.PLP.part.buried>
-5.3582

> <Gold.PLP.part.nonpolar>
-27.1808

> <Gold.PLP.part.repulsive>
0.0000

> <Gold.PLP.ligand.clash>
0.0000

> <Gold.PLP.ligand.torsion>
0.6335

> <Gold.PLP.Chemscore.Hbond>
3.6114

> <Gold.PLP.Chemscore.CHOScore>
0.0000

> <Gold.PLP.Chemscore.Metal>
0.0000

> <Gold.Chemscore.Hbonds>
donor molecule, donor type, donor heavy atom, donor atom, acceptor molecule, acceptor atom, score
      L1  H    15    50       P1 10957  2.00
      P1  H  6931  6943       L1     3  1.00
      P1  H  6934  6947       L1     3  0.62

> <Gold.PLP.Chemscore.Internal.Correction>
0.0456

> <Gold.Rescore>
     Score         DG    S(hbond)    S(metal)    S(lipo)     H(rot)  DE(clash)    DE(int)     intcor
     16.33     -18.24       2.34        0.00      77.54       1.61       0.98       0.93       ----

> <Gold.Chemscore.Fitness>
16.3258

> <Gold.Chemscore.DG>
-18.2413

> <Gold.Chemscore.ZeroCoef>
-5.4800

> <Gold.Chemscore.Hbond>
2.3417

> <Gold.Chemscore.Metal>
0.0000

> <Gold.Chemscore.Lipo>
77.5411

> <Gold.Chemscore.Internal_Hbond>
0.0000

> <Gold.Chemscore.DEClash>
0.9844

> <Gold.Chemscore.DEInternal>
0.9311

> <Gold.Chemscore.Rot>
1.6142

> <Gold.Chemscore.Internal.Correction>
   9.000000E+99

> <Gold.Chemscore.Hbonds>
donor molecule, donor type, donor heavy atom, donor atom, acceptor molecule, acceptor atom, score
      L1  H    15    50       P1 10957  0.55
      P1  H  6931  6943       L1     3  0.42
      P1  H  6934  6947       L1     3  0.59

> <Gold.Chemscore.Hbond.Weighted>
-7.8214

> <Gold.Chemscore.Metal.Weighted>
-0.0000

> <Gold.Chemscore.Lipo.Weighted>
-9.0723

> <Gold.Chemscore.Internal_Hbond.Weighted>
0.0000

> <Gold.Chemscore.DEClash.Weighted>
0.9844

> <Gold.Chemscore.DEInternal.Weighted>
0.9311

> <Gold.Chemscore.Rot.Weighted>
4.1324

> <Gold.Chemscore.Internal.Correction.Weighted>
   9.000000E+99

> <Gold.Protein.RotatedTorsions>
[ 6907 6896 6895 6894 ] final  107.84 input  -60.11 | X-H torsion
[ 7974 7965 7964 7962 ] final -156.32 input  175.53 | X-H torsion
[ 8008 7997 7996 7995 ] final   19.72 input   59.86 | X-H torsion
[ 10167 10162 10161 10158 ] final -130.46 input  -65.29 | X-H torsion
[ 10718 10713 10712 10709 ] final  150.09 input   66.30 | X-H torsion
[ 10763 10752 10751 10750 ] final  -49.25 input  -60.55 | X-H torsion
[ 11005 11000 10999 10996 ] final   -3.03 input  -57.11 | X-H torsion

> <Gold.Protein.ActiveResidues>
 VAL166  LYS551  ARG553  GLY616  TRP617  ASP618  TYR619  PRO620  LYS621  CYS622 
 ASP623  PHE694  ASN695  SER759  ASP760  ASP761  ALA762  ILE779  LEU786  VAL792 
 PHE793  MET794  SER795  GLU796  ALA797  LYS798  CYS799  TRP800  GLU811  SER814 

> <Gold.Protein.RotatedAtoms>
  152.5137  133.9176  159.7518 H   0  0  0  0  0  0  0  0  0  0  0  0  # atno 6907 bound_to 6896
  150.9555  133.6494  159.2771 H   0  0  0  0  0  0  0  0  0  0  0  0  # atno 6908 bound_to 6896
  151.3757  135.0936  159.9533 H   0  0  0  0  0  0  0  0  0  0  0  0  # atno 6909 bound_to 6896
  144.7598  140.4126  143.5985 H   0  0  0  0  0  0  0  0  0  0  0  0  # atno 7974 bound_to 7965
  154.9249  140.3032  155.5197 H   0  0  0  0  0  0  0  0  0  0  0  0  # atno 8008 bound_to 7997
  156.3007  140.2364  156.4239 H   0  0  0  0  0  0  0  0  0  0  0  0  # atno 8009 bound_to 7997
  154.8294  140.0419  157.1455 H   0  0  0  0  0  0  0  0  0  0  0  0  # atno 8010 bound_to 7997
  139.9290  143.6293  152.2534 H   0  0  0  0  0  0  0  0  0  0  0  0  # atno 10167 bound_to 10162
  157.2878  131.0847  151.1484 H   0  0  0  0  0  0  0  0  0  0  0  0  # atno 10718 bound_to 10713
  154.0911  135.6577  153.4852 H   0  0  0  0  0  0  0  0  0  0  0  0  # atno 10763 bound_to 10752
  153.0321  135.5202  154.7380 H   0  0  0  0  0  0  0  0  0  0  0  0  # atno 10764 bound_to 10752
  154.6503  135.3000  154.9963 H   0  0  0  0  0  0  0  0  0  0  0  0  # atno 10765 bound_to 10752
  140.6649  133.9288  155.8458 H   0  0  0  0  0  0  0  0  0  0  0  0  # atno 11005 bound_to 11000
  145.6656  139.1589  143.2783 LP  0  0  0  0  0  0  0  0  0  0  0  0  # atno 17320 bound_to 7965
  146.1649  140.6732  142.9260 LP  0  0  0  0  0  0  0  0  0  0  0  0  # atno 17321 bound_to 7965
  139.6798  144.7656  151.1630 LP  0  0  0  0  0  0  0  0  0  0  0  0  # atno 17342 bound_to 10162
  140.7642  143.5742  150.8963 LP  0  0  0  0  0  0  0  0  0  0  0  0  # atno 17343 bound_to 10162
  157.2892  130.6788  149.6105 LP  0  0  0  0  0  0  0  0  0  0  0  0  # atno 17370 bound_to 10713
  155.9666  130.4426  150.5387 LP  0  0  0  0  0  0  0  0  0  0  0  0  # atno 17371 bound_to 10713
  141.0437  134.0584  157.3870 LP  0  0  0  0  0  0  0  0  0  0  0  0  # atno 17394 bound_to 11000
  139.9001  135.0161  156.7225 LP  0  0  0  0  0  0  0  0  0  0  0  0  # atno 17395 bound_to 11000

$$$$
