AV-unprocessed.smi:34|AV-procd|sdf|215|dock10
  -GOLD-   2262015523D 1   1.00000     0.00000
 Structure written by MMmdl.
 55 59  0  0  0  0  0  0  0  0  1 V2000
  152.3175  140.3210  159.2784 O   0  0  0  0  0  0  0  0  0  0  0  0
  151.9247  141.1772  158.4853 C   0  0  0  0  0  0  0  0  0  0  0  0
  151.6293  140.8682  157.0976 N   0  0  0  0  0  0  0  0  0  0  0  0
  151.6943  139.6681  156.4751 C   0  0  0  0  0  0  0  0  0  0  0  0
  152.6289  139.3849  155.5303 N   0  0  0  0  0  0  0  0  0  0  0  0
  152.6390  138.1907  154.9321 C   0  0  0  0  0  0  0  0  0  0  0  0
  151.8180  137.1564  155.1235 N   0  0  0  0  0  0  0  0  0  0  0  0
  150.8805  137.4275  156.0765 C   0  0  0  0  0  0  0  0  0  0  0  0
  150.7587  138.6503  156.7946 C   0  0  0  0  0  0  0  0  0  0  0  0
  149.6971  138.5701  157.6855 N   0  0  0  0  0  0  0  0  0  0  0  0
  149.2183  137.3704  157.4968 C   0  0  0  0  0  0  0  0  0  0  0  0
  149.8613  136.6175  156.5389 N   0  0  0  0  0  0  0  0  0  0  0  0
  149.5157  135.2267  156.1083 C   0  0  2  0  0  0  0  0  0  0  0  0
  149.6481  134.3706  157.2081 O   0  0  0  0  0  0  0  0  0  0  0  0
  150.6478  133.3870  156.9446 C   0  0  1  0  0  0  0  0  0  0  0  0
  150.3488  132.0813  157.6923 C   0  0  0  0  0  0  0  0  0  0  0  0
  151.3324  131.1170  157.3537 O   0  0  0  0  0  0  0  0  0  0  0  0
  152.6246  131.4790  157.2402 C   0  0  0  0  0  0  0  0  0  0  0  0
  153.1307  132.4083  157.8724 O   0  0  0  0  0  0  0  0  0  0  0  0
  153.3802  130.6334  156.2710 C   0  0  0  0  0  0  0  0  0  0  0  0
  152.7374  129.5271  155.6678 C   0  0  0  0  0  0  0  0  0  0  0  0
  153.4248  128.7117  154.7476 C   0  0  0  0  0  0  0  0  0  0  0  0
  154.7639  128.9925  154.4193 C   0  0  0  0  0  0  0  0  0  0  0  0
  155.4145  130.0905  155.0117 C   0  0  0  0  0  0  0  0  0  0  0  0
  154.7287  130.9073  155.9319 C   0  0  0  0  0  0  0  0  0  0  0  0
  150.6501  133.2756  155.4206 C   0  0  1  0  0  0  0  0  0  0  0  0
  149.5980  132.5470  155.0340 F   0  0  0  0  0  0  0  0  0  0  0  0
  150.4750  134.7294  155.0176 C   0  0  1  0  0  0  0  0  0  0  0  0
  149.9480  134.8212  153.7092 O   0  0  0  0  0  0  0  0  0  0  0  0
  151.8030  142.6209  158.8783 C   0  0  0  0  0  0  0  0  0  0  0  0
  150.8206  143.4370  158.2734 C   0  0  0  0  0  0  0  0  0  0  0  0
  150.7033  144.7949  158.6289 C   0  0  0  0  0  0  0  0  0  0  0  0
  151.5727  145.3505  159.5863 C   0  0  0  0  0  0  0  0  0  0  0  0
  152.5625  144.5483  160.1848 C   0  0  0  0  0  0  0  0  0  0  0  0
  152.6807  143.1900  159.8303 C   0  0  0  0  0  0  0  0  0  0  0  0
  151.3485  141.6486  156.5220 H   0  0  0  0  0  0  0  0  0  0  0  0
  153.4133  138.0448  154.1934 H   0  0  0  0  0  0  0  0  0  0  0  0
  148.3668  137.0021  158.0503 H   0  0  0  0  0  0  0  0  0  0  0  0
  148.4714  135.2677  155.7957 H   0  0  0  0  0  0  0  0  0  0  0  0
  151.6116  133.7717  157.2761 H   0  0  0  0  0  0  0  0  0  0  0  0
  150.3675  132.2546  158.7689 H   0  0  0  0  0  0  0  0  0  0  0  0
  149.3531  131.7149  157.4380 H   0  0  0  0  0  0  0  0  0  0  0  0
  151.7094  129.2919  155.9038 H   0  0  0  0  0  0  0  0  0  0  0  0
  152.9233  127.8702  154.2931 H   0  0  0  0  0  0  0  0  0  0  0  0
  155.2907  128.3669  153.7137 H   0  0  0  0  0  0  0  0  0  0  0  0
  156.4420  130.3082  154.7598 H   0  0  0  0  0  0  0  0  0  0  0  0
  155.2578  131.7423  156.3672 H   0  0  0  0  0  0  0  0  0  0  0  0
  151.5514  132.8133  155.0168 H   0  0  0  0  0  0  0  0  0  0  0  0
  151.4287  135.2548  155.0818 H   0  0  0  0  0  0  0  0  0  0  0  0
  149.4436  135.6178  153.6458 H   0  0  0  0  0  0  0  0  0  0  0  0
  150.1448  143.0252  157.5372 H   0  0  0  0  0  0  0  0  0  0  0  0
  149.9451  145.4100  158.1667 H   0  0  0  0  0  0  0  0  0  0  0  0
  151.4823  146.3915  159.8594 H   0  0  0  0  0  0  0  0  0  0  0  0
  153.2326  144.9757  160.9160 H   0  0  0  0  0  0  0  0  0  0  0  0
  153.4518  142.5944  160.2970 H   0  0  0  0  0  0  0  0  0  0  0  0
  1  2  2  0  0  0  0
  2  3  1  0  0  0  0
  2 30  1  0  0  0  0
  3  4  1  0  0  0  0
  3 36  1  0  0  0  0
  4  9  1  0  0  0  0
  4  5  2  0  0  0  0
  5  6  1  0  0  0  0
  6  7  2  0  0  0  0
  6 37  1  0  0  0  0
  7  8  1  0  0  0  0
  8 12  1  0  0  0  0
  8  9  2  0  0  0  0
  9 10  1  0  0  0  0
 10 11  2  0  0  0  0
 11 12  1  0  0  0  0
 11 38  1  0  0  0  0
 12 13  1  0  0  0  0
 13 28  1  0  0  0  0
 13 14  1  0  0  0  0
 13 39  1  0  0  0  0
 14 15  1  0  0  0  0
 15 16  1  0  0  0  0
 15 26  1  0  0  0  0
 15 40  1  0  0  0  0
 16 17  1  0  0  0  0
 16 41  1  0  0  0  0
 16 42  1  0  0  0  0
 17 18  1  0  0  0  0
 18 19  2  0  0  0  0
 18 20  1  0  0  0  0
 20 25  1  0  0  0  0
 20 21  2  0  0  0  0
 21 22  1  0  0  0  0
 21 43  1  0  0  0  0
 22 23  2  0  0  0  0
 22 44  1  0  0  0  0
 23 24  1  0  0  0  0
 23 45  1  0  0  0  0
 24 25  2  0  0  0  0
 24 46  1  0  0  0  0
 25 47  1  0  0  0  0
 26 27  1  0  0  0  0
 26 28  1  0  0  0  0
 26 48  1  0  0  0  0
 28 29  1  0  0  0  0
 28 49  1  0  0  0  0
 29 50  1  0  0  0  0
 30 35  1  0  0  0  0
 30 31  2  0  0  0  0
 31 32  1  0  0  0  0
 31 51  1  0  0  0  0
 32 33  2  0  0  0  0
 32 52  1  0  0  0  0
 33 34  1  0  0  0  0
 33 53  1  0  0  0  0
 34 35  2  0  0  0  0
 34 54  1  0  0  0  0
 35 55  1  0  0  0  0
M  END
> <s_m_source_file>
AV-unprocessed.smi

> <i_m_source_file_index>
34

> <i_lp_mmshare_version>
43012

> <i_f3d_flags>
0

> <s_epik_input>
W2NIXTFbY0hdW2NIXVtjSF1bY0hdYzFDKD1PKVtOSF1jKG5bY0hdbjIpYyhjMjMpbltjSF1uM1tDQEBIXTRPW0NASF0oW0NAQEhdKEYpW0NASF00W09IXSlbQ0gyXU9DKD1PKWM1W2NIXVtjSF1bY0hdW2NIXVtjSF01

> <s_epik_cmdline>
J2VwaWtfcHl0aG9uJywgJy1waCcsICc3LjAnLCAnLXRuJywgJzgnLCAnLW1hJywgJzIwMCcsICctbWV0YWxfYmluZGluZycsICctaW1hZScsICc8aW5maWxlLm1hZT4nLCAnLW9tYWUnLCAnPG91dGZpbGUubWFlPic=

> <r_lp_tautomer_probability>
1

> <r_epik_Ionization_Penalty>
0.00257489

> <r_epik_Ionization_Penalty_Charging>
0

> <r_epik_Ionization_Penalty_Neutral>
0.00257489

> <r_epik_State_Penalty>
0.00519398

> <r_epik_Charging_Adjusted_Penalty>
0.00519398

> <i_epik_Tot_Q>
0

> <i_epik_Tot_abs_Q>
0

> <r_epik_Metal_State_Penalty>
0.335891

> <b_epik_Metal_Only>
0

> <s_epik_Chemistry_Notes>
This compound has an ester and may undergo hydrolysis at high or low pH. This compound contains an acetal/aminal-like group ( X-CH(R)-Y where X, Y are N, S, or O) that may be acid/base labile, releasing an aldehyde.

> <s_lp_Force_Field>
OPLS_2005

> <r_lp_Energy>
46.7099

> <b_lp_Chiralities_Consistent>
1

> <s_lp_Variant>
AV-unprocessed.smi:34-1

> <Gold.Version>
5.8.1

> <Gold.Id.Protein>
6NUR|6NUR_protein|mol2

> <Gold.PLP.Fitness>
54.7103

> <Gold.PLP.PLP>
-47.7043

> <Gold.PLP.part.hbond>
-4.1019

> <Gold.PLP.part.metal>
0.0000

> <Gold.PLP.part.buried>
-3.0467

> <Gold.PLP.part.nonpolar>
-41.2882

> <Gold.PLP.part.repulsive>
0.1983

> <Gold.PLP.ligand.clash>
0.0000

> <Gold.PLP.ligand.torsion>
1.5739

> <Gold.PLP.Chemscore.Hbond>
3.2790

> <Gold.PLP.Chemscore.CHOScore>
0.0000

> <Gold.PLP.Chemscore.Metal>
0.0000

> <Gold.Chemscore.Hbonds>
donor molecule, donor type, donor heavy atom, donor atom, acceptor molecule, acceptor atom, score
      L1  H    29    50       P1  7948  0.32
      P1  H  6896  6908       L1    19  0.86
      P1  H  7997  8008       L1     5  1.00
      P1  H 10752 10764       L1     7  1.00

> <Gold.PLP.Chemscore.Internal.Correction>
0.3168

> <Gold.Rescore>
     Score         DG    S(hbond)    S(metal)    S(lipo)     H(rot)  DE(clash)    DE(int)     intcor
     14.05     -20.25       2.29        0.00     120.30       2.72       1.94       4.26       ----

> <Gold.Chemscore.Fitness>
14.0511

> <Gold.Chemscore.DG>
-20.2517

> <Gold.Chemscore.ZeroCoef>
-5.4800

> <Gold.Chemscore.Hbond>
2.2945

> <Gold.Chemscore.Metal>
0.0000

> <Gold.Chemscore.Lipo>
120.2988

> <Gold.Chemscore.Internal_Hbond>
0.0000

> <Gold.Chemscore.DEClash>
1.9386

> <Gold.Chemscore.DEInternal>
4.2620

> <Gold.Chemscore.Rot>
2.7215

> <Gold.Chemscore.Internal.Correction>
   9.000000E+99

> <Gold.Chemscore.Hbonds>
donor molecule, donor type, donor heavy atom, donor atom, acceptor molecule, acceptor atom, score
      L1  H    29    50       P1  7948  0.10
      P1  H  6896  6908       L1    19  0.80
      P1  H  7997  8008       L1     5  0.41
      P1  H 10752 10764       L1     7  0.32

> <Gold.Chemscore.Hbond.Weighted>
-7.6638

> <Gold.Chemscore.Metal.Weighted>
-0.0000

> <Gold.Chemscore.Lipo.Weighted>
-14.0750

> <Gold.Chemscore.Internal_Hbond.Weighted>
0.0000

> <Gold.Chemscore.DEClash.Weighted>
1.9386

> <Gold.Chemscore.DEInternal.Weighted>
4.2620

> <Gold.Chemscore.Rot.Weighted>
6.9670

> <Gold.Chemscore.Internal.Correction.Weighted>
   9.000000E+99

> <Gold.Protein.RotatedTorsions>
[ 6907 6896 6895 6894 ] final   42.19 input  -60.11 | X-H torsion
[ 7974 7965 7964 7962 ] final   53.51 input  175.53 | X-H torsion
[ 8008 7997 7996 7995 ] final  -42.21 input   59.86 | X-H torsion
[ 10167 10162 10161 10158 ] final -151.93 input  -65.29 | X-H torsion
[ 10718 10713 10712 10709 ] final   45.34 input   66.30 | X-H torsion
[ 10763 10752 10751 10750 ] final  -58.47 input  -60.55 | X-H torsion
[ 11005 11000 10999 10996 ] final  133.06 input  -57.11 | X-H torsion

> <Gold.Protein.ActiveResidues>
 VAL166  LYS551  ARG553  GLY616  TRP617  ASP618  TYR619  PRO620  LYS621  CYS622 
 ASP623  PHE694  ASN695  SER759  ASP760  ASP761  ALA762  ILE779  LEU786  VAL792 
 PHE793  MET794  SER795  GLU796  ALA797  LYS798  CYS799  TRP800  GLU811  SER814 

> <Gold.Protein.RotatedAtoms>
  152.2048  134.8555  160.0503 H   0  0  0  0  0  0  0  0  0  0  0  0  # atno 6907 bound_to 6896
  151.9395  133.3629  159.3968 H   0  0  0  0  0  0  0  0  0  0  0  0  # atno 6908 bound_to 6896
  150.6963  134.4378  159.5322 H   0  0  0  0  0  0  0  0  0  0  0  0  # atno 6909 bound_to 6896
  145.9704  139.4143  143.0194 H   0  0  0  0  0  0  0  0  0  0  0  0  # atno 7974 bound_to 7965
  154.4000  140.1479  156.3318 H   0  0  0  0  0  0  0  0  0  0  0  0  # atno 8008 bound_to 7997
  155.8437  140.3461  155.5627 H   0  0  0  0  0  0  0  0  0  0  0  0  # atno 8009 bound_to 7997
  155.8060  140.0877  157.1921 H   0  0  0  0  0  0  0  0  0  0  0  0  # atno 8010 bound_to 7997
  139.7225  143.8935  152.2508 H   0  0  0  0  0  0  0  0  0  0  0  0  # atno 10167 bound_to 10162
  157.4365  130.8055  149.7653 H   0  0  0  0  0  0  0  0  0  0  0  0  # atno 10718 bound_to 10713
  154.2385  135.6348  153.5199 H   0  0  0  0  0  0  0  0  0  0  0  0  # atno 10763 bound_to 10752
  152.9934  135.5536  154.5935 H   0  0  0  0  0  0  0  0  0  0  0  0  # atno 10764 bound_to 10752
  154.5435  135.2896  155.1048 H   0  0  0  0  0  0  0  0  0  0  0  0  # atno 10765 bound_to 10752
  139.9828  134.9542  156.9670 H   0  0  0  0  0  0  0  0  0  0  0  0  # atno 11005 bound_to 11000
  145.7914  140.9812  143.1047 LP  0  0  0  0  0  0  0  0  0  0  0  0  # atno 17320 bound_to 7965
  144.6835  139.9687  143.7482 LP  0  0  0  0  0  0  0  0  0  0  0  0  # atno 17321 bound_to 7965
  139.8835  144.7005  150.8851 LP  0  0  0  0  0  0  0  0  0  0  0  0  # atno 17342 bound_to 10162
  140.7756  143.3642  151.1770 LP  0  0  0  0  0  0  0  0  0  0  0  0  # atno 17343 bound_to 10162
  155.9932  130.3926  150.2909 LP  0  0  0  0  0  0  0  0  0  0  0  0  # atno 17370 bound_to 10713
  157.1070  131.0211  151.3063 LP  0  0  0  0  0  0  0  0  0  0  0  0  # atno 17371 bound_to 10713
  140.5062  134.1047  155.7260 LP  0  0  0  0  0  0  0  0  0  0  0  0  # atno 17394 bound_to 11000
  141.1498  133.8990  157.2127 LP  0  0  0  0  0  0  0  0  0  0  0  0  # atno 17395 bound_to 11000

$$$$
