AV-unprocessed.smi:2531|AV-procd|sdf|9967|dock7
  -GOLD-   2272014 13D 1   1.00000     0.00000
 Structure written by MMmdl.
 46 48  0  0  0  0  0  0  0  0  3 V2000
  151.2994  142.9048  157.0754 O   0  0  0  0  0  0  0  0  0  0  0  0
  151.7192  142.3290  158.0803 C   0  0  0  0  0  0  0  0  0  0  0  0
  152.6061  143.0732  159.0997 C   0  0  0  0  0  0  0  0  0  0  0  0
  152.1373  142.8653  160.5588 C   0  0  0  0  0  0  0  0  0  0  0  0
  151.6478  144.2268  161.0748 C   0  0  0  0  0  0  0  0  0  0  0  0
  151.4906  145.1095  159.8379 C   0  0  0  0  0  0  0  0  0  0  0  0
  152.5606  144.5952  158.8766 C   0  0  0  0  0  0  0  0  0  0  0  0
  151.4892  140.9657  158.2890 N   0  0  0  0  0  0  0  0  0  0  0  0
  151.2005  140.0767  157.1728 C   0  0  0  0  0  0  0  0  0  0  0  0
  151.8533  138.9783  158.0198 C   0  0  0  0  0  0  0  0  0  0  0  0
  153.0341  137.9316  157.0565 S   0  0  0  0  0  0  0  0  0  0  0  0
  152.4771  136.5695  157.0881 O   0  0  0  0  0  0  0  0  0  0  0  0
  153.1786  138.5572  155.7318 O   0  0  0  0  0  0  0  0  0  0  0  0
  154.3702  138.0801  157.9658 N   0  5  0  0  0  0  0  0  0  0  0  0
  154.5766  137.2064  159.1095 C   0  0  0  0  0  0  0  0  0  0  0  0
  153.3286  137.1786  160.0206 C   0  0  0  0  0  0  0  0  0  0  0  0
  153.5778  136.5568  161.3881 C   0  0  0  0  0  0  0  0  0  0  0  0
  153.3009  137.2488  162.5892 C   0  0  0  0  0  0  0  0  0  0  0  0
  153.5629  136.6216  163.8251 C   0  0  0  0  0  0  0  0  0  0  0  0
  154.1004  135.3178  163.8379 C   0  0  0  0  0  0  0  0  0  0  0  0
  154.3637  134.6731  162.6124 C   0  0  0  0  0  0  0  0  0  0  0  0
  154.0989  135.3067  161.4490 N   0  3  0  0  0  0  0  0  0  0  0  0
  152.5111  140.0913  158.8470 C   0  0  0  0  0  0  0  0  0  0  0  0
  153.6329  142.7183  159.0048 H   0  0  0  0  0  0  0  0  0  0  0  0
  151.3402  142.1241  160.6354 H   0  0  0  0  0  0  0  0  0  0  0  0
  152.9558  142.4987  161.1794 H   0  0  0  0  0  0  0  0  0  0  0  0
  150.7217  144.1477  161.6453 H   0  0  0  0  0  0  0  0  0  0  0  0
  152.4025  144.6578  161.7342 H   0  0  0  0  0  0  0  0  0  0  0  0
  150.5011  144.9643  159.4024 H   0  0  0  0  0  0  0  0  0  0  0  0
  151.6029  146.1705  160.0626 H   0  0  0  0  0  0  0  0  0  0  0  0
  153.5272  145.0297  159.1341 H   0  0  0  0  0  0  0  0  0  0  0  0
  152.3462  144.8784  157.8447 H   0  0  0  0  0  0  0  0  0  0  0  0
  150.1366  139.9316  156.9842 H   0  0  0  0  0  0  0  0  0  0  0  0
  151.7589  140.3198  156.2662 H   0  0  0  0  0  0  0  0  0  0  0  0
  151.1309  138.3742  158.5709 H   0  0  0  0  0  0  0  0  0  0  0  0
  154.7835  136.1874  158.7812 H   0  0  0  0  0  0  0  0  0  0  0  0
  155.4457  137.5040  159.6973 H   0  0  0  0  0  0  0  0  0  0  0  0
  152.9525  138.1888  160.1812 H   0  0  0  0  0  0  0  0  0  0  0  0
  152.5232  136.6303  159.5299 H   0  0  0  0  0  0  0  0  0  0  0  0
  152.8896  138.2476  162.5631 H   0  0  0  0  0  0  0  0  0  0  0  0
  153.3547  137.1354  164.7521 H   0  0  0  0  0  0  0  0  0  0  0  0
  154.3081  134.8204  164.7741 H   0  0  0  0  0  0  0  0  0  0  0  0
  154.7748  133.6779  162.5270 H   0  0  0  0  0  0  0  0  0  0  0  0
  153.5234  140.3500  158.5343 H   0  0  0  0  0  0  0  0  0  0  0  0
  152.4327  139.9516  159.9255 H   0  0  0  0  0  0  0  0  0  0  0  0
  154.2968  134.8216  160.5731 H   0  0  0  0  0  0  0  0  0  0  0  0
  1  2  2  0  0  0  0
  2  3  1  0  0  0  0
  2  8  1  0  0  0  0
  3  7  1  0  0  0  0
  3  4  1  0  0  0  0
  3 24  1  0  0  0  0
  4  5  1  0  0  0  0
  4 25  1  0  0  0  0
  4 26  1  0  0  0  0
  5  6  1  0  0  0  0
  5 27  1  0  0  0  0
  5 28  1  0  0  0  0
  6  7  1  0  0  0  0
  6 29  1  0  0  0  0
  6 30  1  0  0  0  0
  7 31  1  0  0  0  0
  7 32  1  0  0  0  0
  8 23  1  0  0  0  0
  8  9  1  0  0  0  0
  9 10  1  0  0  0  0
  9 33  1  0  0  0  0
  9 34  1  0  0  0  0
 10 11  1  0  0  0  0
 10 23  1  0  0  0  0
 10 35  1  0  0  0  0
 11 12  2  0  0  0  0
 11 13  2  0  0  0  0
 11 14  1  0  0  0  0
 14 15  1  0  0  0  0
 15 16  1  0  0  0  0
 15 36  1  0  0  0  0
 15 37  1  0  0  0  0
 16 17  1  0  0  0  0
 16 38  1  0  0  0  0
 16 39  1  0  0  0  0
 17 22  1  0  0  0  0
 17 18  2  0  0  0  0
 18 19  1  0  0  0  0
 18 40  1  0  0  0  0
 19 20  2  0  0  0  0
 19 41  1  0  0  0  0
 20 21  1  0  0  0  0
 20 42  1  0  0  0  0
 21 22  2  0  0  0  0
 21 43  1  0  0  0  0
 22 46  1  0  0  0  0
 23 44  1  0  0  0  0
 23 45  1  0  0  0  0
M  CHG  1  14  -1
M  CHG  1  22   1
M  END
> <s_m_source_file>
AV-unprocessed.smi

> <i_m_source_file_index>
2531

> <i_lp_mmshare_version>
43012

> <i_f3d_flags>
0

> <s_epik_input>
W0NIMl0xW0NIMl1bQ0gyXVtDSDJdW0NIXTFDKD1PKU4yW0NIMl1bQ0hdKFtDSDJdMilTKD1PKSg9TylbTkhdW0NIMl1bQ0gyXWMzW2NIXVtjSF1bY0hdW2NIXW4z

> <s_epik_cmdline>
J2VwaWtfcHl0aG9uJywgJy1waCcsICc3LjAnLCAnLXRuJywgJzgnLCAnLW1hJywgJzIwMCcsICctbWV0YWxfYmluZGluZycsICctaW1hZScsICc8aW5maWxlLm1hZT4nLCAnLW9tYWUnLCAnPG91dGZpbGUubWFlPic=

> <r_epik_Ionization_Penalty>
6.66855

> <r_epik_Ionization_Penalty_Charging>
6.66855

> <r_epik_Ionization_Penalty_Neutral>
2.37876e-07

> <r_epik_State_Penalty>
7.51815

> <r_epik_Charging_Adjusted_Penalty>
14.1867

> <i_epik_Tot_Q>
0

> <i_epik_Tot_abs_Q>
2

> <r_epik_Metal_State_Penalty>
3.5378

> <b_epik_Metal_Only>
1

> <s_lp_Force_Field>
OPLS_2005

> <r_lp_Energy>
33.2094

> <b_lp_Chiralities_Consistent>
1

> <s_lp_Variant>
AV-unprocessed.smi:2531-4

> <Gold.Version>
5.8.1

> <Gold.Id.Protein>
6NUR|6NUR_protein|mol2

> <Gold.PLP.Fitness>
53.5754

> <Gold.PLP.PLP>
-46.8435

> <Gold.PLP.part.hbond>
-2.3714

> <Gold.PLP.part.metal>
0.0000

> <Gold.PLP.part.buried>
-5.4439

> <Gold.PLP.part.nonpolar>
-39.5219

> <Gold.PLP.part.repulsive>
0.1795

> <Gold.PLP.ligand.clash>
0.0000

> <Gold.PLP.ligand.torsion>
1.8260

> <Gold.PLP.Chemscore.Hbond>
2.6150

> <Gold.PLP.Chemscore.CHOScore>
0.0000

> <Gold.PLP.Chemscore.Metal>
0.0000

> <Gold.Chemscore.Hbonds>
donor molecule, donor type, donor heavy atom, donor atom, acceptor molecule, acceptor atom, score
      P1  H  7997  8009       L1    14  0.87
      P1  H  7997  8010       L1    13  0.54
      P1  H 10752 10763       L1    12  0.18

> <Gold.PLP.Chemscore.Internal.Correction>
2.5389

> <Gold.Rescore>
     Score         DG    S(hbond)    S(metal)    S(lipo)     H(rot)  DE(clash)    DE(int)     intcor
     18.34     -20.10       1.68        0.00     114.41       1.72       0.00       1.75       ----

> <Gold.Chemscore.Fitness>
18.3435

> <Gold.Chemscore.DG>
-20.0974

> <Gold.Chemscore.ZeroCoef>
-5.4800

> <Gold.Chemscore.Hbond>
1.6837

> <Gold.Chemscore.Metal>
0.0000

> <Gold.Chemscore.Lipo>
114.4110

> <Gold.Chemscore.Internal_Hbond>
0.0000

> <Gold.Chemscore.DEClash>
0.0000

> <Gold.Chemscore.DEInternal>
1.7539

> <Gold.Chemscore.Rot>
1.7158

> <Gold.Chemscore.Internal.Correction>
   9.000000E+99

> <Gold.Chemscore.Hbonds>
donor molecule, donor type, donor heavy atom, donor atom, acceptor molecule, acceptor atom, score
      P1  H  7997  8009       L1    14  0.20
      P1  H  7997  8010       L1    13  0.42
      P1  H 10752 10763       L1    12  0.11

> <Gold.Chemscore.Hbond.Weighted>
-5.6236

> <Gold.Chemscore.Metal.Weighted>
-0.0000

> <Gold.Chemscore.Lipo.Weighted>
-13.3861

> <Gold.Chemscore.Internal_Hbond.Weighted>
0.0000

> <Gold.Chemscore.DEClash.Weighted>
0.0000

> <Gold.Chemscore.DEInternal.Weighted>
1.7539

> <Gold.Chemscore.Rot.Weighted>
4.3924

> <Gold.Chemscore.Internal.Correction.Weighted>
   9.000000E+99

> <Gold.Protein.RotatedTorsions>
[ 6907 6896 6895 6894 ] final -162.30 input  -60.11 | X-H torsion
[ 7974 7965 7964 7962 ] final  174.43 input  175.53 | X-H torsion
[ 8008 7997 7996 7995 ] final  112.82 input   59.86 | X-H torsion
[ 10167 10162 10161 10158 ] final   93.60 input  -65.29 | X-H torsion
[ 10718 10713 10712 10709 ] final  -82.28 input   66.30 | X-H torsion
[ 10763 10752 10751 10750 ] final  116.43 input  -60.55 | X-H torsion
[ 11005 11000 10999 10996 ] final  102.72 input  -57.11 | X-H torsion

> <Gold.Protein.ActiveResidues>
 VAL166  LYS551  ARG553  GLY616  TRP617  ASP618  TYR619  PRO620  LYS621  CYS622 
 ASP623  PHE694  ASN695  SER759  ASP760  ASP761  ALA762  ILE779  LEU786  VAL792 
 PHE793  MET794  SER795  GLU796  ALA797  LYS798  CYS799  TRP800  GLU811  SER814 

> <Gold.Protein.RotatedAtoms>
  151.3781  133.3831  159.2706 H   0  0  0  0  0  0  0  0  0  0  0  0  # atno 6907 bound_to 6896
  150.9599  134.8989  159.7734 H   0  0  0  0  0  0  0  0  0  0  0  0  # atno 6908 bound_to 6896
  152.5145  134.3739  159.9380 H   0  0  0  0  0  0  0  0  0  0  0  0  # atno 6909 bound_to 6896
  144.7222  139.9796  143.6438 H   0  0  0  0  0  0  0  0  0  0  0  0  # atno 7974 bound_to 7965
  156.2217  140.2992  155.9969 H   0  0  0  0  0  0  0  0  0  0  0  0  # atno 8008 bound_to 7997
  155.2463  140.0424  157.2998 H   0  0  0  0  0  0  0  0  0  0  0  0  # atno 8009 bound_to 7997
  154.5852  140.2386  155.8006 H   0  0  0  0  0  0  0  0  0  0  0  0  # atno 8010 bound_to 7997
  139.8164  144.6751  150.9575 H   0  0  0  0  0  0  0  0  0  0  0  0  # atno 10167 bound_to 10162
  156.0035  130.4629  150.4082 H   0  0  0  0  0  0  0  0  0  0  0  0  # atno 10718 bound_to 10713
  153.5371  135.3566  155.2702 H   0  0  0  0  0  0  0  0  0  0  0  0  # atno 10763 bound_to 10752
  154.8721  135.4082  154.3085 H   0  0  0  0  0  0  0  0  0  0  0  0  # atno 10764 bound_to 10752
  153.3785  135.7067  153.6651 H   0  0  0  0  0  0  0  0  0  0  0  0  # atno 10765 bound_to 10752
  139.8779  134.9235  156.5101 H   0  0  0  0  0  0  0  0  0  0  0  0  # atno 11005 bound_to 11000
  146.0498  139.3500  143.0646 LP  0  0  0  0  0  0  0  0  0  0  0  0  # atno 17320 bound_to 7965
  145.8229  140.9670  143.0889 LP  0  0  0  0  0  0  0  0  0  0  0  0  # atno 17321 bound_to 7965
  140.7815  143.4135  151.0955 LP  0  0  0  0  0  0  0  0  0  0  0  0  # atno 17342 bound_to 10162
  139.7798  143.8372  152.3135 LP  0  0  0  0  0  0  0  0  0  0  0  0  # atno 17343 bound_to 10162
  157.2146  131.0468  151.2580 LP  0  0  0  0  0  0  0  0  0  0  0  0  # atno 17370 bound_to 10713
  157.3857  130.7255  149.6661 LP  0  0  0  0  0  0  0  0  0  0  0  0  # atno 17371 bound_to 10713
  140.8526  133.8120  155.9184 LP  0  0  0  0  0  0  0  0  0  0  0  0  # atno 17394 bound_to 11000
  140.9129  134.2238  157.4974 LP  0  0  0  0  0  0  0  0  0  0  0  0  # atno 17395 bound_to 11000

$$$$
