AV-unprocessed.smi:33|AV-procd|sdf|207|dock1
  -GOLD-   2262015493D 1   1.00000     0.00000
 Structure written by MMmdl.
 67 72  0  0  0  0  0  0  0  0  1 V2000
  154.2418  139.7250  160.4426 O   0  0  0  0  0  0  0  0  0  0  0  0
  153.3489  140.3246  159.8399 C   0  0  0  0  0  0  0  0  0  0  0  0
  152.6717  139.8025  158.7983 O   0  0  0  0  0  0  0  0  0  0  0  0
  153.0160  138.5209  158.2978 C   0  0  0  0  0  0  0  0  0  0  0  0
  151.9101  137.5147  158.6577 C   0  0  2  0  0  0  0  0  0  0  0  0
  151.8948  136.4708  157.6889 O   0  0  0  0  0  0  0  0  0  0  0  0
  151.0606  136.8256  156.6271 C   0  0  1  0  0  0  0  0  0  0  0  0
  150.2914  135.6138  156.1978 N   0  0  0  0  0  0  0  0  0  0  0  0
  150.2832  135.0288  154.9505 C   0  0  0  0  0  0  0  0  0  0  0  0
  149.5256  133.9725  154.8304 N   0  0  0  0  0  0  0  0  0  0  0  0
  148.9646  133.8179  156.0913 C   0  0  0  0  0  0  0  0  0  0  0  0
  148.0555  132.8851  156.6609 C   0  0  0  0  0  0  0  0  0  0  0  0
  147.5149  131.8581  155.9621 N   0  0  0  0  0  0  0  0  0  0  0  0
  147.0062  132.1556  154.6147 C   0  0  0  0  0  0  0  0  0  0  0  0
  146.6643  133.3060  154.3334 O   0  0  0  0  0  0  0  0  0  0  0  0
  146.8572  131.0594  153.5973 C   0  0  0  0  0  0  0  0  0  0  0  0
  147.6471  129.8929  153.6944 C   0  0  0  0  0  0  0  0  0  0  0  0
  147.5015  128.8562  152.7522 C   0  0  0  0  0  0  0  0  0  0  0  0
  146.5536  128.9718  151.7176 C   0  0  0  0  0  0  0  0  0  0  0  0
  145.7436  130.1199  151.6311 C   0  0  0  0  0  0  0  0  0  0  0  0
  145.8876  131.1564  152.5735 C   0  0  0  0  0  0  0  0  0  0  0  0
  147.4708  130.5430  156.6189 C   0  0  0  0  0  0  0  0  0  0  0  0
  146.6027  129.7307  156.2938 O   0  0  0  0  0  0  0  0  0  0  0  0
  148.4359  130.2085  157.7215 C   0  0  0  0  0  0  0  0  0  0  0  0
  148.0180  129.4099  158.8087 C   0  0  0  0  0  0  0  0  0  0  0  0
  148.9223  129.0804  159.8369 C   0  0  0  0  0  0  0  0  0  0  0  0
  150.2548  129.5308  159.7752 C   0  0  0  0  0  0  0  0  0  0  0  0
  150.6853  130.3040  158.6803 C   0  0  0  0  0  0  0  0  0  0  0  0
  149.7814  130.6350  157.6525 C   0  0  0  0  0  0  0  0  0  0  0  0
  147.7189  133.0411  157.9678 N   0  0  0  0  0  0  0  0  0  0  0  0
  148.2422  134.0478  158.6729 C   0  0  0  0  0  0  0  0  0  0  0  0
  149.0995  134.9893  158.2730 N   0  0  0  0  0  0  0  0  0  0  0  0
  149.4398  134.8390  156.9602 C   0  0  0  0  0  0  0  0  0  0  0  0
  150.1578  137.9825  157.1043 C   0  0  1  0  0  0  0  0  0  0  0  0
  148.7697  137.8203  156.8743 O   0  0  0  0  0  0  0  0  0  0  0  0
  150.4953  138.0941  158.5848 C   0  0  1  0  0  0  0  0  0  0  0  0
  149.6938  137.3258  159.3247 F   0  0  0  0  0  0  0  0  0  0  0  0
  152.9024  141.7040  160.1891 C   0  0  0  0  0  0  0  0  0  0  0  0
  152.3463  142.5283  159.1831 C   0  0  0  0  0  0  0  0  0  0  0  0
  151.9180  143.8362  159.4829 C   0  0  0  0  0  0  0  0  0  0  0  0
  152.0383  144.3347  160.7930 C   0  0  0  0  0  0  0  0  0  0  0  0
  152.5872  143.5236  161.8033 C   0  0  0  0  0  0  0  0  0  0  0  0
  153.0180  142.2162  161.5051 C   0  0  0  0  0  0  0  0  0  0  0  0
  153.1677  138.5660  157.2187 H   0  0  0  0  0  0  0  0  0  0  0  0
  153.9585  138.2042  158.7467 H   0  0  0  0  0  0  0  0  0  0  0  0
  152.1167  137.0906  159.6411 H   0  0  0  0  0  0  0  0  0  0  0  0
  151.6555  137.0933  155.7529 H   0  0  0  0  0  0  0  0  0  0  0  0
  150.8608  135.4155  154.1234 H   0  0  0  0  0  0  0  0  0  0  0  0
  148.3777  129.7935  154.4841 H   0  0  0  0  0  0  0  0  0  0  0  0
  148.1171  127.9716  152.8238 H   0  0  0  0  0  0  0  0  0  0  0  0
  146.4428  128.1770  150.9948 H   0  0  0  0  0  0  0  0  0  0  0  0
  145.0101  130.2054  150.8431 H   0  0  0  0  0  0  0  0  0  0  0  0
  145.2563  132.0305  152.5007 H   0  0  0  0  0  0  0  0  0  0  0  0
  146.9981  129.0580  158.8660 H   0  0  0  0  0  0  0  0  0  0  0  0
  148.5938  128.4806  160.6729 H   0  0  0  0  0  0  0  0  0  0  0  0
  150.9478  129.2775  160.5639 H   0  0  0  0  0  0  0  0  0  0  0  0
  151.7097  130.6419  158.6278 H   0  0  0  0  0  0  0  0  0  0  0  0
  150.1249  131.2244  156.8144 H   0  0  0  0  0  0  0  0  0  0  0  0
  147.9303  134.1076  159.7050 H   0  0  0  0  0  0  0  0  0  0  0  0
  150.4898  138.8855  156.5906 H   0  0  0  0  0  0  0  0  0  0  0  0
  148.3057  138.1278  157.6388 H   0  0  0  0  0  0  0  0  0  0  0  0
  150.4150  139.1103  158.9724 H   0  0  0  0  0  0  0  0  0  0  0  0
  152.2443  142.1675  158.1696 H   0  0  0  0  0  0  0  0  0  0  0  0
  151.4970  144.4575  158.7062 H   0  0  0  0  0  0  0  0  0  0  0  0
  151.7100  145.3376  161.0229 H   0  0  0  0  0  0  0  0  0  0  0  0
  152.6782  143.9044  162.8101 H   0  0  0  0  0  0  0  0  0  0  0  0
  153.4339  141.6206  162.3044 H   0  0  0  0  0  0  0  0  0  0  0  0
  1  2  2  0  0  0  0
  2  3  1  0  0  0  0
  2 38  1  0  0  0  0
  3  4  1  0  0  0  0
  4  5  1  0  0  0  0
  4 44  1  0  0  0  0
  4 45  1  0  0  0  0
  5 36  1  0  0  0  0
  5  6  1  0  0  0  0
  5 46  1  0  0  0  0
  6  7  1  0  0  0  0
  7  8  1  0  0  0  0
  7 34  1  0  0  0  0
  7 47  1  0  0  0  0
  8 33  1  0  0  0  0
  8  9  1  0  0  0  0
  9 10  2  0  0  0  0
  9 48  1  0  0  0  0
 10 11  1  0  0  0  0
 11 33  2  0  0  0  0
 11 12  1  0  0  0  0
 12 13  1  0  0  0  0
 12 30  2  0  0  0  0
 13 14  1  0  0  0  0
 13 22  1  0  0  0  0
 14 15  2  0  0  0  0
 14 16  1  0  0  0  0
 16 21  1  0  0  0  0
 16 17  2  0  0  0  0
 17 18  1  0  0  0  0
 17 49  1  0  0  0  0
 18 19  2  0  0  0  0
 18 50  1  0  0  0  0
 19 20  1  0  0  0  0
 19 51  1  0  0  0  0
 20 21  2  0  0  0  0
 20 52  1  0  0  0  0
 21 53  1  0  0  0  0
 22 23  2  0  0  0  0
 22 24  1  0  0  0  0
 24 29  1  0  0  0  0
 24 25  2  0  0  0  0
 25 26  1  0  0  0  0
 25 54  1  0  0  0  0
 26 27  2  0  0  0  0
 26 55  1  0  0  0  0
 27 28  1  0  0  0  0
 27 56  1  0  0  0  0
 28 29  2  0  0  0  0
 28 57  1  0  0  0  0
 29 58  1  0  0  0  0
 30 31  1  0  0  0  0
 31 32  2  0  0  0  0
 31 59  1  0  0  0  0
 32 33  1  0  0  0  0
 34 35  1  0  0  0  0
 34 36  1  0  0  0  0
 34 60  1  0  0  0  0
 35 61  1  0  0  0  0
 36 37  1  0  0  0  0
 36 62  1  0  0  0  0
 38 43  1  0  0  0  0
 38 39  2  0  0  0  0
 39 40  1  0  0  0  0
 39 63  1  0  0  0  0
 40 41  2  0  0  0  0
 40 64  1  0  0  0  0
 41 42  1  0  0  0  0
 41 65  1  0  0  0  0
 42 43  2  0  0  0  0
 42 66  1  0  0  0  0
 43 67  1  0  0  0  0
M  END
> <s_m_source_file>
AV-unprocessed.smi

> <i_m_source_file_index>
33

> <i_lp_mmshare_version>
43012

> <i_f3d_flags>
0

> <s_epik_input>
W2NIXTFbY0hdW2NIXVtjSF1bY0hdYzFDKD1PKU9bQ0gyXVtDQEBIXTJPW0NASF0oW0NAQEhdKFtPSF0pW0NAQEhdMkYpbihbY0hdbjMpYyhjMzQpbltjSF1uYzROKEMoPU8pYzVbY0hdW2NIXVtjSF1bY0hdW2NIXTUpQyg9TyljNltjSF1bY0hdW2NIXVtjSF1bY0hdNg==

> <s_epik_cmdline>
J2VwaWtfcHl0aG9uJywgJy1waCcsICc3LjAnLCAnLXRuJywgJzgnLCAnLW1hJywgJzIwMCcsICctbWV0YWxfYmluZGluZycsICctaW1hZScsICc8aW5maWxlLm1hZT4nLCAnLW9tYWUnLCAnPG91dGZpbGUubWFlPic=

> <r_lp_tautomer_probability>
1

> <r_epik_Ionization_Penalty>
0.00067664

> <r_epik_Ionization_Penalty_Charging>
0

> <r_epik_Ionization_Penalty_Neutral>
0.00067664

> <r_epik_State_Penalty>
0.000428095

> <r_epik_Charging_Adjusted_Penalty>
0.000428095

> <i_epik_Tot_Q>
0

> <i_epik_Tot_abs_Q>
0

> <r_epik_Metal_State_Penalty>
-0

> <b_epik_Metal_Only>
0

> <s_epik_Chemistry_Notes>
This compound has an ester and may undergo hydrolysis at high or low pH. This compound contains an acetal/aminal-like group ( X-CH(R)-Y where X, Y are N, S, or O) that may be acid/base labile, releasing an aldehyde.

> <s_lp_Force_Field>
OPLS_2005

> <r_lp_Energy>
79.5237

> <b_lp_Chiralities_Consistent>
1

> <s_lp_Variant>
AV-unprocessed.smi:33-9

> <Gold.Version>
5.8.1

> <Gold.Id.Protein>
6NUR|6NUR_protein|mol2

> <Gold.PLP.Fitness>
57.2935

> <Gold.PLP.PLP>
-54.0588

> <Gold.PLP.part.hbond>
-1.1965

> <Gold.PLP.part.metal>
0.0000

> <Gold.PLP.part.buried>
-8.7272

> <Gold.PLP.part.nonpolar>
-44.8830

> <Gold.PLP.part.repulsive>
0.2385

> <Gold.PLP.ligand.clash>
0.0000

> <Gold.PLP.ligand.torsion>
2.9978

> <Gold.PLP.Chemscore.Hbond>
1.0000

> <Gold.PLP.Chemscore.CHOScore>
0.5831

> <Gold.PLP.Chemscore.Metal>
0.0000

> <Gold.Chemscore.Hbonds>
donor molecule, donor type, donor heavy atom, donor atom, acceptor molecule, acceptor atom, score
      P1  H  6896  6907       L1    32  0.83
      L1  C     9    48       P1  7949  0.42

> <Gold.PLP.Chemscore.Internal.Correction>
4.4811

> <Gold.Rescore>
     Score         DG    S(hbond)    S(metal)    S(lipo)     H(rot)  DE(clash)    DE(int)     intcor
      5.27     -17.06       0.59        0.00     137.27       2.52       0.01      11.77       ----

> <Gold.Chemscore.Fitness>
5.2745

> <Gold.Chemscore.DG>
-17.0559

> <Gold.Chemscore.ZeroCoef>
-5.4800

> <Gold.Chemscore.Hbond>
0.5924

> <Gold.Chemscore.Metal>
0.0000

> <Gold.Chemscore.Lipo>
137.2695

> <Gold.Chemscore.Internal_Hbond>
0.0000

> <Gold.Chemscore.DEClash>
0.0098

> <Gold.Chemscore.DEInternal>
11.7717

> <Gold.Chemscore.Rot>
2.5247

> <Gold.Chemscore.Internal.Correction>
   9.000000E+99

> <Gold.Chemscore.Hbonds>
donor molecule, donor type, donor heavy atom, donor atom, acceptor molecule, acceptor atom, score
      P1  H  6896  6907       L1    32  0.20

> <Gold.Chemscore.Hbond.Weighted>
-1.9786

> <Gold.Chemscore.Metal.Weighted>
-0.0000

> <Gold.Chemscore.Lipo.Weighted>
-16.0605

> <Gold.Chemscore.Internal_Hbond.Weighted>
0.0000

> <Gold.Chemscore.DEClash.Weighted>
0.0098

> <Gold.Chemscore.DEInternal.Weighted>
11.7717

> <Gold.Chemscore.Rot.Weighted>
6.4633

> <Gold.Chemscore.Internal.Correction.Weighted>
   9.000000E+99

> <Gold.Protein.RotatedTorsions>
[ 6907 6896 6895 6894 ] final  -63.78 input  -60.11 | X-H torsion
[ 7974 7965 7964 7962 ] final -140.80 input  175.53 | X-H torsion
[ 8008 7997 7996 7995 ] final -152.76 input   59.86 | X-H torsion
[ 10167 10162 10161 10158 ] final -176.39 input  -65.29 | X-H torsion
[ 10718 10713 10712 10709 ] final   73.76 input   66.30 | X-H torsion
[ 10763 10752 10751 10750 ] final  -88.44 input  -60.55 | X-H torsion
[ 11005 11000 10999 10996 ] final  -85.28 input  -57.11 | X-H torsion

> <Gold.Protein.ActiveResidues>
 VAL166  LYS551  ARG553  GLY616  TRP617  ASP618  TYR619  PRO620  LYS621  CYS622 
 ASP623  PHE694  ASN695  SER759  ASP760  ASP761  ALA762  ILE779  LEU786  VAL792 
 PHE793  MET794  SER795  GLU796  ALA797  LYS798  CYS799  TRP800  GLU811  SER814 

> <Gold.Protein.RotatedAtoms>
  150.7627  134.6388  159.6225 H   0  0  0  0  0  0  0  0  0  0  0  0  # atno 6907 bound_to 6896
  152.3643  134.6824  160.0206 H   0  0  0  0  0  0  0  0  0  0  0  0  # atno 6908 bound_to 6896
  151.7204  133.3278  159.3350 H   0  0  0  0  0  0  0  0  0  0  0  0  # atno 6909 bound_to 6896
  144.8569  140.6156  143.5354 H   0  0  0  0  0  0  0  0  0  0  0  0  # atno 7974 bound_to 7965
  155.6602  140.0722  157.2556 H   0  0  0  0  0  0  0  0  0  0  0  0  # atno 8008 bound_to 7997
  154.4144  140.1717  156.1819 H   0  0  0  0  0  0  0  0  0  0  0  0  # atno 8009 bound_to 7997
  155.9703  140.3362  155.6573 H   0  0  0  0  0  0  0  0  0  0  0  0  # atno 8010 bound_to 7997
  139.5532  144.2056  152.1114 H   0  0  0  0  0  0  0  0  0  0  0  0  # atno 10167 bound_to 10162
  157.6562  130.9644  150.1114 H   0  0  0  0  0  0  0  0  0  0  0  0  # atno 10718 bound_to 10713
  154.6445  135.5377  153.7829 H   0  0  0  0  0  0  0  0  0  0  0  0  # atno 10763 bound_to 10752
  153.0352  135.6467  154.1109 H   0  0  0  0  0  0  0  0  0  0  0  0  # atno 10764 bound_to 10752
  154.1031  135.2932  155.3227 H   0  0  0  0  0  0  0  0  0  0  0  0  # atno 10765 bound_to 10752
  141.1643  133.7391  156.8992 H   0  0  0  0  0  0  0  0  0  0  0  0  # atno 11005 bound_to 11000
  145.4389  139.1538  143.3981 LP  0  0  0  0  0  0  0  0  0  0  0  0  # atno 17320 bound_to 7965
  146.2830  140.4509  142.8769 LP  0  0  0  0  0  0  0  0  0  0  0  0  # atno 17321 bound_to 7965
  140.1555  144.5075  150.6662 LP  0  0  0  0  0  0  0  0  0  0  0  0  # atno 17342 bound_to 10162
  140.6799  143.2322  151.5410 LP  0  0  0  0  0  0  0  0  0  0  0  0  # atno 17343 bound_to 10162
  156.2010  130.3660  149.8788 LP  0  0  0  0  0  0  0  0  0  0  0  0  # atno 17370 bound_to 10713
  156.6692  130.8813  151.3559 LP  0  0  0  0  0  0  0  0  0  0  0  0  # atno 17371 bound_to 10713
  140.1594  134.9176  157.2696 LP  0  0  0  0  0  0  0  0  0  0  0  0  # atno 17394 bound_to 11000
  140.2629  134.3550  155.7400 LP  0  0  0  0  0  0  0  0  0  0  0  0  # atno 17395 bound_to 11000

$$$$
