AV-unprocessed.smi:252|AV-procd|sdf|1938|dock3
  -GOLD-   2262021 63D 1   1.00000     0.00000
 Structure written by MMmdl.
 56 59  0  0  0  0  0  0  0  0  1 V2000
  144.8976  144.4125  160.8012 C   0  0  0  0  0  0  0  0  0  0  0  0
  146.0185  144.7983  159.8229 C   0  0  0  0  0  0  0  0  0  0  0  0
  147.4234  144.4424  160.3206 C   0  0  0  0  0  0  0  0  0  0  0  0
  147.6155  144.0940  161.4862 O   0  0  0  0  0  0  0  0  0  0  0  0
  148.4047  144.5371  159.4107 N   0  0  0  0  0  0  0  0  0  0  0  0
  149.8122  144.2372  159.6524 C   0  0  2  0  0  0  0  0  0  0  0  0
  150.7014  145.4386  159.2739 C   0  0  0  0  0  0  0  0  0  0  0  0
  152.1862  145.0766  159.4288 C   0  0  0  0  0  0  0  0  0  0  0  0
  152.5324  143.8123  158.6261 C   0  0  0  0  0  0  0  0  0  0  0  0
  151.6426  142.7082  158.9885 N   0  0  0  0  0  0  0  0  0  0  0  0
  152.0108  141.4538  158.6250 C   0  0  0  0  0  0  0  0  0  0  0  0
  152.6491  140.6480  159.5156 N   0  0  0  0  0  0  0  0  0  0  0  0
  153.0209  139.4139  159.1633 C   0  0  0  0  0  0  0  0  0  0  0  0
  152.8555  138.7947  157.9930 N   0  0  0  0  0  0  0  0  0  0  0  0
  152.2133  139.5956  157.0953 C   0  0  0  0  0  0  0  0  0  0  0  0
  151.7573  140.9243  157.3280 C   0  0  0  0  0  0  0  0  0  0  0  0
  151.1281  141.4141  156.1895 N   0  0  0  0  0  0  0  0  0  0  0  0
  151.2124  140.4342  155.3323 C   0  0  0  0  0  0  0  0  0  0  0  0
  151.8604  139.3082  155.7879 N   0  0  0  0  0  0  0  0  0  0  0  0
  152.0876  138.0768  155.0465 C   0  0  0  0  0  0  0  0  0  0  0  0
  150.8835  137.0958  155.0413 C   0  0  2  0  0  0  0  0  0  0  0  0
  151.1828  136.0237  154.1645 O   0  0  0  0  0  0  0  0  0  0  0  0
  149.5660  137.7301  154.6066 C   0  0  0  0  0  0  0  0  0  0  0  0
  149.0471  138.3173  155.9089 C   0  0  0  0  0  0  0  0  0  0  0  0
  149.3667  137.3218  156.8685 O   0  0  0  0  0  0  0  0  0  0  0  0
  150.5498  136.6213  156.4804 C   0  0  1  0  0  0  0  0  0  0  0  0
  150.2497  135.1212  156.6416 C   0  0  0  0  0  0  0  0  0  0  0  0
  150.2150  142.9901  158.8442 C   0  0  0  0  0  0  0  0  0  0  0  0
  143.9240  144.6929  160.3991 H   0  0  0  0  0  0  0  0  0  0  0  0
  145.0145  144.9170  161.7611 H   0  0  0  0  0  0  0  0  0  0  0  0
  144.8796  143.3374  160.9840 H   0  0  0  0  0  0  0  0  0  0  0  0
  145.8534  144.3013  158.8664 H   0  0  0  0  0  0  0  0  0  0  0  0
  145.9780  145.8710  159.6306 H   0  0  0  0  0  0  0  0  0  0  0  0
  148.1570  144.8315  158.4772 H   0  0  0  0  0  0  0  0  0  0  0  0
  149.9527  144.0113  160.7115 H   0  0  0  0  0  0  0  0  0  0  0  0
  150.5056  145.7358  158.2425 H   0  0  0  0  0  0  0  0  0  0  0  0
  150.4651  146.3011  159.8979 H   0  0  0  0  0  0  0  0  0  0  0  0
  152.8111  145.9083  159.1028 H   0  0  0  0  0  0  0  0  0  0  0  0
  152.4127  144.9123  160.4831 H   0  0  0  0  0  0  0  0  0  0  0  0
  152.4410  144.0132  157.5577 H   0  0  0  0  0  0  0  0  0  0  0  0
  153.5706  143.5363  158.8161 H   0  0  0  0  0  0  0  0  0  0  0  0
  153.5239  138.8410  159.9283 H   0  0  0  0  0  0  0  0  0  0  0  0
  150.8054  140.5074  154.3342 H   0  0  0  0  0  0  0  0  0  0  0  0
  152.3558  138.3419  154.0227 H   0  0  0  0  0  0  0  0  0  0  0  0
  152.9691  137.5928  155.4686 H   0  0  0  0  0  0  0  0  0  0  0  0
  151.1232  136.3379  153.2753 H   0  0  0  0  0  0  0  0  0  0  0  0
  149.6528  138.4651  153.8078 H   0  0  0  0  0  0  0  0  0  0  0  0
  148.8685  136.9628  154.2661 H   0  0  0  0  0  0  0  0  0  0  0  0
  149.5658  139.2446  156.1555 H   0  0  0  0  0  0  0  0  0  0  0  0
  147.9761  138.5197  155.8836 H   0  0  0  0  0  0  0  0  0  0  0  0
  151.3536  136.8906  157.1672 H   0  0  0  0  0  0  0  0  0  0  0  0
  151.1220  134.5127  156.4017 H   0  0  0  0  0  0  0  0  0  0  0  0
  149.4289  134.8080  155.9956 H   0  0  0  0  0  0  0  0  0  0  0  0
  149.9659  134.8933  157.6692 H   0  0  0  0  0  0  0  0  0  0  0  0
  149.6086  142.1423  159.1621 H   0  0  0  0  0  0  0  0  0  0  0  0
  150.0010  143.1451  157.7855 H   0  0  0  0  0  0  0  0  0  0  0  0
  1  2  1  0  0  0  0
  1 29  1  0  0  0  0
  1 30  1  0  0  0  0
  1 31  1  0  0  0  0
  2  3  1  0  0  0  0
  2 32  1  0  0  0  0
  2 33  1  0  0  0  0
  3  4  2  0  0  0  0
  3  5  1  0  0  0  0
  5  6  1  0  0  0  0
  5 34  1  0  0  0  0
  6 28  1  0  0  0  0
  6  7  1  0  0  0  0
  6 35  1  0  0  0  0
  7  8  1  0  0  0  0
  7 36  1  0  0  0  0
  7 37  1  0  0  0  0
  8  9  1  0  0  0  0
  8 38  1  0  0  0  0
  8 39  1  0  0  0  0
  9 10  1  0  0  0  0
  9 40  1  0  0  0  0
  9 41  1  0  0  0  0
 10 11  1  0  0  0  0
 10 28  1  0  0  0  0
 11 16  1  0  0  0  0
 11 12  2  0  0  0  0
 12 13  1  0  0  0  0
 13 14  2  0  0  0  0
 13 42  1  0  0  0  0
 14 15  1  0  0  0  0
 15 19  1  0  0  0  0
 15 16  2  0  0  0  0
 16 17  1  0  0  0  0
 17 18  2  0  0  0  0
 18 19  1  0  0  0  0
 18 43  1  0  0  0  0
 19 20  1  0  0  0  0
 20 21  1  0  0  0  0
 20 44  1  0  0  0  0
 20 45  1  0  0  0  0
 21 26  1  0  0  0  0
 21 22  1  0  0  0  0
 21 23  1  0  0  0  0
 22 46  1  0  0  0  0
 23 24  1  0  0  0  0
 23 47  1  0  0  0  0
 23 48  1  0  0  0  0
 24 25  1  0  0  0  0
 24 49  1  0  0  0  0
 24 50  1  0  0  0  0
 25 26  1  0  0  0  0
 26 27  1  0  0  0  0
 26 51  1  0  0  0  0
 27 52  1  0  0  0  0
 27 53  1  0  0  0  0
 27 54  1  0  0  0  0
 28 55  1  0  0  0  0
 28 56  1  0  0  0  0
M  END
> <s_m_source_file>
AV-unprocessed.smi

> <i_m_source_file_index>
252

> <i_lp_mmshare_version>
43012

> <i_f3d_flags>
0

> <s_epik_input>
W0NIM11bQ0gyXUMoPU8pW05IXVtDQEBIXTFbQ0gyXVtDSDJdW0NIMl1OKFtDSDJdMSljKG5bY0hdbjIpYyhjMjMpbltjSF1uM1tDSDJdW0NAQF00KFtPSF0pW0NIMl1bQ0gyXU9bQ0BIXTRbQ0gzXQ==

> <s_epik_cmdline>
J2VwaWtfcHl0aG9uJywgJy1waCcsICc3LjAnLCAnLXRuJywgJzgnLCAnLW1hJywgJzIwMCcsICctbWV0YWxfYmluZGluZycsICctaW1hZScsICc8aW5maWxlLm1hZT4nLCAnLW9tYWUnLCAnPG91dGZpbGUubWFlPic=

> <r_lp_tautomer_probability>
1

> <r_epik_Ionization_Penalty>
0.00182575

> <r_epik_Ionization_Penalty_Charging>
0

> <r_epik_Ionization_Penalty_Neutral>
0.00182575

> <r_epik_State_Penalty>
0.00104524

> <r_epik_Charging_Adjusted_Penalty>
0.00104524

> <i_epik_Tot_Q>
0

> <i_epik_Tot_abs_Q>
0

> <r_epik_Metal_State_Penalty>
-0

> <b_epik_Metal_Only>
0

> <s_lp_Force_Field>
OPLS_2005

> <r_lp_Energy>
36.3421

> <b_lp_Chiralities_Consistent>
1

> <s_lp_Variant>
AV-unprocessed.smi:252-3

> <Gold.Version>
5.8.1

> <Gold.Id.Protein>
6NUR|6NUR_protein|mol2

> <Gold.PLP.Fitness>
52.4448

> <Gold.PLP.PLP>
-41.7793

> <Gold.PLP.part.hbond>
-4.6813

> <Gold.PLP.part.metal>
0.0000

> <Gold.PLP.part.buried>
-4.1593

> <Gold.PLP.part.nonpolar>
-33.7985

> <Gold.PLP.part.repulsive>
0.3489

> <Gold.PLP.ligand.clash>
0.0000

> <Gold.PLP.ligand.torsion>
0.8514

> <Gold.PLP.Chemscore.Hbond>
3.9832

> <Gold.PLP.Chemscore.CHOScore>
0.0000

> <Gold.PLP.Chemscore.Metal>
0.0000

> <Gold.Chemscore.Hbonds>
donor molecule, donor type, donor heavy atom, donor atom, acceptor molecule, acceptor atom, score
      L1  H     5    34       P1  8029  1.00
      L1  H    22    46       P1  7949  0.98
      P1  H  6933  6944       L1     4  1.00
      P1  H 10752 10765       L1    22  1.00

> <Gold.PLP.Chemscore.Internal.Correction>
0.4189

> <Gold.Rescore>
     Score         DG    S(hbond)    S(metal)    S(lipo)     H(rot)  DE(clash)    DE(int)     intcor
     16.30     -19.51       3.24        0.00      86.56       2.70       1.19       2.02       ----

> <Gold.Chemscore.Fitness>
16.2965

> <Gold.Chemscore.DG>
-19.5075

> <Gold.Chemscore.ZeroCoef>
-5.4800

> <Gold.Chemscore.Hbond>
3.2401

> <Gold.Chemscore.Metal>
0.0000

> <Gold.Chemscore.Lipo>
86.5641

> <Gold.Chemscore.Internal_Hbond>
0.0000

> <Gold.Chemscore.DEClash>
1.1881

> <Gold.Chemscore.DEInternal>
2.0228

> <Gold.Chemscore.Rot>
2.7041

> <Gold.Chemscore.Internal.Correction>
   9.000000E+99

> <Gold.Chemscore.Hbonds>
donor molecule, donor type, donor heavy atom, donor atom, acceptor molecule, acceptor atom, score
      L1  H     5    34       P1  8029  0.96
      L1  H    22    46       P1  7949  0.37
      P1  H  6933  6944       L1     4  0.69
      P1  H 10752 10765       L1    22  0.33

> <Gold.Chemscore.Hbond.Weighted>
-10.8219

> <Gold.Chemscore.Metal.Weighted>
-0.0000

> <Gold.Chemscore.Lipo.Weighted>
-10.1280

> <Gold.Chemscore.Internal_Hbond.Weighted>
0.0000

> <Gold.Chemscore.DEClash.Weighted>
1.1881

> <Gold.Chemscore.DEInternal.Weighted>
2.0228

> <Gold.Chemscore.Rot.Weighted>
6.9225

> <Gold.Chemscore.Internal.Correction.Weighted>
   9.000000E+99

> <Gold.Protein.RotatedTorsions>
[ 6907 6896 6895 6894 ] final   -4.17 input  -60.11 | X-H torsion
[ 7974 7965 7964 7962 ] final -146.36 input  175.53 | X-H torsion
[ 8008 7997 7996 7995 ] final  -97.01 input   59.86 | X-H torsion
[ 10167 10162 10161 10158 ] final  -41.78 input  -65.29 | X-H torsion
[ 10718 10713 10712 10709 ] final -108.74 input   66.30 | X-H torsion
[ 10763 10752 10751 10750 ] final -178.14 input  -60.55 | X-H torsion
[ 11005 11000 10999 10996 ] final  -59.45 input  -57.11 | X-H torsion

> <Gold.Protein.ActiveResidues>
 VAL166  LYS551  ARG553  GLY616  TRP617  ASP618  TYR619  PRO620  LYS621  CYS622 
 ASP623  PHE694  ASN695  SER759  ASP760  ASP761  ALA762  ILE779  LEU786  VAL792 
 PHE793  MET794  SER795  GLU796  ALA797  LYS798  CYS799  TRP800  GLU811  SER814 

> <Gold.Protein.RotatedAtoms>
  151.5019  135.1062  159.9830 H   0  0  0  0  0  0  0  0  0  0  0  0  # atno 6907 bound_to 6896
  152.4698  133.8000  159.6958 H   0  0  0  0  0  0  0  0  0  0  0  0  # atno 6908 bound_to 6896
  150.8701  133.7455  159.2990 H   0  0  0  0  0  0  0  0  0  0  0  0  # atno 6909 bound_to 6896
  144.8165  140.5466  143.5607 H   0  0  0  0  0  0  0  0  0  0  0  0  # atno 7974 bound_to 7965
  154.7820  140.0466  157.1134 H   0  0  0  0  0  0  0  0  0  0  0  0  # atno 8008 bound_to 7997
  154.9693  140.3087  155.4975 H   0  0  0  0  0  0  0  0  0  0  0  0  # atno 8009 bound_to 7997
  156.2938  140.2256  156.4785 H   0  0  0  0  0  0  0  0  0  0  0  0  # atno 8010 bound_to 7997
  140.6991  143.3075  151.3115 H   0  0  0  0  0  0  0  0  0  0  0  0  # atno 10167 bound_to 10162
  156.0501  130.5728  150.8003 H   0  0  0  0  0  0  0  0  0  0  0  0  # atno 10718 bound_to 10713
  154.5514  135.2813  155.1005 H   0  0  0  0  0  0  0  0  0  0  0  0  # atno 10763 bound_to 10752
  154.2449  135.6350  153.5223 H   0  0  0  0  0  0  0  0  0  0  0  0  # atno 10764 bound_to 10752
  153.0004  135.5569  154.6082 H   0  0  0  0  0  0  0  0  0  0  0  0  # atno 10765 bound_to 10752
  141.1248  133.6616  156.5073 H   0  0  0  0  0  0  0  0  0  0  0  0  # atno 11005 bound_to 11000
  145.5203  139.1477  143.3556 LP  0  0  0  0  0  0  0  0  0  0  0  0  # atno 17320 bound_to 7965
  146.2468  140.5344  142.8910 LP  0  0  0  0  0  0  0  0  0  0  0  0  # atno 17321 bound_to 7965
  139.6486  144.0405  152.2609 LP  0  0  0  0  0  0  0  0  0  0  0  0  # atno 17342 bound_to 10162
  139.9933  144.6345  150.7794 LP  0  0  0  0  0  0  0  0  0  0  0  0  # atno 17343 bound_to 10162
  157.5418  131.0941  150.9817 LP  0  0  0  0  0  0  0  0  0  0  0  0  # atno 17370 bound_to 10713
  157.0098  130.5632  149.5319 LP  0  0  0  0  0  0  0  0  0  0  0  0  # atno 17371 bound_to 10713
  140.4397  134.7027  157.4985 LP  0  0  0  0  0  0  0  0  0  0  0  0  # atno 17394 bound_to 11000
  140.0237  134.6508  155.9202 LP  0  0  0  0  0  0  0  0  0  0  0  0  # atno 17395 bound_to 11000

$$$$
