AV-unprocessed.smi:199|AV-procd|sdf|1567|dock10
  -GOLD-   2262019443D 1   1.00000     0.00000
 Structure written by MMmdl.
 51 55  0  0  0  0  0  0  0  0  1 V2000
  145.7091  136.8660  159.1556 C   0  0  0  0  0  0  0  0  0  0  0  0
  145.7290  137.1697  160.6617 C   0  0  1  0  0  0  0  0  0  0  0  0
  144.4173  136.9259  161.1640 O   0  0  0  0  0  0  0  0  0  0  0  0
  144.5115  136.4728  162.5029 C   0  0  0  0  0  0  0  0  0  0  0  0
  145.7253  135.5579  162.4545 C   0  0  0  0  0  0  0  0  0  0  0  0
  146.6850  136.3096  161.5365 C   0  0  2  0  0  0  0  0  0  0  0  0
  147.4460  137.1988  162.3379 O   0  0  0  0  0  0  0  0  0  0  0  0
  147.6745  135.3855  160.7780 C   0  0  0  0  0  0  0  0  0  0  0  0
  148.5771  136.1072  159.8931 N   0  0  0  0  0  0  0  0  0  0  0  0
  149.6055  136.9397  160.2688 C   0  0  0  0  0  0  0  0  0  0  0  0
  150.2761  137.4712  159.2848 N   0  0  0  0  0  0  0  0  0  0  0  0
  149.6688  136.9713  158.1380 C   0  0  0  0  0  0  0  0  0  0  0  0
  149.8881  137.1262  156.7359 C   0  0  0  0  0  0  0  0  0  0  0  0
  150.8664  137.8917  156.1760 N   0  0  0  0  0  0  0  0  0  0  0  0
  151.1553  137.8459  154.7499 C   0  0  2  0  0  0  0  0  0  0  0  0
  152.4222  138.7116  154.6428 C   0  0  0  0  0  0  0  0  0  0  0  0
  152.1578  139.7687  155.7243 C   0  0  0  0  0  0  0  0  0  0  0  0
  150.7650  139.3450  156.2263 C   0  0  1  0  0  0  0  0  0  0  0  0
  149.6620  139.6568  155.1812 C   0  0  1  0  0  0  0  0  0  0  0  0
  149.5861  141.1107  154.6799 C   0  0  0  0  0  0  0  0  0  0  0  0
  148.8490  141.1675  153.4771 O   0  0  0  0  0  0  0  0  0  0  0  0
  149.9794  138.6044  154.1012 C   0  0  0  0  0  0  0  0  0  0  0  0
  149.0376  136.4723  155.9008 N   0  0  0  0  0  0  0  0  0  0  0  0
  148.0585  135.7063  156.3875 C   0  0  0  0  0  0  0  0  0  0  0  0
  147.7483  135.4606  157.6603 N   0  0  0  0  0  0  0  0  0  0  0  0
  148.5871  136.1198  158.5090 C   0  0  0  0  0  0  0  0  0  0  0  0
  146.6836  137.0410  158.6996 H   0  0  0  0  0  0  0  0  0  0  0  0
  144.9916  137.5087  158.6450 H   0  0  0  0  0  0  0  0  0  0  0  0
  145.4188  135.8336  158.9595 H   0  0  0  0  0  0  0  0  0  0  0  0
  145.9425  138.2320  160.7950 H   0  0  0  0  0  0  0  0  0  0  0  0
  144.6801  137.3195  163.1701 H   0  0  0  0  0  0  0  0  0  0  0  0
  143.6050  135.9560  162.8182 H   0  0  0  0  0  0  0  0  0  0  0  0
  146.1379  135.3343  163.4393 H   0  0  0  0  0  0  0  0  0  0  0  0
  145.4292  134.6141  161.9954 H   0  0  0  0  0  0  0  0  0  0  0  0
  146.9012  137.5027  163.0477 H   0  0  0  0  0  0  0  0  0  0  0  0
  148.2841  134.8177  161.4812 H   0  0  0  0  0  0  0  0  0  0  0  0
  147.1300  134.6526  160.1807 H   0  0  0  0  0  0  0  0  0  0  0  0
  149.8477  137.1380  161.3027 H   0  0  0  0  0  0  0  0  0  0  0  0
  151.3186  136.8554  154.3302 H   0  0  0  0  0  0  0  0  0  0  0  0
  153.3136  138.1315  154.8848 H   0  0  0  0  0  0  0  0  0  0  0  0
  152.5563  139.1424  153.6499 H   0  0  0  0  0  0  0  0  0  0  0  0
  152.8928  139.6776  156.5250 H   0  0  0  0  0  0  0  0  0  0  0  0
  152.2058  140.7913  155.3528 H   0  0  0  0  0  0  0  0  0  0  0  0
  150.5455  139.7528  157.2138 H   0  0  0  0  0  0  0  0  0  0  0  0
  148.6992  139.4110  155.6335 H   0  0  0  0  0  0  0  0  0  0  0  0
  149.0926  141.7417  155.4197 H   0  0  0  0  0  0  0  0  0  0  0  0
  150.5760  141.5282  154.4985 H   0  0  0  0  0  0  0  0  0  0  0  0
  148.9986  140.3679  152.9960 H   0  0  0  0  0  0  0  0  0  0  0  0
  150.2482  139.0378  153.1371 H   0  0  0  0  0  0  0  0  0  0  0  0
  149.1235  137.9467  153.9447 H   0  0  0  0  0  0  0  0  0  0  0  0
  147.4346  135.2214  155.6514 H   0  0  0  0  0  0  0  0  0  0  0  0
  1  2  1  0  0  0  0
  1 27  1  0  0  0  0
  1 28  1  0  0  0  0
  1 29  1  0  0  0  0
  2  6  1  0  0  0  0
  2  3  1  0  0  0  0
  2 30  1  0  0  0  0
  3  4  1  0  0  0  0
  4  5  1  0  0  0  0
  4 31  1  0  0  0  0
  4 32  1  0  0  0  0
  5  6  1  0  0  0  0
  5 33  1  0  0  0  0
  5 34  1  0  0  0  0
  6  7  1  0  0  0  0
  6  8  1  0  0  0  0
  7 35  1  0  0  0  0
  8  9  1  0  0  0  0
  8 36  1  0  0  0  0
  8 37  1  0  0  0  0
  9 26  1  0  0  0  0
  9 10  1  0  0  0  0
 10 11  2  0  0  0  0
 10 38  1  0  0  0  0
 11 12  1  0  0  0  0
 12 26  2  0  0  0  0
 12 13  1  0  0  0  0
 13 14  1  0  0  0  0
 13 23  2  0  0  0  0
 14 18  1  0  0  0  0
 14 15  1  0  0  0  0
 15 22  1  0  0  0  0
 15 16  1  0  0  0  0
 15 39  1  0  0  0  0
 16 17  1  0  0  0  0
 16 40  1  0  0  0  0
 16 41  1  0  0  0  0
 17 18  1  0  0  0  0
 17 42  1  0  0  0  0
 17 43  1  0  0  0  0
 18 19  1  0  0  0  0
 18 44  1  0  0  0  0
 19 20  1  0  0  0  0
 19 22  1  0  0  0  0
 19 45  1  0  0  0  0
 20 21  1  0  0  0  0
 20 46  1  0  0  0  0
 20 47  1  0  0  0  0
 21 48  1  0  0  0  0
 22 49  1  0  0  0  0
 22 50  1  0  0  0  0
 23 24  1  0  0  0  0
 24 25  2  0  0  0  0
 24 51  1  0  0  0  0
 25 26  1  0  0  0  0
M  END
> <s_m_source_file>
AV-unprocessed.smi

> <i_m_source_file_index>
199

> <i_lp_mmshare_version>
43012

> <i_f3d_flags>
0

> <s_epik_input>
W0NIMl0xW0NIMl1PW0NAQEhdKFtDSDNdKVtDQEBdMShbT0hdKVtDSDJdbihbY0hdbjIpYyhjMjMpbltjSF1uYzNOKFtDQEBIXTQ1KVtDQEhdKFtDSDJdW0NIMl00KVtDQEhdKFtDSDJdNSlbQ0gyXVtPSF0=

> <s_epik_cmdline>
J2VwaWtfcHl0aG9uJywgJy1waCcsICc3LjAnLCAnLXRuJywgJzgnLCAnLW1hJywgJzIwMCcsICctbWV0YWxfYmluZGluZycsICctaW1hZScsICc8aW5maWxlLm1hZT4nLCAnLW9tYWUnLCAnPG91dGZpbGUubWFlPic=

> <r_lp_tautomer_probability>
1

> <r_epik_Ionization_Penalty>
0.00583903

> <r_epik_Ionization_Penalty_Charging>
0

> <r_epik_Ionization_Penalty_Neutral>
0.00583903

> <r_epik_State_Penalty>
-0

> <r_epik_Charging_Adjusted_Penalty>
0

> <i_epik_Tot_Q>
0

> <i_epik_Tot_abs_Q>
0

> <r_epik_Metal_State_Penalty>
-0

> <b_epik_Metal_Only>
0

> <s_lp_Force_Field>
OPLS_2005

> <r_lp_Energy>
84.1045

> <b_lp_Chiralities_Consistent>
1

> <s_lp_Variant>
AV-unprocessed.smi:199-8

> <Gold.Version>
5.8.1

> <Gold.Id.Protein>
6NUR|6NUR_protein|mol2

> <Gold.PLP.Fitness>
41.6419

> <Gold.PLP.PLP>
-34.7696

> <Gold.PLP.part.hbond>
-4.5946

> <Gold.PLP.part.metal>
0.0000

> <Gold.PLP.part.buried>
-1.9596

> <Gold.PLP.part.nonpolar>
-29.2590

> <Gold.PLP.part.repulsive>
0.0512

> <Gold.PLP.ligand.clash>
0.0000

> <Gold.PLP.ligand.torsion>
0.4597

> <Gold.PLP.Chemscore.Hbond>
2.5913

> <Gold.PLP.Chemscore.CHOScore>
0.0000

> <Gold.PLP.Chemscore.Metal>
0.0000

> <Gold.Chemscore.Hbonds>
donor molecule, donor type, donor heavy atom, donor atom, acceptor molecule, acceptor atom, score
      L1  H    21    48       P1  7957  0.62
      P1  H  6931  6943       L1     7  0.85
      P1  H  6934  6947       L1     7  0.13
      P1  H  8011  8017       L1    21  0.98

> <Gold.PLP.Chemscore.Internal.Correction>
0.0178

> <Gold.Rescore>
     Score         DG    S(hbond)    S(metal)    S(lipo)     H(rot)  DE(clash)    DE(int)     intcor
      6.60     -11.60       1.36        0.00      80.74       3.07       1.52       3.48       ----

> <Gold.Chemscore.Fitness>
6.5959

> <Gold.Chemscore.DG>
-11.5958

> <Gold.Chemscore.ZeroCoef>
-5.4800

> <Gold.Chemscore.Hbond>
1.3581

> <Gold.Chemscore.Metal>
0.0000

> <Gold.Chemscore.Lipo>
80.7389

> <Gold.Chemscore.Internal_Hbond>
0.0000

> <Gold.Chemscore.DEClash>
1.5211

> <Gold.Chemscore.DEInternal>
3.4788

> <Gold.Chemscore.Rot>
3.0729

> <Gold.Chemscore.Internal.Correction>
   9.000000E+99

> <Gold.Chemscore.Hbonds>
donor molecule, donor type, donor heavy atom, donor atom, acceptor molecule, acceptor atom, score
      L1  H    21    48       P1  7957  0.61
      P1  H  6931  6943       L1     7  0.76
      P1  H  8011  8017       L1    21  0.13

> <Gold.Chemscore.Hbond.Weighted>
-4.5360

> <Gold.Chemscore.Metal.Weighted>
-0.0000

> <Gold.Chemscore.Lipo.Weighted>
-9.4465

> <Gold.Chemscore.Internal_Hbond.Weighted>
0.0000

> <Gold.Chemscore.DEClash.Weighted>
1.5211

> <Gold.Chemscore.DEInternal.Weighted>
3.4788

> <Gold.Chemscore.Rot.Weighted>
7.8667

> <Gold.Chemscore.Internal.Correction.Weighted>
   9.000000E+99

> <Gold.Protein.RotatedTorsions>
[ 6907 6896 6895 6894 ] final -146.31 input  -60.11 | X-H torsion
[ 7974 7965 7964 7962 ] final  -85.36 input  175.53 | X-H torsion
[ 8008 7997 7996 7995 ] final  -51.49 input   59.86 | X-H torsion
[ 10167 10162 10161 10158 ] final  -43.72 input  -65.29 | X-H torsion
[ 10718 10713 10712 10709 ] final   35.27 input   66.30 | X-H torsion
[ 10763 10752 10751 10750 ] final   18.44 input  -60.55 | X-H torsion
[ 11005 11000 10999 10996 ] final  -87.17 input  -57.11 | X-H torsion

> <Gold.Protein.ActiveResidues>
 VAL166  LYS551  ARG553  GLY616  TRP617  ASP618  TYR619  PRO620  LYS621  CYS622 
 ASP623  PHE694  ASN695  SER759  ASP760  ASP761  ALA762  ILE779  LEU786  VAL792 
 PHE793  MET794  SER795  GLU796  ALA797  LYS798  CYS799  TRP800  GLU811  SER814 

> <Gold.Protein.RotatedAtoms>
  151.1399  133.4979  159.2596 H   0  0  0  0  0  0  0  0  0  0  0  0  # atno 6907 bound_to 6896
  151.1666  135.0298  159.8743 H   0  0  0  0  0  0  0  0  0  0  0  0  # atno 6908 bound_to 6896
  152.5462  134.1267  159.8475 H   0  0  0  0  0  0  0  0  0  0  0  0  # atno 6909 bound_to 6896
  145.4943  140.9551  143.1794 H   0  0  0  0  0  0  0  0  0  0  0  0  # atno 7974 bound_to 7965
  154.4084  140.1246  156.4837 H   0  0  0  0  0  0  0  0  0  0  0  0  # atno 8008 bound_to 7997
  155.7059  140.3494  155.4933 H   0  0  0  0  0  0  0  0  0  0  0  0  # atno 8009 bound_to 7997
  155.9344  140.1075  157.1097 H   0  0  0  0  0  0  0  0  0  0  0  0  # atno 8010 bound_to 7997
  140.6923  143.2968  151.3392 H   0  0  0  0  0  0  0  0  0  0  0  0  # atno 10167 bound_to 10162
  157.3206  130.7446  149.6783 H   0  0  0  0  0  0  0  0  0  0  0  0  # atno 10718 bound_to 10713
  153.1249  135.6727  153.9274 H   0  0  0  0  0  0  0  0  0  0  0  0  # atno 10763 bound_to 10752
  153.8778  135.3062  155.3445 H   0  0  0  0  0  0  0  0  0  0  0  0  # atno 10764 bound_to 10752
  154.7655  135.4966  153.9627 H   0  0  0  0  0  0  0  0  0  0  0  0  # atno 10765 bound_to 10752
  141.1620  133.7496  156.9267 H   0  0  0  0  0  0  0  0  0  0  0  0  # atno 11005 bound_to 11000
  144.7816  139.6514  143.7152 LP  0  0  0  0  0  0  0  0  0  0  0  0  # atno 17320 bound_to 7965
  146.2265  139.5732  142.9584 LP  0  0  0  0  0  0  0  0  0  0  0  0  # atno 17321 bound_to 7965
  139.6340  144.0666  152.2500 LP  0  0  0  0  0  0  0  0  0  0  0  0  # atno 17342 bound_to 10162
  140.0150  144.6196  150.7615 LP  0  0  0  0  0  0  0  0  0  0  0  0  # atno 17343 bound_to 10162
  155.9685  130.4224  150.4515 LP  0  0  0  0  0  0  0  0  0  0  0  0  # atno 17370 bound_to 10713
  157.2529  131.0550  151.2368 LP  0  0  0  0  0  0  0  0  0  0  0  0  # atno 17371 bound_to 10713
  140.1414  134.9291  157.2472 LP  0  0  0  0  0  0  0  0  0  0  0  0  # atno 17394 bound_to 11000
  140.2832  134.3326  155.7337 LP  0  0  0  0  0  0  0  0  0  0  0  0  # atno 17395 bound_to 11000

$$$$
