AV-unprocessed.smi:1420|AV-procd|sdf|5788|dock8
  -GOLD-   22720 5433D 1   1.00000     0.00000
 Structure written by MMmdl.
 39 40  0  0  0  0  0  0  0  0  2 V2000
  144.9535  137.8459  153.9461 C   0  0  0  0  0  0  0  0  0  0  0  0
  146.3511  137.6555  153.3126 C   0  0  2  0  0  0  0  0  0  0  0  0
  146.5747  138.6987  152.1808 C   0  0  0  0  0  0  0  0  0  0  0  0
  147.4755  139.7810  152.5666 N   0  0  0  0  0  0  0  0  0  0  0  0
  147.5552  140.3190  153.7938 C   0  0  0  0  0  0  0  0  0  0  0  0
  146.8570  139.9541  154.7393 O   0  0  0  0  0  0  0  0  0  0  0  0
  148.5721  141.4459  153.9820 C   0  0  0  0  0  0  0  0  0  0  0  0
  149.6158  141.0631  154.9163 N   0  0  0  0  0  0  0  0  0  0  0  0
  149.8847  141.5891  156.1630 C   0  0  0  0  0  0  0  0  0  0  0  0
  150.9538  140.9074  156.6696 C   0  0  0  0  0  0  0  0  0  0  0  0
  151.2741  139.9716  155.6465 C   0  0  0  0  0  0  0  0  0  0  0  0
  150.4711  140.0660  154.5989 N   0  0  0  0  0  0  0  0  0  0  0  0
  146.5284  136.2341  152.8664 N   0  3  0  0  0  0  0  0  0  0  0  0
  146.4981  135.2112  153.9486 C   0  0  0  0  0  0  0  0  0  0  0  0
  146.7130  133.7957  153.3843 C   0  0  0  0  0  0  0  0  0  0  0  0
  145.7373  133.5154  152.3923 O   0  0  0  0  0  0  0  0  0  0  0  0
  145.8349  134.4165  151.3000 C   0  0  0  0  0  0  0  0  0  0  0  0
  145.5711  135.8482  151.7932 C   0  0  0  0  0  0  0  0  0  0  0  0
  144.8060  138.8642  154.3056 H   0  0  0  0  0  0  0  0  0  0  0  0
  144.7915  137.2029  154.8092 H   0  0  0  0  0  0  0  0  0  0  0  0
  144.1640  137.6360  153.2239 H   0  0  0  0  0  0  0  0  0  0  0  0
  147.1025  137.8488  154.0800 H   0  0  0  0  0  0  0  0  0  0  0  0
  146.9946  138.2355  151.2871 H   0  0  0  0  0  0  0  0  0  0  0  0
  145.6233  139.1439  151.8876 H   0  0  0  0  0  0  0  0  0  0  0  0
  148.0931  140.1410  151.8525 H   0  0  0  0  0  0  0  0  0  0  0  0
  149.0181  141.7105  153.0217 H   0  0  0  0  0  0  0  0  0  0  0  0
  148.0743  142.3395  154.3613 H   0  0  0  0  0  0  0  0  0  0  0  0
  149.2981  142.3945  156.5807 H   0  0  0  0  0  0  0  0  0  0  0  0
  151.4342  141.0549  157.6255 H   0  0  0  0  0  0  0  0  0  0  0  0
  152.0603  139.2311  155.6343 H   0  0  0  0  0  0  0  0  0  0  0  0
  147.2892  135.3910  154.6756 H   0  0  0  0  0  0  0  0  0  0  0  0
  145.5449  135.2645  154.4772 H   0  0  0  0  0  0  0  0  0  0  0  0
  147.7155  133.6918  152.9658 H   0  0  0  0  0  0  0  0  0  0  0  0
  146.6256  133.0577  154.1820 H   0  0  0  0  0  0  0  0  0  0  0  0
  146.8161  134.3389  150.8284 H   0  0  0  0  0  0  0  0  0  0  0  0
  145.0973  134.1376  150.5473 H   0  0  0  0  0  0  0  0  0  0  0  0
  144.5501  135.9235  152.1711 H   0  0  0  0  0  0  0  0  0  0  0  0
  145.6416  136.5209  150.9408 H   0  0  0  0  0  0  0  0  0  0  0  0
  147.4543  136.1792  152.4665 H   0  0  0  0  0  0  0  0  0  0  0  0
  1  2  1  0  0  0  0
  1 19  1  0  0  0  0
  1 20  1  0  0  0  0
  1 21  1  0  0  0  0
  2  3  1  0  0  0  0
  2 13  1  0  0  0  0
  2 22  1  0  0  0  0
  3  4  1  0  0  0  0
  3 23  1  0  0  0  0
  3 24  1  0  0  0  0
  4  5  1  0  0  0  0
  4 25  1  0  0  0  0
  5  6  2  0  0  0  0
  5  7  1  0  0  0  0
  7  8  1  0  0  0  0
  7 26  1  0  0  0  0
  7 27  1  0  0  0  0
  8 12  1  0  0  0  0
  8  9  1  0  0  0  0
  9 10  2  0  0  0  0
  9 28  1  0  0  0  0
 10 11  1  0  0  0  0
 10 29  1  0  0  0  0
 11 12  2  0  0  0  0
 11 30  1  0  0  0  0
 13 18  1  0  0  0  0
 13 14  1  0  0  0  0
 13 39  1  0  0  0  0
 14 15  1  0  0  0  0
 14 31  1  0  0  0  0
 14 32  1  0  0  0  0
 15 16  1  0  0  0  0
 15 33  1  0  0  0  0
 15 34  1  0  0  0  0
 16 17  1  0  0  0  0
 17 18  1  0  0  0  0
 17 35  1  0  0  0  0
 17 36  1  0  0  0  0
 18 37  1  0  0  0  0
 18 38  1  0  0  0  0
M  CHG  1  13   1
M  END
> <s_m_source_file>
AV-unprocessed.smi

> <i_m_source_file_index>
1420

> <i_lp_mmshare_version>
43012

> <i_f3d_flags>
0

> <s_epik_input>
W0NIMl0xW0NIMl1PW0NIMl1bQ0gyXU4xW0NASF0oW0NIM10pW0NIMl1bTkhdQyg9TylbQ0gyXW4yW2NIXVtjSF1bY0hdbjI=

> <s_epik_cmdline>
J2VwaWtfcHl0aG9uJywgJy1waCcsICc3LjAnLCAnLXRuJywgJzgnLCAnLW1hJywgJzIwMCcsICctbWV0YWxfYmluZGluZycsICctaW1hZScsICc8aW5maWxlLm1hZT4nLCAnLW9tYWUnLCAnPG91dGZpbGUubWFlPic=

> <r_lp_tautomer_probability>
1

> <r_epik_Ionization_Penalty>
0.748405

> <r_epik_Ionization_Penalty_Charging>
0.748396

> <r_epik_Ionization_Penalty_Neutral>
8.56978e-06

> <r_epik_State_Penalty>
0.775162

> <r_epik_Charging_Adjusted_Penalty>
1.52356

> <i_epik_Tot_Q>
1

> <i_epik_Tot_abs_Q>
1

> <r_epik_Metal_State_Penalty>
0.775167

> <b_epik_Metal_Only>
0

> <s_lp_Force_Field>
OPLS_2005

> <r_lp_Energy>
20.6517

> <b_lp_Chiralities_Consistent>
1

> <s_lp_Variant>
AV-unprocessed.smi:1420-3

> <Gold.Version>
5.8.1

> <Gold.Id.Protein>
6NUR|6NUR_protein|mol2

> <Gold.PLP.Fitness>
42.6418

> <Gold.PLP.PLP>
-29.4721

> <Gold.PLP.part.hbond>
-2.8450

> <Gold.PLP.part.metal>
0.0000

> <Gold.PLP.part.buried>
-2.2097

> <Gold.PLP.part.nonpolar>
-25.9546

> <Gold.PLP.part.repulsive>
0.3511

> <Gold.PLP.ligand.clash>
0.0000

> <Gold.PLP.ligand.torsion>
0.9128

> <Gold.PLP.Chemscore.Hbond>
3.9760

> <Gold.PLP.Chemscore.CHOScore>
1.0000

> <Gold.PLP.Chemscore.Metal>
0.0000

> <Gold.Chemscore.Hbonds>
donor molecule, donor type, donor heavy atom, donor atom, acceptor molecule, acceptor atom, score
      L1  H     4    25       P1  7957  0.94
      L1  H    13    39       P1  7948  2.00
      P1  H  7989  7998       L1    12  0.90
      L1  C     9    28       P1  8028  0.98

> <Gold.PLP.Chemscore.Internal.Correction>
0.0673

> <Gold.Rescore>
     Score         DG    S(hbond)    S(metal)    S(lipo)     H(rot)  DE(clash)    DE(int)     intcor
     12.36     -16.23       2.85        0.00      53.05       1.94       0.04       3.83       ----

> <Gold.Chemscore.Fitness>
12.3552

> <Gold.Chemscore.DG>
-16.2269

> <Gold.Chemscore.ZeroCoef>
-5.4800

> <Gold.Chemscore.Hbond>
2.8490

> <Gold.Chemscore.Metal>
0.0000

> <Gold.Chemscore.Lipo>
53.0492

> <Gold.Chemscore.Internal_Hbond>
0.0000

> <Gold.Chemscore.DEClash>
0.0387

> <Gold.Chemscore.DEInternal>
3.8330

> <Gold.Chemscore.Rot>
1.9435

> <Gold.Chemscore.Internal.Correction>
   9.000000E+99

> <Gold.Chemscore.Hbonds>
donor molecule, donor type, donor heavy atom, donor atom, acceptor molecule, acceptor atom, score
      L1  H     4    25       P1  7957  0.91
      L1  H    13    39       P1  7948  0.99
      P1  H  7989  7998       L1    12  0.07

> <Gold.Chemscore.Hbond.Weighted>
-9.5156

> <Gold.Chemscore.Metal.Weighted>
-0.0000

> <Gold.Chemscore.Lipo.Weighted>
-6.2068

> <Gold.Chemscore.Internal_Hbond.Weighted>
0.0000

> <Gold.Chemscore.DEClash.Weighted>
0.0387

> <Gold.Chemscore.DEInternal.Weighted>
3.8330

> <Gold.Chemscore.Rot.Weighted>
4.9754

> <Gold.Chemscore.Internal.Correction.Weighted>
   9.000000E+99

> <Gold.Protein.RotatedTorsions>
[ 6907 6896 6895 6894 ] final  -14.06 input  -60.11 | X-H torsion
[ 7974 7965 7964 7962 ] final -178.03 input  175.53 | X-H torsion
[ 8008 7997 7996 7995 ] final  -36.60 input   59.86 | X-H torsion
[ 10167 10162 10161 10158 ] final  121.28 input  -65.29 | X-H torsion
[ 10718 10713 10712 10709 ] final  -24.41 input   66.30 | X-H torsion
[ 10763 10752 10751 10750 ] final   90.54 input  -60.55 | X-H torsion
[ 11005 11000 10999 10996 ] final  -13.51 input  -57.11 | X-H torsion

> <Gold.Protein.ActiveResidues>
 VAL166  LYS551  ARG553  GLY616  TRP617  ASP618  TYR619  PRO620  LYS621  CYS622 
 ASP623  PHE694  ASN695  SER759  ASP760  ASP761  ALA762  ILE779  LEU786  VAL792 
 PHE793  MET794  SER795  GLU796  ALA797  LYS798  CYS799  TRP800  GLU811  SER814 

> <Gold.Protein.RotatedAtoms>
  151.3453  135.0872  159.9384 H   0  0  0  0  0  0  0  0  0  0  0  0  # atno 6907 bound_to 6896
  152.5201  133.9407  159.7635 H   0  0  0  0  0  0  0  0  0  0  0  0  # atno 6908 bound_to 6896
  150.9771  133.6230  159.2758 H   0  0  0  0  0  0  0  0  0  0  0  0  # atno 6909 bound_to 6896
  144.7129  140.0931  143.6420 H   0  0  0  0  0  0  0  0  0  0  0  0  # atno 7974 bound_to 7965
  154.4070  140.1626  156.2401 H   0  0  0  0  0  0  0  0  0  0  0  0  # atno 8008 bound_to 7997
  155.9209  140.3421  155.6149 H   0  0  0  0  0  0  0  0  0  0  0  0  # atno 8009 bound_to 7997
  155.7223  140.0770  157.2316 H   0  0  0  0  0  0  0  0  0  0  0  0  # atno 8010 bound_to 7997
  139.5929  144.7031  151.3246 H   0  0  0  0  0  0  0  0  0  0  0  0  # atno 10167 bound_to 10162
  156.4781  130.4539  149.6828 H   0  0  0  0  0  0  0  0  0  0  0  0  # atno 10718 bound_to 10713
  153.1987  135.4430  155.0239 H   0  0  0  0  0  0  0  0  0  0  0  0  # atno 10763 bound_to 10752
  154.8134  135.3304  154.7246 H   0  0  0  0  0  0  0  0  0  0  0  0  # atno 10764 bound_to 10752
  153.7693  135.6986  153.4965 H   0  0  0  0  0  0  0  0  0  0  0  0  # atno 10765 bound_to 10752
  140.7768  133.8394  155.9256 H   0  0  0  0  0  0  0  0  0  0  0  0  # atno 11005 bound_to 11000
  145.9603  139.2796  143.1159 LP  0  0  0  0  0  0  0  0  0  0  0  0  # atno 17320 bound_to 7965
  145.9228  140.9103  143.0396 LP  0  0  0  0  0  0  0  0  0  0  0  0  # atno 17321 bound_to 7965
  140.7188  143.7193  150.7708 LP  0  0  0  0  0  0  0  0  0  0  0  0  # atno 17342 bound_to 10162
  140.0753  143.5021  152.2559 LP  0  0  0  0  0  0  0  0  0  0  0  0  # atno 17343 bound_to 10162
  156.3550  130.7452  151.2416 LP  0  0  0  0  0  0  0  0  0  0  0  0  # atno 17370 bound_to 10713
  157.7486  131.0366  150.4418 LP  0  0  0  0  0  0  0  0  0  0  0  0  # atno 17371 bound_to 10713
  140.9521  134.1765  157.4720 LP  0  0  0  0  0  0  0  0  0  0  0  0  # atno 17394 bound_to 11000
  139.8748  134.9913  156.5542 LP  0  0  0  0  0  0  0  0  0  0  0  0  # atno 17395 bound_to 11000

$$$$
