AV-unprocessed.smi:1|AV-procd|sdf|18|dock6
  -GOLD-   2262015113D 1   1.00000     0.00000
 Structure written by MMmdl.
 56 61  0  0  0  0  0  0  0  0  2 V2000
  153.2280  140.0944  160.3087 O   0  0  0  0  0  0  0  0  0  0  0  0
  152.5344  140.6664  159.4652 C   0  0  0  0  0  0  0  0  0  0  0  0
  151.8462  140.1104  158.4361 N   0  5  0  0  0  0  0  0  0  0  0  0
  152.1602  138.8779  158.0081 C   0  0  0  0  0  0  0  0  0  0  0  0
  153.4592  138.5093  157.8716 N   0  0  0  0  0  0  0  0  0  0  0  0
  153.7726  137.2777  157.4531 C   0  0  0  0  0  0  0  0  0  0  0  0
  152.9605  136.2666  157.1284 N   0  0  0  0  0  0  0  0  0  0  0  0
  151.6505  136.6228  157.2707 C   0  0  0  0  0  0  0  0  0  0  0  0
  151.1778  137.8963  157.7033 C   0  0  0  0  0  0  0  0  0  0  0  0
  149.7912  137.9206  157.7382 N   0  0  0  0  0  0  0  0  0  0  0  0
  149.4905  136.6893  157.3311 C   0  0  0  0  0  0  0  0  0  0  0  0
  150.5155  135.8622  157.0447 N   0  0  0  0  0  0  0  0  0  0  0  0
  150.4406  134.4521  156.5656 C   0  0  1  0  0  0  0  0  0  0  0  0
  150.2725  133.6250  157.6731 O   0  0  0  0  0  0  0  0  0  0  0  0
  149.4632  132.5266  157.2871 C   0  0  1  0  0  0  0  0  0  0  0  0
  148.9073  131.7805  158.5082 C   0  0  0  0  0  0  0  0  0  0  0  0
  148.2837  132.6766  159.4152 O   0  0  0  0  0  0  0  0  0  0  0  0
  147.4657  132.2036  160.3757 C   0  0  0  0  0  0  0  0  0  0  0  0
  147.3221  131.0040  160.6208 O   0  0  0  0  0  0  0  0  0  0  0  0
  146.7491  133.2834  161.1125 C   0  0  0  0  0  0  0  0  0  0  0  0
  145.4946  133.0053  161.7038 C   0  0  0  0  0  0  0  0  0  0  0  0
  144.7936  134.0068  162.4032 C   0  0  0  0  0  0  0  0  0  0  0  0
  145.3376  135.2995  162.5176 C   0  0  0  0  0  0  0  0  0  0  0  0
  146.5824  135.5899  161.9294 C   0  0  0  0  0  0  0  0  0  0  0  0
  147.2847  134.5892  161.2300 C   0  0  0  0  0  0  0  0  0  0  0  0
  148.4292  133.1403  156.3389 C   0  0  2  0  0  0  0  0  0  0  0  0
  147.9626  132.2045  155.3834 O   0  0  0  0  0  0  0  0  0  0  0  0
  148.8387  132.3825  153.9728 S   0  0  0  0  0  0  0  0  0  0  0  0
  149.7843  131.2605  153.8734 O   0  0  0  0  0  0  0  0  0  0  0  0
  147.9039  132.7286  152.8915 O   0  0  0  0  0  0  0  0  0  0  0  0
  149.7009  133.7536  154.3792 O   0  0  0  0  0  0  0  0  0  0  0  0
  149.2402  134.2376  155.6286 C   0  0  2  0  0  0  0  0  0  0  0  0
  152.3387  142.1550  159.5760 C   0  0  0  0  0  0  0  0  0  0  0  0
  152.5037  142.7921  160.8272 C   0  0  0  0  0  0  0  0  0  0  0  0
  152.3507  144.1872  160.9466 C   0  0  0  0  0  0  0  0  0  0  0  0
  152.0400  144.9620  159.8135 C   0  0  0  0  0  0  0  0  0  0  0  0
  151.8865  144.3408  158.5599 C   0  0  0  0  0  0  0  0  0  0  0  0
  152.0393  142.9458  158.4397 C   0  0  0  0  0  0  0  0  0  0  0  0
  154.8292  137.0731  157.3728 H   0  0  0  0  0  0  0  0  0  0  0  0
  148.4630  136.3692  157.2388 H   0  0  0  0  0  0  0  0  0  0  0  0
  151.4016  134.2604  156.0859 H   0  0  0  0  0  0  0  0  0  0  0  0
  150.1076  131.8458  156.7281 H   0  0  0  0  0  0  0  0  0  0  0  0
  148.1707  131.0440  158.1845 H   0  0  0  0  0  0  0  0  0  0  0  0
  149.7142  131.2367  159.0017 H   0  0  0  0  0  0  0  0  0  0  0  0
  145.0576  132.0197  161.6297 H   0  0  0  0  0  0  0  0  0  0  0  0
  143.8374  133.7823  162.8525 H   0  0  0  0  0  0  0  0  0  0  0  0
  144.8006  136.0675  163.0547 H   0  0  0  0  0  0  0  0  0  0  0  0
  147.0007  136.5819  162.0149 H   0  0  0  0  0  0  0  0  0  0  0  0
  148.2358  134.8459  160.7866 H   0  0  0  0  0  0  0  0  0  0  0  0
  147.5963  133.5883  156.8808 H   0  0  0  0  0  0  0  0  0  0  0  0
  148.6614  135.1508  155.4843 H   0  0  0  0  0  0  0  0  0  0  0  0
  152.7444  142.2118  161.7062 H   0  0  0  0  0  0  0  0  0  0  0  0
  152.4733  144.6624  161.9085 H   0  0  0  0  0  0  0  0  0  0  0  0
  151.9232  146.0316  159.9050 H   0  0  0  0  0  0  0  0  0  0  0  0
  151.6538  144.9341  157.6882 H   0  0  0  0  0  0  0  0  0  0  0  0
  151.9283  142.4902  157.4662 H   0  0  0  0  0  0  0  0  0  0  0  0
  1  2  2  0  0  0  0
  2  3  1  0  0  0  0
  2 33  1  0  0  0  0
  3  4  1  0  0  0  0
  4  9  1  0  0  0  0
  4  5  2  0  0  0  0
  5  6  1  0  0  0  0
  6  7  2  0  0  0  0
  6 39  1  0  0  0  0
  7  8  1  0  0  0  0
  8 12  1  0  0  0  0
  8  9  2  0  0  0  0
  9 10  1  0  0  0  0
 10 11  2  0  0  0  0
 11 12  1  0  0  0  0
 11 40  1  0  0  0  0
 12 13  1  0  0  0  0
 13 32  1  0  0  0  0
 13 14  1  0  0  0  0
 13 41  1  0  0  0  0
 14 15  1  0  0  0  0
 15 16  1  0  0  0  0
 15 26  1  0  0  0  0
 15 42  1  0  0  0  0
 16 17  1  0  0  0  0
 16 43  1  0  0  0  0
 16 44  1  0  0  0  0
 17 18  1  0  0  0  0
 18 19  2  0  0  0  0
 18 20  1  0  0  0  0
 20 25  1  0  0  0  0
 20 21  2  0  0  0  0
 21 22  1  0  0  0  0
 21 45  1  0  0  0  0
 22 23  2  0  0  0  0
 22 46  1  0  0  0  0
 23 24  1  0  0  0  0
 23 47  1  0  0  0  0
 24 25  2  0  0  0  0
 24 48  1  0  0  0  0
 25 49  1  0  0  0  0
 26 32  1  0  0  0  0
 26 27  1  0  0  0  0
 26 50  1  0  0  0  0
 27 28  1  0  0  0  0
 28 29  2  0  0  0  0
 28 30  2  0  0  0  0
 28 31  1  0  0  0  0
 31 32  1  0  0  0  0
 32 51  1  0  0  0  0
 33 38  1  0  0  0  0
 33 34  2  0  0  0  0
 34 35  1  0  0  0  0
 34 52  1  0  0  0  0
 35 36  2  0  0  0  0
 35 53  1  0  0  0  0
 36 37  1  0  0  0  0
 36 54  1  0  0  0  0
 37 38  2  0  0  0  0
 37 55  1  0  0  0  0
 38 56  1  0  0  0  0
M  CHG  1   3  -1
M  END
> <s_m_source_file>
AV-unprocessed.smi

> <i_m_source_file_index>
1

> <i_lp_mmshare_version>
43012

> <i_f3d_flags>
0

> <s_epik_input>
W2NIXTFbY0hdW2NIXVtjSF1bY0hdYzFDKD1PKVtOSF1jKG5bY0hdbjIpYyhjMjMpbltjSF1uM1tDQEBIXShbQ0BIXShbQ0BIXTQ1KU9TKE81KSg9Tyk9TylPW0NASF00W0NIMl1PQyg9TyljNltjSF1bY0hdW2NIXVtjSF1bY0hdNg==

> <s_epik_cmdline>
J2VwaWtfcHl0aG9uJywgJy1waCcsICc3LjAnLCAnLXRuJywgJzgnLCAnLW1hJywgJzIwMCcsICctbWV0YWxfYmluZGluZycsICctaW1hZScsICc8aW5maWxlLm1hZT4nLCAnLW9tYWUnLCAnPG91dGZpbGUubWFlPic=

> <r_lp_tautomer_probability>
1

> <r_epik_Ionization_Penalty>
4.39121

> <r_epik_Ionization_Penalty_Charging>
3.39398

> <r_epik_Ionization_Penalty_Neutral>
0.997232

> <r_epik_State_Penalty>
3.39839

> <r_epik_Charging_Adjusted_Penalty>
6.79237

> <i_epik_Tot_Q>
-1

> <i_epik_Tot_abs_Q>
1

> <r_epik_Metal_State_Penalty>
0.497663

> <b_epik_Metal_Only>
1

> <s_epik_Chemistry_Notes>
This compound has an ester and may undergo hydrolysis at high or low pH. This compound contains an acetal/aminal-like group ( X-CH(R)-Y where X, Y are N, S, or O) that may be acid/base labile, releasing an aldehyde.

> <s_lp_Force_Field>
OPLS_2005

> <r_lp_Energy>
46.6749

> <b_lp_Chiralities_Consistent>
1

> <s_lp_Variant>
AV-unprocessed.smi:1-18

> <Gold.Version>
5.8.1

> <Gold.Id.Protein>
6NUR|6NUR_protein|mol2

> <Gold.PLP.Fitness>
60.1419

> <Gold.PLP.PLP>
-54.5062

> <Gold.PLP.part.hbond>
-3.1656

> <Gold.PLP.part.metal>
0.0000

> <Gold.PLP.part.buried>
-8.6827

> <Gold.PLP.part.nonpolar>
-43.7860

> <Gold.PLP.part.repulsive>
0.3197

> <Gold.PLP.ligand.clash>
0.0000

> <Gold.PLP.ligand.torsion>
1.8296

> <Gold.PLP.Chemscore.Hbond>
2.9760

> <Gold.PLP.Chemscore.CHOScore>
0.0000

> <Gold.PLP.Chemscore.Metal>
0.0000

> <Gold.Chemscore.Hbonds>
donor molecule, donor type, donor heavy atom, donor atom, acceptor molecule, acceptor atom, score
      P1  H  6896  6908       L1    14  1.00
      P1  H  7997  8008       L1     5  0.89
      P1  H 10752 10764       L1     7  0.88

> <Gold.PLP.Chemscore.Internal.Correction>
0.3668

> <Gold.Rescore>
     Score         DG    S(hbond)    S(metal)    S(lipo)     H(rot)  DE(clash)    DE(int)     intcor
     20.51     -23.38       2.39        0.00     131.15       2.11       0.06       2.81       ----

> <Gold.Chemscore.Fitness>
20.5106

> <Gold.Chemscore.DG>
-23.3801

> <Gold.Chemscore.ZeroCoef>
-5.4800

> <Gold.Chemscore.Hbond>
2.3852

> <Gold.Chemscore.Metal>
0.0000

> <Gold.Chemscore.Lipo>
131.1474

> <Gold.Chemscore.Internal_Hbond>
0.0000

> <Gold.Chemscore.DEClash>
0.0586

> <Gold.Chemscore.DEInternal>
2.8110

> <Gold.Chemscore.Rot>
2.1136

> <Gold.Chemscore.Internal.Correction>
   9.000000E+99

> <Gold.Chemscore.Hbonds>
donor molecule, donor type, donor heavy atom, donor atom, acceptor molecule, acceptor atom, score
      P1  H  6896  6908       L1    14  0.93
      P1  H  7997  8008       L1     5  0.65
      P1  H 10752 10764       L1     7  0.65

> <Gold.Chemscore.Hbond.Weighted>
-7.9666

> <Gold.Chemscore.Metal.Weighted>
-0.0000

> <Gold.Chemscore.Lipo.Weighted>
-15.3442

> <Gold.Chemscore.Internal_Hbond.Weighted>
0.0000

> <Gold.Chemscore.DEClash.Weighted>
0.0586

> <Gold.Chemscore.DEInternal.Weighted>
2.8110

> <Gold.Chemscore.Rot.Weighted>
5.4107

> <Gold.Chemscore.Internal.Correction.Weighted>
   9.000000E+99

> <Gold.Protein.RotatedTorsions>
[ 6907 6896 6895 6894 ] final  111.95 input  -60.11 | X-H torsion
[ 7974 7965 7964 7962 ] final    9.08 input  175.53 | X-H torsion
[ 8008 7997 7996 7995 ] final  -87.88 input   59.86 | X-H torsion
[ 10167 10162 10161 10158 ] final  -12.78 input  -65.29 | X-H torsion
[ 10718 10713 10712 10709 ] final   83.95 input   66.30 | X-H torsion
[ 10763 10752 10751 10750 ] final   -6.55 input  -60.55 | X-H torsion
[ 11005 11000 10999 10996 ] final   37.07 input  -57.11 | X-H torsion

> <Gold.Protein.ActiveResidues>
 VAL166  LYS551  ARG553  GLY616  TRP617  ASP618  TYR619  PRO620  LYS621  CYS622 
 ASP623  PHE694  ASN695  SER759  ASP760  ASP761  ALA762  ILE779  LEU786  VAL792 
 PHE793  MET794  SER795  GLU796  ALA797  LYS798  CYS799  TRP800  GLU811  SER814 

> <Gold.Protein.RotatedAtoms>
  152.4942  133.8585  159.7237 H   0  0  0  0  0  0  0  0  0  0  0  0  # atno 6907 bound_to 6896
  150.9103  133.6997  159.2863 H   0  0  0  0  0  0  0  0  0  0  0  0  # atno 6908 bound_to 6896
  151.4409  135.1024  159.9722 H   0  0  0  0  0  0  0  0  0  0  0  0  # atno 6909 bound_to 6896
  146.2408  139.9837  142.8433 H   0  0  0  0  0  0  0  0  0  0  0  0  # atno 7974 bound_to 7965
  154.6684  140.0560  157.0139 H   0  0  0  0  0  0  0  0  0  0  0  0  # atno 8008 bound_to 7997
  155.1125  140.3239  155.4499 H   0  0  0  0  0  0  0  0  0  0  0  0  # atno 8009 bound_to 7997
  156.2647  140.2012  156.6249 H   0  0  0  0  0  0  0  0  0  0  0  0  # atno 8010 bound_to 7997
  140.7168  143.5496  150.9316 H   0  0  0  0  0  0  0  0  0  0  0  0  # atno 10167 bound_to 10162
  157.6889  131.0112  150.2600 H   0  0  0  0  0  0  0  0  0  0  0  0  # atno 10718 bound_to 10713
  153.4139  135.7008  153.6340 H   0  0  0  0  0  0  0  0  0  0  0  0  # atno 10763 bound_to 10752
  153.4823  135.3691  155.2449 H   0  0  0  0  0  0  0  0  0  0  0  0  # atno 10764 bound_to 10752
  154.8718  135.4069  154.3496 H   0  0  0  0  0  0  0  0  0  0  0  0  # atno 10765 bound_to 10752
  140.2262  134.3582  155.7983 H   0  0  0  0  0  0  0  0  0  0  0  0  # atno 11005 bound_to 11000
  145.1568  140.9652  143.4400 LP  0  0  0  0  0  0  0  0  0  0  0  0  # atno 17320 bound_to 7965
  145.0153  139.3472  143.6099 LP  0  0  0  0  0  0  0  0  0  0  0  0  # atno 17321 bound_to 7965
  139.9220  143.6595  152.3095 LP  0  0  0  0  0  0  0  0  0  0  0  0  # atno 17342 bound_to 10162
  139.7015  144.7634  151.1265 LP  0  0  0  0  0  0  0  0  0  0  0  0  # atno 17343 bound_to 10162
  156.3181  130.3782  149.7600 LP  0  0  0  0  0  0  0  0  0  0  0  0  # atno 17370 bound_to 10713
  156.5179  130.8201  151.3193 LP  0  0  0  0  0  0  0  0  0  0  0  0  # atno 17371 bound_to 10713
  141.2220  133.7220  156.8656 LP  0  0  0  0  0  0  0  0  0  0  0  0  # atno 17394 bound_to 11000
  140.1798  134.9041  157.2935 LP  0  0  0  0  0  0  0  0  0  0  0  0  # atno 17395 bound_to 11000

$$$$
