AV-unprocessed.smi:1952|AV-procd|sdf|7891|dock2
  -GOLD-   2272010 43D 1   1.00000     0.00000
 Structure written by MMmdl.
 39 40  0  0  0  0  0  0  0  0  3 V2000
  153.1657  141.7272  159.6737 C   0  0  0  0  0  0  0  0  0  0  0  0
  152.3454  141.0334  158.6404 C   0  0  0  0  0  0  0  0  0  0  0  0
  151.0972  141.2681  158.1365 C   0  0  0  0  0  0  0  0  0  0  0  0
  150.9347  140.2287  157.1826 C   0  0  0  0  0  0  0  0  0  0  0  0
  149.7346  140.1152  156.4328 N   0  0  0  0  0  0  0  0  0  0  0  0
  149.5818  139.8150  155.1309 C   0  0  0  0  0  0  0  0  0  0  0  0
  150.5706  139.6622  154.4039 O   0  0  0  0  0  0  0  0  0  0  0  0
  148.2717  139.7020  154.7753 N   0  5  0  0  0  0  0  0  0  0  0  0
  147.7702  138.9916  153.5914 C   0  0  2  0  0  0  0  0  0  0  0  0
  147.1709  140.0169  152.6187 C   0  0  0  0  0  0  0  0  0  0  0  0
  146.7205  137.9320  154.0085 C   0  0  0  0  0  0  0  0  0  0  0  0
  146.5538  136.8700  152.9804 N   0  3  0  0  0  0  0  0  0  0  0  0
  146.2068  135.5447  153.5430 C   0  0  0  0  0  0  0  0  0  0  0  0
  146.1963  134.4873  152.4264 C   0  0  0  0  0  0  0  0  0  0  0  0
  145.2830  134.8752  151.4066 O   0  0  0  0  0  0  0  0  0  0  0  0
  145.6462  136.1142  150.8079 C   0  0  0  0  0  0  0  0  0  0  0  0
  145.6319  137.2232  151.8719 C   0  0  0  0  0  0  0  0  0  0  0  0
  151.9882  139.4282  157.1142 N   0  0  0  0  0  0  0  0  0  0  0  0
  152.8983  139.9414  158.0457 O   0  0  0  0  0  0  0  0  0  0  0  0
  152.5772  141.9144  160.5720 H   0  0  0  0  0  0  0  0  0  0  0  0
  153.5260  142.6853  159.2993 H   0  0  0  0  0  0  0  0  0  0  0  0
  154.0312  141.1279  159.9570 H   0  0  0  0  0  0  0  0  0  0  0  0
  150.4119  142.0570  158.4081 H   0  0  0  0  0  0  0  0  0  0  0  0
  148.8811  140.2560  156.9525 H   0  0  0  0  0  0  0  0  0  0  0  0
  148.5740  138.4794  153.0606 H   0  0  0  0  0  0  0  0  0  0  0  0
  146.7953  139.5286  151.7191 H   0  0  0  0  0  0  0  0  0  0  0  0
  147.9182  140.7471  152.3061 H   0  0  0  0  0  0  0  0  0  0  0  0
  146.3411  140.5611  153.0713 H   0  0  0  0  0  0  0  0  0  0  0  0
  147.0338  137.4885  154.9555 H   0  0  0  0  0  0  0  0  0  0  0  0
  145.7565  138.4024  154.2076 H   0  0  0  0  0  0  0  0  0  0  0  0
  146.9370  135.2633  154.3029 H   0  0  0  0  0  0  0  0  0  0  0  0
  145.2321  135.5947  154.0305 H   0  0  0  0  0  0  0  0  0  0  0  0
  147.1951  134.3567  152.0062 H   0  0  0  0  0  0  0  0  0  0  0  0
  145.8902  133.5207  152.8269 H   0  0  0  0  0  0  0  0  0  0  0  0
  146.6304  136.0336  150.3433 H   0  0  0  0  0  0  0  0  0  0  0  0
  144.9366  136.3455  150.0135 H   0  0  0  0  0  0  0  0  0  0  0  0
  144.6219  137.3592  152.2614 H   0  0  0  0  0  0  0  0  0  0  0  0
  145.9313  138.1683  151.4181 H   0  0  0  0  0  0  0  0  0  0  0  0
  147.4721  136.7622  152.5705 H   0  0  0  0  0  0  0  0  0  0  0  0
  1  2  1  0  0  0  0
  1 20  1  0  0  0  0
  1 21  1  0  0  0  0
  1 22  1  0  0  0  0
  2 19  1  0  0  0  0
  2  3  2  0  0  0  0
  3  4  1  0  0  0  0
  3 23  1  0  0  0  0
  4  5  1  0  0  0  0
  4 18  2  0  0  0  0
  5  6  1  0  0  0  0
  5 24  1  0  0  0  0
  6  7  2  0  0  0  0
  6  8  1  0  0  0  0
  8  9  1  0  0  0  0
  9 10  1  0  0  0  0
  9 11  1  0  0  0  0
  9 25  1  0  0  0  0
 10 26  1  0  0  0  0
 10 27  1  0  0  0  0
 10 28  1  0  0  0  0
 11 12  1  0  0  0  0
 11 29  1  0  0  0  0
 11 30  1  0  0  0  0
 12 17  1  0  0  0  0
 12 13  1  0  0  0  0
 12 39  1  0  0  0  0
 13 14  1  0  0  0  0
 13 31  1  0  0  0  0
 13 32  1  0  0  0  0
 14 15  1  0  0  0  0
 14 33  1  0  0  0  0
 14 34  1  0  0  0  0
 15 16  1  0  0  0  0
 16 17  1  0  0  0  0
 16 35  1  0  0  0  0
 16 36  1  0  0  0  0
 17 37  1  0  0  0  0
 17 38  1  0  0  0  0
 18 19  1  0  0  0  0
M  CHG  1   8  -1
M  CHG  1  12   1
M  END
> <s_m_source_file>
AV-unprocessed.smi

> <i_m_source_file_index>
1952

> <i_lp_mmshare_version>
43012

> <i_f3d_flags>
0

> <s_epik_input>
W0NIM11jMVtjSF1jKG5vMSlbTkhdQyg9TylbTkhdW0NASF0oW0NIM10pW0NIMl1OMltDSDJdW0NIMl1PW0NIMl1bQ0gyXTI=

> <s_epik_cmdline>
J2VwaWtfcHl0aG9uJywgJy1waCcsICc3LjAnLCAnLXRuJywgJzgnLCAnLW1hJywgJzIwMCcsICctbWV0YWxfYmluZGluZycsICctaW1hZScsICc8aW5maWxlLm1hZT4nLCAnLW9tYWUnLCAnPG91dGZpbGUubWFlPic=

> <r_epik_Ionization_Penalty>
6.76648

> <r_epik_Ionization_Penalty_Charging>
6.76648

> <r_epik_Ionization_Penalty_Neutral>
5.6208e-06

> <r_epik_State_Penalty>
7.45901

> <r_epik_Charging_Adjusted_Penalty>
14.2255

> <i_epik_Tot_Q>
0

> <i_epik_Tot_abs_Q>
2

> <r_epik_Metal_State_Penalty>
3.38802

> <b_epik_Metal_Only>
1

> <s_lp_Force_Field>
OPLS_2005

> <r_lp_Energy>
9.23167

> <b_lp_Chiralities_Consistent>
1

> <s_lp_Variant>
AV-unprocessed.smi:1952-9

> <Gold.Version>
5.8.1

> <Gold.Id.Protein>
6NUR|6NUR_protein|mol2

> <Gold.PLP.Fitness>
35.8840

> <Gold.PLP.PLP>
-25.6309

> <Gold.PLP.part.hbond>
-3.0000

> <Gold.PLP.part.metal>
0.0000

> <Gold.PLP.part.buried>
0.3272

> <Gold.PLP.part.nonpolar>
-22.5252

> <Gold.PLP.part.repulsive>
0.4289

> <Gold.PLP.ligand.clash>
0.0000

> <Gold.PLP.ligand.torsion>
0.9796

> <Gold.PLP.Chemscore.Hbond>
4.0000

> <Gold.PLP.Chemscore.CHOScore>
0.0000

> <Gold.PLP.Chemscore.Metal>
0.0000

> <Gold.Chemscore.Hbonds>
donor molecule, donor type, donor heavy atom, donor atom, acceptor molecule, acceptor atom, score
      L1  H    12    39       P1  7948  2.00
      P1  H  7989  7998       L1     7  1.00
      P1  H  7997  8009       L1    19  0.95

> <Gold.PLP.Chemscore.Internal.Correction>
0.2123

> <Gold.Rescore>
     Score         DG    S(hbond)    S(metal)    S(lipo)     H(rot)  DE(clash)    DE(int)     intcor
     16.14     -17.60       2.79        0.00      58.41       1.58       0.17       1.29       ----

> <Gold.Chemscore.Fitness>
16.1447

> <Gold.Chemscore.DG>
-17.6040

> <Gold.Chemscore.ZeroCoef>
-5.4800

> <Gold.Chemscore.Hbond>
2.7947

> <Gold.Chemscore.Metal>
0.0000

> <Gold.Chemscore.Lipo>
58.4094

> <Gold.Chemscore.Internal_Hbond>
0.0000

> <Gold.Chemscore.DEClash>
0.1699

> <Gold.Chemscore.DEInternal>
1.2894

> <Gold.Chemscore.Rot>
1.5798

> <Gold.Chemscore.Internal.Correction>
   9.000000E+99

> <Gold.Chemscore.Hbonds>
donor molecule, donor type, donor heavy atom, donor atom, acceptor molecule, acceptor atom, score
      L1  H    12    39       P1  7948  1.00
      P1  H  7989  7998       L1     7  1.00
      P1  H  7997  8009       L1    19  0.21

> <Gold.Chemscore.Hbond.Weighted>
-9.3343

> <Gold.Chemscore.Metal.Weighted>
-0.0000

> <Gold.Chemscore.Lipo.Weighted>
-6.8339

> <Gold.Chemscore.Internal_Hbond.Weighted>
0.0000

> <Gold.Chemscore.DEClash.Weighted>
0.1699

> <Gold.Chemscore.DEInternal.Weighted>
1.2894

> <Gold.Chemscore.Rot.Weighted>
4.0442

> <Gold.Chemscore.Internal.Correction.Weighted>
   9.000000E+99

> <Gold.Protein.RotatedTorsions>
[ 6907 6896 6895 6894 ] final   77.84 input  -60.11 | X-H torsion
[ 7974 7965 7964 7962 ] final  105.85 input  175.53 | X-H torsion
[ 8008 7997 7996 7995 ] final  166.06 input   59.86 | X-H torsion
[ 10167 10162 10161 10158 ] final  162.86 input  -65.29 | X-H torsion
[ 10718 10713 10712 10709 ] final   15.70 input   66.30 | X-H torsion
[ 10763 10752 10751 10750 ] final -155.38 input  -60.55 | X-H torsion
[ 11005 11000 10999 10996 ] final  -27.76 input  -57.11 | X-H torsion

> <Gold.Protein.ActiveResidues>
 VAL166  LYS551  ARG553  GLY616  TRP617  ASP618  TYR619  PRO620  LYS621  CYS622 
 ASP623  PHE694  ASN695  SER759  ASP760  ASP761  ALA762  ILE779  LEU786  VAL792 
 PHE793  MET794  SER795  GLU796  ALA797  LYS798  CYS799  TRP800  GLU811  SER814 

> <Gold.Protein.RotatedAtoms>
  152.5135  134.3755  159.9332 H   0  0  0  0  0  0  0  0  0  0  0  0  # atno 6907 bound_to 6896
  151.3710  133.3848  159.2707 H   0  0  0  0  0  0  0  0  0  0  0  0  # atno 6908 bound_to 6896
  150.9577  134.8989  159.7770 H   0  0  0  0  0  0  0  0  0  0  0  0  # atno 6909 bound_to 6896
  145.3143  139.2531  143.3746 H   0  0  0  0  0  0  0  0  0  0  0  0  # atno 7974 bound_to 7965
  156.1749  140.1653  156.8380 H   0  0  0  0  0  0  0  0  0  0  0  0  # atno 8008 bound_to 7997
  154.5296  140.0759  156.8355 H   0  0  0  0  0  0  0  0  0  0  0  0  # atno 8009 bound_to 7997
  155.3434  140.3386  155.4241 H   0  0  0  0  0  0  0  0  0  0  0  0  # atno 8010 bound_to 7997
  139.4866  144.4395  151.8970 H   0  0  0  0  0  0  0  0  0  0  0  0  # atno 10167 bound_to 10162
  157.0573  130.6294  149.5779 H   0  0  0  0  0  0  0  0  0  0  0  0  # atno 10718 bound_to 10713
  154.7791  135.3169  154.8028 H   0  0  0  0  0  0  0  0  0  0  0  0  # atno 10763 bound_to 10752
  153.8744  135.6841  153.4776 H   0  0  0  0  0  0  0  0  0  0  0  0  # atno 10764 bound_to 10752
  153.1423  135.4734  154.9451 H   0  0  0  0  0  0  0  0  0  0  0  0  # atno 10765 bound_to 10752
  140.9148  133.7437  156.0720 H   0  0  0  0  0  0  0  0  0  0  0  0  # atno 11005 bound_to 11000
  146.3106  140.3686  142.8672 LP  0  0  0  0  0  0  0  0  0  0  0  0  # atno 17320 bound_to 7965
  144.8990  140.7619  143.5879 LP  0  0  0  0  0  0  0  0  0  0  0  0  # atno 17321 bound_to 7965
  140.3846  144.2693  150.5905 LP  0  0  0  0  0  0  0  0  0  0  0  0  # atno 17342 bound_to 10162
  140.5202  143.2267  151.8400 LP  0  0  0  0  0  0  0  0  0  0  0  0  # atno 17343 bound_to 10162
  155.9989  130.5064  150.7588 LP  0  0  0  0  0  0  0  0  0  0  0  0  # atno 17370 bound_to 10713
  157.4983  131.0916  151.0345 LP  0  0  0  0  0  0  0  0  0  0  0  0  # atno 17371 bound_to 10713
  140.8064  134.3450  157.5425 LP  0  0  0  0  0  0  0  0  0  0  0  0  # atno 17394 bound_to 11000
  139.8764  134.9228  156.3309 LP  0  0  0  0  0  0  0  0  0  0  0  0  # atno 17395 bound_to 11000

$$$$
