AV-unprocessed.smi:754|AV-procd|sdf|3608|dock2
  -GOLD-   22720 1 03D 1   1.00000     0.00000
 Structure written by MMmdl.
 37 38  0  0  0  0  0  0  0  0  1 V2000
  152.9686  142.3017  162.3545 C   0  0  0  0  0  0  0  0  0  0  0  0
  152.5029  143.6818  161.8859 C   0  0  0  0  0  0  0  0  0  0  0  0
  151.6108  143.5161  160.7970 O   0  0  0  0  0  0  0  0  0  0  0  0
  152.2531  143.0498  159.6211 C   0  0  1  0  0  0  0  0  0  0  0  0
  152.1758  141.5347  159.4090 C   0  0  0  0  0  0  0  0  0  0  0  0
  151.9861  141.8621  157.9271 C   0  0  1  0  0  0  0  0  0  0  0  0
  151.0467  140.9597  157.2695 N   0  0  0  0  0  0  0  0  0  0  0  0
  151.3654  140.1345  156.2615 C   0  0  0  0  0  0  0  0  0  0  0  0
  152.4968  140.0619  155.7809 O   0  0  0  0  0  0  0  0  0  0  0  0
  150.2331  139.2663  155.7069 C   0  0  0  0  0  0  0  0  0  0  0  0
  150.5569  137.8540  155.7884 N   0  0  0  0  0  0  0  0  0  0  0  0
  149.8612  136.8206  156.2668 C   0  0  0  0  0  0  0  0  0  0  0  0
  150.5266  135.6826  156.1402 N   0  0  0  0  0  0  0  0  0  0  0  0
  151.7100  136.0757  155.5370 N   0  0  0  0  0  0  0  0  0  0  0  0
  151.7335  137.3632  155.3255 N   0  0  0  0  0  0  0  0  0  0  0  0
  151.3943  143.2358  158.3457 C   0  0  0  0  0  0  0  0  0  0  0  0
  149.8728  143.3123  158.5637 C   0  0  0  0  0  0  0  0  0  0  0  0
  151.7761  144.4226  157.4612 C   0  0  0  0  0  0  0  0  0  0  0  0
  153.6562  142.3871  163.1960 H   0  0  0  0  0  0  0  0  0  0  0  0
  153.4834  141.7708  161.5534 H   0  0  0  0  0  0  0  0  0  0  0  0
  152.1233  141.6913  162.6728 H   0  0  0  0  0  0  0  0  0  0  0  0
  152.0048  144.2044  162.7039 H   0  0  0  0  0  0  0  0  0  0  0  0
  153.3627  144.2818  161.5849 H   0  0  0  0  0  0  0  0  0  0  0  0
  153.2660  143.4416  159.4996 H   0  0  0  0  0  0  0  0  0  0  0  0
  153.0934  140.9949  159.6442 H   0  0  0  0  0  0  0  0  0  0  0  0
  151.3035  141.0771  159.8793 H   0  0  0  0  0  0  0  0  0  0  0  0
  152.9452  141.9543  157.4117 H   0  0  0  0  0  0  0  0  0  0  0  0
  150.0944  140.9623  157.6053 H   0  0  0  0  0  0  0  0  0  0  0  0
  149.3017  139.4490  156.2456 H   0  0  0  0  0  0  0  0  0  0  0  0
  150.0587  139.5265  154.6624 H   0  0  0  0  0  0  0  0  0  0  0  0
  148.8754  136.9015  156.7006 H   0  0  0  0  0  0  0  0  0  0  0  0
  149.3284  143.2657  157.6201 H   0  0  0  0  0  0  0  0  0  0  0  0
  149.5879  144.2430  159.0552 H   0  0  0  0  0  0  0  0  0  0  0  0
  149.5053  142.4981  159.1885 H   0  0  0  0  0  0  0  0  0  0  0  0
  151.2612  144.3886  156.5008 H   0  0  0  0  0  0  0  0  0  0  0  0
  152.8459  144.4379  157.2515 H   0  0  0  0  0  0  0  0  0  0  0  0
  151.5270  145.3718  157.9365 H   0  0  0  0  0  0  0  0  0  0  0  0
  1  2  1  0  0  0  0
  1 19  1  0  0  0  0
  1 20  1  0  0  0  0
  1 21  1  0  0  0  0
  2  3  1  0  0  0  0
  2 22  1  0  0  0  0
  2 23  1  0  0  0  0
  3  4  1  0  0  0  0
  4 16  1  0  0  0  0
  4  5  1  0  0  0  0
  4 24  1  0  0  0  0
  5  6  1  0  0  0  0
  5 25  1  0  0  0  0
  5 26  1  0  0  0  0
  6  7  1  0  0  0  0
  6 16  1  0  0  0  0
  6 27  1  0  0  0  0
  7  8  1  0  0  0  0
  7 28  1  0  0  0  0
  8  9  2  0  0  0  0
  8 10  1  0  0  0  0
 10 11  1  0  0  0  0
 10 29  1  0  0  0  0
 10 30  1  0  0  0  0
 11 15  1  0  0  0  0
 11 12  1  0  0  0  0
 12 13  2  0  0  0  0
 12 31  1  0  0  0  0
 13 14  1  0  0  0  0
 14 15  2  0  0  0  0
 16 17  1  0  0  0  0
 16 18  1  0  0  0  0
 17 32  1  0  0  0  0
 17 33  1  0  0  0  0
 17 34  1  0  0  0  0
 18 35  1  0  0  0  0
 18 36  1  0  0  0  0
 18 37  1  0  0  0  0
M  END
> <s_m_source_file>
AV-unprocessed.smi

> <i_m_source_file_index>
754

> <i_lp_mmshare_version>
43012

> <i_f3d_flags>
0

> <s_epik_input>
W0NIM11bQ0gyXU9bQ0BASF0oQzEoW0NIM10pW0NIM10pW0NIMl1bQ0BIXTFbTkhdQyg9TylbQ0gyXW4yW2NIXW5ubjI=

> <s_epik_cmdline>
J2VwaWtfcHl0aG9uJywgJy1waCcsICc3LjAnLCAnLXRuJywgJzgnLCAnLW1hJywgJzIwMCcsICctbWV0YWxfYmluZGluZycsICctaW1hZScsICc8aW5maWxlLm1hZT4nLCAnLW9tYWUnLCAnPG91dGZpbGUubWFlPic=

> <r_lp_tautomer_probability>
1

> <r_epik_Ionization_Penalty>
8.28422e-07

> <r_epik_Ionization_Penalty_Charging>
0

> <r_epik_Ionization_Penalty_Neutral>
8.28422e-07

> <r_epik_State_Penalty>
-0

> <r_epik_Charging_Adjusted_Penalty>
0

> <i_epik_Tot_Q>
0

> <i_epik_Tot_abs_Q>
0

> <r_epik_Metal_State_Penalty>
-0

> <b_epik_Metal_Only>
0

> <s_lp_Force_Field>
OPLS_2005

> <r_lp_Energy>
20.8169

> <b_lp_Chiralities_Consistent>
1

> <s_lp_Variant>
AV-unprocessed.smi:754-2

> <Gold.Version>
5.8.1

> <Gold.Id.Protein>
6NUR|6NUR_protein|mol2

> <Gold.PLP.Fitness>
36.9883

> <Gold.PLP.PLP>
-31.8854

> <Gold.PLP.part.hbond>
-2.8273

> <Gold.PLP.part.metal>
0.0000

> <Gold.PLP.part.buried>
-4.7936

> <Gold.PLP.part.nonpolar>
-23.8917

> <Gold.PLP.part.repulsive>
0.3216

> <Gold.PLP.ligand.clash>
0.0000

> <Gold.PLP.ligand.torsion>
0.5979

> <Gold.PLP.Chemscore.Hbond>
1.9760

> <Gold.PLP.Chemscore.CHOScore>
0.0000

> <Gold.PLP.Chemscore.Metal>
0.0000

> <Gold.Chemscore.Hbonds>
donor molecule, donor type, donor heavy atom, donor atom, acceptor molecule, acceptor atom, score
      P1  H  7997  8010       L1     9  0.94
      P1  H 10752 10765       L1    14  1.00

> <Gold.PLP.Chemscore.Internal.Correction>
0.3707

> <Gold.Rescore>
     Score         DG    S(hbond)    S(metal)    S(lipo)     H(rot)  DE(clash)    DE(int)     intcor
     12.06     -15.66       1.73        0.00      91.36       2.46       1.62       1.98       ----

> <Gold.Chemscore.Fitness>
12.0597

> <Gold.Chemscore.DG>
-15.6610

> <Gold.Chemscore.ZeroCoef>
-5.4800

> <Gold.Chemscore.Hbond>
1.7344

> <Gold.Chemscore.Metal>
0.0000

> <Gold.Chemscore.Lipo>
91.3650

> <Gold.Chemscore.Internal_Hbond>
0.0000

> <Gold.Chemscore.DEClash>
1.6228

> <Gold.Chemscore.DEInternal>
1.9784

> <Gold.Chemscore.Rot>
2.4616

> <Gold.Chemscore.Internal.Correction>
   9.000000E+99

> <Gold.Chemscore.Hbonds>
donor molecule, donor type, donor heavy atom, donor atom, acceptor molecule, acceptor atom, score
      P1  H  7997  8010       L1     9  0.89
      P1  H 10752 10765       L1    14  0.34

> <Gold.Chemscore.Hbond.Weighted>
-5.7929

> <Gold.Chemscore.Metal.Weighted>
-0.0000

> <Gold.Chemscore.Lipo.Weighted>
-10.6897

> <Gold.Chemscore.Internal_Hbond.Weighted>
0.0000

> <Gold.Chemscore.DEClash.Weighted>
1.6228

> <Gold.Chemscore.DEInternal.Weighted>
1.9784

> <Gold.Chemscore.Rot.Weighted>
6.3016

> <Gold.Chemscore.Internal.Correction.Weighted>
   9.000000E+99

> <Gold.Protein.RotatedTorsions>
[ 6907 6896 6895 6894 ] final -161.44 input  -60.11 | X-H torsion
[ 7974 7965 7964 7962 ] final  -70.93 input  175.53 | X-H torsion
[ 8008 7997 7996 7995 ] final   68.08 input   59.86 | X-H torsion
[ 10167 10162 10161 10158 ] final  127.07 input  -65.29 | X-H torsion
[ 10718 10713 10712 10709 ] final   78.37 input   66.30 | X-H torsion
[ 10763 10752 10751 10750 ] final -176.78 input  -60.55 | X-H torsion
[ 11005 11000 10999 10996 ] final -164.82 input  -57.11 | X-H torsion

> <Gold.Protein.ActiveResidues>
 VAL166  LYS551  ARG553  GLY616  TRP617  ASP618  TYR619  PRO620  LYS621  CYS622 
 ASP623  PHE694  ASN695  SER759  ASP760  ASP761  ALA762  ILE779  LEU786  VAL792 
 PHE793  MET794  SER795  GLU796  ALA797  LYS798  CYS799  TRP800  GLU811  SER814 

> <Gold.Protein.RotatedAtoms>
  151.3647  133.3877  159.2693 H   0  0  0  0  0  0  0  0  0  0  0  0  # atno 6907 bound_to 6896
  150.9698  134.9074  159.7791 H   0  0  0  0  0  0  0  0  0  0  0  0  # atno 6908 bound_to 6896
  152.5180  134.3608  159.9336 H   0  0  0  0  0  0  0  0  0  0  0  0  # atno 6909 bound_to 6896
  145.6846  140.9175  143.0814 H   0  0  0  0  0  0  0  0  0  0  0  0  # atno 7974 bound_to 7965
  155.7029  140.3495  155.4940 H   0  0  0  0  0  0  0  0  0  0  0  0  # atno 8008 bound_to 7997
  155.9425  140.1104  157.1066 H   0  0  0  0  0  0  0  0  0  0  0  0  # atno 8009 bound_to 7997
  154.4105  140.1210  156.4932 H   0  0  0  0  0  0  0  0  0  0  0  0  # atno 8010 bound_to 7997
  139.5598  144.6874  151.4077 H   0  0  0  0  0  0  0  0  0  0  0  0  # atno 10167 bound_to 10162
  157.6742  130.9865  150.1777 H   0  0  0  0  0  0  0  0  0  0  0  0  # atno 10718 bound_to 10713
  154.5681  135.2825  155.0854 H   0  0  0  0  0  0  0  0  0  0  0  0  # atno 10763 bound_to 10752
  154.2237  135.6386  153.5156 H   0  0  0  0  0  0  0  0  0  0  0  0  # atno 10764 bound_to 10752
  153.0049  135.5520  154.6296 H   0  0  0  0  0  0  0  0  0  0  0  0  # atno 10765 bound_to 10752
  140.5826  134.5126  157.5181 H   0  0  0  0  0  0  0  0  0  0  0  0  # atno 11005 bound_to 11000
  144.7015  139.8742  143.7442 LP  0  0  0  0  0  0  0  0  0  0  0  0  # atno 17320 bound_to 7965
  146.0934  139.3925  143.0391 LP  0  0  0  0  0  0  0  0  0  0  0  0  # atno 17321 bound_to 7965
  140.6876  143.7938  150.7208 LP  0  0  0  0  0  0  0  0  0  0  0  0  # atno 17342 bound_to 10162
  140.1410  143.4441  152.2193 LP  0  0  0  0  0  0  0  0  0  0  0  0  # atno 17343 bound_to 10162
  156.2516  130.3701  149.8226 LP  0  0  0  0  0  0  0  0  0  0  0  0  # atno 17370 bound_to 10713
  156.5997  130.8541  151.3429 LP  0  0  0  0  0  0  0  0  0  0  0  0  # atno 17371 bound_to 10713
  139.9310  134.7963  156.0930 LP  0  0  0  0  0  0  0  0  0  0  0  0  # atno 17394 bound_to 11000
  141.0987  133.6686  156.2703 LP  0  0  0  0  0  0  0  0  0  0  0  0  # atno 17395 bound_to 11000

$$$$
