AV-unprocessed.smi:3330|AV-procd|sdf|12805|dock9
  -GOLD-   2272019173D 1   1.00000     0.00000
 Structure written by MMmdl.
 38 39  0  0  0  0  0  0  0  0  1 V2000
  151.8627  143.8466  157.1861 C   0  0  0  0  0  0  0  0  0  0  0  0
  151.2325  142.5527  157.7379 C   0  0  2  0  0  0  0  0  0  0  0  0
  149.8052  142.5606  157.4271 N   0  0  0  0  0  0  0  0  0  0  0  0
  149.4010  141.4069  156.6392 C   0  0  0  0  0  0  0  0  0  0  0  0
  149.8542  141.6052  155.1852 C   0  0  0  0  0  0  0  0  0  0  0  0
  150.1262  140.3206  154.5367 N   0  0  0  0  0  0  0  0  0  0  0  0
  151.3114  139.6974  154.5644 C   0  0  0  0  0  0  0  0  0  0  0  0
  152.3468  140.0788  155.1093 O   0  0  0  0  0  0  0  0  0  0  0  0
  151.1861  138.3963  153.8019 C   0  0  0  0  0  0  0  0  0  0  0  0
  149.7922  138.4801  153.4223 N   0  0  0  0  0  0  0  0  0  0  0  0
  149.2087  139.6013  153.8648 C   0  0  0  0  0  0  0  0  0  0  0  0
  148.0306  139.9056  153.6829 O   0  0  0  0  0  0  0  0  0  0  0  0
  151.4038  142.4006  159.2741 C   0  0  2  0  0  0  0  0  0  0  0  0
  151.5300  143.7497  160.0083 C   0  0  0  0  0  0  0  0  0  0  0  0
  152.5467  141.5519  159.5978 N   0  0  0  0  0  0  0  0  0  0  0  0
  153.5820  141.8145  160.4712 C   0  0  0  0  0  0  0  0  0  0  0  0
  154.4058  140.7257  160.4693 C   0  0  0  0  0  0  0  0  0  0  0  0
  153.7829  139.8325  159.5542 C   0  0  0  0  0  0  0  0  0  0  0  0
  152.6713  140.3276  159.0354 N   0  0  0  0  0  0  0  0  0  0  0  0
  152.9436  143.8520  157.3222 H   0  0  0  0  0  0  0  0  0  0  0  0
  151.4598  144.7291  157.6843 H   0  0  0  0  0  0  0  0  0  0  0  0
  151.6874  143.9613  156.1166 H   0  0  0  0  0  0  0  0  0  0  0  0
  151.7010  141.6931  157.2559 H   0  0  0  0  0  0  0  0  0  0  0  0
  149.5502  143.4201  156.9622 H   0  0  0  0  0  0  0  0  0  0  0  0
  149.8382  140.4963  157.0489 H   0  0  0  0  0  0  0  0  0  0  0  0
  148.3162  141.2990  156.6787 H   0  0  0  0  0  0  0  0  0  0  0  0
  149.0878  142.1450  154.6255 H   0  0  0  0  0  0  0  0  0  0  0  0
  150.7446  142.2359  155.1523 H   0  0  0  0  0  0  0  0  0  0  0  0
  151.8406  138.3755  152.9299 H   0  0  0  0  0  0  0  0  0  0  0  0
  151.3789  137.5339  154.4406 H   0  0  0  0  0  0  0  0  0  0  0  0
  149.3224  137.7629  152.8888 H   0  0  0  0  0  0  0  0  0  0  0  0
  150.5170  141.9018  159.6694 H   0  0  0  0  0  0  0  0  0  0  0  0
  150.6126  144.3332  159.9389 H   0  0  0  0  0  0  0  0  0  0  0  0
  152.3415  144.3532  159.6005 H   0  0  0  0  0  0  0  0  0  0  0  0
  151.7299  143.5986  161.0696 H   0  0  0  0  0  0  0  0  0  0  0  0
  153.6431  142.7433  161.0190 H   0  0  0  0  0  0  0  0  0  0  0  0
  155.3132  140.5867  161.0378 H   0  0  0  0  0  0  0  0  0  0  0  0
  154.1023  138.8453  159.2547 H   0  0  0  0  0  0  0  0  0  0  0  0
  1  2  1  0  0  0  0
  1 20  1  0  0  0  0
  1 21  1  0  0  0  0
  1 22  1  0  0  0  0
  2  3  1  0  0  0  0
  2 13  1  0  0  0  0
  2 23  1  0  0  0  0
  3  4  1  0  0  0  0
  3 24  1  0  0  0  0
  4  5  1  0  0  0  0
  4 25  1  0  0  0  0
  4 26  1  0  0  0  0
  5  6  1  0  0  0  0
  5 27  1  0  0  0  0
  5 28  1  0  0  0  0
  6 11  1  0  0  0  0
  6  7  1  0  0  0  0
  7  8  2  0  0  0  0
  7  9  1  0  0  0  0
  9 10  1  0  0  0  0
  9 29  1  0  0  0  0
  9 30  1  0  0  0  0
 10 11  1  0  0  0  0
 10 31  1  0  0  0  0
 11 12  2  0  0  0  0
 13 14  1  0  0  0  0
 13 15  1  0  0  0  0
 13 32  1  0  0  0  0
 14 33  1  0  0  0  0
 14 34  1  0  0  0  0
 14 35  1  0  0  0  0
 15 19  1  0  0  0  0
 15 16  1  0  0  0  0
 16 17  2  0  0  0  0
 16 36  1  0  0  0  0
 17 18  1  0  0  0  0
 17 37  1  0  0  0  0
 18 19  2  0  0  0  0
 18 38  1  0  0  0  0
M  END
> <s_m_source_file>
AV-unprocessed.smi

> <i_m_source_file_index>
3330

> <i_lp_mmshare_version>
43012

> <i_f3d_flags>
0

> <s_epik_input>
bjFbY0hdW2NIXVtjSF1uMVtDQEBIXShbQ0gzXSlbQ0BIXShbQ0gzXSlbTkhdW0NIMl1bQ0gyXU4yQyg9TylbQ0gyXVtOSF1DMj1P

> <s_epik_cmdline>
J2VwaWtfcHl0aG9uJywgJy1waCcsICc3LjAnLCAnLXRuJywgJzgnLCAnLW1hJywgJzIwMCcsICctbWV0YWxfYmluZGluZycsICctaW1hZScsICc8aW5maWxlLm1hZT4nLCAnLW9tYWUnLCAnPG91dGZpbGUubWFlPic=

> <r_lp_tautomer_probability>
1

> <r_epik_Ionization_Penalty>
2.2997

> <r_epik_Ionization_Penalty_Charging>
0

> <r_epik_Ionization_Penalty_Neutral>
2.2997

> <r_epik_State_Penalty>
2.44917

> <r_epik_Charging_Adjusted_Penalty>
2.44917

> <i_epik_Tot_Q>
0

> <i_epik_Tot_abs_Q>
0

> <r_epik_Metal_State_Penalty>
2.52438

> <b_epik_Metal_Only>
0

> <s_lp_Force_Field>
OPLS_2005

> <r_lp_Energy>
24.6484

> <b_lp_Chiralities_Consistent>
1

> <s_lp_Variant>
AV-unprocessed.smi:3330-5

> <Gold.Version>
5.8.1

> <Gold.Id.Protein>
6NUR|6NUR_protein|mol2

> <Gold.PLP.Fitness>
45.4891

> <Gold.PLP.PLP>
-41.1695

> <Gold.PLP.part.hbond>
-3.6375

> <Gold.PLP.part.metal>
0.0000

> <Gold.PLP.part.buried>
-1.1373

> <Gold.PLP.part.nonpolar>
-35.2547

> <Gold.PLP.part.repulsive>
0.2143

> <Gold.PLP.ligand.clash>
0.0000

> <Gold.PLP.ligand.torsion>
2.3924

> <Gold.PLP.Chemscore.Hbond>
3.0000

> <Gold.PLP.Chemscore.CHOScore>
0.0000

> <Gold.PLP.Chemscore.Metal>
0.0000

> <Gold.Chemscore.Hbonds>
donor molecule, donor type, donor heavy atom, donor atom, acceptor molecule, acceptor atom, score
      L1  H     3    24       P1  8028  1.00
      L1  H    10    31       P1  7948  1.00
      P1  H  7997  8008       L1     8  0.47

> <Gold.PLP.Chemscore.Internal.Correction>
0.1044

> <Gold.Rescore>
     Score         DG    S(hbond)    S(metal)    S(lipo)     H(rot)  DE(clash)    DE(int)     intcor
     14.92     -18.10       2.58        0.00      91.04       2.60       0.82       2.36       ----

> <Gold.Chemscore.Fitness>
14.9189

> <Gold.Chemscore.DG>
-18.0960

> <Gold.Chemscore.ZeroCoef>
-5.4800

> <Gold.Chemscore.Hbond>
2.5773

> <Gold.Chemscore.Metal>
0.0000

> <Gold.Chemscore.Lipo>
91.0390

> <Gold.Chemscore.Internal_Hbond>
0.0000

> <Gold.Chemscore.DEClash>
0.8211

> <Gold.Chemscore.DEInternal>
2.3560

> <Gold.Chemscore.Rot>
2.5952

> <Gold.Chemscore.Internal.Correction>
   9.000000E+99

> <Gold.Chemscore.Hbonds>
donor molecule, donor type, donor heavy atom, donor atom, acceptor molecule, acceptor atom, score
      L1  H     3    24       P1  8028  0.96
      L1  H    10    31       P1  7948  0.94
      P1  H  7997  8008       L1     8  0.46

> <Gold.Chemscore.Hbond.Weighted>
-8.6081

> <Gold.Chemscore.Metal.Weighted>
-0.0000

> <Gold.Chemscore.Lipo.Weighted>
-10.6516

> <Gold.Chemscore.Internal_Hbond.Weighted>
0.0000

> <Gold.Chemscore.DEClash.Weighted>
0.8211

> <Gold.Chemscore.DEInternal.Weighted>
2.3560

> <Gold.Chemscore.Rot.Weighted>
6.6437

> <Gold.Chemscore.Internal.Correction.Weighted>
   9.000000E+99

> <Gold.Protein.RotatedTorsions>
[ 6907 6896 6895 6894 ] final  152.20 input  -60.11 | X-H torsion
[ 7974 7965 7964 7962 ] final  -16.28 input  175.53 | X-H torsion
[ 8008 7997 7996 7995 ] final  -27.57 input   59.86 | X-H torsion
[ 10167 10162 10161 10158 ] final  -18.38 input  -65.29 | X-H torsion
[ 10718 10713 10712 10709 ] final   84.36 input   66.30 | X-H torsion
[ 10763 10752 10751 10750 ] final -116.84 input  -60.55 | X-H torsion
[ 11005 11000 10999 10996 ] final   34.91 input  -57.11 | X-H torsion

> <Gold.Protein.ActiveResidues>
 VAL166  LYS551  ARG553  GLY616  TRP617  ASP618  TYR619  PRO620  LYS621  CYS622 
 ASP623  PHE694  ASN695  SER759  ASP760  ASP761  ALA762  ILE779  LEU786  VAL792 
 PHE793  MET794  SER795  GLU796  ALA797  LYS798  CYS799  TRP800  GLU811  SER814 

> <Gold.Protein.RotatedAtoms>
  152.0901  133.4196  159.4539 H   0  0  0  0  0  0  0  0  0  0  0  0  # atno 6907 bound_to 6896
  150.6862  134.2881  159.4664 H   0  0  0  0  0  0  0  0  0  0  0  0  # atno 6908 bound_to 6896
  152.0732  134.9519  160.0625 H   0  0  0  0  0  0  0  0  0  0  0  0  # atno 6909 bound_to 6896
  146.1995  140.3613  142.8428 H   0  0  0  0  0  0  0  0  0  0  0  0  # atno 7974 bound_to 7965
  154.4371  140.1868  156.0953 H   0  0  0  0  0  0  0  0  0  0  0  0  # atno 8008 bound_to 7997
  156.0334  140.3328  155.7138 H   0  0  0  0  0  0  0  0  0  0  0  0  # atno 8009 bound_to 7997
  155.5806  140.0621  157.2775 H   0  0  0  0  0  0  0  0  0  0  0  0  # atno 8010 bound_to 7997
  140.7258  143.4922  150.9977 H   0  0  0  0  0  0  0  0  0  0  0  0  # atno 10167 bound_to 10162
  157.6896  131.0130  150.2661 H   0  0  0  0  0  0  0  0  0  0  0  0  # atno 10718 bound_to 10713
  154.8534  135.4331  154.1884 H   0  0  0  0  0  0  0  0  0  0  0  0  # atno 10763 bound_to 10752
  153.2958  135.6965  153.7255 H   0  0  0  0  0  0  0  0  0  0  0  0  # atno 10764 bound_to 10752
  153.6404  135.3469  155.3044 H   0  0  0  0  0  0  0  0  0  0  0  0  # atno 10765 bound_to 10752
  140.2481  134.3336  155.7900 H   0  0  0  0  0  0  0  0  0  0  0  0  # atno 11005 bound_to 11000
  144.8652  140.7195  143.6082 LP  0  0  0  0  0  0  0  0  0  0  0  0  # atno 17320 bound_to 7965
  145.3533  139.1700  143.4423 LP  0  0  0  0  0  0  0  0  0  0  0  0  # atno 17321 bound_to 7965
  139.8627  143.7294  152.3172 LP  0  0  0  0  0  0  0  0  0  0  0  0  # atno 17342 bound_to 10162
  139.7515  144.7533  151.0500 LP  0  0  0  0  0  0  0  0  0  0  0  0  # atno 17343 bound_to 10162
  156.3232  130.3789  149.7557 LP  0  0  0  0  0  0  0  0  0  0  0  0  # atno 17370 bound_to 10713
  156.5120  130.8176  151.3172 LP  0  0  0  0  0  0  0  0  0  0  0  0  # atno 17371 bound_to 10713
  141.2204  133.7337  156.8993 LP  0  0  0  0  0  0  0  0  0  0  0  0  # atno 17394 bound_to 11000
  140.1586  134.9181  157.2685 LP  0  0  0  0  0  0  0  0  0  0  0  0  # atno 17395 bound_to 11000

$$$$
