AV-unprocessed.smi:67|AV-procd|sdf|634|dock3
  -GOLD-   2262016523D 1   1.00000     0.00000
 Structure written by MMmdl.
 48 50  0  0  0  0  0  0  0  0  2 V2000
  147.7372  136.9870  154.1042 O   0  0  0  0  0  0  0  0  0  0  0  0
  147.3933  138.3550  153.9734 C   0  0  2  0  0  0  0  0  0  0  0  0
  148.7341  139.1242  153.8837 C   0  0  0  0  0  0  0  0  0  0  0  0
  149.6354  138.9756  155.0295 N   0  0  0  0  0  0  0  0  0  0  0  0
  149.1443  139.7152  156.1944 C   0  0  0  0  0  0  0  0  0  0  0  0
  149.9976  139.4754  157.4514 C   0  0  0  0  0  0  0  0  0  0  0  0
  151.4806  139.7955  157.1645 C   0  0  0  0  0  0  0  0  0  0  0  0
  152.3546  139.6445  158.2862 O   0  0  0  0  0  0  0  0  0  0  0  0
  152.6518  140.6744  159.1588 C   0  0  0  0  0  0  0  0  0  0  0  0
  153.4631  140.5767  160.3168 C   0  0  0  0  0  0  0  0  0  0  0  0
  153.6946  141.7056  161.1252 C   0  0  0  0  0  0  0  0  0  0  0  0
  153.1189  142.9456  160.7950 C   0  0  0  0  0  0  0  0  0  0  0  0
  152.3025  143.0615  159.6512 C   0  0  0  0  0  0  0  0  0  0  0  0
  151.6727  144.3932  159.2719 C   0  0  0  0  0  0  0  0  0  0  0  0
  150.3437  144.2868  159.2570 F   0  0  0  0  0  0  0  0  0  0  0  0
  152.0047  145.3554  160.1334 F   0  0  0  0  0  0  0  0  0  0  0  0
  152.0890  144.7453  158.0561 F   0  0  0  0  0  0  0  0  0  0  0  0
  152.0835  141.9261  158.8426 C   0  0  0  0  0  0  0  0  0  0  0  0
  151.9905  139.1631  155.8514 C   0  0  0  0  0  0  0  0  0  0  0  0
  150.9933  139.4361  154.7137 C   0  0  0  0  0  0  0  0  0  0  0  0
  146.4301  138.7218  155.1084 C   0  0  0  0  0  0  0  0  0  0  0  0
  145.0892  138.1617  154.6299 C   0  0  0  0  0  0  0  0  0  0  0  0
  145.1211  138.2342  153.1556 N   0  3  0  0  0  0  0  0  0  0  0  0
  146.5104  138.4926  152.7228 C   0  0  0  0  0  0  0  0  0  0  0  0
  148.0300  136.6677  153.2638 H   0  0  0  0  0  0  0  0  0  0  0  0
  149.2620  138.8515  152.9679 H   0  0  0  0  0  0  0  0  0  0  0  0
  148.4794  140.1777  153.7543 H   0  0  0  0  0  0  0  0  0  0  0  0
  149.1119  140.7824  155.9693 H   0  0  0  0  0  0  0  0  0  0  0  0
  148.1188  139.4164  156.4154 H   0  0  0  0  0  0  0  0  0  0  0  0
  149.6374  140.1035  158.2665 H   0  0  0  0  0  0  0  0  0  0  0  0
  149.8512  138.4496  157.7793 H   0  0  0  0  0  0  0  0  0  0  0  0
  151.5053  140.8712  156.9852 H   0  0  0  0  0  0  0  0  0  0  0  0
  153.9272  139.6543  160.6194 H   0  0  0  0  0  0  0  0  0  0  0  0
  154.3177  141.6194  162.0030 H   0  0  0  0  0  0  0  0  0  0  0  0
  153.3096  143.8027  161.4241 H   0  0  0  0  0  0  0  0  0  0  0  0
  151.4655  142.0148  157.9609 H   0  0  0  0  0  0  0  0  0  0  0  0
  152.9636  139.5830  155.5957 H   0  0  0  0  0  0  0  0  0  0  0  0
  152.1417  138.0902  155.9340 H   0  0  0  0  0  0  0  0  0  0  0  0
  151.3617  138.9670  153.8035 H   0  0  0  0  0  0  0  0  0  0  0  0
  150.9763  140.5072  154.5042 H   0  0  0  0  0  0  0  0  0  0  0  0
  146.7338  138.3413  156.0844 H   0  0  0  0  0  0  0  0  0  0  0  0
  146.3217  139.8030  155.1870 H   0  0  0  0  0  0  0  0  0  0  0  0
  144.9917  137.1154  154.9225 H   0  0  0  0  0  0  0  0  0  0  0  0
  144.2376  138.7055  155.0397 H   0  0  0  0  0  0  0  0  0  0  0  0
  144.7966  137.3583  152.7708 H   0  0  0  0  0  0  0  0  0  0  0  0
  146.5465  139.5143  152.3427 H   0  0  0  0  0  0  0  0  0  0  0  0
  146.8096  137.8310  151.9087 H   0  0  0  0  0  0  0  0  0  0  0  0
  144.5299  138.9873  152.8341 H   0  0  0  0  0  0  0  0  0  0  0  0
  1  2  1  0  0  0  0
  1 25  1  0  0  0  0
  2 24  1  0  0  0  0
  2  3  1  0  0  0  0
  2 21  1  0  0  0  0
  3  4  1  0  0  0  0
  3 26  1  0  0  0  0
  3 27  1  0  0  0  0
  4 20  1  0  0  0  0
  4  5  1  0  0  0  0
  5  6  1  0  0  0  0
  5 28  1  0  0  0  0
  5 29  1  0  0  0  0
  6  7  1  0  0  0  0
  6 30  1  0  0  0  0
  6 31  1  0  0  0  0
  7  8  1  0  0  0  0
  7 19  1  0  0  0  0
  7 32  1  0  0  0  0
  8  9  1  0  0  0  0
  9 18  1  0  0  0  0
  9 10  2  0  0  0  0
 10 11  1  0  0  0  0
 10 33  1  0  0  0  0
 11 12  2  0  0  0  0
 11 34  1  0  0  0  0
 12 13  1  0  0  0  0
 12 35  1  0  0  0  0
 13 14  1  0  0  0  0
 13 18  2  0  0  0  0
 14 15  1  0  0  0  0
 14 16  1  0  0  0  0
 14 17  1  0  0  0  0
 18 36  1  0  0  0  0
 19 20  1  0  0  0  0
 19 37  1  0  0  0  0
 19 38  1  0  0  0  0
 20 39  1  0  0  0  0
 20 40  1  0  0  0  0
 21 22  1  0  0  0  0
 21 41  1  0  0  0  0
 21 42  1  0  0  0  0
 22 23  1  0  0  0  0
 22 43  1  0  0  0  0
 22 44  1  0  0  0  0
 23 24  1  0  0  0  0
 23 45  1  0  0  0  0
 23 48  1  0  0  0  0
 24 46  1  0  0  0  0
 24 47  1  0  0  0  0
M  CHG  1  23   1
M  END
> <s_m_source_file>
AV-unprocessed.smi

> <i_m_source_file_index>
67

> <i_lp_mmshare_version>
43012

> <i_f3d_flags>
0

> <s_epik_input>
W0NIMl0xW05IXVtDSDJdW0NIMl1bQ0BAXTEoW09IXSlbQ0gyXU4yW0NIMl1bQ0gyXVtDSF0oW0NIMl1bQ0gyXTIpT2MzW2NIXVtjSF1bY0hdYyhDKEYpKEYpRilbY0hdMw==

> <s_epik_cmdline>
J2VwaWtfcHl0aG9uJywgJy1waCcsICc3LjAnLCAnLXRuJywgJzgnLCAnLW1hJywgJzIwMCcsICctbWV0YWxfYmluZGluZycsICctaW1hZScsICc8aW5maWxlLm1hZT4nLCAnLW9tYWUnLCAnPG91dGZpbGUubWFlPic=

> <r_lp_tautomer_probability>
1

> <r_epik_Ionization_Penalty>
1.18002

> <r_epik_Ionization_Penalty_Charging>
0.00399663

> <r_epik_Ionization_Penalty_Neutral>
1.17602

> <r_epik_State_Penalty>
1.25421

> <r_epik_Charging_Adjusted_Penalty>
1.25821

> <i_epik_Tot_Q>
1

> <i_epik_Tot_abs_Q>
1

> <r_epik_Metal_State_Penalty>
1.25387

> <b_epik_Metal_Only>
0

> <s_lp_Force_Field>
OPLS_2005

> <r_lp_Energy>
62.5676

> <b_lp_Chiralities_Consistent>
1

> <s_lp_Variant>
AV-unprocessed.smi:67-6

> <Gold.Version>
5.8.1

> <Gold.Id.Protein>
6NUR|6NUR_protein|mol2

> <Gold.PLP.Fitness>
56.4640

> <Gold.PLP.PLP>
-48.4202

> <Gold.PLP.part.hbond>
-2.0000

> <Gold.PLP.part.metal>
0.0000

> <Gold.PLP.part.buried>
-4.3789

> <Gold.PLP.part.nonpolar>
-42.6934

> <Gold.PLP.part.repulsive>
0.0922

> <Gold.PLP.ligand.clash>
0.5007

> <Gold.PLP.ligand.torsion>
0.6249

> <Gold.PLP.Chemscore.Hbond>
3.0000

> <Gold.PLP.Chemscore.CHOScore>
0.0000

> <Gold.PLP.Chemscore.Metal>
0.0000

> <Gold.Chemscore.Hbonds>
donor molecule, donor type, donor heavy atom, donor atom, acceptor molecule, acceptor atom, score
      L1  H     1    25       P1  7948  1.00
      L1  H    23    48       P1 10175  2.00

> <Gold.PLP.Chemscore.Internal.Correction>
0.7944

> <Gold.Rescore>
     Score         DG    S(hbond)    S(metal)    S(lipo)     H(rot)  DE(clash)    DE(int)     intcor
     19.32     -20.28       1.99        0.00     117.47       2.19       0.22       0.74       ----

> <Gold.Chemscore.Fitness>
19.3166

> <Gold.Chemscore.DG>
-20.2792

> <Gold.Chemscore.ZeroCoef>
-5.4800

> <Gold.Chemscore.Hbond>
1.9934

> <Gold.Chemscore.Metal>
0.0000

> <Gold.Chemscore.Lipo>
117.4735

> <Gold.Chemscore.Internal_Hbond>
0.0000

> <Gold.Chemscore.DEClash>
0.2247

> <Gold.Chemscore.DEInternal>
0.7379

> <Gold.Chemscore.Rot>
2.1887

> <Gold.Chemscore.Internal.Correction>
   9.000000E+99

> <Gold.Chemscore.Hbonds>
donor molecule, donor type, donor heavy atom, donor atom, acceptor molecule, acceptor atom, score
      L1  H     1    25       P1  7948  1.00
      L1  H    23    48       P1 10175  1.00

> <Gold.Chemscore.Hbond.Weighted>
-6.6580

> <Gold.Chemscore.Metal.Weighted>
-0.0000

> <Gold.Chemscore.Lipo.Weighted>
-13.7444

> <Gold.Chemscore.Internal_Hbond.Weighted>
0.0000

> <Gold.Chemscore.DEClash.Weighted>
0.2247

> <Gold.Chemscore.DEInternal.Weighted>
0.7379

> <Gold.Chemscore.Rot.Weighted>
5.6032

> <Gold.Chemscore.Internal.Correction.Weighted>
   9.000000E+99

> <Gold.Protein.RotatedTorsions>
[ 6907 6896 6895 6894 ] final   30.59 input  -60.11 | X-H torsion
[ 7974 7965 7964 7962 ] final   89.18 input  175.53 | X-H torsion
[ 8008 7997 7996 7995 ] final   53.62 input   59.86 | X-H torsion
[ 10167 10162 10161 10158 ] final  -40.60 input  -65.29 | X-H torsion
[ 10718 10713 10712 10709 ] final   29.57 input   66.30 | X-H torsion
[ 10763 10752 10751 10750 ] final  -99.36 input  -60.55 | X-H torsion
[ 11005 11000 10999 10996 ] final    4.02 input  -57.11 | X-H torsion

> <Gold.Protein.ActiveResidues>
 VAL166  LYS551  ARG553  GLY616  TRP617  ASP618  TYR619  PRO620  LYS621  CYS622 
 ASP623  PHE694  ASN695  SER759  ASP760  ASP761  ALA762  ILE779  LEU786  VAL792 
 PHE793  MET794  SER795  GLU796  ALA797  LYS798  CYS799  TRP800  GLU811  SER814 

> <Gold.Protein.RotatedAtoms>
  152.0482  134.9670  160.0574 H   0  0  0  0  0  0  0  0  0  0  0  0  # atno 6907 bound_to 6896
  152.1081  133.4281  159.4626 H   0  0  0  0  0  0  0  0  0  0  0  0  # atno 6908 bound_to 6896
  150.6842  134.2599  159.4588 H   0  0  0  0  0  0  0  0  0  0  0  0  # atno 6909 bound_to 6896
  145.5358  139.2285  143.2593 H   0  0  0  0  0  0  0  0  0  0  0  0  # atno 7974 bound_to 7965
  155.4713  140.3465  155.4326 H   0  0  0  0  0  0  0  0  0  0  0  0  # atno 8008 bound_to 7997
  156.1099  140.1458  156.9382 H   0  0  0  0  0  0  0  0  0  0  0  0  # atno 8009 bound_to 7997
  154.4749  140.0888  156.7216 H   0  0  0  0  0  0  0  0  0  0  0  0  # atno 8010 bound_to 7997
  140.7029  143.3144  151.2947 H   0  0  0  0  0  0  0  0  0  0  0  0  # atno 10167 bound_to 10162
  157.2483  130.7102  149.6392 H   0  0  0  0  0  0  0  0  0  0  0  0  # atno 10718 bound_to 10713
  154.7491  135.4975  153.9257 H   0  0  0  0  0  0  0  0  0  0  0  0  # atno 10763 bound_to 10752
  153.1124  135.6712  153.9485 H   0  0  0  0  0  0  0  0  0  0  0  0  # atno 10764 bound_to 10752
  153.9240  135.3085  155.3426 H   0  0  0  0  0  0  0  0  0  0  0  0  # atno 10765 bound_to 10752
  140.5866  133.9963  155.8070 H   0  0  0  0  0  0  0  0  0  0  0  0  # atno 11005 bound_to 11000
  146.2014  140.6176  142.9101 LP  0  0  0  0  0  0  0  0  0  0  0  0  # atno 17320 bound_to 7965
  144.7602  140.5404  143.6741 LP  0  0  0  0  0  0  0  0  0  0  0  0  # atno 17321 bound_to 7965
  139.6577  144.0245  152.2671 LP  0  0  0  0  0  0  0  0  0  0  0  0  # atno 17342 bound_to 10162
  139.9803  144.6433  150.7907 LP  0  0  0  0  0  0  0  0  0  0  0  0  # atno 17343 bound_to 10162
  155.9667  130.4436  150.5427 LP  0  0  0  0  0  0  0  0  0  0  0  0  # atno 17370 bound_to 10713
  157.3305  131.0698  151.1864 LP  0  0  0  0  0  0  0  0  0  0  0  0  # atno 17371 bound_to 10713
  141.0962  133.9840  157.3156 LP  0  0  0  0  0  0  0  0  0  0  0  0  # atno 17394 bound_to 11000
  139.9293  135.0200  156.8344 LP  0  0  0  0  0  0  0  0  0  0  0  0  # atno 17395 bound_to 11000

$$$$
