AV-unprocessed.smi:1381|AV-procd|sdf|5610|dock3
  -GOLD-   22720 5223D 1   1.00000     0.00000
 Structure written by MMmdl.
 41 42  0  0  0  0  0  0  0  0  2 V2000
  149.4383  139.8386  154.4332 C   0  0  0  0  0  0  0  0  0  0  0  0
  150.6318  139.1749  155.0293 C   0  0  0  0  0  0  0  0  0  0  0  0
  150.8437  137.9251  155.5380 C   0  0  0  0  0  0  0  0  0  0  0  0
  152.2094  137.9616  155.9313 C   0  0  0  0  0  0  0  0  0  0  0  0
  152.8898  136.9583  156.5070 N   0  5  0  0  0  0  0  0  0  0  0  0
  153.7683  137.2150  157.5038 C   0  0  0  0  0  0  0  0  0  0  0  0
  154.9406  136.8359  157.5605 O   0  0  0  0  0  0  0  0  0  0  0  0
  153.2541  137.9512  158.4995 N   0  0  0  0  0  0  0  0  0  0  0  0
  153.9579  138.3655  159.7079 C   0  0  0  0  0  0  0  0  0  0  0  0
  154.7748  139.6489  159.4658 C   0  0  0  0  0  0  0  0  0  0  0  0
  154.0405  140.8966  159.6706 N   0  0  0  0  0  0  0  0  0  0  0  0
  153.9895  141.2434  161.0848 C   0  0  0  0  0  0  0  0  0  0  0  0
  153.2619  142.5783  161.3240 C   0  0  2  0  0  0  0  0  0  0  0  0
  153.1384  142.9080  162.8151 C   0  0  0  0  0  0  0  0  0  0  0  0
  151.9480  142.5054  160.7739 O   0  0  0  0  0  0  0  0  0  0  0  0
  151.8858  142.1373  159.3947 C   0  0  1  0  0  0  0  0  0  0  0  0
  152.3143  143.2943  158.4763 C   0  0  0  0  0  0  0  0  0  0  0  0
  152.6774  140.8369  159.1477 C   0  0  0  0  0  0  0  0  0  0  0  0
  152.7716  139.1358  155.6978 N   0  0  0  0  0  0  0  0  0  0  0  0
  151.7679  139.9177  155.1133 O   0  0  0  0  0  0  0  0  0  0  0  0
  149.0416  140.5964  155.1087 H   0  0  0  0  0  0  0  0  0  0  0  0
  148.6484  139.1138  154.2360 H   0  0  0  0  0  0  0  0  0  0  0  0
  149.6945  140.3235  153.4911 H   0  0  0  0  0  0  0  0  0  0  0  0
  150.1370  137.1126  155.6145 H   0  0  0  0  0  0  0  0  0  0  0  0
  152.2912  138.2412  158.4105 H   0  0  0  0  0  0  0  0  0  0  0  0
  153.2489  138.5095  160.5248 H   0  0  0  0  0  0  0  0  0  0  0  0
  154.6070  137.5408  159.9990 H   0  0  0  0  0  0  0  0  0  0  0  0
  155.6667  139.6380  160.0943 H   0  0  0  0  0  0  0  0  0  0  0  0
  155.1360  139.6246  158.4369 H   0  0  0  0  0  0  0  0  0  0  0  0
  153.4903  140.4489  161.6419 H   0  0  0  0  0  0  0  0  0  0  0  0
  155.0026  141.3126  161.4831 H   0  0  0  0  0  0  0  0  0  0  0  0
  153.8135  143.3849  160.8402 H   0  0  0  0  0  0  0  0  0  0  0  0
  154.1205  142.9865  163.2817 H   0  0  0  0  0  0  0  0  0  0  0  0
  152.5762  142.1385  163.3447 H   0  0  0  0  0  0  0  0  0  0  0  0
  152.6237  143.8576  162.9627 H   0  0  0  0  0  0  0  0  0  0  0  0
  150.8363  141.9351  159.1798 H   0  0  0  0  0  0  0  0  0  0  0  0
  152.1551  143.0356  157.4293 H   0  0  0  0  0  0  0  0  0  0  0  0
  153.3692  143.5412  158.5931 H   0  0  0  0  0  0  0  0  0  0  0  0
  151.7349  144.1933  158.6865 H   0  0  0  0  0  0  0  0  0  0  0  0
  152.6862  140.6282  158.0785 H   0  0  0  0  0  0  0  0  0  0  0  0
  152.1468  140.0078  159.6184 H   0  0  0  0  0  0  0  0  0  0  0  0
  1  2  1  0  0  0  0
  1 21  1  0  0  0  0
  1 22  1  0  0  0  0
  1 23  1  0  0  0  0
  2 20  1  0  0  0  0
  2  3  2  0  0  0  0
  3  4  1  0  0  0  0
  3 24  1  0  0  0  0
  4  5  1  0  0  0  0
  4 19  2  0  0  0  0
  5  6  1  0  0  0  0
  6  7  2  0  0  0  0
  6  8  1  0  0  0  0
  8  9  1  0  0  0  0
  8 25  1  0  0  0  0
  9 10  1  0  0  0  0
  9 26  1  0  0  0  0
  9 27  1  0  0  0  0
 10 11  1  0  0  0  0
 10 28  1  0  0  0  0
 10 29  1  0  0  0  0
 11 18  1  0  0  0  0
 11 12  1  0  0  0  0
 12 13  1  0  0  0  0
 12 30  1  0  0  0  0
 12 31  1  0  0  0  0
 13 14  1  0  0  0  0
 13 15  1  0  0  0  0
 13 32  1  0  0  0  0
 14 33  1  0  0  0  0
 14 34  1  0  0  0  0
 14 35  1  0  0  0  0
 15 16  1  0  0  0  0
 16 17  1  0  0  0  0
 16 18  1  0  0  0  0
 16 36  1  0  0  0  0
 17 37  1  0  0  0  0
 17 38  1  0  0  0  0
 17 39  1  0  0  0  0
 18 40  1  0  0  0  0
 18 41  1  0  0  0  0
 19 20  1  0  0  0  0
M  CHG  1   5  -1
M  END
> <s_m_source_file>
AV-unprocessed.smi

> <i_m_source_file_index>
1381

> <i_lp_mmshare_version>
43012

> <i_f3d_flags>
0

> <s_epik_input>
W0NIM11jMVtjSF1jKG5vMSlbTkhdQyg9TylbTkhdW0NIMl1bQ0gyXU4yW0NIMl1bQ0BASF0oW0NIM10pT1tDQEBIXShbQ0gzXSlbQ0gyXTI=

> <s_epik_cmdline>
J2VwaWtfcHl0aG9uJywgJy1waCcsICc3LjAnLCAnLXRuJywgJzgnLCAnLW1hJywgJzIwMCcsICctbWV0YWxfYmluZGluZycsICctaW1hZScsICc8aW5maWxlLm1hZT4nLCAnLW9tYWUnLCAnPG91dGZpbGUubWFlPic=

> <r_epik_Ionization_Penalty>
6.88366

> <r_epik_Ionization_Penalty_Charging>
6.57198

> <r_epik_Ionization_Penalty_Neutral>
0.311678

> <r_epik_State_Penalty>
6.77619

> <r_epik_Charging_Adjusted_Penalty>
13.3482

> <i_epik_Tot_Q>
-1

> <i_epik_Tot_abs_Q>
1

> <r_epik_Metal_State_Penalty>
2.70524

> <b_epik_Metal_Only>
1

> <s_lp_Force_Field>
OPLS_2005

> <r_lp_Energy>
15.7401

> <b_lp_Chiralities_Consistent>
1

> <s_lp_Variant>
AV-unprocessed.smi:1381-9

> <Gold.Version>
5.8.1

> <Gold.Id.Protein>
6NUR|6NUR_protein|mol2

> <Gold.PLP.Fitness>
44.6578

> <Gold.PLP.PLP>
-35.9854

> <Gold.PLP.part.hbond>
-3.8856

> <Gold.PLP.part.metal>
0.0000

> <Gold.PLP.part.buried>
-5.9530

> <Gold.PLP.part.nonpolar>
-26.6618

> <Gold.PLP.part.repulsive>
0.1644

> <Gold.PLP.ligand.clash>
0.0000

> <Gold.PLP.ligand.torsion>
1.2910

> <Gold.PLP.Chemscore.Hbond>
3.7360

> <Gold.PLP.Chemscore.CHOScore>
0.0000

> <Gold.PLP.Chemscore.Metal>
0.0000

> <Gold.Chemscore.Hbonds>
donor molecule, donor type, donor heavy atom, donor atom, acceptor molecule, acceptor atom, score
      P1  H  7989  7998       L1    20  0.98
      P1  H  7997  8009       L1    19  1.00
      P1  H 10752 10764       L1     5  1.68

> <Gold.PLP.Chemscore.Internal.Correction>
0.0465

> <Gold.Rescore>
     Score         DG    S(hbond)    S(metal)    S(lipo)     H(rot)  DE(clash)    DE(int)     intcor
     17.77     -20.75       2.70        0.00      87.10       1.54       0.41       2.56       ----

> <Gold.Chemscore.Fitness>
17.7748

> <Gold.Chemscore.DG>
-20.7495

> <Gold.Chemscore.ZeroCoef>
-5.4800

> <Gold.Chemscore.Hbond>
2.7016

> <Gold.Chemscore.Metal>
0.0000

> <Gold.Chemscore.Lipo>
87.0996

> <Gold.Chemscore.Internal_Hbond>
0.0000

> <Gold.Chemscore.DEClash>
0.4097

> <Gold.Chemscore.DEInternal>
2.5650

> <Gold.Chemscore.Rot>
1.5409

> <Gold.Chemscore.Internal.Correction>
   9.000000E+99

> <Gold.Chemscore.Hbonds>
donor molecule, donor type, donor heavy atom, donor atom, acceptor molecule, acceptor atom, score
      P1  H  7989  7998       L1    20  0.24
      P1  H  7997  8009       L1    19  0.76
      P1  H 10752 10764       L1     5  0.63

> <Gold.Chemscore.Hbond.Weighted>
-9.0235

> <Gold.Chemscore.Metal.Weighted>
-0.0000

> <Gold.Chemscore.Lipo.Weighted>
-10.1906

> <Gold.Chemscore.Internal_Hbond.Weighted>
0.0000

> <Gold.Chemscore.DEClash.Weighted>
0.4097

> <Gold.Chemscore.DEInternal.Weighted>
2.5650

> <Gold.Chemscore.Rot.Weighted>
3.9446

> <Gold.Chemscore.Internal.Correction.Weighted>
   9.000000E+99

> <Gold.Protein.RotatedTorsions>
[ 6907 6896 6895 6894 ] final  -18.25 input  -60.11 | X-H torsion
[ 7974 7965 7964 7962 ] final   68.04 input  175.53 | X-H torsion
[ 8008 7997 7996 7995 ] final -138.26 input   59.86 | X-H torsion
[ 10167 10162 10161 10158 ] final -134.27 input  -65.29 | X-H torsion
[ 10718 10713 10712 10709 ] final   -6.38 input   66.30 | X-H torsion
[ 10763 10752 10751 10750 ] final   -8.21 input  -60.55 | X-H torsion
[ 11005 11000 10999 10996 ] final -109.91 input  -57.11 | X-H torsion

> <Gold.Protein.ActiveResidues>
 VAL166  LYS551  ARG553  GLY616  TRP617  ASP618  TYR619  PRO620  LYS621  CYS622 
 ASP623  PHE694  ASN695  SER759  ASP760  ASP761  ALA762  ILE779  LEU786  VAL792 
 PHE793  MET794  SER795  GLU796  ALA797  LYS798  CYS799  TRP800  GLU811  SER814 

> <Gold.Protein.RotatedAtoms>
  151.2810  135.0713  159.9168 H   0  0  0  0  0  0  0  0  0  0  0  0  # atno 6907 bound_to 6896
  152.5334  134.0031  159.7914 H   0  0  0  0  0  0  0  0  0  0  0  0  # atno 6908 bound_to 6896
  151.0285  133.5761  159.2694 H   0  0  0  0  0  0  0  0  0  0  0  0  # atno 6909 bound_to 6896
  145.8074  139.3014  143.1119 H   0  0  0  0  0  0  0  0  0  0  0  0  # atno 7974 bound_to 7965
  155.4254  140.0521  157.3022 H   0  0  0  0  0  0  0  0  0  0  0  0  # atno 8008 bound_to 7997
  154.4883  140.2110  155.9563 H   0  0  0  0  0  0  0  0  0  0  0  0  # atno 8009 bound_to 7997
  156.1307  140.3172  155.8349 H   0  0  0  0  0  0  0  0  0  0  0  0  # atno 8010 bound_to 7997
  139.8897  143.6737  152.2614 H   0  0  0  0  0  0  0  0  0  0  0  0  # atno 10167 bound_to 10162
  156.7327  130.5185  149.5842 H   0  0  0  0  0  0  0  0  0  0  0  0  # atno 10718 bound_to 10713
  153.4372  135.7013  153.6192 H   0  0  0  0  0  0  0  0  0  0  0  0  # atno 10763 bound_to 10752
  153.4582  135.3742  155.2323 H   0  0  0  0  0  0  0  0  0  0  0  0  # atno 10764 bound_to 10752
  154.8727  135.4013  154.3765 H   0  0  0  0  0  0  0  0  0  0  0  0  # atno 10765 bound_to 10752
  141.0821  133.9202  157.2266 H   0  0  0  0  0  0  0  0  0  0  0  0  # atno 11005 bound_to 11000
  145.9814  140.8679  143.0112 LP  0  0  0  0  0  0  0  0  0  0  0  0  # atno 17320 bound_to 7965
  144.6761  140.2085  143.7379 LP  0  0  0  0  0  0  0  0  0  0  0  0  # atno 17321 bound_to 7965
  139.7120  144.7618  151.1096 LP  0  0  0  0  0  0  0  0  0  0  0  0  # atno 17342 bound_to 10162
  140.7729  143.5318  150.9414 LP  0  0  0  0  0  0  0  0  0  0  0  0  # atno 17343 bound_to 10162
  156.1518  130.6315  151.0605 LP  0  0  0  0  0  0  0  0  0  0  0  0  # atno 17370 bound_to 10713
  157.6852  131.0827  150.7262 LP  0  0  0  0  0  0  0  0  0  0  0  0  # atno 17371 bound_to 10713
  139.9636  135.0148  156.9326 LP  0  0  0  0  0  0  0  0  0  0  0  0  # atno 17394 bound_to 11000
  140.5445  134.0687  155.7351 LP  0  0  0  0  0  0  0  0  0  0  0  0  # atno 17395 bound_to 11000

$$$$
