AV-unprocessed.smi:2454|AV-procd|sdf|9697|dock3
  -GOLD-   2272013333D 1   1.00000     0.00000
 Structure written by MMmdl.
 42 43  0  0  0  0  0  0  0  0  1 V2000
  145.8692  131.7452  149.4080 C   0  0  0  0  0  0  0  0  0  0  0  0
  144.4768  131.9838  149.2997 O   0  0  0  0  0  0  0  0  0  0  0  0
  144.1664  133.3655  149.2353 C   0  0  0  0  0  0  0  0  0  0  0  0
  144.2623  134.0165  150.5996 C   0  0  0  0  0  0  0  0  0  0  0  0
  145.2824  134.9442  150.8987 C   0  0  0  0  0  0  0  0  0  0  0  0
  145.2885  135.5077  152.1948 C   0  0  0  0  0  0  0  0  0  0  0  0
  146.3402  136.4376  152.4458 N   0  0  0  0  0  0  0  0  0  0  0  0
  146.4724  137.4085  153.3752 C   0  0  0  0  0  0  0  0  0  0  0  0
  145.5880  137.6164  154.2044 O   0  0  0  0  0  0  0  0  0  0  0  0
  147.6116  138.1189  153.3350 N   0  0  0  0  0  0  0  0  0  0  0  0
  147.9733  139.2047  154.2401 C   0  0  2  0  0  0  0  0  0  0  0  0
  147.9814  140.5536  153.4942 C   0  0  0  0  0  0  0  0  0  0  0  0
  148.4418  141.6947  154.4133 C   0  0  0  0  0  0  0  0  0  0  0  0
  149.8169  141.3950  155.0305 C   0  0  0  0  0  0  0  0  0  0  0  0
  149.8182  140.0528  155.7922 C   0  0  2  0  0  0  0  0  0  0  0  0
  151.1892  139.7519  156.4321 C   0  0  0  0  0  0  0  0  0  0  0  0
  151.5834  140.7619  157.2083 F   0  0  0  0  0  0  0  0  0  0  0  0
  151.1143  138.6448  157.1707 F   0  0  0  0  0  0  0  0  0  0  0  0
  152.1038  139.5556  155.4824 F   0  0  0  0  0  0  0  0  0  0  0  0
  149.3532  138.9142  154.8595 C   0  0  0  0  0  0  0  0  0  0  0  0
  144.3327  135.1455  153.0886 N   0  0  0  0  0  0  0  0  0  0  0  0
  143.4114  134.2598  152.7019 C   0  0  0  0  0  0  0  0  0  0  0  0
  143.3234  133.6749  151.5073 N   0  0  0  0  0  0  0  0  0  0  0  0
  146.0543  130.6722  149.4536 H   0  0  0  0  0  0  0  0  0  0  0  0
  146.2778  132.1961  150.3136 H   0  0  0  0  0  0  0  0  0  0  0  0
  146.4056  132.1433  148.5457 H   0  0  0  0  0  0  0  0  0  0  0  0
  144.8466  133.8700  148.5467 H   0  0  0  0  0  0  0  0  0  0  0  0
  143.1564  133.5024  148.8454 H   0  0  0  0  0  0  0  0  0  0  0  0
  146.0254  135.2119  150.1612 H   0  0  0  0  0  0  0  0  0  0  0  0
  147.1267  136.3536  151.8185 H   0  0  0  0  0  0  0  0  0  0  0  0
  148.2840  137.8808  152.6189 H   0  0  0  0  0  0  0  0  0  0  0  0
  147.2414  139.2513  155.0488 H   0  0  0  0  0  0  0  0  0  0  0  0
  148.6449  140.4951  152.6302 H   0  0  0  0  0  0  0  0  0  0  0  0
  146.9872  140.7770  153.1056 H   0  0  0  0  0  0  0  0  0  0  0  0
  148.4821  142.6289  153.8525 H   0  0  0  0  0  0  0  0  0  0  0  0
  147.7090  141.8425  155.2075 H   0  0  0  0  0  0  0  0  0  0  0  0
  150.5703  141.3743  154.2421 H   0  0  0  0  0  0  0  0  0  0  0  0
  150.0957  142.2079  155.7014 H   0  0  0  0  0  0  0  0  0  0  0  0
  149.0922  140.1321  156.6027 H   0  0  0  0  0  0  0  0  0  0  0  0
  149.3112  137.9758  155.4137 H   0  0  0  0  0  0  0  0  0  0  0  0
  150.0879  138.7691  154.0659 H   0  0  0  0  0  0  0  0  0  0  0  0
  142.6624  133.9893  153.4313 H   0  0  0  0  0  0  0  0  0  0  0  0
  1  2  1  0  0  0  0
  1 24  1  0  0  0  0
  1 25  1  0  0  0  0
  1 26  1  0  0  0  0
  2  3  1  0  0  0  0
  3  4  1  0  0  0  0
  3 27  1  0  0  0  0
  3 28  1  0  0  0  0
  4 23  1  0  0  0  0
  4  5  2  0  0  0  0
  5  6  1  0  0  0  0
  5 29  1  0  0  0  0
  6  7  1  0  0  0  0
  6 21  2  0  0  0  0
  7  8  1  0  0  0  0
  7 30  1  0  0  0  0
  8  9  2  0  0  0  0
  8 10  1  0  0  0  0
 10 11  1  0  0  0  0
 10 31  1  0  0  0  0
 11 20  1  0  0  0  0
 11 12  1  0  0  0  0
 11 32  1  0  0  0  0
 12 13  1  0  0  0  0
 12 33  1  0  0  0  0
 12 34  1  0  0  0  0
 13 14  1  0  0  0  0
 13 35  1  0  0  0  0
 13 36  1  0  0  0  0
 14 15  1  0  0  0  0
 14 37  1  0  0  0  0
 14 38  1  0  0  0  0
 15 16  1  0  0  0  0
 15 20  1  0  0  0  0
 15 39  1  0  0  0  0
 16 17  1  0  0  0  0
 16 18  1  0  0  0  0
 16 19  1  0  0  0  0
 20 40  1  0  0  0  0
 20 41  1  0  0  0  0
 21 22  1  0  0  0  0
 22 23  2  0  0  0  0
 22 42  1  0  0  0  0
M  END
> <s_m_source_file>
AV-unprocessed.smi

> <i_m_source_file_index>
2454

> <i_lp_mmshare_version>
43012

> <i_f3d_flags>
0

> <s_epik_input>
W0NIM11PW0NIMl1jMVtjSF1jKG5bY0hdbjEpW05IXUMoPU8pW05IXVtDQEBIXTJbQ0gyXVtDSDJdW0NIMl1bQ0BASF0oQyhGKShGKUYpW0NIMl0y

> <s_epik_cmdline>
J2VwaWtfcHl0aG9uJywgJy1waCcsICc3LjAnLCAnLXRuJywgJzgnLCAnLW1hJywgJzIwMCcsICctbWV0YWxfYmluZGluZycsICctaW1hZScsICc8aW5maWxlLm1hZT4nLCAnLW9tYWUnLCAnPG91dGZpbGUubWFlPic=

> <r_lp_tautomer_probability>
1

> <r_epik_Ionization_Penalty>
3.01554e-05

> <r_epik_Ionization_Penalty_Charging>
0

> <r_epik_Ionization_Penalty_Neutral>
3.01554e-05

> <r_epik_State_Penalty>
-0

> <r_epik_Charging_Adjusted_Penalty>
0

> <i_epik_Tot_Q>
0

> <i_epik_Tot_abs_Q>
0

> <r_epik_Metal_State_Penalty>
-0

> <b_epik_Metal_Only>
0

> <s_lp_Force_Field>
OPLS_2005

> <r_lp_Energy>
14.2483

> <b_lp_Chiralities_Consistent>
1

> <s_lp_Variant>
AV-unprocessed.smi:2454-3

> <Gold.Version>
5.8.1

> <Gold.Id.Protein>
6NUR|6NUR_protein|mol2

> <Gold.PLP.Fitness>
42.0822

> <Gold.PLP.PLP>
-34.9120

> <Gold.PLP.part.hbond>
-3.0000

> <Gold.PLP.part.metal>
0.0000

> <Gold.PLP.part.buried>
0.8460

> <Gold.PLP.part.nonpolar>
-33.9931

> <Gold.PLP.part.repulsive>
0.6027

> <Gold.PLP.ligand.clash>
0.0000

> <Gold.PLP.ligand.torsion>
0.3199

> <Gold.PLP.Chemscore.Hbond>
1.6058

> <Gold.PLP.Chemscore.CHOScore>
0.9770

> <Gold.PLP.Chemscore.Metal>
0.0000

> <Gold.Chemscore.Hbonds>
donor molecule, donor type, donor heavy atom, donor atom, acceptor molecule, acceptor atom, score
      L1  H     7    30       P1  7948  0.83
      L1  H    10    31       P1  7948  0.74
      P1  H 10785 10796       L1     2  0.17
      L1  C    22    42       P1 10957  0.75

> <Gold.PLP.Chemscore.Internal.Correction>
0.0616

> <Gold.Rescore>
     Score         DG    S(hbond)    S(metal)    S(lipo)     H(rot)  DE(clash)    DE(int)     intcor
     14.87     -16.69       1.82        0.00      78.96       1.60       0.44       1.39       ----

> <Gold.Chemscore.Fitness>
14.8697

> <Gold.Chemscore.DG>
-16.6923

> <Gold.Chemscore.ZeroCoef>
-5.4800

> <Gold.Chemscore.Hbond>
1.8202

> <Gold.Chemscore.Metal>
0.0000

> <Gold.Chemscore.Lipo>
78.9571

> <Gold.Chemscore.Internal_Hbond>
0.0000

> <Gold.Chemscore.DEClash>
0.4351

> <Gold.Chemscore.DEInternal>
1.3874

> <Gold.Chemscore.Rot>
1.6035

> <Gold.Chemscore.Internal.Correction>
   9.000000E+99

> <Gold.Chemscore.Hbonds>
donor molecule, donor type, donor heavy atom, donor atom, acceptor molecule, acceptor atom, score
      L1  H     7    30       P1  7948  0.83
      L1  H    10    31       P1  7948  0.74
      P1  H 10785 10796       L1     2  0.15

> <Gold.Chemscore.Hbond.Weighted>
-6.0793

> <Gold.Chemscore.Metal.Weighted>
-0.0000

> <Gold.Chemscore.Lipo.Weighted>
-9.2380

> <Gold.Chemscore.Internal_Hbond.Weighted>
0.0000

> <Gold.Chemscore.DEClash.Weighted>
0.4351

> <Gold.Chemscore.DEInternal.Weighted>
1.3874

> <Gold.Chemscore.Rot.Weighted>
4.1050

> <Gold.Chemscore.Internal.Correction.Weighted>
   9.000000E+99

> <Gold.Protein.RotatedTorsions>
[ 6907 6896 6895 6894 ] final -124.91 input  -60.11 | X-H torsion
[ 7974 7965 7964 7962 ] final  -60.02 input  175.53 | X-H torsion
[ 8008 7997 7996 7995 ] final  -43.34 input   59.86 | X-H torsion
[ 10167 10162 10161 10158 ] final  -44.54 input  -65.29 | X-H torsion
[ 10718 10713 10712 10709 ] final  160.36 input   66.30 | X-H torsion
[ 10763 10752 10751 10750 ] final   91.07 input  -60.55 | X-H torsion
[ 11005 11000 10999 10996 ] final -110.43 input  -57.11 | X-H torsion

> <Gold.Protein.ActiveResidues>
 VAL166  LYS551  ARG553  GLY616  TRP617  ASP618  TYR619  PRO620  LYS621  CYS622 
 ASP623  PHE694  ASN695  SER759  ASP760  ASP761  ALA762  ILE779  LEU786  VAL792 
 PHE793  MET794  SER795  GLU796  ALA797  LYS798  CYS799  TRP800  GLU811  SER814 

> <Gold.Protein.RotatedAtoms>
  150.8815  133.7366  159.2930 H   0  0  0  0  0  0  0  0  0  0  0  0  # atno 6907 bound_to 6896
  151.4945  135.1057  159.9822 H   0  0  0  0  0  0  0  0  0  0  0  0  # atno 6908 bound_to 6896
  152.4762  133.8099  159.7053 H   0  0  0  0  0  0  0  0  0  0  0  0  # atno 6909 bound_to 6896
  145.8205  140.8543  143.0135 H   0  0  0  0  0  0  0  0  0  0  0  0  # atno 7974 bound_to 7965
  154.3997  140.1450  156.3502 H   0  0  0  0  0  0  0  0  0  0  0  0  # atno 8008 bound_to 7997
  155.8276  140.3467  155.5531 H   0  0  0  0  0  0  0  0  0  0  0  0  # atno 8009 bound_to 7997
  155.8222  140.0899  157.1832 H   0  0  0  0  0  0  0  0  0  0  0  0  # atno 8010 bound_to 7997
  140.6893  143.2925  151.3510 H   0  0  0  0  0  0  0  0  0  0  0  0  # atno 10167 bound_to 10162
  157.1514  131.0565  151.2278 H   0  0  0  0  0  0  0  0  0  0  0  0  # atno 10718 bound_to 10713
  153.2043  135.4411  155.0304 H   0  0  0  0  0  0  0  0  0  0  0  0  # atno 10763 bound_to 10752
  154.8164  135.3317  154.7165 H   0  0  0  0  0  0  0  0  0  0  0  0  # atno 10764 bound_to 10752
  153.7608  135.6991  153.4981 H   0  0  0  0  0  0  0  0  0  0  0  0  # atno 10765 bound_to 10752
  141.0792  133.9249  157.2325 H   0  0  0  0  0  0  0  0  0  0  0  0  # atno 11005 bound_to 11000
  144.6748  140.0526  143.7478 LP  0  0  0  0  0  0  0  0  0  0  0  0  # atno 17320 bound_to 7965
  145.9680  139.2849  143.1116 LP  0  0  0  0  0  0  0  0  0  0  0  0  # atno 17321 bound_to 7965
  139.6280  144.0777  152.2451 LP  0  0  0  0  0  0  0  0  0  0  0  0  # atno 17342 bound_to 10162
  140.0242  144.6130  150.7541 LP  0  0  0  0  0  0  0  0  0  0  0  0  # atno 17343 bound_to 10162
  157.4217  130.7441  149.6918 LP  0  0  0  0  0  0  0  0  0  0  0  0  # atno 17370 bound_to 10713
  155.9770  130.4069  150.3743 LP  0  0  0  0  0  0  0  0  0  0  0  0  # atno 17371 bound_to 10713
  139.9605  135.0155  156.9248 LP  0  0  0  0  0  0  0  0  0  0  0  0  # atno 17394 bound_to 11000
  140.5506  134.0631  155.7368 LP  0  0  0  0  0  0  0  0  0  0  0  0  # atno 17395 bound_to 11000

$$$$
