AV-unprocessed.smi:1958|AV-procd|sdf|7910|dock10
  -GOLD-   2272010 73D 1   1.00000     0.00000
 Structure written by MMmdl.
 47 48  0  0  0  0  0  0  0  0  3 V2000
  148.1720  141.9331  153.6754 C   0  0  0  0  0  0  0  0  0  0  0  0
  148.0268  140.8769  154.6083 O   0  0  0  0  0  0  0  0  0  0  0  0
  148.0499  139.6004  153.9920 C   0  0  0  0  0  0  0  0  0  0  0  0
  149.5101  139.2097  153.7199 C   0  0  0  0  0  0  0  0  0  0  0  0
  150.1117  138.5235  154.8676 N   0  0  0  0  0  0  0  0  0  0  0  0
  149.3494  137.4802  155.3638 N   0  0  0  0  0  0  0  0  0  0  0  0
  149.7535  136.8052  156.3917 C   0  0  0  0  0  0  0  0  0  0  0  0
  148.9282  135.6973  156.9660 C   0  0  0  0  0  0  0  0  0  0  0  0
  148.9140  135.6100  158.2003 O   0  0  0  0  0  0  0  0  0  0  0  0
  148.2461  134.8918  156.0968 N   0  5  0  0  0  0  0  0  0  0  0  0
  147.3977  135.3521  154.9938 C   0  0  0  0  0  0  0  0  0  0  0  0
  146.7714  134.1477  154.2404 C   0  0  2  0  0  0  0  0  0  0  0  0
  147.7316  132.9470  154.0521 C   0  0  0  0  0  0  0  0  0  0  0  0
  146.0895  134.5938  152.9825 N   0  3  0  0  0  0  0  0  0  0  0  0
  145.3695  133.5493  152.2031 C   0  0  0  0  0  0  0  0  0  0  0  0
  144.9064  134.1273  150.8581 C   0  0  0  0  0  0  0  0  0  0  0  0
  144.0630  135.2484  151.0942 O   0  0  0  0  0  0  0  0  0  0  0  0
  144.7418  136.2919  151.7829 C   0  0  0  0  0  0  0  0  0  0  0  0
  145.2278  135.7888  153.1535 C   0  0  0  0  0  0  0  0  0  0  0  0
  151.0218  137.1234  157.0326 C   0  0  0  0  0  0  0  0  0  0  0  0
  151.7596  138.1375  156.5304 C   0  0  0  0  0  0  0  0  0  0  0  0
  151.3184  138.9179  155.3740 C   0  0  0  0  0  0  0  0  0  0  0  0
  151.9724  139.8465  154.8998 O   0  0  0  0  0  0  0  0  0  0  0  0
  148.1427  142.8896  154.1970 H   0  0  0  0  0  0  0  0  0  0  0  0
  147.3657  141.9246  152.9410 H   0  0  0  0  0  0  0  0  0  0  0  0
  149.1253  141.8661  153.1496 H   0  0  0  0  0  0  0  0  0  0  0  0
  147.5786  138.8627  154.6434 H   0  0  0  0  0  0  0  0  0  0  0  0
  147.4826  139.6284  153.0603 H   0  0  0  0  0  0  0  0  0  0  0  0
  149.5689  138.5804  152.8303 H   0  0  0  0  0  0  0  0  0  0  0  0
  150.0848  140.1061  153.4789 H   0  0  0  0  0  0  0  0  0  0  0  0
  146.5990  136.0003  155.3542 H   0  0  0  0  0  0  0  0  0  0  0  0
  147.9480  135.9556  154.2704 H   0  0  0  0  0  0  0  0  0  0  0  0
  145.9945  133.7827  154.9137 H   0  0  0  0  0  0  0  0  0  0  0  0
  148.1024  132.5741  155.0085 H   0  0  0  0  0  0  0  0  0  0  0  0
  148.6023  133.1914  153.4413 H   0  0  0  0  0  0  0  0  0  0  0  0
  147.2173  132.1128  153.5739 H   0  0  0  0  0  0  0  0  0  0  0  0
  146.0141  132.6898  152.0202 H   0  0  0  0  0  0  0  0  0  0  0  0
  144.5032  133.1904  152.7599 H   0  0  0  0  0  0  0  0  0  0  0  0
  145.7601  134.4161  150.2429 H   0  0  0  0  0  0  0  0  0  0  0  0
  144.3489  133.3763  150.2985 H   0  0  0  0  0  0  0  0  0  0  0  0
  145.5796  136.6512  151.1833 H   0  0  0  0  0  0  0  0  0  0  0  0
  144.0596  137.1322  151.9117 H   0  0  0  0  0  0  0  0  0  0  0  0
  144.3782  135.5391  153.7910 H   0  0  0  0  0  0  0  0  0  0  0  0
  145.7839  136.5842  153.6510 H   0  0  0  0  0  0  0  0  0  0  0  0
  151.3797  136.5651  157.8852 H   0  0  0  0  0  0  0  0  0  0  0  0
  152.7040  138.3805  156.9948 H   0  0  0  0  0  0  0  0  0  0  0  0
  146.8507  134.8956  152.3902 H   0  0  0  0  0  0  0  0  0  0  0  0
  1  2  1  0  0  0  0
  1 24  1  0  0  0  0
  1 25  1  0  0  0  0
  1 26  1  0  0  0  0
  2  3  1  0  0  0  0
  3  4  1  0  0  0  0
  3 27  1  0  0  0  0
  3 28  1  0  0  0  0
  4  5  1  0  0  0  0
  4 29  1  0  0  0  0
  4 30  1  0  0  0  0
  5 22  1  0  0  0  0
  5  6  1  0  0  0  0
  6  7  2  0  0  0  0
  7  8  1  0  0  0  0
  7 20  1  0  0  0  0
  8  9  2  0  0  0  0
  8 10  1  0  0  0  0
 10 11  1  0  0  0  0
 11 12  1  0  0  0  0
 11 31  1  0  0  0  0
 11 32  1  0  0  0  0
 12 13  1  0  0  0  0
 12 14  1  0  0  0  0
 12 33  1  0  0  0  0
 13 34  1  0  0  0  0
 13 35  1  0  0  0  0
 13 36  1  0  0  0  0
 14 19  1  0  0  0  0
 14 15  1  0  0  0  0
 14 47  1  0  0  0  0
 15 16  1  0  0  0  0
 15 37  1  0  0  0  0
 15 38  1  0  0  0  0
 16 17  1  0  0  0  0
 16 39  1  0  0  0  0
 16 40  1  0  0  0  0
 17 18  1  0  0  0  0
 18 19  1  0  0  0  0
 18 41  1  0  0  0  0
 18 42  1  0  0  0  0
 19 43  1  0  0  0  0
 19 44  1  0  0  0  0
 20 21  2  0  0  0  0
 20 45  1  0  0  0  0
 21 22  1  0  0  0  0
 21 46  1  0  0  0  0
 22 23  2  0  0  0  0
M  CHG  1  10  -1
M  CHG  1  14   1
M  END
> <s_m_source_file>
AV-unprocessed.smi

> <i_m_source_file_index>
1958

> <i_lp_mmshare_version>
43012

> <i_f3d_flags>
0

> <s_epik_input>
W0NIM11PW0NIMl1bQ0gyXW4xbmMoW2NIXVtjSF1jMT1PKUMoPU8pW05IXVtDSDJdW0NASF0oW0NIM10pTjJbQ0gyXVtDSDJdT1tDSDJdW0NIMl0y

> <s_epik_cmdline>
J2VwaWtfcHl0aG9uJywgJy1waCcsICc3LjAnLCAnLXRuJywgJzgnLCAnLW1hJywgJzIwMCcsICctbWV0YWxfYmluZGluZycsICctaW1hZScsICc8aW5maWxlLm1hZT4nLCAnLW9tYWUnLCAnPG91dGZpbGUubWFlPic=

> <r_lp_tautomer_probability>
1

> <r_epik_Ionization_Penalty>
6.89388

> <r_epik_Ionization_Penalty_Charging>
6.89388

> <r_epik_Ionization_Penalty_Neutral>
1.08445e-11

> <r_epik_State_Penalty>
7.53214

> <r_epik_Charging_Adjusted_Penalty>
14.426

> <i_epik_Tot_Q>
0

> <i_epik_Tot_abs_Q>
2

> <r_epik_Metal_State_Penalty>
3.44743

> <b_epik_Metal_Only>
1

> <s_lp_Force_Field>
OPLS_2005

> <r_lp_Energy>
42.3217

> <b_lp_Chiralities_Consistent>
1

> <s_lp_Variant>
AV-unprocessed.smi:1958-5

> <Gold.Version>
5.8.1

> <Gold.Id.Protein>
6NUR|6NUR_protein|mol2

> <Gold.PLP.Fitness>
41.4807

> <Gold.PLP.PLP>
-32.3838

> <Gold.PLP.part.hbond>
-3.6801

> <Gold.PLP.part.metal>
0.0000

> <Gold.PLP.part.buried>
-1.6663

> <Gold.PLP.part.nonpolar>
-27.2238

> <Gold.PLP.part.repulsive>
0.4427

> <Gold.PLP.ligand.clash>
0.0000

> <Gold.PLP.ligand.torsion>
1.5439

> <Gold.PLP.Chemscore.Hbond>
3.9806

> <Gold.PLP.Chemscore.CHOScore>
0.0000

> <Gold.PLP.Chemscore.Metal>
0.0000

> <Gold.Chemscore.Hbonds>
donor molecule, donor type, donor heavy atom, donor atom, acceptor molecule, acceptor atom, score
      P1  H  7989  7998       L1    23  0.90

> <Gold.PLP.Chemscore.Internal.Correction>
0.2429

> <Gold.Rescore>
     Score         DG    S(hbond)    S(metal)    S(lipo)     H(rot)  DE(clash)    DE(int)     intcor
     12.31     -15.80       2.32        0.00      67.07       2.07       0.29       3.19       ----

> <Gold.Chemscore.Fitness>
12.3148

> <Gold.Chemscore.DG>
-15.7997

> <Gold.Chemscore.ZeroCoef>
-5.4800

> <Gold.Chemscore.Hbond>
2.3250

> <Gold.Chemscore.Metal>
0.0000

> <Gold.Chemscore.Lipo>
67.0661

> <Gold.Chemscore.Internal_Hbond>
0.0000

> <Gold.Chemscore.DEClash>
0.2921

> <Gold.Chemscore.DEInternal>
3.1928

> <Gold.Chemscore.Rot>
2.0673

> <Gold.Chemscore.Internal.Correction>
   9.000000E+99

> <Gold.Chemscore.Hbonds>
donor molecule, donor type, donor heavy atom, donor atom, acceptor molecule, acceptor atom, score
      L1  H    14    47       P1  7948  0.01
      P1  H  6896  6907       L1     9  0.01
      P1  H  7989  7998       L1    23  0.88

> <Gold.Chemscore.Hbond.Weighted>
-7.7653

> <Gold.Chemscore.Metal.Weighted>
-0.0000

> <Gold.Chemscore.Lipo.Weighted>
-7.8467

> <Gold.Chemscore.Internal_Hbond.Weighted>
0.0000

> <Gold.Chemscore.DEClash.Weighted>
0.2921

> <Gold.Chemscore.DEInternal.Weighted>
3.1928

> <Gold.Chemscore.Rot.Weighted>
5.2923

> <Gold.Chemscore.Internal.Correction.Weighted>
   9.000000E+99

> <Gold.Protein.RotatedTorsions>
[ 6907 6896 6895 6894 ] final  -95.17 input  -60.11 | X-H torsion
[ 7974 7965 7964 7962 ] final  -74.38 input  175.53 | X-H torsion
[ 8008 7997 7996 7995 ] final   83.19 input   59.86 | X-H torsion
[ 10167 10162 10161 10158 ] final -175.98 input  -65.29 | X-H torsion
[ 10718 10713 10712 10709 ] final -173.46 input   66.30 | X-H torsion
[ 10763 10752 10751 10750 ] final  -44.31 input  -60.55 | X-H torsion
[ 11005 11000 10999 10996 ] final  -83.89 input  -57.11 | X-H torsion

> <Gold.Protein.ActiveResidues>
 VAL166  LYS551  ARG553  GLY616  TRP617  ASP618  TYR619  PRO620  LYS621  CYS622 
 ASP623  PHE694  ASN695  SER759  ASP760  ASP761  ALA762  ILE779  LEU786  VAL792 
 PHE793  MET794  SER795  GLU796  ALA797  LYS798  CYS799  TRP800  GLU811  SER814 

> <Gold.Protein.RotatedAtoms>
  150.6958  134.1699  159.4208 H   0  0  0  0  0  0  0  0  0  0  0  0  # atno 6907 bound_to 6896
  151.9677  135.0090  160.0560 H   0  0  0  0  0  0  0  0  0  0  0  0  # atno 6908 bound_to 6896
  152.1869  133.4711  159.5024 H   0  0  0  0  0  0  0  0  0  0  0  0  # atno 6909 bound_to 6896
  145.6399  140.9314  143.1041 H   0  0  0  0  0  0  0  0  0  0  0  0  # atno 7974 bound_to 7965
  155.9206  140.3421  155.6170 H   0  0  0  0  0  0  0  0  0  0  0  0  # atno 8008 bound_to 7997
  155.7278  140.0791  157.2321 H   0  0  0  0  0  0  0  0  0  0  0  0  # atno 8009 bound_to 7997
  154.4069  140.1594  156.2461 H   0  0  0  0  0  0  0  0  0  0  0  0  # atno 8010 bound_to 7997
  139.5553  144.2005  152.1148 H   0  0  0  0  0  0  0  0  0  0  0  0  # atno 10167 bound_to 10162
  156.7706  130.9447  151.3120 H   0  0  0  0  0  0  0  0  0  0  0  0  # atno 10718 bound_to 10713
  154.0100  135.6682  153.4764 H   0  0  0  0  0  0  0  0  0  0  0  0  # atno 10763 bound_to 10752
  153.0625  135.5020  154.8121 H   0  0  0  0  0  0  0  0  0  0  0  0  # atno 10764 bound_to 10752
  154.7001  135.3077  154.9317 H   0  0  0  0  0  0  0  0  0  0  0  0  # atno 10765 bound_to 10752
  141.1654  133.7317  156.8787 H   0  0  0  0  0  0  0  0  0  0  0  0  # atno 11005 bound_to 11000
  144.7161  139.8192  143.7398 LP  0  0  0  0  0  0  0  0  0  0  0  0  # atno 17320 bound_to 7965
  146.1289  139.4320  143.0181 LP  0  0  0  0  0  0  0  0  0  0  0  0  # atno 17321 bound_to 7965
  140.1508  144.5116  150.6688 LP  0  0  0  0  0  0  0  0  0  0  0  0  # atno 17342 bound_to 10162
  140.6824  143.2333  151.5348 LP  0  0  0  0  0  0  0  0  0  0  0  0  # atno 17343 bound_to 10162
  157.6693  130.9036  150.0003 LP  0  0  0  0  0  0  0  0  0  0  0  0  # atno 17370 bound_to 10713
  156.1280  130.3644  149.9777 LP  0  0  0  0  0  0  0  0  0  0  0  0  # atno 17371 bound_to 10713
  140.1730  134.9086  157.2857 LP  0  0  0  0  0  0  0  0  0  0  0  0  # atno 17394 bound_to 11000
  140.2480  134.3716  155.7453 LP  0  0  0  0  0  0  0  0  0  0  0  0  # atno 17395 bound_to 11000

$$$$
