AV-unprocessed.smi:1737|AV-procd|sdf|6995|dock2
  -GOLD-   22720 8203D 1   1.00000     0.00000
 Structure written by MMmdl.
 43 44  0  0  0  0  0  0  0  0  2 V2000
  150.8649  145.0740  158.4226 C   0  0  0  0  0  0  0  0  0  0  0  0
  151.5922  143.8069  158.8427 C   0  0  0  0  0  0  0  0  0  0  0  0
  152.5478  143.8711  159.8791 C   0  0  0  0  0  0  0  0  0  0  0  0
  153.2186  142.6989  160.2675 C   0  0  0  0  0  0  0  0  0  0  0  0
  152.9034  141.5041  159.5983 C   0  0  0  0  0  0  0  0  0  0  0  0
  151.9917  141.4334  158.6069 N   0  0  0  0  0  0  0  0  0  0  0  0
  151.3347  142.5558  158.2204 C   0  0  0  0  0  0  0  0  0  0  0  0
  150.3650  142.5562  157.1780 N   0  0  0  0  0  0  0  0  0  0  0  0
  150.0694  141.5706  156.3123 C   0  0  0  0  0  0  0  0  0  0  0  0
  150.5837  140.4516  156.2991 O   0  0  0  0  0  0  0  0  0  0  0  0
  149.1245  141.9534  155.4413 N   0  0  0  0  0  0  0  0  0  0  0  0
  148.5853  141.1086  154.3795 C   0  0  0  0  0  0  0  0  0  0  0  0
  147.0906  141.3937  154.0723 C   0  0  2  0  0  0  0  0  0  0  0  0
  146.3768  141.9149  155.3432 C   0  0  0  0  0  0  0  0  0  0  0  0
  146.4439  140.1793  153.4763 N   0  3  0  0  0  0  0  0  0  0  0  0
  147.0586  139.6717  152.2184 C   0  0  0  0  0  0  0  0  0  0  0  0
  146.2950  138.4476  151.6836 C   0  0  0  0  0  0  0  0  0  0  0  0
  146.2528  137.4312  152.6741 O   0  0  0  0  0  0  0  0  0  0  0  0
  145.5732  137.8692  153.8412 C   0  0  0  0  0  0  0  0  0  0  0  0
  146.3246  139.0622  154.4532 C   0  0  0  0  0  0  0  0  0  0  0  0
  151.2098  145.9373  158.9922 H   0  0  0  0  0  0  0  0  0  0  0  0
  149.7922  144.9697  158.5885 H   0  0  0  0  0  0  0  0  0  0  0  0
  151.0349  145.2809  157.3655 H   0  0  0  0  0  0  0  0  0  0  0  0
  152.7669  144.8068  160.3726 H   0  0  0  0  0  0  0  0  0  0  0  0
  153.9554  142.7154  161.0567 H   0  0  0  0  0  0  0  0  0  0  0  0
  153.3965  140.5805  159.8639 H   0  0  0  0  0  0  0  0  0  0  0  0
  149.8425  143.4135  157.0765 H   0  0  0  0  0  0  0  0  0  0  0  0
  148.7508  142.8882  155.5190 H   0  0  0  0  0  0  0  0  0  0  0  0
  149.2157  141.2351  153.5002 H   0  0  0  0  0  0  0  0  0  0  0  0
  148.7051  140.0690  154.6866 H   0  0  0  0  0  0  0  0  0  0  0  0
  147.0262  142.1915  153.3306 H   0  0  0  0  0  0  0  0  0  0  0  0
  146.8869  142.7802  155.7657 H   0  0  0  0  0  0  0  0  0  0  0  0
  146.3343  141.1504  156.1198 H   0  0  0  0  0  0  0  0  0  0  0  0
  145.3602  142.2478  155.1338 H   0  0  0  0  0  0  0  0  0  0  0  0
  147.0390  140.4336  151.4396 H   0  0  0  0  0  0  0  0  0  0  0  0
  148.1030  139.4119  152.3989 H   0  0  0  0  0  0  0  0  0  0  0  0
  145.2824  138.7212  151.3826 H   0  0  0  0  0  0  0  0  0  0  0  0
  146.7932  138.0542  150.7972 H   0  0  0  0  0  0  0  0  0  0  0  0
  144.5419  138.1354  153.6039 H   0  0  0  0  0  0  0  0  0  0  0  0
  145.5331  137.0455  154.5542 H   0  0  0  0  0  0  0  0  0  0  0  0
  147.3203  138.7456  154.7677 H   0  0  0  0  0  0  0  0  0  0  0  0
  145.7987  139.3775  155.3523 H   0  0  0  0  0  0  0  0  0  0  0  0
  145.5040  140.4548  153.2293 H   0  0  0  0  0  0  0  0  0  0  0  0
  1  2  1  0  0  0  0
  1 21  1  0  0  0  0
  1 22  1  0  0  0  0
  1 23  1  0  0  0  0
  2  7  1  0  0  0  0
  2  3  2  0  0  0  0
  3  4  1  0  0  0  0
  3 24  1  0  0  0  0
  4  5  2  0  0  0  0
  4 25  1  0  0  0  0
  5  6  1  0  0  0  0
  5 26  1  0  0  0  0
  6  7  2  0  0  0  0
  7  8  1  0  0  0  0
  8  9  1  0  0  0  0
  8 27  1  0  0  0  0
  9 10  2  0  0  0  0
  9 11  1  0  0  0  0
 11 12  1  0  0  0  0
 11 28  1  0  0  0  0
 12 13  1  0  0  0  0
 12 29  1  0  0  0  0
 12 30  1  0  0  0  0
 13 14  1  0  0  0  0
 13 15  1  0  0  0  0
 13 31  1  0  0  0  0
 14 32  1  0  0  0  0
 14 33  1  0  0  0  0
 14 34  1  0  0  0  0
 15 20  1  0  0  0  0
 15 16  1  0  0  0  0
 15 43  1  0  0  0  0
 16 17  1  0  0  0  0
 16 35  1  0  0  0  0
 16 36  1  0  0  0  0
 17 18  1  0  0  0  0
 17 37  1  0  0  0  0
 17 38  1  0  0  0  0
 18 19  1  0  0  0  0
 19 20  1  0  0  0  0
 19 39  1  0  0  0  0
 19 40  1  0  0  0  0
 20 41  1  0  0  0  0
 20 42  1  0  0  0  0
M  CHG  1  15   1
M  END
> <s_m_source_file>
AV-unprocessed.smi

> <i_m_source_file_index>
1737

> <i_lp_mmshare_version>
43012

> <i_f3d_flags>
0

> <s_epik_input>
W0NIM11jMVtjSF1bY0hdW2NIXW5jMVtOSF1DKD1PKVtOSF1bQ0gyXVtDQEhdKFtDSDNdKU4yW0NIMl1bQ0gyXU9bQ0gyXVtDSDJdMg==

> <s_epik_cmdline>
J2VwaWtfcHl0aG9uJywgJy1waCcsICc3LjAnLCAnLXRuJywgJzgnLCAnLW1hJywgJzIwMCcsICctbWV0YWxfYmluZGluZycsICctaW1hZScsICc8aW5maWxlLm1hZT4nLCAnLW9tYWUnLCAnPG91dGZpbGUubWFlPic=

> <r_epik_Ionization_Penalty>
0.602573

> <r_epik_Ionization_Penalty_Charging>
0.602531

> <r_epik_Ionization_Penalty_Neutral>
4.25912e-05

> <r_epik_State_Penalty>
0.617039

> <r_epik_Charging_Adjusted_Penalty>
1.21957

> <i_epik_Tot_Q>
1

> <i_epik_Tot_abs_Q>
1

> <r_epik_Metal_State_Penalty>
0.617042

> <b_epik_Metal_Only>
0

> <s_lp_Force_Field>
OPLS_2005

> <r_lp_Energy>
21.8503

> <b_lp_Chiralities_Consistent>
1

> <s_lp_Variant>
AV-unprocessed.smi:1737-3

> <Gold.Version>
5.8.1

> <Gold.Id.Protein>
6NUR|6NUR_protein|mol2

> <Gold.PLP.Fitness>
49.7402

> <Gold.PLP.PLP>
-39.1590

> <Gold.PLP.part.hbond>
-3.0000

> <Gold.PLP.part.metal>
0.0000

> <Gold.PLP.part.buried>
-1.1773

> <Gold.PLP.part.nonpolar>
-37.5329

> <Gold.PLP.part.repulsive>
0.8322

> <Gold.PLP.ligand.clash>
0.0076

> <Gold.PLP.ligand.torsion>
0.5679

> <Gold.PLP.Chemscore.Hbond>
3.8938

> <Gold.PLP.Chemscore.CHOScore>
0.0000

> <Gold.PLP.Chemscore.Metal>
0.0000

> <Gold.Chemscore.Hbonds>
donor molecule, donor type, donor heavy atom, donor atom, acceptor molecule, acceptor atom, score
      L1  H     8    27       P1  8028  0.64
      L1  H    11    28       P1  8028  1.00
      L1  H    15    43       P1 10175  2.00

> <Gold.PLP.Chemscore.Internal.Correction>
0.0434

> <Gold.Rescore>
     Score         DG    S(hbond)    S(metal)    S(lipo)     H(rot)  DE(clash)    DE(int)     intcor
     20.49     -22.61       2.92        0.00      96.18       1.51       0.10       2.01       ----

> <Gold.Chemscore.Fitness>
20.4911

> <Gold.Chemscore.DG>
-22.6068

> <Gold.Chemscore.ZeroCoef>
-5.4800

> <Gold.Chemscore.Hbond>
2.9182

> <Gold.Chemscore.Metal>
0.0000

> <Gold.Chemscore.Lipo>
96.1756

> <Gold.Chemscore.Internal_Hbond>
0.0000

> <Gold.Chemscore.DEClash>
0.1034

> <Gold.Chemscore.DEInternal>
2.0123

> <Gold.Chemscore.Rot>
1.5128

> <Gold.Chemscore.Internal.Correction>
   9.000000E+99

> <Gold.Chemscore.Hbonds>
donor molecule, donor type, donor heavy atom, donor atom, acceptor molecule, acceptor atom, score
      L1  H     8    27       P1  8028  0.61
      L1  H    11    28       P1  8028  0.98
      L1  H    15    43       P1 10175  0.94

> <Gold.Chemscore.Hbond.Weighted>
-9.7469

> <Gold.Chemscore.Metal.Weighted>
-0.0000

> <Gold.Chemscore.Lipo.Weighted>
-11.2525

> <Gold.Chemscore.Internal_Hbond.Weighted>
0.0000

> <Gold.Chemscore.DEClash.Weighted>
0.1034

> <Gold.Chemscore.DEInternal.Weighted>
2.0123

> <Gold.Chemscore.Rot.Weighted>
3.8726

> <Gold.Chemscore.Internal.Correction.Weighted>
   9.000000E+99

> <Gold.Protein.RotatedTorsions>
[ 6907 6896 6895 6894 ] final  144.81 input  -60.11 | X-H torsion
[ 7974 7965 7964 7962 ] final   57.58 input  175.53 | X-H torsion
[ 8008 7997 7996 7995 ] final  138.99 input   59.86 | X-H torsion
[ 10167 10162 10161 10158 ] final  -51.10 input  -65.29 | X-H torsion
[ 10718 10713 10712 10709 ] final  -85.18 input   66.30 | X-H torsion
[ 10763 10752 10751 10750 ] final  150.09 input  -60.55 | X-H torsion
[ 11005 11000 10999 10996 ] final   -7.74 input  -57.11 | X-H torsion

> <Gold.Protein.ActiveResidues>
 VAL166  LYS551  ARG553  GLY616  TRP617  ASP618  TYR619  PRO620  LYS621  CYS622 
 ASP623  PHE694  ASN695  SER759  ASP760  ASP761  ALA762  ILE779  LEU786  VAL792 
 PHE793  MET794  SER795  GLU796  ALA797  LYS798  CYS799  TRP800  GLU811  SER814 

> <Gold.Protein.RotatedAtoms>
  152.1889  133.4759  159.4996 H   0  0  0  0  0  0  0  0  0  0  0  0  # atno 6907 bound_to 6896
  150.6947  134.1738  159.4231 H   0  0  0  0  0  0  0  0  0  0  0  0  # atno 6908 bound_to 6896
  151.9652  135.0103  160.0600 H   0  0  0  0  0  0  0  0  0  0  0  0  # atno 6909 bound_to 6896
  145.9275  139.3780  143.0441 H   0  0  0  0  0  0  0  0  0  0  0  0  # atno 7974 bound_to 7965
  156.2993  140.2379  156.4164 H   0  0  0  0  0  0  0  0  0  0  0  0  # atno 8008 bound_to 7997
  154.8394  140.0429  157.1551 H   0  0  0  0  0  0  0  0  0  0  0  0  # atno 8009 bound_to 7997
  154.9119  140.2991  155.5265 H   0  0  0  0  0  0  0  0  0  0  0  0  # atno 8010 bound_to 7997
  140.6605  143.2632  151.4455 H   0  0  0  0  0  0  0  0  0  0  0  0  # atno 10167 bound_to 10162
  155.9999  130.4722  150.4523 H   0  0  0  0  0  0  0  0  0  0  0  0  # atno 10718 bound_to 10713
  154.0818  135.2859  155.3289 H   0  0  0  0  0  0  0  0  0  0  0  0  # atno 10763 bound_to 10752
  154.6679  135.5310  153.8103 H   0  0  0  0  0  0  0  0  0  0  0  0  # atno 10764 bound_to 10752
  153.0446  135.6550  154.0992 H   0  0  0  0  0  0  0  0  0  0  0  0  # atno 10765 bound_to 10752
  140.7160  133.8868  155.8786 H   0  0  0  0  0  0  0  0  0  0  0  0  # atno 11005 bound_to 11000
  145.8469  140.9550  143.0770 LP  0  0  0  0  0  0  0  0  0  0  0  0  # atno 17320 bound_to 7965
  144.6760  140.0357  143.7482 LP  0  0  0  0  0  0  0  0  0  0  0  0  # atno 17321 bound_to 7965
  139.5838  144.1651  152.2002 LP  0  0  0  0  0  0  0  0  0  0  0  0  # atno 17342 bound_to 10162
  140.0984  144.5561  150.7006 LP  0  0  0  0  0  0  0  0  0  0  0  0  # atno 17343 bound_to 10162
  157.2555  131.0555  151.2353 LP  0  0  0  0  0  0  0  0  0  0  0  0  # atno 17370 bound_to 10713
  157.3486  130.7070  149.6426 LP  0  0  0  0  0  0  0  0  0  0  0  0  # atno 17371 bound_to 10713
  141.0044  134.1106  157.4285 LP  0  0  0  0  0  0  0  0  0  0  0  0  # atno 17394 bound_to 11000
  139.8860  135.0077  156.6468 LP  0  0  0  0  0  0  0  0  0  0  0  0  # atno 17395 bound_to 11000

$$$$
