AV-unprocessed.smi:72|AV-procd|sdf|696|dock1
  -GOLD-   2262017 13D 1   1.00000     0.00000
 Structure written by MMmdl.
 30 31  0  0  0  0  0  0  0  0  2 V2000
  147.1064  139.3300  152.1558 N   0  0  0  0  0  0  0  0  0  0  0  0
  146.3358  138.1879  152.0927 C   0  0  0  0  0  0  0  0  0  0  0  0
  146.5288  137.3400  151.0166 N   0  3  0  0  0  0  0  0  0  0  0  0
  145.8615  136.1971  150.8067 C   0  0  0  0  0  0  0  0  0  0  0  0
  144.9421  135.8246  151.6736 N   0  0  0  0  0  0  0  0  0  0  0  0
  144.1682  134.5405  151.5026 C   0  0  1  0  0  0  0  0  0  0  0  0
  143.8707  134.3820  150.1470 O   0  0  0  0  0  0  0  0  0  0  0  0
  144.6359  133.3142  149.5928 C   0  0  2  0  0  0  0  0  0  0  0  0
  143.9053  132.7322  148.3735 C   0  0  0  0  0  0  0  0  0  0  0  0
  143.6714  133.7505  147.4243 O   0  0  0  0  0  0  0  0  0  0  0  0
  144.7273  132.3511  150.7754 C   0  0  1  0  0  0  0  0  0  0  0  0
  145.7409  131.3745  150.6264 O   0  0  0  0  0  0  0  0  0  0  0  0
  144.9673  133.2952  151.9480 C   0  0  1  0  0  0  0  0  0  0  0  0
  146.3502  133.5549  152.1455 O   0  0  0  0  0  0  0  0  0  0  0  0
  144.6829  136.6223  152.8174 C   0  0  0  0  0  0  0  0  0  0  0  0
  143.8438  136.2697  153.6457 O   0  0  0  0  0  0  0  0  0  0  0  0
  145.4277  137.8036  152.9467 N   0  0  0  0  0  0  0  0  0  0  0  0
  143.2264  134.6737  152.0375 H   0  0  0  0  0  0  0  0  0  0  0  0
  145.6361  133.6605  149.3261 H   0  0  0  0  0  0  0  0  0  0  0  0
  143.7681  131.8478  150.9089 H   0  0  0  0  0  0  0  0  0  0  0  0
  144.5501  132.9008  152.8753 H   0  0  0  0  0  0  0  0  0  0  0  0
  147.0339  140.0044  152.9047 H   0  0  0  0  0  0  0  0  0  0  0  0
  147.8035  139.5795  151.4691 H   0  0  0  0  0  0  0  0  0  0  0  0
  146.0912  135.6035  149.9324 H   0  0  0  0  0  0  0  0  0  0  0  0
  144.5216  131.9717  147.8931 H   0  0  0  0  0  0  0  0  0  0  0  0
  142.9675  132.2561  148.6607 H   0  0  0  0  0  0  0  0  0  0  0  0
  144.4530  134.2768  147.3497 H   0  0  0  0  0  0  0  0  0  0  0  0
  146.5276  131.8006  150.3219 H   0  0  0  0  0  0  0  0  0  0  0  0
  146.5952  134.2945  151.6097 H   0  0  0  0  0  0  0  0  0  0  0  0
  147.2288  137.6050  150.3385 H   0  0  0  0  0  0  0  0  0  0  0  0
  1  2  1  0  0  0  0
  1 22  1  0  0  0  0
  1 23  1  0  0  0  0
  2 17  2  0  0  0  0
  2  3  1  0  0  0  0
  3  4  2  0  0  0  0
  3 30  1  0  0  0  0
  4  5  1  0  0  0  0
  4 24  1  0  0  0  0
  5  6  1  0  0  0  0
  5 15  1  0  0  0  0
  6 18  1  0  0  0  0
  6 13  1  0  0  0  0
  6  7  1  0  0  0  0
  7  8  1  0  0  0  0
  8 19  1  0  0  0  0
  8  9  1  0  0  0  0
  8 11  1  0  0  0  0
  9 10  1  0  0  0  0
  9 25  1  0  0  0  0
  9 26  1  0  0  0  0
 10 27  1  0  0  0  0
 11 20  1  0  0  0  0
 11 12  1  0  0  0  0
 11 13  1  0  0  0  0
 12 28  1  0  0  0  0
 13 21  1  0  0  0  0
 13 14  1  0  0  0  0
 14 29  1  0  0  0  0
 15 16  2  0  0  0  0
 15 17  1  0  0  0  0
M  CHG  1   3   1
M  END
> <s_m_source_file>
AV-unprocessed.smi

> <i_m_source_file_index>
72

> <i_lp_mmshare_version>
43012

> <i_f3d_flags>
0

> <s_epik_input>
W05IMl1jMW5bY0hdbihjKD1PKW4xKVtDQEBIXTJPW0NASF0oW0NIMl1bT0hdKVtDQEBIXShbT0hdKVtDQEhdMltPSF0=

> <s_epik_cmdline>
J2VwaWtfcHl0aG9uJywgJy1waCcsICc3LjAnLCAnLXRuJywgJzgnLCAnLW1hJywgJzIwMCcsICctbWV0YWxfYmluZGluZycsICctaW1hZScsICc8aW5maWxlLm1hZT4nLCAnLW9tYWUnLCAnPG91dGZpbGUubWFlPic=

> <r_lp_tautomer_probability>
4.77166e-05

> <r_epik_Ionization_Penalty>
0.104979

> <r_epik_Ionization_Penalty_Charging>
0.0999619

> <r_epik_Ionization_Penalty_Neutral>
0.00501745

> <r_epik_State_Penalty>
2.51541

> <r_epik_Charging_Adjusted_Penalty>
2.61537

> <i_epik_Tot_Q>
1

> <i_epik_Tot_abs_Q>
1

> <r_epik_Metal_State_Penalty>
3.53763

> <b_epik_Metal_Only>
0

> <s_epik_Chemistry_Notes>
This compound contains an acetal/aminal-like group ( X-CH(R)-Y where X, Y are N, S, or O) that may be acid/base labile, releasing an aldehyde.

> <s_lp_Force_Field>
OPLS_2005

> <r_lp_Energy>
36.6563

> <b_lp_Chiralities_Consistent>
1

> <s_lp_Variant>
AV-unprocessed.smi:72-34

> <Gold.Version>
5.8.1

> <Gold.Id.Protein>
6NUR|6NUR_protein|mol2

> <Gold.PLP.Fitness>
39.8183

> <Gold.PLP.PLP>
-29.2194

> <Gold.PLP.part.hbond>
-6.8154

> <Gold.PLP.part.metal>
0.0000

> <Gold.PLP.part.buried>
-4.8374

> <Gold.PLP.part.nonpolar>
-20.5623

> <Gold.PLP.part.repulsive>
2.5577

> <Gold.PLP.ligand.clash>
0.0000

> <Gold.PLP.ligand.torsion>
0.6095

> <Gold.PLP.Chemscore.Hbond>
2.8960

> <Gold.PLP.Chemscore.CHOScore>
1.0000

> <Gold.PLP.Chemscore.Metal>
0.0000

> <Gold.Chemscore.Hbonds>
donor molecule, donor type, donor heavy atom, donor atom, acceptor molecule, acceptor atom, score
      L1  H     1    23       P1  7957  0.96
      L1  H    10    27       P1  7921  1.00
      P1  H 10192 10197       L1    10  0.62
      L1  C     4    24       P1  7921  1.00

> <Gold.PLP.Chemscore.Internal.Correction>
0.1300

> <Gold.Rescore>
     Score         DG    S(hbond)    S(metal)    S(lipo)     H(rot)  DE(clash)    DE(int)     intcor
      6.04      -9.08       2.94        0.00      36.13       4.08       1.48       1.55       ----

> <Gold.Chemscore.Fitness>
6.0438

> <Gold.Chemscore.DG>
-9.0813

> <Gold.Chemscore.ZeroCoef>
-5.4800

> <Gold.Chemscore.Hbond>
2.9384

> <Gold.Chemscore.Metal>
0.0000

> <Gold.Chemscore.Lipo>
36.1336

> <Gold.Chemscore.Internal_Hbond>
0.0000

> <Gold.Chemscore.DEClash>
1.4830

> <Gold.Chemscore.DEInternal>
1.5545

> <Gold.Chemscore.Rot>
4.0783

> <Gold.Chemscore.Internal.Correction>
   9.000000E+99

> <Gold.Chemscore.Hbonds>
donor molecule, donor type, donor heavy atom, donor atom, acceptor molecule, acceptor atom, score
      L1  H     1    23       P1  7957  0.91
      L1  H    10    27       P1  7921  1.00
      P1  H 10192 10197       L1    10  0.30

> <Gold.Chemscore.Hbond.Weighted>
-9.8141

> <Gold.Chemscore.Metal.Weighted>
-0.0000

> <Gold.Chemscore.Lipo.Weighted>
-4.2276

> <Gold.Chemscore.Internal_Hbond.Weighted>
0.0000

> <Gold.Chemscore.DEClash.Weighted>
1.4830

> <Gold.Chemscore.DEInternal.Weighted>
1.5545

> <Gold.Chemscore.Rot.Weighted>
10.4404

> <Gold.Chemscore.Internal.Correction.Weighted>
   9.000000E+99

> <Gold.Protein.RotatedTorsions>
[ 6907 6896 6895 6894 ] final  169.26 input  -60.11 | X-H torsion
[ 7974 7965 7964 7962 ] final  -55.73 input  175.53 | X-H torsion
[ 8008 7997 7996 7995 ] final   80.89 input   59.86 | X-H torsion
[ 10167 10162 10161 10158 ] final -125.93 input  -65.29 | X-H torsion
[ 10718 10713 10712 10709 ] final  -71.45 input   66.30 | X-H torsion
[ 10763 10752 10751 10750 ] final  -43.38 input  -60.55 | X-H torsion
[ 11005 11000 10999 10996 ] final  -52.93 input  -57.11 | X-H torsion

> <Gold.Protein.ActiveResidues>
 VAL166  LYS551  ARG553  GLY616  TRP617  ASP618  TYR619  PRO620  LYS621  CYS622 
 ASP623  PHE694  ASN695  SER759  ASP760  ASP761  ALA762  ILE779  LEU786  VAL792 
 PHE793  MET794  SER795  GLU796  ALA797  LYS798  CYS799  TRP800  GLU811  SER814 

> <Gold.Protein.RotatedAtoms>
  151.8347  133.3414  159.3624 H   0  0  0  0  0  0  0  0  0  0  0  0  # atno 6907 bound_to 6896
  150.7253  134.5449  159.5775 H   0  0  0  0  0  0  0  0  0  0  0  0  # atno 6908 bound_to 6896
  152.2910  134.7722  160.0429 H   0  0  0  0  0  0  0  0  0  0  0  0  # atno 6909 bound_to 6896
  145.8708  140.8217  142.9889 H   0  0  0  0  0  0  0  0  0  0  0  0  # atno 7974 bound_to 7965
  155.8896  140.3439  155.5946 H   0  0  0  0  0  0  0  0  0  0  0  0  # atno 8008 bound_to 7997
  155.7626  140.0834  157.2167 H   0  0  0  0  0  0  0  0  0  0  0  0  # atno 8009 bound_to 7997
  154.4032  140.1533  156.2837 H   0  0  0  0  0  0  0  0  0  0  0  0  # atno 8010 bound_to 7997
  139.9769  143.5784  152.2392 H   0  0  0  0  0  0  0  0  0  0  0  0  # atno 10167 bound_to 10162
  156.0362  130.4351  150.2445 H   0  0  0  0  0  0  0  0  0  0  0  0  # atno 10718 bound_to 10713
  153.9946  135.6701  153.4756 H   0  0  0  0  0  0  0  0  0  0  0  0  # atno 10763 bound_to 10752
  153.0689  135.4985  154.8258 H   0  0  0  0  0  0  0  0  0  0  0  0  # atno 10764 bound_to 10752
  154.7089  135.3093  154.9191 H   0  0  0  0  0  0  0  0  0  0  0  0  # atno 10765 bound_to 10752
  141.0950  133.6626  156.4096 H   0  0  0  0  0  0  0  0  0  0  0  0  # atno 11005 bound_to 11000
  144.6726  140.1236  143.7448 LP  0  0  0  0  0  0  0  0  0  0  0  0  # atno 17320 bound_to 7965
  145.9139  139.2504  143.1421 LP  0  0  0  0  0  0  0  0  0  0  0  0  # atno 17321 bound_to 7965
  139.6439  144.7657  151.2284 LP  0  0  0  0  0  0  0  0  0  0  0  0  # atno 17342 bound_to 10162
  140.7503  143.6272  150.8457 LP  0  0  0  0  0  0  0  0  0  0  0  0  # atno 17343 bound_to 10162
  157.0544  131.0072  151.3243 LP  0  0  0  0  0  0  0  0  0  0  0  0  # atno 17370 bound_to 10713
  157.5117  130.7942  149.7712 LP  0  0  0  0  0  0  0  0  0  0  0  0  # atno 17371 bound_to 10713
  140.5162  134.6347  157.5302 LP  0  0  0  0  0  0  0  0  0  0  0  0  # atno 17394 bound_to 11000
  139.9784  134.7177  155.9906 LP  0  0  0  0  0  0  0  0  0  0  0  0  # atno 17395 bound_to 11000

$$$$
