AV-unprocessed.smi:1289|AV-procd|sdf|5385|dock7
  -GOLD-   22720 4533D 1   1.00000     0.00000
 Structure written by MMmdl.
 37 39  0  0  0  0  0  0  0  0  1 V2000
  142.9449  144.8367  154.8537 N   0  0  0  0  0  0  0  0  0  0  0  0
  143.9232  144.2190  154.8682 C   0  0  0  0  0  0  0  0  0  0  0  0
  145.1521  143.4432  154.8868 C   0  0  0  0  0  0  0  0  0  0  0  0
  145.8658  143.2196  153.6932 C   0  0  0  0  0  0  0  0  0  0  0  0
  147.0579  142.4704  153.7149 C   0  0  0  0  0  0  0  0  0  0  0  0
  147.5546  141.9367  154.9217 C   0  0  0  0  0  0  0  0  0  0  0  0
  148.7292  141.2191  154.8504 O   0  0  0  0  0  0  0  0  0  0  0  0
  149.3515  140.8202  156.0655 C   0  0  0  0  0  0  0  0  0  0  0  0
  150.8794  140.9331  155.9368 C   0  0  2  0  0  0  0  0  0  0  0  0
  151.3271  140.0671  154.9125 O   0  0  0  0  0  0  0  0  0  0  0  0
  151.6333  140.6838  157.2576 C   0  0  0  0  0  0  0  0  0  0  0  0
  151.4657  141.7748  158.2004 N   0  0  0  0  0  0  0  0  0  0  0  0
  150.7371  142.8933  158.0208 C   0  0  0  0  0  0  0  0  0  0  0  0
  150.7195  143.7757  159.0157 N   0  0  0  0  0  0  0  0  0  0  0  0
  151.5299  143.1570  159.9521 C   0  0  0  0  0  0  0  0  0  0  0  0
  151.9234  143.5755  161.2434 C   0  0  0  0  0  0  0  0  0  0  0  0
  152.7698  142.7662  162.0297 C   0  0  0  0  0  0  0  0  0  0  0  0
  153.2362  141.5296  161.5379 C   0  0  0  0  0  0  0  0  0  0  0  0
  152.8587  141.0920  160.2536 C   0  0  0  0  0  0  0  0  0  0  0  0
  152.0129  141.9017  159.4729 C   0  0  0  0  0  0  0  0  0  0  0  0
  146.8294  142.1640  156.1188 C   0  0  0  0  0  0  0  0  0  0  0  0
  145.6360  142.9123  156.0990 C   0  0  0  0  0  0  0  0  0  0  0  0
  145.5058  143.6206  152.7566 H   0  0  0  0  0  0  0  0  0  0  0  0
  147.5990  142.3054  152.7947 H   0  0  0  0  0  0  0  0  0  0  0  0
  148.9973  141.4210  156.9052 H   0  0  0  0  0  0  0  0  0  0  0  0
  149.0945  139.7797  156.2702 H   0  0  0  0  0  0  0  0  0  0  0  0
  151.1061  141.9443  155.5965 H   0  0  0  0  0  0  0  0  0  0  0  0
  151.0070  139.1967  155.0948 H   0  0  0  0  0  0  0  0  0  0  0  0
  151.2729  139.7676  157.7275 H   0  0  0  0  0  0  0  0  0  0  0  0
  152.6996  140.5425  157.0768 H   0  0  0  0  0  0  0  0  0  0  0  0
  150.1910  143.0704  157.1058 H   0  0  0  0  0  0  0  0  0  0  0  0
  151.5737  144.5216  161.6295 H   0  0  0  0  0  0  0  0  0  0  0  0
  153.0637  143.0963  163.0154 H   0  0  0  0  0  0  0  0  0  0  0  0
  153.8847  140.9170  162.1468 H   0  0  0  0  0  0  0  0  0  0  0  0
  153.2160  140.1467  159.8727 H   0  0  0  0  0  0  0  0  0  0  0  0
  147.1670  141.7745  157.0670 H   0  0  0  0  0  0  0  0  0  0  0  0
  145.0960  143.0759  157.0207 H   0  0  0  0  0  0  0  0  0  0  0  0
  1  2  3  0  0  0  0
  2  3  1  0  0  0  0
  3 22  1  0  0  0  0
  3  4  2  0  0  0  0
  4  5  1  0  0  0  0
  4 23  1  0  0  0  0
  5  6  2  0  0  0  0
  5 24  1  0  0  0  0
  6  7  1  0  0  0  0
  6 21  1  0  0  0  0
  7  8  1  0  0  0  0
  8  9  1  0  0  0  0
  8 25  1  0  0  0  0
  8 26  1  0  0  0  0
  9 10  1  0  0  0  0
  9 11  1  0  0  0  0
  9 27  1  0  0  0  0
 10 28  1  0  0  0  0
 11 12  1  0  0  0  0
 11 29  1  0  0  0  0
 11 30  1  0  0  0  0
 12 20  1  0  0  0  0
 12 13  1  0  0  0  0
 13 14  2  0  0  0  0
 13 31  1  0  0  0  0
 14 15  1  0  0  0  0
 15 20  2  0  0  0  0
 15 16  1  0  0  0  0
 16 17  2  0  0  0  0
 16 32  1  0  0  0  0
 17 18  1  0  0  0  0
 17 33  1  0  0  0  0
 18 19  2  0  0  0  0
 18 34  1  0  0  0  0
 19 20  1  0  0  0  0
 19 35  1  0  0  0  0
 21 22  2  0  0  0  0
 21 36  1  0  0  0  0
 22 37  1  0  0  0  0
M  END
> <s_m_source_file>
AV-unprocessed.smi

> <i_m_source_file_index>
1289

> <i_lp_mmshare_version>
43012

> <i_f3d_flags>
0

> <s_epik_input>
TiNDYzFbY0hdW2NIXWMoW2NIXVtjSF0xKU9bQ0gyXVtDQEhdKFtPSF0pW0NIMl1uKFtjSF1uMiljKGMyMylbY0hdW2NIXVtjSF1bY0hdMw==

> <s_epik_cmdline>
J2VwaWtfcHl0aG9uJywgJy1waCcsICc3LjAnLCAnLXRuJywgJzgnLCAnLW1hJywgJzIwMCcsICctbWV0YWxfYmluZGluZycsICctaW1hZScsICc8aW5maWxlLm1hZT4nLCAnLW9tYWUnLCAnPG91dGZpbGUubWFlPic=

> <r_epik_Ionization_Penalty>
0.0590811

> <r_epik_Ionization_Penalty_Charging>
0

> <r_epik_Ionization_Penalty_Neutral>
0.0590811

> <r_epik_State_Penalty>
0.0511328

> <r_epik_Charging_Adjusted_Penalty>
0.0511328

> <i_epik_Tot_Q>
0

> <i_epik_Tot_abs_Q>
0

> <r_epik_Metal_State_Penalty>
5.34017e-05

> <b_epik_Metal_Only>
0

> <s_lp_Force_Field>
OPLS_2005

> <r_lp_Energy>
15.8446

> <b_lp_Chiralities_Consistent>
1

> <s_lp_Variant>
AV-unprocessed.smi:1289-1

> <Gold.Version>
5.8.1

> <Gold.Id.Protein>
6NUR|6NUR_protein|mol2

> <Gold.PLP.Fitness>
52.9119

> <Gold.PLP.PLP>
-47.7130

> <Gold.PLP.part.hbond>
-1.0000

> <Gold.PLP.part.metal>
0.0000

> <Gold.PLP.part.buried>
-6.8854

> <Gold.PLP.part.nonpolar>
-39.1220

> <Gold.PLP.part.repulsive>
0.3018

> <Gold.PLP.ligand.clash>
0.0000

> <Gold.PLP.ligand.torsion>
0.4394

> <Gold.PLP.Chemscore.Hbond>
1.0000

> <Gold.PLP.Chemscore.CHOScore>
1.0000

> <Gold.PLP.Chemscore.Metal>
0.0000

> <Gold.Chemscore.Hbonds>
donor molecule, donor type, donor heavy atom, donor atom, acceptor molecule, acceptor atom, score
      P1  H  7989  7998       L1    10  1.00
      L1  C    13    31       P1  8028  0.96

> <Gold.PLP.Chemscore.Internal.Correction>
0.0778

> <Gold.Rescore>
     Score         DG    S(hbond)    S(metal)    S(lipo)     H(rot)  DE(clash)    DE(int)     intcor
     14.79     -15.12       0.93        0.00     110.33       2.50       0.02       0.31       ----

> <Gold.Chemscore.Fitness>
14.7939

> <Gold.Chemscore.DG>
-15.1220

> <Gold.Chemscore.ZeroCoef>
-5.4800

> <Gold.Chemscore.Hbond>
0.9345

> <Gold.Chemscore.Metal>
0.0000

> <Gold.Chemscore.Lipo>
110.3335

> <Gold.Chemscore.Internal_Hbond>
0.0000

> <Gold.Chemscore.DEClash>
0.0207

> <Gold.Chemscore.DEInternal>
0.3074

> <Gold.Chemscore.Rot>
2.4954

> <Gold.Chemscore.Internal.Correction>
   9.000000E+99

> <Gold.Chemscore.Hbonds>
donor molecule, donor type, donor heavy atom, donor atom, acceptor molecule, acceptor atom, score
      P1  H  7989  7998       L1    10  0.82

> <Gold.Chemscore.Hbond.Weighted>
-3.1213

> <Gold.Chemscore.Metal.Weighted>
-0.0000

> <Gold.Chemscore.Lipo.Weighted>
-12.9090

> <Gold.Chemscore.Internal_Hbond.Weighted>
0.0000

> <Gold.Chemscore.DEClash.Weighted>
0.0207

> <Gold.Chemscore.DEInternal.Weighted>
0.3074

> <Gold.Chemscore.Rot.Weighted>
6.3883

> <Gold.Chemscore.Internal.Correction.Weighted>
   9.000000E+99

> <Gold.Protein.RotatedTorsions>
[ 6907 6896 6895 6894 ] final -119.15 input  -60.11 | X-H torsion
[ 7974 7965 7964 7962 ] final   76.84 input  175.53 | X-H torsion
[ 8008 7997 7996 7995 ] final   75.52 input   59.86 | X-H torsion
[ 10167 10162 10161 10158 ] final   46.37 input  -65.29 | X-H torsion
[ 10718 10713 10712 10709 ] final -114.07 input   66.30 | X-H torsion
[ 10763 10752 10751 10750 ] final  -18.12 input  -60.55 | X-H torsion
[ 11005 11000 10999 10996 ] final -128.54 input  -57.11 | X-H torsion

> <Gold.Protein.ActiveResidues>
 VAL166  LYS551  ARG553  GLY616  TRP617  ASP618  TYR619  PRO620  LYS621  CYS622 
 ASP623  PHE694  ASN695  SER759  ASP760  ASP761  ALA762  ILE779  LEU786  VAL792 
 PHE793  MET794  SER795  GLU796  ALA797  LYS798  CYS799  TRP800  GLU811  SER814 

> <Gold.Protein.RotatedAtoms>
  150.8281  133.8138  159.3110 H   0  0  0  0  0  0  0  0  0  0  0  0  # atno 6907 bound_to 6896
  151.5876  135.1053  160.0041 H   0  0  0  0  0  0  0  0  0  0  0  0  # atno 6908 bound_to 6896
  152.4363  133.7326  159.6652 H   0  0  0  0  0  0  0  0  0  0  0  0  # atno 6909 bound_to 6896
  145.6977  139.2572  143.1723 H   0  0  0  0  0  0  0  0  0  0  0  0  # atno 7974 bound_to 7965
  155.8141  140.3472  155.5475 H   0  0  0  0  0  0  0  0  0  0  0  0  # atno 8008 bound_to 7997
  155.8410  140.0941  157.1754 H   0  0  0  0  0  0  0  0  0  0  0  0  # atno 8009 bound_to 7997
  154.4005  140.1394  156.3716 H   0  0  0  0  0  0  0  0  0  0  0  0  # atno 8010 bound_to 7997
  140.3146  144.2779  150.6193 H   0  0  0  0  0  0  0  0  0  0  0  0  # atno 10167 bound_to 10162
  156.0806  130.6007  150.8726 H   0  0  0  0  0  0  0  0  0  0  0  0  # atno 10718 bound_to 10713
  153.5844  135.7004  153.5449 H   0  0  0  0  0  0  0  0  0  0  0  0  # atno 10763 bound_to 10752
  153.3233  135.4068  155.1434 H   0  0  0  0  0  0  0  0  0  0  0  0  # atno 10764 bound_to 10752
  154.8612  135.3701  154.5373 H   0  0  0  0  0  0  0  0  0  0  0  0  # atno 10765 bound_to 10752
  140.9507  134.1069  157.4064 H   0  0  0  0  0  0  0  0  0  0  0  0  # atno 11005 bound_to 11000
  146.0826  140.7747  142.9634 LP  0  0  0  0  0  0  0  0  0  0  0  0  # atno 17320 bound_to 7965
  144.6978  140.3512  143.7181 LP  0  0  0  0  0  0  0  0  0  0  0  0  # atno 17321 bound_to 7965
  140.5538  143.2202  151.7882 LP  0  0  0  0  0  0  0  0  0  0  0  0  # atno 17342 bound_to 10162
  139.4886  144.4441  151.9730 LP  0  0  0  0  0  0  0  0  0  0  0  0  # atno 17343 bound_to 10162
  157.5921  131.0944  150.9101 LP  0  0  0  0  0  0  0  0  0  0  0  0  # atno 17370 bound_to 10713
  156.9274  130.5337  149.5279 LP  0  0  0  0  0  0  0  0  0  0  0  0  # atno 17371 bound_to 10713
  139.8847  135.0065  156.6384 LP  0  0  0  0  0  0  0  0  0  0  0  0  # atno 17394 bound_to 11000
  140.7606  133.8820  155.8415 LP  0  0  0  0  0  0  0  0  0  0  0  0  # atno 17395 bound_to 11000

$$$$
