AV-unprocessed.smi:2801|AV-procd|sdf|10799|dock8
  -GOLD-   2272015233D 1   1.00000     0.00000
 Structure written by MMmdl.
 32 32  0  0  0  0  0  0  0  0  1 V2000
  153.0370  138.6057  154.7515 C   0  0  0  0  0  0  0  0  0  0  0  0
  151.5143  138.4595  154.7914 C   0  0  0  0  0  0  0  0  0  0  0  0
  150.9280  139.7022  154.4238 O   0  0  0  0  0  0  0  0  0  0  0  0
  149.8170  140.1133  155.2177 C   0  0  2  0  0  0  0  0  0  0  0  0
  149.1471  141.3073  154.5116 C   0  0  0  0  0  0  0  0  0  0  0  0
  147.8266  141.7237  155.1715 C   0  0  0  0  0  0  0  0  0  0  0  0
  150.2902  140.4974  156.6295 C   0  0  0  0  0  0  0  0  0  0  0  0
  150.0097  139.7696  157.5814 O   0  0  0  0  0  0  0  0  0  0  0  0
  150.9695  141.6559  156.7204 N   0  0  0  0  0  0  0  0  0  0  0  0
  151.5397  142.2838  157.8640 C   0  0  0  0  0  0  0  0  0  0  0  0
  151.9372  141.5901  159.0331 C   0  0  0  0  0  0  0  0  0  0  0  0
  152.5074  142.3213  160.0940 C   0  0  0  0  0  0  0  0  0  0  0  0
  152.7049  143.6554  160.0573 N   0  0  0  0  0  0  0  0  0  0  0  0
  152.3381  144.3133  158.9384 C   0  0  0  0  0  0  0  0  0  0  0  0
  151.7588  143.6804  157.8193 C   0  0  0  0  0  0  0  0  0  0  0  0
  151.4204  144.4195  156.7204 O   0  0  0  0  0  0  0  0  0  0  0  0
  153.5254  137.6700  155.0237 H   0  0  0  0  0  0  0  0  0  0  0  0
  153.3747  139.3737  155.4477 H   0  0  0  0  0  0  0  0  0  0  0  0
  153.3773  138.8840  153.7538 H   0  0  0  0  0  0  0  0  0  0  0  0
  151.1998  137.6781  154.0981 H   0  0  0  0  0  0  0  0  0  0  0  0
  151.2044  138.1570  155.7922 H   0  0  0  0  0  0  0  0  0  0  0  0
  149.0932  139.2983  155.2836 H   0  0  0  0  0  0  0  0  0  0  0  0
  149.8221  142.1645  154.5173 H   0  0  0  0  0  0  0  0  0  0  0  0
  148.9655  141.0679  153.4629 H   0  0  0  0  0  0  0  0  0  0  0  0
  147.3866  142.5769  154.6552 H   0  0  0  0  0  0  0  0  0  0  0  0
  147.9788  142.0081  156.2130 H   0  0  0  0  0  0  0  0  0  0  0  0
  147.0999  140.9113  155.1485 H   0  0  0  0  0  0  0  0  0  0  0  0
  151.0519  142.1829  155.8630 H   0  0  0  0  0  0  0  0  0  0  0  0
  151.8318  140.5220  159.1370 H   0  0  0  0  0  0  0  0  0  0  0  0
  152.8194  141.8174  160.9967 H   0  0  0  0  0  0  0  0  0  0  0  0
  152.5152  145.3787  158.9345 H   0  0  0  0  0  0  0  0  0  0  0  0
  150.4876  144.5472  156.6351 H   0  0  0  0  0  0  0  0  0  0  0  0
  1  2  1  0  0  0  0
  1 17  1  0  0  0  0
  1 18  1  0  0  0  0
  1 19  1  0  0  0  0
  2  3  1  0  0  0  0
  2 20  1  0  0  0  0
  2 21  1  0  0  0  0
  3  4  1  0  0  0  0
  4  5  1  0  0  0  0
  4  7  1  0  0  0  0
  4 22  1  0  0  0  0
  5  6  1  0  0  0  0
  5 23  1  0  0  0  0
  5 24  1  0  0  0  0
  6 25  1  0  0  0  0
  6 26  1  0  0  0  0
  6 27  1  0  0  0  0
  7  8  2  0  0  0  0
  7  9  1  0  0  0  0
  9 10  1  0  0  0  0
  9 28  1  0  0  0  0
 10 15  1  0  0  0  0
 10 11  2  0  0  0  0
 11 12  1  0  0  0  0
 11 29  1  0  0  0  0
 12 13  2  0  0  0  0
 12 30  1  0  0  0  0
 13 14  1  0  0  0  0
 14 15  2  0  0  0  0
 14 31  1  0  0  0  0
 15 16  1  0  0  0  0
 16 32  1  0  0  0  0
M  END
> <s_m_source_file>
AV-unprocessed.smi

> <i_m_source_file_index>
2801

> <i_lp_mmshare_version>
43012

> <i_f3d_flags>
0

> <s_epik_input>
W0NIM11bQ0gyXU9bQ0BIXShbQ0gyXVtDSDNdKUMoPU8pW05IXWMxW2NIXVtjSF1uW2NIXWMxW09IXQ==

> <s_epik_cmdline>
J2VwaWtfcHl0aG9uJywgJy1waCcsICc3LjAnLCAnLXRuJywgJzgnLCAnLW1hJywgJzIwMCcsICctbWV0YWxfYmluZGluZycsICctaW1hZScsICc8aW5maWxlLm1hZT4nLCAnLW9tYWUnLCAnPG91dGZpbGUubWFlPic=

> <r_lp_tautomer_probability>
0.43658

> <r_epik_Ionization_Penalty>
0.0250035

> <r_epik_Ionization_Penalty_Charging>
0

> <r_epik_Ionization_Penalty_Neutral>
0.0250035

> <r_epik_State_Penalty>
0.520524

> <r_epik_Charging_Adjusted_Penalty>
0.520524

> <i_epik_Tot_Q>
0

> <i_epik_Tot_abs_Q>
0

> <r_epik_Metal_State_Penalty>
0.772586

> <b_epik_Metal_Only>
0

> <s_lp_Force_Field>
OPLS_2005

> <r_lp_Energy>
11.8743

> <b_lp_Chiralities_Consistent>
1

> <s_lp_Variant>
AV-unprocessed.smi:2801-3

> <Gold.Version>
5.8.1

> <Gold.Id.Protein>
6NUR|6NUR_protein|mol2

> <Gold.PLP.Fitness>
39.9236

> <Gold.PLP.PLP>
-35.4571

> <Gold.PLP.part.hbond>
-2.0000

> <Gold.PLP.part.metal>
0.0000

> <Gold.PLP.part.buried>
-4.0753

> <Gold.PLP.part.nonpolar>
-29.2084

> <Gold.PLP.part.repulsive>
0.2050

> <Gold.PLP.ligand.clash>
0.0000

> <Gold.PLP.ligand.torsion>
0.7729

> <Gold.PLP.Chemscore.Hbond>
2.0000

> <Gold.PLP.Chemscore.CHOScore>
0.0000

> <Gold.PLP.Chemscore.Metal>
0.0000

> <Gold.Chemscore.Hbonds>
donor molecule, donor type, donor heavy atom, donor atom, acceptor molecule, acceptor atom, score
      L1  H    16    32       P1  8028  1.00
      P1  H  7989  7998       L1     3  1.00

> <Gold.PLP.Chemscore.Internal.Correction>
0.0123

> <Gold.Rescore>
     Score         DG    S(hbond)    S(metal)    S(lipo)     H(rot)  DE(clash)    DE(int)     intcor
     15.16     -16.89       1.94        0.00      88.34       2.11       0.03       1.69       ----

> <Gold.Chemscore.Fitness>
15.1644

> <Gold.Chemscore.DG>
-16.8861

> <Gold.Chemscore.ZeroCoef>
-5.4800

> <Gold.Chemscore.Hbond>
1.9398

> <Gold.Chemscore.Metal>
0.0000

> <Gold.Chemscore.Lipo>
88.3437

> <Gold.Chemscore.Internal_Hbond>
0.0000

> <Gold.Chemscore.DEClash>
0.0318

> <Gold.Chemscore.DEInternal>
1.6899

> <Gold.Chemscore.Rot>
2.1129

> <Gold.Chemscore.Internal.Correction>
   9.000000E+99

> <Gold.Chemscore.Hbonds>
donor molecule, donor type, donor heavy atom, donor atom, acceptor molecule, acceptor atom, score
      L1  H    16    32       P1  8028  0.93
      P1  H  7989  7998       L1     3  0.94

> <Gold.Chemscore.Hbond.Weighted>
-6.4788

> <Gold.Chemscore.Metal.Weighted>
-0.0000

> <Gold.Chemscore.Lipo.Weighted>
-10.3362

> <Gold.Chemscore.Internal_Hbond.Weighted>
0.0000

> <Gold.Chemscore.DEClash.Weighted>
0.0318

> <Gold.Chemscore.DEInternal.Weighted>
1.6899

> <Gold.Chemscore.Rot.Weighted>
5.4089

> <Gold.Chemscore.Internal.Correction.Weighted>
   9.000000E+99

> <Gold.Protein.RotatedTorsions>
[ 6907 6896 6895 6894 ] final -131.30 input  -60.11 | X-H torsion
[ 7974 7965 7964 7962 ] final   96.74 input  175.53 | X-H torsion
[ 8008 7997 7996 7995 ] final   78.94 input   59.86 | X-H torsion
[ 10167 10162 10161 10158 ] final  -52.32 input  -65.29 | X-H torsion
[ 10718 10713 10712 10709 ] final   68.50 input   66.30 | X-H torsion
[ 10763 10752 10751 10750 ] final  -88.26 input  -60.55 | X-H torsion
[ 11005 11000 10999 10996 ] final  165.09 input  -57.11 | X-H torsion

> <Gold.Protein.ActiveResidues>
 VAL166  LYS551  ARG553  GLY616  TRP617  ASP618  TYR619  PRO620  LYS621  CYS622 
 ASP623  PHE694  ASN695  SER759  ASP760  ASP761  ALA762  ILE779  LEU786  VAL792 
 PHE793  MET794  SER795  GLU796  ALA797  LYS798  CYS799  TRP800  GLU811  SER814 

> <Gold.Protein.RotatedAtoms>
  150.9495  133.6566  159.2774 H   0  0  0  0  0  0  0  0  0  0  0  0  # atno 6907 bound_to 6896
  151.3927  135.0957  159.9541 H   0  0  0  0  0  0  0  0  0  0  0  0  # atno 6908 bound_to 6896
  152.5104  133.9005  159.7493 H   0  0  0  0  0  0  0  0  0  0  0  0  # atno 6909 bound_to 6896
  145.4348  139.2307  143.3124 H   0  0  0  0  0  0  0  0  0  0  0  0  # atno 7974 bound_to 7965
  155.8628  140.3453  155.5768 H   0  0  0  0  0  0  0  0  0  0  0  0  # atno 8008 bound_to 7997
  155.7914  140.0872  157.2026 H   0  0  0  0  0  0  0  0  0  0  0  0  # atno 8009 bound_to 7997
  154.4012  140.1482  156.3155 H   0  0  0  0  0  0  0  0  0  0  0  0  # atno 8010 bound_to 7997
  140.6543  143.2588  151.4631 H   0  0  0  0  0  0  0  0  0  0  0  0  # atno 10167 bound_to 10162
  157.6293  130.9377  150.0386 H   0  0  0  0  0  0  0  0  0  0  0  0  # atno 10718 bound_to 10713
  154.6427  135.5383  153.7808 H   0  0  0  0  0  0  0  0  0  0  0  0  # atno 10763 bound_to 10752
  153.0342  135.6463  154.1136 H   0  0  0  0  0  0  0  0  0  0  0  0  # atno 10764 bound_to 10752
  154.1059  135.2930  155.3221 H   0  0  0  0  0  0  0  0  0  0  0  0  # atno 10765 bound_to 10752
  140.2526  134.7965  157.3516 H   0  0  0  0  0  0  0  0  0  0  0  0  # atno 11005 bound_to 11000
  146.2588  140.5090  142.8862 LP  0  0  0  0  0  0  0  0  0  0  0  0  # atno 17320 bound_to 7965
  144.8159  140.6467  143.6384 LP  0  0  0  0  0  0  0  0  0  0  0  0  # atno 17321 bound_to 7965
  139.5763  144.1811  152.1908 LP  0  0  0  0  0  0  0  0  0  0  0  0  # atno 17342 bound_to 10162
  140.1123  144.5446  150.6917 LP  0  0  0  0  0  0  0  0  0  0  0  0  # atno 17343 bound_to 10162
  156.1485  130.3642  149.9474 LP  0  0  0  0  0  0  0  0  0  0  0  0  # atno 17370 bound_to 10713
  156.7499  130.9111  151.3637 LP  0  0  0  0  0  0  0  0  0  0  0  0  # atno 17371 bound_to 10713
  140.1543  134.4809  155.7939 LP  0  0  0  0  0  0  0  0  0  0  0  0  # atno 17394 bound_to 11000
  141.2199  133.6875  156.7434 LP  0  0  0  0  0  0  0  0  0  0  0  0  # atno 17395 bound_to 11000

$$$$
