AV-unprocessed.smi:109|AV-procd|sdf|1044|dock7
  -GOLD-   2262018 83D 1   1.00000     0.00000
 Structure written by MMmdl.
 58 61  0  0  0  0  0  0  0  0  1 V2000
  150.3402  139.9140  153.9030 O   0  0  0  0  0  0  0  0  0  0  0  0
  149.7497  140.5300  155.0272 C   0  0  0  0  0  0  0  0  0  0  0  0
  150.7977  141.3746  155.7731 C   0  0  0  0  0  0  0  0  0  0  0  0
  151.0410  140.9322  157.2369 C   0  0  1  0  0  0  0  0  0  0  0  0
  151.6999  139.6234  157.2450 N   0  0  0  0  0  0  0  0  0  0  0  0
  151.0659  138.5064  157.6672 C   0  0  0  0  0  0  0  0  0  0  0  0
  150.8718  138.2573  158.9882 N   0  0  0  0  0  0  0  0  0  0  0  0
  150.2377  137.1461  159.3739 C   0  0  0  0  0  0  0  0  0  0  0  0
  149.7241  136.1733  158.6175 N   0  0  0  0  0  0  0  0  0  0  0  0
  149.9143  136.4204  157.2889 C   0  0  0  0  0  0  0  0  0  0  0  0
  150.5759  137.5525  156.7383 C   0  0  0  0  0  0  0  0  0  0  0  0
  150.5858  137.4620  155.3535 N   0  0  0  0  0  0  0  0  0  0  0  0
  149.9672  136.3388  155.1061 C   0  0  0  0  0  0  0  0  0  0  0  0
  149.5137  135.6528  156.2160 N   0  0  0  0  0  0  0  0  0  0  0  0
  148.7953  134.3367  156.3146 C   0  0  2  0  0  0  0  0  0  0  0  0
  149.5791  133.3721  155.6895 O   0  0  0  0  0  0  0  0  0  0  0  0
  149.2510  133.3245  154.3087 C   0  0  1  0  0  0  0  0  0  0  0  0
  149.6937  131.9725  153.7284 C   0  0  0  0  0  0  0  0  0  0  0  0
  148.8533  131.5967  152.6583 O   0  0  0  0  0  0  0  0  0  0  0  0
  147.7323  133.5700  154.2881 C   0  0  2  0  0  0  0  0  0  0  0  0
  147.3771  134.3306  153.1499 O   0  0  0  0  0  0  0  0  0  0  0  0
  147.4486  134.3586  155.5721 C   0  0  1  0  0  0  0  0  0  0  0  0
  146.4404  133.7263  156.3342 O   0  0  0  0  0  0  0  0  0  0  0  0
  151.8849  141.9421  158.0665 C   0  0  0  0  0  0  0  0  0  0  0  0
  151.9914  141.4885  159.5453 C   0  0  0  0  0  0  0  0  0  0  0  0
  152.8111  142.4632  160.4054 C   0  0  0  0  0  0  0  0  0  0  0  0
  152.2300  143.8806  160.3419 C   0  0  0  0  0  0  0  0  0  0  0  0
  152.1431  144.3612  158.8887 C   0  0  0  0  0  0  0  0  0  0  0  0
  151.3285  143.3876  158.0206 C   0  0  0  0  0  0  0  0  0  0  0  0
  148.7040  134.1505  157.3854 H   0  0  0  0  0  0  0  0  0  0  0  0
  149.7868  134.1350  153.8116 H   0  0  0  0  0  0  0  0  0  0  0  0
  147.1882  132.6241  154.2817 H   0  0  0  0  0  0  0  0  0  0  0  0
  147.1306  135.3856  155.3869 H   0  0  0  0  0  0  0  0  0  0  0  0
  149.7887  140.0681  153.1511 H   0  0  0  0  0  0  0  0  0  0  0  0
  148.9193  141.1534  154.6944 H   0  0  0  0  0  0  0  0  0  0  0  0
  149.3381  139.7513  155.6691 H   0  0  0  0  0  0  0  0  0  0  0  0
  151.7398  141.3636  155.2230 H   0  0  0  0  0  0  0  0  0  0  0  0
  150.4412  142.4032  155.7534 H   0  0  0  0  0  0  0  0  0  0  0  0
  150.0663  140.8778  157.7206 H   0  0  0  0  0  0  0  0  0  0  0  0
  152.5841  139.5869  156.7582 H   0  0  0  0  0  0  0  0  0  0  0  0
  150.1244  137.0192  160.4405 H   0  0  0  0  0  0  0  0  0  0  0  0
  149.8272  135.9870  154.0952 H   0  0  0  0  0  0  0  0  0  0  0  0
  150.7141  132.0444  153.3506 H   0  0  0  0  0  0  0  0  0  0  0  0
  149.6871  131.1955  154.4933 H   0  0  0  0  0  0  0  0  0  0  0  0
  149.3550  131.6237  151.8577 H   0  0  0  0  0  0  0  0  0  0  0  0
  148.0832  134.9251  152.9498 H   0  0  0  0  0  0  0  0  0  0  0  0
  146.5862  133.9229  157.2470 H   0  0  0  0  0  0  0  0  0  0  0  0
  152.8925  141.9647  157.6477 H   0  0  0  0  0  0  0  0  0  0  0  0
  150.9912  141.3885  159.9690 H   0  0  0  0  0  0  0  0  0  0  0  0
  152.4492  140.5017  159.6144 H   0  0  0  0  0  0  0  0  0  0  0  0
  152.8317  142.1176  161.4394 H   0  0  0  0  0  0  0  0  0  0  0  0
  153.8462  142.4742  160.0621 H   0  0  0  0  0  0  0  0  0  0  0  0
  151.2371  143.8932  160.7932 H   0  0  0  0  0  0  0  0  0  0  0  0
  152.8464  144.5649  160.9255 H   0  0  0  0  0  0  0  0  0  0  0  0
  151.6932  145.3537  158.8530 H   0  0  0  0  0  0  0  0  0  0  0  0
  153.1483  144.4635  158.4777 H   0  0  0  0  0  0  0  0  0  0  0  0
  151.3397  143.7747  157.0031 H   0  0  0  0  0  0  0  0  0  0  0  0
  150.2872  143.3922  158.3455 H   0  0  0  0  0  0  0  0  0  0  0  0
  1  2  1  0  0  0  0
  1 34  1  0  0  0  0
  2  3  1  0  0  0  0
  2 35  1  0  0  0  0
  2 36  1  0  0  0  0
  3  4  1  0  0  0  0
  3 37  1  0  0  0  0
  3 38  1  0  0  0  0
  4  5  1  0  0  0  0
  4 24  1  0  0  0  0
  4 39  1  0  0  0  0
  5  6  1  0  0  0  0
  5 40  1  0  0  0  0
  6 11  1  0  0  0  0
  6  7  2  0  0  0  0
  7  8  1  0  0  0  0
  8  9  2  0  0  0  0
  8 41  1  0  0  0  0
  9 10  1  0  0  0  0
 10 14  1  0  0  0  0
 10 11  2  0  0  0  0
 11 12  1  0  0  0  0
 12 13  2  0  0  0  0
 13 14  1  0  0  0  0
 13 42  1  0  0  0  0
 14 15  1  0  0  0  0
 15 30  1  0  0  0  0
 15 22  1  0  0  0  0
 15 16  1  0  0  0  0
 16 17  1  0  0  0  0
 17 31  1  0  0  0  0
 17 18  1  0  0  0  0
 17 20  1  0  0  0  0
 18 19  1  0  0  0  0
 18 43  1  0  0  0  0
 18 44  1  0  0  0  0
 19 45  1  0  0  0  0
 20 32  1  0  0  0  0
 20 21  1  0  0  0  0
 20 22  1  0  0  0  0
 21 46  1  0  0  0  0
 22 33  1  0  0  0  0
 22 23  1  0  0  0  0
 23 47  1  0  0  0  0
 24 29  1  0  0  0  0
 24 25  1  0  0  0  0
 24 48  1  0  0  0  0
 25 26  1  0  0  0  0
 25 49  1  0  0  0  0
 25 50  1  0  0  0  0
 26 27  1  0  0  0  0
 26 51  1  0  0  0  0
 26 52  1  0  0  0  0
 27 28  1  0  0  0  0
 27 53  1  0  0  0  0
 27 54  1  0  0  0  0
 28 29  1  0  0  0  0
 28 55  1  0  0  0  0
 28 56  1  0  0  0  0
 29 57  1  0  0  0  0
 29 58  1  0  0  0  0
M  END
> <s_m_source_file>
AV-unprocessed.smi

> <i_m_source_file_index>
109

> <i_lp_mmshare_version>
43012

> <i_f3d_flags>
0

> <s_epik_input>
W0NIMl0xW0NIMl1bQ0gyXVtDSDJdW0NIMl1bQ0hdMVtDQEhdKFtDSDJdW0NIMl1bT0hdKVtOSF1jKG5bY0hdbjIpYyhjMjMpbltjSF1uM1tDQEBIXTRPW0NASF0oW0NIMl1bT0hdKVtDQEBIXShbT0hdKVtDQEhdNFtPSF0=

> <s_epik_cmdline>
J2VwaWtfcHl0aG9uJywgJy1waCcsICc3LjAnLCAnLXRuJywgJzgnLCAnLW1hJywgJzIwMCcsICctbWV0YWxfYmluZGluZycsICctaW1hZScsICc8aW5maWxlLm1hZT4nLCAnLW9tYWUnLCAnPG91dGZpbGUubWFlPic=

> <r_lp_tautomer_probability>
1

> <r_epik_Ionization_Penalty>
0.000793976

> <r_epik_Ionization_Penalty_Charging>
0

> <r_epik_Ionization_Penalty_Neutral>
0.000793976

> <r_epik_State_Penalty>
-0

> <r_epik_Charging_Adjusted_Penalty>
0

> <i_epik_Tot_Q>
0

> <i_epik_Tot_abs_Q>
0

> <r_epik_Metal_State_Penalty>
-0

> <b_epik_Metal_Only>
0

> <s_epik_Chemistry_Notes>
This compound contains an acetal/aminal-like group ( X-CH(R)-Y where X, Y are N, S, or O) that may be acid/base labile, releasing an aldehyde.

> <s_lp_Force_Field>
OPLS_2005

> <r_lp_Energy>
47.5037

> <b_lp_Chiralities_Consistent>
1

> <s_lp_Variant>
AV-unprocessed.smi:109-14

> <Gold.Version>
5.8.1

> <Gold.Id.Protein>
6NUR|6NUR_protein|mol2

> <Gold.PLP.Fitness>
55.3004

> <Gold.PLP.PLP>
-42.6416

> <Gold.PLP.part.hbond>
-4.8963

> <Gold.PLP.part.metal>
0.0000

> <Gold.PLP.part.buried>
-6.3858

> <Gold.PLP.part.nonpolar>
-31.1322

> <Gold.PLP.part.repulsive>
0.1667

> <Gold.PLP.ligand.clash>
0.0000

> <Gold.PLP.ligand.torsion>
1.5480

> <Gold.PLP.Chemscore.Hbond>
4.2180

> <Gold.PLP.Chemscore.CHOScore>
1.0000

> <Gold.PLP.Chemscore.Metal>
0.0000

> <Gold.Chemscore.Hbonds>
donor molecule, donor type, donor heavy atom, donor atom, acceptor molecule, acceptor atom, score
      L1  H     1    34       P1  7957  0.94
      L1  H    19    45       P1 10747  0.59
      L1  H    21    46       P1  7948  1.00
      P1  H  6896  6909       L1     9  0.70
      P1  H  7989  7998       L1     1  0.89
      L1  C    13    42       P1  7948  1.00

> <Gold.PLP.Chemscore.Internal.Correction>
0.1007

> <Gold.Rescore>
     Score         DG    S(hbond)    S(metal)    S(lipo)     H(rot)  DE(clash)    DE(int)     intcor
     10.63     -12.65       2.79        0.00     101.21       5.47       0.54       1.49       ----

> <Gold.Chemscore.Fitness>
10.6268

> <Gold.Chemscore.DG>
-12.6549

> <Gold.Chemscore.ZeroCoef>
-5.4800

> <Gold.Chemscore.Hbond>
2.7926

> <Gold.Chemscore.Metal>
0.0000

> <Gold.Chemscore.Lipo>
101.2062

> <Gold.Chemscore.Internal_Hbond>
0.0000

> <Gold.Chemscore.DEClash>
0.5353

> <Gold.Chemscore.DEInternal>
1.4928

> <Gold.Chemscore.Rot>
5.4662

> <Gold.Chemscore.Internal.Correction>
   9.000000E+99

> <Gold.Chemscore.Hbonds>
donor molecule, donor type, donor heavy atom, donor atom, acceptor molecule, acceptor atom, score
      L1  H     1    34       P1  7957  0.88
      L1  H    19    45       P1 10747  0.15
      L1  H    21    46       P1  7948  0.88
      P1  H  6896  6909       L1     9  0.17
      P1  H  7989  7998       L1     1  0.09

> <Gold.Chemscore.Hbond.Weighted>
-9.3272

> <Gold.Chemscore.Metal.Weighted>
-0.0000

> <Gold.Chemscore.Lipo.Weighted>
-11.8411

> <Gold.Chemscore.Internal_Hbond.Weighted>
0.0000

> <Gold.Chemscore.DEClash.Weighted>
0.5353

> <Gold.Chemscore.DEInternal.Weighted>
1.4928

> <Gold.Chemscore.Rot.Weighted>
13.9935

> <Gold.Chemscore.Internal.Correction.Weighted>
   9.000000E+99

> <Gold.Protein.RotatedTorsions>
[ 6907 6896 6895 6894 ] final   42.04 input  -60.11 | X-H torsion
[ 7974 7965 7964 7962 ] final   68.41 input  175.53 | X-H torsion
[ 8008 7997 7996 7995 ] final  118.86 input   59.86 | X-H torsion
[ 10167 10162 10161 10158 ] final -104.32 input  -65.29 | X-H torsion
[ 10718 10713 10712 10709 ] final  171.71 input   66.30 | X-H torsion
[ 10763 10752 10751 10750 ] final -105.75 input  -60.55 | X-H torsion
[ 11005 11000 10999 10996 ] final   84.35 input  -57.11 | X-H torsion

> <Gold.Protein.ActiveResidues>
 VAL166  LYS551  ARG553  GLY616  TRP617  ASP618  TYR619  PRO620  LYS621  CYS622 
 ASP623  PHE694  ASN695  SER759  ASP760  ASP761  ALA762  ILE779  LEU786  VAL792 
 PHE793  MET794  SER795  GLU796  ALA797  LYS798  CYS799  TRP800  GLU811  SER814 

> <Gold.Protein.RotatedAtoms>
  152.2028  134.8572  160.0505 H   0  0  0  0  0  0  0  0  0  0  0  0  # atno 6907 bound_to 6896
  151.9419  133.3635  159.3976 H   0  0  0  0  0  0  0  0  0  0  0  0  # atno 6908 bound_to 6896
  150.6958  134.4355  159.5312 H   0  0  0  0  0  0  0  0  0  0  0  0  # atno 6909 bound_to 6896
  145.8028  139.2991  143.1144 H   0  0  0  0  0  0  0  0  0  0  0  0  # atno 7974 bound_to 7965
  156.2567  140.2865  156.0901 H   0  0  0  0  0  0  0  0  0  0  0  0  # atno 8008 bound_to 7997
  155.1473  140.0396  157.2830 H   0  0  0  0  0  0  0  0  0  0  0  0  # atno 8009 bound_to 7997
  154.6486  140.2539  155.7245 H   0  0  0  0  0  0  0  0  0  0  0  0  # atno 8010 bound_to 7997
  140.2105  143.3750  152.1054 H   0  0  0  0  0  0  0  0  0  0  0  0  # atno 10167 bound_to 10162
  156.9896  131.0143  151.2860 H   0  0  0  0  0  0  0  0  0  0  0  0  # atno 10718 bound_to 10713
  154.7967  135.4737  154.0178 H   0  0  0  0  0  0  0  0  0  0  0  0  # atno 10763 bound_to 10752
  153.1715  135.6826  153.8608 H   0  0  0  0  0  0  0  0  0  0  0  0  # atno 10764 bound_to 10752
  153.8189  135.3207  155.3386 H   0  0  0  0  0  0  0  0  0  0  0  0  # atno 10765 bound_to 10752
  139.9003  134.8210  156.2433 H   0  0  0  0  0  0  0  0  0  0  0  0  # atno 11005 bound_to 11000
  145.9859  140.8643  143.0091 LP  0  0  0  0  0  0  0  0  0  0  0  0  # atno 17320 bound_to 7965
  144.6766  140.2147  143.7373 LP  0  0  0  0  0  0  0  0  0  0  0  0  # atno 17321 bound_to 7965
  139.5181  144.7002  151.5516 LP  0  0  0  0  0  0  0  0  0  0  0  0  # atno 17342 bound_to 10162
  140.6326  143.9046  150.6619 LP  0  0  0  0  0  0  0  0  0  0  0  0  # atno 17343 bound_to 10162
  157.5468  130.8156  149.8096 LP  0  0  0  0  0  0  0  0  0  0  0  0  # atno 17370 bound_to 10713
  156.0212  130.3795  150.1956 LP  0  0  0  0  0  0  0  0  0  0  0  0  # atno 17371 bound_to 10713
  141.0271  133.7009  156.1366 LP  0  0  0  0  0  0  0  0  0  0  0  0  # atno 17394 bound_to 11000
  140.7150  134.4420  157.5579 LP  0  0  0  0  0  0  0  0  0  0  0  0  # atno 17395 bound_to 11000

$$$$
