AV-unprocessed.smi:580|AV-procd|sdf|2990|dock7
  -GOLD-   2262023493D 1   1.00000     0.00000
 Structure written by MMmdl.
 36 37  0  0  0  0  0  0  0  0  1 V2000
  150.9444  141.9304  156.5806 C   0  0  0  0  0  0  0  0  0  0  0  0
  150.6029  140.7646  155.7174 C   0  0  0  0  0  0  0  0  0  0  0  0
  149.4201  140.1600  155.3960 C   0  0  0  0  0  0  0  0  0  0  0  0
  149.8233  139.1088  154.5303 C   0  0  0  0  0  0  0  0  0  0  0  0
  148.8687  138.2248  153.9659 N   0  0  0  0  0  0  0  0  0  0  0  0
  147.5611  138.1332  154.2619 C   0  0  0  0  0  0  0  0  0  0  0  0
  146.9743  138.8153  155.1026 O   0  0  0  0  0  0  0  0  0  0  0  0
  146.9606  137.1896  153.5222 N   0  0  0  0  0  0  0  0  0  0  0  0
  145.5464  136.8253  153.5961 C   0  0  2  0  0  0  0  0  0  0  0  0
  145.3653  135.3509  154.0142 C   0  0  0  0  0  0  0  0  0  0  0  0
  145.8154  134.3742  152.9135 C   0  0  0  0  0  0  0  0  0  0  0  0
  145.0963  134.6509  151.5794 C   0  0  2  0  0  0  0  0  0  0  0  0
  145.5501  133.6763  150.4835 C   0  0  0  0  0  0  0  0  0  0  0  0
  145.3025  136.1160  151.1501 C   0  0  0  0  0  0  0  0  0  0  0  0
  144.8546  137.0992  152.2467 C   0  0  0  0  0  0  0  0  0  0  0  0
  151.1336  139.0739  154.3410 N   0  0  0  0  0  0  0  0  0  0  0  0
  151.6399  140.1347  155.1013 O   0  0  0  0  0  0  0  0  0  0  0  0
  150.0623  142.5395  156.7789 H   0  0  0  0  0  0  0  0  0  0  0  0
  151.6904  142.5640  156.1005 H   0  0  0  0  0  0  0  0  0  0  0  0
  151.3475  141.5972  157.5370 H   0  0  0  0  0  0  0  0  0  0  0  0
  148.4283  140.4293  155.7279 H   0  0  0  0  0  0  0  0  0  0  0  0
  149.2192  137.5951  153.2593 H   0  0  0  0  0  0  0  0  0  0  0  0
  147.5230  136.6786  152.8578 H   0  0  0  0  0  0  0  0  0  0  0  0
  145.0728  137.4603  154.3470 H   0  0  0  0  0  0  0  0  0  0  0  0
  145.9058  135.1461  154.9391 H   0  0  0  0  0  0  0  0  0  0  0  0
  144.3127  135.1718  154.2372 H   0  0  0  0  0  0  0  0  0  0  0  0
  146.8947  134.4504  152.7754 H   0  0  0  0  0  0  0  0  0  0  0  0
  145.6205  133.3507  153.2358 H   0  0  0  0  0  0  0  0  0  0  0  0
  144.0279  134.4942  151.7356 H   0  0  0  0  0  0  0  0  0  0  0  0
  146.6157  133.7806  150.2764 H   0  0  0  0  0  0  0  0  0  0  0  0
  145.0110  133.8538  149.5525 H   0  0  0  0  0  0  0  0  0  0  0  0
  145.3675  132.6422  150.7773 H   0  0  0  0  0  0  0  0  0  0  0  0
  146.3530  136.2865  150.9113 H   0  0  0  0  0  0  0  0  0  0  0  0
  144.7452  136.3168  150.2345 H   0  0  0  0  0  0  0  0  0  0  0  0
  143.7748  137.0159  152.3772 H   0  0  0  0  0  0  0  0  0  0  0  0
  145.0412  138.1254  151.9280 H   0  0  0  0  0  0  0  0  0  0  0  0
  1  2  1  0  0  0  0
  1 18  1  0  0  0  0
  1 19  1  0  0  0  0
  1 20  1  0  0  0  0
  2 17  1  0  0  0  0
  2  3  2  0  0  0  0
  3  4  1  0  0  0  0
  3 21  1  0  0  0  0
  4  5  1  0  0  0  0
  4 16  2  0  0  0  0
  5  6  1  0  0  0  0
  5 22  1  0  0  0  0
  6  7  2  0  0  0  0
  6  8  1  0  0  0  0
  8  9  1  0  0  0  0
  8 23  1  0  0  0  0
  9 15  1  0  0  0  0
  9 10  1  0  0  0  0
  9 24  1  0  0  0  0
 10 11  1  0  0  0  0
 10 25  1  0  0  0  0
 10 26  1  0  0  0  0
 11 12  1  0  0  0  0
 11 27  1  0  0  0  0
 11 28  1  0  0  0  0
 12 13  1  0  0  0  0
 12 14  1  0  0  0  0
 12 29  1  0  0  0  0
 13 30  1  0  0  0  0
 13 31  1  0  0  0  0
 13 32  1  0  0  0  0
 14 15  1  0  0  0  0
 14 33  1  0  0  0  0
 14 34  1  0  0  0  0
 15 35  1  0  0  0  0
 15 36  1  0  0  0  0
 16 17  1  0  0  0  0
M  END
> <s_m_source_file>
AV-unprocessed.smi

> <i_m_source_file_index>
580

> <i_lp_mmshare_version>
43012

> <i_f3d_flags>
0

> <s_epik_input>
W0NIM11jMVtjSF1jKG5vMSlbTkhdQyg9TylbTkhdW0NAQEhdMltDSDJdW0NIMl1bQ0BASF0oW0NIM10pW0NIMl1bQ0gyXTI=

> <s_epik_cmdline>
J2VwaWtfcHl0aG9uJywgJy1waCcsICc3LjAnLCAnLXRuJywgJzgnLCAnLW1hJywgJzIwMCcsICctbWV0YWxfYmluZGluZycsICctaW1hZScsICc8aW5maWxlLm1hZT4nLCAnLW9tYWUnLCAnPG91dGZpbGUubWFlPic=

> <r_lp_tautomer_probability>
1

> <r_epik_Ionization_Penalty>
2.357e-05

> <r_epik_Ionization_Penalty_Charging>
0

> <r_epik_Ionization_Penalty_Neutral>
2.357e-05

> <r_epik_State_Penalty>
-0

> <r_epik_Charging_Adjusted_Penalty>
0

> <i_epik_Tot_Q>
0

> <i_epik_Tot_abs_Q>
0

> <r_epik_Metal_State_Penalty>
-0

> <b_epik_Metal_Only>
0

> <s_lp_Force_Field>
OPLS_2005

> <r_lp_Energy>
6.11035

> <b_lp_Chiralities_Consistent>
1

> <s_lp_Variant>
AV-unprocessed.smi:580-2

> <Gold.Version>
5.8.1

> <Gold.Id.Protein>
6NUR|6NUR_protein|mol2

> <Gold.PLP.Fitness>
31.8950

> <Gold.PLP.PLP>
-24.3024

> <Gold.PLP.part.hbond>
-3.6286

> <Gold.PLP.part.metal>
0.0000

> <Gold.PLP.part.buried>
-2.5415

> <Gold.PLP.part.nonpolar>
-18.2950

> <Gold.PLP.part.repulsive>
0.3074

> <Gold.PLP.ligand.clash>
0.0000

> <Gold.PLP.ligand.torsion>
0.0197

> <Gold.PLP.Chemscore.Hbond>
2.5420

> <Gold.PLP.Chemscore.CHOScore>
0.0000

> <Gold.PLP.Chemscore.Metal>
0.0000

> <Gold.Chemscore.Hbonds>
donor molecule, donor type, donor heavy atom, donor atom, acceptor molecule, acceptor atom, score
      L1  H     5    22       P1  7948  1.00
      L1  H     8    23       P1  7948  1.00

> <Gold.PLP.Chemscore.Internal.Correction>
0.0060

> <Gold.Rescore>
     Score         DG    S(hbond)    S(metal)    S(lipo)     H(rot)  DE(clash)    DE(int)     intcor
     13.57     -14.99       1.94        0.00      47.78       1.00       0.02       1.40       ----

> <Gold.Chemscore.Fitness>
13.5723

> <Gold.Chemscore.DG>
-14.9902

> <Gold.Chemscore.ZeroCoef>
-5.4800

> <Gold.Chemscore.Hbond>
1.9402

> <Gold.Chemscore.Metal>
0.0000

> <Gold.Chemscore.Lipo>
47.7785

> <Gold.Chemscore.Internal_Hbond>
0.0000

> <Gold.Chemscore.DEClash>
0.0174

> <Gold.Chemscore.DEInternal>
1.4006

> <Gold.Chemscore.Rot>
1.0000

> <Gold.Chemscore.Internal.Correction>
   9.000000E+99

> <Gold.Chemscore.Hbonds>
donor molecule, donor type, donor heavy atom, donor atom, acceptor molecule, acceptor atom, score
      L1  H     5    22       P1  7948  0.95
      L1  H     8    23       P1  7948  0.99

> <Gold.Chemscore.Hbond.Weighted>
-6.4801

> <Gold.Chemscore.Metal.Weighted>
-0.0000

> <Gold.Chemscore.Lipo.Weighted>
-5.5901

> <Gold.Chemscore.Internal_Hbond.Weighted>
0.0000

> <Gold.Chemscore.DEClash.Weighted>
0.0174

> <Gold.Chemscore.DEInternal.Weighted>
1.4006

> <Gold.Chemscore.Rot.Weighted>
2.5600

> <Gold.Chemscore.Internal.Correction.Weighted>
   9.000000E+99

> <Gold.Protein.RotatedTorsions>
[ 6907 6896 6895 6894 ] final  167.44 input  -60.11 | X-H torsion
[ 7974 7965 7964 7962 ] final  -53.54 input  175.53 | X-H torsion
[ 8008 7997 7996 7995 ] final  142.31 input   59.86 | X-H torsion
[ 10167 10162 10161 10158 ] final  122.69 input  -65.29 | X-H torsion
[ 10718 10713 10712 10709 ] final  -57.53 input   66.30 | X-H torsion
[ 10763 10752 10751 10750 ] final -129.99 input  -60.55 | X-H torsion
[ 11005 11000 10999 10996 ] final  115.42 input  -57.11 | X-H torsion

> <Gold.Protein.ActiveResidues>
 VAL166  LYS551  ARG553  GLY616  TRP617  ASP618  TYR619  PRO620  LYS621  CYS622 
 ASP623  PHE694  ASN695  SER759  ASP760  ASP761  ALA762  ILE779  LEU786  VAL792 
 PHE793  MET794  SER795  GLU796  ALA797  LYS798  CYS799  TRP800  GLU811  SER814 

> <Gold.Protein.RotatedAtoms>
  151.8633  133.3461  159.3710 H   0  0  0  0  0  0  0  0  0  0  0  0  # atno 6907 bound_to 6896
  150.7173  134.5185  159.5651 H   0  0  0  0  0  0  0  0  0  0  0  0  # atno 6908 bound_to 6896
  152.2703  134.7941  160.0466 H   0  0  0  0  0  0  0  0  0  0  0  0  # atno 6909 bound_to 6896
  145.8956  140.8035  142.9769 H   0  0  0  0  0  0  0  0  0  0  0  0  # atno 7974 bound_to 7965
  156.2951  140.2292  156.4707 H   0  0  0  0  0  0  0  0  0  0  0  0  # atno 8008 bound_to 7997
  154.7937  140.0452  157.1242 H   0  0  0  0  0  0  0  0  0  0  0  0  # atno 8009 bound_to 7997
  154.9614  140.3055  155.5032 H   0  0  0  0  0  0  0  0  0  0  0  0  # atno 8010 bound_to 7997
  139.5843  144.7000  151.3448 H   0  0  0  0  0  0  0  0  0  0  0  0  # atno 10167 bound_to 10162
  156.1203  130.4167  150.0454 H   0  0  0  0  0  0  0  0  0  0  0  0  # atno 10718 bound_to 10713
  154.8756  135.3877  154.4010 H   0  0  0  0  0  0  0  0  0  0  0  0  # atno 10763 bound_to 10752
  153.4734  135.7030  153.5985 H   0  0  0  0  0  0  0  0  0  0  0  0  # atno 10764 bound_to 10752
  153.4432  135.3851  155.2208 H   0  0  0  0  0  0  0  0  0  0  0  0  # atno 10765 bound_to 10752
  139.9009  134.9583  156.7042 H   0  0  0  0  0  0  0  0  0  0  0  0  # atno 11005 bound_to 11000
  144.6733  140.1598  143.7423 LP  0  0  0  0  0  0  0  0  0  0  0  0  # atno 17320 bound_to 7965
  145.8854  139.2346  143.1581 LP  0  0  0  0  0  0  0  0  0  0  0  0  # atno 17321 bound_to 7965
  140.7117  143.7372  150.7580 LP  0  0  0  0  0  0  0  0  0  0  0  0  # atno 17342 bound_to 10162
  140.0913  143.4875  152.2477 LP  0  0  0  0  0  0  0  0  0  0  0  0  # atno 17343 bound_to 10162
  156.8394  130.9420  151.3633 LP  0  0  0  0  0  0  0  0  0  0  0  0  # atno 17370 bound_to 10713
  157.6387  130.8787  149.9407 LP  0  0  0  0  0  0  0  0  0  0  0  0  # atno 17371 bound_to 10713
  140.7127  133.9209  155.8094 LP  0  0  0  0  0  0  0  0  0  0  0  0  # atno 17394 bound_to 11000
  141.0288  134.0785  157.4038 LP  0  0  0  0  0  0  0  0  0  0  0  0  # atno 17395 bound_to 11000

$$$$
