AV-unprocessed.smi:1586|AV-procd|sdf|6377|dock8
  -GOLD-   22720 7 03D 1   1.00000     0.00000
 Structure written by MMmdl.
 46 47  0  0  0  0  0  0  0  0  1 V2000
  152.2320  144.1638  158.3358 C   0  0  0  0  0  0  0  0  0  0  0  0
  152.0860  142.7202  158.8388 C   0  0  0  0  0  0  0  0  0  0  0  0
  151.9555  141.7128  157.7880 N   0  0  0  0  0  0  0  0  0  0  0  0
  151.7857  140.3628  158.3224 C   0  0  0  0  0  0  0  0  0  0  0  0
  151.6514  139.3189  157.1981 C   0  0  0  0  0  0  0  0  0  0  0  0
  150.5131  139.5898  156.3057 N   0  0  0  0  0  0  0  0  0  0  0  0
  150.3954  138.5957  155.2138 C   0  0  2  0  0  0  0  0  0  0  0  0
  149.2546  138.9305  154.2194 C   0  0  0  0  0  0  0  0  0  0  0  0
  150.2012  137.1381  155.7248 C   0  0  0  0  0  0  0  0  0  0  0  0
  149.6343  136.2411  154.7209 N   0  0  0  0  0  0  0  0  0  0  0  0
  149.2036  134.9938  154.9595 C   0  0  0  0  0  0  0  0  0  0  0  0
  149.2350  134.4683  156.0722 O   0  0  0  0  0  0  0  0  0  0  0  0
  148.7464  134.4142  153.8367 N   0  0  0  0  0  0  0  0  0  0  0  0
  148.2134  133.1097  153.6716 C   0  0  0  0  0  0  0  0  0  0  0  0
  147.2367  132.7112  152.7128 C   0  0  0  0  0  0  0  0  0  0  0  0
  147.0780  131.3795  152.9731 C   0  0  0  0  0  0  0  0  0  0  0  0
  146.2227  130.3220  152.3638 C   0  0  0  0  0  0  0  0  0  0  0  0
  147.8838  130.9977  154.0000 O   0  0  0  0  0  0  0  0  0  0  0  0
  148.6074  132.1116  154.4411 N   0  0  0  0  0  0  0  0  0  0  0  0
  150.6745  140.9619  155.7992 C   0  0  0  0  0  0  0  0  0  0  0  0
  150.8092  141.9972  156.9307 C   0  0  0  0  0  0  0  0  0  0  0  0
  152.2150  144.8634  159.1716 H   0  0  0  0  0  0  0  0  0  0  0  0
  151.4154  144.4303  157.6644 H   0  0  0  0  0  0  0  0  0  0  0  0
  153.1711  144.3181  157.8051 H   0  0  0  0  0  0  0  0  0  0  0  0
  152.9263  142.4734  159.4895 H   0  0  0  0  0  0  0  0  0  0  0  0
  151.1976  142.6839  159.4707 H   0  0  0  0  0  0  0  0  0  0  0  0
  152.6406  140.0932  158.9414 H   0  0  0  0  0  0  0  0  0  0  0  0
  150.9068  140.3222  158.9681 H   0  0  0  0  0  0  0  0  0  0  0  0
  152.5774  139.2761  156.6224 H   0  0  0  0  0  0  0  0  0  0  0  0
  151.5372  138.3533  157.6855 H   0  0  0  0  0  0  0  0  0  0  0  0
  151.3267  138.6167  154.6457 H   0  0  0  0  0  0  0  0  0  0  0  0
  149.1350  138.1686  153.4503 H   0  0  0  0  0  0  0  0  0  0  0  0
  149.4401  139.8547  153.6741 H   0  0  0  0  0  0  0  0  0  0  0  0
  148.2986  139.0280  154.7348 H   0  0  0  0  0  0  0  0  0  0  0  0
  151.1377  136.6876  156.0501 H   0  0  0  0  0  0  0  0  0  0  0  0
  149.5418  137.1353  156.5932 H   0  0  0  0  0  0  0  0  0  0  0  0
  149.5724  136.5963  153.7779 H   0  0  0  0  0  0  0  0  0  0  0  0
  148.7840  134.9728  152.9969 H   0  0  0  0  0  0  0  0  0  0  0  0
  146.7290  133.2886  151.9554 H   0  0  0  0  0  0  0  0  0  0  0  0
  145.7912  130.6645  151.4232 H   0  0  0  0  0  0  0  0  0  0  0  0
  145.4056  130.0530  153.0331 H   0  0  0  0  0  0  0  0  0  0  0  0
  146.8044  129.4229  152.1601 H   0  0  0  0  0  0  0  0  0  0  0  0
  151.5441  141.0191  155.1425 H   0  0  0  0  0  0  0  0  0  0  0  0
  149.8104  141.2546  155.2058 H   0  0  0  0  0  0  0  0  0  0  0  0
  149.8925  142.0151  157.5226 H   0  0  0  0  0  0  0  0  0  0  0  0
  150.9152  142.9903  156.4927 H   0  0  0  0  0  0  0  0  0  0  0  0
  1  2  1  0  0  0  0
  1 22  1  0  0  0  0
  1 23  1  0  0  0  0
  1 24  1  0  0  0  0
  2  3  1  0  0  0  0
  2 25  1  0  0  0  0
  2 26  1  0  0  0  0
  3 21  1  0  0  0  0
  3  4  1  0  0  0  0
  4  5  1  0  0  0  0
  4 27  1  0  0  0  0
  4 28  1  0  0  0  0
  5  6  1  0  0  0  0
  5 29  1  0  0  0  0
  5 30  1  0  0  0  0
  6  7  1  0  0  0  0
  6 20  1  0  0  0  0
  7  8  1  0  0  0  0
  7  9  1  0  0  0  0
  7 31  1  0  0  0  0
  8 32  1  0  0  0  0
  8 33  1  0  0  0  0
  8 34  1  0  0  0  0
  9 10  1  0  0  0  0
  9 35  1  0  0  0  0
  9 36  1  0  0  0  0
 10 11  1  0  0  0  0
 10 37  1  0  0  0  0
 11 12  2  0  0  0  0
 11 13  1  0  0  0  0
 13 14  1  0  0  0  0
 13 38  1  0  0  0  0
 14 19  2  0  0  0  0
 14 15  1  0  0  0  0
 15 16  2  0  0  0  0
 15 39  1  0  0  0  0
 16 17  1  0  0  0  0
 16 18  1  0  0  0  0
 17 40  1  0  0  0  0
 17 41  1  0  0  0  0
 17 42  1  0  0  0  0
 18 19  1  0  0  0  0
 20 21  1  0  0  0  0
 20 43  1  0  0  0  0
 20 44  1  0  0  0  0
 21 45  1  0  0  0  0
 21 46  1  0  0  0  0
M  END
> <s_m_source_file>
AV-unprocessed.smi

> <i_m_source_file_index>
1586

> <i_lp_mmshare_version>
43012

> <i_f3d_flags>
0

> <s_epik_input>
W0NIM11bQ0gyXU4xW0NIMl1bQ0gyXU4oW0NIMl1bQ0gyXTEpW0NASF0oW0NIM10pW0NIMl1bTkhdQyg9TylbTkhdYzJbY0hdYyhbQ0gzXSlvbjI=

> <s_epik_cmdline>
J2VwaWtfcHl0aG9uJywgJy1waCcsICc3LjAnLCAnLXRuJywgJzgnLCAnLW1hJywgJzIwMCcsICctbWV0YWxfYmluZGluZycsICctaW1hZScsICc8aW5maWxlLm1hZT4nLCAnLW9tYWUnLCAnPG91dGZpbGUubWFlPic=

> <r_epik_Ionization_Penalty>
2.42597

> <r_epik_Ionization_Penalty_Charging>
0

> <r_epik_Ionization_Penalty_Neutral>
2.42597

> <r_epik_State_Penalty>
1.76326

> <r_epik_Charging_Adjusted_Penalty>
1.76326

> <i_epik_Tot_Q>
0

> <i_epik_Tot_abs_Q>
0

> <r_epik_Metal_State_Penalty>
1.7742

> <b_epik_Metal_Only>
0

> <s_lp_Force_Field>
OPLS_2005

> <r_lp_Energy>
40.1671

> <b_lp_Chiralities_Consistent>
1

> <s_lp_Variant>
AV-unprocessed.smi:1586-5

> <Gold.Version>
5.8.1

> <Gold.Id.Protein>
6NUR|6NUR_protein|mol2

> <Gold.PLP.Fitness>
38.2611

> <Gold.PLP.PLP>
-33.4094

> <Gold.PLP.part.hbond>
-2.0000

> <Gold.PLP.part.metal>
0.0000

> <Gold.PLP.part.buried>
-2.7421

> <Gold.PLP.part.nonpolar>
-28.9881

> <Gold.PLP.part.repulsive>
0.1704

> <Gold.PLP.ligand.clash>
0.0000

> <Gold.PLP.ligand.torsion>
0.4852

> <Gold.PLP.Chemscore.Hbond>
1.9280

> <Gold.PLP.Chemscore.CHOScore>
0.0000

> <Gold.PLP.Chemscore.Metal>
0.0000

> <Gold.Chemscore.Hbonds>
donor molecule, donor type, donor heavy atom, donor atom, acceptor molecule, acceptor atom, score
      L1  H    10    37       P1  7948  0.93
      L1  H    13    38       P1  7948  1.00

> <Gold.PLP.Chemscore.Internal.Correction>
0.0382

> <Gold.Rescore>
     Score         DG    S(hbond)    S(metal)    S(lipo)     H(rot)  DE(clash)    DE(int)     intcor
     14.83     -16.61       1.77        0.00      82.30       1.72       0.07       1.71       ----

> <Gold.Chemscore.Fitness>
14.8344

> <Gold.Chemscore.DG>
-16.6132

> <Gold.Chemscore.ZeroCoef>
-5.4800

> <Gold.Chemscore.Hbond>
1.7670

> <Gold.Chemscore.Metal>
0.0000

> <Gold.Chemscore.Lipo>
82.2984

> <Gold.Chemscore.Internal_Hbond>
0.0000

> <Gold.Chemscore.DEClash>
0.0727

> <Gold.Chemscore.DEInternal>
1.7060

> <Gold.Chemscore.Rot>
1.7178

> <Gold.Chemscore.Internal.Correction>
   9.000000E+99

> <Gold.Chemscore.Hbonds>
donor molecule, donor type, donor heavy atom, donor atom, acceptor molecule, acceptor atom, score
      L1  H    10    37       P1  7948  0.64
      L1  H    13    38       P1  7948  0.30

> <Gold.Chemscore.Hbond.Weighted>
-5.9019

> <Gold.Chemscore.Metal.Weighted>
-0.0000

> <Gold.Chemscore.Lipo.Weighted>
-9.6289

> <Gold.Chemscore.Internal_Hbond.Weighted>
0.0000

> <Gold.Chemscore.DEClash.Weighted>
0.0727

> <Gold.Chemscore.DEInternal.Weighted>
1.7060

> <Gold.Chemscore.Rot.Weighted>
4.3976

> <Gold.Chemscore.Internal.Correction.Weighted>
   9.000000E+99

> <Gold.Protein.RotatedTorsions>
[ 6907 6896 6895 6894 ] final  122.84 input  -60.11 | X-H torsion
[ 7974 7965 7964 7962 ] final   79.91 input  175.53 | X-H torsion
[ 8008 7997 7996 7995 ] final   23.40 input   59.86 | X-H torsion
[ 10167 10162 10161 10158 ] final  151.00 input  -65.29 | X-H torsion
[ 10718 10713 10712 10709 ] final -101.50 input   66.30 | X-H torsion
[ 10763 10752 10751 10750 ] final   18.29 input  -60.55 | X-H torsion
[ 11005 11000 10999 10996 ] final  -79.76 input  -57.11 | X-H torsion

> <Gold.Protein.ActiveResidues>
 VAL166  LYS551  ARG553  GLY616  TRP617  ASP618  TYR619  PRO620  LYS621  CYS622 
 ASP623  PHE694  ASN695  SER759  ASP760  ASP761  ALA762  ILE779  LEU786  VAL792 
 PHE793  MET794  SER795  GLU796  ALA797  LYS798  CYS799  TRP800  GLU811  SER814 

> <Gold.Protein.RotatedAtoms>
  152.4210  133.7117  159.6482 H   0  0  0  0  0  0  0  0  0  0  0  0  # atno 6907 bound_to 6896
  150.8086  133.8452  159.3199 H   0  0  0  0  0  0  0  0  0  0  0  0  # atno 6908 bound_to 6896
  151.6169  135.1037  160.0145 H   0  0  0  0  0  0  0  0  0  0  0  0  # atno 6909 bound_to 6896
  145.6581  139.2464  143.1938 H   0  0  0  0  0  0  0  0  0  0  0  0  # atno 7974 bound_to 7965
  154.9803  140.3101  155.4949 H   0  0  0  0  0  0  0  0  0  0  0  0  # atno 8008 bound_to 7997
  156.2954  140.2268  156.4841 H   0  0  0  0  0  0  0  0  0  0  0  0  # atno 8009 bound_to 7997
  154.7795  140.0447  157.1104 H   0  0  0  0  0  0  0  0  0  0  0  0  # atno 8010 bound_to 7997
  139.4844  144.5477  151.7456 H   0  0  0  0  0  0  0  0  0  0  0  0  # atno 10167 bound_to 10162
  156.0196  130.5376  150.6971 H   0  0  0  0  0  0  0  0  0  0  0  0  # atno 10718 bound_to 10713
  153.1263  135.6730  153.9252 H   0  0  0  0  0  0  0  0  0  0  0  0  # atno 10763 bound_to 10752
  153.8752  135.3065  155.3445 H   0  0  0  0  0  0  0  0  0  0  0  0  # atno 10764 bound_to 10752
  154.7667  135.4960  153.9649 H   0  0  0  0  0  0  0  0  0  0  0  0  # atno 10765 bound_to 10752
  141.1667  133.7120  156.8170 H   0  0  0  0  0  0  0  0  0  0  0  0  # atno 11005 bound_to 11000
  146.1148  140.7383  142.9486 LP  0  0  0  0  0  0  0  0  0  0  0  0  # atno 17320 bound_to 7965
  144.7099  140.3997  143.7089 LP  0  0  0  0  0  0  0  0  0  0  0  0  # atno 17321 bound_to 7965
  140.5026  144.1146  150.5975 LP  0  0  0  0  0  0  0  0  0  0  0  0  # atno 17342 bound_to 10162
  140.4044  143.2687  151.9908 LP  0  0  0  0  0  0  0  0  0  0  0  0  # atno 17343 bound_to 10162
  157.4640  131.0886  151.0715 LP  0  0  0  0  0  0  0  0  0  0  0  0  # atno 17370 bound_to 10713
  157.1195  130.6055  149.5501 LP  0  0  0  0  0  0  0  0  0  0  0  0  # atno 17371 bound_to 10713
  140.2146  134.8802  157.3312 LP  0  0  0  0  0  0  0  0  0  0  0  0  # atno 17394 bound_to 11000
  140.2051  134.4207  155.7642 LP  0  0  0  0  0  0  0  0  0  0  0  0  # atno 17395 bound_to 11000

$$$$
