AV-unprocessed.smi:895|AV-procd|sdf|4076|dock2
  -GOLD-   22720 1563D 1   1.00000     0.00000
 Structure written by MMmdl.
 44 45  0  0  0  0  0  0  0  0  1 V2000
  146.6114  139.2439  154.7750 C   0  0  0  0  0  0  0  0  0  0  0  0
  147.0646  139.9040  153.4581 C   0  0  0  0  0  0  0  0  0  0  0  0
  146.7015  141.3985  153.4548 C   0  0  0  0  0  0  0  0  0  0  0  0
  148.4763  139.8470  153.3955 O   0  0  0  0  0  0  0  0  0  0  0  0
  146.4917  139.2186  152.1933 C   0  0  0  0  0  0  0  0  0  0  0  0
  146.7873  137.7902  152.1294 N   0  0  0  0  0  0  0  0  0  0  0  0
  145.8712  136.8132  152.1533 C   0  0  0  0  0  0  0  0  0  0  0  0
  144.6613  137.0052  152.2733 O   0  0  0  0  0  0  0  0  0  0  0  0
  146.4381  135.6052  152.0283 N   0  0  0  0  0  0  0  0  0  0  0  0
  145.7305  134.3253  152.0301 C   0  0  1  0  0  0  0  0  0  0  0  0
  144.7019  134.3222  150.8822 C   0  0  0  0  0  0  0  0  0  0  0  0
  143.9857  132.9685  150.7633 C   0  0  0  0  0  0  0  0  0  0  0  0
  144.9935  131.8232  150.5912 C   0  0  0  0  0  0  0  0  0  0  0  0
  146.0042  131.8033  151.7471 C   0  0  0  0  0  0  0  0  0  0  0  0
  146.7366  133.1550  151.8815 C   0  0  2  0  0  0  0  0  0  0  0  0
  147.7014  133.1184  152.9738 N   0  0  0  0  0  0  0  0  0  0  0  0
  148.6763  132.1725  153.2136 C   0  0  0  0  0  0  0  0  0  0  0  0
  149.3479  132.5526  154.3399 C   0  0  0  0  0  0  0  0  0  0  0  0
  148.7035  133.7610  154.7250 C   0  0  0  0  0  0  0  0  0  0  0  0
  147.7177  134.0952  153.9091 N   0  0  0  0  0  0  0  0  0  0  0  0
  145.5240  139.2303  154.8532 H   0  0  0  0  0  0  0  0  0  0  0  0
  146.9965  139.7842  155.6403 H   0  0  0  0  0  0  0  0  0  0  0  0
  146.9630  138.2151  154.8581 H   0  0  0  0  0  0  0  0  0  0  0  0
  145.6216  141.5407  153.5093 H   0  0  0  0  0  0  0  0  0  0  0  0
  147.0522  141.8924  152.5477 H   0  0  0  0  0  0  0  0  0  0  0  0
  147.1438  141.9195  154.3049 H   0  0  0  0  0  0  0  0  0  0  0  0
  148.7318  139.6842  152.5002 H   0  0  0  0  0  0  0  0  0  0  0  0
  145.4045  139.3012  152.2043 H   0  0  0  0  0  0  0  0  0  0  0  0
  146.8175  139.7322  151.2864 H   0  0  0  0  0  0  0  0  0  0  0  0
  147.7577  137.5311  152.0295 H   0  0  0  0  0  0  0  0  0  0  0  0
  147.4418  135.5647  151.9312 H   0  0  0  0  0  0  0  0  0  0  0  0
  145.1814  134.1945  152.9645 H   0  0  0  0  0  0  0  0  0  0  0  0
  143.9667  135.1126  151.0392 H   0  0  0  0  0  0  0  0  0  0  0  0
  145.1998  134.5479  149.9379 H   0  0  0  0  0  0  0  0  0  0  0  0
  143.3817  132.7945  151.6548 H   0  0  0  0  0  0  0  0  0  0  0  0
  143.2952  132.9864  149.9198 H   0  0  0  0  0  0  0  0  0  0  0  0
  144.4681  130.8692  150.5405 H   0  0  0  0  0  0  0  0  0  0  0  0
  145.5211  131.9378  149.6436 H   0  0  0  0  0  0  0  0  0  0  0  0
  145.4809  131.5663  152.6744 H   0  0  0  0  0  0  0  0  0  0  0  0
  146.7270  131.0025  151.5883 H   0  0  0  0  0  0  0  0  0  0  0  0
  147.3034  133.3130  150.9621 H   0  0  0  0  0  0  0  0  0  0  0  0
  148.8113  131.3176  152.5676 H   0  0  0  0  0  0  0  0  0  0  0  0
  150.1742  132.0454  154.8151 H   0  0  0  0  0  0  0  0  0  0  0  0
  148.9207  134.4004  155.5678 H   0  0  0  0  0  0  0  0  0  0  0  0
  1  2  1  0  0  0  0
  1 21  1  0  0  0  0
  1 22  1  0  0  0  0
  1 23  1  0  0  0  0
  2  3  1  0  0  0  0
  2  4  1  0  0  0  0
  2  5  1  0  0  0  0
  3 24  1  0  0  0  0
  3 25  1  0  0  0  0
  3 26  1  0  0  0  0
  4 27  1  0  0  0  0
  5  6  1  0  0  0  0
  5 28  1  0  0  0  0
  5 29  1  0  0  0  0
  6  7  1  0  0  0  0
  6 30  1  0  0  0  0
  7  8  2  0  0  0  0
  7  9  1  0  0  0  0
  9 10  1  0  0  0  0
  9 31  1  0  0  0  0
 10 15  1  0  0  0  0
 10 11  1  0  0  0  0
 10 32  1  0  0  0  0
 11 12  1  0  0  0  0
 11 33  1  0  0  0  0
 11 34  1  0  0  0  0
 12 13  1  0  0  0  0
 12 35  1  0  0  0  0
 12 36  1  0  0  0  0
 13 14  1  0  0  0  0
 13 37  1  0  0  0  0
 13 38  1  0  0  0  0
 14 15  1  0  0  0  0
 14 39  1  0  0  0  0
 14 40  1  0  0  0  0
 15 16  1  0  0  0  0
 15 41  1  0  0  0  0
 16 20  1  0  0  0  0
 16 17  1  0  0  0  0
 17 18  2  0  0  0  0
 17 42  1  0  0  0  0
 18 19  1  0  0  0  0
 18 43  1  0  0  0  0
 19 20  2  0  0  0  0
 19 44  1  0  0  0  0
M  END
> <s_m_source_file>
AV-unprocessed.smi

> <i_m_source_file_index>
895

> <i_lp_mmshare_version>
43012

> <i_f3d_flags>
0

> <s_epik_input>
W0NIM11DKFtDSDNdKShbT0hdKVtDSDJdW05IXUMoPU8pW05IXVtDQEBIXTFbQ0gyXVtDSDJdW0NIMl1bQ0gyXVtDQEhdMW4yW2NIXVtjSF1bY0hdbjI=

> <s_epik_cmdline>
J2VwaWtfcHl0aG9uJywgJy1waCcsICc3LjAnLCAnLXRuJywgJzgnLCAnLW1hJywgJzIwMCcsICctbWV0YWxfYmluZGluZycsICctaW1hZScsICc8aW5maWxlLm1hZT4nLCAnLW9tYWUnLCAnPG91dGZpbGUubWFlPic=

> <r_lp_tautomer_probability>
1

> <r_epik_Ionization_Penalty>
0.000440451

> <r_epik_Ionization_Penalty_Charging>
0

> <r_epik_Ionization_Penalty_Neutral>
0.000440451

> <r_epik_State_Penalty>
-0

> <r_epik_Charging_Adjusted_Penalty>
0

> <i_epik_Tot_Q>
0

> <i_epik_Tot_abs_Q>
0

> <r_epik_Metal_State_Penalty>
-0

> <b_epik_Metal_Only>
0

> <s_lp_Force_Field>
OPLS_2005

> <r_lp_Energy>
11.0588

> <b_lp_Chiralities_Consistent>
1

> <s_lp_Variant>
AV-unprocessed.smi:895-4

> <Gold.Version>
5.8.1

> <Gold.Id.Protein>
6NUR|6NUR_protein|mol2

> <Gold.PLP.Fitness>
49.0079

> <Gold.PLP.PLP>
-37.3469

> <Gold.PLP.part.hbond>
-2.8172

> <Gold.PLP.part.metal>
0.0000

> <Gold.PLP.part.buried>
-4.9447

> <Gold.PLP.part.nonpolar>
-31.2116

> <Gold.PLP.part.repulsive>
0.9275

> <Gold.PLP.ligand.clash>
0.0000

> <Gold.PLP.ligand.torsion>
0.1350

> <Gold.PLP.Chemscore.Hbond>
2.9600

> <Gold.PLP.Chemscore.CHOScore>
1.0000

> <Gold.PLP.Chemscore.Metal>
0.0000

> <Gold.Chemscore.Hbonds>
donor molecule, donor type, donor heavy atom, donor atom, acceptor molecule, acceptor atom, score
      L1  H     4    27       P1  7957  1.00
      L1  H     6    30       P1  7948  0.96
      L1  H     9    31       P1  7948  1.00
      L1  C    17    42       P1 10747  1.00

> <Gold.PLP.Chemscore.Internal.Correction>
0.0509

> <Gold.Rescore>
     Score         DG    S(hbond)    S(metal)    S(lipo)     H(rot)  DE(clash)    DE(int)     intcor
     17.06     -18.94       2.88        0.00      80.73       2.19       0.07       1.80       ----

> <Gold.Chemscore.Fitness>
17.0624

> <Gold.Chemscore.DG>
-18.9378

> <Gold.Chemscore.ZeroCoef>
-5.4800

> <Gold.Chemscore.Hbond>
2.8812

> <Gold.Chemscore.Metal>
0.0000

> <Gold.Chemscore.Lipo>
80.7347

> <Gold.Chemscore.Internal_Hbond>
0.0000

> <Gold.Chemscore.DEClash>
0.0708

> <Gold.Chemscore.DEInternal>
1.8045

> <Gold.Chemscore.Rot>
2.1919

> <Gold.Chemscore.Internal.Correction>
   9.000000E+99

> <Gold.Chemscore.Hbonds>
donor molecule, donor type, donor heavy atom, donor atom, acceptor molecule, acceptor atom, score
      L1  H     4    27       P1  7957  0.96
      L1  H     6    30       P1  7948  0.92
      L1  H     9    31       P1  7948  0.97

> <Gold.Chemscore.Hbond.Weighted>
-9.6231

> <Gold.Chemscore.Metal.Weighted>
-0.0000

> <Gold.Chemscore.Lipo.Weighted>
-9.4460

> <Gold.Chemscore.Internal_Hbond.Weighted>
0.0000

> <Gold.Chemscore.DEClash.Weighted>
0.0708

> <Gold.Chemscore.DEInternal.Weighted>
1.8045

> <Gold.Chemscore.Rot.Weighted>
5.6113

> <Gold.Chemscore.Internal.Correction.Weighted>
   9.000000E+99

> <Gold.Protein.RotatedTorsions>
[ 6907 6896 6895 6894 ] final -143.57 input  -60.11 | X-H torsion
[ 7974 7965 7964 7962 ] final  -47.15 input  175.53 | X-H torsion
[ 8008 7997 7996 7995 ] final  150.48 input   59.86 | X-H torsion
[ 10167 10162 10161 10158 ] final   65.49 input  -65.29 | X-H torsion
[ 10718 10713 10712 10709 ] final   71.14 input   66.30 | X-H torsion
[ 10763 10752 10751 10750 ] final   82.73 input  -60.55 | X-H torsion
[ 11005 11000 10999 10996 ] final  -44.42 input  -57.11 | X-H torsion

> <Gold.Protein.ActiveResidues>
 VAL166  LYS551  ARG553  GLY616  TRP617  ASP618  TYR619  PRO620  LYS621  CYS622 
 ASP623  PHE694  ASN695  SER759  ASP760  ASP761  ALA762  ILE779  LEU786  VAL792 
 PHE793  MET794  SER795  GLU796  ALA797  LYS798  CYS799  TRP800  GLU811  SER814 

> <Gold.Protein.RotatedAtoms>
  151.1023  133.5234  159.2609 H   0  0  0  0  0  0  0  0  0  0  0  0  # atno 6907 bound_to 6896
  151.2061  135.0462  159.8902 H   0  0  0  0  0  0  0  0  0  0  0  0  # atno 6908 bound_to 6896
  152.5444  134.0844  159.8303 H   0  0  0  0  0  0  0  0  0  0  0  0  # atno 6909 bound_to 6896
  145.9645  140.7445  142.9441 H   0  0  0  0  0  0  0  0  0  0  0  0  # atno 7974 bound_to 7965
  156.2714  140.2073  156.6025 H   0  0  0  0  0  0  0  0  0  0  0  0  # atno 8008 bound_to 7997
  154.6896  140.0531  157.0373 H   0  0  0  0  0  0  0  0  0  0  0  0  # atno 8009 bound_to 7997
  155.0886  140.3194  155.4583 H   0  0  0  0  0  0  0  0  0  0  0  0  # atno 8010 bound_to 7997
  140.1107  144.4821  150.6980 H   0  0  0  0  0  0  0  0  0  0  0  0  # atno 10167 bound_to 10162
  157.6436  130.9513  150.0747 H   0  0  0  0  0  0  0  0  0  0  0  0  # atno 10718 bound_to 10713
  153.1228  135.4717  154.9224 H   0  0  0  0  0  0  0  0  0  0  0  0  # atno 10763 bound_to 10752
  154.7592  135.3127  154.8413 H   0  0  0  0  0  0  0  0  0  0  0  0  # atno 10764 bound_to 10752
  153.8974  135.6878  153.4811 H   0  0  0  0  0  0  0  0  0  0  0  0  # atno 10765 bound_to 10752
  141.0449  133.6765  156.2870 H   0  0  0  0  0  0  0  0  0  0  0  0  # atno 11005 bound_to 11000
  144.6822  140.2647  143.7314 LP  0  0  0  0  0  0  0  0  0  0  0  0  # atno 17320 bound_to 7965
  145.7993  139.1958  143.2057 LP  0  0  0  0  0  0  0  0  0  0  0  0  # atno 17321 bound_to 7965
  140.6927  143.2385  151.5086 LP  0  0  0  0  0  0  0  0  0  0  0  0  # atno 17342 bound_to 10162
  139.5621  144.2131  152.1707 LP  0  0  0  0  0  0  0  0  0  0  0  0  # atno 17343 bound_to 10162
  156.1741  130.3647  149.9124 LP  0  0  0  0  0  0  0  0  0  0  0  0  # atno 17370 bound_to 10713
  156.7093  130.8964  151.3607 LP  0  0  0  0  0  0  0  0  0  0  0  0  # atno 17371 bound_to 10713
  140.6165  134.5405  157.5541 LP  0  0  0  0  0  0  0  0  0  0  0  0  # atno 17394 bound_to 11000
  139.9304  134.7974  156.0947 LP  0  0  0  0  0  0  0  0  0  0  0  0  # atno 17395 bound_to 11000

$$$$
