AV-unprocessed.smi:564|AV-procd|sdf|2947|dock2
  -GOLD-   2262023443D 1   1.00000     0.00000
 Structure written by MMmdl.
 50 51  0  0  0  0  0  0  0  0  2 V2000
  153.0553  137.4992  157.1446 C   0  0  0  0  0  0  0  0  0  0  0  0
  152.2067  138.6110  156.5966 C   0  0  0  0  0  0  0  0  0  0  0  0
  152.2040  139.7815  157.2110 N   0  0  0  0  0  0  0  0  0  0  0  0
  151.3510  140.5446  156.4996 N   0  0  0  0  0  0  0  0  0  0  0  0
  151.1088  141.9100  156.9244 C   0  0  0  0  0  0  0  0  0  0  0  0
  150.8215  139.8573  155.4236 C   0  0  0  0  0  0  0  0  0  0  0  0
  149.8485  140.4791  154.4735 C   0  0  0  0  0  0  0  0  0  0  0  0
  151.3535  138.5953  155.4537 C   0  0  0  0  0  0  0  0  0  0  0  0
  151.1084  137.4447  154.5087 C   0  0  0  0  0  0  0  0  0  0  0  0
  150.3135  136.3602  155.2337 C   0  0  0  0  0  0  0  0  0  0  0  0
  150.7688  135.8333  156.2480 O   0  0  0  0  0  0  0  0  0  0  0  0
  149.1440  136.0062  154.6788 N   0  0  0  0  0  0  0  0  0  0  0  0
  148.3103  134.8911  155.1181 C   0  0  0  0  0  0  0  0  0  0  0  0
  146.8356  135.0448  154.6797 C   0  0  0  0  0  0  0  0  0  0  0  0
  146.6404  134.8916  153.2078 N   0  3  2  0  0  0  0  0  0  0  0  0
  145.5848  135.8172  152.7081 C   0  0  0  0  0  0  0  0  0  0  0  0
  145.4750  135.7915  151.1789 C   0  0  0  0  0  0  0  0  0  0  0  0
  145.1928  134.3724  150.6871 C   0  0  0  0  0  0  0  0  0  0  0  0
  146.2805  133.4298  151.2071 C   0  0  0  0  0  0  0  0  0  0  0  0
  146.4181  133.4831  152.7455 C   0  0  1  0  0  0  0  0  0  0  0  0
  147.5510  132.5232  153.1648 C   0  0  0  0  0  0  0  0  0  0  0  0
  153.4463  136.8689  156.3459 H   0  0  0  0  0  0  0  0  0  0  0  0
  152.4774  136.8638  157.8160 H   0  0  0  0  0  0  0  0  0  0  0  0
  153.9091  137.8851  157.7034 H   0  0  0  0  0  0  0  0  0  0  0  0
  150.0713  142.1838  156.7319 H   0  0  0  0  0  0  0  0  0  0  0  0
  151.7652  142.5873  156.3785 H   0  0  0  0  0  0  0  0  0  0  0  0
  151.3018  142.0149  157.9931 H   0  0  0  0  0  0  0  0  0  0  0  0
  149.8064  139.9279  153.5344 H   0  0  0  0  0  0  0  0  0  0  0  0
  150.1250  141.5068  154.2391 H   0  0  0  0  0  0  0  0  0  0  0  0
  148.8465  140.4886  154.9022 H   0  0  0  0  0  0  0  0  0  0  0  0
  150.5520  137.7680  153.6282 H   0  0  0  0  0  0  0  0  0  0  0  0
  152.0412  137.0195  154.1366 H   0  0  0  0  0  0  0  0  0  0  0  0
  148.8402  136.5090  153.8572 H   0  0  0  0  0  0  0  0  0  0  0  0
  148.7189  133.9507  154.7446 H   0  0  0  0  0  0  0  0  0  0  0  0
  148.3769  134.8347  156.2044 H   0  0  0  0  0  0  0  0  0  0  0  0
  146.2811  134.2851  155.2237 H   0  0  0  0  0  0  0  0  0  0  0  0
  146.4322  136.0009  155.0158 H   0  0  0  0  0  0  0  0  0  0  0  0
  144.6257  135.5495  153.1546 H   0  0  0  0  0  0  0  0  0  0  0  0
  145.8002  136.8395  153.0169 H   0  0  0  0  0  0  0  0  0  0  0  0
  144.6837  136.4652  150.8489 H   0  0  0  0  0  0  0  0  0  0  0  0
  146.4010  136.1597  150.7385 H   0  0  0  0  0  0  0  0  0  0  0  0
  144.2140  134.0426  151.0378 H   0  0  0  0  0  0  0  0  0  0  0  0
  145.1623  134.3490  149.5974 H   0  0  0  0  0  0  0  0  0  0  0  0
  146.0559  132.4120  150.8860 H   0  0  0  0  0  0  0  0  0  0  0  0
  147.2326  133.6912  150.7446 H   0  0  0  0  0  0  0  0  0  0  0  0
  145.4857  133.1260  153.1861 H   0  0  0  0  0  0  0  0  0  0  0  0
  147.4612  131.5655  152.6513 H   0  0  0  0  0  0  0  0  0  0  0  0
  147.5328  132.2935  154.2293 H   0  0  0  0  0  0  0  0  0  0  0  0
  148.5304  132.9342  152.9200 H   0  0  0  0  0  0  0  0  0  0  0  0
  147.5085  135.1836  152.7812 H   0  0  0  0  0  0  0  0  0  0  0  0
  1  2  1  0  0  0  0
  1 22  1  0  0  0  0
  1 23  1  0  0  0  0
  1 24  1  0  0  0  0
  2  8  1  0  0  0  0
  2  3  2  0  0  0  0
  3  4  1  0  0  0  0
  4  5  1  0  0  0  0
  4  6  1  0  0  0  0
  5 25  1  0  0  0  0
  5 26  1  0  0  0  0
  5 27  1  0  0  0  0
  6  7  1  0  0  0  0
  6  8  2  0  0  0  0
  7 28  1  0  0  0  0
  7 29  1  0  0  0  0
  7 30  1  0  0  0  0
  8  9  1  0  0  0  0
  9 10  1  0  0  0  0
  9 31  1  0  0  0  0
  9 32  1  0  0  0  0
 10 11  2  0  0  0  0
 10 12  1  0  0  0  0
 12 13  1  0  0  0  0
 12 33  1  0  0  0  0
 13 14  1  0  0  0  0
 13 34  1  0  0  0  0
 13 35  1  0  0  0  0
 14 15  1  0  0  0  0
 14 36  1  0  0  0  0
 14 37  1  0  0  0  0
 15 20  1  0  0  0  0
 15 16  1  0  0  0  0
 15 50  1  0  0  0  0
 16 17  1  0  0  0  0
 16 38  1  0  0  0  0
 16 39  1  0  0  0  0
 17 18  1  0  0  0  0
 17 40  1  0  0  0  0
 17 41  1  0  0  0  0
 18 19  1  0  0  0  0
 18 42  1  0  0  0  0
 18 43  1  0  0  0  0
 19 20  1  0  0  0  0
 19 44  1  0  0  0  0
 19 45  1  0  0  0  0
 20 21  1  0  0  0  0
 20 46  1  0  0  0  0
 21 47  1  0  0  0  0
 21 48  1  0  0  0  0
 21 49  1  0  0  0  0
M  CHG  1  15   1
M  END
> <s_m_source_file>
AV-unprocessed.smi

> <i_m_source_file_index>
564

> <i_lp_mmshare_version>
43012

> <i_f3d_flags>
0

> <s_epik_input>
W0NIM11jMW5uKFtDSDNdKWMoW0NIM10pYzFbQ0gyXUMoPU8pW05IXVtDSDJdW0NIMl1OMltDSDJdW0NIMl1bQ0gyXVtDSDJdW0NASF0yW0NIM10=

> <s_epik_cmdline>
J2VwaWtfcHl0aG9uJywgJy1waCcsICc3LjAnLCAnLXRuJywgJzgnLCAnLW1hJywgJzIwMCcsICctbWV0YWxfYmluZGluZycsICctaW1hZScsICc8aW5maWxlLm1hZT4nLCAnLW9tYWUnLCAnPG91dGZpbGUubWFlPic=

> <r_lp_tautomer_probability>
1

> <r_epik_Ionization_Penalty>
0.00456826

> <r_epik_Ionization_Penalty_Charging>
0.00240401

> <r_epik_Ionization_Penalty_Neutral>
0.00216425

> <r_epik_State_Penalty>
-0

> <r_epik_Charging_Adjusted_Penalty>
0.00240401

> <i_epik_Tot_Q>
1

> <i_epik_Tot_abs_Q>
1

> <r_epik_Metal_State_Penalty>
-0

> <b_epik_Metal_Only>
0

> <s_lp_Force_Field>
OPLS_2005

> <r_lp_Energy>
16.6365

> <b_lp_Chiralities_Consistent>
1

> <s_lp_Variant>
AV-unprocessed.smi:564-1

> <Gold.Version>
5.8.1

> <Gold.Id.Protein>
6NUR|6NUR_protein|mol2

> <Gold.PLP.Fitness>
47.8513

> <Gold.PLP.PLP>
-38.2915

> <Gold.PLP.part.hbond>
-4.0000

> <Gold.PLP.part.metal>
0.0000

> <Gold.PLP.part.buried>
2.0830

> <Gold.PLP.part.nonpolar>
-35.8753

> <Gold.PLP.part.repulsive>
0.0864

> <Gold.PLP.ligand.clash>
0.0000

> <Gold.PLP.ligand.torsion>
0.6855

> <Gold.PLP.Chemscore.Hbond>
3.6240

> <Gold.PLP.Chemscore.CHOScore>
0.0000

> <Gold.PLP.Chemscore.Metal>
0.0000

> <Gold.Chemscore.Hbonds>
donor molecule, donor type, donor heavy atom, donor atom, acceptor molecule, acceptor atom, score
      L1  H    12    33       P1  7948  0.70
      L1  H    15    50       P1  7948  2.00
      P1  H  7997  8010       L1     3  0.01

> <Gold.PLP.Chemscore.Internal.Correction>
0.0588

> <Gold.Rescore>
     Score         DG    S(hbond)    S(metal)    S(lipo)     H(rot)  DE(clash)    DE(int)     intcor
     17.51     -18.76       2.12        0.00      88.28       1.61       0.25       1.00       ----

> <Gold.Chemscore.Fitness>
17.5081

> <Gold.Chemscore.DG>
-18.7565

> <Gold.Chemscore.ZeroCoef>
-5.4800

> <Gold.Chemscore.Hbond>
2.1200

> <Gold.Chemscore.Metal>
0.0000

> <Gold.Chemscore.Lipo>
88.2760

> <Gold.Chemscore.Internal_Hbond>
0.0000

> <Gold.Chemscore.DEClash>
0.2489

> <Gold.Chemscore.DEInternal>
0.9995

> <Gold.Chemscore.Rot>
1.6142

> <Gold.Chemscore.Internal.Correction>
   9.000000E+99

> <Gold.Chemscore.Hbonds>
donor molecule, donor type, donor heavy atom, donor atom, acceptor molecule, acceptor atom, score
      L1  H    12    33       P1  7948  0.67
      L1  H    15    50       P1  7948  0.97

> <Gold.Chemscore.Hbond.Weighted>
-7.0807

> <Gold.Chemscore.Metal.Weighted>
-0.0000

> <Gold.Chemscore.Lipo.Weighted>
-10.3283

> <Gold.Chemscore.Internal_Hbond.Weighted>
0.0000

> <Gold.Chemscore.DEClash.Weighted>
0.2489

> <Gold.Chemscore.DEInternal.Weighted>
0.9995

> <Gold.Chemscore.Rot.Weighted>
4.1324

> <Gold.Chemscore.Internal.Correction.Weighted>
   9.000000E+99

> <Gold.Protein.RotatedTorsions>
[ 6907 6896 6895 6894 ] final  -51.45 input  -60.11 | X-H torsion
[ 7974 7965 7964 7962 ] final  106.91 input  175.53 | X-H torsion
[ 8008 7997 7996 7995 ] final   87.90 input   59.86 | X-H torsion
[ 10167 10162 10161 10158 ] final -170.08 input  -65.29 | X-H torsion
[ 10718 10713 10712 10709 ] final  157.20 input   66.30 | X-H torsion
[ 10763 10752 10751 10750 ] final   73.58 input  -60.55 | X-H torsion
[ 11005 11000 10999 10996 ] final  177.39 input  -57.11 | X-H torsion

> <Gold.Protein.ActiveResidues>
 VAL166  LYS551  ARG553  GLY616  TRP617  ASP618  TYR619  PRO620  LYS621  CYS622 
 ASP623  PHE694  ASN695  SER759  ASP760  ASP761  ALA762  ILE779  LEU786  VAL792 
 PHE793  MET794  SER795  GLU796  ALA797  LYS798  CYS799  TRP800  GLU811  SER814 

> <Gold.Protein.RotatedAtoms>
  150.8610  134.7962  159.7082 H   0  0  0  0  0  0  0  0  0  0  0  0  # atno 6907 bound_to 6896
  152.4647  134.5100  159.9760 H   0  0  0  0  0  0  0  0  0  0  0  0  # atno 6908 bound_to 6896
  151.5204  133.3429  159.2936 H   0  0  0  0  0  0  0  0  0  0  0  0  # atno 6909 bound_to 6896
  145.3005  139.2571  143.3816 H   0  0  0  0  0  0  0  0  0  0  0  0  # atno 7974 bound_to 7965
  155.9811  140.3377  155.6664 H   0  0  0  0  0  0  0  0  0  0  0  0  # atno 8008 bound_to 7997
  155.6547  140.0709  157.2593 H   0  0  0  0  0  0  0  0  0  0  0  0  # atno 8009 bound_to 7997
  154.4192  140.1719  156.1700 H   0  0  0  0  0  0  0  0  0  0  0  0  # atno 8010 bound_to 7997
  139.5883  144.1269  152.1603 H   0  0  0  0  0  0  0  0  0  0  0  0  # atno 10167 bound_to 10162
  157.1946  131.0662  151.2060 H   0  0  0  0  0  0  0  0  0  0  0  0  # atno 10718 bound_to 10713
  153.0531  135.5057  154.7915 H   0  0  0  0  0  0  0  0  0  0  0  0  # atno 10763 bound_to 10752
  154.6762  135.2961  154.9678 H   0  0  0  0  0  0  0  0  0  0  0  0  # atno 10764 bound_to 10752
  154.0479  135.6708  153.4850 H   0  0  0  0  0  0  0  0  0  0  0  0  # atno 10765 bound_to 10752
  140.3835  134.6925  157.4465 H   0  0  0  0  0  0  0  0  0  0  0  0  # atno 11005 bound_to 11000
  146.3153  140.3518  142.8657 LP  0  0  0  0  0  0  0  0  0  0  0  0  # atno 17320 bound_to 7965
  144.9097  140.7743  143.5815 LP  0  0  0  0  0  0  0  0  0  0  0  0  # atno 17321 bound_to 7965
  140.0838  144.5679  150.7103 LP  0  0  0  0  0  0  0  0  0  0  0  0  # atno 17342 bound_to 10162
  140.7151  143.2537  151.4460 LP  0  0  0  0  0  0  0  0  0  0  0  0  # atno 17343 bound_to 10162
  157.3826  130.7239  149.6641 LP  0  0  0  0  0  0  0  0  0  0  0  0  # atno 17370 bound_to 10713
  155.9707  130.4168  150.4249 LP  0  0  0  0  0  0  0  0  0  0  0  0  # atno 17371 bound_to 10713
  140.0460  134.6199  155.8920 LP  0  0  0  0  0  0  0  0  0  0  0  0  # atno 17394 bound_to 11000
  141.1915  133.6572  156.5460 LP  0  0  0  0  0  0  0  0  0  0  0  0  # atno 17395 bound_to 11000

$$$$
