AV-unprocessed.smi:1952|AV-procd|sdf|7892|dock9
  -GOLD-   2272010 53D 1   1.00000     0.00000
 Structure written by MMmdl.
 39 40  0  0  0  0  0  0  0  0  3 V2000
  153.1630  143.2356  159.6754 C   0  0  0  0  0  0  0  0  0  0  0  0
  152.3479  142.6951  158.5512 C   0  0  0  0  0  0  0  0  0  0  0  0
  151.4925  143.2783  157.6593 C   0  0  0  0  0  0  0  0  0  0  0  0
  151.0563  142.1818  156.8689 C   0  0  0  0  0  0  0  0  0  0  0  0
  150.1376  142.3769  155.8044 N   0  0  0  0  0  0  0  0  0  0  0  0
  149.4538  141.4549  155.1036 C   0  0  0  0  0  0  0  0  0  0  0  0
  149.5693  140.2527  155.3704 O   0  0  0  0  0  0  0  0  0  0  0  0
  148.6878  142.0124  154.1250 N   0  5  0  0  0  0  0  0  0  0  0  0
  147.3045  141.6341  153.8086 C   0  0  1  0  0  0  0  0  0  0  0  0
  146.4370  142.9004  153.8046 C   0  0  0  0  0  0  0  0  0  0  0  0
  147.2464  140.9085  152.4418 C   0  0  0  0  0  0  0  0  0  0  0  0
  146.5139  139.6160  152.5189 N   0  3  0  0  0  0  0  0  0  0  0  0
  146.6816  138.7408  151.3315 C   0  0  0  0  0  0  0  0  0  0  0  0
  145.7835  137.5004  151.4641 C   0  0  0  0  0  0  0  0  0  0  0  0
  146.1024  136.8078  152.6657 O   0  0  0  0  0  0  0  0  0  0  0  0
  145.8797  137.6108  153.8192 C   0  0  0  0  0  0  0  0  0  0  0  0
  146.7778  138.8577  153.7637 C   0  0  0  0  0  0  0  0  0  0  0  0
  151.6038  141.0338  157.2404 N   0  0  0  0  0  0  0  0  0  0  0  0
  152.4321  141.3567  158.3218 O   0  0  0  0  0  0  0  0  0  0  0  0
  153.2166  144.3233  159.6291 H   0  0  0  0  0  0  0  0  0  0  0  0
  154.1804  142.8454  159.6398 H   0  0  0  0  0  0  0  0  0  0  0  0
  152.7267  142.9589  160.6352 H   0  0  0  0  0  0  0  0  0  0  0  0
  151.2204  144.3210  157.5879 H   0  0  0  0  0  0  0  0  0  0  0  0
  149.9747  143.3373  155.5401 H   0  0  0  0  0  0  0  0  0  0  0  0
  146.8889  140.9654  154.5638 H   0  0  0  0  0  0  0  0  0  0  0  0
  145.3965  142.6606  153.5841 H   0  0  0  0  0  0  0  0  0  0  0  0
  146.7776  143.6172  153.0564 H   0  0  0  0  0  0  0  0  0  0  0  0
  146.4586  143.3959  154.7759 H   0  0  0  0  0  0  0  0  0  0  0  0
  146.7835  141.5459  151.6870 H   0  0  0  0  0  0  0  0  0  0  0  0
  148.2682  140.7382  152.0978 H   0  0  0  0  0  0  0  0  0  0  0  0
  146.4220  139.2827  150.4215 H   0  0  0  0  0  0  0  0  0  0  0  0
  147.7265  138.4407  151.2394 H   0  0  0  0  0  0  0  0  0  0  0  0
  144.7289  137.7812  151.4591 H   0  0  0  0  0  0  0  0  0  0  0  0
  145.9395  136.8311  150.6178 H   0  0  0  0  0  0  0  0  0  0  0  0
  144.8272  137.8930  153.8826 H   0  0  0  0  0  0  0  0  0  0  0  0
  146.1066  137.0232  154.7089 H   0  0  0  0  0  0  0  0  0  0  0  0
  147.8301  138.5723  153.8057 H   0  0  0  0  0  0  0  0  0  0  0  0
  146.5771  139.4890  154.6303 H   0  0  0  0  0  0  0  0  0  0  0  0
  145.5367  139.8740  152.5551 H   0  0  0  0  0  0  0  0  0  0  0  0
  1  2  1  0  0  0  0
  1 20  1  0  0  0  0
  1 21  1  0  0  0  0
  1 22  1  0  0  0  0
  2 19  1  0  0  0  0
  2  3  2  0  0  0  0
  3  4  1  0  0  0  0
  3 23  1  0  0  0  0
  4  5  1  0  0  0  0
  4 18  2  0  0  0  0
  5  6  1  0  0  0  0
  5 24  1  0  0  0  0
  6  7  2  0  0  0  0
  6  8  1  0  0  0  0
  8  9  1  0  0  0  0
  9 10  1  0  0  0  0
  9 11  1  0  0  0  0
  9 25  1  0  0  0  0
 10 26  1  0  0  0  0
 10 27  1  0  0  0  0
 10 28  1  0  0  0  0
 11 12  1  0  0  0  0
 11 29  1  0  0  0  0
 11 30  1  0  0  0  0
 12 17  1  0  0  0  0
 12 13  1  0  0  0  0
 12 39  1  0  0  0  0
 13 14  1  0  0  0  0
 13 31  1  0  0  0  0
 13 32  1  0  0  0  0
 14 15  1  0  0  0  0
 14 33  1  0  0  0  0
 14 34  1  0  0  0  0
 15 16  1  0  0  0  0
 16 17  1  0  0  0  0
 16 35  1  0  0  0  0
 16 36  1  0  0  0  0
 17 37  1  0  0  0  0
 17 38  1  0  0  0  0
 18 19  1  0  0  0  0
M  CHG  1   8  -1
M  CHG  1  12   1
M  END
> <s_m_source_file>
AV-unprocessed.smi

> <i_m_source_file_index>
1952

> <i_lp_mmshare_version>
43012

> <i_f3d_flags>
0

> <s_epik_input>
W0NIM11jMVtjSF1jKG5vMSlbTkhdQyg9TylbTkhdW0NASF0oW0NIM10pW0NIMl1OMltDSDJdW0NIMl1PW0NIMl1bQ0gyXTI=

> <s_epik_cmdline>
J2VwaWtfcHl0aG9uJywgJy1waCcsICc3LjAnLCAnLXRuJywgJzgnLCAnLW1hJywgJzIwMCcsICctbWV0YWxfYmluZGluZycsICctaW1hZScsICc8aW5maWxlLm1hZT4nLCAnLW9tYWUnLCAnPG91dGZpbGUubWFlPic=

> <r_epik_Ionization_Penalty>
6.76648

> <r_epik_Ionization_Penalty_Charging>
6.76648

> <r_epik_Ionization_Penalty_Neutral>
5.6208e-06

> <r_epik_State_Penalty>
7.45901

> <r_epik_Charging_Adjusted_Penalty>
14.2255

> <i_epik_Tot_Q>
0

> <i_epik_Tot_abs_Q>
2

> <r_epik_Metal_State_Penalty>
3.38802

> <b_epik_Metal_Only>
1

> <s_lp_Force_Field>
OPLS_2005

> <r_lp_Energy>
9.12096

> <b_lp_Chiralities_Consistent>
1

> <s_lp_Variant>
AV-unprocessed.smi:1952-10

> <Gold.Version>
5.8.1

> <Gold.Id.Protein>
6NUR|6NUR_protein|mol2

> <Gold.PLP.Fitness>
39.9428

> <Gold.PLP.PLP>
-33.2496

> <Gold.PLP.part.hbond>
-3.0000

> <Gold.PLP.part.metal>
0.0000

> <Gold.PLP.part.buried>
-3.2714

> <Gold.PLP.part.nonpolar>
-28.6727

> <Gold.PLP.part.repulsive>
0.7637

> <Gold.PLP.ligand.clash>
0.0000

> <Gold.PLP.ligand.torsion>
1.3205

> <Gold.PLP.Chemscore.Hbond>
3.0657

> <Gold.PLP.Chemscore.CHOScore>
0.0000

> <Gold.PLP.Chemscore.Metal>
0.0000

> <Gold.Chemscore.Hbonds>
donor molecule, donor type, donor heavy atom, donor atom, acceptor molecule, acceptor atom, score
      L1  H     5    24       P1  8028  0.94
      L1  H    12    39       P1 10175  2.00
      P1  H  8011  8017       L1     8  0.29

> <Gold.PLP.Chemscore.Internal.Correction>
0.1371

> <Gold.Rescore>
     Score         DG    S(hbond)    S(metal)    S(lipo)     H(rot)  DE(clash)    DE(int)     intcor
     13.99     -17.62       2.01        0.00      81.00       1.58       0.90       2.72       ----

> <Gold.Chemscore.Fitness>
13.9941

> <Gold.Chemscore.DG>
-17.6188

> <Gold.Chemscore.ZeroCoef>
-5.4800

> <Gold.Chemscore.Hbond>
2.0078

> <Gold.Chemscore.Metal>
0.0000

> <Gold.Chemscore.Lipo>
80.9990

> <Gold.Chemscore.Internal_Hbond>
0.0000

> <Gold.Chemscore.DEClash>
0.8998

> <Gold.Chemscore.DEInternal>
2.7249

> <Gold.Chemscore.Rot>
1.5798

> <Gold.Chemscore.Internal.Correction>
   9.000000E+99

> <Gold.Chemscore.Hbonds>
donor molecule, donor type, donor heavy atom, donor atom, acceptor molecule, acceptor atom, score
      L1  H     5    24       P1  8028  0.91
      L1  H    12    39       P1 10175  0.97
      P1  H  8011  8017       L1     8  0.20

> <Gold.Chemscore.Hbond.Weighted>
-6.7062

> <Gold.Chemscore.Metal.Weighted>
-0.0000

> <Gold.Chemscore.Lipo.Weighted>
-9.4769

> <Gold.Chemscore.Internal_Hbond.Weighted>
0.0000

> <Gold.Chemscore.DEClash.Weighted>
0.8998

> <Gold.Chemscore.DEInternal.Weighted>
2.7249

> <Gold.Chemscore.Rot.Weighted>
4.0442

> <Gold.Chemscore.Internal.Correction.Weighted>
   9.000000E+99

> <Gold.Protein.RotatedTorsions>
[ 6907 6896 6895 6894 ] final -176.73 input  -60.11 | X-H torsion
[ 7974 7965 7964 7962 ] final  -84.72 input  175.53 | X-H torsion
[ 8008 7997 7996 7995 ] final  -80.40 input   59.86 | X-H torsion
[ 10167 10162 10161 10158 ] final   53.08 input  -65.29 | X-H torsion
[ 10718 10713 10712 10709 ] final -124.15 input   66.30 | X-H torsion
[ 10763 10752 10751 10750 ] final  -13.95 input  -60.55 | X-H torsion
[ 11005 11000 10999 10996 ] final  -33.54 input  -57.11 | X-H torsion

> <Gold.Protein.ActiveResidues>
 VAL166  LYS551  ARG553  GLY616  TRP617  ASP618  TYR619  PRO620  LYS621  CYS622 
 ASP623  PHE694  ASN695  SER759  ASP760  ASP761  ALA762  ILE779  LEU786  VAL792 
 PHE793  MET794  SER795  GLU796  ALA797  LYS798  CYS799  TRP800  GLU811  SER814 

> <Gold.Protein.RotatedAtoms>
  151.6096  133.3348  159.3064 H   0  0  0  0  0  0  0  0  0  0  0  0  # atno 6907 bound_to 6896
  150.8164  134.7351  159.6745 H   0  0  0  0  0  0  0  0  0  0  0  0  # atno 6908 bound_to 6896
  152.4259  134.5874  160.0016 H   0  0  0  0  0  0  0  0  0  0  0  0  # atno 6909 bound_to 6896
  145.5029  140.9546  143.1750 H   0  0  0  0  0  0  0  0  0  0  0  0  # atno 7974 bound_to 7965
  154.5879  140.0663  156.9198 H   0  0  0  0  0  0  0  0  0  0  0  0  # atno 8008 bound_to 7997
  155.2346  140.3340  155.4281 H   0  0  0  0  0  0  0  0  0  0  0  0  # atno 8009 bound_to 7997
  156.2236  140.1809  156.7403 H   0  0  0  0  0  0  0  0  0  0  0  0  # atno 8010 bound_to 7997
  140.2446  144.3546  150.6368 H   0  0  0  0  0  0  0  0  0  0  0  0  # atno 10167 bound_to 10162
  156.1563  130.6570  150.9986 H   0  0  0  0  0  0  0  0  0  0  0  0  # atno 10718 bound_to 10713
  153.5209  135.7015  153.5732 H   0  0  0  0  0  0  0  0  0  0  0  0  # atno 10763 bound_to 10752
  153.3781  135.3927  155.1837 H   0  0  0  0  0  0  0  0  0  0  0  0  # atno 10764 bound_to 10752
  154.8694  135.3828  154.4698 H   0  0  0  0  0  0  0  0  0  0  0  0  # atno 10765 bound_to 10752
  140.9643  133.7146  156.1419 H   0  0  0  0  0  0  0  0  0  0  0  0  # atno 11005 bound_to 11000
  144.7770  139.6608  143.7170 LP  0  0  0  0  0  0  0  0  0  0  0  0  # atno 17320 bound_to 7965
  146.2215  139.5644  142.9615 LP  0  0  0  0  0  0  0  0  0  0  0  0  # atno 17321 bound_to 7965
  140.6087  143.2168  151.6929 LP  0  0  0  0  0  0  0  0  0  0  0  0  # atno 17342 bound_to 10162
  139.5066  144.3676  152.0501 LP  0  0  0  0  0  0  0  0  0  0  0  0  # atno 17343 bound_to 10162
  157.6698  131.0864  150.7641 LP  0  0  0  0  0  0  0  0  0  0  0  0  # atno 17370 bound_to 10713
  156.7706  130.4827  149.5419 LP  0  0  0  0  0  0  0  0  0  0  0  0  # atno 17371 bound_to 10713
  140.7422  134.4137  157.5553 LP  0  0  0  0  0  0  0  0  0  0  0  0  # atno 17394 bound_to 11000
  139.8889  134.8844  156.2450 LP  0  0  0  0  0  0  0  0  0  0  0  0  # atno 17395 bound_to 11000

$$$$
