AV-unprocessed.smi:610|AV-procd|sdf|3055|dock6
  -GOLD-   2262023573D 1   1.00000     0.00000
 Structure written by MMmdl.
 38 39  0  0  0  0  0  0  0  0  2 V2000
  150.3876  140.6452  155.5045 C   0  0  0  0  0  0  0  0  0  0  0  0
  149.1642  141.2893  156.1735 C   0  0  2  0  0  0  0  0  0  0  0  0
  148.1017  141.7057  155.1383 C   0  0  0  0  0  0  0  0  0  0  0  0
  147.4578  140.5576  154.5260 N   0  0  0  0  0  0  0  0  0  0  0  0
  147.4910  140.1934  153.1865 C   0  0  0  0  0  0  0  0  0  0  0  0
  146.7592  139.0325  153.0768 C   0  0  0  0  0  0  0  0  0  0  0  0
  146.2692  138.6670  154.3287 N   0  0  0  0  0  0  0  0  0  0  0  0
  146.7168  139.6210  155.1343 C   0  0  0  0  0  0  0  0  0  0  0  0
  149.5767  142.4547  156.9519 N   0  0  0  0  0  0  0  0  0  0  0  0
  150.3081  142.4323  158.0778 C   0  0  0  0  0  0  0  0  0  0  0  0
  150.7622  141.3891  158.5490 O   0  0  0  0  0  0  0  0  0  0  0  0
  150.5552  143.7687  158.8171 C   0  0  0  0  0  0  0  0  0  0  0  0
  149.2452  144.2504  159.2939 N   0  3  0  0  0  0  0  0  0  0  0  0
  151.5374  143.5745  159.9850 C   0  0  0  0  0  0  0  0  0  0  0  0
  152.9359  143.6857  159.3611 C   0  0  0  0  0  0  0  0  0  0  0  0
  152.7698  144.5258  158.0845 C   0  0  0  0  0  0  0  0  0  0  0  0
  151.2727  144.8515  157.9833 C   0  0  0  0  0  0  0  0  0  0  0  0
  150.0988  139.7727  154.9178 H   0  0  0  0  0  0  0  0  0  0  0  0
  151.1147  140.3138  156.2467 H   0  0  0  0  0  0  0  0  0  0  0  0
  150.8892  141.3451  154.8355 H   0  0  0  0  0  0  0  0  0  0  0  0
  148.7123  140.5508  156.8386 H   0  0  0  0  0  0  0  0  0  0  0  0
  147.3378  142.3332  155.6002 H   0  0  0  0  0  0  0  0  0  0  0  0
  148.5586  142.2999  154.3460 H   0  0  0  0  0  0  0  0  0  0  0  0
  148.0212  140.7719  152.4442 H   0  0  0  0  0  0  0  0  0  0  0  0
  146.5504  138.4363  152.2007 H   0  0  0  0  0  0  0  0  0  0  0  0
  146.5106  139.6319  156.1947 H   0  0  0  0  0  0  0  0  0  0  0  0
  149.2484  143.3516  156.6239 H   0  0  0  0  0  0  0  0  0  0  0  0
  148.6536  143.4631  159.5175 H   0  0  0  0  0  0  0  0  0  0  0  0
  148.8124  144.8043  158.5684 H   0  0  0  0  0  0  0  0  0  0  0  0
  151.4087  144.3744  160.7160 H   0  0  0  0  0  0  0  0  0  0  0  0
  151.4043  142.6329  160.5200 H   0  0  0  0  0  0  0  0  0  0  0  0
  153.6483  144.1322  160.0555 H   0  0  0  0  0  0  0  0  0  0  0  0
  153.3117  142.6949  159.1026 H   0  0  0  0  0  0  0  0  0  0  0  0
  153.3717  145.4348  158.1142 H   0  0  0  0  0  0  0  0  0  0  0  0
  153.0948  143.9500  157.2170 H   0  0  0  0  0  0  0  0  0  0  0  0
  150.9280  144.9269  156.9509 H   0  0  0  0  0  0  0  0  0  0  0  0
  151.0992  145.8305  158.4335 H   0  0  0  0  0  0  0  0  0  0  0  0
  149.3760  144.8216  160.1165 H   0  0  0  0  0  0  0  0  0  0  0  0
  1  2  1  0  0  0  0
  1 18  1  0  0  0  0
  1 19  1  0  0  0  0
  1 20  1  0  0  0  0
  2  3  1  0  0  0  0
  2  9  1  0  0  0  0
  2 21  1  0  0  0  0
  3  4  1  0  0  0  0
  3 22  1  0  0  0  0
  3 23  1  0  0  0  0
  4  8  1  0  0  0  0
  4  5  1  0  0  0  0
  5  6  2  0  0  0  0
  5 24  1  0  0  0  0
  6  7  1  0  0  0  0
  6 25  1  0  0  0  0
  7  8  2  0  0  0  0
  8 26  1  0  0  0  0
  9 10  1  0  0  0  0
  9 27  1  0  0  0  0
 10 11  2  0  0  0  0
 10 12  1  0  0  0  0
 12 17  1  0  0  0  0
 12 13  1  0  0  0  0
 12 14  1  0  0  0  0
 13 28  1  0  0  0  0
 13 29  1  0  0  0  0
 13 38  1  0  0  0  0
 14 15  1  0  0  0  0
 14 30  1  0  0  0  0
 14 31  1  0  0  0  0
 15 16  1  0  0  0  0
 15 32  1  0  0  0  0
 15 33  1  0  0  0  0
 16 17  1  0  0  0  0
 16 34  1  0  0  0  0
 16 35  1  0  0  0  0
 17 36  1  0  0  0  0
 17 37  1  0  0  0  0
M  CHG  1  13   1
M  END
> <s_m_source_file>
AV-unprocessed.smi

> <i_m_source_file_index>
610

> <i_lp_mmshare_version>
43012

> <i_f3d_flags>
0

> <s_epik_input>
W2NIXTFuW2NIXVtjSF1uMVtDSDJdW0NAQEhdKFtDSDNdKVtOSF1DKD1PKUMyKFtOSDJdKVtDSDJdW0NIMl1bQ0gyXVtDSDJdMg==

> <s_epik_cmdline>
J2VwaWtfcHl0aG9uJywgJy1waCcsICc3LjAnLCAnLXRuJywgJzgnLCAnLW1hJywgJzIwMCcsICctbWV0YWxfYmluZGluZycsICctaW1hZScsICc8aW5maWxlLm1hZT4nLCAnLW9tYWUnLCAnPG91dGZpbGUubWFlPic=

> <r_lp_tautomer_probability>
1

> <r_epik_Ionization_Penalty>
0.661147

> <r_epik_Ionization_Penalty_Charging>
0.661145

> <r_epik_Ionization_Penalty_Neutral>
1.19451e-06

> <r_epik_State_Penalty>
0.679243

> <r_epik_Charging_Adjusted_Penalty>
1.34039

> <i_epik_Tot_Q>
1

> <i_epik_Tot_abs_Q>
1

> <r_epik_Metal_State_Penalty>
0.372892

> <b_epik_Metal_Only>
0

> <s_lp_Force_Field>
OPLS_2005

> <r_lp_Energy>
25.3563

> <b_lp_Chiralities_Consistent>
1

> <s_lp_Variant>
AV-unprocessed.smi:610-3

> <Gold.Version>
5.8.1

> <Gold.Id.Protein>
6NUR|6NUR_protein|mol2

> <Gold.PLP.Fitness>
42.3217

> <Gold.PLP.PLP>
-30.8289

> <Gold.PLP.part.hbond>
-2.0000

> <Gold.PLP.part.metal>
0.0000

> <Gold.PLP.part.buried>
-1.7837

> <Gold.PLP.part.nonpolar>
-28.4404

> <Gold.PLP.part.repulsive>
0.2746

> <Gold.PLP.ligand.clash>
0.0000

> <Gold.PLP.ligand.torsion>
0.2486

> <Gold.PLP.Chemscore.Hbond>
3.0000

> <Gold.PLP.Chemscore.CHOScore>
0.9815

> <Gold.PLP.Chemscore.Metal>
0.0000

> <Gold.Chemscore.Hbonds>
donor molecule, donor type, donor heavy atom, donor atom, acceptor molecule, acceptor atom, score
      L1  H     9    27       P1  8028  1.00
      L1  H    13    29       P1  8029  2.00
      L1  C     5    24       P1  7957  0.93

> <Gold.PLP.Chemscore.Internal.Correction>
0.0454

> <Gold.Rescore>
     Score         DG    S(hbond)    S(metal)    S(lipo)     H(rot)  DE(clash)    DE(int)     intcor
     16.92     -17.39       1.89        0.00      91.51       2.00       0.08       0.39       ----

> <Gold.Chemscore.Fitness>
16.9175

> <Gold.Chemscore.DG>
-17.3914

> <Gold.Chemscore.ZeroCoef>
-5.4800

> <Gold.Chemscore.Hbond>
1.8914

> <Gold.Chemscore.Metal>
0.0000

> <Gold.Chemscore.Lipo>
91.5112

> <Gold.Chemscore.Internal_Hbond>
0.0000

> <Gold.Chemscore.DEClash>
0.0828

> <Gold.Chemscore.DEInternal>
0.3911

> <Gold.Chemscore.Rot>
1.9972

> <Gold.Chemscore.Internal.Correction>
   9.000000E+99

> <Gold.Chemscore.Hbonds>
donor molecule, donor type, donor heavy atom, donor atom, acceptor molecule, acceptor atom, score
      L1  H     9    27       P1  8028  0.99
      L1  H    13    29       P1  8029  0.87

> <Gold.Chemscore.Hbond.Weighted>
-6.3173

> <Gold.Chemscore.Metal.Weighted>
-0.0000

> <Gold.Chemscore.Lipo.Weighted>
-10.7068

> <Gold.Chemscore.Internal_Hbond.Weighted>
0.0000

> <Gold.Chemscore.DEClash.Weighted>
0.0828

> <Gold.Chemscore.DEInternal.Weighted>
0.3911

> <Gold.Chemscore.Rot.Weighted>
5.1127

> <Gold.Chemscore.Internal.Correction.Weighted>
   9.000000E+99

> <Gold.Protein.RotatedTorsions>
[ 6907 6896 6895 6894 ] final   66.02 input  -60.11 | X-H torsion
[ 7974 7965 7964 7962 ] final  101.26 input  175.53 | X-H torsion
[ 8008 7997 7996 7995 ] final  101.42 input   59.86 | X-H torsion
[ 10167 10162 10161 10158 ] final  -90.76 input  -65.29 | X-H torsion
[ 10718 10713 10712 10709 ] final -152.48 input   66.30 | X-H torsion
[ 10763 10752 10751 10750 ] final   84.89 input  -60.55 | X-H torsion
[ 11005 11000 10999 10996 ] final   39.67 input  -57.11 | X-H torsion

> <Gold.Protein.ActiveResidues>
 VAL166  LYS551  ARG553  GLY616  TRP617  ASP618  TYR619  PRO620  LYS621  CYS622 
 ASP623  PHE694  ASN695  SER759  ASP760  ASP761  ALA762  ILE779  LEU786  VAL792 
 PHE793  MET794  SER795  GLU796  ALA797  LYS798  CYS799  TRP800  GLU811  SER814 

> <Gold.Protein.RotatedAtoms>
  152.4450  134.5513  159.9867 H   0  0  0  0  0  0  0  0  0  0  0  0  # atno 6907 bound_to 6896
  151.5600  133.3399  159.2977 H   0  0  0  0  0  0  0  0  0  0  0  0  # atno 6908 bound_to 6896
  150.8364  134.7672  159.6960 H   0  0  0  0  0  0  0  0  0  0  0  0  # atno 6909 bound_to 6896
  145.3746  139.2391  143.3436 H   0  0  0  0  0  0  0  0  0  0  0  0  # atno 7974 bound_to 7965
  156.1297  140.3198  155.8330 H   0  0  0  0  0  0  0  0  0  0  0  0  # atno 8008 bound_to 7997
  155.4354  140.0522  157.3032 H   0  0  0  0  0  0  0  0  0  0  0  0  # atno 8009 bound_to 7997
  154.4890  140.2084  155.9604 H   0  0  0  0  0  0  0  0  0  0  0  0  # atno 8010 bound_to 7997
  140.3517  143.2888  151.9718 H   0  0  0  0  0  0  0  0  0  0  0  0  # atno 10167 bound_to 10162
  156.4730  130.8267  151.2496 H   0  0  0  0  0  0  0  0  0  0  0  0  # atno 10718 bound_to 10713
  153.1423  135.4637  154.9514 H   0  0  0  0  0  0  0  0  0  0  0  0  # atno 10763 bound_to 10752
  154.7757  135.3172  154.8098 H   0  0  0  0  0  0  0  0  0  0  0  0  # atno 10764 bound_to 10752
  153.8619  135.6912  153.4836 H   0  0  0  0  0  0  0  0  0  0  0  0  # atno 10765 bound_to 10752
  140.2005  134.3876  155.8099 H   0  0  0  0  0  0  0  0  0  0  0  0  # atno 11005 bound_to 11000
  146.2870  140.4403  142.8754 LP  0  0  0  0  0  0  0  0  0  0  0  0  # atno 17320 bound_to 7965
  144.8551  140.7059  143.6143 LP  0  0  0  0  0  0  0  0  0  0  0  0  # atno 17321 bound_to 7965
  139.4825  144.6070  151.7503 LP  0  0  0  0  0  0  0  0  0  0  0  0  # atno 17342 bound_to 10162
  140.5213  144.0875  150.6023 LP  0  0  0  0  0  0  0  0  0  0  0  0  # atno 17343 bound_to 10162
  157.7490  131.0070  150.3173 LP  0  0  0  0  0  0  0  0  0  0  0  0  # atno 17370 bound_to 10713
  156.3599  130.3845  149.7260 LP  0  0  0  0  0  0  0  0  0  0  0  0  # atno 17371 bound_to 10713
  141.2227  133.7091  156.8250 LP  0  0  0  0  0  0  0  0  0  0  0  0  # atno 17394 bound_to 11000
  140.2059  134.8863  157.3221 LP  0  0  0  0  0  0  0  0  0  0  0  0  # atno 17395 bound_to 11000

$$$$
