AV-unprocessed.smi:317|AV-procd|sdf|2328|dock8
  -GOLD-   2262022233D 1   1.00000     0.00000
 Structure written by MMmdl.
 40 41  0  0  0  0  0  0  0  0  2 V2000
  153.1310  144.1797  158.7720 C   0  0  0  0  0  0  0  0  0  0  0  0
  151.6818  144.6887  158.7346 C   0  0  2  0  0  0  0  0  0  0  0  0
  150.9482  144.4595  160.0710 C   0  0  0  0  0  0  0  0  0  0  0  0
  149.5797  144.1985  159.8433 O   0  0  0  0  0  0  0  0  0  0  0  0
  150.9721  144.0258  157.6436 N   0  0  0  0  0  0  0  0  0  0  0  0
  150.9986  142.7106  157.3844 C   0  0  0  0  0  0  0  0  0  0  0  0
  151.6534  141.8995  158.0386 O   0  0  0  0  0  0  0  0  0  0  0  0
  150.2406  142.4113  156.3161 N   0  0  0  0  0  0  0  0  0  0  0  0
  150.0200  141.1382  155.7165 C   0  0  0  0  0  0  0  0  0  0  0  0
  151.0358  140.1474  155.6912 C   0  0  0  0  0  0  0  0  0  0  0  0
  150.7938  138.9065  155.0726 C   0  0  0  0  0  0  0  0  0  0  0  0
  149.5368  138.6704  154.4910 C   0  0  0  0  0  0  0  0  0  0  0  0
  148.5844  139.6237  154.5498 N   0  3  0  0  0  0  0  0  0  0  0  0
  148.7506  140.8319  155.1437 C   0  0  0  0  0  0  0  0  0  0  0  0
  147.6530  141.7231  155.1382 N   0  0  0  0  0  0  0  0  0  0  0  0
  147.1507  142.2679  153.8820 C   0  0  0  0  0  0  0  0  0  0  0  0
  145.7968  142.8806  154.2294 C   0  0  0  0  0  0  0  0  0  0  0  0
  145.2706  141.9274  155.2983 C   0  0  0  0  0  0  0  0  0  0  0  0
  146.5337  141.4818  156.0432 C   0  0  0  0  0  0  0  0  0  0  0  0
  153.7074  144.6850  159.5473 H   0  0  0  0  0  0  0  0  0  0  0  0
  153.6353  144.3590  157.8218 H   0  0  0  0  0  0  0  0  0  0  0  0
  153.1714  143.1087  158.9739 H   0  0  0  0  0  0  0  0  0  0  0  0
  151.7066  145.7602  158.5245 H   0  0  0  0  0  0  0  0  0  0  0  0
  151.3636  143.6002  160.5986 H   0  0  0  0  0  0  0  0  0  0  0  0
  151.0523  145.3223  160.7296 H   0  0  0  0  0  0  0  0  0  0  0  0
  149.2785  144.7583  159.1439 H   0  0  0  0  0  0  0  0  0  0  0  0
  150.4107  144.6171  157.0485 H   0  0  0  0  0  0  0  0  0  0  0  0
  149.8450  143.1978  155.8227 H   0  0  0  0  0  0  0  0  0  0  0  0
  152.0009  140.3158  156.1441 H   0  0  0  0  0  0  0  0  0  0  0  0
  151.5630  138.1483  155.0445 H   0  0  0  0  0  0  0  0  0  0  0  0
  149.2615  137.7521  153.9927 H   0  0  0  0  0  0  0  0  0  0  0  0
  147.8348  143.0077  153.4653 H   0  0  0  0  0  0  0  0  0  0  0  0
  147.0141  141.4720  153.1487 H   0  0  0  0  0  0  0  0  0  0  0  0
  145.9343  143.8762  154.6533 H   0  0  0  0  0  0  0  0  0  0  0  0
  145.1343  142.9660  153.3678 H   0  0  0  0  0  0  0  0  0  0  0  0
  144.5323  142.3890  155.9543 H   0  0  0  0  0  0  0  0  0  0  0  0
  144.8027  141.0657  154.8206 H   0  0  0  0  0  0  0  0  0  0  0  0
  146.4669  140.4358  156.3456 H   0  0  0  0  0  0  0  0  0  0  0  0
  146.6702  142.0884  156.9388 H   0  0  0  0  0  0  0  0  0  0  0  0
  147.6786  139.4178  154.1279 H   0  0  0  0  0  0  0  0  0  0  0  0
  1  2  1  0  0  0  0
  1 20  1  0  0  0  0
  1 21  1  0  0  0  0
  1 22  1  0  0  0  0
  2  3  1  0  0  0  0
  2  5  1  0  0  0  0
  2 23  1  0  0  0  0
  3  4  1  0  0  0  0
  3 24  1  0  0  0  0
  3 25  1  0  0  0  0
  4 26  1  0  0  0  0
  5  6  1  0  0  0  0
  5 27  1  0  0  0  0
  6  7  2  0  0  0  0
  6  8  1  0  0  0  0
  8  9  1  0  0  0  0
  8 28  1  0  0  0  0
  9 14  1  0  0  0  0
  9 10  2  0  0  0  0
 10 11  1  0  0  0  0
 10 29  1  0  0  0  0
 11 12  2  0  0  0  0
 11 30  1  0  0  0  0
 12 13  1  0  0  0  0
 12 31  1  0  0  0  0
 13 14  2  0  0  0  0
 13 40  1  0  0  0  0
 14 15  1  0  0  0  0
 15 19  1  0  0  0  0
 15 16  1  0  0  0  0
 16 17  1  0  0  0  0
 16 32  1  0  0  0  0
 16 33  1  0  0  0  0
 17 18  1  0  0  0  0
 17 34  1  0  0  0  0
 17 35  1  0  0  0  0
 18 19  1  0  0  0  0
 18 36  1  0  0  0  0
 18 37  1  0  0  0  0
 19 38  1  0  0  0  0
 19 39  1  0  0  0  0
M  CHG  1  13   1
M  END
> <s_m_source_file>
AV-unprocessed.smi

> <i_m_source_file_index>
317

> <i_lp_mmshare_version>
43012

> <i_f3d_flags>
0

> <s_epik_input>
W09IXVtDSDJdW0NAQEhdKFtDSDNdKVtOSF1DKD1PKVtOSF1jMVtjSF1bY0hdW2NIXW5jMU4yW0NIMl1bQ0gyXVtDSDJdW0NIMl0y

> <s_epik_cmdline>
J2VwaWtfcHl0aG9uJywgJy1waCcsICc3LjAnLCAnLXRuJywgJzgnLCAnLW1hJywgJzIwMCcsICctbWV0YWxfYmluZGluZycsICctaW1hZScsICc8aW5maWxlLm1hZT4nLCAnLW9tYWUnLCAnPG91dGZpbGUubWFlPic=

> <r_lp_tautomer_probability>
0.999994

> <r_epik_Ionization_Penalty>
1.11558

> <r_epik_Ionization_Penalty_Charging>
1.11556

> <r_epik_Ionization_Penalty_Neutral>
2.02999e-05

> <r_epik_State_Penalty>
1.17393

> <r_epik_Charging_Adjusted_Penalty>
2.28949

> <i_epik_Tot_Q>
1

> <i_epik_Tot_abs_Q>
1

> <r_epik_Metal_State_Penalty>
1.25924

> <b_epik_Metal_Only>
0

> <s_lp_Force_Field>
OPLS_2005

> <r_lp_Energy>
37.9657

> <b_lp_Chiralities_Consistent>
1

> <s_lp_Variant>
AV-unprocessed.smi:317-3

> <Gold.Version>
5.8.1

> <Gold.Id.Protein>
6NUR|6NUR_protein|mol2

> <Gold.PLP.Fitness>
43.7566

> <Gold.PLP.PLP>
-39.6903

> <Gold.PLP.part.hbond>
-2.5698

> <Gold.PLP.part.metal>
0.0000

> <Gold.PLP.part.buried>
-7.0137

> <Gold.PLP.part.nonpolar>
-30.4666

> <Gold.PLP.part.repulsive>
0.3433

> <Gold.PLP.ligand.clash>
0.0000

> <Gold.PLP.ligand.torsion>
1.0943

> <Gold.PLP.Chemscore.Hbond>
1.9516

> <Gold.PLP.Chemscore.CHOScore>
0.0000

> <Gold.PLP.Chemscore.Metal>
0.0000

> <Gold.Chemscore.Hbonds>
donor molecule, donor type, donor heavy atom, donor atom, acceptor molecule, acceptor atom, score
      L1  H     5    27       P1  8028  0.98
      L1  H     8    28       P1  8028  1.00

> <Gold.PLP.Chemscore.Internal.Correction>
0.4001

> <Gold.Rescore>
     Score         DG    S(hbond)    S(metal)    S(lipo)     H(rot)  DE(clash)    DE(int)     intcor
     14.57     -18.42       2.57        0.00      83.25       2.11       0.12       3.73       ----

> <Gold.Chemscore.Fitness>
14.5748

> <Gold.Chemscore.DG>
-18.4165

> <Gold.Chemscore.ZeroCoef>
-5.4800

> <Gold.Chemscore.Hbond>
2.5741

> <Gold.Chemscore.Metal>
0.0000

> <Gold.Chemscore.Lipo>
83.2517

> <Gold.Chemscore.Internal_Hbond>
0.0000

> <Gold.Chemscore.DEClash>
0.1153

> <Gold.Chemscore.DEInternal>
3.7265

> <Gold.Chemscore.Rot>
2.1099

> <Gold.Chemscore.Internal.Correction>
   9.000000E+99

> <Gold.Chemscore.Hbonds>
donor molecule, donor type, donor heavy atom, donor atom, acceptor molecule, acceptor atom, score
      L1  H     5    27       P1  8028  0.60
      L1  H     8    28       P1  8028  0.99

> <Gold.Chemscore.Hbond.Weighted>
-8.5976

> <Gold.Chemscore.Metal.Weighted>
-0.0000

> <Gold.Chemscore.Lipo.Weighted>
-9.7405

> <Gold.Chemscore.Internal_Hbond.Weighted>
0.0000

> <Gold.Chemscore.DEClash.Weighted>
0.1153

> <Gold.Chemscore.DEInternal.Weighted>
3.7265

> <Gold.Chemscore.Rot.Weighted>
5.4015

> <Gold.Chemscore.Internal.Correction.Weighted>
   9.000000E+99

> <Gold.Protein.RotatedTorsions>
[ 6907 6896 6895 6894 ] final   19.16 input  -60.11 | X-H torsion
[ 7974 7965 7964 7962 ] final  172.56 input  175.53 | X-H torsion
[ 8008 7997 7996 7995 ] final  118.33 input   59.86 | X-H torsion
[ 10167 10162 10161 10158 ] final  -16.98 input  -65.29 | X-H torsion
[ 10718 10713 10712 10709 ] final   54.48 input   66.30 | X-H torsion
[ 10763 10752 10751 10750 ] final  129.66 input  -60.55 | X-H torsion
[ 11005 11000 10999 10996 ] final  123.24 input  -57.11 | X-H torsion

> <Gold.Protein.ActiveResidues>
 VAL166  LYS551  ARG553  GLY616  TRP617  ASP618  TYR619  PRO620  LYS621  CYS622 
 ASP623  PHE694  ASN695  SER759  ASP760  ASP761  ALA762  ILE779  LEU786  VAL792 
 PHE793  MET794  SER795  GLU796  ALA797  LYS798  CYS799  TRP800  GLU811  SER814 

> <Gold.Protein.RotatedAtoms>
  151.8766  135.0469  160.0484 H   0  0  0  0  0  0  0  0  0  0  0  0  # atno 6907 bound_to 6896
  152.2546  133.5240  159.5354 H   0  0  0  0  0  0  0  0  0  0  0  0  # atno 6908 bound_to 6896
  150.7095  134.0829  159.3947 H   0  0  0  0  0  0  0  0  0  0  0  0  # atno 6909 bound_to 6896
  144.7265  139.9517  143.6432 H   0  0  0  0  0  0  0  0  0  0  0  0  # atno 7974 bound_to 7965
  156.2541  140.2877  156.0818 H   0  0  0  0  0  0  0  0  0  0  0  0  # atno 8008 bound_to 7997
  155.1558  140.0398  157.2849 H   0  0  0  0  0  0  0  0  0  0  0  0  # atno 8009 bound_to 7997
  154.6428  140.2526  155.7309 H   0  0  0  0  0  0  0  0  0  0  0  0  # atno 8010 bound_to 7997
  140.7241  143.5061  150.9808 H   0  0  0  0  0  0  0  0  0  0  0  0  # atno 10167 bound_to 10162
  157.5261  130.8598  149.8623 H   0  0  0  0  0  0  0  0  0  0  0  0  # atno 10718 bound_to 10713
  153.7453  135.3218  155.3311 H   0  0  0  0  0  0  0  0  0  0  0  0  # atno 10763 bound_to 10752
  154.8281  135.4554  154.0985 H   0  0  0  0  0  0  0  0  0  0  0  0  # atno 10764 bound_to 10752
  153.2172  135.6943  153.8125 H   0  0  0  0  0  0  0  0  0  0  0  0  # atno 10765 bound_to 10752
  139.9304  134.9641  156.8230 H   0  0  0  0  0  0  0  0  0  0  0  0  # atno 11005 bound_to 11000
  146.0706  139.3695  143.0525 LP  0  0  0  0  0  0  0  0  0  0  0  0  # atno 17320 bound_to 7965
  145.7973  140.9787  143.1017 LP  0  0  0  0  0  0  0  0  0  0  0  0  # atno 17321 bound_to 7965
  139.8773  143.7117  152.3160 LP  0  0  0  0  0  0  0  0  0  0  0  0  # atno 17342 bound_to 10162
  139.7387  144.7565  151.0687 LP  0  0  0  0  0  0  0  0  0  0  0  0  # atno 17343 bound_to 10162
  156.0388  130.3744  150.1490 LP  0  0  0  0  0  0  0  0  0  0  0  0  # atno 17370 bound_to 10713
  156.9676  130.9824  151.3466 LP  0  0  0  0  0  0  0  0  0  0  0  0  # atno 17371 bound_to 10713
  140.6218  133.9986  155.7622 LP  0  0  0  0  0  0  0  0  0  0  0  0  # atno 17394 bound_to 11000
  141.0889  133.9948  157.3270 LP  0  0  0  0  0  0  0  0  0  0  0  0  # atno 17395 bound_to 11000

$$$$
