AV-unprocessed.smi:160|AV-procd|sdf|1363|dock3
  -GOLD-   2262019 73D 1   1.00000     0.00000
 Structure written by MMmdl.
 28 29  0  0  0  0  0  0  0  0  2 V2000
  153.2644  135.3754  157.1952 N   0  5  0  0  0  0  0  0  0  0  0  0
  153.6565  136.6456  157.4367 C   0  0  0  0  0  0  0  0  0  0  0  0
  154.5402  136.9987  158.2170 O   0  0  0  0  0  0  0  0  0  0  0  0
  152.9055  137.6932  156.6495 C   0  0  0  0  0  0  0  0  0  0  0  0
  153.2327  139.0164  156.7605 N   0  0  0  0  0  0  0  0  0  0  0  0
  152.3441  139.5260  155.9185 C   0  0  0  0  0  0  0  0  0  0  0  0
  151.5295  138.6201  155.3662 N   0  0  0  0  0  0  0  0  0  0  0  0
  150.4552  138.7671  154.3355 C   0  0  2  0  0  0  0  0  0  0  0  0
  150.4670  140.0880  153.8760 O   0  0  0  0  0  0  0  0  0  0  0  0
  149.3821  140.8330  154.4249 C   0  0  2  0  0  0  0  0  0  0  0  0
  149.7968  141.4831  155.7656 C   0  0  0  0  0  0  0  0  0  0  0  0
  148.7224  142.2367  156.2850 O   0  0  0  0  0  0  0  0  0  0  0  0
  148.2930  139.7558  154.5269 C   0  0  2  0  0  0  0  0  0  0  0  0
  147.2791  140.0784  155.4583 O   0  0  0  0  0  0  0  0  0  0  0  0
  149.0604  138.5053  154.9373 C   0  0  1  0  0  0  0  0  0  0  0  0
  148.4505  137.3626  154.3718 O   0  0  0  0  0  0  0  0  0  0  0  0
  151.9069  137.3973  155.8114 N   0  0  0  0  0  0  0  0  0  0  0  0
  150.7456  138.0789  153.5404 H   0  0  0  0  0  0  0  0  0  0  0  0
  149.0713  141.6112  153.7264 H   0  0  0  0  0  0  0  0  0  0  0  0
  147.8451  139.6182  153.5410 H   0  0  0  0  0  0  0  0  0  0  0  0
  149.1200  138.4209  156.0239 H   0  0  0  0  0  0  0  0  0  0  0  0
  152.3333  135.0821  157.5139 H   0  0  0  0  0  0  0  0  0  0  0  0
  152.2846  140.5826  155.7024 H   0  0  0  0  0  0  0  0  0  0  0  0
  150.0228  140.7175  156.5076 H   0  0  0  0  0  0  0  0  0  0  0  0
  150.6880  142.1021  155.6758 H   0  0  0  0  0  0  0  0  0  0  0  0
  148.6913  143.0658  155.8324 H   0  0  0  0  0  0  0  0  0  0  0  0
  147.1506  139.3340  156.0264 H   0  0  0  0  0  0  0  0  0  0  0  0
  148.7584  137.2717  153.4824 H   0  0  0  0  0  0  0  0  0  0  0  0
  1  2  1  0  0  0  0
  1 22  1  0  0  0  0
  2  3  2  0  0  0  0
  2  4  1  0  0  0  0
  4 17  2  0  0  0  0
  4  5  1  0  0  0  0
  5  6  2  0  0  0  0
  6  7  1  0  0  0  0
  6 23  1  0  0  0  0
  7  8  1  0  0  0  0
  7 17  1  0  0  0  0
  8 18  1  0  0  0  0
  8 15  1  0  0  0  0
  8  9  1  0  0  0  0
  9 10  1  0  0  0  0
 10 19  1  0  0  0  0
 10 11  1  0  0  0  0
 10 13  1  0  0  0  0
 11 12  1  0  0  0  0
 11 24  1  0  0  0  0
 11 25  1  0  0  0  0
 12 26  1  0  0  0  0
 13 20  1  0  0  0  0
 13 14  1  0  0  0  0
 13 15  1  0  0  0  0
 14 27  1  0  0  0  0
 15 21  1  0  0  0  0
 15 16  1  0  0  0  0
 16 28  1  0  0  0  0
M  CHG  1   1  -1
M  END
> <s_m_source_file>
AV-unprocessed.smi

> <i_m_source_file_index>
160

> <i_lp_mmshare_version>
43012

> <i_f3d_flags>
0

> <s_epik_input>
W05IMl1DKD1PKWMxbltjSF1uKG4xKVtDQEBIXTJPW0NASF0oW0NIMl1bT0hdKVtDQEBIXShbT0hdKVtDQEhdMltPSF0=

> <s_epik_cmdline>
J2VwaWtfcHl0aG9uJywgJy1waCcsICc3LjAnLCAnLXRuJywgJzgnLCAnLW1hJywgJzIwMCcsICctbWV0YWxfYmluZGluZycsICctaW1hZScsICc8aW5maWxlLm1hZT4nLCAnLW9tYWUnLCAnPG91dGZpbGUubWFlPic=

> <r_lp_tautomer_probability>
1

> <r_epik_Ionization_Penalty>
6.6993

> <r_epik_Ionization_Penalty_Charging>
6.6993

> <r_epik_Ionization_Penalty_Neutral>
6.01698e-06

> <r_epik_State_Penalty>
6.69929

> <r_epik_Charging_Adjusted_Penalty>
13.3986

> <i_epik_Tot_Q>
-1

> <i_epik_Tot_abs_Q>
1

> <r_epik_Metal_State_Penalty>
2.62798

> <b_epik_Metal_Only>
1

> <s_epik_Chemistry_Notes>
This compound contains an acetal/aminal-like group ( X-CH(R)-Y where X, Y are N, S, or O) that may be acid/base labile, releasing an aldehyde.

> <s_lp_Force_Field>
OPLS_2005

> <r_lp_Energy>
38.9008

> <b_lp_Chiralities_Consistent>
1

> <s_lp_Variant>
AV-unprocessed.smi:160-21

> <Gold.Version>
5.8.1

> <Gold.Id.Protein>
6NUR|6NUR_protein|mol2

> <Gold.PLP.Fitness>
38.7267

> <Gold.PLP.PLP>
-21.1105

> <Gold.PLP.part.hbond>
-4.8719

> <Gold.PLP.part.metal>
0.0000

> <Gold.PLP.part.buried>
-3.2487

> <Gold.PLP.part.nonpolar>
-14.2026

> <Gold.PLP.part.repulsive>
1.4012

> <Gold.PLP.ligand.clash>
0.0000

> <Gold.PLP.ligand.torsion>
0.2083

> <Gold.PLP.Chemscore.Hbond>
5.9920

> <Gold.PLP.Chemscore.CHOScore>
0.0000

> <Gold.PLP.Chemscore.Metal>
0.0000

> <Gold.Chemscore.Hbonds>
donor molecule, donor type, donor heavy atom, donor atom, acceptor molecule, acceptor atom, score
      L1  H    12    26       P1  8028  1.00
      L1  H    16    28       P1  7948  1.00
      P1  H  7989  7998       L1     9  0.76
      P1  H  7997  8009       L1     5  1.00
      P1  H 10752 10763       L1     1  1.70

> <Gold.PLP.Chemscore.Internal.Correction>
0.0567

> <Gold.Rescore>
     Score         DG    S(hbond)    S(metal)    S(lipo)     H(rot)  DE(clash)    DE(int)     intcor
     10.75     -12.26       4.43        0.00      19.96       4.04       1.15       0.36       ----

> <Gold.Chemscore.Fitness>
10.7481

> <Gold.Chemscore.DG>
-12.2569

> <Gold.Chemscore.ZeroCoef>
-5.4800

> <Gold.Chemscore.Hbond>
4.4265

> <Gold.Chemscore.Metal>
0.0000

> <Gold.Chemscore.Lipo>
19.9623

> <Gold.Chemscore.Internal_Hbond>
0.0000

> <Gold.Chemscore.DEClash>
1.1472

> <Gold.Chemscore.DEInternal>
0.3616

> <Gold.Chemscore.Rot>
4.0403

> <Gold.Chemscore.Internal.Correction>
   9.000000E+99

> <Gold.Chemscore.Hbonds>
donor molecule, donor type, donor heavy atom, donor atom, acceptor molecule, acceptor atom, score
      L1  H    12    26       P1  8028  0.98
      L1  H    16    28       P1  7948  0.96
      P1  H  7989  7998       L1     9  0.65
      P1  H  7997  8009       L1     5  0.33
      P1  H 10752 10763       L1     1  0.15

> <Gold.Chemscore.Hbond.Weighted>
-14.7844

> <Gold.Chemscore.Metal.Weighted>
-0.0000

> <Gold.Chemscore.Lipo.Weighted>
-2.3356

> <Gold.Chemscore.Internal_Hbond.Weighted>
0.0000

> <Gold.Chemscore.DEClash.Weighted>
1.1472

> <Gold.Chemscore.DEInternal.Weighted>
0.3616

> <Gold.Chemscore.Rot.Weighted>
10.3431

> <Gold.Chemscore.Internal.Correction.Weighted>
   9.000000E+99

> <Gold.Protein.RotatedTorsions>
[ 6907 6896 6895 6894 ] final  117.94 input  -60.11 | X-H torsion
[ 7974 7965 7964 7962 ] final   99.75 input  175.53 | X-H torsion
[ 8008 7997 7996 7995 ] final  177.49 input   59.86 | X-H torsion
[ 10167 10162 10161 10158 ] final   47.19 input  -65.29 | X-H torsion
[ 10718 10713 10712 10709 ] final   27.05 input   66.30 | X-H torsion
[ 10763 10752 10751 10750 ] final  134.35 input  -60.55 | X-H torsion
[ 11005 11000 10999 10996 ] final  118.82 input  -57.11 | X-H torsion

> <Gold.Protein.ActiveResidues>
 VAL166  LYS551  ARG553  GLY616  TRP617  ASP618  TYR619  PRO620  LYS621  CYS622 
 ASP623  PHE694  ASN695  SER759  ASP760  ASP761  ALA762  ILE779  LEU786  VAL792 
 PHE793  MET794  SER795  GLU796  ALA797  LYS798  CYS799  TRP800  GLU811  SER814 

> <Gold.Protein.RotatedAtoms>
  152.4577  133.7757  159.6823 H   0  0  0  0  0  0  0  0  0  0  0  0  # atno 6907 bound_to 6896
  150.8509  133.7778  159.3032 H   0  0  0  0  0  0  0  0  0  0  0  0  # atno 6908 bound_to 6896
  151.5374  135.1071  159.9969 H   0  0  0  0  0  0  0  0  0  0  0  0  # atno 6909 bound_to 6896
  145.3948  139.2357  143.3332 H   0  0  0  0  0  0  0  0  0  0  0  0  # atno 7974 bound_to 7965
  156.0651  140.1357  156.9895 H   0  0  0  0  0  0  0  0  0  0  0  0  # atno 8008 bound_to 7997
  154.4502  140.0983  156.6646 H   0  0  0  0  0  0  0  0  0  0  0  0  # atno 8009 bound_to 7997
  155.5316  140.3459  155.4430 H   0  0  0  0  0  0  0  0  0  0  0  0  # atno 8010 bound_to 7997
  140.3061  144.2876  150.6209 H   0  0  0  0  0  0  0  0  0  0  0  0  # atno 10167 bound_to 10162
  157.2150  130.6952  149.6245 H   0  0  0  0  0  0  0  0  0  0  0  0  # atno 10718 bound_to 10713
  153.8221  135.3115  155.3411 H   0  0  0  0  0  0  0  0  0  0  0  0  # atno 10763 bound_to 10752
  154.8008  135.4728  154.0274 H   0  0  0  0  0  0  0  0  0  0  0  0  # atno 10764 bound_to 10752
  153.1687  135.6874  153.8729 H   0  0  0  0  0  0  0  0  0  0  0  0  # atno 10765 bound_to 10752
  139.9123  134.9623  156.7561 H   0  0  0  0  0  0  0  0  0  0  0  0  # atno 11005 bound_to 11000
  146.2780  140.4636  142.8787 LP  0  0  0  0  0  0  0  0  0  0  0  0  # atno 17320 bound_to 7965
  144.8415  140.6864  143.6226 LP  0  0  0  0  0  0  0  0  0  0  0  0  # atno 17321 bound_to 7965
  140.5609  143.2192  151.7767 LP  0  0  0  0  0  0  0  0  0  0  0  0  # atno 17342 bound_to 10162
  139.4904  144.4350  151.9829 LP  0  0  0  0  0  0  0  0  0  0  0  0  # atno 17343 bound_to 10162
  155.9687  130.4538  150.5827 LP  0  0  0  0  0  0  0  0  0  0  0  0  # atno 17370 bound_to 10713
  157.3633  131.0753  151.1618 LP  0  0  0  0  0  0  0  0  0  0  0  0  # atno 17371 bound_to 10713
  140.6735  133.9538  155.7869 LP  0  0  0  0  0  0  0  0  0  0  0  0  # atno 17394 bound_to 11000
  141.0561  134.0414  157.3720 LP  0  0  0  0  0  0  0  0  0  0  0  0  # atno 17395 bound_to 11000

$$$$
