AV-unprocessed.smi:3287|AV-procd|sdf|12593|dock8
  -GOLD-   2272018513D 1   1.00000     0.00000
 Structure written by MMmdl.
 43 44  0  0  0  0  0  0  0  0  2 V2000
  153.1187  143.2794  161.6490 C   0  0  0  0  0  0  0  0  0  0  0  0
  152.6980  143.0257  160.1921 C   0  0  1  0  0  0  0  0  0  0  0  0
  151.5658  141.9848  160.0950 C   0  0  0  0  0  0  0  0  0  0  0  0
  151.2086  141.6726  158.6327 C   0  0  0  0  0  0  0  0  0  0  0  0
  150.8470  142.9493  157.8456 C   0  0  2  0  0  0  0  0  0  0  0  0
  150.5862  142.6517  156.4199 N   0  3  0  0  0  0  0  0  0  0  0  0
  149.5416  141.6365  156.1650 C   0  0  0  0  0  0  0  0  0  0  0  0
  149.2804  141.4658  154.6583 C   0  0  2  0  0  0  0  0  0  0  0  0
  148.5746  142.5966  154.1847 O   0  0  0  0  0  0  0  0  0  0  0  0
  148.5291  140.1748  154.3757 C   0  0  0  0  0  0  0  0  0  0  0  0
  147.3220  140.1946  153.6460 C   0  0  0  0  0  0  0  0  0  0  0  0
  146.6630  138.9734  153.4003 C   0  0  0  0  0  0  0  0  0  0  0  0
  147.1295  137.7803  153.8270 N   0  0  0  0  0  0  0  0  0  0  0  0
  148.2860  137.7660  154.5232 C   0  0  0  0  0  0  0  0  0  0  0  0
  149.0228  138.9295  154.8221 C   0  0  0  0  0  0  0  0  0  0  0  0
  151.9840  143.9847  157.9570 C   0  0  0  0  0  0  0  0  0  0  0  0
  152.3457  144.3221  159.4190 C   0  0  1  0  0  0  0  0  0  0  0  0
  151.2590  145.1851  160.0921 C   0  0  0  0  0  0  0  0  0  0  0  0
  152.2846  143.6318  162.2558 H   0  0  0  0  0  0  0  0  0  0  0  0
  153.9140  144.0231  161.7058 H   0  0  0  0  0  0  0  0  0  0  0  0
  153.4921  142.3648  162.1105 H   0  0  0  0  0  0  0  0  0  0  0  0
  153.5685  142.5922  159.6968 H   0  0  0  0  0  0  0  0  0  0  0  0
  151.8670  141.0638  160.5955 H   0  0  0  0  0  0  0  0  0  0  0  0
  150.6806  142.3397  160.6233 H   0  0  0  0  0  0  0  0  0  0  0  0
  152.0537  141.1744  158.1556 H   0  0  0  0  0  0  0  0  0  0  0  0
  150.3826  140.9619  158.6162 H   0  0  0  0  0  0  0  0  0  0  0  0
  149.9411  143.3866  158.2671 H   0  0  0  0  0  0  0  0  0  0  0  0
  150.2766  143.5066  155.9793 H   0  0  0  0  0  0  0  0  0  0  0  0
  149.8612  140.6823  156.5843 H   0  0  0  0  0  0  0  0  0  0  0  0
  148.6218  141.9200  156.6788 H   0  0  0  0  0  0  0  0  0  0  0  0
  150.2341  141.4324  154.1294 H   0  0  0  0  0  0  0  0  0  0  0  0
  148.5456  143.2422  154.8750 H   0  0  0  0  0  0  0  0  0  0  0  0
  146.9051  141.1215  153.2799 H   0  0  0  0  0  0  0  0  0  0  0  0
  145.7372  138.9545  152.8443 H   0  0  0  0  0  0  0  0  0  0  0  0
  148.6365  136.7983  154.8503 H   0  0  0  0  0  0  0  0  0  0  0  0
  149.9451  138.8620  155.3803 H   0  0  0  0  0  0  0  0  0  0  0  0
  152.8722  143.5970  157.4554 H   0  0  0  0  0  0  0  0  0  0  0  0
  151.7132  144.8965  157.4230 H   0  0  0  0  0  0  0  0  0  0  0  0
  153.2463  144.9370  159.3872 H   0  0  0  0  0  0  0  0  0  0  0  0
  150.3293  144.6369  160.2414 H   0  0  0  0  0  0  0  0  0  0  0  0
  151.0281  146.0616  159.4862 H   0  0  0  0  0  0  0  0  0  0  0  0
  151.5862  145.5511  161.0650 H   0  0  0  0  0  0  0  0  0  0  0  0
  151.4486  142.3620  155.9814 H   0  0  0  0  0  0  0  0  0  0  0  0
  1  2  1  0  0  0  0
  1 19  1  0  0  0  0
  1 20  1  0  0  0  0
  1 21  1  0  0  0  0
  2 17  1  0  0  0  0
  2  3  1  0  0  0  0
  2 22  1  0  0  0  0
  3  4  1  0  0  0  0
  3 23  1  0  0  0  0
  3 24  1  0  0  0  0
  4  5  1  0  0  0  0
  4 25  1  0  0  0  0
  4 26  1  0  0  0  0
  5  6  1  0  0  0  0
  5 16  1  0  0  0  0
  5 27  1  0  0  0  0
  6  7  1  0  0  0  0
  6 28  1  0  0  0  0
  6 43  1  0  0  0  0
  7  8  1  0  0  0  0
  7 29  1  0  0  0  0
  7 30  1  0  0  0  0
  8  9  1  0  0  0  0
  8 10  1  0  0  0  0
  8 31  1  0  0  0  0
  9 32  1  0  0  0  0
 10 15  1  0  0  0  0
 10 11  2  0  0  0  0
 11 12  1  0  0  0  0
 11 33  1  0  0  0  0
 12 13  2  0  0  0  0
 12 34  1  0  0  0  0
 13 14  1  0  0  0  0
 14 15  2  0  0  0  0
 14 35  1  0  0  0  0
 15 36  1  0  0  0  0
 16 17  1  0  0  0  0
 16 37  1  0  0  0  0
 16 38  1  0  0  0  0
 17 18  1  0  0  0  0
 17 39  1  0  0  0  0
 18 40  1  0  0  0  0
 18 41  1  0  0  0  0
 18 42  1  0  0  0  0
M  CHG  1   6   1
M  END
> <s_m_source_file>
AV-unprocessed.smi

> <i_m_source_file_index>
3287

> <i_lp_mmshare_version>
43012

> <i_f3d_flags>
0

> <s_epik_input>
W0NIM11bQ0BASF0xW0NIMl1bQ0gyXVtDQEhdKFtDSDJdW0NASF0xW0NIM10pW05IXVtDSDJdW0NASF0oW09IXSljMltjSF1bY0hdbltjSF1bY0hdMg==

> <s_epik_cmdline>
J2VwaWtfcHl0aG9uJywgJy1waCcsICc3LjAnLCAnLXRuJywgJzgnLCAnLW1hJywgJzIwMCcsICctbWV0YWxfYmluZGluZycsICctaW1hZScsICc8aW5maWxlLm1hZT4nLCAnLW9tYWUnLCAnPG91dGZpbGUubWFlPic=

> <r_lp_tautomer_probability>
1

> <r_epik_Ionization_Penalty>
0.00537262

> <r_epik_Ionization_Penalty_Charging>
0.00321624

> <r_epik_Ionization_Penalty_Neutral>
0.00215638

> <r_epik_State_Penalty>
-0

> <r_epik_Charging_Adjusted_Penalty>
0.00321624

> <i_epik_Tot_Q>
1

> <i_epik_Tot_abs_Q>
1

> <r_epik_Metal_State_Penalty>
-0

> <b_epik_Metal_Only>
0

> <s_lp_Force_Field>
OPLS_2005

> <r_lp_Energy>
18.3798

> <b_lp_Chiralities_Consistent>
1

> <s_lp_Variant>
AV-unprocessed.smi:3287-4

> <Gold.Version>
5.8.1

> <Gold.Id.Protein>
6NUR|6NUR_protein|mol2

> <Gold.PLP.Fitness>
47.7710

> <Gold.PLP.PLP>
-36.1597

> <Gold.PLP.part.hbond>
-3.6037

> <Gold.PLP.part.metal>
0.0000

> <Gold.PLP.part.buried>
-1.8032

> <Gold.PLP.part.nonpolar>
-32.9876

> <Gold.PLP.part.repulsive>
0.3331

> <Gold.PLP.ligand.clash>
0.0000

> <Gold.PLP.ligand.torsion>
0.1567

> <Gold.PLP.Chemscore.Hbond>
2.9684

> <Gold.PLP.Chemscore.CHOScore>
1.0000

> <Gold.PLP.Chemscore.Metal>
0.0000

> <Gold.Chemscore.Hbonds>
donor molecule, donor type, donor heavy atom, donor atom, acceptor molecule, acceptor atom, score
      L1  H     6    28       P1  8028  1.95
      L1  H     9    32       P1  8028  1.00
      P1  H  8011  8017       L1     9  0.02
      L1  C    12    34       P1 10175  0.88

> <Gold.PLP.Chemscore.Internal.Correction>
0.0196

> <Gold.Rescore>
     Score         DG    S(hbond)    S(metal)    S(lipo)     H(rot)  DE(clash)    DE(int)     intcor
     20.29     -21.83       1.93        0.00     126.33       1.90       1.36       0.19       ----

> <Gold.Chemscore.Fitness>
20.2861

> <Gold.Chemscore.DG>
-21.8348

> <Gold.Chemscore.ZeroCoef>
-5.4800

> <Gold.Chemscore.Hbond>
1.9304

> <Gold.Chemscore.Metal>
0.0000

> <Gold.Chemscore.Lipo>
126.3265

> <Gold.Chemscore.Internal_Hbond>
0.0000

> <Gold.Chemscore.DEClash>
1.3558

> <Gold.Chemscore.DEInternal>
0.1930

> <Gold.Chemscore.Rot>
1.9035

> <Gold.Chemscore.Internal.Correction>
   9.000000E+99

> <Gold.Chemscore.Hbonds>
donor molecule, donor type, donor heavy atom, donor atom, acceptor molecule, acceptor atom, score
      L1  H     6    28       P1  8028  0.93
      L1  H     9    32       P1  8028  0.98

> <Gold.Chemscore.Hbond.Weighted>
-6.4475

> <Gold.Chemscore.Metal.Weighted>
-0.0000

> <Gold.Chemscore.Lipo.Weighted>
-14.7802

> <Gold.Chemscore.Internal_Hbond.Weighted>
0.0000

> <Gold.Chemscore.DEClash.Weighted>
1.3558

> <Gold.Chemscore.DEInternal.Weighted>
0.1930

> <Gold.Chemscore.Rot.Weighted>
4.8729

> <Gold.Chemscore.Internal.Correction.Weighted>
   9.000000E+99

> <Gold.Protein.RotatedTorsions>
[ 6907 6896 6895 6894 ] final  120.28 input  -60.11 | X-H torsion
[ 7974 7965 7964 7962 ] final   -5.39 input  175.53 | X-H torsion
[ 8008 7997 7996 7995 ] final   73.47 input   59.86 | X-H torsion
[ 10167 10162 10161 10158 ] final -166.07 input  -65.29 | X-H torsion
[ 10718 10713 10712 10709 ] final -165.00 input   66.30 | X-H torsion
[ 10763 10752 10751 10750 ] final   64.31 input  -60.55 | X-H torsion
[ 11005 11000 10999 10996 ] final   57.98 input  -57.11 | X-H torsion

> <Gold.Protein.ActiveResidues>
 VAL166  LYS551  ARG553  GLY616  TRP617  ASP618  TYR619  PRO620  LYS621  CYS622 
 ASP623  PHE694  ASN695  SER759  ASP760  ASP761  ALA762  ILE779  LEU786  VAL792 
 PHE793  MET794  SER795  GLU796  ALA797  LYS798  CYS799  TRP800  GLU811  SER814 

> <Gold.Protein.RotatedAtoms>
  152.4410  133.7448  159.6660 H   0  0  0  0  0  0  0  0  0  0  0  0  # atno 6907 bound_to 6896
  150.8300  133.8096  159.3108 H   0  0  0  0  0  0  0  0  0  0  0  0  # atno 6908 bound_to 6896
  151.5752  135.1063  160.0056 H   0  0  0  0  0  0  0  0  0  0  0  0  # atno 6909 bound_to 6896
  146.2354  140.2014  142.8334 H   0  0  0  0  0  0  0  0  0  0  0  0  # atno 7974 bound_to 7965
  155.7842  140.3481  155.5314 H   0  0  0  0  0  0  0  0  0  0  0  0  # atno 8008 bound_to 7997
  155.8698  140.0985  157.1578 H   0  0  0  0  0  0  0  0  0  0  0  0  # atno 8009 bound_to 7997
  154.4017  140.1342  156.4051 H   0  0  0  0  0  0  0  0  0  0  0  0  # atno 8010 bound_to 7997
  139.6139  144.0759  152.1869 H   0  0  0  0  0  0  0  0  0  0  0  0  # atno 10167 bound_to 10162
  156.6472  130.8992  151.3007 H   0  0  0  0  0  0  0  0  0  0  0  0  # atno 10718 bound_to 10713
  153.0051  135.5397  154.6490 H   0  0  0  0  0  0  0  0  0  0  0  0  # atno 10763 bound_to 10752
  154.5727  135.2843  155.0813 H   0  0  0  0  0  0  0  0  0  0  0  0  # atno 10764 bound_to 10752
  154.1973  135.6490  153.5129 H   0  0  0  0  0  0  0  0  0  0  0  0  # atno 10765 bound_to 10752
  140.0412  134.5871  155.9380 H   0  0  0  0  0  0  0  0  0  0  0  0  # atno 11005 bound_to 11000
  144.9779  140.8431  143.5415 LP  0  0  0  0  0  0  0  0  0  0  0  0  # atno 17320 bound_to 7965
  145.2003  139.2255  143.5196 LP  0  0  0  0  0  0  0  0  0  0  0  0  # atno 17321 bound_to 7965
  140.0384  144.6026  150.7431 LP  0  0  0  0  0  0  0  0  0  0  0  0  # atno 17342 bound_to 10162
  140.7338  143.2721  151.3856 LP  0  0  0  0  0  0  0  0  0  0  0  0  # atno 17343 bound_to 10162
  157.7152  130.9489  150.1231 LP  0  0  0  0  0  0  0  0  0  0  0  0  # atno 17370 bound_to 10713
  156.2113  130.3667  149.8667 LP  0  0  0  0  0  0  0  0  0  0  0  0  # atno 17371 bound_to 10713
  141.1884  133.6562  156.5322 LP  0  0  0  0  0  0  0  0  0  0  0  0  # atno 17394 bound_to 11000
  140.4066  134.7309  157.4811 LP  0  0  0  0  0  0  0  0  0  0  0  0  # atno 17395 bound_to 11000

$$$$
