AV-unprocessed.smi:40|AV-procd|sdf|370|dock10
  -GOLD-   2262016213D 1   1.00000     0.00000
 Structure written by MMmdl.
 47 48  0  0  0  0  0  0  0  0  1 V2000
  150.1655  144.8560  159.5992 C   0  0  0  0  0  0  0  0  0  0  0  0
  151.6123  145.1428  159.1773 C   0  0  0  0  0  0  0  0  0  0  0  0
  152.4446  143.8766  158.9175 C   0  0  0  0  0  0  0  0  0  0  0  0
  152.5058  142.9142  160.1180 C   0  0  0  0  0  0  0  0  0  0  0  0
  152.9349  141.4939  159.7248 C   0  0  0  0  0  0  0  0  0  0  0  0
  152.1542  141.0668  158.6227 O   0  0  0  0  0  0  0  0  0  0  0  0
  151.6768  139.8093  158.5622 C   0  0  0  0  0  0  0  0  0  0  0  0
  152.0670  138.8819  159.2708 O   0  0  0  0  0  0  0  0  0  0  0  0
  150.6734  139.6972  157.5226 N   0  0  0  0  0  0  0  0  0  0  0  0
  149.9979  138.5731  157.2007 C   0  0  0  0  0  0  0  0  0  0  0  0
  150.0931  137.5422  158.0199 N   0  0  0  0  0  0  0  0  0  0  0  0
  149.4897  136.3343  157.7901 C   0  0  0  0  0  0  0  0  0  0  0  0
  149.6426  135.3966  158.5715 O   0  0  0  0  0  0  0  0  0  0  0  0
  148.7089  136.2088  156.6164 N   0  0  0  0  0  0  0  0  0  0  0  0
  148.0529  134.8831  156.2997 C   0  0  1  0  0  0  0  0  0  0  0  0
  146.6723  135.0774  156.2149 O   0  0  0  0  0  0  0  0  0  0  0  0
  146.1634  134.3913  155.0773 C   0  0  1  0  0  0  0  0  0  0  0  0
  144.8228  134.9853  154.6198 C   0  0  0  0  0  0  0  0  0  0  0  0
  147.3106  134.4251  154.0594 C   0  0  1  0  0  0  0  0  0  0  0  0
  147.3047  135.6394  153.3273 O   0  0  0  0  0  0  0  0  0  0  0  0
  148.5348  134.2825  154.9598 C   0  0  1  0  0  0  0  0  0  0  0  0
  149.7094  134.8567  154.4089 O   0  0  0  0  0  0  0  0  0  0  0  0
  148.5798  137.2891  155.7567 C   0  0  0  0  0  0  0  0  0  0  0  0
  149.1906  138.4675  155.9986 C   0  0  0  0  0  0  0  0  0  0  0  0
  149.0440  139.4991  155.1489 F   0  0  0  0  0  0  0  0  0  0  0  0
  148.2498  134.2271  157.1486 H   0  0  0  0  0  0  0  0  0  0  0  0
  146.0028  133.3539  155.3763 H   0  0  0  0  0  0  0  0  0  0  0  0
  147.2401  133.6030  153.3464 H   0  0  0  0  0  0  0  0  0  0  0  0
  148.7218  133.2226  155.1369 H   0  0  0  0  0  0  0  0  0  0  0  0
  149.6413  145.7829  159.8332 H   0  0  0  0  0  0  0  0  0  0  0  0
  150.1320  144.2233  160.4866 H   0  0  0  0  0  0  0  0  0  0  0  0
  149.6077  144.3561  158.8077 H   0  0  0  0  0  0  0  0  0  0  0  0
  151.6203  145.7800  158.2924 H   0  0  0  0  0  0  0  0  0  0  0  0
  152.0942  145.7198  159.9673 H   0  0  0  0  0  0  0  0  0  0  0  0
  152.0067  143.3549  158.0655 H   0  0  0  0  0  0  0  0  0  0  0  0
  153.4542  144.1551  158.6136 H   0  0  0  0  0  0  0  0  0  0  0  0
  153.2098  143.2949  160.8574 H   0  0  0  0  0  0  0  0  0  0  0  0
  151.5337  142.8748  160.6109 H   0  0  0  0  0  0  0  0  0  0  0  0
  153.9942  141.4724  159.4656 H   0  0  0  0  0  0  0  0  0  0  0  0
  152.7862  140.8136  160.5644 H   0  0  0  0  0  0  0  0  0  0  0  0
  150.4154  140.5652  157.0769 H   0  0  0  0  0  0  0  0  0  0  0  0
  144.4567  134.4827  153.7246 H   0  0  0  0  0  0  0  0  0  0  0  0
  144.9074  136.0496  154.3993 H   0  0  0  0  0  0  0  0  0  0  0  0
  144.0665  134.8730  155.3970 H   0  0  0  0  0  0  0  0  0  0  0  0
  147.9117  135.5592  152.6077 H   0  0  0  0  0  0  0  0  0  0  0  0
  149.5104  135.1654  153.5379 H   0  0  0  0  0  0  0  0  0  0  0  0
  147.9815  137.2021  154.8620 H   0  0  0  0  0  0  0  0  0  0  0  0
  1  2  1  0  0  0  0
  1 30  1  0  0  0  0
  1 31  1  0  0  0  0
  1 32  1  0  0  0  0
  2  3  1  0  0  0  0
  2 33  1  0  0  0  0
  2 34  1  0  0  0  0
  3  4  1  0  0  0  0
  3 35  1  0  0  0  0
  3 36  1  0  0  0  0
  4  5  1  0  0  0  0
  4 37  1  0  0  0  0
  4 38  1  0  0  0  0
  5  6  1  0  0  0  0
  5 39  1  0  0  0  0
  5 40  1  0  0  0  0
  6  7  1  0  0  0  0
  7  8  2  0  0  0  0
  7  9  1  0  0  0  0
  9 10  1  0  0  0  0
  9 41  1  0  0  0  0
 10 24  1  0  0  0  0
 10 11  2  0  0  0  0
 11 12  1  0  0  0  0
 12 13  2  0  0  0  0
 12 14  1  0  0  0  0
 14 15  1  0  0  0  0
 14 23  1  0  0  0  0
 15 26  1  0  0  0  0
 15 21  1  0  0  0  0
 15 16  1  0  0  0  0
 16 17  1  0  0  0  0
 17 27  1  0  0  0  0
 17 18  1  0  0  0  0
 17 19  1  0  0  0  0
 18 42  1  0  0  0  0
 18 43  1  0  0  0  0
 18 44  1  0  0  0  0
 19 28  1  0  0  0  0
 19 20  1  0  0  0  0
 19 21  1  0  0  0  0
 20 45  1  0  0  0  0
 21 29  1  0  0  0  0
 21 22  1  0  0  0  0
 22 46  1  0  0  0  0
 23 24  2  0  0  0  0
 23 47  1  0  0  0  0
 24 25  1  0  0  0  0
M  END
> <s_m_source_file>
AV-unprocessed.smi

> <i_m_source_file_index>
40

> <i_lp_mmshare_version>
43012

> <i_f3d_flags>
0

> <s_epik_input>
W0NIM11bQ0gyXVtDSDJdW0NIMl1bQ0gyXU9DKD1PKVtOSF1jMW5jKD1PKW4oW2NIXWMxRilbQ0BASF0yT1tDQEhdKFtDSDNdKVtDQEBIXShbT0hdKVtDQEhdMltPSF0=

> <s_epik_cmdline>
J2VwaWtfcHl0aG9uJywgJy1waCcsICc3LjAnLCAnLXRuJywgJzgnLCAnLW1hJywgJzIwMCcsICctbWV0YWxfYmluZGluZycsICctaW1hZScsICc8aW5maWxlLm1hZT4nLCAnLW9tYWUnLCAnPG91dGZpbGUubWFlPic=

> <r_lp_tautomer_probability>
1

> <r_epik_Ionization_Penalty>
2.29506e-06

> <r_epik_Ionization_Penalty_Charging>
8.26867e-09

> <r_epik_Ionization_Penalty_Neutral>
2.2868e-06

> <r_epik_State_Penalty>
-0

> <r_epik_Charging_Adjusted_Penalty>
8.26867e-09

> <i_epik_Tot_Q>
0

> <i_epik_Tot_abs_Q>
0

> <r_epik_Metal_State_Penalty>
-0

> <b_epik_Metal_Only>
0

> <s_epik_Chemistry_Notes>
This compound has an ester and may undergo hydrolysis at high or low pH. This compound contains an acetal/aminal-like group ( X-CH(R)-Y where X, Y are N, S, or O) that may be acid/base labile, releasing an aldehyde.

> <s_lp_Force_Field>
OPLS_2005

> <r_lp_Energy>
45.3247

> <b_lp_Chiralities_Consistent>
1

> <s_lp_Variant>
AV-unprocessed.smi:40-4

> <Gold.Version>
5.8.1

> <Gold.Id.Protein>
6NUR|6NUR_protein|mol2

> <Gold.PLP.Fitness>
38.7538

> <Gold.PLP.PLP>
-30.8832

> <Gold.PLP.part.hbond>
-2.6368

> <Gold.PLP.part.metal>
0.0000

> <Gold.PLP.part.buried>
-5.5820

> <Gold.PLP.part.nonpolar>
-22.2657

> <Gold.PLP.part.repulsive>
0.0400

> <Gold.PLP.ligand.clash>
0.0000

> <Gold.PLP.ligand.torsion>
0.5984

> <Gold.PLP.Chemscore.Hbond>
3.0000

> <Gold.PLP.Chemscore.CHOScore>
0.0000

> <Gold.PLP.Chemscore.Metal>
0.0000

> <Gold.Chemscore.Hbonds>
donor molecule, donor type, donor heavy atom, donor atom, acceptor molecule, acceptor atom, score
      L1  H    20    45       P1  7948  0.69
      L1  H    22    46       P1  7948  0.65
      P1  H  6896  6907       L1    13  1.00

> <Gold.PLP.Chemscore.Internal.Correction>
0.0673

> <Gold.Rescore>
     Score         DG    S(hbond)    S(metal)    S(lipo)     H(rot)  DE(clash)    DE(int)     intcor
     10.86     -13.18       2.85        0.00      65.40       3.70       0.01       2.32       ----

> <Gold.Chemscore.Fitness>
10.8561

> <Gold.Chemscore.DG>
-13.1824

> <Gold.Chemscore.ZeroCoef>
-5.4800

> <Gold.Chemscore.Hbond>
2.8477

> <Gold.Chemscore.Metal>
0.0000

> <Gold.Chemscore.Lipo>
65.4022

> <Gold.Chemscore.Internal_Hbond>
0.0000

> <Gold.Chemscore.DEClash>
0.0089

> <Gold.Chemscore.DEInternal>
2.3175

> <Gold.Chemscore.Rot>
3.6957

> <Gold.Chemscore.Internal.Correction>
   9.000000E+99

> <Gold.Chemscore.Hbonds>
donor molecule, donor type, donor heavy atom, donor atom, acceptor molecule, acceptor atom, score
      L1  H    20    45       P1  7948  0.67
      L1  H    22    46       P1  7948  0.05
      P1  H  6896  6907       L1    13  0.97

> <Gold.Chemscore.Hbond.Weighted>
-9.5113

> <Gold.Chemscore.Metal.Weighted>
-0.0000

> <Gold.Chemscore.Lipo.Weighted>
-7.6521

> <Gold.Chemscore.Internal_Hbond.Weighted>
0.0000

> <Gold.Chemscore.DEClash.Weighted>
0.0089

> <Gold.Chemscore.DEInternal.Weighted>
2.3175

> <Gold.Chemscore.Rot.Weighted>
9.4610

> <Gold.Chemscore.Internal.Correction.Weighted>
   9.000000E+99

> <Gold.Protein.RotatedTorsions>
[ 6907 6896 6895 6894 ] final  -85.57 input  -60.11 | X-H torsion
[ 7974 7965 7964 7962 ] final   69.79 input  175.53 | X-H torsion
[ 8008 7997 7996 7995 ] final   67.66 input   59.86 | X-H torsion
[ 10167 10162 10161 10158 ] final -170.22 input  -65.29 | X-H torsion
[ 10718 10713 10712 10709 ] final  141.83 input   66.30 | X-H torsion
[ 10763 10752 10751 10750 ] final -138.41 input  -60.55 | X-H torsion
[ 11005 11000 10999 10996 ] final   93.82 input  -57.11 | X-H torsion

> <Gold.Protein.ActiveResidues>
 VAL166  LYS551  ARG553  GLY616  TRP617  ASP618  TYR619  PRO620  LYS621  CYS622 
 ASP623  PHE694  ASN695  SER759  ASP760  ASP761  ALA762  ILE779  LEU786  VAL792 
 PHE793  MET794  SER795  GLU796  ALA797  LYS798  CYS799  TRP800  GLU811  SER814 

> <Gold.Protein.RotatedAtoms>
  150.6870  134.3185  159.4776 H   0  0  0  0  0  0  0  0  0  0  0  0  # atno 6907 bound_to 6896
  152.1063  134.9304  160.0577 H   0  0  0  0  0  0  0  0  0  0  0  0  # atno 6908 bound_to 6896
  152.0564  133.4007  159.4436 H   0  0  0  0  0  0  0  0  0  0  0  0  # atno 6909 bound_to 6896
  145.7861  139.2911  143.1237 H   0  0  0  0  0  0  0  0  0  0  0  0  # atno 7974 bound_to 7965
  155.6963  140.3495  155.4914 H   0  0  0  0  0  0  0  0  0  0  0  0  # atno 8008 bound_to 7997
  155.9480  140.1114  157.1023 H   0  0  0  0  0  0  0  0  0  0  0  0  # atno 8009 bound_to 7997
  154.4116  140.1200  156.5001 H   0  0  0  0  0  0  0  0  0  0  0  0  # atno 8010 bound_to 7997
  139.5875  144.1287  152.1593 H   0  0  0  0  0  0  0  0  0  0  0  0  # atno 10167 bound_to 10162
  157.3875  131.1000  151.0678 H   0  0  0  0  0  0  0  0  0  0  0  0  # atno 10718 bound_to 10713
  154.8637  135.3613  154.5381 H   0  0  0  0  0  0  0  0  0  0  0  0  # atno 10763 bound_to 10752
  153.6003  135.7013  153.5392 H   0  0  0  0  0  0  0  0  0  0  0  0  # atno 10764 bound_to 10752
  153.3296  135.4128  155.1446 H   0  0  0  0  0  0  0  0  0  0  0  0  # atno 10765 bound_to 10752
  139.8805  134.8811  156.3773 H   0  0  0  0  0  0  0  0  0  0  0  0  # atno 11005 bound_to 11000
  146.0024  140.8508  143.0012 LP  0  0  0  0  0  0  0  0  0  0  0  0  # atno 17320 bound_to 7965
  144.6789  140.2372  143.7348 LP  0  0  0  0  0  0  0  0  0  0  0  0  # atno 17321 bound_to 7965
  140.0853  144.5666  150.7093 LP  0  0  0  0  0  0  0  0  0  0  0  0  # atno 17342 bound_to 10162
  140.7144  143.2532  151.4481 LP  0  0  0  0  0  0  0  0  0  0  0  0  # atno 17343 bound_to 10162
  157.1724  130.6273  149.5645 LP  0  0  0  0  0  0  0  0  0  0  0  0  # atno 17370 bound_to 10713
  155.9790  130.4781  150.6691 LP  0  0  0  0  0  0  0  0  0  0  0  0  # atno 17371 bound_to 10713
  140.9423  133.7506  156.0162 LP  0  0  0  0  0  0  0  0  0  0  0  0  # atno 17394 bound_to 11000
  140.8205  134.3295  157.5383 LP  0  0  0  0  0  0  0  0  0  0  0  0  # atno 17395 bound_to 11000

$$$$
