AV-unprocessed.smi:1643|AV-procd|sdf|6582|dock4
  -GOLD-   22720 7273D 1   1.00000     0.00000
 Structure written by MMmdl.
 54 56  0  0  0  0  0  0  0  0  2 V2000
  147.5945  134.7463  161.7075 C   0  0  0  0  0  0  0  0  0  0  0  0
  147.5549  136.1172  161.0274 C   0  0  0  0  0  0  0  0  0  0  0  0
  147.6861  137.1199  161.7298 O   0  0  0  0  0  0  0  0  0  0  0  0
  147.3734  136.1827  159.6865 N   0  0  0  0  0  0  0  0  0  0  0  0
  147.2706  134.9811  158.8510 C   0  0  0  0  0  0  0  0  0  0  0  0
  148.6575  134.5689  158.3316 C   0  0  0  0  0  0  0  0  0  0  0  0
  149.4108  135.6732  157.5602 C   0  0  0  0  0  0  0  0  0  0  0  0
  149.8345  136.8022  158.4009 N   0  0  0  0  0  0  0  0  0  0  0  0
  151.0981  137.3923  157.9523 C   0  0  0  0  0  0  0  0  0  0  0  0
  151.1180  137.8537  156.4810 C   0  0  2  0  0  0  0  0  0  0  0  0
  151.4769  136.7516  155.6707 O   0  0  0  0  0  0  0  0  0  0  0  0
  152.1351  138.9883  156.2569 C   0  0  0  0  0  0  0  0  0  0  0  0
  151.5459  140.3199  156.4449 N   0  0  0  0  0  0  0  0  0  0  0  0
  150.6632  141.0044  155.6683 C   0  0  0  0  0  0  0  0  0  0  0  0
  150.4197  142.1974  156.2788 N   0  3  0  0  0  0  0  0  0  0  0  0
  151.1583  142.2746  157.4621 C   0  0  0  0  0  0  0  0  0  0  0  0
  151.2475  143.2798  158.4178 C   0  0  0  0  0  0  0  0  0  0  0  0
  152.0987  143.0464  159.5217 C   0  0  0  0  0  0  0  0  0  0  0  0
  152.2225  144.1268  160.5825 C   0  0  0  0  0  0  0  0  0  0  0  0
  152.8226  141.8316  159.6423 C   0  0  0  0  0  0  0  0  0  0  0  0
  153.7313  141.5895  160.8356 C   0  0  0  0  0  0  0  0  0  0  0  0
  152.7186  140.8217  158.6593 C   0  0  0  0  0  0  0  0  0  0  0  0
  151.8801  141.0708  157.5758 C   0  0  0  0  0  0  0  0  0  0  0  0
  148.8055  137.8509  158.4794 C   0  0  0  0  0  0  0  0  0  0  0  0
  147.3828  137.4269  158.9093 C   0  0  0  0  0  0  0  0  0  0  0  0
  146.6867  134.1799  161.5001 H   0  0  0  0  0  0  0  0  0  0  0  0
  147.6741  134.8577  162.7894 H   0  0  0  0  0  0  0  0  0  0  0  0
  148.4562  134.1712  161.3682 H   0  0  0  0  0  0  0  0  0  0  0  0
  146.8226  134.1540  159.4040 H   0  0  0  0  0  0  0  0  0  0  0  0
  146.5977  135.1499  158.0095 H   0  0  0  0  0  0  0  0  0  0  0  0
  149.2740  134.2306  159.1655 H   0  0  0  0  0  0  0  0  0  0  0  0
  148.5391  133.7025  157.6804 H   0  0  0  0  0  0  0  0  0  0  0  0
  150.2759  135.1950  157.1050 H   0  0  0  0  0  0  0  0  0  0  0  0
  148.8137  136.0291  156.7194 H   0  0  0  0  0  0  0  0  0  0  0  0
  151.3471  138.2326  158.6021 H   0  0  0  0  0  0  0  0  0  0  0  0
  151.9070  136.6713  158.0823 H   0  0  0  0  0  0  0  0  0  0  0  0
  150.1349  138.1982  156.1638 H   0  0  0  0  0  0  0  0  0  0  0  0
  150.8842  136.0396  155.8603 H   0  0  0  0  0  0  0  0  0  0  0  0
  152.9874  138.8894  156.9303 H   0  0  0  0  0  0  0  0  0  0  0  0
  152.5365  138.9465  155.2433 H   0  0  0  0  0  0  0  0  0  0  0  0
  150.2307  140.6603  154.7397 H   0  0  0  0  0  0  0  0  0  0  0  0
  150.6908  144.2005  158.3210 H   0  0  0  0  0  0  0  0  0  0  0  0
  153.2623  144.4330  160.6998 H   0  0  0  0  0  0  0  0  0  0  0  0
  151.8569  143.7628  161.5429 H   0  0  0  0  0  0  0  0  0  0  0  0
  151.6435  145.0124  160.3194 H   0  0  0  0  0  0  0  0  0  0  0  0
  154.1690  140.5912  160.8080 H   0  0  0  0  0  0  0  0  0  0  0  0
  153.1742  141.6813  161.7683 H   0  0  0  0  0  0  0  0  0  0  0  0
  154.5475  142.3121  160.8461 H   0  0  0  0  0  0  0  0  0  0  0  0
  153.2685  139.8965  158.7498 H   0  0  0  0  0  0  0  0  0  0  0  0
  149.1473  138.6056  159.1886 H   0  0  0  0  0  0  0  0  0  0  0  0
  148.7346  138.3691  157.5218 H   0  0  0  0  0  0  0  0  0  0  0  0
  146.7757  137.3029  158.0121 H   0  0  0  0  0  0  0  0  0  0  0  0
  146.8939  138.2406  159.4455 H   0  0  0  0  0  0  0  0  0  0  0  0
  149.7933  142.9033  155.9134 H   0  0  0  0  0  0  0  0  0  0  0  0
  1  2  1  0  0  0  0
  1 26  1  0  0  0  0
  1 27  1  0  0  0  0
  1 28  1  0  0  0  0
  2  3  2  0  0  0  0
  2  4  1  0  0  0  0
  4 25  1  0  0  0  0
  4  5  1  0  0  0  0
  5  6  1  0  0  0  0
  5 29  1  0  0  0  0
  5 30  1  0  0  0  0
  6  7  1  0  0  0  0
  6 31  1  0  0  0  0
  6 32  1  0  0  0  0
  7  8  1  0  0  0  0
  7 33  1  0  0  0  0
  7 34  1  0  0  0  0
  8  9  1  0  0  0  0
  8 24  1  0  0  0  0
  9 10  1  0  0  0  0
  9 35  1  0  0  0  0
  9 36  1  0  0  0  0
 10 11  1  0  0  0  0
 10 12  1  0  0  0  0
 10 37  1  0  0  0  0
 11 38  1  0  0  0  0
 12 13  1  0  0  0  0
 12 39  1  0  0  0  0
 12 40  1  0  0  0  0
 13 23  1  0  0  0  0
 13 14  1  0  0  0  0
 14 15  2  0  0  0  0
 14 41  1  0  0  0  0
 15 16  1  0  0  0  0
 15 54  1  0  0  0  0
 16 23  2  0  0  0  0
 16 17  1  0  0  0  0
 17 18  2  0  0  0  0
 17 42  1  0  0  0  0
 18 19  1  0  0  0  0
 18 20  1  0  0  0  0
 19 43  1  0  0  0  0
 19 44  1  0  0  0  0
 19 45  1  0  0  0  0
 20 21  1  0  0  0  0
 20 22  2  0  0  0  0
 21 46  1  0  0  0  0
 21 47  1  0  0  0  0
 21 48  1  0  0  0  0
 22 23  1  0  0  0  0
 22 49  1  0  0  0  0
 24 25  1  0  0  0  0
 24 50  1  0  0  0  0
 24 51  1  0  0  0  0
 25 52  1  0  0  0  0
 25 53  1  0  0  0  0
M  CHG  1  15   1
M  END
> <s_m_source_file>
AV-unprocessed.smi

> <i_m_source_file_index>
1643

> <i_lp_mmshare_version>
43012

> <i_f3d_flags>
0

> <s_epik_input>
W0NIM11DKD1PKU4xW0NIMl1bQ0gyXVtDSDJdTihbQ0gyXVtDSDJdMSlbQ0gyXVtDQEhdKFtPSF0pW0NIMl1uKFtjSF1uMiljKGMyMylbY0hdYyhbQ0gzXSljKFtjSF0zKVtDSDNd

> <s_epik_cmdline>
J2VwaWtfcHl0aG9uJywgJy1waCcsICc3LjAnLCAnLXRuJywgJzgnLCAnLW1hJywgJzIwMCcsICctbWV0YWxfYmluZGluZycsICctaW1hZScsICc8aW5maWxlLm1hZT4nLCAnLW9tYWUnLCAnPG91dGZpbGUubWFlPic=

> <r_epik_Ionization_Penalty>
2.25269

> <r_epik_Ionization_Penalty_Charging>
1.20735

> <r_epik_Ionization_Penalty_Neutral>
1.04533

> <r_epik_State_Penalty>
2.37869

> <r_epik_Charging_Adjusted_Penalty>
3.58604

> <i_epik_Tot_Q>
1

> <i_epik_Tot_abs_Q>
1

> <r_epik_Metal_State_Penalty>
6.40045

> <b_epik_Metal_Only>
0

> <s_lp_Force_Field>
OPLS_2005

> <r_lp_Energy>
52.9577

> <b_lp_Chiralities_Consistent>
1

> <s_lp_Variant>
AV-unprocessed.smi:1643-11

> <Gold.Version>
5.8.1

> <Gold.Id.Protein>
6NUR|6NUR_protein|mol2

> <Gold.PLP.Fitness>
55.8903

> <Gold.PLP.PLP>
-44.3258

> <Gold.PLP.part.hbond>
-3.7427

> <Gold.PLP.part.metal>
0.0000

> <Gold.PLP.part.buried>
-4.3512

> <Gold.PLP.part.nonpolar>
-34.9253

> <Gold.PLP.part.repulsive>
0.1021

> <Gold.PLP.ligand.clash>
0.0000

> <Gold.PLP.ligand.torsion>
0.8407

> <Gold.PLP.Chemscore.Hbond>
4.3767

> <Gold.PLP.Chemscore.CHOScore>
0.0000

> <Gold.PLP.Chemscore.Metal>
0.0000

> <Gold.Chemscore.Hbonds>
donor molecule, donor type, donor heavy atom, donor atom, acceptor molecule, acceptor atom, score
      L1  H    15    54       P1  8028  1.92
      P1  H  6931  6943       L1     3  1.00
      P1  H  6934  6947       L1     3  0.56
      P1  H 10752 10765       L1    11  0.61

> <Gold.PLP.Chemscore.Internal.Correction>
0.1157

> <Gold.Rescore>
     Score         DG    S(hbond)    S(metal)    S(lipo)     H(rot)  DE(clash)    DE(int)     intcor
     20.65     -22.37       2.78        0.00     111.49       2.12       0.07       1.65       ----

> <Gold.Chemscore.Fitness>
20.6507

> <Gold.Chemscore.DG>
-22.3729

> <Gold.Chemscore.ZeroCoef>
-5.4800

> <Gold.Chemscore.Hbond>
2.7787

> <Gold.Chemscore.Metal>
0.0000

> <Gold.Chemscore.Lipo>
111.4903

> <Gold.Chemscore.Internal_Hbond>
0.0000

> <Gold.Chemscore.DEClash>
0.0678

> <Gold.Chemscore.DEInternal>
1.6544

> <Gold.Chemscore.Rot>
2.1220

> <Gold.Chemscore.Internal.Correction>
   9.000000E+99

> <Gold.Chemscore.Hbonds>
donor molecule, donor type, donor heavy atom, donor atom, acceptor molecule, acceptor atom, score
      L1  H    15    54       P1  8028  0.91
      P1  H  6931  6943       L1     3  0.97
      P1  H  6934  6947       L1     3  0.55
      P1  H 10752 10765       L1    11  0.09

> <Gold.Chemscore.Hbond.Weighted>
-9.2807

> <Gold.Chemscore.Metal.Weighted>
-0.0000

> <Gold.Chemscore.Lipo.Weighted>
-13.0444

> <Gold.Chemscore.Internal_Hbond.Weighted>
0.0000

> <Gold.Chemscore.DEClash.Weighted>
0.0678

> <Gold.Chemscore.DEInternal.Weighted>
1.6544

> <Gold.Chemscore.Rot.Weighted>
5.4322

> <Gold.Chemscore.Internal.Correction.Weighted>
   9.000000E+99

> <Gold.Protein.RotatedTorsions>
[ 6907 6896 6895 6894 ] final  -53.62 input  -60.11 | X-H torsion
[ 7974 7965 7964 7962 ] final   68.03 input  175.53 | X-H torsion
[ 8008 7997 7996 7995 ] final -143.00 input   59.86 | X-H torsion
[ 10167 10162 10161 10158 ] final -164.04 input  -65.29 | X-H torsion
[ 10718 10713 10712 10709 ] final -123.13 input   66.30 | X-H torsion
[ 10763 10752 10751 10750 ] final -171.50 input  -60.55 | X-H torsion
[ 11005 11000 10999 10996 ] final   65.78 input  -57.11 | X-H torsion

> <Gold.Protein.ActiveResidues>
 VAL166  LYS551  ARG553  GLY616  TRP617  ASP618  TYR619  PRO620  LYS621  CYS622 
 ASP623  PHE694  ASN695  SER759  ASP760  ASP761  ALA762  ILE779  LEU786  VAL792 
 PHE793  MET794  SER795  GLU796  ALA797  LYS798  CYS799  TRP800  GLU811  SER814 

> <Gold.Protein.RotatedAtoms>
  150.8411  134.7703  159.6932 H   0  0  0  0  0  0  0  0  0  0  0  0  # atno 6907 bound_to 6896
  152.4498  134.5415  159.9850 H   0  0  0  0  0  0  0  0  0  0  0  0  # atno 6908 bound_to 6896
  151.5555  133.3373  159.2997 H   0  0  0  0  0  0  0  0  0  0  0  0  # atno 6909 bound_to 6896
  145.8075  139.3014  143.1119 H   0  0  0  0  0  0  0  0  0  0  0  0  # atno 7974 bound_to 7965
  155.5035  140.0577  157.2935 H   0  0  0  0  0  0  0  0  0  0  0  0  # atno 8008 bound_to 7997
  154.4578  140.1981  156.0279 H   0  0  0  0  0  0  0  0  0  0  0  0  # atno 8009 bound_to 7997
  156.0833  140.3244  155.7726 H   0  0  0  0  0  0  0  0  0  0  0  0  # atno 8010 bound_to 7997
  139.6278  144.0498  152.1990 H   0  0  0  0  0  0  0  0  0  0  0  0  # atno 10167 bound_to 10162
  156.1476  130.6511  150.9866 H   0  0  0  0  0  0  0  0  0  0  0  0  # atno 10718 bound_to 10713
  154.6298  135.2885  155.0230 H   0  0  0  0  0  0  0  0  0  0  0  0  # atno 10763 bound_to 10752
  154.1394  135.6521  153.4943 H   0  0  0  0  0  0  0  0  0  0  0  0  # atno 10764 bound_to 10752
  153.0274  135.5329  154.7121 H   0  0  0  0  0  0  0  0  0  0  0  0  # atno 10765 bound_to 10752
  139.9873  134.6647  156.0153 H   0  0  0  0  0  0  0  0  0  0  0  0  # atno 11005 bound_to 11000
  145.9813  140.8680  143.0113 LP  0  0  0  0  0  0  0  0  0  0  0  0  # atno 17320 bound_to 7965
  144.6761  140.2084  143.7379 LP  0  0  0  0  0  0  0  0  0  0  0  0  # atno 17321 bound_to 7965
  140.0156  144.6192  150.7610 LP  0  0  0  0  0  0  0  0  0  0  0  0  # atno 17342 bound_to 10162
  140.7421  143.2828  151.3550 LP  0  0  0  0  0  0  0  0  0  0  0  0  # atno 17343 bound_to 10162
  157.6630  131.0877  150.7794 LP  0  0  0  0  0  0  0  0  0  0  0  0  # atno 17370 bound_to 10713
  156.7865  130.4876  149.5392 LP  0  0  0  0  0  0  0  0  0  0  0  0  # atno 17371 bound_to 10713
  141.1536  133.6545  156.4089 LP  0  0  0  0  0  0  0  0  0  0  0  0  # atno 17394 bound_to 11000
  140.4977  134.6515  157.5236 LP  0  0  0  0  0  0  0  0  0  0  0  0  # atno 17395 bound_to 11000

$$$$
