AV-unprocessed.smi:759|AV-procd|sdf|3621|dock3
  -GOLD-   22720 1 13D 1   1.00000     0.00000
 Structure written by MMmdl.
 24 25  0  0  0  0  0  0  0  0  2 V2000
  152.4825  138.4059  154.5022 C   0  0  0  0  0  0  0  0  0  0  0  0
  151.7611  137.2895  154.4239 N   0  0  0  0  0  0  0  0  0  0  0  0
  150.5022  137.7560  154.5589 N   0  0  0  0  0  0  0  0  0  0  0  0
  150.5356  139.0819  154.7093 C   0  0  0  0  0  0  0  0  0  0  0  0
  149.2924  139.9002  154.8808 C   0  0  2  0  0  0  0  0  0  0  0  0
  148.2708  139.6422  153.7568 C   0  0  0  0  0  0  0  0  0  0  0  0
  147.0165  140.5063  153.9600 C   0  0  0  0  0  0  0  0  0  0  0  0
  147.3876  141.9926  154.0930 C   0  0  0  0  0  0  0  0  0  0  0  0
  148.3636  142.1917  155.1865 N   0  3  0  0  0  0  0  0  0  0  0  0
  149.6044  141.4061  155.0051 C   0  0  0  0  0  0  0  0  0  0  0  0
  151.7752  139.5619  154.6801 N   0  0  0  0  0  0  0  0  0  0  0  0
  153.5601  138.3877  154.4293 H   0  0  0  0  0  0  0  0  0  0  0  0
  148.8295  139.5866  155.8184 H   0  0  0  0  0  0  0  0  0  0  0  0
  148.7160  139.8713  152.7873 H   0  0  0  0  0  0  0  0  0  0  0  0
  147.9951  138.5873  153.7314 H   0  0  0  0  0  0  0  0  0  0  0  0
  146.3285  140.3662  153.1257 H   0  0  0  0  0  0  0  0  0  0  0  0
  146.4871  140.1789  154.8558 H   0  0  0  0  0  0  0  0  0  0  0  0
  147.8122  142.3640  153.1591 H   0  0  0  0  0  0  0  0  0  0  0  0
  146.4976  142.5882  154.2977 H   0  0  0  0  0  0  0  0  0  0  0  0
  148.6016  143.1720  155.2393 H   0  0  0  0  0  0  0  0  0  0  0  0
  150.2629  141.5891  155.8547 H   0  0  0  0  0  0  0  0  0  0  0  0
  150.1244  141.7662  154.1159 H   0  0  0  0  0  0  0  0  0  0  0  0
  147.9318  141.9144  156.0564 H   0  0  0  0  0  0  0  0  0  0  0  0
  149.6887  137.1573  154.5416 H   0  0  0  0  0  0  0  0  0  0  0  0
  1 11  1  0  0  0  0
  1 12  1  0  0  0  0
  1  2  2  0  0  0  0
  2  3  1  0  0  0  0
  3  4  1  0  0  0  0
  3 24  1  0  0  0  0
  4 11  2  0  0  0  0
  4  5  1  0  0  0  0
  5 10  1  0  0  0  0
  5  6  1  0  0  0  0
  5 13  1  0  0  0  0
  6  7  1  0  0  0  0
  6 14  1  0  0  0  0
  6 15  1  0  0  0  0
  7  8  1  0  0  0  0
  7 16  1  0  0  0  0
  7 17  1  0  0  0  0
  8  9  1  0  0  0  0
  8 18  1  0  0  0  0
  8 19  1  0  0  0  0
  9 10  1  0  0  0  0
  9 20  1  0  0  0  0
  9 23  1  0  0  0  0
 10 21  1  0  0  0  0
 10 22  1  0  0  0  0
M  CHG  1   9   1
M  END
> <s_m_source_file>
AV-unprocessed.smi

> <i_m_source_file_index>
759

> <i_lp_mmshare_version>
43012

> <i_f3d_flags>
0

> <s_epik_input>
W25IXTFbY0hdbm5jMVtDQEBIXTJbQ0gyXVtDSDJdW0NIMl1bTkhdW0NIMl0y

> <s_epik_cmdline>
J2VwaWtfcHl0aG9uJywgJy1waCcsICc3LjAnLCAnLXRuJywgJzgnLCAnLW1hJywgJzIwMCcsICctbWV0YWxfYmluZGluZycsICctaW1hZScsICc8aW5maWxlLm1hZT4nLCAnLW9tYWUnLCAnPG91dGZpbGUubWFlPic=

> <r_epik_Ionization_Penalty>
0.00885924

> <r_epik_Ionization_Penalty_Charging>
0.000426856

> <r_epik_Ionization_Penalty_Neutral>
0.00843239

> <r_epik_State_Penalty>
0.640618

> <r_epik_Charging_Adjusted_Penalty>
0.641045

> <i_epik_Tot_Q>
1

> <i_epik_Tot_abs_Q>
1

> <r_epik_Metal_State_Penalty>
0.906339

> <b_epik_Metal_Only>
0

> <s_lp_Force_Field>
OPLS_2005

> <r_lp_Energy>
13.0828

> <b_lp_Chiralities_Consistent>
1

> <s_lp_Variant>
AV-unprocessed.smi:759-3

> <Gold.Version>
5.8.1

> <Gold.Id.Protein>
6NUR|6NUR_protein|mol2

> <Gold.PLP.Fitness>
34.4998

> <Gold.PLP.PLP>
-22.5525

> <Gold.PLP.part.hbond>
-3.0000

> <Gold.PLP.part.metal>
0.0000

> <Gold.PLP.part.buried>
-3.0604

> <Gold.PLP.part.nonpolar>
-17.1579

> <Gold.PLP.part.repulsive>
0.4401

> <Gold.PLP.ligand.clash>
0.0000

> <Gold.PLP.ligand.torsion>
0.0408

> <Gold.PLP.Chemscore.Hbond>
4.0000

> <Gold.PLP.Chemscore.CHOScore>
0.0000

> <Gold.PLP.Chemscore.Metal>
0.0000

> <Gold.Chemscore.Hbonds>
donor molecule, donor type, donor heavy atom, donor atom, acceptor molecule, acceptor atom, score
      L1  H     9    20       P1  8028  2.00
      P1  H  7989  7998       L1    11  1.00
      P1  H 10752 10763       L1     2  0.99

> <Gold.PLP.Chemscore.Internal.Correction>
0.0290

> <Gold.Rescore>
     Score         DG    S(hbond)    S(metal)    S(lipo)     H(rot)  DE(clash)    DE(int)     intcor
     15.51     -15.56       2.77        0.00      29.01       1.00       0.00       0.04       ----

> <Gold.Chemscore.Fitness>
15.5111

> <Gold.Chemscore.DG>
-15.5565

> <Gold.Chemscore.ZeroCoef>
-5.4800

> <Gold.Chemscore.Hbond>
2.7673

> <Gold.Chemscore.Metal>
0.0000

> <Gold.Chemscore.Lipo>
29.0069

> <Gold.Chemscore.Internal_Hbond>
0.0000

> <Gold.Chemscore.DEClash>
0.0038

> <Gold.Chemscore.DEInternal>
0.0416

> <Gold.Chemscore.Rot>
1.0000

> <Gold.Chemscore.Internal.Correction>
   9.000000E+99

> <Gold.Chemscore.Hbonds>
donor molecule, donor type, donor heavy atom, donor atom, acceptor molecule, acceptor atom, score
      L1  H     9    20       P1  8028  0.99
      P1  H  7989  7998       L1    11  0.38
      P1  H 10752 10763       L1     2  0.72

> <Gold.Chemscore.Hbond.Weighted>
-9.2427

> <Gold.Chemscore.Metal.Weighted>
-0.0000

> <Gold.Chemscore.Lipo.Weighted>
-3.3938

> <Gold.Chemscore.Internal_Hbond.Weighted>
0.0000

> <Gold.Chemscore.DEClash.Weighted>
0.0038

> <Gold.Chemscore.DEInternal.Weighted>
0.0416

> <Gold.Chemscore.Rot.Weighted>
2.5600

> <Gold.Chemscore.Internal.Correction.Weighted>
   9.000000E+99

> <Gold.Protein.RotatedTorsions>
[ 6907 6896 6895 6894 ] final -100.48 input  -60.11 | X-H torsion
[ 7974 7965 7964 7962 ] final   55.61 input  175.53 | X-H torsion
[ 8008 7997 7996 7995 ] final  116.19 input   59.86 | X-H torsion
[ 10167 10162 10161 10158 ] final   13.91 input  -65.29 | X-H torsion
[ 10718 10713 10712 10709 ] final -103.30 input   66.30 | X-H torsion
[ 10763 10752 10751 10750 ] final   51.10 input  -60.55 | X-H torsion
[ 11005 11000 10999 10996 ] final -159.57 input  -57.11 | X-H torsion

> <Gold.Protein.ActiveResidues>
 VAL166  LYS551  ARG553  GLY616  TRP617  ASP618  TYR619  PRO620  LYS621  CYS622 
 ASP623  PHE694  ASN695  SER759  ASP760  ASP761  ALA762  ILE779  LEU786  VAL792 
 PHE793  MET794  SER795  GLU796  ALA797  LYS798  CYS799  TRP800  GLU811  SER814 

> <Gold.Protein.RotatedAtoms>
  150.7117  134.0881  159.3921 H   0  0  0  0  0  0  0  0  0  0  0  0  # atno 6907 bound_to 6896
  151.8866  135.0430  160.0503 H   0  0  0  0  0  0  0  0  0  0  0  0  # atno 6908 bound_to 6896
  152.2525  133.5192  159.5370 H   0  0  0  0  0  0  0  0  0  0  0  0  # atno 6909 bound_to 6896
  145.9485  139.3951  143.0320 H   0  0  0  0  0  0  0  0  0  0  0  0  # atno 7974 bound_to 7965
  156.2425  140.2922  156.0485 H   0  0  0  0  0  0  0  0  0  0  0  0  # atno 8008 bound_to 7997
  155.1907  140.0407  157.2917 H   0  0  0  0  0  0  0  0  0  0  0  0  # atno 8009 bound_to 7997
  154.6196  140.2472  155.7573 H   0  0  0  0  0  0  0  0  0  0  0  0  # atno 8010 bound_to 7997
  140.5971  143.8679  150.6929 H   0  0  0  0  0  0  0  0  0  0  0  0  # atno 10167 bound_to 10162
  156.0260  130.5461  150.7233 H   0  0  0  0  0  0  0  0  0  0  0  0  # atno 10718 bound_to 10713
  152.9785  135.5857  154.4360 H   0  0  0  0  0  0  0  0  0  0  0  0  # atno 10763 bound_to 10752
  154.3967  135.2768  155.2124 H   0  0  0  0  0  0  0  0  0  0  0  0  # atno 10764 bound_to 10752
  154.3972  135.6112  153.5931 H   0  0  0  0  0  0  0  0  0  0  0  0  # atno 10765 bound_to 10752
  140.6411  134.4550  157.5233 H   0  0  0  0  0  0  0  0  0  0  0  0  # atno 11005 bound_to 11000
  145.8203  140.9682  143.0902 LP  0  0  0  0  0  0  0  0  0  0  0  0  # atno 17320 bound_to 7965
  144.6791  140.0033  143.7484 LP  0  0  0  0  0  0  0  0  0  0  0  0  # atno 17321 bound_to 7965
  140.2216  143.3804  152.1638 LP  0  0  0  0  0  0  0  0  0  0  0  0  # atno 17342 bound_to 10162
  139.5265  144.7109  151.5209 LP  0  0  0  0  0  0  0  0  0  0  0  0  # atno 17343 bound_to 10162
  157.4844  131.0905  151.0500 LP  0  0  0  0  0  0  0  0  0  0  0  0  # atno 17370 bound_to 10713
  157.0924  130.5948  149.5442 LP  0  0  0  0  0  0  0  0  0  0  0  0  # atno 17371 bound_to 10713
  139.9080  134.8407  156.1634 LP  0  0  0  0  0  0  0  0  0  0  0  0  # atno 17394 bound_to 11000
  141.0606  133.6844  156.1944 LP  0  0  0  0  0  0  0  0  0  0  0  0  # atno 17395 bound_to 11000

$$$$
