AV-unprocessed.smi:3021|AV-procd|sdf|11498|dock7
  -GOLD-   2272016433D 1   1.00000     0.00000
 Structure written by MMmdl.
 35 37  0  0  0  0  0  0  0  0  1 V2000
  150.2390  140.0149  153.9859 O   0  0  0  0  0  0  0  0  0  0  0  0
  149.3325  140.7892  154.7470 C   0  0  2  0  0  0  0  0  0  0  0  0
  148.2766  141.3704  153.7944 C   0  0  0  0  0  0  0  0  0  0  0  0
  147.4033  142.2024  154.5392 O   0  0  0  0  0  0  0  0  0  0  0  0
  146.3859  142.7901  153.7438 C   0  0  0  0  0  0  0  0  0  0  0  0
  145.3162  143.2933  154.6611 C   0  0  0  0  0  0  0  0  0  0  0  0
  144.6250  144.4719  154.7226 C   0  0  0  0  0  0  0  0  0  0  0  0
  143.7259  144.3566  155.8187 C   0  0  0  0  0  0  0  0  0  0  0  0
  143.9328  143.1142  156.3462 C   0  0  0  0  0  0  0  0  0  0  0  0
  144.8977  142.4524  155.6521 O   0  0  0  0  0  0  0  0  0  0  0  0
  150.1142  141.8914  155.4882 C   0  0  0  0  0  0  0  0  0  0  0  0
  151.0371  141.3505  156.4710 N   0  0  0  0  0  0  0  0  0  0  0  0
  151.6687  140.1701  156.2141 N   0  0  0  0  0  0  0  0  0  0  0  0
  152.4446  139.8863  157.2172 N   0  0  0  0  0  0  0  0  0  0  0  0
  152.3243  140.9007  158.1523 C   0  0  0  0  0  0  0  0  0  0  0  0
  152.9365  141.1001  159.4098 C   0  0  0  0  0  0  0  0  0  0  0  0
  152.6333  142.2458  160.1778 C   0  0  0  0  0  0  0  0  0  0  0  0
  153.4032  142.4547  161.7105 Cl  0  0  0  0  0  0  0  0  0  0  0  0
  151.7121  143.2065  159.6949 C   0  0  0  0  0  0  0  0  0  0  0  0
  151.3303  144.6138  160.6214 Cl  0  0  0  0  0  0  0  0  0  0  0  0
  151.0944  143.0205  158.4421 C   0  0  0  0  0  0  0  0  0  0  0  0
  151.4093  141.8733  157.6943 C   0  0  0  0  0  0  0  0  0  0  0  0
  149.8236  139.7912  153.1668 H   0  0  0  0  0  0  0  0  0  0  0  0
  148.8451  140.1452  155.4805 H   0  0  0  0  0  0  0  0  0  0  0  0
  148.7637  141.9805  153.0319 H   0  0  0  0  0  0  0  0  0  0  0  0
  147.7313  140.5789  153.2768 H   0  0  0  0  0  0  0  0  0  0  0  0
  146.7903  143.6135  153.1540 H   0  0  0  0  0  0  0  0  0  0  0  0
  145.9692  142.0550  153.0540 H   0  0  0  0  0  0  0  0  0  0  0  0
  144.7512  145.3147  154.0591 H   0  0  0  0  0  0  0  0  0  0  0  0
  143.0173  145.0892  156.1756 H   0  0  0  0  0  0  0  0  0  0  0  0
  143.5022  142.5680  157.1724 H   0  0  0  0  0  0  0  0  0  0  0  0
  150.6761  142.5038  154.7817 H   0  0  0  0  0  0  0  0  0  0  0  0
  149.4244  142.5642  156.0001 H   0  0  0  0  0  0  0  0  0  0  0  0
  153.6412  140.3717  159.7830 H   0  0  0  0  0  0  0  0  0  0  0  0
  150.3924  143.7473  158.0605 H   0  0  0  0  0  0  0  0  0  0  0  0
  1  2  1  0  0  0  0
  1 23  1  0  0  0  0
  2  3  1  0  0  0  0
  2 11  1  0  0  0  0
  2 24  1  0  0  0  0
  3  4  1  0  0  0  0
  3 25  1  0  0  0  0
  3 26  1  0  0  0  0
  4  5  1  0  0  0  0
  5  6  1  0  0  0  0
  5 27  1  0  0  0  0
  5 28  1  0  0  0  0
  6 10  1  0  0  0  0
  6  7  2  0  0  0  0
  7  8  1  0  0  0  0
  7 29  1  0  0  0  0
  8  9  2  0  0  0  0
  8 30  1  0  0  0  0
  9 10  1  0  0  0  0
  9 31  1  0  0  0  0
 11 12  1  0  0  0  0
 11 32  1  0  0  0  0
 11 33  1  0  0  0  0
 12 22  1  0  0  0  0
 12 13  1  0  0  0  0
 13 14  2  0  0  0  0
 14 15  1  0  0  0  0
 15 22  2  0  0  0  0
 15 16  1  0  0  0  0
 16 17  2  0  0  0  0
 16 34  1  0  0  0  0
 17 18  1  0  0  0  0
 17 19  1  0  0  0  0
 19 20  1  0  0  0  0
 19 21  2  0  0  0  0
 21 22  1  0  0  0  0
 21 35  1  0  0  0  0
M  END
> <s_m_source_file>
AV-unprocessed.smi

> <i_m_source_file_index>
3021

> <i_lp_mmshare_version>
43012

> <i_f3d_flags>
0

> <s_epik_input>
W2NIXTFjKENsKWMoQ2wpW2NIXWMoYzEyKW4obm4yKVtDSDJdW0NASF0oW09IXSlbQ0gyXU9bQ0gyXWMzW2NIXVtjSF1bY0hdbzM=

> <s_epik_cmdline>
J2VwaWtfcHl0aG9uJywgJy1waCcsICc3LjAnLCAnLXRuJywgJzgnLCAnLW1hJywgJzIwMCcsICctbWV0YWxfYmluZGluZycsICctaW1hZScsICc8aW5maWxlLm1hZT4nLCAnLW9tYWUnLCAnPG91dGZpbGUubWFlPic=

> <r_lp_tautomer_probability>
1

> <r_epik_Ionization_Penalty>
6.1367e-06

> <r_epik_Ionization_Penalty_Charging>
0

> <r_epik_Ionization_Penalty_Neutral>
6.1367e-06

> <r_epik_State_Penalty>
-0

> <r_epik_Charging_Adjusted_Penalty>
0

> <i_epik_Tot_Q>
0

> <i_epik_Tot_abs_Q>
0

> <r_epik_Metal_State_Penalty>
-0

> <b_epik_Metal_Only>
0

> <s_lp_Force_Field>
OPLS_2005

> <r_lp_Energy>
8.1305

> <b_lp_Chiralities_Consistent>
1

> <s_lp_Variant>
AV-unprocessed.smi:3021-1

> <Gold.Version>
5.8.1

> <Gold.Id.Protein>
6NUR|6NUR_protein|mol2

> <Gold.PLP.Fitness>
53.7443

> <Gold.PLP.PLP>
-45.9021

> <Gold.PLP.part.hbond>
-3.0000

> <Gold.PLP.part.metal>
0.0000

> <Gold.PLP.part.buried>
-6.0237

> <Gold.PLP.part.nonpolar>
-36.1789

> <Gold.PLP.part.repulsive>
0.2757

> <Gold.PLP.ligand.clash>
0.0000

> <Gold.PLP.ligand.torsion>
0.5984

> <Gold.PLP.Chemscore.Hbond>
2.9833

> <Gold.PLP.Chemscore.CHOScore>
0.0000

> <Gold.PLP.Chemscore.Metal>
0.0000

> <Gold.Chemscore.Hbonds>
donor molecule, donor type, donor heavy atom, donor atom, acceptor molecule, acceptor atom, score
      L1  H     1    23       P1  7957  1.00
      P1  H  7989  7998       L1     1  0.98
      P1  H  7997  8009       L1    14  0.91

> <Gold.PLP.Chemscore.Internal.Correction>
0.0892

> <Gold.Rescore>
     Score         DG    S(hbond)    S(metal)    S(lipo)     H(rot)  DE(clash)    DE(int)     intcor
     17.18     -20.22       2.12        0.00     119.29       2.46       1.09       1.96       ----

> <Gold.Chemscore.Fitness>
17.1800

> <Gold.Chemscore.DG>
-20.2231

> <Gold.Chemscore.ZeroCoef>
-5.4800

> <Gold.Chemscore.Hbond>
2.1244

> <Gold.Chemscore.Metal>
0.0000

> <Gold.Chemscore.Lipo>
119.2925

> <Gold.Chemscore.Internal_Hbond>
0.0000

> <Gold.Chemscore.DEClash>
1.0852

> <Gold.Chemscore.DEInternal>
1.9579

> <Gold.Chemscore.Rot>
2.4647

> <Gold.Chemscore.Internal.Correction>
   9.000000E+99

> <Gold.Chemscore.Hbonds>
donor molecule, donor type, donor heavy atom, donor atom, acceptor molecule, acceptor atom, score
      L1  H     1    23       P1  7957  0.88
      P1  H  7989  7998       L1     1  0.29
      P1  H  7997  8009       L1    14  0.17

> <Gold.Chemscore.Hbond.Weighted>
-7.0955

> <Gold.Chemscore.Metal.Weighted>
-0.0000

> <Gold.Chemscore.Lipo.Weighted>
-13.9572

> <Gold.Chemscore.Internal_Hbond.Weighted>
0.0000

> <Gold.Chemscore.DEClash.Weighted>
1.0852

> <Gold.Chemscore.DEInternal.Weighted>
1.9579

> <Gold.Chemscore.Rot.Weighted>
6.3097

> <Gold.Chemscore.Internal.Correction.Weighted>
   9.000000E+99

> <Gold.Protein.RotatedTorsions>
[ 6907 6896 6895 6894 ] final   31.97 input  -60.11 | X-H torsion
[ 7974 7965 7964 7962 ] final   87.82 input  175.53 | X-H torsion
[ 8008 7997 7996 7995 ] final  168.11 input   59.86 | X-H torsion
[ 10167 10162 10161 10158 ] final  138.93 input  -65.29 | X-H torsion
[ 10718 10713 10712 10709 ] final -142.21 input   66.30 | X-H torsion
[ 10763 10752 10751 10750 ] final  107.21 input  -60.55 | X-H torsion
[ 11005 11000 10999 10996 ] final -112.34 input  -57.11 | X-H torsion

> <Gold.Protein.ActiveResidues>
 VAL166  LYS551  ARG553  GLY616  TRP617  ASP618  TYR619  PRO620  LYS621  CYS622 
 ASP623  PHE694  ASN695  SER759  ASP760  ASP761  ALA762  ILE779  LEU786  VAL792 
 PHE793  MET794  SER795  GLU796  ALA797  LYS798  CYS799  TRP800  GLU811  SER814 

> <Gold.Protein.RotatedAtoms>
  152.0678  134.9553  160.0574 H   0  0  0  0  0  0  0  0  0  0  0  0  # atno 6907 bound_to 6896
  152.0891  133.4186  159.4544 H   0  0  0  0  0  0  0  0  0  0  0  0  # atno 6908 bound_to 6896
  150.6836  134.2813  159.4671 H   0  0  0  0  0  0  0  0  0  0  0  0  # atno 6909 bound_to 6896
  145.5538  139.2298  143.2497 H   0  0  0  0  0  0  0  0  0  0  0  0  # atno 7974 bound_to 7965
  156.1575  140.1599  156.8668 H   0  0  0  0  0  0  0  0  0  0  0  0  # atno 8008 bound_to 7997
  154.5129  140.0796  156.8060 H   0  0  0  0  0  0  0  0  0  0  0  0  # atno 8009 bound_to 7997
  155.3774  140.3403  155.4247 H   0  0  0  0  0  0  0  0  0  0  0  0  # atno 8010 bound_to 7997
  139.5095  144.6325  151.5782 H   0  0  0  0  0  0  0  0  0  0  0  0  # atno 10167 bound_to 10162
  156.3433  130.7649  151.1789 H   0  0  0  0  0  0  0  0  0  0  0  0  # atno 10718 bound_to 10713
  153.4036  135.3851  155.2004 H   0  0  0  0  0  0  0  0  0  0  0  0  # atno 10763 bound_to 10752
  154.8731  135.3777  154.4587 H   0  0  0  0  0  0  0  0  0  0  0  0  # atno 10764 bound_to 10752
  153.5088  135.7087  153.5854 H   0  0  0  0  0  0  0  0  0  0  0  0  # atno 10765 bound_to 10752
  141.0681  133.9425  157.2539 H   0  0  0  0  0  0  0  0  0  0  0  0  # atno 11005 bound_to 11000
  146.1898  140.6362  142.9151 LP  0  0  0  0  0  0  0  0  0  0  0  0  # atno 17320 bound_to 7965
  144.7516  140.5205  143.6798 LP  0  0  0  0  0  0  0  0  0  0  0  0  # atno 17321 bound_to 7965
  140.6062  143.9520  150.6420 LP  0  0  0  0  0  0  0  0  0  0  0  0  # atno 17342 bound_to 10162
  140.2748  143.3431  152.1205 LP  0  0  0  0  0  0  0  0  0  0  0  0  # atno 17343 bound_to 10162
  157.7450  131.0448  150.4813 LP  0  0  0  0  0  0  0  0  0  0  0  0  # atno 17370 bound_to 10713
  156.4997  130.4114  149.6360 LP  0  0  0  0  0  0  0  0  0  0  0  0  # atno 17371 bound_to 10713
  139.9496  135.0178  156.8955 LP  0  0  0  0  0  0  0  0  0  0  0  0  # atno 17394 bound_to 11000
  140.5731  134.0424  155.7437 LP  0  0  0  0  0  0  0  0  0  0  0  0  # atno 17395 bound_to 11000

$$$$
