AV-unprocessed.smi:240|AV-procd|sdf|1839|dock5
  -GOLD-   2262020453D 1   1.00000     0.00000
 Structure written by MMmdl.
 55 59  0  0  0  0  0  0  0  0  1 V2000
  148.9153  143.5384  158.5903 O   0  0  0  0  0  0  0  0  0  0  0  0
  150.2642  143.2258  158.3109 C   0  0  1  0  0  0  0  0  0  0  0  0
  151.1852  143.6617  159.4493 C   0  0  0  0  0  0  0  0  0  0  0  0
  152.4502  142.8231  159.2488 C   0  0  0  0  0  0  0  0  0  0  0  0
  152.0031  141.5380  158.5329 C   0  0  0  0  0  0  0  0  0  0  0  0
  150.5031  141.7112  158.2204 C   0  0  2  0  0  0  0  0  0  0  0  0
  149.9881  141.0139  156.9238 C   0  0  1  0  0  0  0  0  0  0  0  0
  150.1376  141.8832  155.6484 C   0  0  0  0  0  0  0  0  0  0  0  0
  149.6317  141.1888  154.5142 O   0  0  0  0  0  0  0  0  0  0  0  0
  150.3465  139.9861  154.2665 C   0  0  0  0  0  0  0  0  0  0  0  0
  150.1733  139.0492  155.4685 C   0  0  0  0  0  0  0  0  0  0  0  0
  150.6182  139.7060  156.6923 N   0  0  0  0  0  0  0  0  0  0  0  0
  150.6227  138.8341  157.7259 C   0  0  0  0  0  0  0  0  0  0  0  0
  151.7583  138.7606  158.4623 N   0  0  0  0  0  0  0  0  0  0  0  0
  151.8234  137.9307  159.5078 C   0  0  0  0  0  0  0  0  0  0  0  0
  150.8885  137.0999  159.9741 N   0  0  0  0  0  0  0  0  0  0  0  0
  149.7506  137.1596  159.2241 C   0  0  0  0  0  0  0  0  0  0  0  0
  149.5328  137.9932  158.0913 C   0  0  0  0  0  0  0  0  0  0  0  0
  148.2536  137.7862  157.5900 N   0  0  0  0  0  0  0  0  0  0  0  0
  147.7410  136.8892  158.3872 C   0  0  0  0  0  0  0  0  0  0  0  0
  148.5747  136.4477  159.3900 N   0  0  0  0  0  0  0  0  0  0  0  0
  148.2616  135.4652  160.4177 C   0  0  0  0  0  0  0  0  0  0  0  0
  147.0945  135.8678  161.3553 C   0  0  2  0  0  0  0  0  0  0  0  0
  147.2934  137.1935  161.8107 O   0  0  0  0  0  0  0  0  0  0  0  0
  146.9126  134.9458  162.5637 C   0  0  0  0  0  0  0  0  0  0  0  0
  145.7607  134.0451  162.1413 C   0  0  0  0  0  0  0  0  0  0  0  0
  144.9133  134.9424  161.4478 O   0  0  0  0  0  0  0  0  0  0  0  0
  145.7338  135.7716  160.6349 C   0  0  0  0  0  0  0  0  0  0  0  0
  148.6827  144.3194  158.1116 H   0  0  0  0  0  0  0  0  0  0  0  0
  150.5729  143.7357  157.3994 H   0  0  0  0  0  0  0  0  0  0  0  0
  151.3850  144.7337  159.4440 H   0  0  0  0  0  0  0  0  0  0  0  0
  150.7360  143.4121  160.4121 H   0  0  0  0  0  0  0  0  0  0  0  0
  153.1546  143.3657  158.6169 H   0  0  0  0  0  0  0  0  0  0  0  0
  152.9525  142.6160  160.1942 H   0  0  0  0  0  0  0  0  0  0  0  0
  152.5997  141.3949  157.6331 H   0  0  0  0  0  0  0  0  0  0  0  0
  152.1639  140.6601  159.1596 H   0  0  0  0  0  0  0  0  0  0  0  0
  149.9681  141.2869  159.0718 H   0  0  0  0  0  0  0  0  0  0  0  0
  148.9200  140.8390  157.0523 H   0  0  0  0  0  0  0  0  0  0  0  0
  149.5694  142.8077  155.7360 H   0  0  0  0  0  0  0  0  0  0  0  0
  151.1746  142.1642  155.4641 H   0  0  0  0  0  0  0  0  0  0  0  0
  149.9535  139.5175  153.3642 H   0  0  0  0  0  0  0  0  0  0  0  0
  151.4007  140.2010  154.0837 H   0  0  0  0  0  0  0  0  0  0  0  0
  149.1248  138.7633  155.5659 H   0  0  0  0  0  0  0  0  0  0  0  0
  150.7430  138.1328  155.3060 H   0  0  0  0  0  0  0  0  0  0  0  0
  152.7572  137.9345  160.0502 H   0  0  0  0  0  0  0  0  0  0  0  0
  146.7328  136.5215  158.2625 H   0  0  0  0  0  0  0  0  0  0  0  0
  148.0313  134.5215  159.9213 H   0  0  0  0  0  0  0  0  0  0  0  0
  149.1656  135.2871  161.0016 H   0  0  0  0  0  0  0  0  0  0  0  0
  147.0171  137.2454  162.7129 H   0  0  0  0  0  0  0  0  0  0  0  0
  147.8017  134.3820  162.8406 H   0  0  0  0  0  0  0  0  0  0  0  0
  146.6043  135.5151  163.4420 H   0  0  0  0  0  0  0  0  0  0  0  0
  146.1020  133.2581  161.4669 H   0  0  0  0  0  0  0  0  0  0  0  0
  145.2528  133.5829  162.9879 H   0  0  0  0  0  0  0  0  0  0  0  0
  145.2579  136.7403  160.4771 H   0  0  0  0  0  0  0  0  0  0  0  0
  145.8370  135.2972  159.6578 H   0  0  0  0  0  0  0  0  0  0  0  0
  1  2  1  0  0  0  0
  1 29  1  0  0  0  0
  2  6  1  0  0  0  0
  2  3  1  0  0  0  0
  2 30  1  0  0  0  0
  3  4  1  0  0  0  0
  3 31  1  0  0  0  0
  3 32  1  0  0  0  0
  4  5  1  0  0  0  0
  4 33  1  0  0  0  0
  4 34  1  0  0  0  0
  5  6  1  0  0  0  0
  5 35  1  0  0  0  0
  5 36  1  0  0  0  0
  6  7  1  0  0  0  0
  6 37  1  0  0  0  0
  7 12  1  0  0  0  0
  7  8  1  0  0  0  0
  7 38  1  0  0  0  0
  8  9  1  0  0  0  0
  8 39  1  0  0  0  0
  8 40  1  0  0  0  0
  9 10  1  0  0  0  0
 10 11  1  0  0  0  0
 10 41  1  0  0  0  0
 10 42  1  0  0  0  0
 11 12  1  0  0  0  0
 11 43  1  0  0  0  0
 11 44  1  0  0  0  0
 12 13  1  0  0  0  0
 13 18  1  0  0  0  0
 13 14  2  0  0  0  0
 14 15  1  0  0  0  0
 15 16  2  0  0  0  0
 15 45  1  0  0  0  0
 16 17  1  0  0  0  0
 17 21  1  0  0  0  0
 17 18  2  0  0  0  0
 18 19  1  0  0  0  0
 19 20  2  0  0  0  0
 20 21  1  0  0  0  0
 20 46  1  0  0  0  0
 21 22  1  0  0  0  0
 22 23  1  0  0  0  0
 22 47  1  0  0  0  0
 22 48  1  0  0  0  0
 23 28  1  0  0  0  0
 23 24  1  0  0  0  0
 23 25  1  0  0  0  0
 24 49  1  0  0  0  0
 25 26  1  0  0  0  0
 25 50  1  0  0  0  0
 25 51  1  0  0  0  0
 26 27  1  0  0  0  0
 26 52  1  0  0  0  0
 26 53  1  0  0  0  0
 27 28  1  0  0  0  0
 28 54  1  0  0  0  0
 28 55  1  0  0  0  0
M  END
> <s_m_source_file>
AV-unprocessed.smi

> <i_m_source_file_index>
240

> <i_lp_mmshare_version>
43012

> <i_f3d_flags>
0

> <s_epik_input>
W09IXVtDQEBIXTFbQ0gyXVtDSDJdW0NIMl1bQ0BIXTFbQ0BASF0yW0NIMl1PW0NIMl1bQ0gyXU4yYyhuW2NIXW4zKWMoYzM0KW5bY0hdbjRbQ0gyXVtDQEBdNShbT0hdKVtDSDJdW0NIMl1PW0NIMl01

> <s_epik_cmdline>
J2VwaWtfcHl0aG9uJywgJy1waCcsICc3LjAnLCAnLXRuJywgJzgnLCAnLW1hJywgJzIwMCcsICctbWV0YWxfYmluZGluZycsICctaW1hZScsICc8aW5maWxlLm1hZT4nLCAnLW9tYWUnLCAnPG91dGZpbGUubWFlPic=

> <r_lp_tautomer_probability>
1

> <r_epik_Ionization_Penalty>
0.000130618

> <r_epik_Ionization_Penalty_Charging>
0

> <r_epik_Ionization_Penalty_Neutral>
0.000130618

> <r_epik_State_Penalty>
-0

> <r_epik_Charging_Adjusted_Penalty>
0

> <i_epik_Tot_Q>
0

> <i_epik_Tot_abs_Q>
0

> <r_epik_Metal_State_Penalty>
-0

> <b_epik_Metal_Only>
0

> <s_lp_Force_Field>
OPLS_2005

> <r_lp_Energy>
62.6221

> <b_lp_Chiralities_Consistent>
1

> <s_lp_Variant>
AV-unprocessed.smi:240-16

> <Gold.Version>
5.8.1

> <Gold.Id.Protein>
6NUR|6NUR_protein|mol2

> <Gold.PLP.Fitness>
51.0470

> <Gold.PLP.PLP>
-42.1706

> <Gold.PLP.part.hbond>
-5.9442

> <Gold.PLP.part.metal>
0.0000

> <Gold.PLP.part.buried>
-1.2723

> <Gold.PLP.part.nonpolar>
-35.7113

> <Gold.PLP.part.repulsive>
0.1514

> <Gold.PLP.ligand.clash>
0.0000

> <Gold.PLP.ligand.torsion>
0.9798

> <Gold.PLP.Chemscore.Hbond>
3.5520

> <Gold.PLP.Chemscore.CHOScore>
0.0000

> <Gold.PLP.Chemscore.Metal>
0.0000

> <Gold.Chemscore.Hbonds>
donor molecule, donor type, donor heavy atom, donor atom, acceptor molecule, acceptor atom, score
      L1  H     1    29       P1  8029  0.90
      P1  H  6896  6907       L1    16  1.00
      P1  H  6931  6943       L1    24  0.87
      P1  H  6934  6947       L1    24  0.82

> <Gold.PLP.Chemscore.Internal.Correction>
0.1800

> <Gold.Rescore>
     Score         DG    S(hbond)    S(metal)    S(lipo)     H(rot)  DE(clash)    DE(int)     intcor
     14.56     -17.02       1.98        0.00     107.98       3.00       0.52       1.94       ----

> <Gold.Chemscore.Fitness>
14.5552

> <Gold.Chemscore.DG>
-17.0204

> <Gold.Chemscore.ZeroCoef>
-5.4800

> <Gold.Chemscore.Hbond>
1.9751

> <Gold.Chemscore.Metal>
0.0000

> <Gold.Chemscore.Lipo>
107.9769

> <Gold.Chemscore.Internal_Hbond>
0.0000

> <Gold.Chemscore.DEClash>
0.5225

> <Gold.Chemscore.DEInternal>
1.9426

> <Gold.Chemscore.Rot>
3.0039

> <Gold.Chemscore.Internal.Correction>
   9.000000E+99

> <Gold.Chemscore.Hbonds>
donor molecule, donor type, donor heavy atom, donor atom, acceptor molecule, acceptor atom, score
      L1  H     1    29       P1  8029  0.17
      P1  H  6896  6907       L1    16  0.45
      P1  H  6931  6943       L1    24  0.21
      P1  H  6934  6947       L1    24  0.57

> <Gold.Chemscore.Hbond.Weighted>
-6.5970

> <Gold.Chemscore.Metal.Weighted>
-0.0000

> <Gold.Chemscore.Lipo.Weighted>
-12.6333

> <Gold.Chemscore.Internal_Hbond.Weighted>
0.0000

> <Gold.Chemscore.DEClash.Weighted>
0.5225

> <Gold.Chemscore.DEInternal.Weighted>
1.9426

> <Gold.Chemscore.Rot.Weighted>
7.6899

> <Gold.Chemscore.Internal.Correction.Weighted>
   9.000000E+99

> <Gold.Protein.RotatedTorsions>
[ 6907 6896 6895 6894 ] final   -5.57 input  -60.11 | X-H torsion
[ 7974 7965 7964 7962 ] final -137.01 input  175.53 | X-H torsion
[ 8008 7997 7996 7995 ] final  -43.58 input   59.86 | X-H torsion
[ 10167 10162 10161 10158 ] final  154.86 input  -65.29 | X-H torsion
[ 10718 10713 10712 10709 ] final -106.49 input   66.30 | X-H torsion
[ 10763 10752 10751 10750 ] final -130.96 input  -60.55 | X-H torsion
[ 11005 11000 10999 10996 ] final  -66.79 input  -57.11 | X-H torsion

> <Gold.Protein.ActiveResidues>
 VAL166  LYS551  ARG553  GLY616  TRP617  ASP618  TYR619  PRO620  LYS621  CYS622 
 ASP623  PHE694  ASN695  SER759  ASP760  ASP761  ALA762  ILE779  LEU786  VAL792 
 PHE793  MET794  SER795  GLU796  ALA797  LYS798  CYS799  TRP800  GLU811  SER814 

> <Gold.Protein.RotatedAtoms>
  151.4794  135.1051  159.9773 H   0  0  0  0  0  0  0  0  0  0  0  0  # atno 6907 bound_to 6896
  152.4785  133.8193  159.7055 H   0  0  0  0  0  0  0  0  0  0  0  0  # atno 6908 bound_to 6896
  150.8840  133.7272  159.2950 H   0  0  0  0  0  0  0  0  0  0  0  0  # atno 6909 bound_to 6896
  144.8878  140.6600  143.5164 H   0  0  0  0  0  0  0  0  0  0  0  0  # atno 7974 bound_to 7965
  154.3997  140.1444  156.3542 H   0  0  0  0  0  0  0  0  0  0  0  0  # atno 8008 bound_to 7997
  155.8241  140.3468  155.5511 H   0  0  0  0  0  0  0  0  0  0  0  0  # atno 8009 bound_to 7997
  155.8257  140.0904  157.1813 H   0  0  0  0  0  0  0  0  0  0  0  0  # atno 8010 bound_to 7997
  139.4822  144.5149  151.7967 H   0  0  0  0  0  0  0  0  0  0  0  0  # atno 10167 bound_to 10162
  156.0392  130.5615  150.7688 H   0  0  0  0  0  0  0  0  0  0  0  0  # atno 10718 bound_to 10713
  154.8753  135.3845  154.4168 H   0  0  0  0  0  0  0  0  0  0  0  0  # atno 10763 bound_to 10752
  153.4876  135.7030  153.5907 H   0  0  0  0  0  0  0  0  0  0  0  0  # atno 10764 bound_to 10752
  153.4295  135.3882  155.2129 H   0  0  0  0  0  0  0  0  0  0  0  0  # atno 10765 bound_to 10752
  141.1491  133.6706  156.6194 H   0  0  0  0  0  0  0  0  0  0  0  0  # atno 11005 bound_to 11000
  145.3837  139.1631  143.4267 LP  0  0  0  0  0  0  0  0  0  0  0  0  # atno 17320 bound_to 7965
  146.3035  140.3920  142.8695 LP  0  0  0  0  0  0  0  0  0  0  0  0  # atno 17321 bound_to 7965
  140.4656  144.1659  150.5911 LP  0  0  0  0  0  0  0  0  0  0  0  0  # atno 17342 bound_to 10162
  140.4437  143.2515  151.9439 LP  0  0  0  0  0  0  0  0  0  0  0  0  # atno 17343 bound_to 10162
  157.5187  131.0930  151.0106 LP  0  0  0  0  0  0  0  0  0  0  0  0  # atno 17370 bound_to 10713
  157.0442  130.5761  149.5360 LP  0  0  0  0  0  0  0  0  0  0  0  0  # atno 17371 bound_to 10713
  140.3552  134.7734  157.4495 LP  0  0  0  0  0  0  0  0  0  0  0  0  # atno 17394 bound_to 11000
  140.0828  134.5707  155.8522 LP  0  0  0  0  0  0  0  0  0  0  0  0  # atno 17395 bound_to 11000

$$$$
