AV-unprocessed.smi:372|AV-procd|sdf|2445|dock1
  -GOLD-   2262022383D 1   1.00000     0.00000
 Structure written by MMmdl.
 22 23  0  0  0  0  0  0  0  0  2 V2000
  149.8219  140.0269  156.7766 C   0  0  0  0  0  0  0  0  0  0  0  0
  151.0495  139.9386  157.7059 C   0  0  1  0  0  0  0  0  0  0  0  0
  151.5334  141.3341  158.1448 C   0  0  0  0  0  0  0  0  0  0  0  0
  152.5813  141.5047  159.0845 C   0  0  0  0  0  0  0  0  0  0  0  0
  152.9714  142.8094  159.4421 C   0  0  0  0  0  0  0  0  0  0  0  0
  152.3067  143.9031  158.8580 C   0  0  0  0  0  0  0  0  0  0  0  0
  151.2746  143.6402  157.9382 C   0  0  0  0  0  0  0  0  0  0  0  0
  150.8927  142.3936  157.5910 N   0  0  0  0  0  0  0  0  0  0  0  0
  150.7285  139.0720  158.8243 N   0  0  0  0  0  0  0  0  0  0  0  0
  151.5333  138.0131  158.8774 C   0  0  0  0  0  0  0  0  0  0  0  0
  151.4398  137.1750  159.7712 O   0  0  0  0  0  0  0  0  0  0  0  0
  152.3961  138.0346  157.8445 N   0  5  0  0  0  0  0  0  0  0  0  0
  152.1870  139.1202  157.0675 C   0  0  0  0  0  0  0  0  0  0  0  0
  152.7395  139.4518  156.0186 O   0  0  0  0  0  0  0  0  0  0  0  0
  150.0393  140.6067  155.8789 H   0  0  0  0  0  0  0  0  0  0  0  0
  148.9830  140.5060  157.2821 H   0  0  0  0  0  0  0  0  0  0  0  0
  149.4907  139.0390  156.4530 H   0  0  0  0  0  0  0  0  0  0  0  0
  153.0901  140.6636  159.5305 H   0  0  0  0  0  0  0  0  0  0  0  0
  153.7682  142.9678  160.1538 H   0  0  0  0  0  0  0  0  0  0  0  0
  152.5806  144.9172  159.1082 H   0  0  0  0  0  0  0  0  0  0  0  0
  150.7396  144.4531  157.4696 H   0  0  0  0  0  0  0  0  0  0  0  0
  150.0017  139.2774  159.4934 H   0  0  0  0  0  0  0  0  0  0  0  0
  1  2  1  0  0  0  0
  1 15  1  0  0  0  0
  1 16  1  0  0  0  0
  1 17  1  0  0  0  0
  2 13  1  0  0  0  0
  2  3  1  0  0  0  0
  2  9  1  0  0  0  0
  3  8  1  0  0  0  0
  3  4  2  0  0  0  0
  4  5  1  0  0  0  0
  4 18  1  0  0  0  0
  5  6  2  0  0  0  0
  5 19  1  0  0  0  0
  6  7  1  0  0  0  0
  6 20  1  0  0  0  0
  7  8  2  0  0  0  0
  7 21  1  0  0  0  0
  9 10  1  0  0  0  0
  9 22  1  0  0  0  0
 10 11  2  0  0  0  0
 10 12  1  0  0  0  0
 12 13  1  0  0  0  0
 13 14  2  0  0  0  0
M  CHG  1  12  -1
M  END
> <s_m_source_file>
AV-unprocessed.smi

> <i_m_source_file_index>
372

> <i_lp_mmshare_version>
43012

> <i_f3d_flags>
0

> <s_epik_input>
Tz1DMVtOSF1DKD1PKVtOSF1bQ0BAXTEoW0NIM10pYzJbY0hdW2NIXVtjSF1bY0hdbjI=

> <s_epik_cmdline>
J2VwaWtfcHl0aG9uJywgJy1waCcsICc3LjAnLCAnLXRuJywgJzgnLCAnLW1hJywgJzIwMCcsICctbWV0YWxfYmluZGluZycsICctaW1hZScsICc8aW5maWxlLm1hZT4nLCAnLW9tYWUnLCAnPG91dGZpbGUubWFlPic=

> <r_epik_Ionization_Penalty>
1.82492

> <r_epik_Ionization_Penalty_Charging>
1.82122

> <r_epik_Ionization_Penalty_Neutral>
0.00370144

> <r_epik_State_Penalty>
1.71448

> <r_epik_Charging_Adjusted_Penalty>
3.5357

> <i_epik_Tot_Q>
-1

> <i_epik_Tot_abs_Q>
1

> <r_epik_Metal_State_Penalty>
0.405927

> <b_epik_Metal_Only>
0

> <s_lp_Force_Field>
OPLS_2005

> <r_lp_Energy>
9.53623

> <b_lp_Chiralities_Consistent>
1

> <s_lp_Variant>
AV-unprocessed.smi:372-3

> <Gold.Version>
5.8.1

> <Gold.Id.Protein>
6NUR|6NUR_protein|mol2

> <Gold.PLP.Fitness>
32.4200

> <Gold.PLP.PLP>
-23.5364

> <Gold.PLP.part.hbond>
-1.9849

> <Gold.PLP.part.metal>
0.0000

> <Gold.PLP.part.buried>
-4.3233

> <Gold.PLP.part.nonpolar>
-18.3996

> <Gold.PLP.part.repulsive>
0.2539

> <Gold.PLP.ligand.clash>
0.0000

> <Gold.PLP.ligand.torsion>
0.0856

> <Gold.PLP.Chemscore.Hbond>
1.9913

> <Gold.PLP.Chemscore.CHOScore>
0.9998

> <Gold.PLP.Chemscore.Metal>
0.0000

> <Gold.Chemscore.Hbonds>
donor molecule, donor type, donor heavy atom, donor atom, acceptor molecule, acceptor atom, score
      P1  H  6896  6909       L1    11  1.00
      P1  H  7997  8008       L1    14  1.00
      L1  C     7    21       P1  8028  0.90

> <Gold.PLP.Chemscore.Internal.Correction>
0.0817

> <Gold.Rescore>
     Score         DG    S(hbond)    S(metal)    S(lipo)     H(rot)  DE(clash)    DE(int)     intcor
     16.66     -16.70       1.97        0.00      61.47       1.00       0.00       0.04       ----

> <Gold.Chemscore.Fitness>
16.6623

> <Gold.Chemscore.DG>
-16.7043

> <Gold.Chemscore.ZeroCoef>
-5.4800

> <Gold.Chemscore.Hbond>
1.9737

> <Gold.Chemscore.Metal>
0.0000

> <Gold.Chemscore.Lipo>
61.4715

> <Gold.Chemscore.Internal_Hbond>
0.0000

> <Gold.Chemscore.DEClash>
0.0000

> <Gold.Chemscore.DEInternal>
0.0421

> <Gold.Chemscore.Rot>
1.0000

> <Gold.Chemscore.Internal.Correction>
   9.000000E+99

> <Gold.Chemscore.Hbonds>
donor molecule, donor type, donor heavy atom, donor atom, acceptor molecule, acceptor atom, score
      P1  H  6896  6909       L1    11  0.95
      P1  H  7997  8008       L1    14  0.97

> <Gold.Chemscore.Hbond.Weighted>
-6.5922

> <Gold.Chemscore.Metal.Weighted>
-0.0000

> <Gold.Chemscore.Lipo.Weighted>
-7.1922

> <Gold.Chemscore.Internal_Hbond.Weighted>
0.0000

> <Gold.Chemscore.DEClash.Weighted>
0.0000

> <Gold.Chemscore.DEInternal.Weighted>
0.0421

> <Gold.Chemscore.Rot.Weighted>
2.5600

> <Gold.Chemscore.Internal.Correction.Weighted>
   9.000000E+99

> <Gold.Protein.RotatedTorsions>
[ 6907 6896 6895 6894 ] final  116.95 input  -60.11 | X-H torsion
[ 7974 7965 7964 7962 ] final -169.62 input  175.53 | X-H torsion
[ 8008 7997 7996 7995 ] final  -25.20 input   59.86 | X-H torsion
[ 10167 10162 10161 10158 ] final   79.95 input  -65.29 | X-H torsion
[ 10718 10713 10712 10709 ] final  -50.50 input   66.30 | X-H torsion
[ 10763 10752 10751 10750 ] final   86.31 input  -60.55 | X-H torsion
[ 11005 11000 10999 10996 ] final   63.12 input  -57.11 | X-H torsion

> <Gold.Protein.ActiveResidues>
 VAL166  LYS551  ARG553  GLY616  TRP617  ASP618  TYR619  PRO620  LYS621  CYS622 
 ASP623  PHE694  ASN695  SER759  ASP760  ASP761  ALA762  ILE779  LEU786  VAL792 
 PHE793  MET794  SER795  GLU796  ALA797  LYS798  CYS799  TRP800  GLU811  SER814 

> <Gold.Protein.RotatedAtoms>
  152.4644  133.7891  159.6892 H   0  0  0  0  0  0  0  0  0  0  0  0  # atno 6907 bound_to 6896
  150.8602  133.7645  159.3001 H   0  0  0  0  0  0  0  0  0  0  0  0  # atno 6908 bound_to 6896
  151.5213  135.1070  159.9931 H   0  0  0  0  0  0  0  0  0  0  0  0  # atno 6909 bound_to 6896
  144.7182  140.2194  143.6318 H   0  0  0  0  0  0  0  0  0  0  0  0  # atno 7974 bound_to 7965
  154.4488  140.1933  156.0583 H   0  0  0  0  0  0  0  0  0  0  0  0  # atno 8008 bound_to 7997
  156.0602  140.3297  155.7425 H   0  0  0  0  0  0  0  0  0  0  0  0  # atno 8009 bound_to 7997
  155.5423  140.0587  157.2858 H   0  0  0  0  0  0  0  0  0  0  0  0  # atno 8010 bound_to 7997
  139.9549  144.6001  150.8126 H   0  0  0  0  0  0  0  0  0  0  0  0  # atno 10167 bound_to 10162
  156.1795  130.4150  149.9528 H   0  0  0  0  0  0  0  0  0  0  0  0  # atno 10718 bound_to 10713
  153.1558  135.4585  154.9703 H   0  0  0  0  0  0  0  0  0  0  0  0  # atno 10763 bound_to 10752
  154.7860  135.3204  154.7887 H   0  0  0  0  0  0  0  0  0  0  0  0  # atno 10764 bound_to 10752
  153.8384  135.6932  153.4860 H   0  0  0  0  0  0  0  0  0  0  0  0  # atno 10765 bound_to 10752
  140.0046  134.6389  155.9876 H   0  0  0  0  0  0  0  0  0  0  0  0  # atno 11005 bound_to 11000
  145.8516  139.2178  143.1769 LP  0  0  0  0  0  0  0  0  0  0  0  0  # atno 17320 bound_to 7965
  146.0256  140.8307  142.9902 LP  0  0  0  0  0  0  0  0  0  0  0  0  # atno 17321 bound_to 7965
  140.7571  143.3080  151.2914 LP  0  0  0  0  0  0  0  0  0  0  0  0  # atno 17342 bound_to 10162
  139.6599  144.0208  152.2685 LP  0  0  0  0  0  0  0  0  0  0  0  0  # atno 17343 bound_to 10162
  156.7303  130.9040  151.3625 LP  0  0  0  0  0  0  0  0  0  0  0  0  # atno 17370 bound_to 10713
  157.6858  130.9184  150.0384 LP  0  0  0  0  0  0  0  0  0  0  0  0  # atno 17371 bound_to 10713
  141.1667  133.6537  156.4506 LP  0  0  0  0  0  0  0  0  0  0  0  0  # atno 17394 bound_to 11000
  140.4665  134.6793  157.5109 LP  0  0  0  0  0  0  0  0  0  0  0  0  # atno 17395 bound_to 11000

$$$$
