AV-unprocessed.smi:830|AV-procd|sdf|3872|dock5
  -GOLD-   22720 1323D 1   1.00000     0.00000
 Structure written by MMmdl.
 53 55  0  0  0  0  0  0  0  0  2 V2000
  152.0598  137.9615  154.3638 C   0  0  0  0  0  0  0  0  0  0  0  0
  150.7461  137.6257  155.0893 C   0  0  2  0  0  0  0  0  0  0  0  0
  150.0476  136.5381  154.4067 N   0  0  0  0  0  0  0  0  0  0  0  0
  150.0232  135.2563  154.7973 C   0  0  0  0  0  0  0  0  0  0  0  0
  150.6142  134.8339  155.7908 O   0  0  0  0  0  0  0  0  0  0  0  0
  149.2921  134.5078  153.9544 N   0  0  0  0  0  0  0  0  0  0  0  0
  149.0538  133.1048  154.0003 C   0  0  0  0  0  0  0  0  0  0  0  0
  149.9009  132.2359  154.7358 C   0  0  0  0  0  0  0  0  0  0  0  0
  149.6520  130.8506  154.7434 C   0  0  0  0  0  0  0  0  0  0  0  0
  148.5559  130.3529  154.0187 C   0  0  0  0  0  0  0  0  0  0  0  0
  147.7566  131.2064  153.3465 N   0  3  0  0  0  0  0  0  0  0  0  0
  147.9343  132.5509  153.3128 C   0  0  0  0  0  0  0  0  0  0  0  0
  147.0039  133.3188  152.5754 N   0  0  0  0  0  0  0  0  0  0  0  0
  146.7827  133.0514  151.1589 C   0  0  0  0  0  0  0  0  0  0  0  0
  145.5056  133.8098  150.8077 C   0  0  0  0  0  0  0  0  0  0  0  0
  144.6858  133.6797  152.0878 C   0  0  0  0  0  0  0  0  0  0  0  0
  145.7413  133.7032  153.1988 C   0  0  0  0  0  0  0  0  0  0  0  0
  149.8278  138.8389  155.2760 C   0  0  0  0  0  0  0  0  0  0  0  0
  148.7637  138.7318  155.8878 O   0  0  0  0  0  0  0  0  0  0  0  0
  150.2464  139.9898  154.7278 N   0  0  0  0  0  0  0  0  0  0  0  0
  149.5222  141.2566  154.7791 C   0  0  0  0  0  0  0  0  0  0  0  0
  149.2048  141.6392  156.2364 C   0  0  0  0  0  0  0  0  0  0  0  0
  147.6997  141.4323  156.4069 C   0  0  0  0  0  0  0  0  0  0  0  0
  147.1252  141.7318  155.0259 C   0  0  0  0  0  0  0  0  0  0  0  0
  148.1630  141.1677  154.0539 C   0  0  0  0  0  0  0  0  0  0  0  0
  152.5963  138.7648  154.8698 H   0  0  0  0  0  0  0  0  0  0  0  0
  151.8757  138.2804  153.3372 H   0  0  0  0  0  0  0  0  0  0  0  0
  152.7251  137.0982  154.3295 H   0  0  0  0  0  0  0  0  0  0  0  0
  151.0013  137.2800  156.0932 H   0  0  0  0  0  0  0  0  0  0  0  0
  149.5322  136.7940  153.5769 H   0  0  0  0  0  0  0  0  0  0  0  0
  148.9488  134.9803  153.1310 H   0  0  0  0  0  0  0  0  0  0  0  0
  150.7392  132.6112  155.3026 H   0  0  0  0  0  0  0  0  0  0  0  0
  150.2945  130.1809  155.2961 H   0  0  0  0  0  0  0  0  0  0  0  0
  148.2900  129.3072  153.9634 H   0  0  0  0  0  0  0  0  0  0  0  0
  147.6281  133.3795  150.5535 H   0  0  0  0  0  0  0  0  0  0  0  0
  146.6317  131.9844  150.9914 H   0  0  0  0  0  0  0  0  0  0  0  0
  145.7337  134.8594  150.6167 H   0  0  0  0  0  0  0  0  0  0  0  0
  144.9983  133.4066  149.9307 H   0  0  0  0  0  0  0  0  0  0  0  0
  143.9383  134.4659  152.1976 H   0  0  0  0  0  0  0  0  0  0  0  0
  144.1675  132.7198  152.0933 H   0  0  0  0  0  0  0  0  0  0  0  0
  145.4676  133.0394  154.0199 H   0  0  0  0  0  0  0  0  0  0  0  0
  145.8400  134.7140  153.5954 H   0  0  0  0  0  0  0  0  0  0  0  0
  151.1295  139.9889  154.2383 H   0  0  0  0  0  0  0  0  0  0  0  0
  150.1362  142.0429  154.3355 H   0  0  0  0  0  0  0  0  0  0  0  0
  149.7828  141.0750  156.9698 H   0  0  0  0  0  0  0  0  0  0  0  0
  149.4393  142.6937  156.3890 H   0  0  0  0  0  0  0  0  0  0  0  0
  147.4982  140.3934  156.6716 H   0  0  0  0  0  0  0  0  0  0  0  0
  147.2741  142.0648  157.1863 H   0  0  0  0  0  0  0  0  0  0  0  0
  146.1346  141.3006  154.8792 H   0  0  0  0  0  0  0  0  0  0  0  0
  147.0426  142.8109  154.8897 H   0  0  0  0  0  0  0  0  0  0  0  0
  148.1679  141.7064  153.1058 H   0  0  0  0  0  0  0  0  0  0  0  0
  147.9120  140.1291  153.8317 H   0  0  0  0  0  0  0  0  0  0  0  0
  146.9632  130.8155  152.8385 H   0  0  0  0  0  0  0  0  0  0  0  0
  1  2  1  0  0  0  0
  1 26  1  0  0  0  0
  1 27  1  0  0  0  0
  1 28  1  0  0  0  0
  2  3  1  0  0  0  0
  2 18  1  0  0  0  0
  2 29  1  0  0  0  0
  3  4  1  0  0  0  0
  3 30  1  0  0  0  0
  4  5  2  0  0  0  0
  4  6  1  0  0  0  0
  6  7  1  0  0  0  0
  6 31  1  0  0  0  0
  7 12  1  0  0  0  0
  7  8  2  0  0  0  0
  8  9  1  0  0  0  0
  8 32  1  0  0  0  0
  9 10  2  0  0  0  0
  9 33  1  0  0  0  0
 10 11  1  0  0  0  0
 10 34  1  0  0  0  0
 11 12  2  0  0  0  0
 11 53  1  0  0  0  0
 12 13  1  0  0  0  0
 13 17  1  0  0  0  0
 13 14  1  0  0  0  0
 14 15  1  0  0  0  0
 14 35  1  0  0  0  0
 14 36  1  0  0  0  0
 15 16  1  0  0  0  0
 15 37  1  0  0  0  0
 15 38  1  0  0  0  0
 16 17  1  0  0  0  0
 16 39  1  0  0  0  0
 16 40  1  0  0  0  0
 17 41  1  0  0  0  0
 17 42  1  0  0  0  0
 18 19  2  0  0  0  0
 18 20  1  0  0  0  0
 20 21  1  0  0  0  0
 20 43  1  0  0  0  0
 21 25  1  0  0  0  0
 21 22  1  0  0  0  0
 21 44  1  0  0  0  0
 22 23  1  0  0  0  0
 22 45  1  0  0  0  0
 22 46  1  0  0  0  0
 23 24  1  0  0  0  0
 23 47  1  0  0  0  0
 23 48  1  0  0  0  0
 24 25  1  0  0  0  0
 24 49  1  0  0  0  0
 24 50  1  0  0  0  0
 25 51  1  0  0  0  0
 25 52  1  0  0  0  0
M  CHG  1  11   1
M  END
> <s_m_source_file>
AV-unprocessed.smi

> <i_m_source_file_index>
830

> <i_lp_mmshare_version>
43012

> <i_f3d_flags>
0

> <s_epik_input>
W0NIMl0xW0NIMl1bQ0gyXVtDSDJdW0NIXTFbTkhdQyg9TylbQ0BIXShbQ0gzXSlbTkhdQyg9TylbTkhdYzJbY0hdW2NIXVtjSF1uYzJOM1tDSDJdW0NIMl1bQ0gyXVtDSDJdMw==

> <s_epik_cmdline>
J2VwaWtfcHl0aG9uJywgJy1waCcsICc3LjAnLCAnLXRuJywgJzgnLCAnLW1hJywgJzIwMCcsICctbWV0YWxfYmluZGluZycsICctaW1hZScsICc8aW5maWxlLm1hZT4nLCAnLW9tYWUnLCAnPG91dGZpbGUubWFlPic=

> <r_lp_tautomer_probability>
0.999994

> <r_epik_Ionization_Penalty>
1.21091

> <r_epik_Ionization_Penalty_Charging>
1.21089

> <r_epik_Ionization_Penalty_Neutral>
1.88713e-05

> <r_epik_State_Penalty>
1.27732

> <r_epik_Charging_Adjusted_Penalty>
2.48821

> <i_epik_Tot_Q>
1

> <i_epik_Tot_abs_Q>
1

> <r_epik_Metal_State_Penalty>
1.3505

> <b_epik_Metal_Only>
0

> <s_lp_Force_Field>
OPLS_2005

> <r_lp_Energy>
52.1076

> <b_lp_Chiralities_Consistent>
1

> <s_lp_Variant>
AV-unprocessed.smi:830-3

> <Gold.Version>
5.8.1

> <Gold.Id.Protein>
6NUR|6NUR_protein|mol2

> <Gold.PLP.Fitness>
43.3764

> <Gold.PLP.PLP>
-38.7073

> <Gold.PLP.part.hbond>
-2.5423

> <Gold.PLP.part.metal>
0.0000

> <Gold.PLP.part.buried>
-4.1212

> <Gold.PLP.part.nonpolar>
-33.7506

> <Gold.PLP.part.repulsive>
1.0401

> <Gold.PLP.ligand.clash>
0.1840

> <Gold.PLP.ligand.torsion>
0.6291

> <Gold.PLP.Chemscore.Hbond>
1.8800

> <Gold.PLP.Chemscore.CHOScore>
0.0000

> <Gold.PLP.Chemscore.Metal>
0.0000

> <Gold.Chemscore.Hbonds>
donor molecule, donor type, donor heavy atom, donor atom, acceptor molecule, acceptor atom, score
      L1  H     3    30       P1  7948  0.90
      L1  H     6    31       P1  7948  0.95

> <Gold.PLP.Chemscore.Internal.Correction>
0.4712

> <Gold.Rescore>
     Score         DG    S(hbond)    S(metal)    S(lipo)     H(rot)  DE(clash)    DE(int)     intcor
     11.22     -15.65       1.40        0.00      83.43       1.67       0.13       4.29       ----

> <Gold.Chemscore.Fitness>
11.2217

> <Gold.Chemscore.DG>
-15.6470

> <Gold.Chemscore.ZeroCoef>
-5.4800

> <Gold.Chemscore.Hbond>
1.3995

> <Gold.Chemscore.Metal>
0.0000

> <Gold.Chemscore.Lipo>
83.4346

> <Gold.Chemscore.Internal_Hbond>
0.0000

> <Gold.Chemscore.DEClash>
0.1312

> <Gold.Chemscore.DEInternal>
4.2941

> <Gold.Chemscore.Rot>
1.6676

> <Gold.Chemscore.Internal.Correction>
   9.000000E+99

> <Gold.Chemscore.Hbonds>
donor molecule, donor type, donor heavy atom, donor atom, acceptor molecule, acceptor atom, score
      L1  H     3    30       P1  7948  0.72
      L1  H     6    31       P1  7948  0.21

> <Gold.Chemscore.Hbond.Weighted>
-4.6742

> <Gold.Chemscore.Metal.Weighted>
-0.0000

> <Gold.Chemscore.Lipo.Weighted>
-9.7619

> <Gold.Chemscore.Internal_Hbond.Weighted>
0.0000

> <Gold.Chemscore.DEClash.Weighted>
0.1312

> <Gold.Chemscore.DEInternal.Weighted>
4.2941

> <Gold.Chemscore.Rot.Weighted>
4.2691

> <Gold.Chemscore.Internal.Correction.Weighted>
   9.000000E+99

> <Gold.Protein.RotatedTorsions>
[ 6907 6896 6895 6894 ] final  -78.08 input  -60.11 | X-H torsion
[ 7974 7965 7964 7962 ] final  -73.71 input  175.53 | X-H torsion
[ 8008 7997 7996 7995 ] final -125.28 input   59.86 | X-H torsion
[ 10167 10162 10161 10158 ] final -176.49 input  -65.29 | X-H torsion
[ 10718 10713 10712 10709 ] final -151.87 input   66.30 | X-H torsion
[ 10763 10752 10751 10750 ] final  157.28 input  -60.55 | X-H torsion
[ 11005 11000 10999 10996 ] final  -93.43 input  -57.11 | X-H torsion

> <Gold.Protein.ActiveResidues>
 VAL166  LYS551  ARG553  GLY616  TRP617  ASP618  TYR619  PRO620  LYS621  CYS622 
 ASP623  PHE694  ASN695  SER759  ASP760  ASP761  ALA762  ILE779  LEU786  VAL792 
 PHE793  MET794  SER795  GLU796  ALA797  LYS798  CYS799  TRP800  GLU811  SER814 

> <Gold.Protein.RotatedAtoms>
  150.6982  134.4326  159.5255 H   0  0  0  0  0  0  0  0  0  0  0  0  # atno 6907 bound_to 6896
  152.2050  134.8551  160.0513 H   0  0  0  0  0  0  0  0  0  0  0  0  # atno 6908 bound_to 6896
  151.9457  133.3616  159.4018 H   0  0  0  0  0  0  0  0  0  0  0  0  # atno 6909 bound_to 6896
  145.6486  140.9289  143.0997 H   0  0  0  0  0  0  0  0  0  0  0  0  # atno 7974 bound_to 7965
  155.2108  140.0419  157.2933 H   0  0  0  0  0  0  0  0  0  0  0  0  # atno 8008 bound_to 7997
  154.6013  140.2453  155.7760 H   0  0  0  0  0  0  0  0  0  0  0  0  # atno 8009 bound_to 7997
  156.2323  140.2934  156.0229 H   0  0  0  0  0  0  0  0  0  0  0  0  # atno 8010 bound_to 7997
  139.5527  144.2068  152.1106 H   0  0  0  0  0  0  0  0  0  0  0  0  # atno 10167 bound_to 10162
  156.4650  130.8231  151.2462 H   0  0  0  0  0  0  0  0  0  0  0  0  # atno 10718 bound_to 10713
  154.1977  135.2792  155.3001 H   0  0  0  0  0  0  0  0  0  0  0  0  # atno 10763 bound_to 10752
  154.5879  135.5569  153.7253 H   0  0  0  0  0  0  0  0  0  0  0  0  # atno 10764 bound_to 10752
  153.0096  135.6361  154.2115 H   0  0  0  0  0  0  0  0  0  0  0  0  # atno 10765 bound_to 10752
  141.1497  133.7887  157.0159 H   0  0  0  0  0  0  0  0  0  0  0  0  # atno 11005 bound_to 11000
  144.7131  139.8297  143.7408 LP  0  0  0  0  0  0  0  0  0  0  0  0  # atno 17320 bound_to 7965
  146.1222  139.4242  143.0221 LP  0  0  0  0  0  0  0  0  0  0  0  0  # atno 17321 bound_to 7965
  140.1566  144.5065  150.6656 LP  0  0  0  0  0  0  0  0  0  0  0  0  # atno 17342 bound_to 10162
  140.6793  143.2319  151.5425 LP  0  0  0  0  0  0  0  0  0  0  0  0  # atno 17343 bound_to 10162
  157.7495  131.0095  150.3269 LP  0  0  0  0  0  0  0  0  0  0  0  0  # atno 17370 bound_to 10713
  156.3677  130.3858  149.7200 LP  0  0  0  0  0  0  0  0  0  0  0  0  # atno 17371 bound_to 10713
  140.0847  134.9627  157.1681 LP  0  0  0  0  0  0  0  0  0  0  0  0  # atno 17394 bound_to 11000
  140.3527  134.2580  155.7196 LP  0  0  0  0  0  0  0  0  0  0  0  0  # atno 17395 bound_to 11000

$$$$
