AV-unprocessed.smi:625|AV-procd|sdf|3102|dock3
  -GOLD-   22720 0 23D 1   1.00000     0.00000
 Structure written by MMmdl.
 49 51  0  0  0  0  0  0  0  0  1 V2000
  146.6642  129.9591  160.0745 C   0  0  0  0  0  0  0  0  0  0  0  0
  146.8777  131.3369  160.4907 N   0  0  0  0  0  0  0  0  0  0  0  0
  146.9616  132.3812  159.6502 C   0  0  0  0  0  0  0  0  0  0  0  0
  146.8568  132.2408  158.4301 O   0  0  0  0  0  0  0  0  0  0  0  0
  147.1812  133.6645  160.3213 C   0  0  0  0  0  0  0  0  0  0  0  0
  147.1481  133.8278  161.7669 C   0  0  0  0  0  0  0  0  0  0  0  0
  147.3234  135.0431  162.3231 C   0  0  0  0  0  0  0  0  0  0  0  0
  147.5505  136.2414  161.5091 C   0  0  0  0  0  0  0  0  0  0  0  0
  147.6891  137.3555  162.0137 O   0  0  0  0  0  0  0  0  0  0  0  0
  147.5926  136.0401  160.1577 N   0  0  0  0  0  0  0  0  0  0  0  0
  147.7633  137.1573  159.2161 C   0  0  0  0  0  0  0  0  0  0  0  0
  148.9262  136.8815  158.2579 C   0  0  0  0  0  0  0  0  0  0  0  0
  149.6491  135.8994  158.4268 O   0  0  0  0  0  0  0  0  0  0  0  0
  149.1022  137.7744  157.2720 N   0  0  0  0  0  0  0  0  0  0  0  0
  150.2498  137.8321  156.3706 C   0  0  1  0  0  0  0  0  0  0  0  0
  149.7971  137.4757  154.9465 C   0  0  0  0  0  0  0  0  0  0  0  0
  150.8943  139.2374  156.4488 C   0  0  2  0  0  0  0  0  0  0  0  0
  150.9920  139.8295  157.8726 C   0  0  0  0  0  0  0  0  0  0  0  0
  150.4029  141.2431  157.7016 C   0  0  2  0  0  0  0  0  0  0  0  0
  148.8748  141.1380  157.5428 C   0  0  0  0  0  0  0  0  0  0  0  0
  148.7218  140.5574  156.1256 C   0  0  0  0  0  0  0  0  0  0  0  0
  150.1848  140.3767  155.6710 C   0  0  1  0  0  0  0  0  0  0  0  0
  150.8398  141.6079  156.2874 C   0  0  0  0  0  0  0  0  0  0  0  0
  147.4086  134.7671  159.5830 C   0  0  0  0  0  0  0  0  0  0  0  0
  146.6133  129.3102  160.9488 H   0  0  0  0  0  0  0  0  0  0  0  0
  147.4826  129.6143  159.4412 H   0  0  0  0  0  0  0  0  0  0  0  0
  145.7294  129.8601  159.5208 H   0  0  0  0  0  0  0  0  0  0  0  0
  146.9687  131.5108  161.4811 H   0  0  0  0  0  0  0  0  0  0  0  0
  146.9844  132.9863  162.4239 H   0  0  0  0  0  0  0  0  0  0  0  0
  147.2940  135.1397  163.3987 H   0  0  0  0  0  0  0  0  0  0  0  0
  146.8631  137.3474  158.6299 H   0  0  0  0  0  0  0  0  0  0  0  0
  147.9436  138.0781  159.7742 H   0  0  0  0  0  0  0  0  0  0  0  0
  148.4399  138.5335  157.2046 H   0  0  0  0  0  0  0  0  0  0  0  0
  150.9965  137.0950  156.6696 H   0  0  0  0  0  0  0  0  0  0  0  0
  150.6348  137.4923  154.2492 H   0  0  0  0  0  0  0  0  0  0  0  0
  149.0459  138.1762  154.5801 H   0  0  0  0  0  0  0  0  0  0  0  0
  149.3640  136.4755  154.9128 H   0  0  0  0  0  0  0  0  0  0  0  0
  151.9057  139.1586  156.0456 H   0  0  0  0  0  0  0  0  0  0  0  0
  150.4409  139.2513  158.6153 H   0  0  0  0  0  0  0  0  0  0  0  0
  152.0326  139.8748  158.1961 H   0  0  0  0  0  0  0  0  0  0  0  0
  150.7142  141.9436  158.4769 H   0  0  0  0  0  0  0  0  0  0  0  0
  148.4216  140.5019  158.3039 H   0  0  0  0  0  0  0  0  0  0  0  0
  148.4071  142.1213  157.6060 H   0  0  0  0  0  0  0  0  0  0  0  0
  148.1447  139.6341  156.1098 H   0  0  0  0  0  0  0  0  0  0  0  0
  148.2086  141.2688  155.4772 H   0  0  0  0  0  0  0  0  0  0  0  0
  150.2977  140.3048  154.5889 H   0  0  0  0  0  0  0  0  0  0  0  0
  150.4155  142.5487  155.9313 H   0  0  0  0  0  0  0  0  0  0  0  0
  151.9237  141.6342  156.1611 H   0  0  0  0  0  0  0  0  0  0  0  0
  147.4450  134.7618  158.5023 H   0  0  0  0  0  0  0  0  0  0  0  0
  1  2  1  0  0  0  0
  1 25  1  0  0  0  0
  1 26  1  0  0  0  0
  1 27  1  0  0  0  0
  2  3  1  0  0  0  0
  2 28  1  0  0  0  0
  3  4  2  0  0  0  0
  3  5  1  0  0  0  0
  5 24  2  0  0  0  0
  5  6  1  0  0  0  0
  6  7  2  0  0  0  0
  6 29  1  0  0  0  0
  7  8  1  0  0  0  0
  7 30  1  0  0  0  0
  8  9  2  0  0  0  0
  8 10  1  0  0  0  0
 10 11  1  0  0  0  0
 10 24  1  0  0  0  0
 11 12  1  0  0  0  0
 11 31  1  0  0  0  0
 11 32  1  0  0  0  0
 12 13  2  0  0  0  0
 12 14  1  0  0  0  0
 14 15  1  0  0  0  0
 14 33  1  0  0  0  0
 15 16  1  0  0  0  0
 15 17  1  0  0  0  0
 15 34  1  0  0  0  0
 16 35  1  0  0  0  0
 16 36  1  0  0  0  0
 16 37  1  0  0  0  0
 17 22  1  0  0  0  0
 17 18  1  0  0  0  0
 17 38  1  0  0  0  0
 18 19  1  0  0  0  0
 18 39  1  0  0  0  0
 18 40  1  0  0  0  0
 19 23  1  0  0  0  0
 19 20  1  0  0  0  0
 19 41  1  0  0  0  0
 20 21  1  0  0  0  0
 20 42  1  0  0  0  0
 20 43  1  0  0  0  0
 21 22  1  0  0  0  0
 21 44  1  0  0  0  0
 21 45  1  0  0  0  0
 22 23  1  0  0  0  0
 22 46  1  0  0  0  0
 23 47  1  0  0  0  0
 23 48  1  0  0  0  0
 24 49  1  0  0  0  0
M  END
> <s_m_source_file>
AV-unprocessed.smi

> <i_m_source_file_index>
625

> <i_lp_mmshare_version>
43012

> <i_f3d_flags>
0

> <s_epik_input>
W0NIM11bTkhdQyg9TyljMVtjSF1bY0hdYyg9TyluKFtjSF0xKVtDSDJdQyg9TylbTkhdW0NASF0oW0NIM10pW0NASF0oW0NIMl1bQ0BIXTIzKVtDQEhdKFtDSDJdMylbQ0gyXVtDSDJdMg==

> <s_epik_cmdline>
J2VwaWtfcHl0aG9uJywgJy1waCcsICc3LjAnLCAnLXRuJywgJzgnLCAnLW1hJywgJzIwMCcsICctbWV0YWxfYmluZGluZycsICctaW1hZScsICc8aW5maWxlLm1hZT4nLCAnLW9tYWUnLCAnPG91dGZpbGUubWFlPic=

> <r_lp_tautomer_probability>
1

> <r_epik_Ionization_Penalty>
3.7129e-07

> <r_epik_Ionization_Penalty_Charging>
5.04114e-08

> <r_epik_Ionization_Penalty_Neutral>
3.20879e-07

> <r_epik_State_Penalty>
-0

> <r_epik_Charging_Adjusted_Penalty>
5.04114e-08

> <i_epik_Tot_Q>
0

> <i_epik_Tot_abs_Q>
0

> <r_epik_Metal_State_Penalty>
-0

> <b_epik_Metal_Only>
0

> <s_lp_Force_Field>
OPLS_2005

> <r_lp_Energy>
63.4228

> <b_lp_Chiralities_Consistent>
1

> <s_lp_Variant>
AV-unprocessed.smi:625-2

> <Gold.Version>
5.8.1

> <Gold.Id.Protein>
6NUR|6NUR_protein|mol2

> <Gold.PLP.Fitness>
42.0510

> <Gold.PLP.PLP>
-35.2959

> <Gold.PLP.part.hbond>
-2.9382

> <Gold.PLP.part.metal>
0.0000

> <Gold.PLP.part.buried>
-4.7862

> <Gold.PLP.part.nonpolar>
-27.8811

> <Gold.PLP.part.repulsive>
0.0461

> <Gold.PLP.ligand.clash>
0.0000

> <Gold.PLP.ligand.torsion>
0.4357

> <Gold.PLP.Chemscore.Hbond>
2.5200

> <Gold.PLP.Chemscore.CHOScore>
0.0000

> <Gold.PLP.Chemscore.Metal>
0.0000

> <Gold.Chemscore.Hbonds>
donor molecule, donor type, donor heavy atom, donor atom, acceptor molecule, acceptor atom, score
      P1  H  6896  6907       L1    13  1.00
      P1  H  6931  6943       L1     9  0.91
      P1  H  6934  6947       L1     9  0.57

> <Gold.PLP.Chemscore.Internal.Correction>
0.0665

> <Gold.Rescore>
     Score         DG    S(hbond)    S(metal)    S(lipo)     H(rot)  DE(clash)    DE(int)     intcor
     16.78     -18.64       2.65        0.00      73.49       1.67       0.00       1.86       ----

> <Gold.Chemscore.Fitness>
16.7799

> <Gold.Chemscore.DG>
-18.6423

> <Gold.Chemscore.ZeroCoef>
-5.4800

> <Gold.Chemscore.Hbond>
2.6471

> <Gold.Chemscore.Metal>
0.0000

> <Gold.Chemscore.Lipo>
73.4916

> <Gold.Chemscore.Internal_Hbond>
0.0000

> <Gold.Chemscore.DEClash>
0.0021

> <Gold.Chemscore.DEInternal>
1.8603

> <Gold.Chemscore.Rot>
1.6709

> <Gold.Chemscore.Internal.Correction>
   9.000000E+99

> <Gold.Chemscore.Hbonds>
donor molecule, donor type, donor heavy atom, donor atom, acceptor molecule, acceptor atom, score
      P1  H  6896  6907       L1    13  0.95
      P1  H  6931  6943       L1     9  0.87
      P1  H  6934  6947       L1     9  0.53

> <Gold.Chemscore.Hbond.Weighted>
-8.8412

> <Gold.Chemscore.Metal.Weighted>
-0.0000

> <Gold.Chemscore.Lipo.Weighted>
-8.5985

> <Gold.Chemscore.Internal_Hbond.Weighted>
0.0000

> <Gold.Chemscore.DEClash.Weighted>
0.0021

> <Gold.Chemscore.DEInternal.Weighted>
1.8603

> <Gold.Chemscore.Rot.Weighted>
4.2774

> <Gold.Chemscore.Internal.Correction.Weighted>
   9.000000E+99

> <Gold.Protein.RotatedTorsions>
[ 6907 6896 6895 6894 ] final  -53.68 input  -60.11 | X-H torsion
[ 7974 7965 7964 7962 ] final   89.98 input  175.53 | X-H torsion
[ 8008 7997 7996 7995 ] final -170.74 input   59.86 | X-H torsion
[ 10167 10162 10161 10158 ] final   43.74 input  -65.29 | X-H torsion
[ 10718 10713 10712 10709 ] final -135.74 input   66.30 | X-H torsion
[ 10763 10752 10751 10750 ] final -129.27 input  -60.55 | X-H torsion
[ 11005 11000 10999 10996 ] final -174.89 input  -57.11 | X-H torsion

> <Gold.Protein.ActiveResidues>
 VAL166  LYS551  ARG553  GLY616  TRP617  ASP618  TYR619  PRO620  LYS621  CYS622 
 ASP623  PHE694  ASN695  SER759  ASP760  ASP761  ALA762  ILE779  LEU786  VAL792 
 PHE793  MET794  SER795  GLU796  ALA797  LYS798  CYS799  TRP800  GLU811  SER814 

> <Gold.Protein.RotatedAtoms>
  150.8405  134.7695  159.6928 H   0  0  0  0  0  0  0  0  0  0  0  0  # atno 6907 bound_to 6896
  152.4493  134.5424  159.9853 H   0  0  0  0  0  0  0  0  0  0  0  0  # atno 6908 bound_to 6896
  151.5565  133.3372  159.2998 H   0  0  0  0  0  0  0  0  0  0  0  0  # atno 6909 bound_to 6896
  145.5251  139.2281  143.2650 H   0  0  0  0  0  0  0  0  0  0  0  0  # atno 7974 bound_to 7965
  155.9224  140.1076  157.1196 H   0  0  0  0  0  0  0  0  0  0  0  0  # atno 8008 bound_to 7997
  154.4056  140.1253  156.4762 H   0  0  0  0  0  0  0  0  0  0  0  0  # atno 8009 bound_to 7997
  155.7180  140.3470  155.5005 H   0  0  0  0  0  0  0  0  0  0  0  0  # atno 8010 bound_to 7997
  140.3413  144.2467  150.6155 H   0  0  0  0  0  0  0  0  0  0  0  0  # atno 10167 bound_to 10162
  156.2695  130.7257  151.1219 H   0  0  0  0  0  0  0  0  0  0  0  0  # atno 10718 bound_to 10713
  154.8757  135.3901  154.3893 H   0  0  0  0  0  0  0  0  0  0  0  0  # atno 10763 bound_to 10752
  153.4631  135.7029  153.6044 H   0  0  0  0  0  0  0  0  0  0  0  0  # atno 10764 bound_to 10752
  153.4534  135.3828  155.2265 H   0  0  0  0  0  0  0  0  0  0  0  0  # atno 10765 bound_to 10752
  140.4695  134.6179  157.4876 H   0  0  0  0  0  0  0  0  0  0  0  0  # atno 11005 bound_to 11000
  146.2081  140.6065  142.9072 LP  0  0  0  0  0  0  0  0  0  0  0  0  # atno 17320 bound_to 7965
  144.7655  140.5521  143.6706 LP  0  0  0  0  0  0  0  0  0  0  0  0  # atno 17321 bound_to 7965
  140.5306  143.2244  151.8244 LP  0  0  0  0  0  0  0  0  0  0  0  0  # atno 17342 bound_to 10162
  139.4840  144.4725  151.9408 LP  0  0  0  0  0  0  0  0  0  0  0  0  # atno 17343 bound_to 10162
  157.7279  131.0636  150.5845 LP  0  0  0  0  0  0  0  0  0  0  0  0  # atno 17370 bound_to 10713
  156.5940  130.4337  149.5924 LP  0  0  0  0  0  0  0  0  0  0  0  0  # atno 17371 bound_to 10713
  139.9894  134.7009  155.9716 LP  0  0  0  0  0  0  0  0  0  0  0  0  # atno 17394 bound_to 11000
  141.1584  133.6541  156.4236 LP  0  0  0  0  0  0  0  0  0  0  0  0  # atno 17395 bound_to 11000

$$$$
