AV-unprocessed.smi:287|AV-procd|sdf|2206|dock3
  -GOLD-   2262022 33D 1   1.00000     0.00000
 Structure written by MMmdl.
 55 58  0  0  0  0  0  0  0  0  1 V2000
  148.7435  132.6348  152.0346 C   0  0  0  0  0  0  0  0  0  0  0  0
  148.8357  132.9709  153.4834 C   0  0  0  0  0  0  0  0  0  0  0  0
  149.8667  133.0339  154.3748 C   0  0  0  0  0  0  0  0  0  0  0  0
  149.3195  133.4264  155.6327 C   0  0  0  0  0  0  0  0  0  0  0  0
  150.1058  133.6319  156.9207 C   0  0  2  0  0  0  0  0  0  0  0  0
  150.7093  132.2958  157.3853 C   0  0  0  0  0  0  0  0  0  0  0  0
  149.2974  134.0688  157.9961 O   0  0  0  0  0  0  0  0  0  0  0  0
  151.2193  134.6924  156.7647 C   0  0  0  0  0  0  0  0  0  0  0  0
  150.7463  135.9237  156.1402 N   0  0  0  0  0  0  0  0  0  0  0  0
  151.5354  137.0178  156.1131 C   0  0  0  0  0  0  0  0  0  0  0  0
  152.6184  137.0800  155.2955 N   0  0  0  0  0  0  0  0  0  0  0  0
  153.3835  138.1753  155.2859 C   0  0  0  0  0  0  0  0  0  0  0  0
  153.2458  139.2950  155.9987 N   0  0  0  0  0  0  0  0  0  0  0  0
  152.1584  139.2393  156.8214 C   0  0  0  0  0  0  0  0  0  0  0  0
  151.2614  138.1406  156.9359 C   0  0  0  0  0  0  0  0  0  0  0  0
  150.2763  138.4306  157.8700 N   0  0  0  0  0  0  0  0  0  0  0  0
  150.5773  139.6323  158.2817 C   0  0  0  0  0  0  0  0  0  0  0  0
  151.6951  140.1949  157.7058 N   0  0  0  0  0  0  0  0  0  0  0  0
  152.2693  141.5517  157.9874 C   0  0  2  0  0  0  0  0  0  0  0  0
  151.7895  142.0184  159.2150 O   0  0  0  0  0  0  0  0  0  0  0  0
  151.0725  143.2414  159.0429 C   0  0  1  0  0  0  0  0  0  0  0  0
  151.2413  144.1241  160.2892 C   0  0  0  0  0  0  0  0  0  0  0  0
  150.7263  143.4641  161.4256 O   0  0  0  0  0  0  0  0  0  0  0  0
  151.7095  143.8324  157.7840 C   0  0  2  0  0  0  0  0  0  0  0  0
  150.9127  144.8206  157.1595 O   0  0  0  0  0  0  0  0  0  0  0  0
  151.9145  142.5998  156.9154 C   0  0  2  0  0  0  0  0  0  0  0  0
  150.7611  142.2704  156.1554 O   0  0  0  0  0  0  0  0  0  0  0  0
  147.9716  133.5645  155.4009 C   0  0  0  0  0  0  0  0  0  0  0  0
  146.8038  133.9414  156.2522 C   0  0  0  0  0  0  0  0  0  0  0  0
  147.6712  133.2922  154.1002 O   0  0  0  0  0  0  0  0  0  0  0  0
  153.3435  141.3835  158.0733 H   0  0  0  0  0  0  0  0  0  0  0  0
  150.0192  143.0291  158.8512 H   0  0  0  0  0  0  0  0  0  0  0  0
  152.6804  144.2637  158.0335 H   0  0  0  0  0  0  0  0  0  0  0  0
  152.7539  142.7211  156.2301 H   0  0  0  0  0  0  0  0  0  0  0  0
  149.7330  132.4605  151.6119 H   0  0  0  0  0  0  0  0  0  0  0  0
  148.2772  133.4478  151.4779 H   0  0  0  0  0  0  0  0  0  0  0  0
  148.1480  131.7344  151.8841 H   0  0  0  0  0  0  0  0  0  0  0  0
  150.9025  132.8270  154.1495 H   0  0  0  0  0  0  0  0  0  0  0  0
  151.3895  131.8871  156.6372 H   0  0  0  0  0  0  0  0  0  0  0  0
  149.9328  131.5506  157.5638 H   0  0  0  0  0  0  0  0  0  0  0  0
  151.2750  132.4122  158.3105 H   0  0  0  0  0  0  0  0  0  0  0  0
  148.6827  134.7072  157.6686 H   0  0  0  0  0  0  0  0  0  0  0  0
  151.6914  134.9065  157.7248 H   0  0  0  0  0  0  0  0  0  0  0  0
  151.9984  134.2869  156.1175 H   0  0  0  0  0  0  0  0  0  0  0  0
  149.8397  135.8764  155.6966 H   0  0  0  0  0  0  0  0  0  0  0  0
  154.2261  138.1522  154.6108 H   0  0  0  0  0  0  0  0  0  0  0  0
  149.9868  140.1461  159.0264 H   0  0  0  0  0  0  0  0  0  0  0  0
  152.2860  144.3941  160.4469 H   0  0  0  0  0  0  0  0  0  0  0  0
  150.6815  145.0523  160.1702 H   0  0  0  0  0  0  0  0  0  0  0  0
  151.4312  142.9968  161.8474 H   0  0  0  0  0  0  0  0  0  0  0  0
  150.4280  144.4090  156.4594 H   0  0  0  0  0  0  0  0  0  0  0  0
  150.4393  143.0577  155.7432 H   0  0  0  0  0  0  0  0  0  0  0  0
  146.7139  133.2685  157.1049 H   0  0  0  0  0  0  0  0  0  0  0  0
  145.8720  133.8937  155.6885 H   0  0  0  0  0  0  0  0  0  0  0  0
  146.9143  134.9575  156.6309 H   0  0  0  0  0  0  0  0  0  0  0  0
  1  2  1  0  0  0  0
  1 35  1  0  0  0  0
  1 36  1  0  0  0  0
  1 37  1  0  0  0  0
  2 30  1  0  0  0  0
  2  3  2  0  0  0  0
  3  4  1  0  0  0  0
  3 38  1  0  0  0  0
  4  5  1  0  0  0  0
  4 28  2  0  0  0  0
  5  6  1  0  0  0  0
  5  7  1  0  0  0  0
  5  8  1  0  0  0  0
  6 39  1  0  0  0  0
  6 40  1  0  0  0  0
  6 41  1  0  0  0  0
  7 42  1  0  0  0  0
  8  9  1  0  0  0  0
  8 43  1  0  0  0  0
  8 44  1  0  0  0  0
  9 10  1  0  0  0  0
  9 45  1  0  0  0  0
 10 15  1  0  0  0  0
 10 11  2  0  0  0  0
 11 12  1  0  0  0  0
 12 13  2  0  0  0  0
 12 46  1  0  0  0  0
 13 14  1  0  0  0  0
 14 18  1  0  0  0  0
 14 15  2  0  0  0  0
 15 16  1  0  0  0  0
 16 17  2  0  0  0  0
 17 18  1  0  0  0  0
 17 47  1  0  0  0  0
 18 19  1  0  0  0  0
 19 31  1  0  0  0  0
 19 26  1  0  0  0  0
 19 20  1  0  0  0  0
 20 21  1  0  0  0  0
 21 32  1  0  0  0  0
 21 22  1  0  0  0  0
 21 24  1  0  0  0  0
 22 23  1  0  0  0  0
 22 48  1  0  0  0  0
 22 49  1  0  0  0  0
 23 50  1  0  0  0  0
 24 33  1  0  0  0  0
 24 25  1  0  0  0  0
 24 26  1  0  0  0  0
 25 51  1  0  0  0  0
 26 34  1  0  0  0  0
 26 27  1  0  0  0  0
 27 52  1  0  0  0  0
 28 29  1  0  0  0  0
 28 30  1  0  0  0  0
 29 53  1  0  0  0  0
 29 54  1  0  0  0  0
 29 55  1  0  0  0  0
M  END
> <s_m_source_file>
AV-unprocessed.smi

> <i_m_source_file_index>
287

> <i_lp_mmshare_version>
43012

> <i_f3d_flags>
0

> <s_epik_input>
W0NIM11jMVtjSF1jKGMobzEpW0NIM10pW0NAQF0oW0NIM10pKFtPSF0pW0NIMl1bTkhdYyhuW2NIXW4yKWMoYzIzKW5bY0hdbjNbQ0BASF00T1tDQEhdKFtDSDJdW09IXSlbQ0BASF0oW09IXSlbQ0BIXTRbT0hd

> <s_epik_cmdline>
J2VwaWtfcHl0aG9uJywgJy1waCcsICc3LjAnLCAnLXRuJywgJzgnLCAnLW1hJywgJzIwMCcsICctbWV0YWxfYmluZGluZycsICctaW1hZScsICc8aW5maWxlLm1hZT4nLCAnLW9tYWUnLCAnPG91dGZpbGUubWFlPic=

> <r_lp_tautomer_probability>
1

> <r_epik_Ionization_Penalty>
0.000992612

> <r_epik_Ionization_Penalty_Charging>
0

> <r_epik_Ionization_Penalty_Neutral>
0.000992612

> <r_epik_State_Penalty>
-0

> <r_epik_Charging_Adjusted_Penalty>
0

> <i_epik_Tot_Q>
0

> <i_epik_Tot_abs_Q>
0

> <r_epik_Metal_State_Penalty>
-0

> <b_epik_Metal_Only>
0

> <s_epik_Chemistry_Notes>
This compound contains an acetal/aminal-like group ( X-CH(R)-Y where X, Y are N, S, or O) that may be acid/base labile, releasing an aldehyde.

> <s_lp_Force_Field>
OPLS_2005

> <r_lp_Energy>
49.5285

> <b_lp_Chiralities_Consistent>
1

> <s_lp_Variant>
AV-unprocessed.smi:287-30

> <Gold.Version>
5.8.1

> <Gold.Id.Protein>
6NUR|6NUR_protein|mol2

> <Gold.PLP.Fitness>
57.0547

> <Gold.PLP.PLP>
-43.2809

> <Gold.PLP.part.hbond>
-8.0000

> <Gold.PLP.part.metal>
0.0000

> <Gold.PLP.part.buried>
-8.2552

> <Gold.PLP.part.nonpolar>
-28.0228

> <Gold.PLP.part.repulsive>
0.2400

> <Gold.PLP.ligand.clash>
0.0000

> <Gold.PLP.ligand.torsion>
1.3951

> <Gold.PLP.Chemscore.Hbond>
5.4893

> <Gold.PLP.Chemscore.CHOScore>
0.0000

> <Gold.PLP.Chemscore.Metal>
0.0000

> <Gold.Chemscore.Hbonds>
donor molecule, donor type, donor heavy atom, donor atom, acceptor molecule, acceptor atom, score
      L1  H    25    51       P1  8028  0.67
      L1  H    27    52       P1  8028  0.40
      P1  H  6896  6909       L1     7  0.43
      P1  H  7997  8009       L1    13  0.83
      P1  H 10752 10765       L1    11  0.51

> <Gold.PLP.Chemscore.Internal.Correction>
0.0961

> <Gold.Rescore>
     Score         DG    S(hbond)    S(metal)    S(lipo)     H(rot)  DE(clash)    DE(int)     intcor
     10.21     -14.30       3.84        0.00      80.90       5.27       1.57       2.51       ----

> <Gold.Chemscore.Fitness>
10.2148

> <Gold.Chemscore.DG>
-14.3005

> <Gold.Chemscore.ZeroCoef>
-5.4800

> <Gold.Chemscore.Hbond>
3.8441

> <Gold.Chemscore.Metal>
0.0000

> <Gold.Chemscore.Lipo>
80.8975

> <Gold.Chemscore.Internal_Hbond>
0.0000

> <Gold.Chemscore.DEClash>
1.5746

> <Gold.Chemscore.DEInternal>
2.5111

> <Gold.Chemscore.Rot>
5.2672

> <Gold.Chemscore.Internal.Correction>
   9.000000E+99

> <Gold.Chemscore.Hbonds>
donor molecule, donor type, donor heavy atom, donor atom, acceptor molecule, acceptor atom, score
      L1  H    25    51       P1  8028  0.68
      L1  H    27    52       P1  8028  0.37
      P1  H  6896  6909       L1     7  0.01
      P1  H  7997  8009       L1    13  0.67
      P1  H 10752 10765       L1    11  0.47

> <Gold.Chemscore.Hbond.Weighted>
-12.8394

> <Gold.Chemscore.Metal.Weighted>
-0.0000

> <Gold.Chemscore.Lipo.Weighted>
-9.4650

> <Gold.Chemscore.Internal_Hbond.Weighted>
0.0000

> <Gold.Chemscore.DEClash.Weighted>
1.5746

> <Gold.Chemscore.DEInternal.Weighted>
2.5111

> <Gold.Chemscore.Rot.Weighted>
13.4839

> <Gold.Chemscore.Internal.Correction.Weighted>
   9.000000E+99

> <Gold.Protein.RotatedTorsions>
[ 6907 6896 6895 6894 ] final   -5.83 input  -60.11 | X-H torsion
[ 7974 7965 7964 7962 ] final -137.04 input  175.53 | X-H torsion
[ 8008 7997 7996 7995 ] final -140.36 input   59.86 | X-H torsion
[ 10167 10162 10161 10158 ] final   94.17 input  -65.29 | X-H torsion
[ 10718 10713 10712 10709 ] final   16.41 input   66.30 | X-H torsion
[ 10763 10752 10751 10750 ] final  169.83 input  -60.55 | X-H torsion
[ 11005 11000 10999 10996 ] final  135.65 input  -57.11 | X-H torsion

> <Gold.Protein.ActiveResidues>
 VAL166  LYS551  ARG553  GLY616  TRP617  ASP618  TYR619  PRO620  LYS621  CYS622 
 ASP623  PHE694  ASN695  SER759  ASP760  ASP761  ALA762  ILE779  LEU786  VAL792 
 PHE793  MET794  SER795  GLU796  ALA797  LYS798  CYS799  TRP800  GLU811  SER814 

> <Gold.Protein.RotatedAtoms>
  151.4753  135.1048  159.9762 H   0  0  0  0  0  0  0  0  0  0  0  0  # atno 6907 bound_to 6896
  152.4801  133.8228  159.7073 H   0  0  0  0  0  0  0  0  0  0  0  0  # atno 6908 bound_to 6896
  150.8866  133.7238  159.2943 H   0  0  0  0  0  0  0  0  0  0  0  0  # atno 6909 bound_to 6896
  144.8876  140.6596  143.5166 H   0  0  0  0  0  0  0  0  0  0  0  0  # atno 7974 bound_to 7965
  155.4601  140.0545  157.2992 H   0  0  0  0  0  0  0  0  0  0  0  0  # atno 8008 bound_to 7997
  154.4741  140.2053  155.9877 H   0  0  0  0  0  0  0  0  0  0  0  0  # atno 8009 bound_to 7997
  156.1103  140.3205  155.8068 H   0  0  0  0  0  0  0  0  0  0  0  0  # atno 8010 bound_to 7997
  139.8109  144.6774  150.9642 H   0  0  0  0  0  0  0  0  0  0  0  0  # atno 10167 bound_to 10162
  157.0675  130.6334  149.5798 H   0  0  0  0  0  0  0  0  0  0  0  0  # atno 10718 bound_to 10713
  154.3888  135.2754  155.2167 H   0  0  0  0  0  0  0  0  0  0  0  0  # atno 10763 bound_to 10752
  154.4242  135.5993  153.6032 H   0  0  0  0  0  0  0  0  0  0  0  0  # atno 10764 bound_to 10752
  152.9832  135.5980  154.4140 H   0  0  0  0  0  0  0  0  0  0  0  0  # atno 10765 bound_to 10752
  139.9993  134.9485  157.0036 H   0  0  0  0  0  0  0  0  0  0  0  0  # atno 11005 bound_to 11000
  145.3841  139.1630  143.4264 LP  0  0  0  0  0  0  0  0  0  0  0  0  # atno 17320 bound_to 7965
  146.3034  140.3925  142.8696 LP  0  0  0  0  0  0  0  0  0  0  0  0  # atno 17321 bound_to 7965
  140.7818  143.4186  151.0877 LP  0  0  0  0  0  0  0  0  0  0  0  0  # atno 17342 bound_to 10162
  139.7853  143.8297  152.3144 LP  0  0  0  0  0  0  0  0  0  0  0  0  # atno 17343 bound_to 10162
  155.9960  130.5028  150.7480 LP  0  0  0  0  0  0  0  0  0  0  0  0  # atno 17370 bound_to 10713
  157.4905  131.0910  151.0432 LP  0  0  0  0  0  0  0  0  0  0  0  0  # atno 17371 bound_to 10713
  140.4758  134.1340  155.7209 LP  0  0  0  0  0  0  0  0  0  0  0  0  # atno 17394 bound_to 11000
  141.1629  133.8758  157.1796 LP  0  0  0  0  0  0  0  0  0  0  0  0  # atno 17395 bound_to 11000

$$$$
