AV-unprocessed.smi:3029|AV-procd|sdf|11527|dock7
  -GOLD-   2272016473D 1   1.00000     0.00000
 Structure written by MMmdl.
 42 43  0  0  0  0  0  0  0  0  4 V2000
  147.3298  141.7339  153.9246 O   0  0  0  0  0  0  0  0  0  0  0  0
  148.3350  141.0518  154.1233 C   0  0  0  0  0  0  0  0  0  0  0  0
  149.4534  141.5301  154.9422 C   0  0  0  0  0  0  0  0  0  0  0  0
  150.5419  140.7686  155.1685 C   0  0  0  0  0  0  0  0  0  0  0  0
  150.6380  139.4365  154.6035 C   0  0  0  0  0  0  0  0  0  0  0  0
  151.7947  138.6043  154.8518 N   0  3  0  0  0  0  0  0  0  0  0  0
  151.7265  137.4033  154.6082 O   0  0  0  0  0  0  0  0  0  0  0  0
  152.8102  139.1267  155.2994 O   0  5  0  0  0  0  0  0  0  0  0  0
  149.6118  139.0022  153.8455 C   0  0  0  0  0  0  0  0  0  0  0  0
  148.4767  139.7978  153.5971 N   0  0  0  0  0  0  0  0  0  0  0  0
  147.4231  139.2149  152.7552 C   0  0  0  0  0  0  0  0  0  0  0  0
  146.6438  138.1226  153.5050 C   0  0  0  0  0  0  0  0  0  0  0  0
  146.5190  136.9058  152.6764 N   0  3  0  0  0  0  0  0  0  0  0  0
  145.8924  135.7390  153.3436 C   0  0  2  0  0  0  0  0  0  0  0  0
  146.7502  135.2370  154.5270 C   0  0  0  0  0  0  0  0  0  0  0  0
  148.0720  134.6064  154.0559 C   0  0  0  0  0  0  0  0  0  0  0  0
  147.8204  133.4750  153.0485 C   0  0  0  0  0  0  0  0  0  0  0  0
  146.9642  133.9533  151.8647 C   0  0  0  0  0  0  0  0  0  0  0  0
  145.6355  134.5817  152.3414 C   0  0  2  0  0  0  0  0  0  0  0  0
  144.7034  134.9643  151.1687 C   0  0  0  0  0  0  0  0  0  0  0  0
  144.4585  133.9199  150.3769 F   0  0  0  0  0  0  0  0  0  0  0  0
  143.5437  135.4158  151.6454 F   0  0  0  0  0  0  0  0  0  0  0  0
  145.2596  135.9338  150.4430 F   0  0  0  0  0  0  0  0  0  0  0  0
  149.4021  142.5191  155.3737 H   0  0  0  0  0  0  0  0  0  0  0  0
  151.3413  141.1649  155.7773 H   0  0  0  0  0  0  0  0  0  0  0  0
  149.5845  138.0250  153.3849 H   0  0  0  0  0  0  0  0  0  0  0  0
  146.7403  139.9931  152.4082 H   0  0  0  0  0  0  0  0  0  0  0  0
  147.8581  138.7965  151.8460 H   0  0  0  0  0  0  0  0  0  0  0  0
  147.1525  137.8862  154.4392 H   0  0  0  0  0  0  0  0  0  0  0  0
  145.6465  138.4816  153.7621 H   0  0  0  0  0  0  0  0  0  0  0  0
  145.9430  137.1461  151.8818 H   0  0  0  0  0  0  0  0  0  0  0  0
  144.9268  136.0627  153.7345 H   0  0  0  0  0  0  0  0  0  0  0  0
  146.9508  136.0381  155.2378 H   0  0  0  0  0  0  0  0  0  0  0  0
  146.1834  134.4889  155.0829 H   0  0  0  0  0  0  0  0  0  0  0  0
  148.7058  135.3688  153.6017 H   0  0  0  0  0  0  0  0  0  0  0  0
  148.6245  134.2207  154.9132 H   0  0  0  0  0  0  0  0  0  0  0  0
  148.7706  133.0820  152.6854 H   0  0  0  0  0  0  0  0  0  0  0  0
  147.3172  132.6473  153.5500 H   0  0  0  0  0  0  0  0  0  0  0  0
  147.5285  134.6738  151.2718 H   0  0  0  0  0  0  0  0  0  0  0  0
  146.7631  133.1083  151.2056 H   0  0  0  0  0  0  0  0  0  0  0  0
  145.1076  133.8060  152.8989 H   0  0  0  0  0  0  0  0  0  0  0  0
  147.4315  136.6355  152.3377 H   0  0  0  0  0  0  0  0  0  0  0  0
  1  2  2  0  0  0  0
  2 10  1  0  0  0  0
  2  3  1  0  0  0  0
  3  4  2  0  0  0  0
  3 24  1  0  0  0  0
  4  5  1  0  0  0  0
  4 25  1  0  0  0  0
  5  6  1  0  0  0  0
  5  9  2  0  0  0  0
  6  7  2  0  0  0  0
  6  8  1  0  0  0  0
  9 10  1  0  0  0  0
  9 26  1  0  0  0  0
 10 11  1  0  0  0  0
 11 12  1  0  0  0  0
 11 27  1  0  0  0  0
 11 28  1  0  0  0  0
 12 13  1  0  0  0  0
 12 29  1  0  0  0  0
 12 30  1  0  0  0  0
 13 14  1  0  0  0  0
 13 31  1  0  0  0  0
 13 42  1  0  0  0  0
 14 19  1  0  0  0  0
 14 15  1  0  0  0  0
 14 32  1  0  0  0  0
 15 16  1  0  0  0  0
 15 33  1  0  0  0  0
 15 34  1  0  0  0  0
 16 17  1  0  0  0  0
 16 35  1  0  0  0  0
 16 36  1  0  0  0  0
 17 18  1  0  0  0  0
 17 37  1  0  0  0  0
 17 38  1  0  0  0  0
 18 19  1  0  0  0  0
 18 39  1  0  0  0  0
 18 40  1  0  0  0  0
 19 20  1  0  0  0  0
 19 41  1  0  0  0  0
 20 21  1  0  0  0  0
 20 22  1  0  0  0  0
 20 23  1  0  0  0  0
M  CHG  1   6   1
M  CHG  1   8  -1
M  CHG  1  13   1
M  END
> <s_m_source_file>
AV-unprocessed.smi

> <i_m_source_file_index>
3029

> <i_lp_mmshare_version>
43012

> <i_f3d_flags>
0

> <s_epik_input>
Tz1jMVtjSF1bY0hdYyhbTitdKD1PKVtPLV0pW2NIXW4xW0NIMl1bQ0gyXVtOSF1bQ0BASF0yW0NIMl1bQ0gyXVtDSDJdW0NIMl1bQ0BIXTJDKEYpKEYpRg==

> <s_epik_cmdline>
J2VwaWtfcHl0aG9uJywgJy1waCcsICc3LjAnLCAnLXRuJywgJzgnLCAnLW1hJywgJzIwMCcsICctbWV0YWxfYmluZGluZycsICctaW1hZScsICc8aW5maWxlLm1hZT4nLCAnLW9tYWUnLCAnPG91dGZpbGUubWFlPic=

> <r_lp_tautomer_probability>
1

> <r_epik_Ionization_Penalty>
0.037386

> <r_epik_Ionization_Penalty_Charging>
0.037386

> <r_epik_Ionization_Penalty_Neutral>
0

> <r_epik_State_Penalty>
0.0312892

> <r_epik_Charging_Adjusted_Penalty>
0.0686752

> <i_epik_Tot_Q>
1

> <i_epik_Tot_abs_Q>
3

> <r_epik_Metal_State_Penalty>
0.0312892

> <b_epik_Metal_Only>
0

> <s_lp_Force_Field>
OPLS_2005

> <r_lp_Energy>
34.7992

> <b_lp_Chiralities_Consistent>
1

> <s_lp_Variant>
AV-unprocessed.smi:3029-3

> <Gold.Version>
5.8.1

> <Gold.Id.Protein>
6NUR|6NUR_protein|mol2

> <Gold.PLP.Fitness>
53.6461

> <Gold.PLP.PLP>
-39.8831

> <Gold.PLP.part.hbond>
-3.0000

> <Gold.PLP.part.metal>
0.0000

> <Gold.PLP.part.buried>
-1.9326

> <Gold.PLP.part.nonpolar>
-35.3779

> <Gold.PLP.part.repulsive>
0.2773

> <Gold.PLP.ligand.clash>
0.0000

> <Gold.PLP.ligand.torsion>
0.6496

> <Gold.PLP.Chemscore.Hbond>
3.9920

> <Gold.PLP.Chemscore.CHOScore>
1.0000

> <Gold.PLP.Chemscore.Metal>
0.0000

> <Gold.Chemscore.Hbonds>
donor molecule, donor type, donor heavy atom, donor atom, acceptor molecule, acceptor atom, score
      L1  H    13    42       P1  7948  2.00
      P1  H  7997  8008       L1     8  0.99
      P1  H 10752 10764       L1     7  0.71
      L1  C     9    26       P1  7948  1.00

> <Gold.PLP.Chemscore.Internal.Correction>
0.0862

> <Gold.Rescore>
     Score         DG    S(hbond)    S(metal)    S(lipo)     H(rot)  DE(clash)    DE(int)     intcor
     15.25     -17.54       2.89        0.00      62.31       1.90       0.15       2.15       ----

> <Gold.Chemscore.Fitness>
15.2530

> <Gold.Chemscore.DG>
-17.5438

> <Gold.Chemscore.ZeroCoef>
-5.4800

> <Gold.Chemscore.Hbond>
2.8882

> <Gold.Chemscore.Metal>
0.0000

> <Gold.Chemscore.Lipo>
62.3144

> <Gold.Chemscore.Internal_Hbond>
0.0000

> <Gold.Chemscore.DEClash>
0.1455

> <Gold.Chemscore.DEInternal>
2.1453

> <Gold.Chemscore.Rot>
1.9037

> <Gold.Chemscore.Internal.Correction>
   9.000000E+99

> <Gold.Chemscore.Hbonds>
donor molecule, donor type, donor heavy atom, donor atom, acceptor molecule, acceptor atom, score
      L1  H    13    42       P1  7948  1.00
      P1  H  7997  8008       L1     8  0.93
      P1  H 10752 10764       L1     7  0.66

> <Gold.Chemscore.Hbond.Weighted>
-9.6466

> <Gold.Chemscore.Metal.Weighted>
-0.0000

> <Gold.Chemscore.Lipo.Weighted>
-7.2908

> <Gold.Chemscore.Internal_Hbond.Weighted>
0.0000

> <Gold.Chemscore.DEClash.Weighted>
0.1455

> <Gold.Chemscore.DEInternal.Weighted>
2.1453

> <Gold.Chemscore.Rot.Weighted>
4.8736

> <Gold.Chemscore.Internal.Correction.Weighted>
   9.000000E+99

> <Gold.Protein.RotatedTorsions>
[ 6907 6896 6895 6894 ] final  104.52 input  -60.11 | X-H torsion
[ 7974 7965 7964 7962 ] final   93.61 input  175.53 | X-H torsion
[ 8008 7997 7996 7995 ] final  -20.77 input   59.86 | X-H torsion
[ 10167 10162 10161 10158 ] final  133.55 input  -65.29 | X-H torsion
[ 10718 10713 10712 10709 ] final -119.24 input   66.30 | X-H torsion
[ 10763 10752 10751 10750 ] final  -67.26 input  -60.55 | X-H torsion
[ 11005 11000 10999 10996 ] final  163.20 input  -57.11 | X-H torsion

> <Gold.Protein.ActiveResidues>
 VAL166  LYS551  ARG553  GLY616  TRP617  ASP618  TYR619  PRO620  LYS621  CYS622 
 ASP623  PHE694  ASN695  SER759  ASP760  ASP761  ALA762  ILE779  LEU786  VAL792 
 PHE793  MET794  SER795  GLU796  ALA797  LYS798  CYS799  TRP800  GLU811  SER814 

> <Gold.Protein.RotatedAtoms>
  152.5261  133.9664  159.7741 H   0  0  0  0  0  0  0  0  0  0  0  0  # atno 6907 bound_to 6896
  150.9944  133.6109  159.2710 H   0  0  0  0  0  0  0  0  0  0  0  0  # atno 6908 bound_to 6896
  151.3241  135.0832  159.9369 H   0  0  0  0  0  0  0  0  0  0  0  0  # atno 6909 bound_to 6896
  145.4766  139.2280  143.2905 H   0  0  0  0  0  0  0  0  0  0  0  0  # atno 7974 bound_to 7965
  154.4748  140.2053  155.9904 H   0  0  0  0  0  0  0  0  0  0  0  0  # atno 8008 bound_to 7997
  156.1071  140.3235  155.7992 H   0  0  0  0  0  0  0  0  0  0  0  0  # atno 8009 bound_to 7997
  155.4698  140.0530  157.2971 H   0  0  0  0  0  0  0  0  0  0  0  0  # atno 8010 bound_to 7997
  139.5292  144.6610  151.5012 H   0  0  0  0  0  0  0  0  0  0  0  0  # atno 10167 bound_to 10162
  156.1166  130.6291  150.9392 H   0  0  0  0  0  0  0  0  0  0  0  0  # atno 10718 bound_to 10713
  154.3719  135.6093  153.5745 H   0  0  0  0  0  0  0  0  0  0  0  0  # atno 10763 bound_to 10752
  152.9790  135.5840  154.4511 H   0  0  0  0  0  0  0  0  0  0  0  0  # atno 10764 bound_to 10752
  154.4266  135.2847  155.1918 H   0  0  0  0  0  0  0  0  0  0  0  0  # atno 10765 bound_to 10752
  140.2334  134.8107  157.3339 H   0  0  0  0  0  0  0  0  0  0  0  0  # atno 11005 bound_to 11000
  146.2365  140.5549  142.8952 LP  0  0  0  0  0  0  0  0  0  0  0  0  # atno 17320 bound_to 7965
  144.7913  140.6038  143.6539 LP  0  0  0  0  0  0  0  0  0  0  0  0  # atno 17321 bound_to 7965
  140.6459  143.8796  150.6736 LP  0  0  0  0  0  0  0  0  0  0  0  0  # atno 17342 bound_to 10162
  140.2145  143.3857  152.1692 LP  0  0  0  0  0  0  0  0  0  0  0  0  # atno 17343 bound_to 10162
  157.6350  131.0917  150.8367 LP  0  0  0  0  0  0  0  0  0  0  0  0  # atno 17370 bound_to 10713
  156.8469  130.5067  149.5315 LP  0  0  0  0  0  0  0  0  0  0  0  0  # atno 17371 bound_to 10713
  140.1727  134.4588  155.7821 LP  0  0  0  0  0  0  0  0  0  0  0  0  # atno 17394 bound_to 11000
  141.2216  133.6949  156.7735 LP  0  0  0  0  0  0  0  0  0  0  0  0  # atno 17395 bound_to 11000

$$$$
