AV-unprocessed.smi:2559|AV-procd|sdf|10037|dock1
  -GOLD-   2272014 83D 1   1.00000     0.00000
 Structure written by MMmdl.
 43 45  0  0  0  0  0  0  0  0  2 V2000
  154.7729  138.9613  161.7766 C   0  0  0  0  0  0  0  0  0  0  0  0
  153.8903  138.4150  160.7409 N   0  0  0  0  0  0  0  0  0  0  0  0
  153.7740  137.0721  160.4885 C   0  0  0  0  0  0  0  0  0  0  0  0
  154.4320  136.2828  161.1664 O   0  0  0  0  0  0  0  0  0  0  0  0
  152.9315  136.6351  159.4888 N   0  5  0  0  0  0  0  0  0  0  0  0
  152.1638  137.4273  158.6757 C   0  0  0  0  0  0  0  0  0  0  0  0
  151.4369  137.0480  157.7596 O   0  0  0  0  0  0  0  0  0  0  0  0
  152.3015  138.8646  159.0047 C   0  0  0  0  0  0  0  0  0  0  0  0
  153.1301  139.3363  159.9738 C   0  0  0  0  0  0  0  0  0  0  0  0
  153.0995  140.7200  160.0365 N   0  0  0  0  0  0  0  0  0  0  0  0
  152.2123  141.0409  159.0928 C   0  0  0  0  0  0  0  0  0  0  0  0
  151.8703  142.3598  158.7896 N   0  0  0  0  0  0  0  0  0  0  0  0
  150.5186  142.7741  158.4169 C   0  0  0  0  0  0  0  0  0  0  0  0
  150.0742  144.0223  159.2005 C   0  0  0  0  0  0  0  0  0  0  0  0
  151.0533  145.1826  158.9767 C   0  0  0  0  0  0  0  0  0  0  0  0
  152.4869  144.7201  159.2684 C   0  0  0  0  0  0  0  0  0  0  0  0
  152.8109  143.4378  158.4816 C   0  0  0  0  0  0  0  0  0  0  0  0
  151.6930  139.9801  158.4157 N   0  0  0  0  0  0  0  0  0  0  0  0
  150.7578  140.0015  157.2899 C   0  0  0  0  0  0  0  0  0  0  0  0
  151.2858  139.2307  156.0610 C   0  0  1  0  0  0  0  0  0  0  0  0
  150.6177  139.6664  154.8933 O   0  0  0  0  0  0  0  0  0  0  0  0
  152.7950  139.4261  155.8402 C   0  0  0  0  0  0  0  0  0  0  0  0
  153.2674  138.5788  154.8144 O   0  0  0  0  0  0  0  0  0  0  0  0
  155.2732  138.2082  162.3860 H   0  0  0  0  0  0  0  0  0  0  0  0
  154.2020  139.5959  162.4552 H   0  0  0  0  0  0  0  0  0  0  0  0
  155.5467  139.5756  161.3153 H   0  0  0  0  0  0  0  0  0  0  0  0
  150.4829  142.9661  157.3437 H   0  0  0  0  0  0  0  0  0  0  0  0
  149.8218  141.9577  158.6102 H   0  0  0  0  0  0  0  0  0  0  0  0
  149.0693  144.3168  158.8973 H   0  0  0  0  0  0  0  0  0  0  0  0
  150.0216  143.7858  160.2641 H   0  0  0  0  0  0  0  0  0  0  0  0
  150.9825  145.5259  157.9438 H   0  0  0  0  0  0  0  0  0  0  0  0
  150.7905  146.0310  159.6089 H   0  0  0  0  0  0  0  0  0  0  0  0
  153.1944  145.5080  159.0094 H   0  0  0  0  0  0  0  0  0  0  0  0
  152.6017  144.5382  160.3366 H   0  0  0  0  0  0  0  0  0  0  0  0
  153.8336  143.1158  158.6746 H   0  0  0  0  0  0  0  0  0  0  0  0
  152.7658  143.6431  157.4112 H   0  0  0  0  0  0  0  0  0  0  0  0
  149.7948  139.6075  157.6053 H   0  0  0  0  0  0  0  0  0  0  0  0
  150.5431  141.0307  157.0177 H   0  0  0  0  0  0  0  0  0  0  0  0
  151.0730  138.1674  156.1779 H   0  0  0  0  0  0  0  0  0  0  0  0
  150.3694  138.9060  154.3882 H   0  0  0  0  0  0  0  0  0  0  0  0
  153.0073  140.4565  155.5524 H   0  0  0  0  0  0  0  0  0  0  0  0
  153.3518  139.2260  156.7564 H   0  0  0  0  0  0  0  0  0  0  0  0
  154.1851  138.4107  154.9645 H   0  0  0  0  0  0  0  0  0  0  0  0
  1  2  1  0  0  0  0
  1 24  1  0  0  0  0
  1 25  1  0  0  0  0
  1 26  1  0  0  0  0
  2  9  1  0  0  0  0
  2  3  1  0  0  0  0
  3  4  2  0  0  0  0
  3  5  1  0  0  0  0
  5  6  1  0  0  0  0
  6  7  2  0  0  0  0
  6  8  1  0  0  0  0
  8 18  1  0  0  0  0
  8  9  2  0  0  0  0
  9 10  1  0  0  0  0
 10 11  2  0  0  0  0
 11 12  1  0  0  0  0
 11 18  1  0  0  0  0
 12 17  1  0  0  0  0
 12 13  1  0  0  0  0
 13 14  1  0  0  0  0
 13 27  1  0  0  0  0
 13 28  1  0  0  0  0
 14 15  1  0  0  0  0
 14 29  1  0  0  0  0
 14 30  1  0  0  0  0
 15 16  1  0  0  0  0
 15 31  1  0  0  0  0
 15 32  1  0  0  0  0
 16 17  1  0  0  0  0
 16 33  1  0  0  0  0
 16 34  1  0  0  0  0
 17 35  1  0  0  0  0
 17 36  1  0  0  0  0
 18 19  1  0  0  0  0
 19 20  1  0  0  0  0
 19 37  1  0  0  0  0
 19 38  1  0  0  0  0
 20 21  1  0  0  0  0
 20 22  1  0  0  0  0
 20 39  1  0  0  0  0
 21 40  1  0  0  0  0
 22 23  1  0  0  0  0
 22 41  1  0  0  0  0
 22 42  1  0  0  0  0
 23 43  1  0  0  0  0
M  CHG  1   5  -1
M  END
> <s_m_source_file>
AV-unprocessed.smi

> <i_m_source_file_index>
2559

> <i_lp_mmshare_version>
43012

> <i_f3d_flags>
0

> <s_epik_input>
Tz1jMVtuSF1jKD1PKW4oW0NIM10pYyhjMTIpbmMobjJbQ0gyXVtDQEhdKFtPSF0pW0NIMl1bT0hdKU4zW0NIMl1bQ0gyXVtDSDJdW0NIMl1bQ0gyXTM=

> <s_epik_cmdline>
J2VwaWtfcHl0aG9uJywgJy1waCcsICc3LjAnLCAnLXRuJywgJzgnLCAnLW1hJywgJzIwMCcsICctbWV0YWxfYmluZGluZycsICctaW1hZScsICc8aW5maWxlLm1hZT4nLCAnLW9tYWUnLCAnPG91dGZpbGUubWFlPic=

> <r_lp_tautomer_probability>
1

> <r_epik_Ionization_Penalty>
5.90509

> <r_epik_Ionization_Penalty_Charging>
0.0759636

> <r_epik_Ionization_Penalty_Neutral>
5.82913

> <r_epik_State_Penalty>
5.18635

> <r_epik_Charging_Adjusted_Penalty>
5.26231

> <i_epik_Tot_Q>
-1

> <i_epik_Tot_abs_Q>
1

> <r_epik_Metal_State_Penalty>
1.25614

> <b_epik_Metal_Only>
1

> <s_lp_Force_Field>
OPLS_2005

> <r_lp_Energy>
39.3002

> <b_lp_Chiralities_Consistent>
1

> <s_lp_Variant>
AV-unprocessed.smi:2559-4

> <Gold.Version>
5.8.1

> <Gold.Id.Protein>
6NUR|6NUR_protein|mol2

> <Gold.PLP.Fitness>
44.5504

> <Gold.PLP.PLP>
-36.8115

> <Gold.PLP.part.hbond>
-3.0000

> <Gold.PLP.part.metal>
0.0000

> <Gold.PLP.part.buried>
-4.0901

> <Gold.PLP.part.nonpolar>
-29.9196

> <Gold.PLP.part.repulsive>
0.0000

> <Gold.PLP.ligand.clash>
0.0000

> <Gold.PLP.ligand.torsion>
1.0268

> <Gold.PLP.Chemscore.Hbond>
3.0000

> <Gold.PLP.Chemscore.CHOScore>
0.0000

> <Gold.PLP.Chemscore.Metal>
0.0000

> <Gold.Chemscore.Hbonds>
donor molecule, donor type, donor heavy atom, donor atom, acceptor molecule, acceptor atom, score
      P1  H  6896  6908       L1     5  2.00
      P1  H  7989  7998       L1    21  0.81

> <Gold.PLP.Chemscore.Internal.Correction>
0.7925

> <Gold.Rescore>
     Score         DG    S(hbond)    S(metal)    S(lipo)     H(rot)  DE(clash)    DE(int)     intcor
      7.96     -13.45       1.62        0.00      86.10       2.93       2.14       3.35       ----

> <Gold.Chemscore.Fitness>
7.9608

> <Gold.Chemscore.DG>
-13.4534

> <Gold.Chemscore.ZeroCoef>
-5.4800

> <Gold.Chemscore.Hbond>
1.6192

> <Gold.Chemscore.Metal>
0.0000

> <Gold.Chemscore.Lipo>
86.1008

> <Gold.Chemscore.Internal_Hbond>
0.0000

> <Gold.Chemscore.DEClash>
2.1450

> <Gold.Chemscore.DEInternal>
3.3476

> <Gold.Chemscore.Rot>
2.9330

> <Gold.Chemscore.Internal.Correction>
   9.000000E+99

> <Gold.Chemscore.Hbonds>
donor molecule, donor type, donor heavy atom, donor atom, acceptor molecule, acceptor atom, score
      P1  H  6896  6908       L1     5  0.60
      P1  H  7989  7998       L1    21  0.31

> <Gold.Chemscore.Hbond.Weighted>
-5.4080

> <Gold.Chemscore.Metal.Weighted>
-0.0000

> <Gold.Chemscore.Lipo.Weighted>
-10.0738

> <Gold.Chemscore.Internal_Hbond.Weighted>
0.0000

> <Gold.Chemscore.DEClash.Weighted>
2.1450

> <Gold.Chemscore.DEInternal.Weighted>
3.3476

> <Gold.Chemscore.Rot.Weighted>
7.5084

> <Gold.Chemscore.Internal.Correction.Weighted>
   9.000000E+99

> <Gold.Protein.RotatedTorsions>
[ 6907 6896 6895 6894 ] final  -79.53 input  -60.11 | X-H torsion
[ 7974 7965 7964 7962 ] final  114.48 input  175.53 | X-H torsion
[ 8008 7997 7996 7995 ] final -160.28 input   59.86 | X-H torsion
[ 10167 10162 10161 10158 ] final -109.53 input  -65.29 | X-H torsion
[ 10718 10713 10712 10709 ] final  128.52 input   66.30 | X-H torsion
[ 10763 10752 10751 10750 ] final -165.38 input  -60.55 | X-H torsion
[ 11005 11000 10999 10996 ] final   -3.84 input  -57.11 | X-H torsion

> <Gold.Protein.ActiveResidues>
 VAL166  LYS551  ARG553  GLY616  TRP617  ASP618  TYR619  PRO620  LYS621  CYS622 
 ASP623  PHE694  ASN695  SER759  ASP760  ASP761  ALA762  ILE779  LEU786  VAL792 
 PHE793  MET794  SER795  GLU796  ALA797  LYS798  CYS799  TRP800  GLU811  SER814 

> <Gold.Protein.RotatedAtoms>
  150.6948  134.4107  159.5160 H   0  0  0  0  0  0  0  0  0  0  0  0  # atno 6907 bound_to 6896
  152.1866  134.8705  160.0530 H   0  0  0  0  0  0  0  0  0  0  0  0  # atno 6908 bound_to 6896
  151.9676  133.3680  159.4096 H   0  0  0  0  0  0  0  0  0  0  0  0  # atno 6909 bound_to 6896
  145.2039  139.2938  143.4303 H   0  0  0  0  0  0  0  0  0  0  0  0  # atno 7974 bound_to 7965
  155.7751  140.0857  157.2088 H   0  0  0  0  0  0  0  0  0  0  0  0  # atno 8008 bound_to 7997
  154.3993  140.1518  156.3045 H   0  0  0  0  0  0  0  0  0  0  0  0  # atno 8009 bound_to 7997
  155.8708  140.3425  155.5823 H   0  0  0  0  0  0  0  0  0  0  0  0  # atno 8010 bound_to 7997
  140.1543  143.4173  152.1472 H   0  0  0  0  0  0  0  0  0  0  0  0  # atno 10167 bound_to 10162
  157.5237  131.1098  150.9115 H   0  0  0  0  0  0  0  0  0  0  0  0  # atno 10718 bound_to 10713
  154.6937  135.2975  154.9442 H   0  0  0  0  0  0  0  0  0  0  0  0  # atno 10763 bound_to 10752
  154.0396  135.6659  153.4793 H   0  0  0  0  0  0  0  0  0  0  0  0  # atno 10764 bound_to 10752
  153.0631  135.5104  154.8044 H   0  0  0  0  0  0  0  0  0  0  0  0  # atno 10765 bound_to 10752
  140.6737  133.9214  155.8511 H   0  0  0  0  0  0  0  0  0  0  0  0  # atno 11005 bound_to 11000
  146.3412  140.2293  142.8593 LP  0  0  0  0  0  0  0  0  0  0  0  0  # atno 17320 bound_to 7965
  144.9921  140.8556  143.5333 LP  0  0  0  0  0  0  0  0  0  0  0  0  # atno 17321 bound_to 7965
  139.5411  144.7257  151.4732 LP  0  0  0  0  0  0  0  0  0  0  0  0  # atno 17342 bound_to 10162
  140.6683  143.8350  150.6968 LP  0  0  0  0  0  0  0  0  0  0  0  0  # atno 17343 bound_to 10162
  156.9718  130.5493  149.5291 LP  0  0  0  0  0  0  0  0  0  0  0  0  # atno 17370 bound_to 10713
  156.0371  130.5458  150.8681 LP  0  0  0  0  0  0  0  0  0  0  0  0  # atno 17371 bound_to 10713
  141.0372  134.0673  157.3945 LP  0  0  0  0  0  0  0  0  0  0  0  0  # atno 17394 bound_to 11000
  139.8973  135.0150  156.7095 LP  0  0  0  0  0  0  0  0  0  0  0  0  # atno 17395 bound_to 11000

$$$$
