AV-unprocessed.smi:25|AV-procd|sdf|181|dock3
  -GOLD-   2262015443D 1   1.00000     0.00000
 Structure written by MMmdl.
 47 50  0  0  0  0  0  0  0  0  1 V2000
  150.3380  141.6232  155.9057 C   0  0  0  0  0  0  0  0  0  0  0  0
  150.1177  141.5291  157.4286 C   0  0  2  0  0  0  0  0  0  0  0  0
  150.7979  142.7014  158.1709 C   0  0  0  0  0  0  0  0  0  0  0  0
  151.8594  142.0224  158.9800 C   0  0  0  0  0  0  0  0  0  0  0  0
  152.8364  142.6610  159.7633 C   0  0  0  0  0  0  0  0  0  0  0  0
  153.7821  141.8614  160.4353 C   0  0  0  0  0  0  0  0  0  0  0  0
  153.7419  140.4559  160.3054 C   0  0  0  0  0  0  0  0  0  0  0  0
  152.7535  139.8316  159.5130 C   0  0  0  0  0  0  0  0  0  0  0  0
  151.7916  140.6356  158.8551 C   0  0  0  0  0  0  0  0  0  0  0  0
  150.7019  140.2928  157.9983 N   0  0  0  0  0  0  0  0  0  0  0  0
  150.0989  139.0884  157.7978 C   0  0  0  0  0  0  0  0  0  0  0  0
  149.0841  138.9958  157.1024 O   0  0  0  0  0  0  0  0  0  0  0  0
  150.6404  137.8028  158.4530 C   0  0  0  0  0  0  0  0  0  0  0  0
  149.6639  136.6882  158.4761 N   0  0  0  0  0  0  0  0  0  0  0  0
  149.6373  135.7840  157.3852 C   0  0  0  0  0  0  0  0  0  0  0  0
  150.3924  135.9204  156.4214 O   0  0  0  0  0  0  0  0  0  0  0  0
  148.6690  134.6999  157.4914 C   0  0  0  0  0  0  0  0  0  0  0  0
  148.6160  133.7584  156.5341 F   0  0  0  0  0  0  0  0  0  0  0  0
  147.8341  134.6149  158.5471 C   0  0  0  0  0  0  0  0  0  0  0  0
  147.8170  135.5453  159.5713 N   0  0  0  0  0  0  0  0  0  0  0  0
  146.9274  135.3759  160.7864 C   0  0  1  0  0  0  0  0  0  0  0  0
  147.6909  135.1078  162.0954 C   0  0  0  0  0  0  0  0  0  0  0  0
  147.5939  136.4435  162.8064 C   0  0  0  0  0  0  0  0  0  0  0  0
  146.2491  136.9579  162.3088 C   0  0  0  0  0  0  0  0  0  0  0  0
  146.2049  136.5605  160.9445 O   0  0  0  0  0  0  0  0  0  0  0  0
  148.7799  136.5804  159.5775 C   0  0  0  0  0  0  0  0  0  0  0  0
  148.8436  137.3783  160.5154 O   0  0  0  0  0  0  0  0  0  0  0  0
  149.9508  142.5646  155.5153 H   0  0  0  0  0  0  0  0  0  0  0  0
  149.8324  140.8210  155.3689 H   0  0  0  0  0  0  0  0  0  0  0  0
  151.3985  141.5719  155.6566 H   0  0  0  0  0  0  0  0  0  0  0  0
  149.0463  141.5643  157.6358 H   0  0  0  0  0  0  0  0  0  0  0  0
  151.2370  143.4367  157.4955 H   0  0  0  0  0  0  0  0  0  0  0  0
  150.1005  143.2133  158.8349 H   0  0  0  0  0  0  0  0  0  0  0  0
  152.8664  143.7377  159.8432 H   0  0  0  0  0  0  0  0  0  0  0  0
  154.5457  142.3248  161.0422 H   0  0  0  0  0  0  0  0  0  0  0  0
  154.4792  139.8518  160.8131 H   0  0  0  0  0  0  0  0  0  0  0  0
  152.7884  138.7602  159.4346 H   0  0  0  0  0  0  0  0  0  0  0  0
  151.5382  137.4964  157.9163 H   0  0  0  0  0  0  0  0  0  0  0  0
  150.9640  138.0301  159.4690 H   0  0  0  0  0  0  0  0  0  0  0  0
  147.1615  133.7729  158.5750 H   0  0  0  0  0  0  0  0  0  0  0  0
  146.2624  134.5406  160.5623 H   0  0  0  0  0  0  0  0  0  0  0  0
  147.1418  134.3515  162.6576 H   0  0  0  0  0  0  0  0  0  0  0  0
  148.7046  134.7385  161.9415 H   0  0  0  0  0  0  0  0  0  0  0  0
  147.6393  136.3538  163.8919 H   0  0  0  0  0  0  0  0  0  0  0  0
  148.3932  137.1121  162.4865 H   0  0  0  0  0  0  0  0  0  0  0  0
  145.4310  136.4769  162.8473 H   0  0  0  0  0  0  0  0  0  0  0  0
  146.1431  138.0375  162.4167 H   0  0  0  0  0  0  0  0  0  0  0  0
  1  2  1  0  0  0  0
  1 28  1  0  0  0  0
  1 29  1  0  0  0  0
  1 30  1  0  0  0  0
  2 10  1  0  0  0  0
  2  3  1  0  0  0  0
  2 31  1  0  0  0  0
  3  4  1  0  0  0  0
  3 32  1  0  0  0  0
  3 33  1  0  0  0  0
  4  9  2  0  0  0  0
  4  5  1  0  0  0  0
  5  6  2  0  0  0  0
  5 34  1  0  0  0  0
  6  7  1  0  0  0  0
  6 35  1  0  0  0  0
  7  8  2  0  0  0  0
  7 36  1  0  0  0  0
  8  9  1  0  0  0  0
  8 37  1  0  0  0  0
  9 10  1  0  0  0  0
 10 11  1  0  0  0  0
 11 12  2  0  0  0  0
 11 13  1  0  0  0  0
 13 14  1  0  0  0  0
 13 38  1  0  0  0  0
 13 39  1  0  0  0  0
 14 26  1  0  0  0  0
 14 15  1  0  0  0  0
 15 16  2  0  0  0  0
 15 17  1  0  0  0  0
 17 18  1  0  0  0  0
 17 19  2  0  0  0  0
 19 20  1  0  0  0  0
 19 40  1  0  0  0  0
 20 21  1  0  0  0  0
 20 26  1  0  0  0  0
 21 25  1  0  0  0  0
 21 22  1  0  0  0  0
 21 41  1  0  0  0  0
 22 23  1  0  0  0  0
 22 42  1  0  0  0  0
 22 43  1  0  0  0  0
 23 24  1  0  0  0  0
 23 44  1  0  0  0  0
 23 45  1  0  0  0  0
 24 25  1  0  0  0  0
 24 46  1  0  0  0  0
 24 47  1  0  0  0  0
 26 27  2  0  0  0  0
M  END
> <s_m_source_file>
AV-unprocessed.smi

> <i_m_source_file_index>
25

> <i_lp_mmshare_version>
43012

> <i_f3d_flags>
0

> <s_epik_input>
W2NIXTFbY0hdW2NIXVtjSF1jKGMxMilOKFtDQEhdKFtDSDNdKVtDSDJdMilDKD1PKVtDSDJdbjNjKD1PKWMoRilbY0hdbihjMz1PKVtDQEBIXTRbQ0gyXVtDSDJdW0NIMl1PNA==

> <s_epik_cmdline>
J2VwaWtfcHl0aG9uJywgJy1waCcsICc3LjAnLCAnLXRuJywgJzgnLCAnLW1hJywgJzIwMCcsICctbWV0YWxfYmluZGluZycsICctaW1hZScsICc8aW5maWxlLm1hZT4nLCAnLW9tYWUnLCAnPG91dGZpbGUubWFlPic=

> <r_lp_tautomer_probability>
1

> <r_epik_Ionization_Penalty>
1.67943e-06

> <r_epik_Ionization_Penalty_Charging>
3.79603e-09

> <r_epik_Ionization_Penalty_Neutral>
1.67563e-06

> <r_epik_State_Penalty>
-0

> <r_epik_Charging_Adjusted_Penalty>
3.79603e-09

> <i_epik_Tot_Q>
0

> <i_epik_Tot_abs_Q>
0

> <r_epik_Metal_State_Penalty>
-0

> <b_epik_Metal_Only>
0

> <s_epik_Chemistry_Notes>
This compound contains an acetal/aminal-like group ( X-CH(R)-Y where X, Y are N, S, or O) that may be acid/base labile, releasing an aldehyde.

> <s_lp_Force_Field>
OPLS_2005

> <r_lp_Energy>
54.5982

> <b_lp_Chiralities_Consistent>
1

> <s_lp_Variant>
AV-unprocessed.smi:25-3

> <Gold.Version>
5.8.1

> <Gold.Id.Protein>
6NUR|6NUR_protein|mol2

> <Gold.PLP.Fitness>
47.1879

> <Gold.PLP.PLP>
-46.4801

> <Gold.PLP.part.hbond>
-1.5186

> <Gold.PLP.part.metal>
0.0000

> <Gold.PLP.part.buried>
-5.7884

> <Gold.PLP.part.nonpolar>
-39.2175

> <Gold.PLP.part.repulsive>
0.0035

> <Gold.PLP.ligand.clash>
0.0000

> <Gold.PLP.ligand.torsion>
0.6749

> <Gold.PLP.Chemscore.Hbond>
0.6504

> <Gold.PLP.Chemscore.CHOScore>
0.0000

> <Gold.PLP.Chemscore.Metal>
0.0000

> <Gold.Chemscore.Hbonds>
donor molecule, donor type, donor heavy atom, donor atom, acceptor molecule, acceptor atom, score
      P1  H  6931  6943       L1    27  0.58
      P1  H  6934  6947       L1    27  0.07

> <Gold.PLP.Chemscore.Internal.Correction>
0.1065

> <Gold.Rescore>
     Score         DG    S(hbond)    S(metal)    S(lipo)     H(rot)  DE(clash)    DE(int)     intcor
     14.83     -15.75       0.73        0.00     100.71       1.55       0.02       0.89       ----

> <Gold.Chemscore.Fitness>
14.8348

> <Gold.Chemscore.DG>
-15.7499

> <Gold.Chemscore.ZeroCoef>
-5.4800

> <Gold.Chemscore.Hbond>
0.7341

> <Gold.Chemscore.Metal>
0.0000

> <Gold.Chemscore.Lipo>
100.7092

> <Gold.Chemscore.Internal_Hbond>
0.0000

> <Gold.Chemscore.DEClash>
0.0231

> <Gold.Chemscore.DEInternal>
0.8919

> <Gold.Chemscore.Rot>
1.5489

> <Gold.Chemscore.Internal.Correction>
   9.000000E+99

> <Gold.Chemscore.Hbonds>
donor molecule, donor type, donor heavy atom, donor atom, acceptor molecule, acceptor atom, score
      P1  H  6931  6943       L1    27  0.58
      P1  H  6934  6947       L1    27  0.08

> <Gold.Chemscore.Hbond.Weighted>
-2.4521

> <Gold.Chemscore.Metal.Weighted>
-0.0000

> <Gold.Chemscore.Lipo.Weighted>
-11.7830

> <Gold.Chemscore.Internal_Hbond.Weighted>
0.0000

> <Gold.Chemscore.DEClash.Weighted>
0.0231

> <Gold.Chemscore.DEInternal.Weighted>
0.8919

> <Gold.Chemscore.Rot.Weighted>
3.9651

> <Gold.Chemscore.Internal.Correction.Weighted>
   9.000000E+99

> <Gold.Protein.RotatedTorsions>
[ 6907 6896 6895 6894 ] final -159.61 input  -60.11 | X-H torsion
[ 7974 7965 7964 7962 ] final  -21.68 input  175.53 | X-H torsion
[ 8008 7997 7996 7995 ] final  117.11 input   59.86 | X-H torsion
[ 10167 10162 10161 10158 ] final   77.86 input  -65.29 | X-H torsion
[ 10718 10713 10712 10709 ] final -151.03 input   66.30 | X-H torsion
[ 10763 10752 10751 10750 ] final  -44.89 input  -60.55 | X-H torsion
[ 11005 11000 10999 10996 ] final  157.89 input  -57.11 | X-H torsion

> <Gold.Protein.ActiveResidues>
 VAL166  LYS551  ARG553  GLY616  TRP617  ASP618  TYR619  PRO620  LYS621  CYS622 
 ASP623  PHE694  ASN695  SER759  ASP760  ASP761  ALA762  ILE779  LEU786  VAL792 
 PHE793  MET794  SER795  GLU796  ALA797  LYS798  CYS799  TRP800  GLU811  SER814 

> <Gold.Protein.RotatedAtoms>
  151.3363  133.3980  159.2666 H   0  0  0  0  0  0  0  0  0  0  0  0  # atno 6907 bound_to 6896
  150.9914  134.9249  159.7912 H   0  0  0  0  0  0  0  0  0  0  0  0  # atno 6908 bound_to 6896
  152.5248  134.3327  159.9241 H   0  0  0  0  0  0  0  0  0  0  0  0  # atno 6909 bound_to 6896
  146.1719  140.4374  142.8529 H   0  0  0  0  0  0  0  0  0  0  0  0  # atno 7974 bound_to 7965
  156.2476  140.2903  156.0627 H   0  0  0  0  0  0  0  0  0  0  0  0  # atno 8008 bound_to 7997
  155.1758  140.0403  157.2889 H   0  0  0  0  0  0  0  0  0  0  0  0  # atno 8009 bound_to 7997
  154.6294  140.2495  155.7459 H   0  0  0  0  0  0  0  0  0  0  0  0  # atno 8010 bound_to 7997
  139.9770  144.5853  150.7934 H   0  0  0  0  0  0  0  0  0  0  0  0  # atno 10167 bound_to 10162
  156.4539  130.8181  151.2412 H   0  0  0  0  0  0  0  0  0  0  0  0  # atno 10718 bound_to 10713
  154.0195  135.6671  153.4771 H   0  0  0  0  0  0  0  0  0  0  0  0  # atno 10763 bound_to 10752
  153.0586  135.5041  154.8036 H   0  0  0  0  0  0  0  0  0  0  0  0  # atno 10764 bound_to 10752
  154.6946  135.3067  154.9395 H   0  0  0  0  0  0  0  0  0  0  0  0  # atno 10765 bound_to 10752
  140.1813  134.8473  157.2806 H   0  0  0  0  0  0  0  0  0  0  0  0  # atno 11005 bound_to 11000
  144.8176  140.6495  143.6374 LP  0  0  0  0  0  0  0  0  0  0  0  0  # atno 17320 bound_to 7965
  145.4317  139.1548  143.4019 LP  0  0  0  0  0  0  0  0  0  0  0  0  # atno 17321 bound_to 7965
  140.7502  143.2952  151.3225 LP  0  0  0  0  0  0  0  0  0  0  0  0  # atno 17342 bound_to 10162
  139.6438  144.0490  152.2575 LP  0  0  0  0  0  0  0  0  0  0  0  0  # atno 17343 bound_to 10162
  157.7501  131.0129  150.3402 LP  0  0  0  0  0  0  0  0  0  0  0  0  # atno 17370 bound_to 10713
  156.3787  130.3876  149.7119 LP  0  0  0  0  0  0  0  0  0  0  0  0  # atno 17371 bound_to 10713
  140.2264  134.3961  155.7542 LP  0  0  0  0  0  0  0  0  0  0  0  0  # atno 17394 bound_to 11000
  141.2223  133.7192  156.8572 LP  0  0  0  0  0  0  0  0  0  0  0  0  # atno 17395 bound_to 11000

$$$$
