AV-unprocessed.smi:1484|AV-procd|sdf|6000|dock1
  -GOLD-   22720 6 93D 1   1.00000     0.00000
 Structure written by MMmdl.
 38 39  0  0  0  0  0  0  0  0  1 V2000
  152.9023  142.8975  162.0830 C   0  0  0  0  0  0  0  0  0  0  0  0
  152.2482  143.2440  160.7385 C   0  0  1  0  0  0  0  0  0  0  0  0
  151.8386  144.7280  160.6756 C   0  0  0  0  0  0  0  0  0  0  0  0
  151.1893  145.0816  159.3276 C   0  0  0  0  0  0  0  0  0  0  0  0
  152.1029  144.7087  158.1459 C   0  0  0  0  0  0  0  0  0  0  0  0
  152.5305  143.2288  158.1878 C   0  0  2  0  0  0  0  0  0  0  0  0
  151.3801  142.3705  157.9150 N   0  0  0  0  0  0  0  0  0  0  0  0
  151.4276  141.0594  157.6367 C   0  0  0  0  0  0  0  0  0  0  0  0
  152.4756  140.4302  157.4942 O   0  0  0  0  0  0  0  0  0  0  0  0
  150.0764  140.3494  157.5162 C   0  0  0  0  0  0  0  0  0  0  0  0
  149.3034  140.8861  156.3889 N   0  0  0  0  0  0  0  0  0  0  0  0
  148.0966  141.4598  156.7627 N   0  0  0  0  0  0  0  0  0  0  0  0
  147.2985  141.9281  155.8642 C   0  0  0  0  0  0  0  0  0  0  0  0
  146.1118  142.4800  156.2797 O   0  0  0  0  0  0  0  0  0  0  0  0
  147.6396  141.8752  154.4600 C   0  0  0  0  0  0  0  0  0  0  0  0
  148.8184  141.3188  154.1053 C   0  0  0  0  0  0  0  0  0  0  0  0
  149.7448  140.7718  155.0984 C   0  0  0  0  0  0  0  0  0  0  0  0
  150.8191  140.2509  154.8005 O   0  0  0  0  0  0  0  0  0  0  0  0
  153.1721  142.8920  159.5536 C   0  0  0  0  0  0  0  0  0  0  0  0
  145.9879  143.2446  155.7388 H   0  0  0  0  0  0  0  0  0  0  0  0
  153.8176  143.4694  162.2391 H   0  0  0  0  0  0  0  0  0  0  0  0
  153.1579  141.8387  162.1327 H   0  0  0  0  0  0  0  0  0  0  0  0
  152.2289  143.1122  162.9133 H   0  0  0  0  0  0  0  0  0  0  0  0
  151.3431  142.6401  160.6569 H   0  0  0  0  0  0  0  0  0  0  0  0
  151.1455  144.9585  161.4854 H   0  0  0  0  0  0  0  0  0  0  0  0
  152.7149  145.3586  160.8313 H   0  0  0  0  0  0  0  0  0  0  0  0
  150.2341  144.5633  159.2356 H   0  0  0  0  0  0  0  0  0  0  0  0
  150.9623  146.1476  159.2963 H   0  0  0  0  0  0  0  0  0  0  0  0
  151.6035  144.9317  157.2020 H   0  0  0  0  0  0  0  0  0  0  0  0
  152.9931  145.3383  158.1731 H   0  0  0  0  0  0  0  0  0  0  0  0
  153.2680  143.0643  157.4000 H   0  0  0  0  0  0  0  0  0  0  0  0
  150.4693  142.7971  158.0039 H   0  0  0  0  0  0  0  0  0  0  0  0
  150.2328  139.2763  157.3892 H   0  0  0  0  0  0  0  0  0  0  0  0
  149.5301  140.4532  158.4552 H   0  0  0  0  0  0  0  0  0  0  0  0
  146.9615  142.2741  153.7198 H   0  0  0  0  0  0  0  0  0  0  0  0
  149.0857  141.2732  153.0599 H   0  0  0  0  0  0  0  0  0  0  0  0
  154.1077  143.4446  159.6503 H   0  0  0  0  0  0  0  0  0  0  0  0
  153.4463  141.8374  159.5942 H   0  0  0  0  0  0  0  0  0  0  0  0
  1  2  1  0  0  0  0
  1 21  1  0  0  0  0
  1 22  1  0  0  0  0
  1 23  1  0  0  0  0
  2 19  1  0  0  0  0
  2  3  1  0  0  0  0
  2 24  1  0  0  0  0
  3  4  1  0  0  0  0
  3 25  1  0  0  0  0
  3 26  1  0  0  0  0
  4  5  1  0  0  0  0
  4 27  1  0  0  0  0
  4 28  1  0  0  0  0
  5  6  1  0  0  0  0
  5 29  1  0  0  0  0
  5 30  1  0  0  0  0
  6  7  1  0  0  0  0
  6 19  1  0  0  0  0
  6 31  1  0  0  0  0
  7  8  1  0  0  0  0
  7 32  1  0  0  0  0
  8  9  2  0  0  0  0
  8 10  1  0  0  0  0
 10 33  1  0  0  0  0
 10 34  1  0  0  0  0
 10 11  1  0  0  0  0
 11 12  1  0  0  0  0
 11 17  1  0  0  0  0
 12 13  2  0  0  0  0
 13 14  1  0  0  0  0
 13 15  1  0  0  0  0
 14 20  1  0  0  0  0
 15 35  1  0  0  0  0
 15 16  2  0  0  0  0
 16 36  1  0  0  0  0
 16 17  1  0  0  0  0
 17 18  2  0  0  0  0
 19 37  1  0  0  0  0
 19 38  1  0  0  0  0
M  END
> <s_m_source_file>
AV-unprocessed.smi

> <i_m_source_file_index>
1484

> <i_lp_mmshare_version>
43012

> <i_f3d_flags>
0

> <s_epik_input>
W0NIM11bQ0BASF0xW0NIMl1bQ0gyXVtDSDJdW0NASF0oW0NIMl0xKVtOSF1DKD1PKVtDSDJdbjJbbkhdYyg9TylbY0hdW2NIXWMyPU8=

> <s_epik_cmdline>
J2VwaWtfcHl0aG9uJywgJy1waCcsICc3LjAnLCAnLXRuJywgJzgnLCAnLW1hJywgJzIwMCcsICctbWV0YWxfYmluZGluZycsICctaW1hZScsICc8aW5maWxlLm1hZT4nLCAnLW9tYWUnLCAnPG91dGZpbGUubWFlPic=

> <r_lp_tautomer_probability>
0.9996

> <r_epik_Ionization_Penalty>
2.10343

> <r_epik_Ionization_Penalty_Charging>
3.97871e-08

> <r_epik_Ionization_Penalty_Neutral>
2.10343

> <r_epik_State_Penalty>
1.67966

> <r_epik_Charging_Adjusted_Penalty>
1.67966

> <i_epik_Tot_Q>
0

> <i_epik_Tot_abs_Q>
0

> <r_epik_Metal_State_Penalty>
1.67966

> <b_epik_Metal_Only>
0

> <s_lp_Force_Field>
OPLS_2005

> <r_lp_Energy>
21.1153

> <b_lp_Chiralities_Consistent>
1

> <s_lp_Variant>
AV-unprocessed.smi:1484-8

> <Gold.Version>
5.8.1

> <Gold.Id.Protein>
6NUR|6NUR_protein|mol2

> <Gold.PLP.Fitness>
48.7031

> <Gold.PLP.PLP>
-43.4727

> <Gold.PLP.part.hbond>
-2.0000

> <Gold.PLP.part.metal>
0.0000

> <Gold.PLP.part.buried>
-2.7302

> <Gold.PLP.part.nonpolar>
-36.4695

> <Gold.PLP.part.repulsive>
0.2180

> <Gold.PLP.ligand.clash>
0.0000

> <Gold.PLP.ligand.torsion>
0.1354

> <Gold.PLP.Chemscore.Hbond>
1.8299

> <Gold.PLP.Chemscore.CHOScore>
0.0000

> <Gold.PLP.Chemscore.Metal>
0.0000

> <Gold.Chemscore.Hbonds>
donor molecule, donor type, donor heavy atom, donor atom, acceptor molecule, acceptor atom, score
      P1  H  7989  7998       L1    18  1.00
      P1  H  7997  8009       L1     9  0.76

> <Gold.PLP.Chemscore.Internal.Correction>
0.0113

> <Gold.Rescore>
     Score         DG    S(hbond)    S(metal)    S(lipo)     H(rot)  DE(clash)    DE(int)     intcor
     17.00     -17.76       1.81        0.00     102.28       2.24       0.58       0.18       ----

> <Gold.Chemscore.Fitness>
16.9990

> <Gold.Chemscore.DG>
-17.7591

> <Gold.Chemscore.ZeroCoef>
-5.4800

> <Gold.Chemscore.Hbond>
1.8121

> <Gold.Chemscore.Metal>
0.0000

> <Gold.Chemscore.Lipo>
102.2773

> <Gold.Chemscore.Internal_Hbond>
0.0000

> <Gold.Chemscore.DEClash>
0.5754

> <Gold.Chemscore.DEInternal>
0.1847

> <Gold.Chemscore.Rot>
2.2421

> <Gold.Chemscore.Internal.Correction>
   9.000000E+99

> <Gold.Chemscore.Hbonds>
donor molecule, donor type, donor heavy atom, donor atom, acceptor molecule, acceptor atom, score
      P1  H  7989  7998       L1    18  0.94
      P1  H  7997  8009       L1     9  0.74

> <Gold.Chemscore.Hbond.Weighted>
-6.0525

> <Gold.Chemscore.Metal.Weighted>
-0.0000

> <Gold.Chemscore.Lipo.Weighted>
-11.9664

> <Gold.Chemscore.Internal_Hbond.Weighted>
0.0000

> <Gold.Chemscore.DEClash.Weighted>
0.5754

> <Gold.Chemscore.DEInternal.Weighted>
0.1847

> <Gold.Chemscore.Rot.Weighted>
5.7398

> <Gold.Chemscore.Internal.Correction.Weighted>
   9.000000E+99

> <Gold.Protein.RotatedTorsions>
[ 6907 6896 6895 6894 ] final   77.31 input  -60.11 | X-H torsion
[ 7974 7965 7964 7962 ] final  -21.54 input  175.53 | X-H torsion
[ 8008 7997 7996 7995 ] final  174.56 input   59.86 | X-H torsion
[ 10167 10162 10161 10158 ] final   -2.57 input  -65.29 | X-H torsion
[ 10718 10713 10712 10709 ] final -148.20 input   66.30 | X-H torsion
[ 10763 10752 10751 10750 ] final   76.42 input  -60.55 | X-H torsion
[ 11005 11000 10999 10996 ] final   43.22 input  -57.11 | X-H torsion

> <Gold.Protein.ActiveResidues>
 VAL166  LYS551  ARG553  GLY616  TRP617  ASP618  TYR619  PRO620  LYS621  CYS622 
 ASP623  PHE694  ASN695  SER759  ASP760  ASP761  ALA762  ILE779  LEU786  VAL792 
 PHE793  MET794  SER795  GLU796  ALA797  LYS798  CYS799  TRP800  GLU811  SER814 

> <Gold.Protein.RotatedAtoms>
  152.5112  134.3836  159.9359 H   0  0  0  0  0  0  0  0  0  0  0  0  # atno 6907 bound_to 6896
  151.3793  133.3820  159.2716 H   0  0  0  0  0  0  0  0  0  0  0  0  # atno 6908 bound_to 6896
  150.9517  134.8936  159.7734 H   0  0  0  0  0  0  0  0  0  0  0  0  # atno 6909 bound_to 6896
  146.1727  140.4354  142.8526 H   0  0  0  0  0  0  0  0  0  0  0  0  # atno 7974 bound_to 7965
  156.0961  140.1431  156.9529 H   0  0  0  0  0  0  0  0  0  0  0  0  # atno 8008 bound_to 7997
  154.4672  140.0922  156.7098 H   0  0  0  0  0  0  0  0  0  0  0  0  # atno 8009 bound_to 7997
  155.4838  140.3446  155.4346 H   0  0  0  0  0  0  0  0  0  0  0  0  # atno 8010 bound_to 7997
  140.6856  143.6642  150.8240 H   0  0  0  0  0  0  0  0  0  0  0  0  # atno 10167 bound_to 10162
  156.4173  130.8011  151.2232 H   0  0  0  0  0  0  0  0  0  0  0  0  # atno 10718 bound_to 10713
  153.0724  135.4952  154.8334 H   0  0  0  0  0  0  0  0  0  0  0  0  # atno 10763 bound_to 10752
  154.7041  135.3007  154.9299 H   0  0  0  0  0  0  0  0  0  0  0  0  # atno 10764 bound_to 10752
  154.0013  135.6766  153.4812 H   0  0  0  0  0  0  0  0  0  0  0  0  # atno 10765 bound_to 10752
  140.1665  134.4275  155.8284 H   0  0  0  0  0  0  0  0  0  0  0  0  # atno 11005 bound_to 11000
  144.8188  140.6514  143.6366 LP  0  0  0  0  0  0  0  0  0  0  0  0  # atno 17320 bound_to 7965
  145.4296  139.1551  143.4030 LP  0  0  0  0  0  0  0  0  0  0  0  0  # atno 17321 bound_to 7965
  140.0348  143.5406  152.2744 LP  0  0  0  0  0  0  0  0  0  0  0  0  # atno 17342 bound_to 10162
  139.6212  144.7629  151.2737 LP  0  0  0  0  0  0  0  0  0  0  0  0  # atno 17343 bound_to 10162
  157.7508  131.0239  150.3854 LP  0  0  0  0  0  0  0  0  0  0  0  0  # atno 17370 bound_to 10713
  156.4164  130.3944  149.6855 LP  0  0  0  0  0  0  0  0  0  0  0  0  # atno 17371 bound_to 10713
  141.2214  133.6937  156.7687 LP  0  0  0  0  0  0  0  0  0  0  0  0  # atno 17394 bound_to 11000
  140.2428  134.8601  157.3590 LP  0  0  0  0  0  0  0  0  0  0  0  0  # atno 17395 bound_to 11000

$$$$
