AV-unprocessed.smi:2277|AV-procd|sdf|9178|dock8
  -GOLD-   2272012393D 1   1.00000     0.00000
 Structure written by MMmdl.
 37 38  0  0  0  0  0  0  0  0  1 V2000
  152.1848  145.4266  159.4337 C   0  0  0  0  0  0  0  0  0  0  0  0
  152.0504  144.0270  158.8712 C   0  0  0  0  0  0  0  0  0  0  0  0
  152.6761  142.9277  159.4894 C   0  0  0  0  0  0  0  0  0  0  0  0
  152.5162  141.6487  158.9219 C   0  0  0  0  0  0  0  0  0  0  0  0
  151.7370  141.4986  157.7526 C   0  0  0  0  0  0  0  0  0  0  0  0
  151.6374  140.1691  157.2629 N   0  0  0  0  0  0  0  0  0  0  0  0
  151.2680  139.7614  156.0358 C   0  0  0  0  0  0  0  0  0  0  0  0
  150.9633  140.5009  155.0997 O   0  0  0  0  0  0  0  0  0  0  0  0
  151.2624  138.4224  155.9497 N   0  0  0  0  0  0  0  0  0  0  0  0
  150.9043  137.6540  154.7563 C   0  0  0  0  0  0  0  0  0  0  0  0
  150.4923  136.1962  155.0198 C   0  0  0  0  0  0  0  0  0  0  0  0
  151.3158  135.4218  155.5056 O   0  0  0  0  0  0  0  0  0  0  0  0
  149.2411  135.8208  154.7091 N   0  0  0  0  0  0  0  0  0  0  0  0
  148.7100  134.4776  154.8808 C   0  0  0  0  0  0  0  0  0  0  0  0
  149.3356  133.4508  153.9609 C   0  0  0  0  0  0  0  0  0  0  0  0
  148.6119  132.9918  152.7170 C   0  0  0  0  0  0  0  0  0  0  0  0
  148.7898  132.0445  153.8800 C   0  0  0  0  0  0  0  0  0  0  0  0
  151.1377  142.5642  157.1650 N   0  0  0  0  0  0  0  0  0  0  0  0
  151.2915  143.7896  157.7092 C   0  0  0  0  0  0  0  0  0  0  0  0
  152.8290  145.4408  160.3133 H   0  0  0  0  0  0  0  0  0  0  0  0
  151.2068  145.8137  159.7203 H   0  0  0  0  0  0  0  0  0  0  0  0
  152.6135  146.0947  158.6862 H   0  0  0  0  0  0  0  0  0  0  0  0
  153.2688  143.0571  160.3832 H   0  0  0  0  0  0  0  0  0  0  0  0
  152.9895  140.7942  159.3833 H   0  0  0  0  0  0  0  0  0  0  0  0
  151.8669  139.4446  157.9266 H   0  0  0  0  0  0  0  0  0  0  0  0
  151.5254  137.8914  156.7668 H   0  0  0  0  0  0  0  0  0  0  0  0
  150.1016  138.1577  154.2151 H   0  0  0  0  0  0  0  0  0  0  0  0
  151.7669  137.6486  154.0896 H   0  0  0  0  0  0  0  0  0  0  0  0
  148.6234  136.5106  154.3068 H   0  0  0  0  0  0  0  0  0  0  0  0
  148.8474  134.1636  155.9171 H   0  0  0  0  0  0  0  0  0  0  0  0
  147.6353  134.4952  154.6942 H   0  0  0  0  0  0  0  0  0  0  0  0
  150.4149  133.5523  153.8629 H   0  0  0  0  0  0  0  0  0  0  0  0
  147.6122  133.3827  152.5373 H   0  0  0  0  0  0  0  0  0  0  0  0
  149.2092  132.8111  151.8256 H   0  0  0  0  0  0  0  0  0  0  0  0
  149.5071  131.2346  153.7652 H   0  0  0  0  0  0  0  0  0  0  0  0
  147.9094  131.8071  154.4743 H   0  0  0  0  0  0  0  0  0  0  0  0
  150.7936  144.6028  157.2017 H   0  0  0  0  0  0  0  0  0  0  0  0
  1  2  1  0  0  0  0
  1 20  1  0  0  0  0
  1 21  1  0  0  0  0
  1 22  1  0  0  0  0
  2 19  1  0  0  0  0
  2  3  2  0  0  0  0
  3  4  1  0  0  0  0
  3 23  1  0  0  0  0
  4  5  2  0  0  0  0
  4 24  1  0  0  0  0
  5  6  1  0  0  0  0
  5 18  1  0  0  0  0
  6  7  1  0  0  0  0
  6 25  1  0  0  0  0
  7  8  2  0  0  0  0
  7  9  1  0  0  0  0
  9 10  1  0  0  0  0
  9 26  1  0  0  0  0
 10 11  1  0  0  0  0
 10 27  1  0  0  0  0
 10 28  1  0  0  0  0
 11 12  2  0  0  0  0
 11 13  1  0  0  0  0
 13 14  1  0  0  0  0
 13 29  1  0  0  0  0
 14 15  1  0  0  0  0
 14 30  1  0  0  0  0
 14 31  1  0  0  0  0
 15 17  1  0  0  0  0
 15 16  1  0  0  0  0
 15 32  1  0  0  0  0
 16 17  1  0  0  0  0
 16 33  1  0  0  0  0
 16 34  1  0  0  0  0
 17 35  1  0  0  0  0
 17 36  1  0  0  0  0
 18 19  2  0  0  0  0
 19 37  1  0  0  0  0
M  END
> <s_m_source_file>
AV-unprocessed.smi

> <i_m_source_file_index>
2277

> <i_lp_mmshare_version>
43012

> <i_f3d_flags>
0

> <s_epik_input>
W0NIM11jMVtjSF1bY0hdYyhuW2NIXTEpW05IXUMoPU8pW05IXVtDSDJdQyg9TylbTkhdW0NIMl1bQ0hdMltDSDJdW0NIMl0y

> <s_epik_cmdline>
J2VwaWtfcHl0aG9uJywgJy1waCcsICc3LjAnLCAnLXRuJywgJzgnLCAnLW1hJywgJzIwMCcsICctbWV0YWxfYmluZGluZycsICctaW1hZScsICc8aW5maWxlLm1hZT4nLCAnLW9tYWUnLCAnPG91dGZpbGUubWFlPic=

> <r_lp_tautomer_probability>
1

> <r_epik_Ionization_Penalty>
4.99402e-05

> <r_epik_Ionization_Penalty_Charging>
0

> <r_epik_Ionization_Penalty_Neutral>
4.99402e-05

> <r_epik_State_Penalty>
-0

> <r_epik_Charging_Adjusted_Penalty>
0

> <i_epik_Tot_Q>
0

> <i_epik_Tot_abs_Q>
0

> <r_epik_Metal_State_Penalty>
-0

> <b_epik_Metal_Only>
0

> <s_lp_Force_Field>
OPLS_2005

> <r_lp_Energy>
11.1939

> <b_lp_Chiralities_Consistent>
1

> <s_lp_Variant>
AV-unprocessed.smi:2277-1

> <Gold.Version>
5.8.1

> <Gold.Id.Protein>
6NUR|6NUR_protein|mol2

> <Gold.PLP.Fitness>
48.1940

> <Gold.PLP.PLP>
-39.7711

> <Gold.PLP.part.hbond>
-3.0000

> <Gold.PLP.part.metal>
0.0000

> <Gold.PLP.part.buried>
-3.6413

> <Gold.PLP.part.nonpolar>
-32.6115

> <Gold.PLP.part.repulsive>
0.4059

> <Gold.PLP.ligand.clash>
0.0000

> <Gold.PLP.ligand.torsion>
0.5637

> <Gold.PLP.Chemscore.Hbond>
2.0000

> <Gold.PLP.Chemscore.CHOScore>
1.0000

> <Gold.PLP.Chemscore.Metal>
0.0000

> <Gold.Chemscore.Hbonds>
donor molecule, donor type, donor heavy atom, donor atom, acceptor molecule, acceptor atom, score
      P1  H  7989  7998       L1     8  1.00
      P1  H 10752 10764       L1    12  1.00
      L1  C    19    37       P1  8028  1.00

> <Gold.PLP.Chemscore.Internal.Correction>
0.5503

> <Gold.Rescore>
     Score         DG    S(hbond)    S(metal)    S(lipo)     H(rot)  DE(clash)    DE(int)     intcor
     15.99     -17.77       1.90        0.00      90.23       1.81       0.02       1.75       ----

> <Gold.Chemscore.Fitness>
15.9922

> <Gold.Chemscore.DG>
-17.7693

> <Gold.Chemscore.ZeroCoef>
-5.4800

> <Gold.Chemscore.Hbond>
1.9027

> <Gold.Chemscore.Metal>
0.0000

> <Gold.Chemscore.Lipo>
90.2327

> <Gold.Chemscore.Internal_Hbond>
0.0000

> <Gold.Chemscore.DEClash>
0.0234

> <Gold.Chemscore.DEInternal>
1.7537

> <Gold.Chemscore.Rot>
1.8058

> <Gold.Chemscore.Internal.Correction>
   9.000000E+99

> <Gold.Chemscore.Hbonds>
donor molecule, donor type, donor heavy atom, donor atom, acceptor molecule, acceptor atom, score
      P1  H  7989  7998       L1     8  0.94
      P1  H 10752 10764       L1    12  0.75

> <Gold.Chemscore.Hbond.Weighted>
-6.3551

> <Gold.Chemscore.Metal.Weighted>
-0.0000

> <Gold.Chemscore.Lipo.Weighted>
-10.5572

> <Gold.Chemscore.Internal_Hbond.Weighted>
0.0000

> <Gold.Chemscore.DEClash.Weighted>
0.0234

> <Gold.Chemscore.DEInternal.Weighted>
1.7537

> <Gold.Chemscore.Rot.Weighted>
4.6230

> <Gold.Chemscore.Internal.Correction.Weighted>
   9.000000E+99

> <Gold.Protein.RotatedTorsions>
[ 6907 6896 6895 6894 ] final  -31.97 input  -60.11 | X-H torsion
[ 7974 7965 7964 7962 ] final    6.60 input  175.53 | X-H torsion
[ 8008 7997 7996 7995 ] final   62.93 input   59.86 | X-H torsion
[ 10167 10162 10161 10158 ] final   75.39 input  -65.29 | X-H torsion
[ 10718 10713 10712 10709 ] final  -71.10 input   66.30 | X-H torsion
[ 10763 10752 10751 10750 ] final  -56.83 input  -60.55 | X-H torsion
[ 11005 11000 10999 10996 ] final  130.40 input  -57.11 | X-H torsion

> <Gold.Protein.ActiveResidues>
 VAL166  LYS551  ARG553  GLY616  TRP617  ASP618  TYR619  PRO620  LYS621  CYS622 
 ASP623  PHE694  ASN695  SER759  ASP760  ASP761  ALA762  ILE779  LEU786  VAL792 
 PHE793  MET794  SER795  GLU796  ALA797  LYS798  CYS799  TRP800  GLU811  SER814 

> <Gold.Protein.RotatedAtoms>
  151.0850  134.9882  159.8374 H   0  0  0  0  0  0  0  0  0  0  0  0  # atno 6907 bound_to 6896
  152.5423  134.2135  159.8769 H   0  0  0  0  0  0  0  0  0  0  0  0  # atno 6908 bound_to 6896
  151.2167  133.4481  159.2633 H   0  0  0  0  0  0  0  0  0  0  0  0  # atno 6909 bound_to 6896
  146.2433  140.0209  142.8398 H   0  0  0  0  0  0  0  0  0  0  0  0  # atno 7974 bound_to 7965
  155.6222  140.3496  155.4656 H   0  0  0  0  0  0  0  0  0  0  0  0  # atno 8008 bound_to 7997
  156.0070  140.1225  157.0516 H   0  0  0  0  0  0  0  0  0  0  0  0  # atno 8009 bound_to 7997
  154.4267  140.1089  156.5762 H   0  0  0  0  0  0  0  0  0  0  0  0  # atno 8010 bound_to 7997
  140.0035  144.5668  150.7717 H   0  0  0  0  0  0  0  0  0  0  0  0  # atno 10167 bound_to 10162
  156.0378  130.4344  150.2393 H   0  0  0  0  0  0  0  0  0  0  0  0  # atno 10718 bound_to 10713
  154.2128  135.6391  153.5120 H   0  0  0  0  0  0  0  0  0  0  0  0  # atno 10763 bound_to 10752
  152.9986  135.5478  154.6197 H   0  0  0  0  0  0  0  0  0  0  0  0  # atno 10764 bound_to 10752
  154.5638  135.2911  155.0867 H   0  0  0  0  0  0  0  0  0  0  0  0  # atno 10765 bound_to 10752
  139.9670  134.9588  156.9288 H   0  0  0  0  0  0  0  0  0  0  0  0  # atno 11005 bound_to 11000
  145.1242  140.9480  143.4582 LP  0  0  0  0  0  0  0  0  0  0  0  0  # atno 17320 bound_to 7965
  145.0451  139.3228  143.5957 LP  0  0  0  0  0  0  0  0  0  0  0  0  # atno 17321 bound_to 7965
  140.7409  143.2811  151.3595 LP  0  0  0  0  0  0  0  0  0  0  0  0  # atno 17342 bound_to 10162
  139.6255  144.0823  152.2430 LP  0  0  0  0  0  0  0  0  0  0  0  0  # atno 17343 bound_to 10162
  157.0491  131.0057  151.3259 LP  0  0  0  0  0  0  0  0  0  0  0  0  # atno 17370 bound_to 10713
  157.5154  130.7964  149.7750 LP  0  0  0  0  0  0  0  0  0  0  0  0  # atno 17371 bound_to 10713
  140.5375  134.0752  155.7332 LP  0  0  0  0  0  0  0  0  0  0  0  0  # atno 17394 bound_to 11000
  141.1350  133.9238  157.2454 LP  0  0  0  0  0  0  0  0  0  0  0  0  # atno 17395 bound_to 11000

$$$$
