AV-unprocessed.smi:3303|AV-procd|sdf|12658|dock10
  -GOLD-   2272018593D 1   1.00000     0.00000
 Structure written by MMmdl.
 45 46  0  0  0  0  0  0  0  0  3 V2000
  145.7183  135.9500  150.8212 C   0  0  0  0  0  0  0  0  0  0  0  0
  145.1577  134.7279  151.5790 C   0  0  1  0  0  0  0  0  0  0  0  0
  144.0996  133.9855  150.7399 C   0  0  0  0  0  0  0  0  0  0  0  0
  144.7000  133.2774  149.5775 N   0  3  2  0  0  0  0  0  0  0  0  0
  143.6447  132.6998  148.7098 C   0  0  0  0  0  0  0  0  0  0  0  0
  145.7489  132.2968  149.9930 C   0  0  1  0  0  0  0  0  0  0  0  0
  146.4120  131.5940  148.7918 C   0  0  0  0  0  0  0  0  0  0  0  0
  146.8349  132.9831  150.8521 C   0  0  0  0  0  0  0  0  0  0  0  0
  146.2311  133.7273  152.0590 C   0  0  1  0  0  0  0  0  0  0  0  0
  147.2572  134.4023  152.8895 N   0  3  0  0  0  0  0  0  0  0  0  0
  148.3698  133.5452  153.3490 C   0  0  0  0  0  0  0  0  0  0  0  0
  147.8575  132.1639  153.7794 C   0  0  0  0  0  0  0  0  0  0  0  0
  148.9851  131.2430  154.2048 C   0  0  0  0  0  0  0  0  0  0  0  0
  149.8484  131.5992  155.2628 C   0  0  0  0  0  0  0  0  0  0  0  0
  150.8810  130.7079  155.6140 C   0  0  0  0  0  0  0  0  0  0  0  0
  151.0103  129.5031  154.8966 C   0  0  0  0  0  0  0  0  0  0  0  0
  150.0979  129.2415  153.8552 C   0  0  0  0  0  0  0  0  0  0  0  0
  149.1044  130.0894  153.5102 N   0  0  0  0  0  0  0  0  0  0  0  0
  146.2355  135.6654  149.9049 H   0  0  0  0  0  0  0  0  0  0  0  0
  146.4182  136.5182  151.4340 H   0  0  0  0  0  0  0  0  0  0  0  0
  144.9156  136.6329  150.5413 H   0  0  0  0  0  0  0  0  0  0  0  0
  144.6525  135.1172  152.4641 H   0  0  0  0  0  0  0  0  0  0  0  0
  143.5729  133.2609  151.3635 H   0  0  0  0  0  0  0  0  0  0  0  0
  143.3477  134.6958  150.3927 H   0  0  0  0  0  0  0  0  0  0  0  0
  143.1621  131.8491  149.1928 H   0  0  0  0  0  0  0  0  0  0  0  0
  144.0473  132.3733  147.7514 H   0  0  0  0  0  0  0  0  0  0  0  0
  142.8774  133.4418  148.4869 H   0  0  0  0  0  0  0  0  0  0  0  0
  145.2657  131.5322  150.6039 H   0  0  0  0  0  0  0  0  0  0  0  0
  147.2335  130.9562  149.1191 H   0  0  0  0  0  0  0  0  0  0  0  0
  146.8191  132.3152  148.0824 H   0  0  0  0  0  0  0  0  0  0  0  0
  145.7154  130.9483  148.2573 H   0  0  0  0  0  0  0  0  0  0  0  0
  147.5371  132.2239  151.1963 H   0  0  0  0  0  0  0  0  0  0  0  0
  147.4150  133.6725  150.2376 H   0  0  0  0  0  0  0  0  0  0  0  0
  145.7324  132.9951  152.6968 H   0  0  0  0  0  0  0  0  0  0  0  0
  147.6343  135.1865  152.3764 H   0  0  0  0  0  0  0  0  0  0  0  0
  149.0965  133.4352  152.5429 H   0  0  0  0  0  0  0  0  0  0  0  0
  148.8823  134.0200  154.1857 H   0  0  0  0  0  0  0  0  0  0  0  0
  147.1493  132.2681  154.6027 H   0  0  0  0  0  0  0  0  0  0  0  0
  147.3096  131.6944  152.9608 H   0  0  0  0  0  0  0  0  0  0  0  0
  149.7247  132.5307  155.7957 H   0  0  0  0  0  0  0  0  0  0  0  0
  151.5612  130.9442  156.4188 H   0  0  0  0  0  0  0  0  0  0  0  0
  151.7897  128.7958  155.1388 H   0  0  0  0  0  0  0  0  0  0  0  0
  150.1688  128.3282  153.2833 H   0  0  0  0  0  0  0  0  0  0  0  0
  146.7951  134.7561  153.7154 H   0  0  0  0  0  0  0  0  0  0  0  0
  145.1647  133.9828  149.0235 H   0  0  0  0  0  0  0  0  0  0  0  0
  1  2  1  0  0  0  0
  1 19  1  0  0  0  0
  1 20  1  0  0  0  0
  1 21  1  0  0  0  0
  2  9  1  0  0  0  0
  2  3  1  0  0  0  0
  2 22  1  0  0  0  0
  3  4  1  0  0  0  0
  3 23  1  0  0  0  0
  3 24  1  0  0  0  0
  4  5  1  0  0  0  0
  4  6  1  0  0  0  0
  4 45  1  0  0  0  0
  5 25  1  0  0  0  0
  5 26  1  0  0  0  0
  5 27  1  0  0  0  0
  6  7  1  0  0  0  0
  6  8  1  0  0  0  0
  6 28  1  0  0  0  0
  7 29  1  0  0  0  0
  7 30  1  0  0  0  0
  7 31  1  0  0  0  0
  8  9  1  0  0  0  0
  8 32  1  0  0  0  0
  8 33  1  0  0  0  0
  9 10  1  0  0  0  0
  9 34  1  0  0  0  0
 10 11  1  0  0  0  0
 10 35  1  0  0  0  0
 10 44  1  0  0  0  0
 11 12  1  0  0  0  0
 11 36  1  0  0  0  0
 11 37  1  0  0  0  0
 12 13  1  0  0  0  0
 12 38  1  0  0  0  0
 12 39  1  0  0  0  0
 13 18  1  0  0  0  0
 13 14  2  0  0  0  0
 14 15  1  0  0  0  0
 14 40  1  0  0  0  0
 15 16  2  0  0  0  0
 15 41  1  0  0  0  0
 16 17  1  0  0  0  0
 16 42  1  0  0  0  0
 17 18  2  0  0  0  0
 17 43  1  0  0  0  0
M  CHG  1   4   1
M  CHG  1  10   1
M  END
> <s_m_source_file>
AV-unprocessed.smi

> <i_m_source_file_index>
3303

> <i_lp_mmshare_version>
43012

> <i_f3d_flags>
0

> <s_epik_input>
W0NIM11bQ0BASF0xW0NIMl1OKFtDSDNdKVtDQEBIXShbQ0gzXSlbQ0gyXVtDQEhdMVtOSF1bQ0gyXVtDSDJdYzJbY0hdW2NIXVtjSF1bY0hdbjI=

> <s_epik_cmdline>
J2VwaWtfcHl0aG9uJywgJy1waCcsICc3LjAnLCAnLXRuJywgJzgnLCAnLW1hJywgJzIwMCcsICctbWV0YWxfYmluZGluZycsICctaW1hZScsICc8aW5maWxlLm1hZT4nLCAnLW9tYWUnLCAnPG91dGZpbGUubWFlPic=

> <r_epik_Ionization_Penalty>
0.0769462

> <r_epik_Ionization_Penalty_Charging>
0.0759813

> <r_epik_Ionization_Penalty_Neutral>
0.000964829

> <r_epik_State_Penalty>
0.0654373

> <r_epik_Charging_Adjusted_Penalty>
0.141419

> <i_epik_Tot_Q>
2

> <i_epik_Tot_abs_Q>
2

> <r_epik_Metal_State_Penalty>
0.0656439

> <b_epik_Metal_Only>
0

> <s_lp_Force_Field>
OPLS_2005

> <r_lp_Energy>
30.9153

> <b_lp_Chiralities_Consistent>
1

> <s_lp_Variant>
AV-unprocessed.smi:3303-2

> <Gold.Version>
5.8.1

> <Gold.Id.Protein>
6NUR|6NUR_protein|mol2

> <Gold.PLP.Fitness>
47.4739

> <Gold.PLP.PLP>
-35.9105

> <Gold.PLP.part.hbond>
-2.0000

> <Gold.PLP.part.metal>
0.0000

> <Gold.PLP.part.buried>
1.3225

> <Gold.PLP.part.nonpolar>
-34.1166

> <Gold.PLP.part.repulsive>
0.2594

> <Gold.PLP.ligand.clash>
0.0000

> <Gold.PLP.ligand.torsion>
0.1028

> <Gold.PLP.Chemscore.Hbond>
3.0000

> <Gold.PLP.Chemscore.CHOScore>
0.9193

> <Gold.PLP.Chemscore.Metal>
0.0000

> <Gold.Chemscore.Hbonds>
donor molecule, donor type, donor heavy atom, donor atom, acceptor molecule, acceptor atom, score
      L1  H     4    45       P1  7921  1.00
      L1  H    10    35       P1  7948  2.00
      L1  C    17    43       P1 10737  0.91

> <Gold.PLP.Chemscore.Internal.Correction>
0.0111

> <Gold.Rescore>
     Score         DG    S(hbond)    S(metal)    S(lipo)     H(rot)  DE(clash)    DE(int)     intcor
     19.62     -20.41       1.90        0.00     103.38       1.37       0.64       0.14       ----

> <Gold.Chemscore.Fitness>
19.6225

> <Gold.Chemscore.DG>
-20.4063

> <Gold.Chemscore.ZeroCoef>
-5.4800

> <Gold.Chemscore.Hbond>
1.9010

> <Gold.Chemscore.Metal>
0.0000

> <Gold.Chemscore.Lipo>
103.3810

> <Gold.Chemscore.Internal_Hbond>
0.0000

> <Gold.Chemscore.DEClash>
0.6401

> <Gold.Chemscore.DEInternal>
0.1437

> <Gold.Chemscore.Rot>
1.3744

> <Gold.Chemscore.Internal.Correction>
   9.000000E+99

> <Gold.Chemscore.Hbonds>
donor molecule, donor type, donor heavy atom, donor atom, acceptor molecule, acceptor atom, score
      L1  H     4    45       P1  7921  0.94
      L1  H    10    35       P1  7948  0.96

> <Gold.Chemscore.Hbond.Weighted>
-6.3492

> <Gold.Chemscore.Metal.Weighted>
-0.0000

> <Gold.Chemscore.Lipo.Weighted>
-12.0956

> <Gold.Chemscore.Internal_Hbond.Weighted>
0.0000

> <Gold.Chemscore.DEClash.Weighted>
0.6401

> <Gold.Chemscore.DEInternal.Weighted>
0.1437

> <Gold.Chemscore.Rot.Weighted>
3.5185

> <Gold.Chemscore.Internal.Correction.Weighted>
   9.000000E+99

> <Gold.Protein.RotatedTorsions>
[ 6907 6896 6895 6894 ] final  -91.76 input  -60.11 | X-H torsion
[ 7974 7965 7964 7962 ] final -115.99 input  175.53 | X-H torsion
[ 8008 7997 7996 7995 ] final   -5.86 input   59.86 | X-H torsion
[ 10167 10162 10161 10158 ] final  -48.88 input  -65.29 | X-H torsion
[ 10718 10713 10712 10709 ] final  127.59 input   66.30 | X-H torsion
[ 10763 10752 10751 10750 ] final -179.38 input  -60.55 | X-H torsion
[ 11005 11000 10999 10996 ] final -105.94 input  -57.11 | X-H torsion

> <Gold.Protein.ActiveResidues>
 VAL166  LYS551  ARG553  GLY616  TRP617  ASP618  TYR619  PRO620  LYS621  CYS622 
 ASP623  PHE694  ASN695  SER759  ASP760  ASP761  ALA762  ILE779  LEU786  VAL792 
 PHE793  MET794  SER795  GLU796  ALA797  LYS798  CYS799  TRP800  GLU811  SER814 

> <Gold.Protein.RotatedAtoms>
  150.6897  134.2227  159.4402 H   0  0  0  0  0  0  0  0  0  0  0  0  # atno 6907 bound_to 6896
  152.0183  134.9835  160.0579 H   0  0  0  0  0  0  0  0  0  0  0  0  # atno 6908 bound_to 6896
  152.1422  133.4436  159.4809 H   0  0  0  0  0  0  0  0  0  0  0  0  # atno 6909 bound_to 6896
  145.1019  140.8557  143.3921 H   0  0  0  0  0  0  0  0  0  0  0  0  # atno 7974 bound_to 7965
  154.5996  140.2447  155.7810 H   0  0  0  0  0  0  0  0  0  0  0  0  # atno 8008 bound_to 7997
  156.2302  140.2969  156.0122 H   0  0  0  0  0  0  0  0  0  0  0  0  # atno 8009 bound_to 7997
  155.2234  140.0401  157.2942 H   0  0  0  0  0  0  0  0  0  0  0  0  # atno 8010 bound_to 7997
  140.6711  143.2721  151.4135 H   0  0  0  0  0  0  0  0  0  0  0  0  # atno 10167 bound_to 10162
  157.5319  131.1098  150.8995 H   0  0  0  0  0  0  0  0  0  0  0  0  # atno 10718 bound_to 10713
  154.5358  135.2803  155.1140 H   0  0  0  0  0  0  0  0  0  0  0  0  # atno 10763 bound_to 10752
  154.2642  135.6316  153.5289 H   0  0  0  0  0  0  0  0  0  0  0  0  # atno 10764 bound_to 10752
  152.9967  135.5613  154.5884 H   0  0  0  0  0  0  0  0  0  0  0  0  # atno 10765 bound_to 10752
  141.1029  133.8851  157.1796 H   0  0  0  0  0  0  0  0  0  0  0  0  # atno 11005 bound_to 11000
  145.0946  139.2866  143.5717 LP  0  0  0  0  0  0  0  0  0  0  0  0  # atno 17320 bound_to 7965
  146.3529  140.0493  142.8637 LP  0  0  0  0  0  0  0  0  0  0  0  0  # atno 17321 bound_to 7965
  139.5979  144.1357  152.2165 LP  0  0  0  0  0  0  0  0  0  0  0  0  # atno 17342 bound_to 10162
  140.0732  144.5762  150.7176 LP  0  0  0  0  0  0  0  0  0  0  0  0  # atno 17343 bound_to 10162
  156.9574  130.5442  149.5284 LP  0  0  0  0  0  0  0  0  0  0  0  0  # atno 17370 bound_to 10713
  156.0429  130.5509  150.8813 LP  0  0  0  0  0  0  0  0  0  0  0  0  # atno 17371 bound_to 10713
  139.9887  135.0072  156.9924 LP  0  0  0  0  0  0  0  0  0  0  0  0  # atno 17394 bound_to 11000
  140.4977  134.1129  155.7244 LP  0  0  0  0  0  0  0  0  0  0  0  0  # atno 17395 bound_to 11000

$$$$
