AV-unprocessed.smi:2478|AV-procd|sdf|9763|dock1
  -GOLD-   2272013403D 1   1.00000     0.00000
 Structure written by MMmdl.
 42 43  0  0  0  0  0  0  0  0  1 V2000
  151.6033  145.5956  159.7710 C   0  0  0  0  0  0  0  0  0  0  0  0
  151.7792  144.1796  160.3436 C   0  0  2  0  0  0  0  0  0  0  0  0
  152.4818  144.2316  161.7157 C   0  0  0  0  0  0  0  0  0  0  0  0
  152.6787  142.8290  162.3098 C   0  0  0  0  0  0  0  0  0  0  0  0
  153.4540  141.9256  161.3414 C   0  0  0  0  0  0  0  0  0  0  0  0
  152.7563  141.8557  159.9754 C   0  0  0  0  0  0  0  0  0  0  0  0
  152.5496  143.2600  159.3686 C   0  0  1  0  0  0  0  0  0  0  0  0
  151.7852  143.1488  158.1740 O   0  0  0  0  0  0  0  0  0  0  0  0
  150.4216  142.8098  158.3804 C   0  0  0  0  0  0  0  0  0  0  0  0
  150.0120  141.7756  157.3337 C   0  0  0  0  0  0  0  0  0  0  0  0
  150.5452  140.6661  157.3399 O   0  0  0  0  0  0  0  0  0  0  0  0
  149.0674  142.1688  156.4592 N   0  0  0  0  0  0  0  0  0  0  0  0
  148.5107  141.4430  155.3704 C   0  0  0  0  0  0  0  0  0  0  0  0
  149.1767  140.4544  154.7226 N   0  0  0  0  0  0  0  0  0  0  0  0
  148.5831  139.8212  153.6910 C   0  0  0  0  0  0  0  0  0  0  0  0
  147.2911  140.1377  153.2384 C   0  0  0  0  0  0  0  0  0  0  0  0
  146.5886  141.1591  153.9004 C   0  0  0  0  0  0  0  0  0  0  0  0
  147.1975  141.8223  154.9932 C   0  0  0  0  0  0  0  0  0  0  0  0
  146.5709  142.8426  155.6762 O   0  0  0  0  0  0  0  0  0  0  0  0
  145.3290  143.2365  155.2875 C   0  0  0  0  0  0  0  0  0  0  0  0
  144.8066  144.0792  156.2107 F   0  0  0  0  0  0  0  0  0  0  0  0
  145.3916  143.9052  154.1100 F   0  0  0  0  0  0  0  0  0  0  0  0
  152.5671  146.0718  159.5880 H   0  0  0  0  0  0  0  0  0  0  0  0
  151.0443  146.2302  160.4589 H   0  0  0  0  0  0  0  0  0  0  0  0
  151.0568  145.5783  158.8276 H   0  0  0  0  0  0  0  0  0  0  0  0
  150.7846  143.7565  160.4936 H   0  0  0  0  0  0  0  0  0  0  0  0
  153.4517  144.7209  161.6150 H   0  0  0  0  0  0  0  0  0  0  0  0
  151.9010  144.8411  162.4089 H   0  0  0  0  0  0  0  0  0  0  0  0
  153.2100  142.8975  163.2594 H   0  0  0  0  0  0  0  0  0  0  0  0
  151.7075  142.3836  162.5296 H   0  0  0  0  0  0  0  0  0  0  0  0
  154.4685  142.3065  161.2163 H   0  0  0  0  0  0  0  0  0  0  0  0
  153.5483  140.9238  161.7617 H   0  0  0  0  0  0  0  0  0  0  0  0
  153.3447  141.2293  159.3051 H   0  0  0  0  0  0  0  0  0  0  0  0
  151.7902  141.3617  160.0875 H   0  0  0  0  0  0  0  0  0  0  0  0
  153.5191  143.7160  159.1573 H   0  0  0  0  0  0  0  0  0  0  0  0
  150.2829  142.4113  159.3873 H   0  0  0  0  0  0  0  0  0  0  0  0
  149.7765  143.6821  158.2759 H   0  0  0  0  0  0  0  0  0  0  0  0
  148.7057  143.1030  156.5841 H   0  0  0  0  0  0  0  0  0  0  0  0
  149.1574  139.0434  153.2099 H   0  0  0  0  0  0  0  0  0  0  0  0
  146.8518  139.6131  152.4029 H   0  0  0  0  0  0  0  0  0  0  0  0
  145.5984  141.4262  153.5629 H   0  0  0  0  0  0  0  0  0  0  0  0
  144.6498  142.3895  155.1873 H   0  0  0  0  0  0  0  0  0  0  0  0
  1  2  1  0  0  0  0
  1 23  1  0  0  0  0
  1 24  1  0  0  0  0
  1 25  1  0  0  0  0
  2  7  1  0  0  0  0
  2  3  1  0  0  0  0
  2 26  1  0  0  0  0
  3  4  1  0  0  0  0
  3 27  1  0  0  0  0
  3 28  1  0  0  0  0
  4  5  1  0  0  0  0
  4 29  1  0  0  0  0
  4 30  1  0  0  0  0
  5  6  1  0  0  0  0
  5 31  1  0  0  0  0
  5 32  1  0  0  0  0
  6  7  1  0  0  0  0
  6 33  1  0  0  0  0
  6 34  1  0  0  0  0
  7  8  1  0  0  0  0
  7 35  1  0  0  0  0
  8  9  1  0  0  0  0
  9 10  1  0  0  0  0
  9 36  1  0  0  0  0
  9 37  1  0  0  0  0
 10 11  2  0  0  0  0
 10 12  1  0  0  0  0
 12 13  1  0  0  0  0
 12 38  1  0  0  0  0
 13 18  1  0  0  0  0
 13 14  2  0  0  0  0
 14 15  1  0  0  0  0
 15 16  2  0  0  0  0
 15 39  1  0  0  0  0
 16 17  1  0  0  0  0
 16 40  1  0  0  0  0
 17 18  2  0  0  0  0
 17 41  1  0  0  0  0
 18 19  1  0  0  0  0
 19 20  1  0  0  0  0
 20 21  1  0  0  0  0
 20 22  1  0  0  0  0
 20 42  1  0  0  0  0
M  END
> <s_m_source_file>
AV-unprocessed.smi

> <i_m_source_file_index>
2478

> <i_lp_mmshare_version>
43012

> <i_f3d_flags>
0

> <s_epik_input>
W0NIM11bQ0BASF0xW0NIMl1bQ0gyXVtDSDJdW0NIMl1bQ0BIXTFPW0NIMl1DKD1PKVtOSF1jMm5bY0hdW2NIXVtjSF1jMk9bQ0hdKEYpRg==

> <s_epik_cmdline>
J2VwaWtfcHl0aG9uJywgJy1waCcsICc3LjAnLCAnLXRuJywgJzgnLCAnLW1hJywgJzIwMCcsICctbWV0YWxfYmluZGluZycsICctaW1hZScsICc8aW5maWxlLm1hZT4nLCAnLW9tYWUnLCAnPG91dGZpbGUubWFlPic=

> <r_lp_tautomer_probability>
1

> <r_epik_Ionization_Penalty>
6.06012e-05

> <r_epik_Ionization_Penalty_Charging>
0

> <r_epik_Ionization_Penalty_Neutral>
6.06012e-05

> <r_epik_State_Penalty>
-0

> <r_epik_Charging_Adjusted_Penalty>
0

> <i_epik_Tot_Q>
0

> <i_epik_Tot_abs_Q>
0

> <r_epik_Metal_State_Penalty>
-0

> <b_epik_Metal_Only>
0

> <s_lp_Force_Field>
OPLS_2005

> <r_lp_Energy>
14.0723

> <b_lp_Chiralities_Consistent>
1

> <s_lp_Variant>
AV-unprocessed.smi:2478-1

> <Gold.Version>
5.8.1

> <Gold.Id.Protein>
6NUR|6NUR_protein|mol2

> <Gold.PLP.Fitness>
48.9355

> <Gold.PLP.PLP>
-46.3383

> <Gold.PLP.part.hbond>
-1.0000

> <Gold.PLP.part.metal>
0.0000

> <Gold.PLP.part.buried>
-2.9535

> <Gold.PLP.part.nonpolar>
-43.2072

> <Gold.PLP.part.repulsive>
0.8209

> <Gold.PLP.ligand.clash>
0.0000

> <Gold.PLP.ligand.torsion>
0.5832

> <Gold.PLP.Chemscore.Hbond>
0.6080

> <Gold.PLP.Chemscore.CHOScore>
0.5377

> <Gold.PLP.Chemscore.Metal>
0.0000

> <Gold.Chemscore.Hbonds>
donor molecule, donor type, donor heavy atom, donor atom, acceptor molecule, acceptor atom, score
      L1  H    12    38       P1  8028  0.72
      L1  C    15    39       P1  7957  0.43

> <Gold.PLP.Chemscore.Internal.Correction>
0.3266

> <Gold.Rescore>
     Score         DG    S(hbond)    S(metal)    S(lipo)     H(rot)  DE(clash)    DE(int)     intcor
     12.38     -16.60       0.58        0.00     118.99       1.85       1.54       2.68       ----

> <Gold.Chemscore.Fitness>
12.3793

> <Gold.Chemscore.DG>
-16.6018

> <Gold.Chemscore.ZeroCoef>
-5.4800

> <Gold.Chemscore.Hbond>
0.5782

> <Gold.Chemscore.Metal>
0.0000

> <Gold.Chemscore.Lipo>
118.9892

> <Gold.Chemscore.Internal_Hbond>
0.0000

> <Gold.Chemscore.DEClash>
1.5439

> <Gold.Chemscore.DEInternal>
2.6787

> <Gold.Chemscore.Rot>
1.8481

> <Gold.Chemscore.Internal.Correction>
   9.000000E+99

> <Gold.Chemscore.Hbonds>
donor molecule, donor type, donor heavy atom, donor atom, acceptor molecule, acceptor atom, score
      L1  H    12    38       P1  8028  0.63

> <Gold.Chemscore.Hbond.Weighted>
-1.9311

> <Gold.Chemscore.Metal.Weighted>
-0.0000

> <Gold.Chemscore.Lipo.Weighted>
-13.9217

> <Gold.Chemscore.Internal_Hbond.Weighted>
0.0000

> <Gold.Chemscore.DEClash.Weighted>
1.5439

> <Gold.Chemscore.DEInternal.Weighted>
2.6787

> <Gold.Chemscore.Rot.Weighted>
4.7311

> <Gold.Chemscore.Internal.Correction.Weighted>
   9.000000E+99

> <Gold.Protein.RotatedTorsions>
[ 6907 6896 6895 6894 ] final  146.75 input  -60.11 | X-H torsion
[ 7974 7965 7964 7962 ] final   85.09 input  175.53 | X-H torsion
[ 8008 7997 7996 7995 ] final  -92.45 input   59.86 | X-H torsion
[ 10167 10162 10161 10158 ] final   71.08 input  -65.29 | X-H torsion
[ 10718 10713 10712 10709 ] final  153.91 input   66.30 | X-H torsion
[ 10763 10752 10751 10750 ] final -179.05 input  -60.55 | X-H torsion
[ 11005 11000 10999 10996 ] final  -75.02 input  -57.11 | X-H torsion

> <Gold.Protein.ActiveResidues>
 VAL166  LYS551  ARG553  GLY616  TRP617  ASP618  TYR619  PRO620  LYS621  CYS622 
 ASP623  PHE694  ASN695  SER759  ASP760  ASP761  ALA762  ILE779  LEU786  VAL792 
 PHE793  MET794  SER795  GLU796  ALA797  LYS798  CYS799  TRP800  GLU811  SER814 

> <Gold.Protein.RotatedAtoms>
  152.1638  133.4598  159.4873 H   0  0  0  0  0  0  0  0  0  0  0  0  # atno 6907 bound_to 6896
  150.6910  134.2039  159.4342 H   0  0  0  0  0  0  0  0  0  0  0  0  # atno 6908 bound_to 6896
  151.9942  134.9962  160.0613 H   0  0  0  0  0  0  0  0  0  0  0  0  # atno 6909 bound_to 6896
  145.5901  139.2337  143.2304 H   0  0  0  0  0  0  0  0  0  0  0  0  # atno 7974 bound_to 7965
  154.7233  140.0509  157.0660 H   0  0  0  0  0  0  0  0  0  0  0  0  # atno 8008 bound_to 7997
  155.0398  140.3167  155.4709 H   0  0  0  0  0  0  0  0  0  0  0  0  # atno 8009 bound_to 7997
  156.2822  140.2135  156.5522 H   0  0  0  0  0  0  0  0  0  0  0  0  # atno 8010 bound_to 7997
  140.0500  144.5319  150.7370 H   0  0  0  0  0  0  0  0  0  0  0  0  # atno 10167 bound_to 10162
  157.2386  131.0754  151.1807 H   0  0  0  0  0  0  0  0  0  0  0  0  # atno 10718 bound_to 10713
  154.5399  135.2805  155.1105 H   0  0  0  0  0  0  0  0  0  0  0  0  # atno 10763 bound_to 10752
  154.2591  135.6325  153.5272 H   0  0  0  0  0  0  0  0  0  0  0  0  # atno 10764 bound_to 10752
  152.9976  135.5601  154.5936 H   0  0  0  0  0  0  0  0  0  0  0  0  # atno 10765 bound_to 10752
  141.1641  133.6932  156.7453 H   0  0  0  0  0  0  0  0  0  0  0  0  # atno 11005 bound_to 11000
  146.1653  140.6727  142.9258 LP  0  0  0  0  0  0  0  0  0  0  0  0  # atno 17320 bound_to 7965
  144.7355  140.4796  143.6907 LP  0  0  0  0  0  0  0  0  0  0  0  0  # atno 17321 bound_to 7965
  140.7221  143.2599  151.4244 LP  0  0  0  0  0  0  0  0  0  0  0  0  # atno 17342 bound_to 10162
  139.5959  144.1399  152.2143 LP  0  0  0  0  0  0  0  0  0  0  0  0  # atno 17343 bound_to 10162
  157.3402  130.7029  149.6377 LP  0  0  0  0  0  0  0  0  0  0  0  0  # atno 17370 bound_to 10713
  155.9671  130.4282  150.4777 LP  0  0  0  0  0  0  0  0  0  0  0  0  # atno 17371 bound_to 10713
  140.2644  134.8441  157.3789 LP  0  0  0  0  0  0  0  0  0  0  0  0  # atno 17394 bound_to 11000
  140.1580  134.4764  155.7914 LP  0  0  0  0  0  0  0  0  0  0  0  0  # atno 17395 bound_to 11000

$$$$
