AV-unprocessed.smi:823|AV-procd|sdf|3844|dock1
  -GOLD-   22720 1293D 1   1.00000     0.00000
 Structure written by MMmdl.
 46 47  0  0  0  0  0  0  0  0  1 V2000
  151.0208  145.0635  159.8012 C   0  0  0  0  0  0  0  0  0  0  0  0
  151.9280  143.8577  159.5340 C   0  0  2  0  0  0  0  0  0  0  0  0
  151.3189  142.8971  158.4941 C   0  0  0  0  0  0  0  0  0  0  0  0
  152.1488  141.7040  158.3507 N   0  0  0  0  0  0  0  0  0  0  0  0
  151.8403  140.8849  157.2437 C   0  0  0  0  0  0  0  0  0  0  0  0
  150.6728  141.1310  156.4838 C   0  0  0  0  0  0  0  0  0  0  0  0
  150.3809  140.2993  155.3862 C   0  0  0  0  0  0  0  0  0  0  0  0
  151.2563  139.2420  155.0704 C   0  0  0  0  0  0  0  0  0  0  0  0
  150.9336  138.3310  153.8912 C   0  0  0  0  0  0  0  0  0  0  0  0
  150.2546  137.0840  154.2297 N   0  0  0  0  0  0  0  0  0  0  0  0
  150.7111  136.1648  155.0940 C   0  0  0  0  0  0  0  0  0  0  0  0
  151.7692  136.2871  155.7133 O   0  0  0  0  0  0  0  0  0  0  0  0
  149.8163  134.9333  155.3048 C   0  0  2  0  0  0  0  0  0  0  0  0
  150.6564  133.6797  155.0088 C   0  0  0  0  0  0  0  0  0  0  0  0
  148.6857  134.9527  154.3779 N   0  0  0  0  0  0  0  0  0  0  0  0
  147.3974  134.8429  154.7340 C   0  0  0  0  0  0  0  0  0  0  0  0
  146.5743  134.9112  153.6876 N   0  0  0  0  0  0  0  0  0  0  0  0
  147.0031  134.6962  155.8894 O   0  0  0  0  0  0  0  0  0  0  0  0
  152.3989  139.0745  155.8848 C   0  0  0  0  0  0  0  0  0  0  0  0
  152.6861  139.8712  156.9357 N   0  0  0  0  0  0  0  0  0  0  0  0
  152.4456  141.0505  159.6234 C   0  0  0  0  0  0  0  0  0  0  0  0
  153.0200  142.0667  160.6238 C   0  0  0  0  0  0  0  0  0  0  0  0
  152.1205  143.1617  160.7626 O   0  0  0  0  0  0  0  0  0  0  0  0
  150.8533  145.6381  158.8899 H   0  0  0  0  0  0  0  0  0  0  0  0
  151.4671  145.7321  160.5379 H   0  0  0  0  0  0  0  0  0  0  0  0
  150.0488  144.7492  160.1822 H   0  0  0  0  0  0  0  0  0  0  0  0
  152.8923  144.2221  159.1755 H   0  0  0  0  0  0  0  0  0  0  0  0
  150.3192  142.5911  158.8058 H   0  0  0  0  0  0  0  0  0  0  0  0
  151.2081  143.4220  157.5462 H   0  0  0  0  0  0  0  0  0  0  0  0
  150.0104  141.9499  156.7215 H   0  0  0  0  0  0  0  0  0  0  0  0
  149.4942  140.4733  154.7945 H   0  0  0  0  0  0  0  0  0  0  0  0
  150.2915  138.8823  153.2041 H   0  0  0  0  0  0  0  0  0  0  0  0
  151.8527  138.1169  153.3429 H   0  0  0  0  0  0  0  0  0  0  0  0
  149.3754  136.9029  153.7671 H   0  0  0  0  0  0  0  0  0  0  0  0
  149.4552  134.8979  156.3348 H   0  0  0  0  0  0  0  0  0  0  0  0
  151.5158  133.6121  155.6771 H   0  0  0  0  0  0  0  0  0  0  0  0
  151.0308  133.6725  153.9838 H   0  0  0  0  0  0  0  0  0  0  0  0
  150.0661  132.7738  155.1496 H   0  0  0  0  0  0  0  0  0  0  0  0
  148.9024  135.0790  153.4004 H   0  0  0  0  0  0  0  0  0  0  0  0
  145.5761  134.8396  153.8193 H   0  0  0  0  0  0  0  0  0  0  0  0
  146.9571  135.0330  152.7611 H   0  0  0  0  0  0  0  0  0  0  0  0
  153.1089  138.2819  155.7027 H   0  0  0  0  0  0  0  0  0  0  0  0
  151.5331  140.6072  160.0249 H   0  0  0  0  0  0  0  0  0  0  0  0
  153.1634  140.2428  159.4741 H   0  0  0  0  0  0  0  0  0  0  0  0
  153.1609  141.5967  161.5971 H   0  0  0  0  0  0  0  0  0  0  0  0
  153.9983  142.4241  160.2984 H   0  0  0  0  0  0  0  0  0  0  0  0
  1  2  1  0  0  0  0
  1 24  1  0  0  0  0
  1 25  1  0  0  0  0
  1 26  1  0  0  0  0
  2 23  1  0  0  0  0
  2  3  1  0  0  0  0
  2 27  1  0  0  0  0
  3  4  1  0  0  0  0
  3 28  1  0  0  0  0
  3 29  1  0  0  0  0
  4  5  1  0  0  0  0
  4 21  1  0  0  0  0
  5 20  1  0  0  0  0
  5  6  2  0  0  0  0
  6  7  1  0  0  0  0
  6 30  1  0  0  0  0
  7  8  2  0  0  0  0
  7 31  1  0  0  0  0
  8  9  1  0  0  0  0
  8 19  1  0  0  0  0
  9 10  1  0  0  0  0
  9 32  1  0  0  0  0
  9 33  1  0  0  0  0
 10 11  1  0  0  0  0
 10 34  1  0  0  0  0
 11 12  2  0  0  0  0
 11 13  1  0  0  0  0
 13 14  1  0  0  0  0
 13 15  1  0  0  0  0
 13 35  1  0  0  0  0
 14 36  1  0  0  0  0
 14 37  1  0  0  0  0
 14 38  1  0  0  0  0
 15 16  1  0  0  0  0
 15 39  1  0  0  0  0
 16 17  1  0  0  0  0
 16 18  2  0  0  0  0
 17 40  1  0  0  0  0
 17 41  1  0  0  0  0
 19 20  2  0  0  0  0
 19 42  1  0  0  0  0
 21 22  1  0  0  0  0
 21 43  1  0  0  0  0
 21 44  1  0  0  0  0
 22 23  1  0  0  0  0
 22 45  1  0  0  0  0
 22 46  1  0  0  0  0
M  END
> <s_m_source_file>
AV-unprocessed.smi

> <i_m_source_file_index>
823

> <i_lp_mmshare_version>
43012

> <i_f3d_flags>
0

> <s_epik_input>
W0NIM11bQ0BASF0xW0NIMl1OKFtDSDJdW0NIMl1PMSljMltjSF1bY0hdYyhbY0hdbjIpW0NIMl1bTkhdQyg9TylbQ0BIXShbQ0gzXSlbTkhdQyg9TylbTkgyXQ==

> <s_epik_cmdline>
J2VwaWtfcHl0aG9uJywgJy1waCcsICc3LjAnLCAnLXRuJywgJzgnLCAnLW1hJywgJzIwMCcsICctbWV0YWxfYmluZGluZycsICctaW1hZScsICc8aW5maWxlLm1hZT4nLCAnLW9tYWUnLCAnPG91dGZpbGUubWFlPic=

> <r_lp_tautomer_probability>
1

> <r_epik_Ionization_Penalty>
0.00555043

> <r_epik_Ionization_Penalty_Charging>
0

> <r_epik_Ionization_Penalty_Neutral>
0.00555043

> <r_epik_State_Penalty>
0.00402575

> <r_epik_Charging_Adjusted_Penalty>
0.00402575

> <i_epik_Tot_Q>
0

> <i_epik_Tot_abs_Q>
0

> <r_epik_Metal_State_Penalty>
-0

> <b_epik_Metal_Only>
0

> <s_lp_Force_Field>
OPLS_2005

> <r_lp_Energy>
10.1488

> <b_lp_Chiralities_Consistent>
1

> <s_lp_Variant>
AV-unprocessed.smi:823-1

> <Gold.Version>
5.8.1

> <Gold.Id.Protein>
6NUR|6NUR_protein|mol2

> <Gold.PLP.Fitness>
54.8572

> <Gold.PLP.PLP>
-42.7367

> <Gold.PLP.part.hbond>
-5.8943

> <Gold.PLP.part.metal>
0.0000

> <Gold.PLP.part.buried>
-2.7235

> <Gold.PLP.part.nonpolar>
-32.0352

> <Gold.PLP.part.repulsive>
0.2033

> <Gold.PLP.ligand.clash>
0.0000

> <Gold.PLP.ligand.torsion>
0.5757

> <Gold.PLP.Chemscore.Hbond>
4.2908

> <Gold.PLP.Chemscore.CHOScore>
0.0000

> <Gold.PLP.Chemscore.Metal>
0.0000

> <Gold.Chemscore.Hbonds>
donor molecule, donor type, donor heavy atom, donor atom, acceptor molecule, acceptor atom, score
      L1  H    10    34       P1  7948  0.58
      L1  H    15    39       P1  7948  1.00
      P1  H  7997  8008       L1    20  0.90
      P1  H 10752 10764       L1    12  1.00

> <Gold.PLP.Chemscore.Internal.Correction>
0.3996

> <Gold.Rescore>
     Score         DG    S(hbond)    S(metal)    S(lipo)     H(rot)  DE(clash)    DE(int)     intcor
     18.10     -19.14       2.53        0.00     101.68       2.62       0.34       0.70       ----

> <Gold.Chemscore.Fitness>
18.1011

> <Gold.Chemscore.DG>
-19.1404

> <Gold.Chemscore.ZeroCoef>
-5.4800

> <Gold.Chemscore.Hbond>
2.5333

> <Gold.Chemscore.Metal>
0.0000

> <Gold.Chemscore.Lipo>
101.6838

> <Gold.Chemscore.Internal_Hbond>
0.0000

> <Gold.Chemscore.DEClash>
0.3383

> <Gold.Chemscore.DEInternal>
0.7011

> <Gold.Chemscore.Rot>
2.6163

> <Gold.Chemscore.Internal.Correction>
   9.000000E+99

> <Gold.Chemscore.Hbonds>
donor molecule, donor type, donor heavy atom, donor atom, acceptor molecule, acceptor atom, score
      L1  H    10    34       P1  7948  0.52
      L1  H    15    39       P1  7948  0.42
      L1  H    17    41       P1  7948  0.02
      P1  H  7997  8008       L1    20  0.44
      P1  H 10752 10764       L1    12  0.55

> <Gold.Chemscore.Hbond.Weighted>
-8.4612

> <Gold.Chemscore.Metal.Weighted>
-0.0000

> <Gold.Chemscore.Lipo.Weighted>
-11.8970

> <Gold.Chemscore.Internal_Hbond.Weighted>
0.0000

> <Gold.Chemscore.DEClash.Weighted>
0.3383

> <Gold.Chemscore.DEInternal.Weighted>
0.7011

> <Gold.Chemscore.Rot.Weighted>
6.6978

> <Gold.Chemscore.Internal.Correction.Weighted>
   9.000000E+99

> <Gold.Protein.RotatedTorsions>
[ 6907 6896 6895 6894 ] final  173.94 input  -60.11 | X-H torsion
[ 7974 7965 7964 7962 ] final   28.93 input  175.53 | X-H torsion
[ 8008 7997 7996 7995 ] final  -77.68 input   59.86 | X-H torsion
[ 10167 10162 10161 10158 ] final  -56.20 input  -65.29 | X-H torsion
[ 10718 10713 10712 10709 ] final  137.37 input   66.30 | X-H torsion
[ 10763 10752 10751 10750 ] final  -50.84 input  -60.55 | X-H torsion
[ 11005 11000 10999 10996 ] final  -75.82 input  -57.11 | X-H torsion

> <Gold.Protein.ActiveResidues>
 VAL166  LYS551  ARG553  GLY616  TRP617  ASP618  TYR619  PRO620  LYS621  CYS622 
 ASP623  PHE694  ASN695  SER759  ASP760  ASP761  ALA762  ILE779  LEU786  VAL792 
 PHE793  MET794  SER795  GLU796  ALA797  LYS798  CYS799  TRP800  GLU811  SER814 

> <Gold.Protein.RotatedAtoms>
  151.7603  133.3333  159.3415 H   0  0  0  0  0  0  0  0  0  0  0  0  # atno 6907 bound_to 6896
  150.7500  134.6112  159.6096 H   0  0  0  0  0  0  0  0  0  0  0  0  # atno 6908 bound_to 6896
  152.3410  134.7136  160.0315 H   0  0  0  0  0  0  0  0  0  0  0  0  # atno 6909 bound_to 6896
  146.1701  139.6990  142.8974 H   0  0  0  0  0  0  0  0  0  0  0  0  # atno 7974 bound_to 7965
  154.5618  140.0706  156.8831 H   0  0  0  0  0  0  0  0  0  0  0  0  # atno 8008 bound_to 7997
  155.2797  140.3371  155.4241 H   0  0  0  0  0  0  0  0  0  0  0  0  # atno 8009 bound_to 7997
  156.2048  140.1736  156.7808 H   0  0  0  0  0  0  0  0  0  0  0  0  # atno 8010 bound_to 7997
  140.6331  143.2469  151.5189 H   0  0  0  0  0  0  0  0  0  0  0  0  # atno 10167 bound_to 10162
  157.4368  131.1054  151.0188 H   0  0  0  0  0  0  0  0  0  0  0  0  # atno 10718 bound_to 10713
  154.1169  135.6540  153.4895 H   0  0  0  0  0  0  0  0  0  0  0  0  # atno 10763 bound_to 10752
  153.0238  135.5261  154.7135 H   0  0  0  0  0  0  0  0  0  0  0  0  # atno 10764 bound_to 10752
  154.6332  135.2979  155.0162 H   0  0  0  0  0  0  0  0  0  0  0  0  # atno 10765 bound_to 10752
  141.1649  133.6960  156.7574 H   0  0  0  0  0  0  0  0  0  0  0  0  # atno 11005 bound_to 11000
  145.4364  141.0419  143.2882 LP  0  0  0  0  0  0  0  0  0  0  0  0  # atno 17320 bound_to 7965
  144.8150  139.5894  143.7012 LP  0  0  0  0  0  0  0  0  0  0  0  0  # atno 17321 bound_to 7965
  139.5543  144.2315  152.1586 LP  0  0  0  0  0  0  0  0  0  0  0  0  # atno 17342 bound_to 10162
  140.1564  144.5067  150.6658 LP  0  0  0  0  0  0  0  0  0  0  0  0  # atno 17343 bound_to 10162
  157.1065  130.6004  149.5472 LP  0  0  0  0  0  0  0  0  0  0  0  0  # atno 17370 bound_to 10713
  155.9933  130.4994  150.7376 LP  0  0  0  0  0  0  0  0  0  0  0  0  # atno 17371 bound_to 10713
  140.2559  134.8505  157.3712 LP  0  0  0  0  0  0  0  0  0  0  0  0  # atno 17394 bound_to 11000
  140.1658  134.4671  155.7864 LP  0  0  0  0  0  0  0  0  0  0  0  0  # atno 17395 bound_to 11000

$$$$
