AV-unprocessed.smi:1427|AV-procd|sdf|5810|dock3
  -GOLD-   22720 5463D 1   1.00000     0.00000
 Structure written by MMmdl.
 33 34  0  0  0  0  0  0  0  0  1 V2000
  148.5797  141.7954  157.3332 C   0  0  0  0  0  0  0  0  0  0  0  0
  149.9848  141.2682  157.0121 C   0  0  1  0  0  0  0  0  0  0  0  0
  150.9376  142.4129  156.6075 C   0  0  0  0  0  0  0  0  0  0  0  0
  151.2269  143.3149  157.7092 N   0  0  0  0  0  0  0  0  0  0  0  0
  151.0179  144.6760  157.7789 C   0  0  0  0  0  0  0  0  0  0  0  0
  151.4626  145.0931  159.0007 C   0  0  0  0  0  0  0  0  0  0  0  0
  151.9299  143.8985  159.6163 C   0  0  0  0  0  0  0  0  0  0  0  0
  151.7839  142.8350  158.8428 N   0  0  0  0  0  0  0  0  0  0  0  0
  150.5031  140.5494  158.1754 N   0  0  0  0  0  0  0  0  0  0  0  0
  151.7500  140.0692  158.3074 C   0  0  0  0  0  0  0  0  0  0  0  0
  152.6083  140.1620  157.4282 O   0  0  0  0  0  0  0  0  0  0  0  0
  152.0772  139.4170  159.6576 C   0  0  2  0  0  0  0  0  0  0  0  0
  153.2940  140.0961  160.3247 C   0  0  0  0  0  0  0  0  0  0  0  0
  154.1594  138.9572  160.8788 C   0  0  0  0  0  0  0  0  0  0  0  0
  153.6211  137.7370  160.1536 C   0  0  0  0  0  0  0  0  0  0  0  0
  154.1651  136.6357  160.1825 O   0  0  0  0  0  0  0  0  0  0  0  0
  152.5021  138.0358  159.4958 N   0  0  0  0  0  0  0  0  0  0  0  0
  148.1471  142.3060  156.4723 H   0  0  0  0  0  0  0  0  0  0  0  0
  148.5994  142.5022  158.1637 H   0  0  0  0  0  0  0  0  0  0  0  0
  147.9067  140.9810  157.6034 H   0  0  0  0  0  0  0  0  0  0  0  0
  149.8851  140.5858  156.1659 H   0  0  0  0  0  0  0  0  0  0  0  0
  151.8854  142.0026  156.2570 H   0  0  0  0  0  0  0  0  0  0  0  0
  150.5208  142.9837  155.7758 H   0  0  0  0  0  0  0  0  0  0  0  0
  150.5818  145.2288  156.9599 H   0  0  0  0  0  0  0  0  0  0  0  0
  151.4576  146.0986  159.3939 H   0  0  0  0  0  0  0  0  0  0  0  0
  152.3680  143.7729  160.5954 H   0  0  0  0  0  0  0  0  0  0  0  0
  149.8717  140.4365  158.9554 H   0  0  0  0  0  0  0  0  0  0  0  0
  151.2082  139.4367  160.3176 H   0  0  0  0  0  0  0  0  0  0  0  0
  153.8810  140.6743  159.6082 H   0  0  0  0  0  0  0  0  0  0  0  0
  152.9833  140.7840  161.1119 H   0  0  0  0  0  0  0  0  0  0  0  0
  155.2206  139.1086  160.6782 H   0  0  0  0  0  0  0  0  0  0  0  0
  154.0173  138.8325  161.9526 H   0  0  0  0  0  0  0  0  0  0  0  0
  151.9856  137.3752  158.9333 H   0  0  0  0  0  0  0  0  0  0  0  0
  1  2  1  0  0  0  0
  1 18  1  0  0  0  0
  1 19  1  0  0  0  0
  1 20  1  0  0  0  0
  2  3  1  0  0  0  0
  2  9  1  0  0  0  0
  2 21  1  0  0  0  0
  3  4  1  0  0  0  0
  3 22  1  0  0  0  0
  3 23  1  0  0  0  0
  4  8  1  0  0  0  0
  4  5  1  0  0  0  0
  5  6  2  0  0  0  0
  5 24  1  0  0  0  0
  6  7  1  0  0  0  0
  6 25  1  0  0  0  0
  7  8  2  0  0  0  0
  7 26  1  0  0  0  0
  9 10  1  0  0  0  0
  9 27  1  0  0  0  0
 10 11  2  0  0  0  0
 10 12  1  0  0  0  0
 12 17  1  0  0  0  0
 12 13  1  0  0  0  0
 12 28  1  0  0  0  0
 13 14  1  0  0  0  0
 13 29  1  0  0  0  0
 13 30  1  0  0  0  0
 14 15  1  0  0  0  0
 14 31  1  0  0  0  0
 14 32  1  0  0  0  0
 15 16  2  0  0  0  0
 15 17  1  0  0  0  0
 17 33  1  0  0  0  0
M  END
> <s_m_source_file>
AV-unprocessed.smi

> <i_m_source_file_index>
1427

> <i_lp_mmshare_version>
43012

> <i_f3d_flags>
0

> <s_epik_input>
bjFbY0hdW2NIXVtjSF1uMVtDSDJdW0NAQEhdKFtDSDNdKVtOSF1DKD1PKVtDQEBIXTJbQ0gyXVtDSDJdQyg9TylbTkhdMg==

> <s_epik_cmdline>
J2VwaWtfcHl0aG9uJywgJy1waCcsICc3LjAnLCAnLXRuJywgJzgnLCAnLW1hJywgJzIwMCcsICctbWV0YWxfYmluZGluZycsICctaW1hZScsICc8aW5maWxlLm1hZT4nLCAnLW9tYWUnLCAnPG91dGZpbGUubWFlPic=

> <r_lp_tautomer_probability>
1

> <r_epik_Ionization_Penalty>
0.000310707

> <r_epik_Ionization_Penalty_Charging>
0

> <r_epik_Ionization_Penalty_Neutral>
0.000310707

> <r_epik_State_Penalty>
-0

> <r_epik_Charging_Adjusted_Penalty>
0

> <i_epik_Tot_Q>
0

> <i_epik_Tot_abs_Q>
0

> <r_epik_Metal_State_Penalty>
-0

> <b_epik_Metal_Only>
0

> <s_lp_Force_Field>
OPLS_2005

> <r_lp_Energy>
14.2046

> <b_lp_Chiralities_Consistent>
1

> <s_lp_Variant>
AV-unprocessed.smi:1427-2

> <Gold.Version>
5.8.1

> <Gold.Id.Protein>
6NUR|6NUR_protein|mol2

> <Gold.PLP.Fitness>
39.7478

> <Gold.PLP.PLP>
-30.9815

> <Gold.PLP.part.hbond>
-2.0000

> <Gold.PLP.part.metal>
0.0000

> <Gold.PLP.part.buried>
-5.0874

> <Gold.PLP.part.nonpolar>
-23.8358

> <Gold.PLP.part.repulsive>
0.2328

> <Gold.PLP.ligand.clash>
0.0000

> <Gold.PLP.ligand.torsion>
0.1185

> <Gold.PLP.Chemscore.Hbond>
2.0000

> <Gold.PLP.Chemscore.CHOScore>
0.9895

> <Gold.PLP.Chemscore.Metal>
0.0000

> <Gold.Chemscore.Hbonds>
donor molecule, donor type, donor heavy atom, donor atom, acceptor molecule, acceptor atom, score
      P1  H  7997  8010       L1    11  1.00
      L1  C     5    24       P1  8028  1.00

> <Gold.PLP.Chemscore.Internal.Correction>
0.0349

> <Gold.Rescore>
     Score         DG    S(hbond)    S(metal)    S(lipo)     H(rot)  DE(clash)    DE(int)     intcor
     15.08     -15.26       1.90        0.00      70.47       1.88       0.12       0.06       ----

> <Gold.Chemscore.Fitness>
15.0764

> <Gold.Chemscore.DG>
-15.2584

> <Gold.Chemscore.ZeroCoef>
-5.4800

> <Gold.Chemscore.Hbond>
1.9016

> <Gold.Chemscore.Metal>
0.0000

> <Gold.Chemscore.Lipo>
70.4719

> <Gold.Chemscore.Internal_Hbond>
0.0000

> <Gold.Chemscore.DEClash>
0.1214

> <Gold.Chemscore.DEInternal>
0.0606

> <Gold.Chemscore.Rot>
1.8821

> <Gold.Chemscore.Internal.Correction>
   9.000000E+99

> <Gold.Chemscore.Hbonds>
donor molecule, donor type, donor heavy atom, donor atom, acceptor molecule, acceptor atom, score
      P1  H  7997  8010       L1    11  0.96

> <Gold.Chemscore.Hbond.Weighted>
-6.3513

> <Gold.Chemscore.Metal.Weighted>
-0.0000

> <Gold.Chemscore.Lipo.Weighted>
-8.2452

> <Gold.Chemscore.Internal_Hbond.Weighted>
0.0000

> <Gold.Chemscore.DEClash.Weighted>
0.1214

> <Gold.Chemscore.DEInternal.Weighted>
0.0606

> <Gold.Chemscore.Rot.Weighted>
4.8181

> <Gold.Chemscore.Internal.Correction.Weighted>
   9.000000E+99

> <Gold.Protein.RotatedTorsions>
[ 6907 6896 6895 6894 ] final  167.77 input  -60.11 | X-H torsion
[ 7974 7965 7964 7962 ] final -120.02 input  175.53 | X-H torsion
[ 8008 7997 7996 7995 ] final   56.50 input   59.86 | X-H torsion
[ 10167 10162 10161 10158 ] final   66.60 input  -65.29 | X-H torsion
[ 10718 10713 10712 10709 ] final  132.46 input   66.30 | X-H torsion
[ 10763 10752 10751 10750 ] final   68.48 input  -60.55 | X-H torsion
[ 11005 11000 10999 10996 ] final  176.09 input  -57.11 | X-H torsion

> <Gold.Protein.ActiveResidues>
 VAL166  LYS551  ARG553  GLY616  TRP617  ASP618  TYR619  PRO620  LYS621  CYS622 
 ASP623  PHE694  ASN695  SER759  ASP760  ASP761  ALA762  ILE779  LEU786  VAL792 
 PHE793  MET794  SER795  GLU796  ALA797  LYS798  CYS799  TRP800  GLU811  SER814 

> <Gold.Protein.RotatedAtoms>
  151.8581  133.3452  159.3694 H   0  0  0  0  0  0  0  0  0  0  0  0  # atno 6907 bound_to 6896
  150.7187  134.5233  159.5673 H   0  0  0  0  0  0  0  0  0  0  0  0  # atno 6908 bound_to 6896
  152.2741  134.7902  160.0460 H   0  0  0  0  0  0  0  0  0  0  0  0  # atno 6909 bound_to 6896
  145.0561  140.8255  143.4180 H   0  0  0  0  0  0  0  0  0  0  0  0  # atno 7974 bound_to 7965
  155.5185  140.3479  155.4402 H   0  0  0  0  0  0  0  0  0  0  0  0  # atno 8008 bound_to 7997
  156.0801  140.1384  156.9750 H   0  0  0  0  0  0  0  0  0  0  0  0  # atno 8009 bound_to 7997
  154.4575  140.0948  156.6775 H   0  0  0  0  0  0  0  0  0  0  0  0  # atno 8010 bound_to 7997
  140.0986  144.4924  150.7052 H   0  0  0  0  0  0  0  0  0  0  0  0  # atno 10167 bound_to 10162
  157.4869  131.1088  150.9608 H   0  0  0  0  0  0  0  0  0  0  0  0  # atno 10718 bound_to 10713
  153.0238  135.5246  154.7141 H   0  0  0  0  0  0  0  0  0  0  0  0  # atno 10763 bound_to 10752
  154.6215  135.2889  155.0323 H   0  0  0  0  0  0  0  0  0  0  0  0  # atno 10764 bound_to 10752
  154.1307  135.6593  153.4974 H   0  0  0  0  0  0  0  0  0  0  0  0  # atno 10765 bound_to 10752
  140.3693  134.7044  157.4382 H   0  0  0  0  0  0  0  0  0  0  0  0  # atno 11005 bound_to 11000
  145.1467  139.2539  143.5462 LP  0  0  0  0  0  0  0  0  0  0  0  0  # atno 17320 bound_to 7965
  146.3521  140.1159  142.8602 LP  0  0  0  0  0  0  0  0  0  0  0  0  # atno 17321 bound_to 7965
  140.6990  143.2422  151.4919 LP  0  0  0  0  0  0  0  0  0  0  0  0  # atno 17342 bound_to 10162
  139.5684  144.1987  152.1800 LP  0  0  0  0  0  0  0  0  0  0  0  0  # atno 17343 bound_to 10162
  157.0323  130.5716  149.5345 LP  0  0  0  0  0  0  0  0  0  0  0  0  # atno 17370 bound_to 10713
  156.0152  130.5245  150.8111 LP  0  0  0  0  0  0  0  0  0  0  0  0  # atno 17371 bound_to 10713
  140.0564  134.6057  155.8800 LP  0  0  0  0  0  0  0  0  0  0  0  0  # atno 17394 bound_to 11000
  141.1959  133.6589  156.5668 LP  0  0  0  0  0  0  0  0  0  0  0  0  # atno 17395 bound_to 11000

$$$$
