AV-unprocessed.smi:1962|AV-procd|sdf|7922|dock2
  -GOLD-   2272010 93D 1   1.00000     0.00000
 Structure written by MMmdl.
 36 37  0  0  0  0  0  0  0  0  1 V2000
  152.8006  141.0068  159.0623 C   0  0  0  0  0  0  0  0  0  0  0  0
  153.3857  141.3550  160.4376 C   0  0  2  0  0  0  0  0  0  0  0  0
  152.8475  142.7063  160.9530 C   0  0  0  0  0  0  0  0  0  0  0  0
  152.1739  143.4710  159.9175 N   0  0  0  0  0  0  0  0  0  0  0  0
  152.7078  144.0082  158.7651 C   0  0  0  0  0  0  0  0  0  0  0  0
  151.6900  144.6236  158.0947 C   0  0  0  0  0  0  0  0  0  0  0  0
  150.5570  144.4080  158.9282 C   0  0  0  0  0  0  0  0  0  0  0  0
  150.8502  143.7213  160.0202 N   0  0  0  0  0  0  0  0  0  0  0  0
  154.8444  141.3813  160.3407 N   0  0  0  0  0  0  0  0  0  0  0  0
  155.6127  140.4498  159.7446 C   0  0  0  0  0  0  0  0  0  0  0  0
  155.1501  139.4642  159.1692 O   0  0  0  0  0  0  0  0  0  0  0  0
  157.0812  140.6649  159.8344 C   0  0  0  0  0  0  0  0  0  0  0  0
  157.6939  140.4997  160.9648 N   0  0  0  0  0  0  0  0  0  0  0  0
  159.0578  140.6692  161.0906 N   0  0  0  0  0  0  0  0  0  0  0  0
  159.6236  140.1791  162.3458 C   0  0  0  0  0  0  0  0  0  0  0  0
  159.8501  141.2610  160.1624 C   0  0  0  0  0  0  0  0  0  0  0  0
  161.0682  141.3898  160.2842 O   0  0  0  0  0  0  0  0  0  0  0  0
  159.1478  141.8146  158.9192 C   0  0  0  0  0  0  0  0  0  0  0  0
  157.8557  141.0420  158.5869 C   0  0  0  0  0  0  0  0  0  0  0  0
  151.7123  140.9554  159.1009 H   0  0  0  0  0  0  0  0  0  0  0  0
  153.1628  140.0385  158.7154 H   0  0  0  0  0  0  0  0  0  0  0  0
  153.0721  141.7523  158.3140 H   0  0  0  0  0  0  0  0  0  0  0  0
  153.0719  140.5706  161.1286 H   0  0  0  0  0  0  0  0  0  0  0  0
  152.1632  142.5533  161.7895 H   0  0  0  0  0  0  0  0  0  0  0  0
  153.6695  143.3143  161.3327 H   0  0  0  0  0  0  0  0  0  0  0  0
  153.7541  143.9031  158.5185 H   0  0  0  0  0  0  0  0  0  0  0  0
  151.7456  145.1462  157.1513 H   0  0  0  0  0  0  0  0  0  0  0  0
  149.5373  144.7287  158.7737 H   0  0  0  0  0  0  0  0  0  0  0  0
  155.3141  142.1528  160.7926 H   0  0  0  0  0  0  0  0  0  0  0  0
  160.1188  140.9867  162.8871 H   0  0  0  0  0  0  0  0  0  0  0  0
  160.3573  139.3947  162.1541 H   0  0  0  0  0  0  0  0  0  0  0  0
  158.8599  139.7613  163.0040 H   0  0  0  0  0  0  0  0  0  0  0  0
  158.9092  142.8603  159.1165 H   0  0  0  0  0  0  0  0  0  0  0  0
  159.8276  141.8025  158.0666 H   0  0  0  0  0  0  0  0  0  0  0  0
  158.0962  140.1375  158.0269 H   0  0  0  0  0  0  0  0  0  0  0  0
  157.2455  141.6593  157.9263 H   0  0  0  0  0  0  0  0  0  0  0  0
  1  2  1  0  0  0  0
  1 20  1  0  0  0  0
  1 21  1  0  0  0  0
  1 22  1  0  0  0  0
  2  3  1  0  0  0  0
  2  9  1  0  0  0  0
  2 23  1  0  0  0  0
  3  4  1  0  0  0  0
  3 24  1  0  0  0  0
  3 25  1  0  0  0  0
  4  8  1  0  0  0  0
  4  5  1  0  0  0  0
  5  6  2  0  0  0  0
  5 26  1  0  0  0  0
  6  7  1  0  0  0  0
  6 27  1  0  0  0  0
  7  8  2  0  0  0  0
  7 28  1  0  0  0  0
  9 10  1  0  0  0  0
  9 29  1  0  0  0  0
 10 11  2  0  0  0  0
 10 12  1  0  0  0  0
 12 19  1  0  0  0  0
 12 13  2  0  0  0  0
 13 14  1  0  0  0  0
 14 15  1  0  0  0  0
 14 16  1  0  0  0  0
 15 30  1  0  0  0  0
 15 31  1  0  0  0  0
 15 32  1  0  0  0  0
 16 17  2  0  0  0  0
 16 18  1  0  0  0  0
 18 19  1  0  0  0  0
 18 33  1  0  0  0  0
 18 34  1  0  0  0  0
 19 35  1  0  0  0  0
 19 36  1  0  0  0  0
M  END
> <s_m_source_file>
AV-unprocessed.smi

> <i_m_source_file_index>
1962

> <i_lp_mmshare_version>
43012

> <i_f3d_flags>
0

> <s_epik_input>
bjFbY0hdW2NIXVtjSF1uMVtDSDJdW0NAQEhdKFtDSDNdKVtOSF1DKD1PKUMyPU5OKFtDSDNdKUMoPU8pW0NIMl1bQ0gyXTI=

> <s_epik_cmdline>
J2VwaWtfcHl0aG9uJywgJy1waCcsICc3LjAnLCAnLXRuJywgJzgnLCAnLW1hJywgJzIwMCcsICctbWV0YWxfYmluZGluZycsICctaW1hZScsICc8aW5maWxlLm1hZT4nLCAnLW9tYWUnLCAnPG91dGZpbGUubWFlPic=

> <r_lp_tautomer_probability>
1

> <r_epik_Ionization_Penalty>
9.43868e-05

> <r_epik_Ionization_Penalty_Charging>
0

> <r_epik_Ionization_Penalty_Neutral>
9.43868e-05

> <r_epik_State_Penalty>
-0

> <r_epik_Charging_Adjusted_Penalty>
0

> <i_epik_Tot_Q>
0

> <i_epik_Tot_abs_Q>
0

> <r_epik_Metal_State_Penalty>
0.0732556

> <b_epik_Metal_Only>
0

> <s_epik_Chemistry_Notes>
This compound has an imine and may undergo hydrolysis.

> <s_lp_Force_Field>
OPLS_2005

> <r_lp_Energy>
16.0967

> <b_lp_Chiralities_Consistent>
1

> <s_lp_Variant>
AV-unprocessed.smi:1962-1

> <Gold.Version>
5.8.1

> <Gold.Id.Protein>
6NUR|6NUR_protein|mol2

> <Gold.PLP.Fitness>
41.5796

> <Gold.PLP.PLP>
-39.8438

> <Gold.PLP.part.hbond>
-2.7646

> <Gold.PLP.part.metal>
0.0000

> <Gold.PLP.part.buried>
-4.7491

> <Gold.PLP.part.nonpolar>
-33.5125

> <Gold.PLP.part.repulsive>
0.2527

> <Gold.PLP.ligand.clash>
0.0000

> <Gold.PLP.ligand.torsion>
2.1669

> <Gold.PLP.Chemscore.Hbond>
1.0000

> <Gold.PLP.Chemscore.CHOScore>
1.0000

> <Gold.PLP.Chemscore.Metal>
0.0000

> <Gold.Chemscore.Hbonds>
donor molecule, donor type, donor heavy atom, donor atom, acceptor molecule, acceptor atom, score
      P1  H  7997  8010       L1    11  1.00
      L1  C     7    28       P1  8029  1.00

> <Gold.PLP.Chemscore.Internal.Correction>
0.0696

> <Gold.Rescore>
     Score         DG    S(hbond)    S(metal)    S(lipo)     H(rot)  DE(clash)    DE(int)     intcor
     11.87     -15.55       0.78        0.00      97.33       1.53       0.25       3.44       ----

> <Gold.Chemscore.Fitness>
11.8704

> <Gold.Chemscore.DG>
-15.5525

> <Gold.Chemscore.ZeroCoef>
-5.4800

> <Gold.Chemscore.Hbond>
0.7753

> <Gold.Chemscore.Metal>
0.0000

> <Gold.Chemscore.Lipo>
97.3324

> <Gold.Chemscore.Internal_Hbond>
0.0000

> <Gold.Chemscore.DEClash>
0.2452

> <Gold.Chemscore.DEInternal>
3.4369

> <Gold.Chemscore.Rot>
1.5254

> <Gold.Chemscore.Internal.Correction>
   9.000000E+99

> <Gold.Chemscore.Hbonds>
donor molecule, donor type, donor heavy atom, donor atom, acceptor molecule, acceptor atom, score
      P1  H  7997  8010       L1    11  0.30

> <Gold.Chemscore.Hbond.Weighted>
-2.5897

> <Gold.Chemscore.Metal.Weighted>
-0.0000

> <Gold.Chemscore.Lipo.Weighted>
-11.3879

> <Gold.Chemscore.Internal_Hbond.Weighted>
0.0000

> <Gold.Chemscore.DEClash.Weighted>
0.2452

> <Gold.Chemscore.DEInternal.Weighted>
3.4369

> <Gold.Chemscore.Rot.Weighted>
3.9051

> <Gold.Chemscore.Internal.Correction.Weighted>
   9.000000E+99

> <Gold.Protein.RotatedTorsions>
[ 6907 6896 6895 6894 ] final -107.72 input  -60.11 | X-H torsion
[ 7974 7965 7964 7962 ] final  123.31 input  175.53 | X-H torsion
[ 8008 7997 7996 7995 ] final   -7.67 input   59.86 | X-H torsion
[ 10167 10162 10161 10158 ] final  -61.14 input  -65.29 | X-H torsion
[ 10718 10713 10712 10709 ] final  138.62 input   66.30 | X-H torsion
[ 10763 10752 10751 10750 ] final  100.38 input  -60.55 | X-H torsion
[ 11005 11000 10999 10996 ] final  124.47 input  -57.11 | X-H torsion

> <Gold.Protein.ActiveResidues>
 VAL166  LYS551  ARG553  GLY616  TRP617  ASP618  TYR619  PRO620  LYS621  CYS622 
 ASP623  PHE694  ASN695  SER759  ASP760  ASP761  ALA762  ILE779  LEU786  VAL792 
 PHE793  MET794  SER795  GLU796  ALA797  LYS798  CYS799  TRP800  GLU811  SER814 

> <Gold.Protein.RotatedAtoms>
  150.7460  133.9784  159.3567 H   0  0  0  0  0  0  0  0  0  0  0  0  # atno 6907 bound_to 6896
  151.7723  135.0781  160.0371 H   0  0  0  0  0  0  0  0  0  0  0  0  # atno 6908 bound_to 6896
  152.3331  133.5943  159.5859 H   0  0  0  0  0  0  0  0  0  0  0  0  # atno 6909 bound_to 6896
  145.0974  139.3543  143.4830 H   0  0  0  0  0  0  0  0  0  0  0  0  # atno 7974 bound_to 7965
  154.5816  140.2401  155.8046 H   0  0  0  0  0  0  0  0  0  0  0  0  # atno 8008 bound_to 7997
  156.2183  140.3005  155.9847 H   0  0  0  0  0  0  0  0  0  0  0  0  # atno 8009 bound_to 7997
  155.2532  140.0411  157.2979 H   0  0  0  0  0  0  0  0  0  0  0  0  # atno 8010 bound_to 7997
  140.6026  143.2365  151.5895 H   0  0  0  0  0  0  0  0  0  0  0  0  # atno 10167 bound_to 10162
  157.4233  131.1041  151.0330 H   0  0  0  0  0  0  0  0  0  0  0  0  # atno 10718 bound_to 10713
  153.3132  135.4081  155.1353 H   0  0  0  0  0  0  0  0  0  0  0  0  # atno 10763 bound_to 10752
  154.8581  135.3569  154.5696 H   0  0  0  0  0  0  0  0  0  0  0  0  # atno 10764 bound_to 10752
  153.6125  135.7067  153.5400 H   0  0  0  0  0  0  0  0  0  0  0  0  # atno 10765 bound_to 10752
  139.9360  134.9639  156.8414 H   0  0  0  0  0  0  0  0  0  0  0  0  # atno 11005 bound_to 11000
  146.3530  140.0835  142.8616 LP  0  0  0  0  0  0  0  0  0  0  0  0  # atno 17320 bound_to 7965
  145.0995  140.9337  143.4721 LP  0  0  0  0  0  0  0  0  0  0  0  0  # atno 17321 bound_to 7965
  139.5301  144.2940  152.1129 LP  0  0  0  0  0  0  0  0  0  0  0  0  # atno 17342 bound_to 10162
  140.2124  144.4550  150.6380 LP  0  0  0  0  0  0  0  0  0  0  0  0  # atno 17343 bound_to 10162
  157.1252  130.6079  149.5515 LP  0  0  0  0  0  0  0  0  0  0  0  0  # atno 17370 bound_to 10713
  155.9888  130.4933  150.7186 LP  0  0  0  0  0  0  0  0  0  0  0  0  # atno 17371 bound_to 10713
  140.6074  134.0114  155.7562 LP  0  0  0  0  0  0  0  0  0  0  0  0  # atno 17394 bound_to 11000
  141.0974  133.9822  157.3137 LP  0  0  0  0  0  0  0  0  0  0  0  0  # atno 17395 bound_to 11000

$$$$
