AV-unprocessed.smi:3335|AV-procd|sdf|12852|dock1
  -GOLD-   2272019243D 1   1.00000     0.00000
 Structure written by MMmdl.
 46 47  0  0  0  0  0  0  0  0  1 V2000
  145.9513  138.0627  151.9599 C   0  0  0  0  0  0  0  0  0  0  0  0
  146.7522  138.9192  152.8976 C   0  0  0  0  0  0  0  0  0  0  0  0
  146.2728  139.8815  153.8310 C   0  0  0  0  0  0  0  0  0  0  0  0
  147.2450  140.4686  154.5088 N   0  0  0  0  0  0  0  0  0  0  0  0
  148.3789  139.9031  154.0370 N   0  0  0  0  0  0  0  0  0  0  0  0
  149.6780  140.3097  154.5588 C   0  0  1  0  0  0  0  0  0  0  0  0
  149.5081  141.5103  155.5108 C   0  0  0  0  0  0  0  0  0  0  0  0
  150.4418  139.1301  155.2198 C   0  0  1  0  0  0  0  0  0  0  0  0
  151.0824  138.1679  154.1967 C   0  0  0  0  0  0  0  0  0  0  0  0
  151.4985  139.6933  156.0639 N   0  0  0  0  0  0  0  0  0  0  0  0
  151.1359  139.9178  157.4774 C   0  0  1  0  0  0  0  0  0  0  0  0
  150.5438  138.6262  158.0619 C   0  0  0  0  0  0  0  0  0  0  0  0
  152.3289  140.3819  158.3434 C   0  0  0  0  0  0  0  0  0  0  0  0
  153.2492  139.5903  158.5570 O   0  0  0  0  0  0  0  0  0  0  0  0
  152.3399  141.6361  158.8446 N   0  0  0  0  0  0  0  0  0  0  0  0
  153.4388  142.1629  159.6526 C   0  0  0  0  0  0  0  0  0  0  0  0
  153.1606  143.6574  159.8134 C   0  0  0  0  0  0  0  0  0  0  0  0
  151.6515  143.7726  159.6552 C   0  0  0  0  0  0  0  0  0  0  0  0
  151.2899  142.6432  158.6905 C   0  0  0  0  0  0  0  0  0  0  0  0
  148.1076  138.9660  153.0616 C   0  0  0  0  0  0  0  0  0  0  0  0
  144.8787  138.1943  152.1055 H   0  0  0  0  0  0  0  0  0  0  0  0
  146.1667  137.0034  152.1006 H   0  0  0  0  0  0  0  0  0  0  0  0
  146.1657  138.2993  150.9177 H   0  0  0  0  0  0  0  0  0  0  0  0
  145.2520  140.1695  154.0347 H   0  0  0  0  0  0  0  0  0  0  0  0
  150.2596  140.6506  153.7004 H   0  0  0  0  0  0  0  0  0  0  0  0
  150.4710  141.9177  155.8185 H   0  0  0  0  0  0  0  0  0  0  0  0
  148.9653  141.2310  156.4144 H   0  0  0  0  0  0  0  0  0  0  0  0
  148.9559  142.3170  155.0275 H   0  0  0  0  0  0  0  0  0  0  0  0
  149.7240  138.5666  155.8162 H   0  0  0  0  0  0  0  0  0  0  0  0
  150.3312  137.6930  153.5659 H   0  0  0  0  0  0  0  0  0  0  0  0
  151.6295  137.3605  154.6822 H   0  0  0  0  0  0  0  0  0  0  0  0
  151.7786  138.6936  153.5425 H   0  0  0  0  0  0  0  0  0  0  0  0
  151.8336  140.5490  155.6443 H   0  0  0  0  0  0  0  0  0  0  0  0
  150.3500  140.6700  157.4965 H   0  0  0  0  0  0  0  0  0  0  0  0
  150.2316  138.7639  159.0977 H   0  0  0  0  0  0  0  0  0  0  0  0
  151.2649  137.8078  158.0387 H   0  0  0  0  0  0  0  0  0  0  0  0
  149.6662  138.3094  157.4976 H   0  0  0  0  0  0  0  0  0  0  0  0
  153.4352  141.6661  160.6241 H   0  0  0  0  0  0  0  0  0  0  0  0
  154.4104  141.9896  159.1867 H   0  0  0  0  0  0  0  0  0  0  0  0
  153.5188  144.0549  160.7635 H   0  0  0  0  0  0  0  0  0  0  0  0
  153.6542  144.2099  159.0128 H   0  0  0  0  0  0  0  0  0  0  0  0
  151.1693  143.5986  160.6180 H   0  0  0  0  0  0  0  0  0  0  0  0
  151.3361  144.7525  159.2961 H   0  0  0  0  0  0  0  0  0  0  0  0
  151.2932  143.0068  157.6618 H   0  0  0  0  0  0  0  0  0  0  0  0
  150.2983  142.2463  158.9116 H   0  0  0  0  0  0  0  0  0  0  0  0
  148.8942  138.4135  152.5695 H   0  0  0  0  0  0  0  0  0  0  0  0
  1  2  1  0  0  0  0
  1 21  1  0  0  0  0
  1 22  1  0  0  0  0
  1 23  1  0  0  0  0
  2 20  2  0  0  0  0
  2  3  1  0  0  0  0
  3  4  2  0  0  0  0
  3 24  1  0  0  0  0
  4  5  1  0  0  0  0
  5  6  1  0  0  0  0
  5 20  1  0  0  0  0
  6  7  1  0  0  0  0
  6  8  1  0  0  0  0
  6 25  1  0  0  0  0
  7 26  1  0  0  0  0
  7 27  1  0  0  0  0
  7 28  1  0  0  0  0
  8  9  1  0  0  0  0
  8 10  1  0  0  0  0
  8 29  1  0  0  0  0
  9 30  1  0  0  0  0
  9 31  1  0  0  0  0
  9 32  1  0  0  0  0
 10 11  1  0  0  0  0
 10 33  1  0  0  0  0
 11 12  1  0  0  0  0
 11 13  1  0  0  0  0
 11 34  1  0  0  0  0
 12 35  1  0  0  0  0
 12 36  1  0  0  0  0
 12 37  1  0  0  0  0
 13 14  2  0  0  0  0
 13 15  1  0  0  0  0
 15 19  1  0  0  0  0
 15 16  1  0  0  0  0
 16 17  1  0  0  0  0
 16 38  1  0  0  0  0
 16 39  1  0  0  0  0
 17 18  1  0  0  0  0
 17 40  1  0  0  0  0
 17 41  1  0  0  0  0
 18 19  1  0  0  0  0
 18 42  1  0  0  0  0
 18 43  1  0  0  0  0
 19 44  1  0  0  0  0
 19 45  1  0  0  0  0
 20 46  1  0  0  0  0
M  END
> <s_m_source_file>
AV-unprocessed.smi

> <i_m_source_file_index>
3335

> <i_lp_mmshare_version>
43012

> <i_f3d_flags>
0

> <s_epik_input>
W0NIM11jMVtjSF1ubihbY0hdMSlbQ0BIXShbQ0gzXSlbQ0BIXShbQ0gzXSlbTkhdW0NASF0oW0NIM10pQyg9TylOMltDSDJdW0NIMl1bQ0gyXVtDSDJdMg==

> <s_epik_cmdline>
J2VwaWtfcHl0aG9uJywgJy1waCcsICc3LjAnLCAnLXRuJywgJzgnLCAnLW1hJywgJzIwMCcsICctbWV0YWxfYmluZGluZycsICctaW1hZScsICc8aW5maWxlLm1hZT4nLCAnLW9tYWUnLCAnPG91dGZpbGUubWFlPic=

> <r_lp_tautomer_probability>
1

> <r_epik_Ionization_Penalty>
0.918803

> <r_epik_Ionization_Penalty_Charging>
0

> <r_epik_Ionization_Penalty_Neutral>
0.918803

> <r_epik_State_Penalty>
0.958258

> <r_epik_Charging_Adjusted_Penalty>
0.958258

> <i_epik_Tot_Q>
0

> <i_epik_Tot_abs_Q>
0

> <r_epik_Metal_State_Penalty>
0.956786

> <b_epik_Metal_Only>
0

> <s_lp_Force_Field>
OPLS_2005

> <r_lp_Energy>
36.4187

> <b_lp_Chiralities_Consistent>
1

> <s_lp_Variant>
AV-unprocessed.smi:3335-16

> <Gold.Version>
5.8.1

> <Gold.Id.Protein>
6NUR|6NUR_protein|mol2

> <Gold.PLP.Fitness>
40.3599

> <Gold.PLP.PLP>
-32.2872

> <Gold.PLP.part.hbond>
-1.0000

> <Gold.PLP.part.metal>
0.0000

> <Gold.PLP.part.buried>
0.3817

> <Gold.PLP.part.nonpolar>
-32.3484

> <Gold.PLP.part.repulsive>
0.0818

> <Gold.PLP.ligand.clash>
0.0000

> <Gold.PLP.ligand.torsion>
0.9859

> <Gold.PLP.Chemscore.Hbond>
1.0000

> <Gold.PLP.Chemscore.CHOScore>
2.1904

> <Gold.PLP.Chemscore.Metal>
0.0000

> <Gold.Chemscore.Hbonds>
donor molecule, donor type, donor heavy atom, donor atom, acceptor molecule, acceptor atom, score
      P1  H  7997  8009       L1    14  0.89
      L1  C     3    24       P1 10175  0.90
      L1  C    20    46       P1  7948  1.00
      L1  C    20    46       P1  7957  0.38

> <Gold.PLP.Chemscore.Internal.Correction>
0.4733

> <Gold.Rescore>
     Score         DG    S(hbond)    S(metal)    S(lipo)     H(rot)  DE(clash)    DE(int)     intcor
     14.64     -16.33       0.97        0.00     100.38       1.62       0.15       1.54       ----

> <Gold.Chemscore.Fitness>
14.6408

> <Gold.Chemscore.DG>
-16.3299

> <Gold.Chemscore.ZeroCoef>
-5.4800

> <Gold.Chemscore.Hbond>
0.9743

> <Gold.Chemscore.Metal>
0.0000

> <Gold.Chemscore.Lipo>
100.3758

> <Gold.Chemscore.Internal_Hbond>
0.0000

> <Gold.Chemscore.DEClash>
0.1505

> <Gold.Chemscore.DEInternal>
1.5386

> <Gold.Chemscore.Rot>
1.6204

> <Gold.Chemscore.Internal.Correction>
   9.000000E+99

> <Gold.Chemscore.Hbonds>
donor molecule, donor type, donor heavy atom, donor atom, acceptor molecule, acceptor atom, score
      P1  H  7997  8009       L1    14  0.38

> <Gold.Chemscore.Hbond.Weighted>
-3.2541

> <Gold.Chemscore.Metal.Weighted>
-0.0000

> <Gold.Chemscore.Lipo.Weighted>
-11.7440

> <Gold.Chemscore.Internal_Hbond.Weighted>
0.0000

> <Gold.Chemscore.DEClash.Weighted>
0.1505

> <Gold.Chemscore.DEInternal.Weighted>
1.5386

> <Gold.Chemscore.Rot.Weighted>
4.1482

> <Gold.Chemscore.Internal.Correction.Weighted>
   9.000000E+99

> <Gold.Protein.RotatedTorsions>
[ 6907 6896 6895 6894 ] final  -14.78 input  -60.11 | X-H torsion
[ 7974 7965 7964 7962 ] final  -54.33 input  175.53 | X-H torsion
[ 8008 7997 7996 7995 ] final  149.94 input   59.86 | X-H torsion
[ 10167 10162 10161 10158 ] final -110.17 input  -65.29 | X-H torsion
[ 10718 10713 10712 10709 ] final  -74.38 input   66.30 | X-H torsion
[ 10763 10752 10751 10750 ] final -114.85 input  -60.55 | X-H torsion
[ 11005 11000 10999 10996 ] final  150.55 input  -57.11 | X-H torsion

> <Gold.Protein.ActiveResidues>
 VAL166  LYS551  ARG553  GLY616  TRP617  ASP618  TYR619  PRO620  LYS621  CYS622 
 ASP623  PHE694  ASN695  SER759  ASP760  ASP761  ALA762  ILE779  LEU786  VAL792 
 PHE793  MET794  SER795  GLU796  ALA797  LYS798  CYS799  TRP800  GLU811  SER814 

> <Gold.Protein.RotatedAtoms>
  151.3341  135.0848  159.9348 H   0  0  0  0  0  0  0  0  0  0  0  0  # atno 6907 bound_to 6896
  152.5227  133.9513  159.7683 H   0  0  0  0  0  0  0  0  0  0  0  0  # atno 6908 bound_to 6896
  150.9857  133.6147  159.2745 H   0  0  0  0  0  0  0  0  0  0  0  0  # atno 6909 bound_to 6896
  145.8868  140.8102  142.9812 H   0  0  0  0  0  0  0  0  0  0  0  0  # atno 7974 bound_to 7965
  156.2735  140.2088  156.5938 H   0  0  0  0  0  0  0  0  0  0  0  0  # atno 8008 bound_to 7997
  154.6961  140.0525  157.0435 H   0  0  0  0  0  0  0  0  0  0  0  0  # atno 8009 bound_to 7997
  155.0799  140.3185  155.4607 H   0  0  0  0  0  0  0  0  0  0  0  0  # atno 8010 bound_to 7997
  140.1474  143.4228  152.1519 H   0  0  0  0  0  0  0  0  0  0  0  0  # atno 10167 bound_to 10162
  156.0245  130.4415  150.2884 H   0  0  0  0  0  0  0  0  0  0  0  0  # atno 10718 bound_to 10713
  154.8457  135.4403  154.1571 H   0  0  0  0  0  0  0  0  0  0  0  0  # atno 10763 bound_to 10752
  153.2717  135.6945  153.7480 H   0  0  0  0  0  0  0  0  0  0  0  0  # atno 10764 bound_to 10752
  153.6718  135.3417  155.3130 H   0  0  0  0  0  0  0  0  0  0  0  0  # atno 10765 bound_to 10752
  140.1141  134.8906  157.1978 H   0  0  0  0  0  0  0  0  0  0  0  0  # atno 11005 bound_to 11000
  144.6729  140.1468  143.7433 LP  0  0  0  0  0  0  0  0  0  0  0  0  # atno 17320 bound_to 7965
  145.8957  139.2401  143.1523 LP  0  0  0  0  0  0  0  0  0  0  0  0  # atno 17321 bound_to 7965
  139.5442  144.7284  151.4635 LP  0  0  0  0  0  0  0  0  0  0  0  0  # atno 17342 bound_to 10162
  140.6723  143.8265  150.7015 LP  0  0  0  0  0  0  0  0  0  0  0  0  # atno 17343 bound_to 10162
  157.0987  131.0189  151.3094 LP  0  0  0  0  0  0  0  0  0  0  0  0  # atno 17370 bound_to 10713
  157.4797  130.7757  149.7402 LP  0  0  0  0  0  0  0  0  0  0  0  0  # atno 17371 bound_to 10713
  140.3052  134.3086  155.7280 LP  0  0  0  0  0  0  0  0  0  0  0  0  # atno 17394 bound_to 11000
  141.2137  133.7616  156.9698 LP  0  0  0  0  0  0  0  0  0  0  0  0  # atno 17395 bound_to 11000

$$$$
