AV-unprocessed.smi:703|AV-procd|sdf|3434|dock4
  -GOLD-   22720 0423D 1   1.00000     0.00000
 Structure written by MMmdl.
 37 38  0  0  0  0  0  0  0  0  3 V2000
  149.4299  135.3900  155.2711 C   0  0  0  0  0  0  0  0  0  0  0  0
  148.4521  136.5726  155.2484 C   0  0  0  0  0  0  0  0  0  0  0  0
  148.8947  137.6504  154.3303 N   0  3  1  0  0  0  0  0  0  0  0  0
  147.9485  138.7846  154.2006 C   0  0  0  0  0  0  0  0  0  0  0  0
  148.8229  140.0213  153.9700 C   0  0  1  0  0  0  0  0  0  0  0  0
  148.1108  141.3704  154.2039 C   0  0  0  0  0  0  0  0  0  0  0  0
  150.0829  139.7243  154.8041 C   0  0  1  0  0  0  0  0  0  0  0  0
  149.8688  140.0368  156.2127 N   0  5  0  0  0  0  0  0  0  0  0  0
  151.0059  139.6423  157.2975 S   0  0  0  0  0  0  0  0  0  0  0  0
  150.5578  138.5856  158.2189 O   0  0  0  0  0  0  0  0  0  0  0  0
  152.3348  139.4774  156.6864 O   0  0  0  0  0  0  0  0  0  0  0  0
  151.0829  141.1954  158.2875 C   0  0  0  0  0  0  0  0  0  0  0  0
  152.0598  141.0402  159.4191 C   0  0  0  0  0  0  0  0  0  0  0  0
  152.3674  141.9631  160.4572 C   0  0  0  0  0  0  0  0  0  0  0  0
  153.3069  141.3078  161.1993 C   0  0  0  0  0  0  0  0  0  0  0  0
  153.5552  140.0810  160.6757 O   0  0  0  0  0  0  0  0  0  0  0  0
  152.7516  139.9177  159.5415 N   0  0  0  0  0  0  0  0  0  0  0  0
  150.2378  138.2034  154.6446 C   0  0  0  0  0  0  0  0  0  0  0  0
  149.1147  134.6444  156.0014 H   0  0  0  0  0  0  0  0  0  0  0  0
  150.4352  135.7142  155.5412 H   0  0  0  0  0  0  0  0  0  0  0  0
  149.4850  134.8941  154.3017 H   0  0  0  0  0  0  0  0  0  0  0  0
  147.4520  136.2361  154.9708 H   0  0  0  0  0  0  0  0  0  0  0  0
  148.3771  136.9824  156.2564 H   0  0  0  0  0  0  0  0  0  0  0  0
  147.2504  138.6180  153.3796 H   0  0  0  0  0  0  0  0  0  0  0  0
  147.3560  138.8956  155.1128 H   0  0  0  0  0  0  0  0  0  0  0  0
  149.1315  140.0042  152.9232 H   0  0  0  0  0  0  0  0  0  0  0  0
  147.7075  141.4602  155.2141 H   0  0  0  0  0  0  0  0  0  0  0  0
  147.2729  141.4816  153.5154 H   0  0  0  0  0  0  0  0  0  0  0  0
  148.7801  142.2160  154.0360 H   0  0  0  0  0  0  0  0  0  0  0  0
  150.9491  140.2411  154.3893 H   0  0  0  0  0  0  0  0  0  0  0  0
  151.3787  142.0087  157.6252 H   0  0  0  0  0  0  0  0  0  0  0  0
  150.0802  141.4139  158.6555 H   0  0  0  0  0  0  0  0  0  0  0  0
  151.9664  142.9519  160.6240 H   0  0  0  0  0  0  0  0  0  0  0  0
  153.8651  141.5676  162.0865 H   0  0  0  0  0  0  0  0  0  0  0  0
  150.6998  137.7340  155.5156 H   0  0  0  0  0  0  0  0  0  0  0  0
  150.8861  137.9888  153.7943 H   0  0  0  0  0  0  0  0  0  0  0  0
  148.9800  137.2383  153.4125 H   0  0  0  0  0  0  0  0  0  0  0  0
  1  2  1  0  0  0  0
  1 19  1  0  0  0  0
  1 20  1  0  0  0  0
  1 21  1  0  0  0  0
  2  3  1  0  0  0  0
  2 22  1  0  0  0  0
  2 23  1  0  0  0  0
  3 18  1  0  0  0  0
  3  4  1  0  0  0  0
  3 37  1  0  0  0  0
  4  5  1  0  0  0  0
  4 24  1  0  0  0  0
  4 25  1  0  0  0  0
  5  6  1  0  0  0  0
  5  7  1  0  0  0  0
  5 26  1  0  0  0  0
  6 27  1  0  0  0  0
  6 28  1  0  0  0  0
  6 29  1  0  0  0  0
  7  8  1  0  0  0  0
  7 18  1  0  0  0  0
  7 30  1  0  0  0  0
  8  9  1  0  0  0  0
  9 10  2  0  0  0  0
  9 11  2  0  0  0  0
  9 12  1  0  0  0  0
 12 13  1  0  0  0  0
 12 31  1  0  0  0  0
 12 32  1  0  0  0  0
 13 17  2  0  0  0  0
 13 14  1  0  0  0  0
 14 15  2  0  0  0  0
 14 33  1  0  0  0  0
 15 16  1  0  0  0  0
 15 34  1  0  0  0  0
 16 17  1  0  0  0  0
 18 35  1  0  0  0  0
 18 36  1  0  0  0  0
M  CHG  1   3   1
M  CHG  1   8  -1
M  END
> <s_m_source_file>
AV-unprocessed.smi

> <i_m_source_file_index>
703

> <i_lp_mmshare_version>
43012

> <i_f3d_flags>
0

> <s_epik_input>
W0NIM11bQ0gyXU4xW0NIMl1bQ0BASF0oW0NIM10pW0NASF0oW0NIMl0xKVtOSF1TKD1PKSg9TylbQ0gyXWMyW2NIXVtjSF1vbjI=

> <s_epik_cmdline>
J2VwaWtfcHl0aG9uJywgJy1waCcsICc3LjAnLCAnLXRuJywgJzgnLCAnLW1hJywgJzIwMCcsICctbWV0YWxfYmluZGluZycsICctaW1hZScsICc8aW5maWxlLm1hZT4nLCAnLW9tYWUnLCAnPG91dGZpbGUubWFlPic=

> <r_epik_Ionization_Penalty>
3.62494

> <r_epik_Ionization_Penalty_Charging>
3.62494

> <r_epik_Ionization_Penalty_Neutral>
2.0321e-10

> <r_epik_State_Penalty>
3.62558

> <r_epik_Charging_Adjusted_Penalty>
7.25052

> <i_epik_Tot_Q>
0

> <i_epik_Tot_abs_Q>
2

> <r_epik_Metal_State_Penalty>
0.530836

> <b_epik_Metal_Only>
1

> <s_lp_Force_Field>
OPLS_2005

> <r_lp_Energy>
18.2255

> <b_lp_Chiralities_Consistent>
1

> <s_lp_Variant>
AV-unprocessed.smi:703-9

> <Gold.Version>
5.8.1

> <Gold.Id.Protein>
6NUR|6NUR_protein|mol2

> <Gold.PLP.Fitness>
38.9088

> <Gold.PLP.PLP>
-30.0964

> <Gold.PLP.part.hbond>
-2.0000

> <Gold.PLP.part.metal>
0.0000

> <Gold.PLP.part.buried>
-1.3385

> <Gold.PLP.part.nonpolar>
-26.1089

> <Gold.PLP.part.repulsive>
0.0214

> <Gold.PLP.ligand.clash>
0.0000

> <Gold.PLP.ligand.torsion>
0.6163

> <Gold.PLP.Chemscore.Hbond>
3.0000

> <Gold.PLP.Chemscore.CHOScore>
0.0000

> <Gold.PLP.Chemscore.Metal>
0.0000

> <Gold.Chemscore.Hbonds>
donor molecule, donor type, donor heavy atom, donor atom, acceptor molecule, acceptor atom, score
      L1  H     3    37       P1  7948  2.00
      P1  H  7997  8008       L1    11  0.62

> <Gold.PLP.Chemscore.Internal.Correction>
1.0450

> <Gold.Rescore>
     Score         DG    S(hbond)    S(metal)    S(lipo)     H(rot)  DE(clash)    DE(int)     intcor
     14.34     -16.84       1.99        0.00      75.94       1.63       0.25       2.25       ----

> <Gold.Chemscore.Fitness>
14.3384

> <Gold.Chemscore.DG>
-16.8397

> <Gold.Chemscore.ZeroCoef>
-5.4800

> <Gold.Chemscore.Hbond>
1.9933

> <Gold.Chemscore.Metal>
0.0000

> <Gold.Chemscore.Lipo>
75.9353

> <Gold.Chemscore.Internal_Hbond>
0.0000

> <Gold.Chemscore.DEClash>
0.2544

> <Gold.Chemscore.DEInternal>
2.2469

> <Gold.Chemscore.Rot>
1.6338

> <Gold.Chemscore.Internal.Correction>
   9.000000E+99

> <Gold.Chemscore.Hbonds>
donor molecule, donor type, donor heavy atom, donor atom, acceptor molecule, acceptor atom, score
      L1  H     3    37       P1  7948  1.00
      P1  H  7997  8008       L1    11  0.59

> <Gold.Chemscore.Hbond.Weighted>
-6.6578

> <Gold.Chemscore.Metal.Weighted>
-0.0000

> <Gold.Chemscore.Lipo.Weighted>
-8.8844

> <Gold.Chemscore.Internal_Hbond.Weighted>
0.0000

> <Gold.Chemscore.DEClash.Weighted>
0.2544

> <Gold.Chemscore.DEInternal.Weighted>
2.2469

> <Gold.Chemscore.Rot.Weighted>
4.1825

> <Gold.Chemscore.Internal.Correction.Weighted>
   9.000000E+99

> <Gold.Protein.RotatedTorsions>
[ 6907 6896 6895 6894 ] final   -1.37 input  -60.11 | X-H torsion
[ 7974 7965 7964 7962 ] final    6.59 input  175.53 | X-H torsion
[ 8008 7997 7996 7995 ] final  -32.69 input   59.86 | X-H torsion
[ 10167 10162 10161 10158 ] final   80.28 input  -65.29 | X-H torsion
[ 10718 10713 10712 10709 ] final  108.08 input   66.30 | X-H torsion
[ 10763 10752 10751 10750 ] final   52.80 input  -60.55 | X-H torsion
[ 11005 11000 10999 10996 ] final   -2.47 input  -57.11 | X-H torsion

> <Gold.Protein.ActiveResidues>
 VAL166  LYS551  ARG553  GLY616  TRP617  ASP618  TYR619  PRO620  LYS621  CYS622 
 ASP623  PHE694  ASN695  SER759  ASP760  ASP761  ALA762  ILE779  LEU786  VAL792 
 PHE793  MET794  SER795  GLU796  ALA797  LYS798  CYS799  TRP800  GLU811  SER814 

> <Gold.Protein.RotatedAtoms>
  151.5471  135.1068  159.9940 H   0  0  0  0  0  0  0  0  0  0  0  0  # atno 6907 bound_to 6896
  152.4508  133.7622  159.6763 H   0  0  0  0  0  0  0  0  0  0  0  0  # atno 6908 bound_to 6896
  150.8436  133.7829  159.3075 H   0  0  0  0  0  0  0  0  0  0  0  0  # atno 6909 bound_to 6896
  146.2433  140.0210  142.8398 H   0  0  0  0  0  0  0  0  0  0  0  0  # atno 7974 bound_to 7965
  154.4172  140.1730  156.1768 H   0  0  0  0  0  0  0  0  0  0  0  0  # atno 8008 bound_to 7997
  155.9715  140.3385  155.6556 H   0  0  0  0  0  0  0  0  0  0  0  0  # atno 8009 bound_to 7997
  155.6619  140.0702  157.2542 H   0  0  0  0  0  0  0  0  0  0  0  0  # atno 8010 bound_to 7997
  139.9515  144.6023  150.8157 H   0  0  0  0  0  0  0  0  0  0  0  0  # atno 10167 bound_to 10162
  157.6601  131.0886  150.6252 H   0  0  0  0  0  0  0  0  0  0  0  0  # atno 10718 bound_to 10713
  152.9791  135.5800  154.4637 H   0  0  0  0  0  0  0  0  0  0  0  0  # atno 10763 bound_to 10752
  154.4210  135.2771  155.1977 H   0  0  0  0  0  0  0  0  0  0  0  0  # atno 10764 bound_to 10752
  154.3727  135.6164  153.5802 H   0  0  0  0  0  0  0  0  0  0  0  0  # atno 10765 bound_to 10752
  140.6587  133.9339  155.8423 H   0  0  0  0  0  0  0  0  0  0  0  0  # atno 11005 bound_to 11000
  145.1241  140.9480  143.4583 LP  0  0  0  0  0  0  0  0  0  0  0  0  # atno 17320 bound_to 7965
  145.0452  139.3227  143.5956 LP  0  0  0  0  0  0  0  0  0  0  0  0  # atno 17321 bound_to 7965
  140.7581  143.3101  151.2866 LP  0  0  0  0  0  0  0  0  0  0  0  0  # atno 17342 bound_to 10162
  139.6625  144.0164  152.2702 LP  0  0  0  0  0  0  0  0  0  0  0  0  # atno 17343 bound_to 10162
  156.6555  130.4497  149.5705 LP  0  0  0  0  0  0  0  0  0  0  0  0  # atno 17370 bound_to 10713
  156.2105  130.6676  151.1265 LP  0  0  0  0  0  0  0  0  0  0  0  0  # atno 17371 bound_to 10713
  141.0482  134.0524  157.3818 LP  0  0  0  0  0  0  0  0  0  0  0  0  # atno 17394 bound_to 11000
  139.9020  135.0168  156.7314 LP  0  0  0  0  0  0  0  0  0  0  0  0  # atno 17395 bound_to 11000

$$$$
