AV-unprocessed.smi:2139|AV-procd|sdf|8713|dock2
  -GOLD-   2272011473D 1   1.00000     0.00000
 Structure written by MMmdl.
 40 41  0  0  0  0  0  0  0  0  1 V2000
  151.9758  145.2496  159.2260 C   0  0  0  0  0  0  0  0  0  0  0  0
  151.0610  144.6975  158.1232 C   0  0  0  0  0  0  0  0  0  0  0  0
  151.4535  143.2900  157.6338 C   0  0  1  0  0  0  0  0  0  0  0  0
  151.6283  142.3113  158.8032 C   0  0  0  0  0  0  0  0  0  0  0  0
  150.4460  142.7628  156.7145 N   0  0  0  0  0  0  0  0  0  0  0  0
  150.3985  141.5102  156.2306 C   0  0  0  0  0  0  0  0  0  0  0  0
  151.2344  140.6446  156.4917 O   0  0  0  0  0  0  0  0  0  0  0  0
  149.2512  141.2318  155.2938 C   0  0  0  0  0  0  0  0  0  0  0  0
  148.3798  142.2858  154.9328 C   0  0  0  0  0  0  0  0  0  0  0  0
  147.2785  142.0230  154.0991 C   0  0  0  0  0  0  0  0  0  0  0  0
  147.0789  140.7041  153.6581 C   0  0  0  0  0  0  0  0  0  0  0  0
  147.8952  139.6845  153.9914 N   0  0  0  0  0  0  0  0  0  0  0  0
  148.9629  139.9275  154.7919 C   0  0  0  0  0  0  0  0  0  0  0  0
  149.8049  138.8314  155.0654 N   0  0  0  0  0  0  0  0  0  0  0  0
  149.2094  137.4999  155.0432 C   0  0  0  0  0  0  0  0  0  0  0  0
  150.2107  136.4752  155.6038 C   0  0  0  0  0  0  0  0  0  0  0  0
  151.4282  136.5421  154.8655 O   0  0  0  0  0  0  0  0  0  0  0  0
  152.0382  137.8277  154.9498 C   0  0  0  0  0  0  0  0  0  0  0  0
  151.0862  138.8895  154.3742 C   0  0  0  0  0  0  0  0  0  0  0  0
  151.6078  146.2094  159.5886 H   0  0  0  0  0  0  0  0  0  0  0  0
  152.9910  145.4045  158.8624 H   0  0  0  0  0  0  0  0  0  0  0  0
  152.0236  144.5687  160.0763 H   0  0  0  0  0  0  0  0  0  0  0  0
  150.0397  144.6689  158.5049 H   0  0  0  0  0  0  0  0  0  0  0  0
  151.0500  145.3927  157.2828 H   0  0  0  0  0  0  0  0  0  0  0  0
  152.4186  143.3684  157.1305 H   0  0  0  0  0  0  0  0  0  0  0  0
  152.3926  142.6618  159.4973 H   0  0  0  0  0  0  0  0  0  0  0  0
  151.9347  141.3268  158.4479 H   0  0  0  0  0  0  0  0  0  0  0  0
  150.7007  142.1899  159.3634 H   0  0  0  0  0  0  0  0  0  0  0  0
  149.7223  143.4041  156.4241 H   0  0  0  0  0  0  0  0  0  0  0  0
  148.5411  143.2902  155.2971 H   0  0  0  0  0  0  0  0  0  0  0  0
  146.5992  142.8120  153.8118 H   0  0  0  0  0  0  0  0  0  0  0  0
  146.2423  140.4605  153.0200 H   0  0  0  0  0  0  0  0  0  0  0  0
  148.2931  137.4923  155.6342 H   0  0  0  0  0  0  0  0  0  0  0  0
  148.9415  137.2319  154.0204 H   0  0  0  0  0  0  0  0  0  0  0  0
  150.4044  136.6599  156.6615 H   0  0  0  0  0  0  0  0  0  0  0  0
  149.8017  135.4679  155.5252 H   0  0  0  0  0  0  0  0  0  0  0  0
  152.2910  138.0553  155.9869 H   0  0  0  0  0  0  0  0  0  0  0  0
  152.9729  137.8161  154.3888 H   0  0  0  0  0  0  0  0  0  0  0  0
  150.9266  138.7123  153.3097 H   0  0  0  0  0  0  0  0  0  0  0  0
  151.5302  139.8797  154.4686 H   0  0  0  0  0  0  0  0  0  0  0  0
  1  2  1  0  0  0  0
  1 20  1  0  0  0  0
  1 21  1  0  0  0  0
  1 22  1  0  0  0  0
  2  3  1  0  0  0  0
  2 23  1  0  0  0  0
  2 24  1  0  0  0  0
  3  4  1  0  0  0  0
  3  5  1  0  0  0  0
  3 25  1  0  0  0  0
  4 26  1  0  0  0  0
  4 27  1  0  0  0  0
  4 28  1  0  0  0  0
  5  6  1  0  0  0  0
  5 29  1  0  0  0  0
  6  7  2  0  0  0  0
  6  8  1  0  0  0  0
  8 13  1  0  0  0  0
  8  9  2  0  0  0  0
  9 10  1  0  0  0  0
  9 30  1  0  0  0  0
 10 11  2  0  0  0  0
 10 31  1  0  0  0  0
 11 12  1  0  0  0  0
 11 32  1  0  0  0  0
 12 13  2  0  0  0  0
 13 14  1  0  0  0  0
 14 19  1  0  0  0  0
 14 15  1  0  0  0  0
 15 16  1  0  0  0  0
 15 33  1  0  0  0  0
 15 34  1  0  0  0  0
 16 17  1  0  0  0  0
 16 35  1  0  0  0  0
 16 36  1  0  0  0  0
 17 18  1  0  0  0  0
 18 19  1  0  0  0  0
 18 37  1  0  0  0  0
 18 38  1  0  0  0  0
 19 39  1  0  0  0  0
 19 40  1  0  0  0  0
M  END
> <s_m_source_file>
AV-unprocessed.smi

> <i_m_source_file_index>
2139

> <i_lp_mmshare_version>
43012

> <i_f3d_flags>
0

> <s_epik_input>
W0NIM11bQ0gyXVtDQEhdKFtDSDNdKVtOSF1DKD1PKWMxW2NIXVtjSF1bY0hdbmMxTjJbQ0gyXVtDSDJdT1tDSDJdW0NIMl0y

> <s_epik_cmdline>
J2VwaWtfcHl0aG9uJywgJy1waCcsICc3LjAnLCAnLXRuJywgJzgnLCAnLW1hJywgJzIwMCcsICctbWV0YWxfYmluZGluZycsICctaW1hZScsICc8aW5maWxlLm1hZT4nLCAnLW9tYWUnLCAnPG91dGZpbGUubWFlPic=

> <r_lp_tautomer_probability>
1

> <r_epik_Ionization_Penalty>
1.73125e-05

> <r_epik_Ionization_Penalty_Charging>
0

> <r_epik_Ionization_Penalty_Neutral>
1.73125e-05

> <r_epik_State_Penalty>
-0

> <r_epik_Charging_Adjusted_Penalty>
0

> <i_epik_Tot_Q>
0

> <i_epik_Tot_abs_Q>
0

> <r_epik_Metal_State_Penalty>
-0

> <b_epik_Metal_Only>
0

> <s_lp_Force_Field>
OPLS_2005

> <r_lp_Energy>
25.2402

> <b_lp_Chiralities_Consistent>
1

> <s_lp_Variant>
AV-unprocessed.smi:2139-2

> <Gold.Version>
5.8.1

> <Gold.Id.Protein>
6NUR|6NUR_protein|mol2

> <Gold.PLP.Fitness>
41.8828

> <Gold.PLP.PLP>
-34.1877

> <Gold.PLP.part.hbond>
-2.0000

> <Gold.PLP.part.metal>
0.0000

> <Gold.PLP.part.buried>
-1.6994

> <Gold.PLP.part.nonpolar>
-32.2822

> <Gold.PLP.part.repulsive>
0.4795

> <Gold.PLP.ligand.clash>
0.0000

> <Gold.PLP.ligand.torsion>
0.6414

> <Gold.PLP.Chemscore.Hbond>
2.0000

> <Gold.PLP.Chemscore.CHOScore>
0.9080

> <Gold.PLP.Chemscore.Metal>
0.0000

> <Gold.Chemscore.Hbonds>
donor molecule, donor type, donor heavy atom, donor atom, acceptor molecule, acceptor atom, score
      L1  H     5    29       P1  8028  1.00
      P1  H 10752 10764       L1    17  0.85
      L1  C    11    32       P1 10175  0.80

> <Gold.PLP.Chemscore.Internal.Correction>
0.2541

> <Gold.Rescore>
     Score         DG    S(hbond)    S(metal)    S(lipo)     H(rot)  DE(clash)    DE(int)     intcor
     13.20     -19.80       1.90        0.00      96.78       1.30       1.76       4.85       ----

> <Gold.Chemscore.Fitness>
13.1964

> <Gold.Chemscore.DG>
-19.8039

> <Gold.Chemscore.ZeroCoef>
-5.4800

> <Gold.Chemscore.Hbond>
1.8979

> <Gold.Chemscore.Metal>
0.0000

> <Gold.Chemscore.Lipo>
96.7822

> <Gold.Chemscore.Internal_Hbond>
0.0000

> <Gold.Chemscore.DEClash>
1.7618

> <Gold.Chemscore.DEInternal>
4.8457

> <Gold.Chemscore.Rot>
1.3041

> <Gold.Chemscore.Internal.Correction>
   9.000000E+99

> <Gold.Chemscore.Hbonds>
donor molecule, donor type, donor heavy atom, donor atom, acceptor molecule, acceptor atom, score
      L1  H     5    29       P1  8028  1.00
      P1  H 10752 10764       L1    17  0.15

> <Gold.Chemscore.Hbond.Weighted>
-6.3389

> <Gold.Chemscore.Metal.Weighted>
-0.0000

> <Gold.Chemscore.Lipo.Weighted>
-11.3235

> <Gold.Chemscore.Internal_Hbond.Weighted>
0.0000

> <Gold.Chemscore.DEClash.Weighted>
1.7618

> <Gold.Chemscore.DEInternal.Weighted>
4.8457

> <Gold.Chemscore.Rot.Weighted>
3.3385

> <Gold.Chemscore.Internal.Correction.Weighted>
   9.000000E+99

> <Gold.Protein.RotatedTorsions>
[ 6907 6896 6895 6894 ] final   44.97 input  -60.11 | X-H torsion
[ 7974 7965 7964 7962 ] final -164.04 input  175.53 | X-H torsion
[ 8008 7997 7996 7995 ] final   37.41 input   59.86 | X-H torsion
[ 10167 10162 10161 10158 ] final -113.82 input  -65.29 | X-H torsion
[ 10718 10713 10712 10709 ] final   72.62 input   66.30 | X-H torsion
[ 10763 10752 10751 10750 ] final  -67.24 input  -60.55 | X-H torsion
[ 11005 11000 10999 10996 ] final -112.13 input  -57.11 | X-H torsion

> <Gold.Protein.ActiveResidues>
 VAL166  LYS551  ARG553  GLY616  TRP617  ASP618  TYR619  PRO620  LYS621  CYS622 
 ASP623  PHE694  ASN695  SER759  ASP760  ASP761  ALA762  ILE779  LEU786  VAL792 
 PHE793  MET794  SER795  GLU796  ALA797  LYS798  CYS799  TRP800  GLU811  SER814 

> <Gold.Protein.RotatedAtoms>
  152.2389  134.8248  160.0462 H   0  0  0  0  0  0  0  0  0  0  0  0  # atno 6907 bound_to 6896
  151.8970  133.3524  159.3826 H   0  0  0  0  0  0  0  0  0  0  0  0  # atno 6908 bound_to 6896
  150.7047  134.4792  159.5506 H   0  0  0  0  0  0  0  0  0  0  0  0  # atno 6909 bound_to 6896
  144.7308  140.3018  143.6203 H   0  0  0  0  0  0  0  0  0  0  0  0  # atno 7974 bound_to 7965
  155.2033  140.3317  155.4340 H   0  0  0  0  0  0  0  0  0  0  0  0  # atno 8008 bound_to 7997
  156.2398  140.1890  156.7068 H   0  0  0  0  0  0  0  0  0  0  0  0  # atno 8009 bound_to 7997
  154.6127  140.0606  156.9500 H   0  0  0  0  0  0  0  0  0  0  0  0  # atno 8010 bound_to 7997
  140.1077  143.4555  152.1772 H   0  0  0  0  0  0  0  0  0  0  0  0  # atno 10167 bound_to 10162
  157.6510  130.9588  150.0955 H   0  0  0  0  0  0  0  0  0  0  0  0  # atno 10718 bound_to 10713
  154.3716  135.6094  153.5743 H   0  0  0  0  0  0  0  0  0  0  0  0  # atno 10763 bound_to 10752
  152.9790  135.5839  154.4515 H   0  0  0  0  0  0  0  0  0  0  0  0  # atno 10764 bound_to 10752
  154.4270  135.2847  155.1915 H   0  0  0  0  0  0  0  0  0  0  0  0  # atno 10765 bound_to 10752
  141.0693  133.9406  157.2516 H   0  0  0  0  0  0  0  0  0  0  0  0  # atno 11005 bound_to 11000
  145.7752  139.1871  143.2189 LP  0  0  0  0  0  0  0  0  0  0  0  0  # atno 17320 bound_to 7965
  146.0878  140.7690  142.9610 LP  0  0  0  0  0  0  0  0  0  0  0  0  # atno 17321 bound_to 7965
  139.5636  144.7421  151.4085 LP  0  0  0  0  0  0  0  0  0  0  0  0  # atno 17342 bound_to 10162
  140.6943  143.7787  150.7302 LP  0  0  0  0  0  0  0  0  0  0  0  0  # atno 17343 bound_to 10162
  156.1892  130.3654  149.8932 LP  0  0  0  0  0  0  0  0  0  0  0  0  # atno 17370 bound_to 10713
  156.6865  130.8879  151.3583 LP  0  0  0  0  0  0  0  0  0  0  0  0  # atno 17371 bound_to 10713
  139.9508  135.0176  156.8987 LP  0  0  0  0  0  0  0  0  0  0  0  0  # atno 17394 bound_to 11000
  140.5707  134.0446  155.7429 LP  0  0  0  0  0  0  0  0  0  0  0  0  # atno 17395 bound_to 11000

$$$$
