AV-unprocessed.smi:164|AV-procd|sdf|1383|dock1
  -GOLD-   2262019113D 1   1.00000     0.00000
 Structure written by MMmdl.
 53 55  0  0  0  0  0  0  0  0  1 V2000
  154.6096  140.3581  161.2921 C   0  0  0  0  0  0  0  0  0  0  0  0
  153.6339  140.8844  160.2535 C   0  0  0  0  0  0  0  0  0  0  0  0
  153.5661  142.2736  160.0229 C   0  0  0  0  0  0  0  0  0  0  0  0
  152.6708  142.7953  159.0727 C   0  0  0  0  0  0  0  0  0  0  0  0
  151.8389  141.9313  158.3349 C   0  0  0  0  0  0  0  0  0  0  0  0
  150.8732  142.5071  157.3155 C   0  0  0  0  0  0  0  0  0  0  0  0
  151.9103  140.5352  158.5475 C   0  0  0  0  0  0  0  0  0  0  0  0
  151.0987  139.7053  157.8177 O   0  0  0  0  0  0  0  0  0  0  0  0
  151.7898  138.9650  156.8217 C   0  0  0  0  0  0  0  0  0  0  0  0
  150.7695  138.4253  155.8068 C   0  0  1  0  0  0  0  0  0  0  0  0
  151.4247  138.3594  154.5555 O   0  0  0  0  0  0  0  0  0  0  0  0
  150.2903  137.0034  156.1778 C   0  0  0  0  0  0  0  0  0  0  0  0
  149.1707  136.9967  157.1059 N   0  0  0  0  0  0  0  0  0  0  0  0
  147.8878  137.3002  156.5869 C   0  0  0  0  0  0  0  0  0  0  0  0
  147.7124  137.5846  155.4004 O   0  0  0  0  0  0  0  0  0  0  0  0
  146.8067  137.2297  157.5635 C   0  0  0  0  0  0  0  0  0  0  0  0
  145.5449  137.4857  157.1782 F   0  0  0  0  0  0  0  0  0  0  0  0
  147.0509  136.9031  158.8508 C   0  0  0  0  0  0  0  0  0  0  0  0
  148.3167  136.6271  159.3350 N   0  0  0  0  0  0  0  0  0  0  0  0
  148.4795  136.2168  160.7804 C   0  0  2  0  0  0  0  0  0  0  0  0
  147.7857  134.8858  161.1267 C   0  0  0  0  0  0  0  0  0  0  0  0
  146.8238  135.2817  162.2348 C   0  0  0  0  0  0  0  0  0  0  0  0
  147.4261  136.5805  162.7598 C   0  0  0  0  0  0  0  0  0  0  0  0
  147.9241  137.2079  161.5886 O   0  0  0  0  0  0  0  0  0  0  0  0
  149.4216  136.6365  158.4517 C   0  0  0  0  0  0  0  0  0  0  0  0
  150.5507  136.3334  158.8421 O   0  0  0  0  0  0  0  0  0  0  0  0
  152.7954  140.0070  159.5210 C   0  0  0  0  0  0  0  0  0  0  0  0
  152.8457  138.5067  159.7777 C   0  0  0  0  0  0  0  0  0  0  0  0
  155.2712  141.1470  161.6514 H   0  0  0  0  0  0  0  0  0  0  0  0
  155.2326  139.5682  160.8719 H   0  0  0  0  0  0  0  0  0  0  0  0
  154.0700  139.9567  162.1502 H   0  0  0  0  0  0  0  0  0  0  0  0
  154.1996  142.9491  160.5794 H   0  0  0  0  0  0  0  0  0  0  0  0
  152.6261  143.8626  158.9133 H   0  0  0  0  0  0  0  0  0  0  0  0
  149.8856  142.0583  157.4249 H   0  0  0  0  0  0  0  0  0  0  0  0
  151.2295  142.3113  156.3042 H   0  0  0  0  0  0  0  0  0  0  0  0
  150.7658  143.5854  157.4357 H   0  0  0  0  0  0  0  0  0  0  0  0
  152.5617  139.5594  156.3285 H   0  0  0  0  0  0  0  0  0  0  0  0
  152.2977  138.1348  157.3140 H   0  0  0  0  0  0  0  0  0  0  0  0
  149.9224  139.1098  155.7464 H   0  0  0  0  0  0  0  0  0  0  0  0
  151.7290  139.2249  154.3294 H   0  0  0  0  0  0  0  0  0  0  0  0
  150.0328  136.4054  155.3020 H   0  0  0  0  0  0  0  0  0  0  0  0
  151.0844  136.4331  156.6631 H   0  0  0  0  0  0  0  0  0  0  0  0
  146.2110  136.8589  159.5287 H   0  0  0  0  0  0  0  0  0  0  0  0
  149.5544  136.1689  160.9609 H   0  0  0  0  0  0  0  0  0  0  0  0
  147.2855  134.4369  160.2679 H   0  0  0  0  0  0  0  0  0  0  0  0
  148.5388  134.1866  161.4917 H   0  0  0  0  0  0  0  0  0  0  0  0
  145.8328  135.4722  161.8222 H   0  0  0  0  0  0  0  0  0  0  0  0
  146.7257  134.5180  163.0065 H   0  0  0  0  0  0  0  0  0  0  0  0
  146.6962  137.2071  163.2725 H   0  0  0  0  0  0  0  0  0  0  0  0
  148.2512  136.3785  163.4446 H   0  0  0  0  0  0  0  0  0  0  0  0
  151.9858  137.9867  159.3559 H   0  0  0  0  0  0  0  0  0  0  0  0
  152.8510  138.2946  160.8467 H   0  0  0  0  0  0  0  0  0  0  0  0
  153.7476  138.0811  159.3374 H   0  0  0  0  0  0  0  0  0  0  0  0
  1  2  1  0  0  0  0
  1 29  1  0  0  0  0
  1 30  1  0  0  0  0
  1 31  1  0  0  0  0
  2 27  1  0  0  0  0
  2  3  2  0  0  0  0
  3  4  1  0  0  0  0
  3 32  1  0  0  0  0
  4  5  2  0  0  0  0
  4 33  1  0  0  0  0
  5  6  1  0  0  0  0
  5  7  1  0  0  0  0
  6 34  1  0  0  0  0
  6 35  1  0  0  0  0
  6 36  1  0  0  0  0
  7  8  1  0  0  0  0
  7 27  2  0  0  0  0
  8  9  1  0  0  0  0
  9 10  1  0  0  0  0
  9 37  1  0  0  0  0
  9 38  1  0  0  0  0
 10 11  1  0  0  0  0
 10 12  1  0  0  0  0
 10 39  1  0  0  0  0
 11 40  1  0  0  0  0
 12 13  1  0  0  0  0
 12 41  1  0  0  0  0
 12 42  1  0  0  0  0
 13 25  1  0  0  0  0
 13 14  1  0  0  0  0
 14 15  2  0  0  0  0
 14 16  1  0  0  0  0
 16 17  1  0  0  0  0
 16 18  2  0  0  0  0
 18 19  1  0  0  0  0
 18 43  1  0  0  0  0
 19 20  1  0  0  0  0
 19 25  1  0  0  0  0
 20 24  1  0  0  0  0
 20 21  1  0  0  0  0
 20 44  1  0  0  0  0
 21 22  1  0  0  0  0
 21 45  1  0  0  0  0
 21 46  1  0  0  0  0
 22 23  1  0  0  0  0
 22 47  1  0  0  0  0
 22 48  1  0  0  0  0
 23 24  1  0  0  0  0
 23 49  1  0  0  0  0
 23 50  1  0  0  0  0
 25 26  2  0  0  0  0
 27 28  1  0  0  0  0
 28 51  1  0  0  0  0
 28 52  1  0  0  0  0
 28 53  1  0  0  0  0
M  END
> <s_m_source_file>
AV-unprocessed.smi

> <i_m_source_file_index>
164

> <i_lp_mmshare_version>
43012

> <i_f3d_flags>
0

> <s_epik_input>
W0NIM11jMVtjSF1bY0hdYyhbQ0gzXSljKGMxW0NIM10pT1tDSDJdW0NASF0oW09IXSlbQ0gyXW4yYyg9TyljKEYpW2NIXW4oYzI9TylbQ0BASF0zW0NIMl1bQ0gyXVtDSDJdTzM=

> <s_epik_cmdline>
J2VwaWtfcHl0aG9uJywgJy1waCcsICc3LjAnLCAnLXRuJywgJzgnLCAnLW1hJywgJzIwMCcsICctbWV0YWxfYmluZGluZycsICctaW1hZScsICc8aW5maWxlLm1hZT4nLCAnLW9tYWUnLCAnPG91dGZpbGUubWFlPic=

> <r_lp_tautomer_probability>
1

> <r_epik_Ionization_Penalty>
1.45842e-07

> <r_epik_Ionization_Penalty_Charging>
2.86622e-08

> <r_epik_Ionization_Penalty_Neutral>
1.1718e-07

> <r_epik_State_Penalty>
-0

> <r_epik_Charging_Adjusted_Penalty>
2.86622e-08

> <i_epik_Tot_Q>
0

> <i_epik_Tot_abs_Q>
0

> <r_epik_Metal_State_Penalty>
-0

> <b_epik_Metal_Only>
0

> <s_epik_Chemistry_Notes>
This compound contains an acetal/aminal-like group ( X-CH(R)-Y where X, Y are N, S, or O) that may be acid/base labile, releasing an aldehyde.

> <s_lp_Force_Field>
OPLS_2005

> <r_lp_Energy>
41.2459

> <b_lp_Chiralities_Consistent>
1

> <s_lp_Variant>
AV-unprocessed.smi:164-2

> <Gold.Version>
5.8.1

> <Gold.Id.Protein>
6NUR|6NUR_protein|mol2

> <Gold.PLP.Fitness>
50.8093

> <Gold.PLP.PLP>
-44.8920

> <Gold.PLP.part.hbond>
-3.0000

> <Gold.PLP.part.metal>
0.0000

> <Gold.PLP.part.buried>
-6.3179

> <Gold.PLP.part.nonpolar>
-35.8348

> <Gold.PLP.part.repulsive>
0.0445

> <Gold.PLP.ligand.clash>
0.0000

> <Gold.PLP.ligand.torsion>
1.1854

> <Gold.PLP.Chemscore.Hbond>
2.6420

> <Gold.PLP.Chemscore.CHOScore>
0.0000

> <Gold.PLP.Chemscore.Metal>
0.0000

> <Gold.Chemscore.Hbonds>
donor molecule, donor type, donor heavy atom, donor atom, acceptor molecule, acceptor atom, score
      P1  H  6896  6908       L1    26  0.90
      P1  H  6931  6943       L1    24  1.00
      P1  H  6934  6947       L1    24  0.61

> <Gold.PLP.Chemscore.Internal.Correction>
0.3622

> <Gold.Rescore>
     Score         DG    S(hbond)    S(metal)    S(lipo)     H(rot)  DE(clash)    DE(int)     intcor
     18.54     -19.77       2.47        0.00     111.48       2.73       0.01       1.22       ----

> <Gold.Chemscore.Fitness>
18.5401

> <Gold.Chemscore.DG>
-19.7664

> <Gold.Chemscore.ZeroCoef>
-5.4800

> <Gold.Chemscore.Hbond>
2.4659

> <Gold.Chemscore.Metal>
0.0000

> <Gold.Chemscore.Lipo>
111.4761

> <Gold.Chemscore.Internal_Hbond>
0.0000

> <Gold.Chemscore.DEClash>
0.0073

> <Gold.Chemscore.DEInternal>
1.2189

> <Gold.Chemscore.Rot>
2.7315

> <Gold.Chemscore.Internal.Correction>
   9.000000E+99

> <Gold.Chemscore.Hbonds>
donor molecule, donor type, donor heavy atom, donor atom, acceptor molecule, acceptor atom, score
      P1  H  6896  6908       L1    26  0.87
      P1  H  6931  6943       L1    24  0.50
      P1  H  6934  6947       L1    24  0.56

> <Gold.Chemscore.Hbond.Weighted>
-8.2362

> <Gold.Chemscore.Metal.Weighted>
-0.0000

> <Gold.Chemscore.Lipo.Weighted>
-13.0427

> <Gold.Chemscore.Internal_Hbond.Weighted>
0.0000

> <Gold.Chemscore.DEClash.Weighted>
0.0073

> <Gold.Chemscore.DEInternal.Weighted>
1.2189

> <Gold.Chemscore.Rot.Weighted>
6.9925

> <Gold.Chemscore.Internal.Correction.Weighted>
   9.000000E+99

> <Gold.Protein.RotatedTorsions>
[ 6907 6896 6895 6894 ] final -173.88 input  -60.11 | X-H torsion
[ 7974 7965 7964 7962 ] final -107.76 input  175.53 | X-H torsion
[ 8008 7997 7996 7995 ] final  -45.31 input   59.86 | X-H torsion
[ 10167 10162 10161 10158 ] final  128.84 input  -65.29 | X-H torsion
[ 10718 10713 10712 10709 ] final  129.63 input   66.30 | X-H torsion
[ 10763 10752 10751 10750 ] final   14.95 input  -60.55 | X-H torsion
[ 11005 11000 10999 10996 ] final   47.19 input  -57.11 | X-H torsion

> <Gold.Protein.ActiveResidues>
 VAL166  LYS551  ARG553  GLY616  TRP617  ASP618  TYR619  PRO620  LYS621  CYS622 
 ASP623  PHE694  ASN695  SER759  ASP760  ASP761  ALA762  ILE779  LEU786  VAL792 
 PHE793  MET794  SER795  GLU796  ALA797  LYS798  CYS799  TRP800  GLU811  SER814 

> <Gold.Protein.RotatedAtoms>
  151.5633  133.3400  159.2974 H   0  0  0  0  0  0  0  0  0  0  0  0  # atno 6907 bound_to 6896
  150.8410  134.7705  159.6943 H   0  0  0  0  0  0  0  0  0  0  0  0  # atno 6908 bound_to 6896
  152.4478  134.5466  159.9906 H   0  0  0  0  0  0  0  0  0  0  0  0  # atno 6909 bound_to 6896
  145.2013  140.9057  143.3367 H   0  0  0  0  0  0  0  0  0  0  0  0  # atno 7974 bound_to 7965
  154.4000  140.1400  156.3826 H   0  0  0  0  0  0  0  0  0  0  0  0  # atno 8008 bound_to 7997
  155.7989  140.3476  155.5371 H   0  0  0  0  0  0  0  0  0  0  0  0  # atno 8009 bound_to 7997
  155.8503  140.0940  157.1669 H   0  0  0  0  0  0  0  0  0  0  0  0  # atno 8010 bound_to 7997
  139.5507  144.6811  151.4332 H   0  0  0  0  0  0  0  0  0  0  0  0  # atno 10167 bound_to 10162
  157.5137  131.1097  150.9256 H   0  0  0  0  0  0  0  0  0  0  0  0  # atno 10718 bound_to 10713
  153.1572  135.6789  153.8795 H   0  0  0  0  0  0  0  0  0  0  0  0  # atno 10763 bound_to 10752
  153.8202  135.3131  155.3410 H   0  0  0  0  0  0  0  0  0  0  0  0  # atno 10764 bound_to 10752
  154.7906  135.4837  154.0132 H   0  0  0  0  0  0  0  0  0  0  0  0  # atno 10765 bound_to 10752
  140.1301  134.4717  155.8528 H   0  0  0  0  0  0  0  0  0  0  0  0  # atno 11005 bound_to 11000
  144.9945  139.3658  143.6198 LP  0  0  0  0  0  0  0  0  0  0  0  0  # atno 17320 bound_to 7965
  146.3417  139.9141  142.8776 LP  0  0  0  0  0  0  0  0  0  0  0  0  # atno 17321 bound_to 7965
  140.6769  143.8170  150.7070 LP  0  0  0  0  0  0  0  0  0  0  0  0  # atno 17342 bound_to 10162
  140.1611  143.4274  152.2066 LP  0  0  0  0  0  0  0  0  0  0  0  0  # atno 17343 bound_to 10162
  156.9888  130.5555  149.5301 LP  0  0  0  0  0  0  0  0  0  0  0  0  # atno 17370 bound_to 10713
  156.0306  130.5397  150.8523 LP  0  0  0  0  0  0  0  0  0  0  0  0  # atno 17371 bound_to 10713
  141.2168  133.6792  156.7053 LP  0  0  0  0  0  0  0  0  0  0  0  0  # atno 17394 bound_to 11000
  140.2853  134.8284  157.3969 LP  0  0  0  0  0  0  0  0  0  0  0  0  # atno 17395 bound_to 11000

$$$$
