AV-unprocessed.smi:928|AV-procd|sdf|4193|dock4
  -GOLD-   22720 2103D 1   1.00000     0.00000
 Structure written by MMmdl.
 43 44  0  0  0  0  0  0  0  0  1 V2000
  150.9361  142.6228  157.1642 C   0  0  0  0  0  0  0  0  0  0  0  0
  151.0100  141.3726  156.2810 C   0  0  0  0  0  0  0  0  0  0  0  0
  149.7609  141.1315  155.4996 C   0  0  0  0  0  0  0  0  0  0  0  0
  148.6148  141.8877  155.4981 C   0  0  0  0  0  0  0  0  0  0  0  0
  147.6199  141.4041  154.6457 N   0  0  0  0  0  0  0  0  0  0  0  0
  147.9879  140.2867  154.0151 C   0  0  0  0  0  0  0  0  0  0  0  0
  147.1306  139.5839  153.0174 C   0  0  0  0  0  0  0  0  0  0  0  0
  146.3838  138.3894  153.6318 C   0  0  0  0  0  0  0  0  0  0  0  0
  146.6232  137.1607  152.8844 N   0  0  0  0  0  0  0  0  0  0  0  0
  145.6684  136.4013  152.3303 C   0  0  0  0  0  0  0  0  0  0  0  0
  144.4645  136.6514  152.3923 O   0  0  0  0  0  0  0  0  0  0  0  0
  146.1847  135.3359  151.7027 N   0  0  0  0  0  0  0  0  0  0  0  0
  145.4127  134.3126  151.0004 C   0  0  2  0  0  0  0  0  0  0  0  0
  144.2701  133.7587  151.8773 C   0  0  0  0  0  0  0  0  0  0  0  0
  143.4672  132.6852  151.1250 C   0  0  0  0  0  0  0  0  0  0  0  0
  144.3766  131.5530  150.6203 C   0  0  0  0  0  0  0  0  0  0  0  0
  145.5295  132.0969  149.7563 C   0  0  0  0  0  0  0  0  0  0  0  0
  146.3387  133.1864  150.4869 C   0  0  2  0  0  0  0  0  0  0  0  0
  147.0534  132.5888  151.5535 O   0  0  0  0  0  0  0  0  0  0  0  0
  149.6201  139.7688  154.4185 S   0  0  0  0  0  0  0  0  0  0  0  0
  151.8627  142.7600  157.7219 H   0  0  0  0  0  0  0  0  0  0  0  0
  150.1216  142.5462  157.8852 H   0  0  0  0  0  0  0  0  0  0  0  0
  150.7715  143.5198  156.5665 H   0  0  0  0  0  0  0  0  0  0  0  0
  151.8524  141.4648  155.5946 H   0  0  0  0  0  0  0  0  0  0  0  0
  151.2232  140.5036  156.9041 H   0  0  0  0  0  0  0  0  0  0  0  0
  148.4242  142.7860  156.0666 H   0  0  0  0  0  0  0  0  0  0  0  0
  146.4202  140.3011  152.6041 H   0  0  0  0  0  0  0  0  0  0  0  0
  147.7592  139.2546  152.1889 H   0  0  0  0  0  0  0  0  0  0  0  0
  146.6715  138.2547  154.6759 H   0  0  0  0  0  0  0  0  0  0  0  0
  145.3105  138.5815  153.6282 H   0  0  0  0  0  0  0  0  0  0  0  0
  147.5844  136.8710  152.7792 H   0  0  0  0  0  0  0  0  0  0  0  0
  147.1870  135.2206  151.7120 H   0  0  0  0  0  0  0  0  0  0  0  0
  144.9621  134.7791  150.1217 H   0  0  0  0  0  0  0  0  0  0  0  0
  144.6743  133.3365  152.7983 H   0  0  0  0  0  0  0  0  0  0  0  0
  143.6004  134.5656  152.1774 H   0  0  0  0  0  0  0  0  0  0  0  0
  142.6926  132.2775  151.7751 H   0  0  0  0  0  0  0  0  0  0  0  0
  142.9520  133.1422  150.2794 H   0  0  0  0  0  0  0  0  0  0  0  0
  144.7812  131.0036  151.4711 H   0  0  0  0  0  0  0  0  0  0  0  0
  143.7903  130.8362  150.0448 H   0  0  0  0  0  0  0  0  0  0  0  0
  146.1843  131.2807  149.4486 H   0  0  0  0  0  0  0  0  0  0  0  0
  145.1162  132.5162  148.8381 H   0  0  0  0  0  0  0  0  0  0  0  0
  147.0726  133.6058  149.7977 H   0  0  0  0  0  0  0  0  0  0  0  0
  147.6369  131.9377  151.1964 H   0  0  0  0  0  0  0  0  0  0  0  0
  1  2  1  0  0  0  0
  1 21  1  0  0  0  0
  1 22  1  0  0  0  0
  1 23  1  0  0  0  0
  2  3  1  0  0  0  0
  2 24  1  0  0  0  0
  2 25  1  0  0  0  0
  3 20  1  0  0  0  0
  3  4  2  0  0  0  0
  4  5  1  0  0  0  0
  4 26  1  0  0  0  0
  5  6  2  0  0  0  0
  6  7  1  0  0  0  0
  6 20  1  0  0  0  0
  7  8  1  0  0  0  0
  7 27  1  0  0  0  0
  7 28  1  0  0  0  0
  8  9  1  0  0  0  0
  8 29  1  0  0  0  0
  8 30  1  0  0  0  0
  9 10  1  0  0  0  0
  9 31  1  0  0  0  0
 10 11  2  0  0  0  0
 10 12  1  0  0  0  0
 12 13  1  0  0  0  0
 12 32  1  0  0  0  0
 13 18  1  0  0  0  0
 13 14  1  0  0  0  0
 13 33  1  0  0  0  0
 14 15  1  0  0  0  0
 14 34  1  0  0  0  0
 14 35  1  0  0  0  0
 15 16  1  0  0  0  0
 15 36  1  0  0  0  0
 15 37  1  0  0  0  0
 16 17  1  0  0  0  0
 16 38  1  0  0  0  0
 16 39  1  0  0  0  0
 17 18  1  0  0  0  0
 17 40  1  0  0  0  0
 17 41  1  0  0  0  0
 18 19  1  0  0  0  0
 18 42  1  0  0  0  0
 19 43  1  0  0  0  0
M  END
> <s_m_source_file>
AV-unprocessed.smi

> <i_m_source_file_index>
928

> <i_lp_mmshare_version>
43012

> <i_f3d_flags>
0

> <s_epik_input>
W0NIM11bQ0gyXWMxW2NIXW5jKHMxKVtDSDJdW0NIMl1bTkhdQyg9TylbTkhdW0NAQEhdMltDSDJdW0NIMl1bQ0gyXVtDSDJdW0NASF0yW09IXQ==

> <s_epik_cmdline>
J2VwaWtfcHl0aG9uJywgJy1waCcsICc3LjAnLCAnLXRuJywgJzgnLCAnLW1hJywgJzIwMCcsICctbWV0YWxfYmluZGluZycsICctaW1hZScsICc8aW5maWxlLm1hZT4nLCAnLW9tYWUnLCAnPG91dGZpbGUubWFlPic=

> <r_epik_Ionization_Penalty>
0.000957396

> <r_epik_Ionization_Penalty_Charging>
0

> <r_epik_Ionization_Penalty_Neutral>
0.000957396

> <r_epik_State_Penalty>
0.000586538

> <r_epik_Charging_Adjusted_Penalty>
0.000586538

> <i_epik_Tot_Q>
0

> <i_epik_Tot_abs_Q>
0

> <r_epik_Metal_State_Penalty>
-0

> <b_epik_Metal_Only>
0

> <s_lp_Force_Field>
OPLS_2005

> <r_lp_Energy>
-0.721606

> <b_lp_Chiralities_Consistent>
1

> <s_lp_Variant>
AV-unprocessed.smi:928-3

> <Gold.Version>
5.8.1

> <Gold.Id.Protein>
6NUR|6NUR_protein|mol2

> <Gold.PLP.Fitness>
48.7516

> <Gold.PLP.PLP>
-38.5149

> <Gold.PLP.part.hbond>
-3.0000

> <Gold.PLP.part.metal>
0.0000

> <Gold.PLP.part.buried>
-2.7831

> <Gold.PLP.part.nonpolar>
-32.9666

> <Gold.PLP.part.repulsive>
0.3848

> <Gold.PLP.ligand.clash>
0.0000

> <Gold.PLP.ligand.torsion>
0.7385

> <Gold.PLP.Chemscore.Hbond>
2.8960

> <Gold.PLP.Chemscore.CHOScore>
1.0000

> <Gold.PLP.Chemscore.Metal>
0.0000

> <Gold.Chemscore.Hbonds>
donor molecule, donor type, donor heavy atom, donor atom, acceptor molecule, acceptor atom, score
      L1  H     9    31       P1  7948  1.00
      L1  H    12    32       P1  7948  0.90
      L1  H    19    43       P1 10747  1.00
      L1  C     4    26       P1  8028  0.97

> <Gold.PLP.Chemscore.Internal.Correction>
0.0258

> <Gold.Rescore>
     Score         DG    S(hbond)    S(metal)    S(lipo)     H(rot)  DE(clash)    DE(int)     intcor
     18.85     -21.04       2.84        0.00     100.33       2.21       0.06       2.13       ----

> <Gold.Chemscore.Fitness>
18.8504

> <Gold.Chemscore.DG>
-21.0398

> <Gold.Chemscore.ZeroCoef>
-5.4800

> <Gold.Chemscore.Hbond>
2.8366

> <Gold.Chemscore.Metal>
0.0000

> <Gold.Chemscore.Lipo>
100.3341

> <Gold.Chemscore.Internal_Hbond>
0.0000

> <Gold.Chemscore.DEClash>
0.0569

> <Gold.Chemscore.DEInternal>
2.1325

> <Gold.Chemscore.Rot>
2.2084

> <Gold.Chemscore.Internal.Correction>
   9.000000E+99

> <Gold.Chemscore.Hbonds>
donor molecule, donor type, donor heavy atom, donor atom, acceptor molecule, acceptor atom, score
      L1  H     9    31       P1  7948  0.97
      L1  H    12    32       P1  7948  0.82
      L1  H    19    43       P1 10747  0.99

> <Gold.Chemscore.Hbond.Weighted>
-9.4743

> <Gold.Chemscore.Metal.Weighted>
-0.0000

> <Gold.Chemscore.Lipo.Weighted>
-11.7391

> <Gold.Chemscore.Internal_Hbond.Weighted>
0.0000

> <Gold.Chemscore.DEClash.Weighted>
0.0569

> <Gold.Chemscore.DEInternal.Weighted>
2.1325

> <Gold.Chemscore.Rot.Weighted>
5.6535

> <Gold.Chemscore.Internal.Correction.Weighted>
   9.000000E+99

> <Gold.Protein.RotatedTorsions>
[ 6907 6896 6895 6894 ] final  115.58 input  -60.11 | X-H torsion
[ 7974 7965 7964 7962 ] final   46.95 input  175.53 | X-H torsion
[ 8008 7997 7996 7995 ] final -116.60 input   59.86 | X-H torsion
[ 10167 10162 10161 10158 ] final   90.63 input  -65.29 | X-H torsion
[ 10718 10713 10712 10709 ] final   73.42 input   66.30 | X-H torsion
[ 10763 10752 10751 10750 ] final  -63.57 input  -60.55 | X-H torsion
[ 11005 11000 10999 10996 ] final -104.71 input  -57.11 | X-H torsion

> <Gold.Protein.ActiveResidues>
 VAL166  LYS551  ARG553  GLY616  TRP617  ASP618  TYR619  PRO620  LYS621  CYS622 
 ASP623  PHE694  ASN695  SER759  ASP760  ASP761  ALA762  ILE779  LEU786  VAL792 
 PHE793  MET794  SER795  GLU796  ALA797  LYS798  CYS799  TRP800  GLU811  SER814 

> <Gold.Protein.RotatedAtoms>
  152.4733  133.8079  159.6987 H   0  0  0  0  0  0  0  0  0  0  0  0  # atno 6907 bound_to 6896
  150.8734  133.7464  159.2960 H   0  0  0  0  0  0  0  0  0  0  0  0  # atno 6908 bound_to 6896
  151.4991  135.1064  159.9876 H   0  0  0  0  0  0  0  0  0  0  0  0  # atno 6909 bound_to 6896
  146.0343  139.4801  142.9818 H   0  0  0  0  0  0  0  0  0  0  0  0  # atno 7974 bound_to 7965
  155.0704  140.0393  157.2606 H   0  0  0  0  0  0  0  0  0  0  0  0  # atno 8008 bound_to 7997
  154.6987  140.2668  155.6716 H   0  0  0  0  0  0  0  0  0  0  0  0  # atno 8009 bound_to 7997
  156.2753  140.2745  156.1590 H   0  0  0  0  0  0  0  0  0  0  0  0  # atno 8010 bound_to 7997
  139.8454  144.6620  150.9233 H   0  0  0  0  0  0  0  0  0  0  0  0  # atno 10167 bound_to 10162
  157.6547  130.9628  150.1067 H   0  0  0  0  0  0  0  0  0  0  0  0  # atno 10718 bound_to 10713
  154.3171  135.6204  153.5491 H   0  0  0  0  0  0  0  0  0  0  0  0  # atno 10763 bound_to 10752
  152.9823  135.5715  154.5112 H   0  0  0  0  0  0  0  0  0  0  0  0  # atno 10764 bound_to 10752
  154.4773  135.2861  155.1574 H   0  0  0  0  0  0  0  0  0  0  0  0  # atno 10765 bound_to 10752
  141.1087  133.8746  157.1645 H   0  0  0  0  0  0  0  0  0  0  0  0  # atno 11005 bound_to 11000
  145.6989  141.0142  143.1515 LP  0  0  0  0  0  0  0  0  0  0  0  0  # atno 17320 bound_to 7965
  144.7044  139.8621  143.7434 LP  0  0  0  0  0  0  0  0  0  0  0  0  # atno 17321 bound_to 7965
  140.7793  143.3875  151.1368 LP  0  0  0  0  0  0  0  0  0  0  0  0  # atno 17342 bound_to 10162
  139.7517  143.8768  152.3078 LP  0  0  0  0  0  0  0  0  0  0  0  0  # atno 17343 bound_to 10162
  156.1975  130.3658  149.8830 LP  0  0  0  0  0  0  0  0  0  0  0  0  # atno 17370 bound_to 10713
  156.6743  130.8832  151.3567 LP  0  0  0  0  0  0  0  0  0  0  0  0  # atno 17371 bound_to 10713
  139.9970  135.0043  157.0105 LP  0  0  0  0  0  0  0  0  0  0  0  0  # atno 17394 bound_to 11000
  140.4832  134.1268  155.7220 LP  0  0  0  0  0  0  0  0  0  0  0  0  # atno 17395 bound_to 11000

$$$$
