AV-unprocessed.smi:3291|AV-procd|sdf|12620|dock2
  -GOLD-   2272018553D 1   1.00000     0.00000
 Structure written by MMmdl.
 43 45  0  0  0  0  0  0  0  0  2 V2000
  147.7445  141.7319  154.6336 C   0  0  0  0  0  0  0  0  0  0  0  0
  148.8760  140.7463  154.7021 C   0  0  0  0  0  0  0  0  0  0  0  0
  148.9166  139.7426  153.8439 N   0  0  0  0  0  0  0  0  0  0  0  0
  150.0664  139.0157  154.1609 O   0  0  0  0  0  0  0  0  0  0  0  0
  150.6826  139.6164  155.2100 C   0  0  0  0  0  0  0  0  0  0  0  0
  151.9427  138.9715  155.6835 C   0  0  0  0  0  0  0  0  0  0  0  0
  149.9820  140.7285  155.6015 C   0  0  0  0  0  0  0  0  0  0  0  0
  150.2712  141.7233  156.7059 C   0  0  1  0  0  0  0  0  0  0  0  0
  149.0141  141.9866  157.5481 C   0  0  0  0  0  0  0  0  0  0  0  0
  151.4557  141.2822  157.5852 C   0  0  0  0  0  0  0  0  0  0  0  0
  152.2188  142.4472  158.0824 N   0  3  0  0  0  0  0  0  0  0  0  0
  151.9538  142.8243  159.4868 C   0  0  0  0  0  0  0  0  0  0  0  0
  152.5138  144.2133  159.7342 C   0  0  0  0  0  0  0  0  0  0  0  0
  151.6091  145.3715  160.0865 C   0  0  0  0  0  0  0  0  0  0  0  0
  152.2935  145.3303  158.7409 C   0  0  0  0  0  0  0  0  0  0  0  0
  152.5722  141.8118  160.4397 C   0  0  0  0  0  0  0  0  0  0  0  0
  153.2977  142.2473  161.6933 C   0  0  0  0  0  0  0  0  0  0  0  0
  154.0726  141.6537  160.5435 C   0  0  0  0  0  0  0  0  0  0  0  0
  147.1643  141.7218  155.5563 H   0  0  0  0  0  0  0  0  0  0  0  0
  147.0627  141.5100  153.8119 H   0  0  0  0  0  0  0  0  0  0  0  0
  148.1183  142.7452  154.4866 H   0  0  0  0  0  0  0  0  0  0  0  0
  152.0034  138.9775  156.7712 H   0  0  0  0  0  0  0  0  0  0  0  0
  152.8142  139.4951  155.2919 H   0  0  0  0  0  0  0  0  0  0  0  0
  151.9990  137.9340  155.3536 H   0  0  0  0  0  0  0  0  0  0  0  0
  150.5493  142.6808  156.2637 H   0  0  0  0  0  0  0  0  0  0  0  0
  148.1977  142.3551  156.9262 H   0  0  0  0  0  0  0  0  0  0  0  0
  149.2055  142.7373  158.3151 H   0  0  0  0  0  0  0  0  0  0  0  0
  148.6671  141.0836  158.0503 H   0  0  0  0  0  0  0  0  0  0  0  0
  151.0916  140.7115  158.4405 H   0  0  0  0  0  0  0  0  0  0  0  0
  152.1105  140.6186  157.0227 H   0  0  0  0  0  0  0  0  0  0  0  0
  153.2061  142.2600  157.9796 H   0  0  0  0  0  0  0  0  0  0  0  0
  150.8749  142.8569  159.6493 H   0  0  0  0  0  0  0  0  0  0  0  0
  153.4806  144.2098  160.2351 H   0  0  0  0  0  0  0  0  0  0  0  0
  150.5349  145.1992  160.1015 H   0  0  0  0  0  0  0  0  0  0  0  0
  151.9759  146.0905  160.8164 H   0  0  0  0  0  0  0  0  0  0  0  0
  153.1156  146.0234  158.5737 H   0  0  0  0  0  0  0  0  0  0  0  0
  151.6732  145.1239  157.8709 H   0  0  0  0  0  0  0  0  0  0  0  0
  152.0069  140.8840  160.5137 H   0  0  0  0  0  0  0  0  0  0  0  0
  153.4097  143.3147  161.8729 H   0  0  0  0  0  0  0  0  0  0  0  0
  153.1691  141.6361  162.5843 H   0  0  0  0  0  0  0  0  0  0  0  0
  154.4639  140.6460  160.6679 H   0  0  0  0  0  0  0  0  0  0  0  0
  154.7030  142.3301  159.9703 H   0  0  0  0  0  0  0  0  0  0  0  0
  151.9815  143.2367  157.4988 H   0  0  0  0  0  0  0  0  0  0  0  0
  1  2  1  0  0  0  0
  1 19  1  0  0  0  0
  1 20  1  0  0  0  0
  1 21  1  0  0  0  0
  2  7  1  0  0  0  0
  2  3  2  0  0  0  0
  3  4  1  0  0  0  0
  4  5  1  0  0  0  0
  5  6  1  0  0  0  0
  5  7  2  0  0  0  0
  6 22  1  0  0  0  0
  6 23  1  0  0  0  0
  6 24  1  0  0  0  0
  7  8  1  0  0  0  0
  8  9  1  0  0  0  0
  8 10  1  0  0  0  0
  8 25  1  0  0  0  0
  9 26  1  0  0  0  0
  9 27  1  0  0  0  0
  9 28  1  0  0  0  0
 10 11  1  0  0  0  0
 10 29  1  0  0  0  0
 10 30  1  0  0  0  0
 11 12  1  0  0  0  0
 11 31  1  0  0  0  0
 11 43  1  0  0  0  0
 12 13  1  0  0  0  0
 12 16  1  0  0  0  0
 12 32  1  0  0  0  0
 13 15  1  0  0  0  0
 13 14  1  0  0  0  0
 13 33  1  0  0  0  0
 14 15  1  0  0  0  0
 14 34  1  0  0  0  0
 14 35  1  0  0  0  0
 15 36  1  0  0  0  0
 15 37  1  0  0  0  0
 16 18  1  0  0  0  0
 16 17  1  0  0  0  0
 16 38  1  0  0  0  0
 17 18  1  0  0  0  0
 17 39  1  0  0  0  0
 17 40  1  0  0  0  0
 18 41  1  0  0  0  0
 18 42  1  0  0  0  0
M  CHG  1  11   1
M  END
> <s_m_source_file>
AV-unprocessed.smi

> <i_m_source_file_index>
3291

> <i_lp_mmshare_version>
43012

> <i_f3d_flags>
0

> <s_epik_input>
W0NIM11jMW5vYyhbQ0gzXSljMVtDQEhdKFtDSDNdKVtDSDJdW05IXVtDSF0oW0NIXTJbQ0gyXVtDSDJdMilbQ0hdM1tDSDJdW0NIMl0z

> <s_epik_cmdline>
J2VwaWtfcHl0aG9uJywgJy1waCcsICc3LjAnLCAnLXRuJywgJzgnLCAnLW1hJywgJzIwMCcsICctbWV0YWxfYmluZGluZycsICctaW1hZScsICc8aW5maWxlLm1hZT4nLCAnLW9tYWUnLCAnPG91dGZpbGUubWFlPic=

> <r_lp_tautomer_probability>
1

> <r_epik_Ionization_Penalty>
0.000158108

> <r_epik_Ionization_Penalty_Charging>
0.000158108

> <r_epik_Ionization_Penalty_Neutral>
1.14678e-10

> <r_epik_State_Penalty>
-0

> <r_epik_Charging_Adjusted_Penalty>
0.000158108

> <i_epik_Tot_Q>
1

> <i_epik_Tot_abs_Q>
1

> <r_epik_Metal_State_Penalty>
-0

> <b_epik_Metal_Only>
0

> <s_lp_Force_Field>
OPLS_2005

> <r_lp_Energy>
24.4944

> <b_lp_Chiralities_Consistent>
1

> <s_lp_Variant>
AV-unprocessed.smi:3291-2

> <Gold.Version>
5.8.1

> <Gold.Id.Protein>
6NUR|6NUR_protein|mol2

> <Gold.PLP.Fitness>
40.8732

> <Gold.PLP.PLP>
-43.5306

> <Gold.PLP.part.hbond>
0.0000

> <Gold.PLP.part.metal>
0.0000

> <Gold.PLP.part.buried>
-5.4058

> <Gold.PLP.part.nonpolar>
-41.4091

> <Gold.PLP.part.repulsive>
2.8063

> <Gold.PLP.ligand.clash>
0.0000

> <Gold.PLP.ligand.torsion>
2.4313

> <Gold.PLP.Chemscore.Hbond>
0.0000

> <Gold.PLP.Chemscore.CHOScore>
0.0000

> <Gold.PLP.Chemscore.Metal>
0.0000

> <Gold.PLP.Chemscore.Internal.Correction>
2.2054

> <Gold.Rescore>
     Score         DG    S(hbond)    S(metal)    S(lipo)     H(rot)  DE(clash)    DE(int)     intcor
     13.57     -16.79       0.00        0.00     129.49       1.50       0.18       3.03       ----

> <Gold.Chemscore.Fitness>
13.5743

> <Gold.Chemscore.DG>
-16.7861

> <Gold.Chemscore.ZeroCoef>
-5.4800

> <Gold.Chemscore.Hbond>
0.0000

> <Gold.Chemscore.Metal>
0.0000

> <Gold.Chemscore.Lipo>
129.4866

> <Gold.Chemscore.Internal_Hbond>
0.0000

> <Gold.Chemscore.DEClash>
0.1798

> <Gold.Chemscore.DEInternal>
3.0320

> <Gold.Chemscore.Rot>
1.5015

> <Gold.Chemscore.Internal.Correction>
   9.000000E+99

> <Gold.Chemscore.Hbond.Weighted>
-0.0000

> <Gold.Chemscore.Metal.Weighted>
-0.0000

> <Gold.Chemscore.Lipo.Weighted>
-15.1499

> <Gold.Chemscore.Internal_Hbond.Weighted>
0.0000

> <Gold.Chemscore.DEClash.Weighted>
0.1798

> <Gold.Chemscore.DEInternal.Weighted>
3.0320

> <Gold.Chemscore.Rot.Weighted>
3.8438

> <Gold.Chemscore.Internal.Correction.Weighted>
   9.000000E+99

> <Gold.Protein.RotatedTorsions>
[ 6907 6896 6895 6894 ] final -173.92 input  -60.11 | X-H torsion
[ 7974 7965 7964 7962 ] final   -4.37 input  175.53 | X-H torsion
[ 8008 7997 7996 7995 ] final  178.27 input   59.86 | X-H torsion
[ 10167 10162 10161 10158 ] final   44.27 input  -65.29 | X-H torsion
[ 10718 10713 10712 10709 ] final   97.84 input   66.30 | X-H torsion
[ 10763 10752 10751 10750 ] final  151.25 input  -60.55 | X-H torsion
[ 11005 11000 10999 10996 ] final -127.85 input  -57.11 | X-H torsion

> <Gold.Protein.ActiveResidues>
 VAL166  LYS551  ARG553  GLY616  TRP617  ASP618  TYR619  PRO620  LYS621  CYS622 
 ASP623  PHE694  ASN695  SER759  ASP760  ASP761  ALA762  ILE779  LEU786  VAL792 
 PHE793  MET794  SER795  GLU796  ALA797  LYS798  CYS799  TRP800  GLU811  SER814 

> <Gold.Protein.RotatedAtoms>
  151.5640  133.3399  159.2976 H   0  0  0  0  0  0  0  0  0  0  0  0  # atno 6907 bound_to 6896
  150.8406  134.7699  159.6940 H   0  0  0  0  0  0  0  0  0  0  0  0  # atno 6908 bound_to 6896
  152.4474  134.5472  159.9908 H   0  0  0  0  0  0  0  0  0  0  0  0  # atno 6909 bound_to 6896
  146.2373  140.1861  142.8332 H   0  0  0  0  0  0  0  0  0  0  0  0  # atno 7974 bound_to 7965
  156.0565  140.1337  156.9991 H   0  0  0  0  0  0  0  0  0  0  0  0  # atno 8008 bound_to 7997
  154.4460  140.1000  156.6523 H   0  0  0  0  0  0  0  0  0  0  0  0  # atno 8009 bound_to 7997
  155.5444  140.3461  155.4456 H   0  0  0  0  0  0  0  0  0  0  0  0  # atno 8010 bound_to 7997
  140.3359  144.2530  150.6161 H   0  0  0  0  0  0  0  0  0  0  0  0  # atno 10167 bound_to 10162
  157.6906  131.0622  150.4705 H   0  0  0  0  0  0  0  0  0  0  0  0  # atno 10718 bound_to 10713
  154.1008  135.2846  155.3252 H   0  0  0  0  0  0  0  0  0  0  0  0  # atno 10763 bound_to 10752
  154.6557  135.5353  153.7959 H   0  0  0  0  0  0  0  0  0  0  0  0  # atno 10764 bound_to 10752
  153.0380  135.6521  154.1171 H   0  0  0  0  0  0  0  0  0  0  0  0  # atno 10765 bound_to 10752
  140.9565  134.0994  157.4011 H   0  0  0  0  0  0  0  0  0  0  0  0  # atno 11005 bound_to 11000
  144.9895  140.8534  143.5348 LP  0  0  0  0  0  0  0  0  0  0  0  0  # atno 17320 bound_to 7965
  145.1865  139.2323  143.5265 LP  0  0  0  0  0  0  0  0  0  0  0  0  # atno 17321 bound_to 7965
  140.5354  143.2234  151.8172 LP  0  0  0  0  0  0  0  0  0  0  0  0  # atno 17342 bound_to 10162
  139.4848  144.4668  151.9474 LP  0  0  0  0  0  0  0  0  0  0  0  0  # atno 17343 bound_to 10162
  156.5043  130.4124  149.6336 LP  0  0  0  0  0  0  0  0  0  0  0  0  # atno 17370 bound_to 10713
  156.3299  130.7326  151.2253 LP  0  0  0  0  0  0  0  0  0  0  0  0  # atno 17371 bound_to 10713
  139.8864  135.0081  156.6496 LP  0  0  0  0  0  0  0  0  0  0  0  0  # atno 17394 bound_to 11000
  140.7528  133.8883  155.8359 LP  0  0  0  0  0  0  0  0  0  0  0  0  # atno 17395 bound_to 11000

$$$$
