AV-unprocessed.smi:1900|AV-procd|sdf|7713|dock8
  -GOLD-   22720 9453D 1   1.00000     0.00000
 Structure written by MMmdl.
 43 44  0  0  0  0  0  0  0  0  1 V2000
  152.0256  138.1773  154.4470 C   0  0  0  0  0  0  0  0  0  0  0  0
  150.9563  138.9839  155.1908 C   0  0  2  0  0  0  0  0  0  0  0  0
  149.5622  138.8175  154.5593 C   0  0  0  0  0  0  0  0  0  0  0  0
  148.5657  139.6527  155.2158 N   0  0  0  0  0  0  0  0  0  0  0  0
  147.2353  139.4379  154.6462 C   0  0  0  0  0  0  0  0  0  0  0  0
  147.1861  139.3319  153.1109 C   0  0  0  0  0  0  0  0  0  0  0  0
  145.9762  138.5279  152.6018 C   0  0  0  0  0  0  0  0  0  0  0  0
  146.3731  137.2125  152.1135 N   0  0  0  0  0  0  0  0  0  0  0  0
  145.5217  136.2624  151.7005 C   0  0  0  0  0  0  0  0  0  0  0  0
  144.2989  136.4053  151.6842 O   0  0  0  0  0  0  0  0  0  0  0  0
  146.1751  135.1553  151.3121 N   0  0  0  0  0  0  0  0  0  0  0  0
  145.6077  133.9544  150.8176 C   0  0  0  0  0  0  0  0  0  0  0  0
  146.2158  132.6779  150.6322 C   0  0  0  0  0  0  0  0  0  0  0  0
  145.3502  131.8006  150.1440 N   0  0  0  0  0  0  0  0  0  0  0  0
  144.2009  132.5011  150.0164 N   0  0  0  0  0  0  0  0  0  0  0  0
  144.3134  133.8152  150.4141 C   0  0  0  0  0  0  0  0  0  0  0  0
  148.9943  141.0480  155.1478 C   0  0  0  0  0  0  0  0  0  0  0  0
  150.3994  141.2650  155.7428 C   0  0  1  0  0  0  0  0  0  0  0  0
  150.4226  141.1922  157.2794 C   0  0  0  0  0  0  0  0  0  0  0  0
  151.3338  140.3592  155.1528 O   0  0  0  0  0  0  0  0  0  0  0  0
  143.3582  132.0729  149.6604 H   0  0  0  0  0  0  0  0  0  0  0  0
  151.7895  137.1130  154.4523 H   0  0  0  0  0  0  0  0  0  0  0  0
  153.0026  138.3036  154.9137 H   0  0  0  0  0  0  0  0  0  0  0  0
  152.1087  138.4971  153.4080 H   0  0  0  0  0  0  0  0  0  0  0  0
  150.9294  138.6446  156.2267 H   0  0  0  0  0  0  0  0  0  0  0  0
  149.6090  139.0652  153.4975 H   0  0  0  0  0  0  0  0  0  0  0  0
  149.2641  137.7703  154.6220 H   0  0  0  0  0  0  0  0  0  0  0  0
  146.7947  138.5396  155.0807 H   0  0  0  0  0  0  0  0  0  0  0  0
  146.5842  140.2614  154.9430 H   0  0  0  0  0  0  0  0  0  0  0  0
  147.2006  140.3246  152.6618 H   0  0  0  0  0  0  0  0  0  0  0  0
  148.1001  138.8462  152.7679 H   0  0  0  0  0  0  0  0  0  0  0  0
  145.2547  138.3922  153.4076 H   0  0  0  0  0  0  0  0  0  0  0  0
  145.4561  139.0698  151.8099 H   0  0  0  0  0  0  0  0  0  0  0  0
  147.3622  137.0118  152.0931 H   0  0  0  0  0  0  0  0  0  0  0  0
  147.1823  135.1734  151.3761 H   0  0  0  0  0  0  0  0  0  0  0  0
  147.2279  132.3567  150.8273 H   0  0  0  0  0  0  0  0  0  0  0  0
  143.4884  134.5110  150.3761 H   0  0  0  0  0  0  0  0  0  0  0  0
  148.9956  141.3762  154.1074 H   0  0  0  0  0  0  0  0  0  0  0  0
  148.2912  141.6927  155.6739 H   0  0  0  0  0  0  0  0  0  0  0  0
  150.7286  142.2673  155.4674 H   0  0  0  0  0  0  0  0  0  0  0  0
  149.7858  141.9638  157.7128 H   0  0  0  0  0  0  0  0  0  0  0  0
  151.4323  141.3433  157.6614 H   0  0  0  0  0  0  0  0  0  0  0  0
  150.0646  140.2318  157.6494 H   0  0  0  0  0  0  0  0  0  0  0  0
  1  2  1  0  0  0  0
  1 22  1  0  0  0  0
  1 23  1  0  0  0  0
  1 24  1  0  0  0  0
  2 20  1  0  0  0  0
  2  3  1  0  0  0  0
  2 25  1  0  0  0  0
  3  4  1  0  0  0  0
  3 26  1  0  0  0  0
  3 27  1  0  0  0  0
  4  5  1  0  0  0  0
  4 17  1  0  0  0  0
  5  6  1  0  0  0  0
  5 28  1  0  0  0  0
  5 29  1  0  0  0  0
  6  7  1  0  0  0  0
  6 30  1  0  0  0  0
  6 31  1  0  0  0  0
  7  8  1  0  0  0  0
  7 32  1  0  0  0  0
  7 33  1  0  0  0  0
  8  9  1  0  0  0  0
  8 34  1  0  0  0  0
  9 10  2  0  0  0  0
  9 11  1  0  0  0  0
 11 12  1  0  0  0  0
 11 35  1  0  0  0  0
 12 16  2  0  0  0  0
 12 13  1  0  0  0  0
 13 14  2  0  0  0  0
 13 36  1  0  0  0  0
 14 15  1  0  0  0  0
 15 21  1  0  0  0  0
 15 16  1  0  0  0  0
 16 37  1  0  0  0  0
 17 18  1  0  0  0  0
 17 38  1  0  0  0  0
 17 39  1  0  0  0  0
 18 19  1  0  0  0  0
 18 20  1  0  0  0  0
 18 40  1  0  0  0  0
 19 41  1  0  0  0  0
 19 42  1  0  0  0  0
 19 43  1  0  0  0  0
M  END
> <s_m_source_file>
AV-unprocessed.smi

> <i_m_source_file_index>
1900

> <i_lp_mmshare_version>
43012

> <i_f3d_flags>
0

> <s_epik_input>
W0NIM11bQ0BASF0xW0NIMl1OKFtDSDJdW0NASF0oTzEpW0NIM10pW0NIMl1bQ0gyXVtDSDJdW05IXUMoPU8pW05IXWMyW2NIXW5bbkhdW2NIXTI=

> <s_epik_cmdline>
J2VwaWtfcHl0aG9uJywgJy1waCcsICc3LjAnLCAnLXRuJywgJzgnLCAnLW1hJywgJzIwMCcsICctbWV0YWxfYmluZGluZycsICctaW1hZScsICc8aW5maWxlLm1hZT4nLCAnLW9tYWUnLCAnPG91dGZpbGUubWFlPic=

> <r_lp_tautomer_probability>
0.5

> <r_epik_Ionization_Penalty>
0.594715

> <r_epik_Ionization_Penalty_Charging>
0

> <r_epik_Ionization_Penalty_Neutral>
0.594715

> <r_epik_State_Penalty>
0.608529

> <r_epik_Charging_Adjusted_Penalty>
0.608529

> <i_epik_Tot_Q>
0

> <i_epik_Tot_abs_Q>
0

> <r_epik_Metal_State_Penalty>
0.608528

> <b_epik_Metal_Only>
0

> <s_lp_Force_Field>
OPLS_2005

> <r_lp_Energy>
27.7437

> <b_lp_Chiralities_Consistent>
1

> <s_lp_Variant>
AV-unprocessed.smi:1900-5

> <Gold.Version>
5.8.1

> <Gold.Id.Protein>
6NUR|6NUR_protein|mol2

> <Gold.PLP.Fitness>
44.9492

> <Gold.PLP.PLP>
-32.2374

> <Gold.PLP.part.hbond>
-3.0000

> <Gold.PLP.part.metal>
0.0000

> <Gold.PLP.part.buried>
-4.9505

> <Gold.PLP.part.nonpolar>
-26.2481

> <Gold.PLP.part.repulsive>
1.9365

> <Gold.PLP.ligand.clash>
0.0000

> <Gold.PLP.ligand.torsion>
0.6971

> <Gold.PLP.Chemscore.Hbond>
2.9508

> <Gold.PLP.Chemscore.CHOScore>
1.7379

> <Gold.PLP.Chemscore.Metal>
0.0000

> <Gold.Chemscore.Hbonds>
donor molecule, donor type, donor heavy atom, donor atom, acceptor molecule, acceptor atom, score
      L1  H     8    34       P1  7948  1.00
      L1  H    11    35       P1  7948  0.91
      P1  H  7989  7998       L1    20  0.99
      L1  C    13    36       P1 10747  1.00
      L1  C    16    37       P1 10186  0.80

> <Gold.PLP.Chemscore.Internal.Correction>
0.0402

> <Gold.Rescore>
     Score         DG    S(hbond)    S(metal)    S(lipo)     H(rot)  DE(clash)    DE(int)     intcor
     15.31     -17.52       2.34        0.00      77.27       1.88       0.30       1.91       ----

> <Gold.Chemscore.Fitness>
15.3102

> <Gold.Chemscore.DG>
-17.5180

> <Gold.Chemscore.ZeroCoef>
-5.4800

> <Gold.Chemscore.Hbond>
2.3385

> <Gold.Chemscore.Metal>
0.0000

> <Gold.Chemscore.Lipo>
77.2656

> <Gold.Chemscore.Internal_Hbond>
0.0000

> <Gold.Chemscore.DEClash>
0.3019

> <Gold.Chemscore.DEInternal>
1.9059

> <Gold.Chemscore.Rot>
1.8799

> <Gold.Chemscore.Internal.Correction>
   9.000000E+99

> <Gold.Chemscore.Hbonds>
donor molecule, donor type, donor heavy atom, donor atom, acceptor molecule, acceptor atom, score
      L1  H     8    34       P1  7948  1.00
      L1  H    11    35       P1  7948  0.68
      P1  H  7989  7998       L1    20  0.48

> <Gold.Chemscore.Hbond.Weighted>
-7.8105

> <Gold.Chemscore.Metal.Weighted>
-0.0000

> <Gold.Chemscore.Lipo.Weighted>
-9.0401

> <Gold.Chemscore.Internal_Hbond.Weighted>
0.0000

> <Gold.Chemscore.DEClash.Weighted>
0.3019

> <Gold.Chemscore.DEInternal.Weighted>
1.9059

> <Gold.Chemscore.Rot.Weighted>
4.8126

> <Gold.Chemscore.Internal.Correction.Weighted>
   9.000000E+99

> <Gold.Protein.RotatedTorsions>
[ 6907 6896 6895 6894 ] final  -98.48 input  -60.11 | X-H torsion
[ 7974 7965 7964 7962 ] final  124.67 input  175.53 | X-H torsion
[ 8008 7997 7996 7995 ] final  150.30 input   59.86 | X-H torsion
[ 10167 10162 10161 10158 ] final  -81.28 input  -65.29 | X-H torsion
[ 10718 10713 10712 10709 ] final   22.73 input   66.30 | X-H torsion
[ 10763 10752 10751 10750 ] final  113.80 input  -60.55 | X-H torsion
[ 11005 11000 10999 10996 ] final  -63.47 input  -57.11 | X-H torsion

> <Gold.Protein.ActiveResidues>
 VAL166  LYS551  ARG553  GLY616  TRP617  ASP618  TYR619  PRO620  LYS621  CYS622 
 ASP623  PHE694  ASN695  SER759  ASP760  ASP761  ALA762  ILE779  LEU786  VAL792 
 PHE793  MET794  SER795  GLU796  ALA797  LYS798  CYS799  TRP800  GLU811  SER814 

> <Gold.Protein.RotatedAtoms>
  150.7048  134.1188  159.4026 H   0  0  0  0  0  0  0  0  0  0  0  0  # atno 6907 bound_to 6896
  151.9175  135.0310  160.0528 H   0  0  0  0  0  0  0  0  0  0  0  0  # atno 6908 bound_to 6896
  152.2284  133.5003  159.5239 H   0  0  0  0  0  0  0  0  0  0  0  0  # atno 6909 bound_to 6896
  145.0818  139.3652  143.4905 H   0  0  0  0  0  0  0  0  0  0  0  0  # atno 7974 bound_to 7965
  156.2721  140.2078  156.5995 H   0  0  0  0  0  0  0  0  0  0  0  0  # atno 8008 bound_to 7997
  154.6918  140.0529  157.0395 H   0  0  0  0  0  0  0  0  0  0  0  0  # atno 8009 bound_to 7997
  155.0856  140.3191  155.4591 H   0  0  0  0  0  0  0  0  0  0  0  0  # atno 8010 bound_to 7997
  140.4427  143.2509  151.8603 H   0  0  0  0  0  0  0  0  0  0  0  0  # atno 10167 bound_to 10162
  157.1563  130.6697  149.6029 H   0  0  0  0  0  0  0  0  0  0  0  0  # atno 10718 bound_to 10713
  153.4979  135.3644  155.2525 H   0  0  0  0  0  0  0  0  0  0  0  0  # atno 10763 bound_to 10752
  154.8749  135.3993  154.3512 H   0  0  0  0  0  0  0  0  0  0  0  0  # atno 10764 bound_to 10752
  153.4143  135.7078  153.6403 H   0  0  0  0  0  0  0  0  0  0  0  0  # atno 10765 bound_to 10752
  141.1394  133.6652  156.5685 H   0  0  0  0  0  0  0  0  0  0  0  0  # atno 11005 bound_to 11000
  146.3531  140.0611  142.8629 LP  0  0  0  0  0  0  0  0  0  0  0  0  # atno 17320 bound_to 7965
  145.1169  140.9439  143.4623 LP  0  0  0  0  0  0  0  0  0  0  0  0  # atno 17321 bound_to 7965
  139.4790  144.5211  151.8800 LP  0  0  0  0  0  0  0  0  0  0  0  0  # atno 17342 bound_to 10162
  140.4300  144.2128  150.5888 LP  0  0  0  0  0  0  0  0  0  0  0  0  # atno 17343 bound_to 10162
  155.9761  130.4727  150.6508 LP  0  0  0  0  0  0  0  0  0  0  0  0  # atno 17370 bound_to 10713
  157.4174  131.0832  151.1164 LP  0  0  0  0  0  0  0  0  0  0  0  0  # atno 17371 bound_to 10713
  140.3931  134.7422  157.4734 LP  0  0  0  0  0  0  0  0  0  0  0  0  # atno 17394 bound_to 11000
  140.0551  134.6075  155.8815 LP  0  0  0  0  0  0  0  0  0  0  0  0  # atno 17395 bound_to 11000

$$$$
