AV-unprocessed.smi:1692|AV-procd|sdf|6778|dock4
  -GOLD-   22720 7533D 1   1.00000     0.00000
 Structure written by MMmdl.
 46 47  0  0  0  0  0  0  0  0  2 V2000
  150.2947  135.0444  154.9601 C   0  0  0  0  0  0  0  0  0  0  0  0
  150.2027  136.2931  155.8553 C   0  0  2  0  0  0  0  0  0  0  0  0
  149.0372  137.2312  155.4857 C   0  0  0  0  0  0  0  0  0  0  0  0
  149.3210  137.9731  154.2342 N   0  3  1  0  0  0  0  0  0  0  0  0
  148.1871  138.8378  153.8225 C   0  0  0  0  0  0  0  0  0  0  0  0
  148.0270  140.0738  154.7290 C   0  0  0  0  0  0  0  0  0  0  0  0
  148.5303  141.3855  154.0975 C   0  0  0  0  0  0  0  0  0  0  0  0
  149.0215  142.3393  155.0889 N   0  0  0  0  0  0  0  0  0  0  0  0
  149.9052  142.0640  156.0600 C   0  0  0  0  0  0  0  0  0  0  0  0
  150.3811  140.9432  156.2434 O   0  0  0  0  0  0  0  0  0  0  0  0
  150.1865  143.1578  156.7899 N   0  0  0  0  0  0  0  0  0  0  0  0
  151.0568  143.2652  157.9079 C   0  0  0  0  0  0  0  0  0  0  0  0
  151.3108  144.5851  158.3446 C   0  0  0  0  0  0  0  0  0  0  0  0
  152.1616  144.7989  159.4464 C   0  0  0  0  0  0  0  0  0  0  0  0
  152.7362  143.6856  160.0850 C   0  0  0  0  0  0  0  0  0  0  0  0
  152.4296  142.4051  159.5888 C   0  0  0  0  0  0  0  0  0  0  0  0
  151.6140  142.1980  158.5333 N   0  0  0  0  0  0  0  0  0  0  0  0
  150.6087  138.6991  154.3495 C   0  0  0  0  0  0  0  0  0  0  0  0
  151.7479  137.7230  154.6948 C   0  0  1  0  0  0  0  0  0  0  0  0
  153.0795  138.4494  154.9156 C   0  0  0  0  0  0  0  0  0  0  0  0
  151.4286  137.0230  155.8945 O   0  0  0  0  0  0  0  0  0  0  0  0
  149.3954  134.4351  155.0541 H   0  0  0  0  0  0  0  0  0  0  0  0
  151.1433  134.4228  155.2463 H   0  0  0  0  0  0  0  0  0  0  0  0
  150.4051  135.2964  153.9059 H   0  0  0  0  0  0  0  0  0  0  0  0
  150.0318  135.9383  156.8721 H   0  0  0  0  0  0  0  0  0  0  0  0
  148.1169  136.6545  155.3833 H   0  0  0  0  0  0  0  0  0  0  0  0
  148.8721  137.9478  156.2922 H   0  0  0  0  0  0  0  0  0  0  0  0
  148.3710  139.1815  152.8046 H   0  0  0  0  0  0  0  0  0  0  0  0
  147.2650  138.2556  153.7897 H   0  0  0  0  0  0  0  0  0  0  0  0
  146.9761  140.2121  154.9809 H   0  0  0  0  0  0  0  0  0  0  0  0
  148.5434  139.9042  155.6747 H   0  0  0  0  0  0  0  0  0  0  0  0
  149.2913  141.1775  153.3433 H   0  0  0  0  0  0  0  0  0  0  0  0
  147.7069  141.8650  153.5675 H   0  0  0  0  0  0  0  0  0  0  0  0
  148.6825  143.2874  155.0116 H   0  0  0  0  0  0  0  0  0  0  0  0
  149.7292  144.0138  156.5134 H   0  0  0  0  0  0  0  0  0  0  0  0
  150.8620  145.4297  157.8416 H   0  0  0  0  0  0  0  0  0  0  0  0
  152.3695  145.8002  159.7939 H   0  0  0  0  0  0  0  0  0  0  0  0
  153.3942  143.8088  160.9323 H   0  0  0  0  0  0  0  0  0  0  0  0
  152.8500  141.5240  160.0506 H   0  0  0  0  0  0  0  0  0  0  0  0
  150.8443  139.2077  153.4152 H   0  0  0  0  0  0  0  0  0  0  0  0
  150.5249  139.4688  155.1185 H   0  0  0  0  0  0  0  0  0  0  0  0
  151.8831  137.0131  153.8786 H   0  0  0  0  0  0  0  0  0  0  0  0
  153.3810  138.9980  154.0228 H   0  0  0  0  0  0  0  0  0  0  0  0
  153.8739  137.7419  155.1544 H   0  0  0  0  0  0  0  0  0  0  0  0
  153.0100  139.1614  155.7385 H   0  0  0  0  0  0  0  0  0  0  0  0
  149.4329  137.2768  153.5111 H   0  0  0  0  0  0  0  0  0  0  0  0
  1  2  1  0  0  0  0
  1 22  1  0  0  0  0
  1 23  1  0  0  0  0
  1 24  1  0  0  0  0
  2 21  1  0  0  0  0
  2  3  1  0  0  0  0
  2 25  1  0  0  0  0
  3  4  1  0  0  0  0
  3 26  1  0  0  0  0
  3 27  1  0  0  0  0
  4  5  1  0  0  0  0
  4 18  1  0  0  0  0
  4 46  1  0  0  0  0
  5  6  1  0  0  0  0
  5 28  1  0  0  0  0
  5 29  1  0  0  0  0
  6  7  1  0  0  0  0
  6 30  1  0  0  0  0
  6 31  1  0  0  0  0
  7  8  1  0  0  0  0
  7 32  1  0  0  0  0
  7 33  1  0  0  0  0
  8  9  1  0  0  0  0
  8 34  1  0  0  0  0
  9 10  2  0  0  0  0
  9 11  1  0  0  0  0
 11 12  1  0  0  0  0
 11 35  1  0  0  0  0
 12 17  1  0  0  0  0
 12 13  2  0  0  0  0
 13 14  1  0  0  0  0
 13 36  1  0  0  0  0
 14 15  2  0  0  0  0
 14 37  1  0  0  0  0
 15 16  1  0  0  0  0
 15 38  1  0  0  0  0
 16 17  2  0  0  0  0
 16 39  1  0  0  0  0
 18 19  1  0  0  0  0
 18 40  1  0  0  0  0
 18 41  1  0  0  0  0
 19 20  1  0  0  0  0
 19 21  1  0  0  0  0
 19 42  1  0  0  0  0
 20 43  1  0  0  0  0
 20 44  1  0  0  0  0
 20 45  1  0  0  0  0
M  CHG  1   4   1
M  END
> <s_m_source_file>
AV-unprocessed.smi

> <i_m_source_file_index>
1692

> <i_lp_mmshare_version>
43012

> <i_f3d_flags>
0

> <s_epik_input>
W0NIM11bQ0BASF0xW0NIMl1OKFtDSDJdW0NASF0oTzEpW0NIM10pW0NIMl1bQ0gyXVtDSDJdW05IXUMoPU8pW05IXWMyW2NIXVtjSF1bY0hdW2NIXW4y

> <s_epik_cmdline>
J2VwaWtfcHl0aG9uJywgJy1waCcsICc3LjAnLCAnLXRuJywgJzgnLCAnLW1hJywgJzIwMCcsICctbWV0YWxfYmluZGluZycsICctaW1hZScsICc8aW5maWxlLm1hZT4nLCAnLW9tYWUnLCAnPG91dGZpbGUubWFlPic=

> <r_epik_Ionization_Penalty>
0.270538

> <r_epik_Ionization_Penalty_Charging>
0.270496

> <r_epik_Ionization_Penalty_Neutral>
4.22978e-05

> <r_epik_State_Penalty>
0.262618

> <r_epik_Charging_Adjusted_Penalty>
0.533114

> <i_epik_Tot_Q>
1

> <i_epik_Tot_abs_Q>
1

> <r_epik_Metal_State_Penalty>
0.262618

> <b_epik_Metal_Only>
0

> <s_lp_Force_Field>
OPLS_2005

> <r_lp_Energy>
21.1516

> <b_lp_Chiralities_Consistent>
1

> <s_lp_Variant>
AV-unprocessed.smi:1692-1

> <Gold.Version>
5.8.1

> <Gold.Id.Protein>
6NUR|6NUR_protein|mol2

> <Gold.PLP.Fitness>
54.1702

> <Gold.PLP.PLP>
-42.6770

> <Gold.PLP.part.hbond>
-3.3991

> <Gold.PLP.part.metal>
0.0000

> <Gold.PLP.part.buried>
-3.7238

> <Gold.PLP.part.nonpolar>
-35.8119

> <Gold.PLP.part.repulsive>
0.3630

> <Gold.PLP.ligand.clash>
0.0000

> <Gold.PLP.ligand.torsion>
0.6114

> <Gold.PLP.Chemscore.Hbond>
4.2256

> <Gold.PLP.Chemscore.CHOScore>
0.0000

> <Gold.PLP.Chemscore.Metal>
0.0000

> <Gold.Chemscore.Hbonds>
donor molecule, donor type, donor heavy atom, donor atom, acceptor molecule, acceptor atom, score
      L1  H     4    46       P1  7948  2.00
      L1  H     8    34       P1  8028  0.85
      L1  H    11    35       P1  8028  0.62

> <Gold.PLP.Chemscore.Internal.Correction>
0.0392

> <Gold.Rescore>
     Score         DG    S(hbond)    S(metal)    S(lipo)     H(rot)  DE(clash)    DE(int)     intcor
     19.70     -23.01       2.95        0.00     104.49       1.78       0.21       3.10       ----

> <Gold.Chemscore.Fitness>
19.6966

> <Gold.Chemscore.DG>
-23.0104

> <Gold.Chemscore.ZeroCoef>
-5.4800

> <Gold.Chemscore.Hbond>
2.9538

> <Gold.Chemscore.Metal>
0.0000

> <Gold.Chemscore.Lipo>
104.4883

> <Gold.Chemscore.Internal_Hbond>
0.0000

> <Gold.Chemscore.DEClash>
0.2105

> <Gold.Chemscore.DEInternal>
3.1033

> <Gold.Chemscore.Rot>
1.7814

> <Gold.Chemscore.Internal.Correction>
   9.000000E+99

> <Gold.Chemscore.Hbonds>
donor molecule, donor type, donor heavy atom, donor atom, acceptor molecule, acceptor atom, score
      L1  H     4    46       P1  7948  0.91
      L1  H     8    34       P1  8028  0.80
      L1  H    11    35       P1  8028  0.60

> <Gold.Chemscore.Hbond.Weighted>
-9.8656

> <Gold.Chemscore.Metal.Weighted>
-0.0000

> <Gold.Chemscore.Lipo.Weighted>
-12.2251

> <Gold.Chemscore.Internal_Hbond.Weighted>
0.0000

> <Gold.Chemscore.DEClash.Weighted>
0.2105

> <Gold.Chemscore.DEInternal.Weighted>
3.1033

> <Gold.Chemscore.Rot.Weighted>
4.5603

> <Gold.Chemscore.Internal.Correction.Weighted>
   9.000000E+99

> <Gold.Protein.RotatedTorsions>
[ 6907 6896 6895 6894 ] final   46.92 input  -60.11 | X-H torsion
[ 7974 7965 7964 7962 ] final   77.52 input  175.53 | X-H torsion
[ 8008 7997 7996 7995 ] final  -64.79 input   59.86 | X-H torsion
[ 10167 10162 10161 10158 ] final  133.36 input  -65.29 | X-H torsion
[ 10718 10713 10712 10709 ] final  -40.98 input   66.30 | X-H torsion
[ 10763 10752 10751 10750 ] final  -29.32 input  -60.55 | X-H torsion
[ 11005 11000 10999 10996 ] final  -35.54 input  -57.11 | X-H torsion

> <Gold.Protein.ActiveResidues>
 VAL166  LYS551  ARG553  GLY616  TRP617  ASP618  TYR619  PRO620  LYS621  CYS622 
 ASP623  PHE694  ASN695  SER759  ASP760  ASP761  ALA762  ILE779  LEU786  VAL792 
 PHE793  MET794  SER795  GLU796  ALA797  LYS798  CYS799  TRP800  GLU811  SER814 

> <Gold.Protein.RotatedAtoms>
  152.2621  134.8023  160.0428 H   0  0  0  0  0  0  0  0  0  0  0  0  # atno 6907 bound_to 6896
  151.8666  133.3462  159.3729 H   0  0  0  0  0  0  0  0  0  0  0  0  # atno 6908 bound_to 6896
  150.7120  134.5081  159.5638 H   0  0  0  0  0  0  0  0  0  0  0  0  # atno 6909 bound_to 6896
  145.6890  139.2546  143.1771 H   0  0  0  0  0  0  0  0  0  0  0  0  # atno 7974 bound_to 7965
  154.4633  140.0946  156.6952 H   0  0  0  0  0  0  0  0  0  0  0  0  # atno 8008 bound_to 7997
  155.4931  140.3471  155.4340 H   0  0  0  0  0  0  0  0  0  0  0  0  # atno 8009 bound_to 7997
  156.0910  140.1397  156.9581 H   0  0  0  0  0  0  0  0  0  0  0  0  # atno 8010 bound_to 7997
  139.5300  144.6619  151.4985 H   0  0  0  0  0  0  0  0  0  0  0  0  # atno 10167 bound_to 10162
  156.2754  130.4211  149.8393 H   0  0  0  0  0  0  0  0  0  0  0  0  # atno 10718 bound_to 10713
  153.7627  135.6918  153.4922 H   0  0  0  0  0  0  0  0  0  0  0  0  # atno 10763 bound_to 10752
  153.1927  135.4465  155.0169 H   0  0  0  0  0  0  0  0  0  0  0  0  # atno 10764 bound_to 10752
  154.8147  135.3393  154.7141 H   0  0  0  0  0  0  0  0  0  0  0  0  # atno 10765 bound_to 10752
  140.9804  133.7059  156.1674 H   0  0  0  0  0  0  0  0  0  0  0  0  # atno 11005 bound_to 11000
  146.0899  140.7668  142.9600 LP  0  0  0  0  0  0  0  0  0  0  0  0  # atno 17320 bound_to 7965
  144.7002  140.3620  143.7162 LP  0  0  0  0  0  0  0  0  0  0  0  0  # atno 17321 bound_to 7965
  140.6471  143.8771  150.6748 LP  0  0  0  0  0  0  0  0  0  0  0  0  # atno 17342 bound_to 10162
  140.2124  143.3872  152.1707 LP  0  0  0  0  0  0  0  0  0  0  0  0  # atno 17343 bound_to 10162
  156.5860  130.8486  151.3395 LP  0  0  0  0  0  0  0  0  0  0  0  0  # atno 17370 bound_to 10713
  157.7297  130.9675  150.1801 LP  0  0  0  0  0  0  0  0  0  0  0  0  # atno 17371 bound_to 10713
  140.7195  134.4374  157.5576 LP  0  0  0  0  0  0  0  0  0  0  0  0  # atno 17394 bound_to 11000
  139.8948  134.8698  156.2161 LP  0  0  0  0  0  0  0  0  0  0  0  0  # atno 17395 bound_to 11000

$$$$
