AV-unprocessed.smi:111|AV-procd|sdf|1081|dock2
  -GOLD-   2262018173D 1   1.00000     0.00000
 Structure written by MMmdl.
 46 48  0  0  0  0  0  0  0  0  1 V2000
  150.9162  140.1456  156.3209 O   0  0  0  0  0  0  0  0  0  0  0  0
  150.4786  139.3107  157.1144 C   0  0  0  0  0  0  0  0  0  0  0  0
  149.0533  139.0852  157.3284 C   0  0  0  0  0  0  0  0  0  0  0  0
  148.1554  139.7879  156.6169 F   0  0  0  0  0  0  0  0  0  0  0  0
  148.6168  138.1848  158.2351 C   0  0  0  0  0  0  0  0  0  0  0  0
  149.4710  137.4200  159.0117 N   0  0  0  0  0  0  0  0  0  0  0  0
  148.9448  136.4289  160.0273 C   0  0  2  0  0  0  0  0  0  0  0  0
  148.2923  135.2381  159.3185 C   0  0  0  0  0  0  0  0  0  0  0  0
  146.8516  135.6900  159.2225 C   0  0  0  0  0  0  0  0  0  0  0  0
  146.6825  136.4615  160.5272 C   0  0  0  0  0  0  0  0  0  0  0  0
  147.9554  137.0442  160.8012 O   0  0  0  0  0  0  0  0  0  0  0  0
  150.8671  137.5517  158.8525 C   0  0  0  0  0  0  0  0  0  0  0  0
  151.6456  136.8622  159.5156 O   0  0  0  0  0  0  0  0  0  0  0  0
  151.3288  138.5011  157.9098 N   0  0  0  0  0  0  0  0  0  0  0  0
  152.7696  138.6856  157.8012 C   0  0  0  0  0  0  0  0  0  0  0  0
  153.4531  139.0743  159.1323 C   0  0  1  0  0  0  0  0  0  0  0  0
  154.8449  139.1583  158.9060 O   0  0  0  0  0  0  0  0  0  0  0  0
  152.9609  140.4089  159.7348 C   0  0  0  0  0  0  0  0  0  0  0  0
  152.7151  141.5142  158.6915 C   0  0  0  0  0  0  0  0  0  0  0  0
  152.4042  142.8615  159.3233 C   0  0  0  0  0  0  0  0  0  0  0  0
  152.1145  143.9760  158.5071 C   0  0  0  0  0  0  0  0  0  0  0  0
  151.7958  145.2177  159.0898 C   0  0  0  0  0  0  0  0  0  0  0  0
  151.7710  145.3523  160.4912 C   0  0  0  0  0  0  0  0  0  0  0  0
  152.0646  144.2445  161.3095 C   0  0  0  0  0  0  0  0  0  0  0  0
  152.3803  143.0013  160.7273 C   0  0  0  0  0  0  0  0  0  0  0  0
  147.5493  138.0652  158.3441 H   0  0  0  0  0  0  0  0  0  0  0  0
  149.7952  136.1631  160.6576 H   0  0  0  0  0  0  0  0  0  0  0  0
  148.7566  135.0174  158.3566 H   0  0  0  0  0  0  0  0  0  0  0  0
  148.3767  134.3614  159.9616 H   0  0  0  0  0  0  0  0  0  0  0  0
  146.7215  136.3548  158.3679 H   0  0  0  0  0  0  0  0  0  0  0  0
  146.1483  134.8631  159.1219 H   0  0  0  0  0  0  0  0  0  0  0  0
  145.9011  137.2191  160.4670 H   0  0  0  0  0  0  0  0  0  0  0  0
  146.4318  135.7790  161.3400 H   0  0  0  0  0  0  0  0  0  0  0  0
  153.1651  137.7435  157.4157 H   0  0  0  0  0  0  0  0  0  0  0  0
  152.9781  139.4151  157.0183 H   0  0  0  0  0  0  0  0  0  0  0  0
  153.3001  138.2684  159.8487 H   0  0  0  0  0  0  0  0  0  0  0  0
  155.2916  138.7271  159.6184 H   0  0  0  0  0  0  0  0  0  0  0  0
  152.0537  140.2375  160.3150 H   0  0  0  0  0  0  0  0  0  0  0  0
  153.6933  140.7897  160.4446 H   0  0  0  0  0  0  0  0  0  0  0  0
  153.5788  141.6038  158.0316 H   0  0  0  0  0  0  0  0  0  0  0  0
  151.8750  141.2340  158.0552 H   0  0  0  0  0  0  0  0  0  0  0  0
  152.1277  143.8791  157.4315 H   0  0  0  0  0  0  0  0  0  0  0  0
  151.5692  146.0664  158.4617 H   0  0  0  0  0  0  0  0  0  0  0  0
  151.5267  146.3044  160.9386 H   0  0  0  0  0  0  0  0  0  0  0  0
  152.0443  144.3474  162.3845 H   0  0  0  0  0  0  0  0  0  0  0  0
  152.5948  142.1543  161.3623 H   0  0  0  0  0  0  0  0  0  0  0  0
  1  2  2  0  0  0  0
  2 14  1  0  0  0  0
  2  3  1  0  0  0  0
  3  4  1  0  0  0  0
  3  5  2  0  0  0  0
  5  6  1  0  0  0  0
  5 26  1  0  0  0  0
  6  7  1  0  0  0  0
  6 12  1  0  0  0  0
  7 11  1  0  0  0  0
  7  8  1  0  0  0  0
  7 27  1  0  0  0  0
  8  9  1  0  0  0  0
  8 28  1  0  0  0  0
  8 29  1  0  0  0  0
  9 10  1  0  0  0  0
  9 30  1  0  0  0  0
  9 31  1  0  0  0  0
 10 11  1  0  0  0  0
 10 32  1  0  0  0  0
 10 33  1  0  0  0  0
 12 13  2  0  0  0  0
 12 14  1  0  0  0  0
 14 15  1  0  0  0  0
 15 16  1  0  0  0  0
 15 34  1  0  0  0  0
 15 35  1  0  0  0  0
 16 17  1  0  0  0  0
 16 18  1  0  0  0  0
 16 36  1  0  0  0  0
 17 37  1  0  0  0  0
 18 19  1  0  0  0  0
 18 38  1  0  0  0  0
 18 39  1  0  0  0  0
 19 20  1  0  0  0  0
 19 40  1  0  0  0  0
 19 41  1  0  0  0  0
 20 25  1  0  0  0  0
 20 21  2  0  0  0  0
 21 22  1  0  0  0  0
 21 42  1  0  0  0  0
 22 23  2  0  0  0  0
 22 43  1  0  0  0  0
 23 24  1  0  0  0  0
 23 44  1  0  0  0  0
 24 25  2  0  0  0  0
 24 45  1  0  0  0  0
 25 46  1  0  0  0  0
M  END
> <s_m_source_file>
AV-unprocessed.smi

> <i_m_source_file_index>
111

> <i_lp_mmshare_version>
43012

> <i_f3d_flags>
0

> <s_epik_input>
TzFbQ0gyXVtDSDJdW0NIMl1bQ0BIXTFuKFtjSF1jKEYpYzI9TyljKD1PKW4yW0NIMl1bQ0BIXShbT0hdKVtDSDJdW0NIMl1jM1tjSF1bY0hdW2NIXVtjSF1bY0hdMw==

> <s_epik_cmdline>
J2VwaWtfcHl0aG9uJywgJy1waCcsICc3LjAnLCAnLXRuJywgJzgnLCAnLW1hJywgJzIwMCcsICctbWV0YWxfYmluZGluZycsICctaW1hZScsICc8aW5maWxlLm1hZT4nLCAnLW9tYWUnLCAnPG91dGZpbGUubWFlPic=

> <r_lp_tautomer_probability>
1

> <r_epik_Ionization_Penalty>
1.88248e-07

> <r_epik_Ionization_Penalty_Charging>
4.03974e-08

> <r_epik_Ionization_Penalty_Neutral>
1.47851e-07

> <r_epik_State_Penalty>
-0

> <r_epik_Charging_Adjusted_Penalty>
4.03974e-08

> <i_epik_Tot_Q>
0

> <i_epik_Tot_abs_Q>
0

> <r_epik_Metal_State_Penalty>
-0

> <b_epik_Metal_Only>
0

> <s_epik_Chemistry_Notes>
This compound contains an acetal/aminal-like group ( X-CH(R)-Y where X, Y are N, S, or O) that may be acid/base labile, releasing an aldehyde.

> <s_lp_Force_Field>
OPLS_2005

> <r_lp_Energy>
35.2037

> <b_lp_Chiralities_Consistent>
1

> <s_lp_Variant>
AV-unprocessed.smi:111-3

> <Gold.Version>
5.8.1

> <Gold.Id.Protein>
6NUR|6NUR_protein|mol2

> <Gold.PLP.Fitness>
55.9123

> <Gold.PLP.PLP>
-46.4856

> <Gold.PLP.part.hbond>
-4.0000

> <Gold.PLP.part.metal>
0.0000

> <Gold.PLP.part.buried>
-6.7518

> <Gold.PLP.part.nonpolar>
-35.2157

> <Gold.PLP.part.repulsive>
0.0000

> <Gold.PLP.ligand.clash>
0.0000

> <Gold.PLP.ligand.torsion>
0.4618

> <Gold.PLP.Chemscore.Hbond>
3.4192

> <Gold.PLP.Chemscore.CHOScore>
0.0000

> <Gold.PLP.Chemscore.Metal>
0.0000

> <Gold.Chemscore.Hbonds>
donor molecule, donor type, donor heavy atom, donor atom, acceptor molecule, acceptor atom, score
      P1  H  6896  6909       L1    13  1.00
      P1  H  6931  6943       L1    11  0.93
      P1  H  6934  6947       L1    11  0.43
      P1  H  7997  8009       L1    17  1.00

> <Gold.PLP.Chemscore.Internal.Correction>
0.0927

> <Gold.Rescore>
     Score         DG    S(hbond)    S(metal)    S(lipo)     H(rot)  DE(clash)    DE(int)     intcor
     19.37     -21.50       2.88        0.00     113.20       2.67       0.01       2.11       ----

> <Gold.Chemscore.Fitness>
19.3728

> <Gold.Chemscore.DG>
-21.5009

> <Gold.Chemscore.ZeroCoef>
-5.4800

> <Gold.Chemscore.Hbond>
2.8810

> <Gold.Chemscore.Metal>
0.0000

> <Gold.Chemscore.Lipo>
113.2015

> <Gold.Chemscore.Internal_Hbond>
0.0000

> <Gold.Chemscore.DEClash>
0.0149

> <Gold.Chemscore.DEInternal>
2.1133

> <Gold.Chemscore.Rot>
2.6743

> <Gold.Chemscore.Internal.Correction>
   9.000000E+99

> <Gold.Chemscore.Hbonds>
donor molecule, donor type, donor heavy atom, donor atom, acceptor molecule, acceptor atom, score
      P1  H  6896  6909       L1    13  0.95
      P1  H  6931  6943       L1    11  0.26
      P1  H  6934  6947       L1    11  0.04
      P1  H  7997  8009       L1    17  0.94

> <Gold.Chemscore.Hbond.Weighted>
-9.6226

> <Gold.Chemscore.Metal.Weighted>
-0.0000

> <Gold.Chemscore.Lipo.Weighted>
-13.2446

> <Gold.Chemscore.Internal_Hbond.Weighted>
0.0000

> <Gold.Chemscore.DEClash.Weighted>
0.0149

> <Gold.Chemscore.DEInternal.Weighted>
2.1133

> <Gold.Chemscore.Rot.Weighted>
6.8463

> <Gold.Chemscore.Internal.Correction.Weighted>
   9.000000E+99

> <Gold.Protein.RotatedTorsions>
[ 6907 6896 6895 6894 ] final  101.42 input  -60.11 | X-H torsion
[ 7974 7965 7964 7962 ] final -101.33 input  175.53 | X-H torsion
[ 8008 7997 7996 7995 ] final  103.23 input   59.86 | X-H torsion
[ 10167 10162 10161 10158 ] final  152.41 input  -65.29 | X-H torsion
[ 10718 10713 10712 10709 ] final   69.22 input   66.30 | X-H torsion
[ 10763 10752 10751 10750 ] final -164.21 input  -60.55 | X-H torsion
[ 11005 11000 10999 10996 ] final  -80.00 input  -57.11 | X-H torsion

> <Gold.Protein.ActiveResidues>
 VAL166  LYS551  ARG553  GLY616  TRP617  ASP618  TYR619  PRO620  LYS621  CYS622 
 ASP623  PHE694  ASN695  SER759  ASP760  ASP761  ALA762  ILE779  LEU786  VAL792 
 PHE793  MET794  SER795  GLU796  ALA797  LYS798  CYS799  TRP800  GLU811  SER814 

> <Gold.Protein.RotatedAtoms>
  152.5349  134.0128  159.7945 H   0  0  0  0  0  0  0  0  0  0  0  0  # atno 6907 bound_to 6896
  151.0327  133.5768  159.2666 H   0  0  0  0  0  0  0  0  0  0  0  0  # atno 6908 bound_to 6896
  151.2767  135.0708  159.9207 H   0  0  0  0  0  0  0  0  0  0  0  0  # atno 6909 bound_to 6896
  145.2830  140.9332  143.2921 H   0  0  0  0  0  0  0  0  0  0  0  0  # atno 7974 bound_to 7965
  156.1465  140.3168  155.8578 H   0  0  0  0  0  0  0  0  0  0  0  0  # atno 8008 bound_to 7997
  155.4054  140.0502  157.3051 H   0  0  0  0  0  0  0  0  0  0  0  0  # atno 8009 bound_to 7997
  154.5021  140.2133  155.9338 H   0  0  0  0  0  0  0  0  0  0  0  0  # atno 8010 bound_to 7997
  139.4833  144.5360  151.7645 H   0  0  0  0  0  0  0  0  0  0  0  0  # atno 10167 bound_to 10162
  157.6333  130.9414  150.0484 H   0  0  0  0  0  0  0  0  0  0  0  0  # atno 10718 bound_to 10713
  154.7050  135.2995  154.9284 H   0  0  0  0  0  0  0  0  0  0  0  0  # atno 10763 bound_to 10752
  154.0204  135.6683  153.4776 H   0  0  0  0  0  0  0  0  0  0  0  0  # atno 10764 bound_to 10752
  153.0710  135.5061  154.8215 H   0  0  0  0  0  0  0  0  0  0  0  0  # atno 10765 bound_to 10752
  141.1668  133.7130  156.8207 H   0  0  0  0  0  0  0  0  0  0  0  0  # atno 11005 bound_to 11000
  144.9237  139.4381  143.6529 LP  0  0  0  0  0  0  0  0  0  0  0  0  # atno 17320 bound_to 7965
  146.3210  139.8111  142.8945 LP  0  0  0  0  0  0  0  0  0  0  0  0  # atno 17321 bound_to 7965
  140.4892  144.1335  150.5947 LP  0  0  0  0  0  0  0  0  0  0  0  0  # atno 17342 bound_to 10162
  140.4190  143.2620  151.9739 LP  0  0  0  0  0  0  0  0  0  0  0  0  # atno 17343 bound_to 10162
  156.1553  130.3643  149.9377 LP  0  0  0  0  0  0  0  0  0  0  0  0  # atno 17370 bound_to 10713
  156.7388  130.9071  151.3631 LP  0  0  0  0  0  0  0  0  0  0  0  0  # atno 17371 bound_to 10713
  140.2121  134.8819  157.3286 LP  0  0  0  0  0  0  0  0  0  0  0  0  # atno 17394 bound_to 11000
  140.2075  134.4179  155.7630 LP  0  0  0  0  0  0  0  0  0  0  0  0  # atno 17395 bound_to 11000

$$$$
