AV-unprocessed.smi:2368|AV-procd|sdf|9430|dock3
  -GOLD-   2272013 63D 1   1.00000     0.00000
 Structure written by MMmdl.
 36 37  0  0  0  0  0  0  0  0  2 V2000
  150.7158  141.2721  155.7102 C   0  0  0  0  0  0  0  0  0  0  0  0
  149.4362  140.9727  154.9532 C   0  0  0  0  0  0  0  0  0  0  0  0
  148.5797  141.9953  154.7370 N   0  3  0  0  0  0  0  0  0  0  0  0
  147.4092  141.8482  154.0824 C   0  0  0  0  0  0  0  0  0  0  0  0
  147.0371  140.5848  153.5837 C   0  0  0  0  0  0  0  0  0  0  0  0
  147.9065  139.4798  153.7665 C   0  0  0  0  0  0  0  0  0  0  0  0
  147.5991  138.1682  153.3087 N   0  0  0  0  0  0  0  0  0  0  0  0
  146.4133  137.5361  153.3225 C   0  0  0  0  0  0  0  0  0  0  0  0
  145.3663  137.9996  153.7738 O   0  0  0  0  0  0  0  0  0  0  0  0
  146.5033  136.3237  152.7585 N   0  0  0  0  0  0  0  0  0  0  0  0
  145.3897  135.3960  152.5957 C   0  0  1  0  0  0  0  0  0  0  0  0
  144.3577  135.9676  151.6610 C   0  0  0  0  0  0  0  0  0  0  0  0
  144.1109  135.1761  150.6197 C   0  0  0  0  0  0  0  0  0  0  0  0
  144.9441  133.9208  150.6353 C   0  0  2  0  0  0  0  0  0  0  0  0
  144.1006  132.6329  150.5754 C   0  0  0  0  0  0  0  0  0  0  0  0
  143.2616  132.6086  149.4374 O   0  0  0  0  0  0  0  0  0  0  0  0
  145.8069  134.0645  151.9158 C   0  0  0  0  0  0  0  0  0  0  0  0
  149.1170  139.6795  154.4758 C   0  0  0  0  0  0  0  0  0  0  0  0
  150.2038  138.3596  154.7514 Cl  0  0  0  0  0  0  0  0  0  0  0  0
  144.9116  135.2062  153.5585 H   0  0  0  0  0  0  0  0  0  0  0  0
  145.5954  133.9521  149.7608 H   0  0  0  0  0  0  0  0  0  0  0  0
  150.7703  140.6688  156.6168 H   0  0  0  0  0  0  0  0  0  0  0  0
  150.7727  142.3225  155.9989 H   0  0  0  0  0  0  0  0  0  0  0  0
  151.5843  141.0433  155.0917 H   0  0  0  0  0  0  0  0  0  0  0  0
  146.8060  142.7390  153.9829 H   0  0  0  0  0  0  0  0  0  0  0  0
  146.0872  140.4846  153.0811 H   0  0  0  0  0  0  0  0  0  0  0  0
  148.3484  137.6916  152.8282 H   0  0  0  0  0  0  0  0  0  0  0  0
  147.4013  136.0205  152.4105 H   0  0  0  0  0  0  0  0  0  0  0  0
  143.8733  136.9148  151.8484 H   0  0  0  0  0  0  0  0  0  0  0  0
  143.4036  135.3880  149.8313 H   0  0  0  0  0  0  0  0  0  0  0  0
  144.7503  131.7576  150.5475 H   0  0  0  0  0  0  0  0  0  0  0  0
  143.4839  132.5433  151.4702 H   0  0  0  0  0  0  0  0  0  0  0  0
  142.6856  133.3570  149.4721 H   0  0  0  0  0  0  0  0  0  0  0  0
  146.8654  134.0619  151.6519 H   0  0  0  0  0  0  0  0  0  0  0  0
  145.6581  133.2285  152.6001 H   0  0  0  0  0  0  0  0  0  0  0  0
  148.8271  142.9203  155.0897 H   0  0  0  0  0  0  0  0  0  0  0  0
  1  2  1  0  0  0  0
  1 22  1  0  0  0  0
  1 23  1  0  0  0  0
  1 24  1  0  0  0  0
  2 18  1  0  0  0  0
  2  3  2  0  0  0  0
  3  4  1  0  0  0  0
  3 36  1  0  0  0  0
  4  5  2  0  0  0  0
  4 25  1  0  0  0  0
  5  6  1  0  0  0  0
  5 26  1  0  0  0  0
  6  7  1  0  0  0  0
  6 18  2  0  0  0  0
  7  8  1  0  0  0  0
  7 27  1  0  0  0  0
  8  9  2  0  0  0  0
  8 10  1  0  0  0  0
 10 11  1  0  0  0  0
 10 28  1  0  0  0  0
 11 20  1  0  0  0  0
 11 17  1  0  0  0  0
 11 12  1  0  0  0  0
 12 13  2  0  0  0  0
 12 29  1  0  0  0  0
 13 14  1  0  0  0  0
 13 30  1  0  0  0  0
 14 21  1  0  0  0  0
 14 15  1  0  0  0  0
 14 17  1  0  0  0  0
 15 16  1  0  0  0  0
 15 31  1  0  0  0  0
 15 32  1  0  0  0  0
 16 33  1  0  0  0  0
 17 34  1  0  0  0  0
 17 35  1  0  0  0  0
 18 19  1  0  0  0  0
M  CHG  1   3   1
M  END
> <s_m_source_file>
AV-unprocessed.smi

> <i_m_source_file_index>
2368

> <i_lp_mmshare_version>
43012

> <i_f3d_flags>
0

> <s_epik_input>
W0NIM11jMW5bY0hdW2NIXWMoYzFDbClbTkhdQyg9TylbTkhdW0NAQEhdMltDSF09W0NIXVtDQEBIXShbQ0gyXTIpW0NIMl1bT0hd

> <s_epik_cmdline>
J2VwaWtfcHl0aG9uJywgJy1waCcsICc3LjAnLCAnLXRuJywgJzgnLCAnLW1hJywgJzIwMCcsICctbWV0YWxfYmluZGluZycsICctaW1hZScsICc8aW5maWxlLm1hZT4nLCAnLW9tYWUnLCAnPG91dGZpbGUubWFlPic=

> <r_epik_Ionization_Penalty>
2.4467

> <r_epik_Ionization_Penalty_Charging>
2.44668

> <r_epik_Ionization_Penalty_Neutral>
1.95078e-05

> <r_epik_State_Penalty>
2.60786

> <r_epik_Charging_Adjusted_Penalty>
5.05454

> <i_epik_Tot_Q>
1

> <i_epik_Tot_abs_Q>
1

> <r_epik_Metal_State_Penalty>
2.61736

> <b_epik_Metal_Only>
0

> <s_lp_Force_Field>
OPLS_2005

> <r_lp_Energy>
27.7863

> <b_lp_Chiralities_Consistent>
1

> <s_lp_Variant>
AV-unprocessed.smi:2368-6

> <Gold.Version>
5.8.1

> <Gold.Id.Protein>
6NUR|6NUR_protein|mol2

> <Gold.PLP.Fitness>
50.3023

> <Gold.PLP.PLP>
-35.9460

> <Gold.PLP.part.hbond>
-4.0056

> <Gold.PLP.part.metal>
0.0000

> <Gold.PLP.part.buried>
-5.2666

> <Gold.PLP.part.nonpolar>
-27.2690

> <Gold.PLP.part.repulsive>
0.4095

> <Gold.PLP.ligand.clash>
0.0000

> <Gold.PLP.ligand.torsion>
0.3281

> <Gold.PLP.Chemscore.Hbond>
5.0000

> <Gold.PLP.Chemscore.CHOScore>
0.0000

> <Gold.PLP.Chemscore.Metal>
0.0000

> <Gold.Chemscore.Hbonds>
donor molecule, donor type, donor heavy atom, donor atom, acceptor molecule, acceptor atom, score
      L1  H     3    36       P1  8028  2.00
      L1  H     7    27       P1  7948  1.00
      L1  H    10    28       P1  7948  1.00
      L1  H    16    33       P1 10186  1.00

> <Gold.PLP.Chemscore.Internal.Correction>
0.0124

> <Gold.Rescore>
     Score         DG    S(hbond)    S(metal)    S(lipo)     H(rot)  DE(clash)    DE(int)     intcor
     22.58     -23.53       3.94        0.00      81.38       1.81       0.03       0.92       ----

> <Gold.Chemscore.Fitness>
22.5774

> <Gold.Chemscore.DG>
-23.5258

> <Gold.Chemscore.ZeroCoef>
-5.4800

> <Gold.Chemscore.Hbond>
3.9367

> <Gold.Chemscore.Metal>
0.0000

> <Gold.Chemscore.Lipo>
81.3761

> <Gold.Chemscore.Internal_Hbond>
0.0000

> <Gold.Chemscore.DEClash>
0.0266

> <Gold.Chemscore.DEInternal>
0.9219

> <Gold.Chemscore.Rot>
1.8061

> <Gold.Chemscore.Internal.Correction>
   9.000000E+99

> <Gold.Chemscore.Hbonds>
donor molecule, donor type, donor heavy atom, donor atom, acceptor molecule, acceptor atom, score
      L1  H     3    36       P1  8028  1.00
      L1  H     7    27       P1  7948  0.95
      L1  H    10    28       P1  7948  0.98
      L1  H    16    33       P1 10186  0.97

> <Gold.Chemscore.Hbond.Weighted>
-13.1485

> <Gold.Chemscore.Metal.Weighted>
-0.0000

> <Gold.Chemscore.Lipo.Weighted>
-9.5210

> <Gold.Chemscore.Internal_Hbond.Weighted>
0.0000

> <Gold.Chemscore.DEClash.Weighted>
0.0266

> <Gold.Chemscore.DEInternal.Weighted>
0.9219

> <Gold.Chemscore.Rot.Weighted>
4.6237

> <Gold.Chemscore.Internal.Correction.Weighted>
   9.000000E+99

> <Gold.Protein.RotatedTorsions>
[ 6907 6896 6895 6894 ] final -158.93 input  -60.11 | X-H torsion
[ 7974 7965 7964 7962 ] final    3.59 input  175.53 | X-H torsion
[ 8008 7997 7996 7995 ] final  -90.16 input   59.86 | X-H torsion
[ 10167 10162 10161 10158 ] final  142.75 input  -65.29 | X-H torsion
[ 10718 10713 10712 10709 ] final  164.19 input   66.30 | X-H torsion
[ 10763 10752 10751 10750 ] final -168.40 input  -60.55 | X-H torsion
[ 11005 11000 10999 10996 ] final    4.83 input  -57.11 | X-H torsion

> <Gold.Protein.ActiveResidues>
 VAL166  LYS551  ARG553  GLY616  TRP617  ASP618  TYR619  PRO620  LYS621  CYS622 
 ASP623  PHE694  ASN695  SER759  ASP760  ASP761  ALA762  ILE779  LEU786  VAL792 
 PHE793  MET794  SER795  GLU796  ALA797  LYS798  CYS799  TRP800  GLU811  SER814 

> <Gold.Protein.RotatedAtoms>
  151.3258  133.4021  159.2658 H   0  0  0  0  0  0  0  0  0  0  0  0  # atno 6907 bound_to 6896
  150.9996  134.9312  159.7957 H   0  0  0  0  0  0  0  0  0  0  0  0  # atno 6908 bound_to 6896
  152.5271  134.3223  159.9205 H   0  0  0  0  0  0  0  0  0  0  0  0  # atno 6909 bound_to 6896
  146.2445  140.0662  142.8365 H   0  0  0  0  0  0  0  0  0  0  0  0  # atno 7974 bound_to 7965
  154.6952  140.0533  157.0404 H   0  0  0  0  0  0  0  0  0  0  0  0  # atno 8008 bound_to 7997
  155.0761  140.3204  155.4597 H   0  0  0  0  0  0  0  0  0  0  0  0  # atno 8009 bound_to 7997
  156.2742  140.2073  156.5888 H   0  0  0  0  0  0  0  0  0  0  0  0  # atno 8010 bound_to 7997
  139.4986  144.6086  151.6323 H   0  0  0  0  0  0  0  0  0  0  0  0  # atno 10167 bound_to 10162
  157.0979  131.0435  151.2510 H   0  0  0  0  0  0  0  0  0  0  0  0  # atno 10718 bound_to 10713
  154.6633  135.2928  154.9838 H   0  0  0  0  0  0  0  0  0  0  0  0  # atno 10763 bound_to 10752
  154.0891  135.6593  153.4853 H   0  0  0  0  0  0  0  0  0  0  0  0  # atno 10764 bound_to 10752
  153.0442  135.5215  154.7594 H   0  0  0  0  0  0  0  0  0  0  0  0  # atno 10765 bound_to 10752
  140.5776  134.0043  155.8034 H   0  0  0  0  0  0  0  0  0  0  0  0  # atno 11005 bound_to 11000
  145.0857  140.9251  143.4799 LP  0  0  0  0  0  0  0  0  0  0  0  0  # atno 17320 bound_to 7965
  145.0824  139.2950  143.5777 LP  0  0  0  0  0  0  0  0  0  0  0  0  # atno 17321 bound_to 7965
  140.5754  144.0037  150.6239 LP  0  0  0  0  0  0  0  0  0  0  0  0  # atno 17342 bound_to 10162
  140.3169  143.3162  152.0824 LP  0  0  0  0  0  0  0  0  0  0  0  0  # atno 17343 bound_to 10162
  157.4666  130.7684  149.7284 LP  0  0  0  0  0  0  0  0  0  0  0  0  # atno 17370 bound_to 10713
  155.9881  130.3962  150.3134 LP  0  0  0  0  0  0  0  0  0  0  0  0  # atno 17371 bound_to 10713
  141.1017  133.9758  157.3068 LP  0  0  0  0  0  0  0  0  0  0  0  0  # atno 17394 bound_to 11000
  139.9332  135.0198  156.8471 LP  0  0  0  0  0  0  0  0  0  0  0  0  # atno 17395 bound_to 11000

$$$$
