AV-unprocessed.smi:2811|AV-procd|sdf|10829|dock3
  -GOLD-   2272015273D 1   1.00000     0.00000
 Structure written by MMmdl.
 38 40  0  0  0  0  0  0  0  0  1 V2000
  151.6750  145.7128  160.9143 C   0  0  0  0  0  0  0  0  0  0  0  0
  151.8320  144.4375  160.1133 C   0  0  0  0  0  0  0  0  0  0  0  0
  152.8120  143.4879  160.4583 C   0  0  0  0  0  0  0  0  0  0  0  0
  152.9118  142.3225  159.6746 C   0  0  0  0  0  0  0  0  0  0  0  0
  153.9445  141.2600  159.9877 C   0  0  0  0  0  0  0  0  0  0  0  0
  152.1162  142.0803  158.6112 N   0  0  0  0  0  0  0  0  0  0  0  0
  151.1672  142.9869  158.2655 C   0  0  0  0  0  0  0  0  0  0  0  0
  150.2697  142.8414  157.1665 N   0  0  0  0  0  0  0  0  0  0  0  0
  150.0836  141.8319  156.2886 C   0  0  0  0  0  0  0  0  0  0  0  0
  150.7556  140.8035  156.3518 O   0  0  0  0  0  0  0  0  0  0  0  0
  149.1367  142.0204  155.3562 N   0  0  0  0  0  0  0  0  0  0  0  0
  148.7774  141.0696  154.3104 C   0  0  2  0  0  0  0  0  0  0  0  0
  147.3579  141.2884  153.7725 C   0  0  0  0  0  0  0  0  0  0  0  0
  146.6987  139.9337  154.0630 C   0  0  1  0  0  0  0  0  0  0  0  0
  147.2566  138.8157  153.1700 C   0  0  0  0  0  0  0  0  0  0  0  0
  148.6455  138.5957  153.7706 C   0  0  0  0  0  0  0  0  0  0  0  0
  148.6703  139.6479  154.8869 C   0  0  2  0  0  0  0  0  0  0  0  0
  147.3134  139.6128  155.2979 O   0  0  0  0  0  0  0  0  0  0  0  0
  151.0025  144.1818  159.0025 C   0  0  0  0  0  0  0  0  0  0  0  0
  152.0608  145.5888  161.9266 H   0  0  0  0  0  0  0  0  0  0  0  0
  150.6246  145.9967  160.9854 H   0  0  0  0  0  0  0  0  0  0  0  0
  152.2199  146.5264  160.4354 H   0  0  0  0  0  0  0  0  0  0  0  0
  153.4699  143.6489  161.3002 H   0  0  0  0  0  0  0  0  0  0  0  0
  154.3045  141.3539  161.0125 H   0  0  0  0  0  0  0  0  0  0  0  0
  154.7965  141.3534  159.3141 H   0  0  0  0  0  0  0  0  0  0  0  0
  153.5202  140.2622  159.8688 H   0  0  0  0  0  0  0  0  0  0  0  0
  149.6603  143.6332  157.0222 H   0  0  0  0  0  0  0  0  0  0  0  0
  148.6312  142.8956  155.3702 H   0  0  0  0  0  0  0  0  0  0  0  0
  149.5225  141.1035  153.5133 H   0  0  0  0  0  0  0  0  0  0  0  0
  146.8409  142.0834  154.3123 H   0  0  0  0  0  0  0  0  0  0  0  0
  147.3440  141.5377  152.7110 H   0  0  0  0  0  0  0  0  0  0  0  0
  145.6097  139.9709  154.0987 H   0  0  0  0  0  0  0  0  0  0  0  0
  146.6549  137.9103  153.2576 H   0  0  0  0  0  0  0  0  0  0  0  0
  147.2897  139.1039  152.1187 H   0  0  0  0  0  0  0  0  0  0  0  0
  148.7270  137.5905  154.1855 H   0  0  0  0  0  0  0  0  0  0  0  0
  149.4494  138.7328  153.0465 H   0  0  0  0  0  0  0  0  0  0  0  0
  149.3873  139.4268  155.6785 H   0  0  0  0  0  0  0  0  0  0  0  0
  150.2458  144.8996  158.7194 H   0  0  0  0  0  0  0  0  0  0  0  0
  1  2  1  0  0  0  0
  1 20  1  0  0  0  0
  1 21  1  0  0  0  0
  1 22  1  0  0  0  0
  2 19  1  0  0  0  0
  2  3  2  0  0  0  0
  3  4  1  0  0  0  0
  3 23  1  0  0  0  0
  4  5  1  0  0  0  0
  4  6  2  0  0  0  0
  5 24  1  0  0  0  0
  5 25  1  0  0  0  0
  5 26  1  0  0  0  0
  6  7  1  0  0  0  0
  7  8  1  0  0  0  0
  7 19  2  0  0  0  0
  8  9  1  0  0  0  0
  8 27  1  0  0  0  0
  9 10  2  0  0  0  0
  9 11  1  0  0  0  0
 11 12  1  0  0  0  0
 11 28  1  0  0  0  0
 12 17  1  0  0  0  0
 12 13  1  0  0  0  0
 12 29  1  0  0  0  0
 13 14  1  0  0  0  0
 13 30  1  0  0  0  0
 13 31  1  0  0  0  0
 14 18  1  0  0  0  0
 14 15  1  0  0  0  0
 14 32  1  0  0  0  0
 15 16  1  0  0  0  0
 15 33  1  0  0  0  0
 15 34  1  0  0  0  0
 16 17  1  0  0  0  0
 16 35  1  0  0  0  0
 16 36  1  0  0  0  0
 17 18  1  0  0  0  0
 17 37  1  0  0  0  0
 19 38  1  0  0  0  0
M  END
> <s_m_source_file>
AV-unprocessed.smi

> <i_m_source_file_index>
2811

> <i_lp_mmshare_version>
43012

> <i_f3d_flags>
0

> <s_epik_input>
W0NIM11jMVtjSF1jKFtDSDNdKW5jKFtjSF0xKVtOSF1DKD1PKVtOSF1bQ0BIXShbQ0gyXVtDQEBIXTIzKVtDQEBIXShPMylbQ0gyXVtDSDJdMg==

> <s_epik_cmdline>
J2VwaWtfcHl0aG9uJywgJy1waCcsICc3LjAnLCAnLXRuJywgJzgnLCAnLW1hJywgJzIwMCcsICctbWV0YWxfYmluZGluZycsICctaW1hZScsICc8aW5maWxlLm1hZT4nLCAnLW9tYWUnLCAnPG91dGZpbGUubWFlPic=

> <r_lp_tautomer_probability>
1

> <r_epik_Ionization_Penalty>
0.000281548

> <r_epik_Ionization_Penalty_Charging>
0

> <r_epik_Ionization_Penalty_Neutral>
0.000281548

> <r_epik_State_Penalty>
-0

> <r_epik_Charging_Adjusted_Penalty>
0

> <i_epik_Tot_Q>
0

> <i_epik_Tot_abs_Q>
0

> <r_epik_Metal_State_Penalty>
-0

> <b_epik_Metal_Only>
0

> <s_lp_Force_Field>
OPLS_2005

> <r_lp_Energy>
40.4473

> <b_lp_Chiralities_Consistent>
1

> <s_lp_Variant>
AV-unprocessed.smi:2811-1

> <Gold.Version>
5.8.1

> <Gold.Id.Protein>
6NUR|6NUR_protein|mol2

> <Gold.PLP.Fitness>
44.2612

> <Gold.PLP.PLP>
-38.7912

> <Gold.PLP.part.hbond>
-2.0000

> <Gold.PLP.part.metal>
0.0000

> <Gold.PLP.part.buried>
-5.2049

> <Gold.PLP.part.nonpolar>
-32.7357

> <Gold.PLP.part.repulsive>
0.2915

> <Gold.PLP.ligand.clash>
0.0000

> <Gold.PLP.ligand.torsion>
0.2663

> <Gold.PLP.Chemscore.Hbond>
1.9920

> <Gold.PLP.Chemscore.CHOScore>
0.0000

> <Gold.PLP.Chemscore.Metal>
0.0000

> <Gold.Chemscore.Hbonds>
donor molecule, donor type, donor heavy atom, donor atom, acceptor molecule, acceptor atom, score
      L1  H     8    27       P1  8028  0.86
      L1  H    11    28       P1  8028  0.85

> <Gold.PLP.Chemscore.Internal.Correction>
0.0266

> <Gold.Rescore>
     Score         DG    S(hbond)    S(metal)    S(lipo)     H(rot)  DE(clash)    DE(int)     intcor
     18.48     -21.53       1.91        0.00     104.64       1.00       0.23       2.82       ----

> <Gold.Chemscore.Fitness>
18.4821

> <Gold.Chemscore.DG>
-21.5336

> <Gold.Chemscore.ZeroCoef>
-5.4800

> <Gold.Chemscore.Hbond>
1.9075

> <Gold.Chemscore.Metal>
0.0000

> <Gold.Chemscore.Lipo>
104.6373

> <Gold.Chemscore.Internal_Hbond>
0.0000

> <Gold.Chemscore.DEClash>
0.2274

> <Gold.Chemscore.DEInternal>
2.8241

> <Gold.Chemscore.Rot>
1.0000

> <Gold.Chemscore.Internal.Correction>
   9.000000E+99

> <Gold.Chemscore.Hbonds>
donor molecule, donor type, donor heavy atom, donor atom, acceptor molecule, acceptor atom, score
      L1  H     8    27       P1  8028  0.81
      L1  H    11    28       P1  8028  0.83

> <Gold.Chemscore.Hbond.Weighted>
-6.3710

> <Gold.Chemscore.Metal.Weighted>
-0.0000

> <Gold.Chemscore.Lipo.Weighted>
-12.2426

> <Gold.Chemscore.Internal_Hbond.Weighted>
0.0000

> <Gold.Chemscore.DEClash.Weighted>
0.2274

> <Gold.Chemscore.DEInternal.Weighted>
2.8241

> <Gold.Chemscore.Rot.Weighted>
2.5600

> <Gold.Chemscore.Internal.Correction.Weighted>
   9.000000E+99

> <Gold.Protein.RotatedTorsions>
[ 6907 6896 6895 6894 ] final  -51.15 input  -60.11 | X-H torsion
[ 7974 7965 7964 7962 ] final  136.78 input  175.53 | X-H torsion
[ 8008 7997 7996 7995 ] final -103.57 input   59.86 | X-H torsion
[ 10167 10162 10161 10158 ] final  -51.91 input  -65.29 | X-H torsion
[ 10718 10713 10712 10709 ] final -156.40 input   66.30 | X-H torsion
[ 10763 10752 10751 10750 ] final  -73.18 input  -60.55 | X-H torsion
[ 11005 11000 10999 10996 ] final  -47.42 input  -57.11 | X-H torsion

> <Gold.Protein.ActiveResidues>
 VAL166  LYS551  ARG553  GLY616  TRP617  ASP618  TYR619  PRO620  LYS621  CYS622 
 ASP623  PHE694  ASN695  SER759  ASP760  ASP761  ALA762  ILE779  LEU786  VAL792 
 PHE793  MET794  SER795  GLU796  ALA797  LYS798  CYS799  TRP800  GLU811  SER814 

> <Gold.Protein.RotatedAtoms>
  150.8639  134.7998  159.7103 H   0  0  0  0  0  0  0  0  0  0  0  0  # atno 6907 bound_to 6896
  152.4667  134.5055  159.9748 H   0  0  0  0  0  0  0  0  0  0  0  0  # atno 6908 bound_to 6896
  151.5155  133.3438  159.2928 H   0  0  0  0  0  0  0  0  0  0  0  0  # atno 6909 bound_to 6896
  144.9531  139.4795  143.5516 H   0  0  0  0  0  0  0  0  0  0  0  0  # atno 7974 bound_to 7965
  154.8729  140.0422  157.1735 H   0  0  0  0  0  0  0  0  0  0  0  0  # atno 8008 bound_to 7997
  154.8720  140.2960  155.5455 H   0  0  0  0  0  0  0  0  0  0  0  0  # atno 8009 bound_to 7997
  156.2999  140.2427  156.3710 H   0  0  0  0  0  0  0  0  0  0  0  0  # atno 8010 bound_to 7997
  140.6564  143.2602  151.4572 H   0  0  0  0  0  0  0  0  0  0  0  0  # atno 10167 bound_to 10162
  156.5261  130.8500  151.2699 H   0  0  0  0  0  0  0  0  0  0  0  0  # atno 10718 bound_to 10713
  154.4559  135.5906  153.6223 H   0  0  0  0  0  0  0  0  0  0  0  0  # atno 10763 bound_to 10752
  152.9818  135.6032  154.3547 H   0  0  0  0  0  0  0  0  0  0  0  0  # atno 10764 bound_to 10752
  154.3413  135.2841  155.2400 H   0  0  0  0  0  0  0  0  0  0  0  0  # atno 10765 bound_to 10752
  141.0640  133.6700  156.3296 H   0  0  0  0  0  0  0  0  0  0  0  0  # atno 11005 bound_to 11000
  146.3328  139.8631  142.8853 LP  0  0  0  0  0  0  0  0  0  0  0  0  # atno 17320 bound_to 7965
  145.2813  141.0139  143.3716 LP  0  0  0  0  0  0  0  0  0  0  0  0  # atno 17321 bound_to 7965
  139.5788  144.1757  152.1940 LP  0  0  0  0  0  0  0  0  0  0  0  0  # atno 17342 bound_to 10162
  140.1076  144.5485  150.6946 LP  0  0  0  0  0  0  0  0  0  0  0  0  # atno 17343 bound_to 10162
  157.7429  130.9901  150.2553 LP  0  0  0  0  0  0  0  0  0  0  0  0  # atno 17370 bound_to 10713
  156.3104  130.3771  149.7667 LP  0  0  0  0  0  0  0  0  0  0  0  0  # atno 17371 bound_to 10713
  140.5812  134.5744  157.5480 LP  0  0  0  0  0  0  0  0  0  0  0  0  # atno 17394 bound_to 11000
  139.9459  134.7704  156.0564 LP  0  0  0  0  0  0  0  0  0  0  0  0  # atno 17395 bound_to 11000

$$$$
