AV-unprocessed.smi:3039|AV-procd|sdf|11592|dock1
  -GOLD-   2272016563D 1   1.00000     0.00000
 Structure written by MMmdl.
 38 39  0  0  0  0  0  0  0  0  1 V2000
  151.5092  141.6463  156.4072 O   0  0  0  0  0  0  0  0  0  0  0  0
  151.3069  140.9276  157.3856 C   0  0  0  0  0  0  0  0  0  0  0  0
  150.2963  139.7831  157.3010 C   0  0  0  0  0  0  0  0  0  0  0  0
  150.7066  138.8044  156.2327 C   0  0  0  0  0  0  0  0  0  0  0  0
  150.1320  138.6100  154.9458 C   0  0  0  0  0  0  0  0  0  0  0  0
  150.8918  137.6136  154.4040 C   0  0  0  0  0  0  0  0  0  0  0  0
  151.8536  137.2206  155.2769 O   0  0  0  0  0  0  0  0  0  0  0  0
  151.7258  137.9837  156.4430 N   0  0  0  0  0  0  0  0  0  0  0  0
  151.9325  141.0817  158.5629 N   0  0  0  0  0  0  0  0  0  0  0  0
  152.9680  142.0707  158.8655 C   0  0  1  0  0  0  0  0  0  0  0  0
  152.4810  143.5069  158.5570 C   0  0  0  0  0  0  0  0  0  0  0  0
  151.1537  143.9062  159.2326 C   0  0  0  0  0  0  0  0  0  0  0  0
  151.2710  144.4329  160.6732 C   0  0  0  0  0  0  0  0  0  0  0  0
  152.3486  143.7872  161.5607 C   0  0  0  0  0  0  0  0  0  0  0  0
  152.5157  142.2653  161.4097 C   0  0  0  0  0  0  0  0  0  0  0  0
  153.5200  141.8691  160.2993 C   0  0  1  0  0  0  0  0  0  0  0  0
  154.0328  140.4228  160.4951 C   0  0  0  0  0  0  0  0  0  0  0  0
  154.7322  139.9715  159.3536 O   0  0  0  0  0  0  0  0  0  0  0  0
  150.2240  139.2941  158.2736 H   0  0  0  0  0  0  0  0  0  0  0  0
  149.3072  140.1882  157.0836 H   0  0  0  0  0  0  0  0  0  0  0  0
  149.2969  139.1230  154.4921 H   0  0  0  0  0  0  0  0  0  0  0  0
  150.8743  137.1002  153.4541 H   0  0  0  0  0  0  0  0  0  0  0  0
  151.6915  140.4429  159.3072 H   0  0  0  0  0  0  0  0  0  0  0  0
  153.8104  141.8837  158.1965 H   0  0  0  0  0  0  0  0  0  0  0  0
  153.2597  144.2333  158.7924 H   0  0  0  0  0  0  0  0  0  0  0  0
  152.3374  143.5801  157.4781 H   0  0  0  0  0  0  0  0  0  0  0  0
  150.6803  144.6858  158.6348 H   0  0  0  0  0  0  0  0  0  0  0  0
  150.4485  143.0760  159.2093 H   0  0  0  0  0  0  0  0  0  0  0  0
  151.4592  145.5067  160.6447 H   0  0  0  0  0  0  0  0  0  0  0  0
  150.2986  144.3221  161.1546 H   0  0  0  0  0  0  0  0  0  0  0  0
  153.3067  144.2790  161.3883 H   0  0  0  0  0  0  0  0  0  0  0  0
  152.0993  144.0121  162.5983 H   0  0  0  0  0  0  0  0  0  0  0  0
  152.8915  141.8951  162.3638 H   0  0  0  0  0  0  0  0  0  0  0  0
  151.5510  141.7764  161.2698 H   0  0  0  0  0  0  0  0  0  0  0  0
  154.3927  142.5179  160.3906 H   0  0  0  0  0  0  0  0  0  0  0  0
  154.6855  140.3496  161.3661 H   0  0  0  0  0  0  0  0  0  0  0  0
  153.1982  139.7412  160.6627 H   0  0  0  0  0  0  0  0  0  0  0  0
  155.2093  139.1887  159.5836 H   0  0  0  0  0  0  0  0  0  0  0  0
  1  2  2  0  0  0  0
  2  3  1  0  0  0  0
  2  9  1  0  0  0  0
  3  4  1  0  0  0  0
  3 19  1  0  0  0  0
  3 20  1  0  0  0  0
  4  8  2  0  0  0  0
  4  5  1  0  0  0  0
  5  6  2  0  0  0  0
  5 21  1  0  0  0  0
  6  7  1  0  0  0  0
  6 22  1  0  0  0  0
  7  8  1  0  0  0  0
  9 10  1  0  0  0  0
  9 23  1  0  0  0  0
 10 16  1  0  0  0  0
 10 11  1  0  0  0  0
 10 24  1  0  0  0  0
 11 12  1  0  0  0  0
 11 25  1  0  0  0  0
 11 26  1  0  0  0  0
 12 13  1  0  0  0  0
 12 27  1  0  0  0  0
 12 28  1  0  0  0  0
 13 14  1  0  0  0  0
 13 29  1  0  0  0  0
 13 30  1  0  0  0  0
 14 15  1  0  0  0  0
 14 31  1  0  0  0  0
 14 32  1  0  0  0  0
 15 16  1  0  0  0  0
 15 33  1  0  0  0  0
 15 34  1  0  0  0  0
 16 17  1  0  0  0  0
 16 35  1  0  0  0  0
 17 18  1  0  0  0  0
 17 36  1  0  0  0  0
 17 37  1  0  0  0  0
 18 38  1  0  0  0  0
M  END
> <s_m_source_file>
AV-unprocessed.smi

> <i_m_source_file_index>
3039

> <i_lp_mmshare_version>
43012

> <i_f3d_flags>
0

> <s_epik_input>
bjFvW2NIXVtjSF1jMVtDSDJdQyg9TylbTkhdW0NAQEhdMltDSDJdW0NIMl1bQ0gyXVtDSDJdW0NIMl1bQ0BIXTJbQ0gyXVtPSF0=

> <s_epik_cmdline>
J2VwaWtfcHl0aG9uJywgJy1waCcsICc3LjAnLCAnLXRuJywgJzgnLCAnLW1hJywgJzIwMCcsICctbWV0YWxfYmluZGluZycsICctaW1hZScsICc8aW5maWxlLm1hZT4nLCAnLW9tYWUnLCAnPG91dGZpbGUubWFlPic=

> <r_lp_tautomer_probability>
1

> <r_epik_Ionization_Penalty>
3.05817e-07

> <r_epik_Ionization_Penalty_Charging>
0

> <r_epik_Ionization_Penalty_Neutral>
3.05817e-07

> <r_epik_State_Penalty>
-0

> <r_epik_Charging_Adjusted_Penalty>
0

> <i_epik_Tot_Q>
0

> <i_epik_Tot_abs_Q>
0

> <r_epik_Metal_State_Penalty>
-0

> <b_epik_Metal_Only>
0

> <s_lp_Force_Field>
OPLS_2005

> <r_lp_Energy>
19.8887

> <b_lp_Chiralities_Consistent>
1

> <s_lp_Variant>
AV-unprocessed.smi:3039-2

> <Gold.Version>
5.8.1

> <Gold.Id.Protein>
6NUR|6NUR_protein|mol2

> <Gold.PLP.Fitness>
43.3714

> <Gold.PLP.PLP>
-34.8501

> <Gold.PLP.part.hbond>
-2.0000

> <Gold.PLP.part.metal>
0.0000

> <Gold.PLP.part.buried>
-3.2947

> <Gold.PLP.part.nonpolar>
-30.2080

> <Gold.PLP.part.repulsive>
0.2211

> <Gold.PLP.ligand.clash>
0.0000

> <Gold.PLP.ligand.torsion>
0.3040

> <Gold.PLP.Chemscore.Hbond>
1.9117

> <Gold.PLP.Chemscore.CHOScore>
1.1102

> <Gold.PLP.Chemscore.Metal>
0.0000

> <Gold.Chemscore.Hbonds>
donor molecule, donor type, donor heavy atom, donor atom, acceptor molecule, acceptor atom, score
      P1  H  7997  8009       L1    18  0.96
      P1  H 10752 10765       L1     7  0.90
      L1  C     6    22       P1  7948  0.17
      L1  C     6    22       P1  7949  0.90

> <Gold.PLP.Chemscore.Internal.Correction>
0.0638

> <Gold.Rescore>
     Score         DG    S(hbond)    S(metal)    S(lipo)     H(rot)  DE(clash)    DE(int)     intcor
     14.12     -16.41       1.01        0.00     113.96       2.26       1.94       0.35       ----

> <Gold.Chemscore.Fitness>
14.1160

> <Gold.Chemscore.DG>
-16.4066

> <Gold.Chemscore.ZeroCoef>
-5.4800

> <Gold.Chemscore.Hbond>
1.0127

> <Gold.Chemscore.Metal>
0.0000

> <Gold.Chemscore.Lipo>
113.9642

> <Gold.Chemscore.Internal_Hbond>
0.0000

> <Gold.Chemscore.DEClash>
1.9375

> <Gold.Chemscore.DEInternal>
0.3530

> <Gold.Chemscore.Rot>
2.2616

> <Gold.Chemscore.Internal.Correction>
   9.000000E+99

> <Gold.Chemscore.Hbonds>
donor molecule, donor type, donor heavy atom, donor atom, acceptor molecule, acceptor atom, score
      P1  H  7997  8009       L1    18  0.23
      P1  H 10752 10765       L1     7  0.71

> <Gold.Chemscore.Hbond.Weighted>
-3.3824

> <Gold.Chemscore.Metal.Weighted>
-0.0000

> <Gold.Chemscore.Lipo.Weighted>
-13.3338

> <Gold.Chemscore.Internal_Hbond.Weighted>
0.0000

> <Gold.Chemscore.DEClash.Weighted>
1.9375

> <Gold.Chemscore.DEInternal.Weighted>
0.3530

> <Gold.Chemscore.Rot.Weighted>
5.7896

> <Gold.Chemscore.Internal.Correction.Weighted>
   9.000000E+99

> <Gold.Protein.RotatedTorsions>
[ 6907 6896 6895 6894 ] final   86.88 input  -60.11 | X-H torsion
[ 7974 7965 7964 7962 ] final -105.17 input  175.53 | X-H torsion
[ 8008 7997 7996 7995 ] final  120.55 input   59.86 | X-H torsion
[ 10167 10162 10161 10158 ] final -173.40 input  -65.29 | X-H torsion
[ 10718 10713 10712 10709 ] final -129.54 input   66.30 | X-H torsion
[ 10763 10752 10751 10750 ] final  179.05 input  -60.55 | X-H torsion
[ 11005 11000 10999 10996 ] final  -30.87 input  -57.11 | X-H torsion

> <Gold.Protein.ActiveResidues>
 VAL166  LYS551  ARG553  GLY616  TRP617  ASP618  TYR619  PRO620  LYS621  CYS622 
 ASP623  PHE694  ASN695  SER759  ASP760  ASP761  ALA762  ILE779  LEU786  VAL792 
 PHE793  MET794  SER795  GLU796  ALA797  LYS798  CYS799  TRP800  GLU811  SER814 

> <Gold.Protein.RotatedAtoms>
  152.5402  134.2363  159.8844 H   0  0  0  0  0  0  0  0  0  0  0  0  # atno 6907 bound_to 6896
  151.2332  133.4432  159.2612 H   0  0  0  0  0  0  0  0  0  0  0  0  # atno 6908 bound_to 6896
  151.0695  134.9803  159.8357 H   0  0  0  0  0  0  0  0  0  0  0  0  # atno 6909 bound_to 6896
  145.2338  140.9180  143.3189 H   0  0  0  0  0  0  0  0  0  0  0  0  # atno 7974 bound_to 7965
  156.2647  140.2828  156.1167 H   0  0  0  0  0  0  0  0  0  0  0  0  # atno 8008 bound_to 7997
  155.1199  140.0392  157.2764 H   0  0  0  0  0  0  0  0  0  0  0  0  # atno 8009 bound_to 7997
  154.6678  140.2581  155.7045 H   0  0  0  0  0  0  0  0  0  0  0  0  # atno 8010 bound_to 7997
  139.5691  144.1685  152.1356 H   0  0  0  0  0  0  0  0  0  0  0  0  # atno 10167 bound_to 10162
  156.2056  130.6885  151.0590 H   0  0  0  0  0  0  0  0  0  0  0  0  # atno 10718 bound_to 10713
  154.5156  135.2791  155.1306 H   0  0  0  0  0  0  0  0  0  0  0  0  # atno 10763 bound_to 10752
  154.2884  135.6272  153.5379 H   0  0  0  0  0  0  0  0  0  0  0  0  # atno 10764 bound_to 10752
  152.9927  135.5668  154.5632 H   0  0  0  0  0  0  0  0  0  0  0  0  # atno 10765 bound_to 10752
  140.9420  133.7273  156.1090 H   0  0  0  0  0  0  0  0  0  0  0  0  # atno 11005 bound_to 11000
  144.9652  139.3938  143.6336 LP  0  0  0  0  0  0  0  0  0  0  0  0  # atno 17320 bound_to 7965
  146.3346  139.8724  142.8838 LP  0  0  0  0  0  0  0  0  0  0  0  0  # atno 17321 bound_to 7965
  140.1214  144.5370  150.6860 LP  0  0  0  0  0  0  0  0  0  0  0  0  # atno 17342 bound_to 10162
  140.6975  143.2413  151.4960 LP  0  0  0  0  0  0  0  0  0  0  0  0  # atno 17343 bound_to 10162
  157.7010  131.0776  150.6819 LP  0  0  0  0  0  0  0  0  0  0  0  0  # atno 17370 bound_to 10713
  156.6877  130.4586  149.5609 LP  0  0  0  0  0  0  0  0  0  0  0  0  # atno 17371 bound_to 10713
  140.7721  134.3820  157.5505 LP  0  0  0  0  0  0  0  0  0  0  0  0  # atno 17394 bound_to 11000
  139.8823  134.9029  156.2842 LP  0  0  0  0  0  0  0  0  0  0  0  0  # atno 17395 bound_to 11000

$$$$
