AV-unprocessed.smi:3185|AV-procd|sdf|12172|dock8
  -GOLD-   2272018 13D 1   1.00000     0.00000
 Structure written by MMmdl.
 37 38  0  0  0  0  0  0  0  0  1 V2000
  150.8768  136.2679  154.6582 N   0  0  0  0  0  0  0  0  0  0  0  0
  150.9504  137.4153  154.7861 C   0  0  0  0  0  0  0  0  0  0  0  0
  151.0445  138.8738  154.9481 C   0  0  0  0  0  0  0  0  0  0  0  0
  151.3852  139.2842  156.3864 C   0  0  0  0  0  0  0  0  0  0  0  0
  151.2381  140.7915  156.6322 C   0  0  0  0  0  0  0  0  0  0  0  0
  151.2052  141.0530  158.0638 N   0  0  0  0  0  0  0  0  0  0  0  0
  151.8474  142.3191  158.4067 C   0  0  1  0  0  0  0  0  0  0  0  0
  150.9459  143.5050  157.9932 C   0  0  0  0  0  0  0  0  0  0  0  0
  151.5360  144.8502  158.4434 C   0  0  0  0  0  0  0  0  0  0  0  0
  151.7924  144.8677  159.9566 C   0  0  0  0  0  0  0  0  0  0  0  0
  152.7037  143.7041  160.3713 C   0  0  0  0  0  0  0  0  0  0  0  0
  152.1189  142.3449  159.9341 C   0  0  2  0  0  0  0  0  0  0  0  0
  152.9846  141.2510  160.3596 N   0  0  0  0  0  0  0  0  0  0  0  0
  154.0968  141.3158  161.1735 C   0  0  0  0  0  0  0  0  0  0  0  0
  154.5864  140.0476  161.2998 C   0  0  0  0  0  0  0  0  0  0  0  0
  153.6974  139.2629  160.5140 C   0  0  0  0  0  0  0  0  0  0  0  0
  152.7404  139.9841  159.9535 N   0  0  0  0  0  0  0  0  0  0  0  0
  151.8027  139.2398  154.2554 H   0  0  0  0  0  0  0  0  0  0  0  0
  150.0901  139.3018  154.6406 H   0  0  0  0  0  0  0  0  0  0  0  0
  150.7659  138.7279  157.0914 H   0  0  0  0  0  0  0  0  0  0  0  0
  152.4154  138.9948  156.5960 H   0  0  0  0  0  0  0  0  0  0  0  0
  152.0912  141.3102  156.1931 H   0  0  0  0  0  0  0  0  0  0  0  0
  150.3399  141.1676  156.1430 H   0  0  0  0  0  0  0  0  0  0  0  0
  151.6994  140.3077  158.5341 H   0  0  0  0  0  0  0  0  0  0  0  0
  152.8028  142.3926  157.8846 H   0  0  0  0  0  0  0  0  0  0  0  0
  150.8083  143.5287  156.9127 H   0  0  0  0  0  0  0  0  0  0  0  0
  149.9526  143.3848  158.4282 H   0  0  0  0  0  0  0  0  0  0  0  0
  152.4700  145.0351  157.9117 H   0  0  0  0  0  0  0  0  0  0  0  0
  150.8602  145.6618  158.1722 H   0  0  0  0  0  0  0  0  0  0  0  0
  152.2465  145.8162  160.2455 H   0  0  0  0  0  0  0  0  0  0  0  0
  150.8441  144.8015  160.4915 H   0  0  0  0  0  0  0  0  0  0  0  0
  153.6901  143.8482  159.9281 H   0  0  0  0  0  0  0  0  0  0  0  0
  152.8461  143.7183  161.4523 H   0  0  0  0  0  0  0  0  0  0  0  0
  151.1659  142.2166  160.4511 H   0  0  0  0  0  0  0  0  0  0  0  0
  154.4429  142.2491  161.5930 H   0  0  0  0  0  0  0  0  0  0  0  0
  155.4488  139.7292  161.8666 H   0  0  0  0  0  0  0  0  0  0  0  0
  153.7182  138.1979  160.3359 H   0  0  0  0  0  0  0  0  0  0  0  0
  1  2  3  0  0  0  0
  2  3  1  0  0  0  0
  3  4  1  0  0  0  0
  3 18  1  0  0  0  0
  3 19  1  0  0  0  0
  4  5  1  0  0  0  0
  4 20  1  0  0  0  0
  4 21  1  0  0  0  0
  5  6  1  0  0  0  0
  5 22  1  0  0  0  0
  5 23  1  0  0  0  0
  6  7  1  0  0  0  0
  6 24  1  0  0  0  0
  7 12  1  0  0  0  0
  7  8  1  0  0  0  0
  7 25  1  0  0  0  0
  8  9  1  0  0  0  0
  8 26  1  0  0  0  0
  8 27  1  0  0  0  0
  9 10  1  0  0  0  0
  9 28  1  0  0  0  0
  9 29  1  0  0  0  0
 10 11  1  0  0  0  0
 10 30  1  0  0  0  0
 10 31  1  0  0  0  0
 11 12  1  0  0  0  0
 11 32  1  0  0  0  0
 11 33  1  0  0  0  0
 12 13  1  0  0  0  0
 12 34  1  0  0  0  0
 13 17  1  0  0  0  0
 13 14  1  0  0  0  0
 14 15  2  0  0  0  0
 14 35  1  0  0  0  0
 15 16  1  0  0  0  0
 15 36  1  0  0  0  0
 16 17  2  0  0  0  0
 16 37  1  0  0  0  0
M  END
> <s_m_source_file>
AV-unprocessed.smi

> <i_m_source_file_index>
3185

> <i_lp_mmshare_version>
43012

> <i_f3d_flags>
0

> <s_epik_input>
TiNDW0NIMl1bQ0gyXVtDSDJdW05IXVtDQEBIXTFbQ0gyXVtDSDJdW0NIMl1bQ0gyXVtDQEhdMW4yW2NIXVtjSF1bY0hdbjI=

> <s_epik_cmdline>
J2VwaWtfcHl0aG9uJywgJy1waCcsICc3LjAnLCAnLXRuJywgJzgnLCAnLW1hJywgJzIwMCcsICctbWV0YWxfYmluZGluZycsICctaW1hZScsICc8aW5maWxlLm1hZT4nLCAnLW9tYWUnLCAnPG91dGZpbGUubWFlPic=

> <r_lp_tautomer_probability>
1

> <r_epik_Ionization_Penalty>
2.21326

> <r_epik_Ionization_Penalty_Charging>
0

> <r_epik_Ionization_Penalty_Neutral>
2.21326

> <r_epik_State_Penalty>
2.35651

> <r_epik_Charging_Adjusted_Penalty>
2.35651

> <i_epik_Tot_Q>
0

> <i_epik_Tot_abs_Q>
0

> <r_epik_Metal_State_Penalty>
2.3555

> <b_epik_Metal_Only>
0

> <s_lp_Force_Field>
OPLS_2005

> <r_lp_Energy>
16.6477

> <b_lp_Chiralities_Consistent>
1

> <s_lp_Variant>
AV-unprocessed.smi:3185-8

> <Gold.Version>
5.8.1

> <Gold.Id.Protein>
6NUR|6NUR_protein|mol2

> <Gold.PLP.Fitness>
42.4330

> <Gold.PLP.PLP>
-40.6022

> <Gold.PLP.part.hbond>
-1.0000

> <Gold.PLP.part.metal>
0.0000

> <Gold.PLP.part.buried>
-4.8184

> <Gold.PLP.part.nonpolar>
-36.0378

> <Gold.PLP.part.repulsive>
1.3827

> <Gold.PLP.ligand.clash>
0.0000

> <Gold.PLP.ligand.torsion>
0.6078

> <Gold.PLP.Chemscore.Hbond>
1.0000

> <Gold.PLP.Chemscore.CHOScore>
0.0000

> <Gold.PLP.Chemscore.Metal>
0.0000

> <Gold.Chemscore.Hbonds>
donor molecule, donor type, donor heavy atom, donor atom, acceptor molecule, acceptor atom, score
      P1  H 10752 10764       L1     1  0.70

> <Gold.PLP.Chemscore.Internal.Correction>
0.0463

> <Gold.Rescore>
     Score         DG    S(hbond)    S(metal)    S(lipo)     H(rot)  DE(clash)    DE(int)     intcor
     14.64     -17.13       0.99        0.00     110.87       1.81       0.18       2.32       ----

> <Gold.Chemscore.Fitness>
14.6381

> <Gold.Chemscore.DG>
-17.1322

> <Gold.Chemscore.ZeroCoef>
-5.4800

> <Gold.Chemscore.Hbond>
0.9930

> <Gold.Chemscore.Metal>
0.0000

> <Gold.Chemscore.Lipo>
110.8715

> <Gold.Chemscore.Internal_Hbond>
0.0000

> <Gold.Chemscore.DEClash>
0.1787

> <Gold.Chemscore.DEInternal>
2.3155

> <Gold.Chemscore.Rot>
1.8110

> <Gold.Chemscore.Internal.Correction>
   9.000000E+99

> <Gold.Chemscore.Hbonds>
donor molecule, donor type, donor heavy atom, donor atom, acceptor molecule, acceptor atom, score
      P1  H 10752 10764       L1     1  0.34

> <Gold.Chemscore.Hbond.Weighted>
-3.3165

> <Gold.Chemscore.Metal.Weighted>
-0.0000

> <Gold.Chemscore.Lipo.Weighted>
-12.9720

> <Gold.Chemscore.Internal_Hbond.Weighted>
0.0000

> <Gold.Chemscore.DEClash.Weighted>
0.1787

> <Gold.Chemscore.DEInternal.Weighted>
2.3155

> <Gold.Chemscore.Rot.Weighted>
4.6362

> <Gold.Chemscore.Internal.Correction.Weighted>
   9.000000E+99

> <Gold.Protein.RotatedTorsions>
[ 6907 6896 6895 6894 ] final -140.52 input  -60.11 | X-H torsion
[ 7974 7965 7964 7962 ] final  -22.75 input  175.53 | X-H torsion
[ 8008 7997 7996 7995 ] final   -8.92 input   59.86 | X-H torsion
[ 10167 10162 10161 10158 ] final   93.49 input  -65.29 | X-H torsion
[ 10718 10713 10712 10709 ] final  -81.90 input   66.30 | X-H torsion
[ 10763 10752 10751 10750 ] final  -68.41 input  -60.55 | X-H torsion
[ 11005 11000 10999 10996 ] final  -12.14 input  -57.11 | X-H torsion

> <Gold.Protein.ActiveResidues>
 VAL166  LYS551  ARG553  GLY616  TRP617  ASP618  TYR619  PRO620  LYS621  CYS622 
 ASP623  PHE694  ASN695  SER759  ASP760  ASP761  ALA762  ILE779  LEU786  VAL792 
 PHE793  MET794  SER795  GLU796  ALA797  LYS798  CYS799  TRP800  GLU811  SER814 

> <Gold.Protein.RotatedAtoms>
  151.0618  133.5538  159.2633 H   0  0  0  0  0  0  0  0  0  0  0  0  # atno 6907 bound_to 6896
  151.2510  135.0621  159.9072 H   0  0  0  0  0  0  0  0  0  0  0  0  # atno 6908 bound_to 6896
  152.5398  134.0378  159.8108 H   0  0  0  0  0  0  0  0  0  0  0  0  # atno 6909 bound_to 6896
  146.1657  140.4522  142.8553 H   0  0  0  0  0  0  0  0  0  0  0  0  # atno 7974 bound_to 7965
  154.5695  140.2368  155.8213 H   0  0  0  0  0  0  0  0  0  0  0  0  # atno 8008 bound_to 7997
  156.2095  140.3030  155.9659 H   0  0  0  0  0  0  0  0  0  0  0  0  # atno 8009 bound_to 7997
  155.2739  140.0419  157.3000 H   0  0  0  0  0  0  0  0  0  0  0  0  # atno 8010 bound_to 7997
  139.8175  144.6746  150.9561 H   0  0  0  0  0  0  0  0  0  0  0  0  # atno 10167 bound_to 10162
  156.0042  130.4618  150.4023 H   0  0  0  0  0  0  0  0  0  0  0  0  # atno 10718 bound_to 10713
  154.3886  135.6058  153.5830 H   0  0  0  0  0  0  0  0  0  0  0  0  # atno 10763 bound_to 10752
  152.9787  135.5878  154.4325 H   0  0  0  0  0  0  0  0  0  0  0  0  # atno 10764 bound_to 10752
  154.4105  135.2844  155.2017 H   0  0  0  0  0  0  0  0  0  0  0  0  # atno 10765 bound_to 10752
  140.7627  133.8502  155.9138 H   0  0  0  0  0  0  0  0  0  0  0  0  # atno 11005 bound_to 11000
  144.8089  140.6350  143.6428 LP  0  0  0  0  0  0  0  0  0  0  0  0  # atno 17320 bound_to 7965
  145.4473  139.1528  143.3937 LP  0  0  0  0  0  0  0  0  0  0  0  0  # atno 17321 bound_to 7965
  140.7815  143.4124  151.0971 LP  0  0  0  0  0  0  0  0  0  0  0  0  # atno 17342 bound_to 10162
  139.7787  143.8387  152.3134 LP  0  0  0  0  0  0  0  0  0  0  0  0  # atno 17343 bound_to 10162
  157.2091  131.0456  151.2609 LP  0  0  0  0  0  0  0  0  0  0  0  0  # atno 17370 bound_to 10713
  157.3905  130.7279  149.6694 LP  0  0  0  0  0  0  0  0  0  0  0  0  # atno 17371 bound_to 10713
  140.9648  134.1608  157.4624 LP  0  0  0  0  0  0  0  0  0  0  0  0  # atno 17394 bound_to 11000
  139.8768  134.9958  156.5761 LP  0  0  0  0  0  0  0  0  0  0  0  0  # atno 17395 bound_to 11000

$$$$
