AV-unprocessed.smi:1607|AV-procd|sdf|6463|dock5
  -GOLD-   22720 7113D 1   1.00000     0.00000
 Structure written by MMmdl.
 39 40  0  0  0  0  0  0  0  0  2 V2000
  153.5603  141.5307  160.6923 C   0  0  0  0  0  0  0  0  0  0  0  0
  152.8851  142.5442  159.7572 C   0  0  2  0  0  0  0  0  0  0  0  0
  152.4981  143.8294  160.5081 C   0  0  0  0  0  0  0  0  0  0  0  0
  151.8007  144.8101  159.5577 C   0  0  0  0  0  0  0  0  0  0  0  0
  150.5932  144.1482  158.8762 C   0  0  0  0  0  0  0  0  0  0  0  0
  150.9966  142.9149  158.1526 N   0  3  2  0  0  0  0  0  0  0  0  0
  149.8747  142.3313  157.3750 C   0  0  0  0  0  0  0  0  0  0  0  0
  150.3492  141.6550  156.0739 C   0  0  0  0  0  0  0  0  0  0  0  0
  151.2906  140.5748  156.3449 N   0  0  0  0  0  0  0  0  0  0  0  0
  151.5197  139.5330  155.5302 C   0  0  0  0  0  0  0  0  0  0  0  0
  150.9505  139.3806  154.4496 O   0  0  0  0  0  0  0  0  0  0  0  0
  152.5490  138.5069  156.0036 C   0  0  0  0  0  0  0  0  0  0  0  0
  151.9239  137.4819  156.8172 N   0  0  0  0  0  0  0  0  0  0  0  0
  151.3204  137.5520  158.0057 C   0  0  0  0  0  0  0  0  0  0  0  0
  150.8878  136.3656  158.4043 N   0  0  0  0  0  0  0  0  0  0  0  0
  151.2669  135.5277  157.3687 N   0  0  0  0  0  0  0  0  0  0  0  0
  151.8832  136.1844  156.4244 N   0  0  0  0  0  0  0  0  0  0  0  0
  151.6485  141.9360  159.0643 C   0  0  0  0  0  0  0  0  0  0  0  0
  152.8866  141.2167  161.4901 H   0  0  0  0  0  0  0  0  0  0  0  0
  154.4501  141.9567  161.1569 H   0  0  0  0  0  0  0  0  0  0  0  0
  153.8700  140.6382  160.1479 H   0  0  0  0  0  0  0  0  0  0  0  0
  153.6083  142.8098  158.9842 H   0  0  0  0  0  0  0  0  0  0  0  0
  151.8339  143.5907  161.3400 H   0  0  0  0  0  0  0  0  0  0  0  0
  153.3832  144.2977  160.9403 H   0  0  0  0  0  0  0  0  0  0  0  0
  151.4799  145.6961  160.1061 H   0  0  0  0  0  0  0  0  0  0  0  0
  152.5068  145.1535  158.8003 H   0  0  0  0  0  0  0  0  0  0  0  0
  149.8284  143.9052  159.6159 H   0  0  0  0  0  0  0  0  0  0  0  0
  150.1469  144.8579  158.1784 H   0  0  0  0  0  0  0  0  0  0  0  0
  149.3200  141.6338  158.0048 H   0  0  0  0  0  0  0  0  0  0  0  0
  149.1734  143.1219  157.1042 H   0  0  0  0  0  0  0  0  0  0  0  0
  149.4953  141.2334  155.5428 H   0  0  0  0  0  0  0  0  0  0  0  0
  150.8143  142.3699  155.3947 H   0  0  0  0  0  0  0  0  0  0  0  0
  151.7968  140.6156  157.2183 H   0  0  0  0  0  0  0  0  0  0  0  0
  153.0212  138.0321  155.1427 H   0  0  0  0  0  0  0  0  0  0  0  0
  153.3401  138.9938  156.5762 H   0  0  0  0  0  0  0  0  0  0  0  0
  151.2013  138.4629  158.5736 H   0  0  0  0  0  0  0  0  0  0  0  0
  151.9559  141.0528  158.5056 H   0  0  0  0  0  0  0  0  0  0  0  0
  150.9264  141.5987  159.8098 H   0  0  0  0  0  0  0  0  0  0  0  0
  151.6930  143.2008  157.4794 H   0  0  0  0  0  0  0  0  0  0  0  0
  1  2  1  0  0  0  0
  1 19  1  0  0  0  0
  1 20  1  0  0  0  0
  1 21  1  0  0  0  0
  2 18  1  0  0  0  0
  2  3  1  0  0  0  0
  2 22  1  0  0  0  0
  3  4  1  0  0  0  0
  3 23  1  0  0  0  0
  3 24  1  0  0  0  0
  4  5  1  0  0  0  0
  4 25  1  0  0  0  0
  4 26  1  0  0  0  0
  5  6  1  0  0  0  0
  5 27  1  0  0  0  0
  5 28  1  0  0  0  0
  6  7  1  0  0  0  0
  6 18  1  0  0  0  0
  6 39  1  0  0  0  0
  7  8  1  0  0  0  0
  7 29  1  0  0  0  0
  7 30  1  0  0  0  0
  8  9  1  0  0  0  0
  8 31  1  0  0  0  0
  8 32  1  0  0  0  0
  9 10  1  0  0  0  0
  9 33  1  0  0  0  0
 10 11  2  0  0  0  0
 10 12  1  0  0  0  0
 12 13  1  0  0  0  0
 12 34  1  0  0  0  0
 12 35  1  0  0  0  0
 13 17  1  0  0  0  0
 13 14  1  0  0  0  0
 14 15  2  0  0  0  0
 14 36  1  0  0  0  0
 15 16  1  0  0  0  0
 16 17  2  0  0  0  0
 18 37  1  0  0  0  0
 18 38  1  0  0  0  0
M  CHG  1   6   1
M  END
> <s_m_source_file>
AV-unprocessed.smi

> <i_m_source_file_index>
1607

> <i_lp_mmshare_version>
43012

> <i_f3d_flags>
0

> <s_epik_input>
W0NIM11bQ0BASF0xW0NIMl1bQ0gyXVtDSDJdTihbQ0gyXTEpW0NIMl1bQ0gyXVtOSF1DKD1PKVtDSDJdbjJbY0hdbm5uMg==

> <s_epik_cmdline>
J2VwaWtfcHl0aG9uJywgJy1waCcsICc3LjAnLCAnLXRuJywgJzgnLCAnLW1hJywgJzIwMCcsICctbWV0YWxfYmluZGluZycsICctaW1hZScsICc8aW5maWxlLm1hZT4nLCAnLW9tYWUnLCAnPG91dGZpbGUubWFlPic=

> <r_lp_tautomer_probability>
1

> <r_epik_Ionization_Penalty>
0.00268321

> <r_epik_Ionization_Penalty_Charging>
0.00267875

> <r_epik_Ionization_Penalty_Neutral>
4.46125e-06

> <r_epik_State_Penalty>
0.00186642

> <r_epik_Charging_Adjusted_Penalty>
0.00454517

> <i_epik_Tot_Q>
1

> <i_epik_Tot_abs_Q>
1

> <r_epik_Metal_State_Penalty>
-0

> <b_epik_Metal_Only>
0

> <s_lp_Force_Field>
OPLS_2005

> <r_lp_Energy>
18.3574

> <b_lp_Chiralities_Consistent>
1

> <s_lp_Variant>
AV-unprocessed.smi:1607-1

> <Gold.Version>
5.8.1

> <Gold.Id.Protein>
6NUR|6NUR_protein|mol2

> <Gold.PLP.Fitness>
42.2802

> <Gold.PLP.PLP>
-36.0360

> <Gold.PLP.part.hbond>
-4.0000

> <Gold.PLP.part.metal>
0.0000

> <Gold.PLP.part.buried>
-4.6573

> <Gold.PLP.part.nonpolar>
-27.5836

> <Gold.PLP.part.repulsive>
0.3009

> <Gold.PLP.ligand.clash>
0.0000

> <Gold.PLP.ligand.torsion>
0.9324

> <Gold.PLP.Chemscore.Hbond>
2.6880

> <Gold.PLP.Chemscore.CHOScore>
0.0000

> <Gold.PLP.Chemscore.Metal>
0.0000

> <Gold.Chemscore.Hbonds>
donor molecule, donor type, donor heavy atom, donor atom, acceptor molecule, acceptor atom, score
      P1  H  6896  6907       L1    15  0.58
      P1  H  7989  7998       L1    11  1.00
      P1  H 10752 10765       L1    17  0.93

> <Gold.PLP.Chemscore.Internal.Correction>
0.0450

> <Gold.Rescore>
     Score         DG    S(hbond)    S(metal)    S(lipo)     H(rot)  DE(clash)    DE(int)     intcor
     14.72     -15.77       2.34        0.00      80.00       2.69       0.00       1.05       ----

> <Gold.Chemscore.Fitness>
14.7174

> <Gold.Chemscore.DG>
-15.7671

> <Gold.Chemscore.ZeroCoef>
-5.4800

> <Gold.Chemscore.Hbond>
2.3419

> <Gold.Chemscore.Metal>
0.0000

> <Gold.Chemscore.Lipo>
79.9960

> <Gold.Chemscore.Internal_Hbond>
0.0000

> <Gold.Chemscore.DEClash>
0.0015

> <Gold.Chemscore.DEInternal>
1.0483

> <Gold.Chemscore.Rot>
2.6932

> <Gold.Chemscore.Internal.Correction>
   9.000000E+99

> <Gold.Chemscore.Hbonds>
donor molecule, donor type, donor heavy atom, donor atom, acceptor molecule, acceptor atom, score
      P1  H  6896  6907       L1    15  0.07
      P1  H  7989  7998       L1    11  0.30
      P1  H 10752 10765       L1    17  0.84

> <Gold.Chemscore.Hbond.Weighted>
-7.8221

> <Gold.Chemscore.Metal.Weighted>
-0.0000

> <Gold.Chemscore.Lipo.Weighted>
-9.3595

> <Gold.Chemscore.Internal_Hbond.Weighted>
0.0000

> <Gold.Chemscore.DEClash.Weighted>
0.0015

> <Gold.Chemscore.DEInternal.Weighted>
1.0483

> <Gold.Chemscore.Rot.Weighted>
6.8945

> <Gold.Chemscore.Internal.Correction.Weighted>
   9.000000E+99

> <Gold.Protein.RotatedTorsions>
[ 6907 6896 6895 6894 ] final  -30.78 input  -60.11 | X-H torsion
[ 7974 7965 7964 7962 ] final -117.28 input  175.53 | X-H torsion
[ 8008 7997 7996 7995 ] final    7.84 input   59.86 | X-H torsion
[ 10167 10162 10161 10158 ] final -126.02 input  -65.29 | X-H torsion
[ 10718 10713 10712 10709 ] final  139.69 input   66.30 | X-H torsion
[ 10763 10752 10751 10750 ] final -167.65 input  -60.55 | X-H torsion
[ 11005 11000 10999 10996 ] final   27.08 input  -57.11 | X-H torsion

> <Gold.Protein.ActiveResidues>
 VAL166  LYS551  ARG553  GLY616  TRP617  ASP618  TYR619  PRO620  LYS621  CYS622 
 ASP623  PHE694  ASN695  SER759  ASP760  ASP761  ALA762  ILE779  LEU786  VAL792 
 PHE793  MET794  SER795  GLU796  ALA797  LYS798  CYS799  TRP800  GLU811  SER814 

> <Gold.Protein.RotatedAtoms>
  151.1009  134.9971  159.8447 H   0  0  0  0  0  0  0  0  0  0  0  0  # atno 6907 bound_to 6896
  152.5437  134.1952  159.8700 H   0  0  0  0  0  0  0  0  0  0  0  0  # atno 6908 bound_to 6896
  151.1994  133.4575  159.2629 H   0  0  0  0  0  0  0  0  0  0  0  0  # atno 6909 bound_to 6896
  145.0870  140.8464  143.4005 H   0  0  0  0  0  0  0  0  0  0  0  0  # atno 7974 bound_to 7965
  154.7591  140.2781  155.6229 H   0  0  0  0  0  0  0  0  0  0  0  0  # atno 8008 bound_to 7997
  156.2912  140.2663  156.2291 H   0  0  0  0  0  0  0  0  0  0  0  0  # atno 8009 bound_to 7997
  155.0041  140.0372  157.2362 H   0  0  0  0  0  0  0  0  0  0  0  0  # atno 8010 bound_to 7997
  139.9759  143.5795  152.2396 H   0  0  0  0  0  0  0  0  0  0  0  0  # atno 10167 bound_to 10162
  157.4115  131.1028  151.0448 H   0  0  0  0  0  0  0  0  0  0  0  0  # atno 10718 bound_to 10713
  154.6710  135.2939  154.9742 H   0  0  0  0  0  0  0  0  0  0  0  0  # atno 10763 bound_to 10752
  154.0769  135.6610  153.4836 H   0  0  0  0  0  0  0  0  0  0  0  0  # atno 10764 bound_to 10752
  153.0487  135.5188  154.7706 H   0  0  0  0  0  0  0  0  0  0  0  0  # atno 10765 bound_to 10752
  140.3301  134.2447  155.7703 H   0  0  0  0  0  0  0  0  0  0  0  0  # atno 11005 bound_to 11000
  145.1111  139.2757  143.5637 LP  0  0  0  0  0  0  0  0  0  0  0  0  # atno 17320 bound_to 7965
  146.3531  140.0706  142.8623 LP  0  0  0  0  0  0  0  0  0  0  0  0  # atno 17321 bound_to 7965
  139.6446  144.7657  151.2269 LP  0  0  0  0  0  0  0  0  0  0  0  0  # atno 17342 bound_to 10162
  140.7506  143.6260  150.8468 LP  0  0  0  0  0  0  0  0  0  0  0  0  # atno 17343 bound_to 10162
  157.1411  130.6143  149.5555 LP  0  0  0  0  0  0  0  0  0  0  0  0  # atno 17370 bound_to 10713
  155.9852  130.4881  150.7021 LP  0  0  0  0  0  0  0  0  0  0  0  0  # atno 17371 bound_to 10713
  141.2065  133.7830  157.0171 LP  0  0  0  0  0  0  0  0  0  0  0  0  # atno 17394 bound_to 11000
  140.0868  134.9616  157.1712 LP  0  0  0  0  0  0  0  0  0  0  0  0  # atno 17395 bound_to 11000

$$$$
