AV-unprocessed.smi:37|AV-procd|sdf|329|dock1
  -GOLD-   2262016153D 1   1.00000     0.00000
 Structure written by MMmdl.
 43 44  0  0  0  0  0  0  0  0  2 V2000
  147.4702  133.5674  162.2979 C   0  0  0  0  0  0  0  0  0  0  0  0
  147.4625  135.0202  162.7953 C   0  0  0  0  0  0  0  0  0  0  0  0
  147.5071  136.0548  161.6687 C   0  0  0  0  0  0  0  0  0  0  0  0
  147.4707  137.2685  161.8793 O   0  0  0  0  0  0  0  0  0  0  0  0
  147.5934  135.4728  160.4671 O   0  0  0  0  0  0  0  0  0  0  0  0
  147.7642  136.2604  159.2999 C   0  0  0  0  0  0  0  0  0  0  0  0
  148.7886  135.6267  158.3402 C   0  0  2  0  0  0  0  0  0  0  0  0
  149.9532  136.4294  158.1543 O   0  0  0  0  0  0  0  0  0  0  0  0
  150.4335  136.3027  156.8434 C   0  0  2  0  0  0  0  0  0  0  0  0
  150.2512  137.6191  156.1067 N   0  0  0  0  0  0  0  0  0  0  0  0
  149.5359  138.6688  156.6618 C   0  0  0  0  0  0  0  0  0  0  0  0
  149.3786  139.8365  156.0068 C   0  0  0  0  0  0  0  0  0  0  0  0
  148.6731  140.8309  156.5728 F   0  0  0  0  0  0  0  0  0  0  0  0
  149.9773  140.0105  154.6858 C   0  0  0  0  0  0  0  0  0  0  0  0
  149.8030  141.0654  154.0781 O   0  0  0  0  0  0  0  0  0  0  0  0
  150.7155  138.9802  154.1813 N   0  5  0  0  0  0  0  0  0  0  0  0
  150.8901  137.8022  154.8487 C   0  0  0  0  0  0  0  0  0  0  0  0
  151.5820  136.8815  154.4137 O   0  0  0  0  0  0  0  0  0  0  0  0
  149.6187  135.1767  156.1779 C   0  0  1  0  0  0  0  0  0  0  0  0
  150.5271  133.4322  156.4960 Br  0  0  0  0  0  0  0  0  0  0  0  0
  148.3066  135.2056  156.9450 C   0  0  2  0  0  0  0  0  0  0  0  0
  147.4131  136.1599  156.3809 O   0  0  0  0  0  0  0  0  0  0  0  0
  147.0633  136.0902  155.0834 C   0  0  0  0  0  0  0  0  0  0  0  0
  147.3971  135.2061  154.2945 O   0  0  0  0  0  0  0  0  0  0  0  0
  146.1518  137.2373  154.6498 C   0  0  0  0  0  0  0  0  0  0  0  0
  146.7618  138.0912  153.5298 C   0  0  0  0  0  0  0  0  0  0  0  0
  147.4286  132.8748  163.1385 H   0  0  0  0  0  0  0  0  0  0  0  0
  148.3766  133.3458  161.7331 H   0  0  0  0  0  0  0  0  0  0  0  0
  146.6122  133.3598  161.6573 H   0  0  0  0  0  0  0  0  0  0  0  0
  146.5663  135.1989  163.3902 H   0  0  0  0  0  0  0  0  0  0  0  0
  148.3153  135.1879  163.4536 H   0  0  0  0  0  0  0  0  0  0  0  0
  146.8035  136.3681  158.7950 H   0  0  0  0  0  0  0  0  0  0  0  0
  148.0973  137.2611  159.5791 H   0  0  0  0  0  0  0  0  0  0  0  0
  149.1503  134.7210  158.8289 H   0  0  0  0  0  0  0  0  0  0  0  0
  151.5117  136.1345  156.8379 H   0  0  0  0  0  0  0  0  0  0  0  0
  149.0937  138.5766  157.6396 H   0  0  0  0  0  0  0  0  0  0  0  0
  149.5080  135.2981  155.1007 H   0  0  0  0  0  0  0  0  0  0  0  0
  147.8245  134.2272  156.9744 H   0  0  0  0  0  0  0  0  0  0  0  0
  145.2066  136.8133  154.3094 H   0  0  0  0  0  0  0  0  0  0  0  0
  145.9249  137.8594  155.5156 H   0  0  0  0  0  0  0  0  0  0  0  0
  146.0263  138.7933  153.1376 H   0  0  0  0  0  0  0  0  0  0  0  0
  147.1097  137.4766  152.6983 H   0  0  0  0  0  0  0  0  0  0  0  0
  147.6062  138.6747  153.8962 H   0  0  0  0  0  0  0  0  0  0  0  0
  1  2  1  0  0  0  0
  1 27  1  0  0  0  0
  1 28  1  0  0  0  0
  1 29  1  0  0  0  0
  2  3  1  0  0  0  0
  2 30  1  0  0  0  0
  2 31  1  0  0  0  0
  3  4  2  0  0  0  0
  3  5  1  0  0  0  0
  5  6  1  0  0  0  0
  6  7  1  0  0  0  0
  6 32  1  0  0  0  0
  6 33  1  0  0  0  0
  7 21  1  0  0  0  0
  7  8  1  0  0  0  0
  7 34  1  0  0  0  0
  8  9  1  0  0  0  0
  9 10  1  0  0  0  0
  9 19  1  0  0  0  0
  9 35  1  0  0  0  0
 10 17  1  0  0  0  0
 10 11  1  0  0  0  0
 11 12  2  0  0  0  0
 11 36  1  0  0  0  0
 12 13  1  0  0  0  0
 12 14  1  0  0  0  0
 14 15  2  0  0  0  0
 14 16  1  0  0  0  0
 16 17  1  0  0  0  0
 17 18  2  0  0  0  0
 19 20  1  0  0  0  0
 19 21  1  0  0  0  0
 19 37  1  0  0  0  0
 21 22  1  0  0  0  0
 21 38  1  0  0  0  0
 22 23  1  0  0  0  0
 23 24  2  0  0  0  0
 23 25  1  0  0  0  0
 25 26  1  0  0  0  0
 25 39  1  0  0  0  0
 25 40  1  0  0  0  0
 26 41  1  0  0  0  0
 26 42  1  0  0  0  0
 26 43  1  0  0  0  0
M  CHG  1  16  -1
M  END
> <s_m_source_file>
AV-unprocessed.smi

> <i_m_source_file_index>
37

> <i_lp_mmshare_version>
43012

> <i_f3d_flags>
0

> <s_epik_input>
W0NIM11bQ0gyXUMoPU8pT1tDSDJdW0NAQEhdMU9bQ0BASF0objJbY0hdYyhGKWMoPU8pW25IXWMyPU8pW0NAQEhdKEJyKVtDQEhdMU9DKD1PKVtDSDJdW0NIM10=

> <s_epik_cmdline>
J2VwaWtfcHl0aG9uJywgJy1waCcsICc3LjAnLCAnLXRuJywgJzgnLCAnLW1hJywgJzIwMCcsICctbWV0YWxfYmluZGluZycsICctaW1hZScsICc8aW5maWxlLm1hZT4nLCAnLW9tYWUnLCAnPG91dGZpbGUubWFlPic=

> <r_epik_Ionization_Penalty>
1.08158

> <r_epik_Ionization_Penalty_Charging>
9.05154e-09

> <r_epik_Ionization_Penalty_Neutral>
1.08158

> <r_epik_State_Penalty>
1.13706

> <r_epik_Charging_Adjusted_Penalty>
1.13706

> <i_epik_Tot_Q>
-1

> <i_epik_Tot_abs_Q>
1

> <r_epik_Metal_State_Penalty>
0.00343535

> <b_epik_Metal_Only>
0

> <s_epik_Chemistry_Notes>
This compound has an ester and may undergo hydrolysis at high or low pH. This compound contains an acetal/aminal-like group ( X-CH(R)-Y where X, Y are N, S, or O) that may be acid/base labile, releasing an aldehyde.

> <s_lp_Force_Field>
OPLS_2005

> <r_lp_Energy>
30.7461

> <b_lp_Chiralities_Consistent>
1

> <s_lp_Variant>
AV-unprocessed.smi:37-27

> <Gold.Version>
5.8.1

> <Gold.Id.Protein>
6NUR|6NUR_protein|mol2

> <Gold.PLP.Fitness>
36.5463

> <Gold.PLP.PLP>
-30.3591

> <Gold.PLP.part.hbond>
-5.6386

> <Gold.PLP.part.metal>
0.0000

> <Gold.PLP.part.buried>
-4.1707

> <Gold.PLP.part.nonpolar>
-21.0103

> <Gold.PLP.part.repulsive>
2.0606

> <Gold.PLP.ligand.clash>
0.0000

> <Gold.PLP.ligand.torsion>
1.3549

> <Gold.PLP.Chemscore.Hbond>
2.8010

> <Gold.PLP.Chemscore.CHOScore>
0.0000

> <Gold.PLP.Chemscore.Metal>
0.0000

> <Gold.Chemscore.Hbonds>
donor molecule, donor type, donor heavy atom, donor atom, acceptor molecule, acceptor atom, score
      P1  H  6931  6943       L1     4  0.90
      P1  H  6934  6947       L1     4  0.72
      P1  H  7989  7998       L1    15  0.16
      P1  H  8011  8017       L1    15  0.46
      P1  H 10752 10764       L1    18  0.47

> <Gold.PLP.Chemscore.Internal.Correction>
0.4941

> <Gold.Rescore>
     Score         DG    S(hbond)    S(metal)    S(lipo)     H(rot)  DE(clash)    DE(int)     intcor
      7.93     -10.64       2.54        0.00      43.00       3.27       0.18       2.53       ----

> <Gold.Chemscore.Fitness>
7.9350

> <Gold.Chemscore.DG>
-10.6432

> <Gold.Chemscore.ZeroCoef>
-5.4800

> <Gold.Chemscore.Hbond>
2.5437

> <Gold.Chemscore.Metal>
0.0000

> <Gold.Chemscore.Lipo>
42.9955

> <Gold.Chemscore.Internal_Hbond>
0.0000

> <Gold.Chemscore.DEClash>
0.1779

> <Gold.Chemscore.DEInternal>
2.5303

> <Gold.Chemscore.Rot>
3.2669

> <Gold.Chemscore.Internal.Correction>
   9.000000E+99

> <Gold.Chemscore.Hbonds>
donor molecule, donor type, donor heavy atom, donor atom, acceptor molecule, acceptor atom, score
      P1  H  6931  6943       L1     4  0.87
      P1  H  6934  6947       L1     4  0.69
      P1  H  8011  8017       L1    15  0.45
      P1  H 10752 10764       L1    18  0.45

> <Gold.Chemscore.Hbond.Weighted>
-8.4960

> <Gold.Chemscore.Metal.Weighted>
-0.0000

> <Gold.Chemscore.Lipo.Weighted>
-5.0305

> <Gold.Chemscore.Internal_Hbond.Weighted>
0.0000

> <Gold.Chemscore.DEClash.Weighted>
0.1779

> <Gold.Chemscore.DEInternal.Weighted>
2.5303

> <Gold.Chemscore.Rot.Weighted>
8.3634

> <Gold.Chemscore.Internal.Correction.Weighted>
   9.000000E+99

> <Gold.Protein.RotatedTorsions>
[ 6907 6896 6895 6894 ] final   64.92 input  -60.11 | X-H torsion
[ 7974 7965 7964 7962 ] final -126.78 input  175.53 | X-H torsion
[ 8008 7997 7996 7995 ] final -114.40 input   59.86 | X-H torsion
[ 10167 10162 10161 10158 ] final    4.30 input  -65.29 | X-H torsion
[ 10718 10713 10712 10709 ] final  -57.17 input   66.30 | X-H torsion
[ 10763 10752 10751 10750 ] final -113.68 input  -60.55 | X-H torsion
[ 11005 11000 10999 10996 ] final   19.48 input  -57.11 | X-H torsion

> <Gold.Protein.ActiveResidues>
 VAL166  LYS551  ARG553  GLY616  TRP617  ASP618  TYR619  PRO620  LYS621  CYS622 
 ASP623  PHE694  ASN695  SER759  ASP760  ASP761  ALA762  ILE779  LEU786  VAL792 
 PHE793  MET794  SER795  GLU796  ALA797  LYS798  CYS799  TRP800  GLU811  SER814 

> <Gold.Protein.RotatedAtoms>
  152.4369  134.5669  159.9909 H   0  0  0  0  0  0  0  0  0  0  0  0  # atno 6907 bound_to 6896
  151.5777  133.3376  159.3010 H   0  0  0  0  0  0  0  0  0  0  0  0  # atno 6908 bound_to 6896
  150.8268  134.7538  159.6884 H   0  0  0  0  0  0  0  0  0  0  0  0  # atno 6909 bound_to 6896
  144.9838  140.7666  143.4596 H   0  0  0  0  0  0  0  0  0  0  0  0  # atno 7974 bound_to 7965
  155.0357  140.0392  157.2491 H   0  0  0  0  0  0  0  0  0  0  0  0  # atno 8008 bound_to 7997
  154.7259  140.2721  155.6476 H   0  0  0  0  0  0  0  0  0  0  0  0  # atno 8009 bound_to 7997
  156.2829  140.2694  156.1944 H   0  0  0  0  0  0  0  0  0  0  0  0  # atno 8010 bound_to 7997
  140.6542  143.7469  150.7625 H   0  0  0  0  0  0  0  0  0  0  0  0  # atno 10167 bound_to 10162
  156.1231  130.4164  150.0404 H   0  0  0  0  0  0  0  0  0  0  0  0  # atno 10718 bound_to 10713
  154.8407  135.4445  154.1387 H   0  0  0  0  0  0  0  0  0  0  0  0  # atno 10763 bound_to 10752
  153.2578  135.6933  153.7617 H   0  0  0  0  0  0  0  0  0  0  0  0  # atno 10764 bound_to 10752
  153.6905  135.3388  155.3176 H   0  0  0  0  0  0  0  0  0  0  0  0  # atno 10765 bound_to 10752
  140.4132  134.1596  155.7668 H   0  0  0  0  0  0  0  0  0  0  0  0  # atno 11005 bound_to 11000
  145.2383  139.2084  143.5006 LP  0  0  0  0  0  0  0  0  0  0  0  0  # atno 17320 bound_to 7965
  146.3415  140.2273  142.8592 LP  0  0  0  0  0  0  0  0  0  0  0  0  # atno 17321 bound_to 7965
  140.1126  143.4685  152.2361 LP  0  0  0  0  0  0  0  0  0  0  0  0  # atno 17342 bound_to 10162
  139.5761  144.7488  151.3760 LP  0  0  0  0  0  0  0  0  0  0  0  0  # atno 17343 bound_to 10162
  156.8337  130.9401  151.3636 LP  0  0  0  0  0  0  0  0  0  0  0  0  # atno 17370 bound_to 10713
  157.6414  130.8809  149.9456 LP  0  0  0  0  0  0  0  0  0  0  0  0  # atno 17371 bound_to 10713
  141.1813  133.8408  157.1247 LP  0  0  0  0  0  0  0  0  0  0  0  0  # atno 17394 bound_to 11000
  140.0253  134.9927  157.0673 LP  0  0  0  0  0  0  0  0  0  0  0  0  # atno 17395 bound_to 11000

$$$$
