AV-unprocessed.smi:3117|AV-procd|sdf|11879|dock7
  -GOLD-   2272017263D 1   1.00000     0.00000
 Structure written by MMmdl.
 37 37  0  0  0  0  0  0  0  0  2 V2000
  149.5063  140.1544  157.4697 C   0  0  0  0  0  0  0  0  0  0  0  0
  149.2156  141.4413  156.6762 C   0  0  1  0  0  0  0  0  0  0  0  0
  149.9004  142.5740  157.3387 N   0  3  0  0  0  0  0  0  0  0  0  0
  151.3616  142.4095  157.5018 C   0  0  0  0  0  0  0  0  0  0  0  0
  151.9168  143.2350  158.6817 C   0  0  0  0  0  0  0  0  0  0  0  0
  153.2329  142.6213  159.1879 C   0  0  0  0  0  0  0  0  0  0  0  0
  152.1251  144.7163  158.3163 C   0  0  0  0  0  0  0  0  0  0  0  0
  150.9921  143.1595  159.7496 O   0  0  0  0  0  0  0  0  0  0  0  0
  149.6401  141.3427  155.1857 C   0  0  2  0  0  0  0  0  0  0  0  0
  148.4427  141.3638  154.2157 C   0  0  0  0  0  0  0  0  0  0  0  0
  150.4653  140.1682  154.9314 N   0  0  0  0  0  0  0  0  0  0  0  0
  151.7080  139.8664  155.4503 C   0  0  0  0  0  0  0  0  0  0  0  0
  152.0882  138.6634  154.9278 C   0  0  0  0  0  0  0  0  0  0  0  0
  151.0008  138.3019  154.0847 C   0  0  0  0  0  0  0  0  0  0  0  0
  150.0320  139.2029  154.0890 N   0  0  0  0  0  0  0  0  0  0  0  0
  148.9439  139.3036  157.0847 H   0  0  0  0  0  0  0  0  0  0  0  0
  149.2280  140.2708  158.5177 H   0  0  0  0  0  0  0  0  0  0  0  0
  150.5654  139.8970  157.4340 H   0  0  0  0  0  0  0  0  0  0  0  0
  148.1372  141.6051  156.7204 H   0  0  0  0  0  0  0  0  0  0  0  0
  149.7402  143.4076  156.7919 H   0  0  0  0  0  0  0  0  0  0  0  0
  151.5873  141.3524  157.6498 H   0  0  0  0  0  0  0  0  0  0  0  0
  151.8529  142.7089  156.5747 H   0  0  0  0  0  0  0  0  0  0  0  0
  154.0019  142.6451  158.4149 H   0  0  0  0  0  0  0  0  0  0  0  0
  153.1000  141.5806  159.4864 H   0  0  0  0  0  0  0  0  0  0  0  0
  153.6204  143.1633  160.0515 H   0  0  0  0  0  0  0  0  0  0  0  0
  152.8241  144.8214  157.4860 H   0  0  0  0  0  0  0  0  0  0  0  0
  152.5310  145.2784  159.1584 H   0  0  0  0  0  0  0  0  0  0  0  0
  151.1920  145.1994  158.0248 H   0  0  0  0  0  0  0  0  0  0  0  0
  151.0749  142.3123  160.1613 H   0  0  0  0  0  0  0  0  0  0  0  0
  150.2593  142.2119  154.9570 H   0  0  0  0  0  0  0  0  0  0  0  0
  147.8915  142.3021  154.2784 H   0  0  0  0  0  0  0  0  0  0  0  0
  147.7438  140.5533  154.4243 H   0  0  0  0  0  0  0  0  0  0  0  0
  148.7754  141.2561  153.1828 H   0  0  0  0  0  0  0  0  0  0  0  0
  152.2134  140.5242  156.1420 H   0  0  0  0  0  0  0  0  0  0  0  0
  153.0043  138.1239  155.1174 H   0  0  0  0  0  0  0  0  0  0  0  0
  150.8867  137.4181  153.4744 H   0  0  0  0  0  0  0  0  0  0  0  0
  149.4900  142.7080  158.2521 H   0  0  0  0  0  0  0  0  0  0  0  0
  1  2  1  0  0  0  0
  1 16  1  0  0  0  0
  1 17  1  0  0  0  0
  1 18  1  0  0  0  0
  2  3  1  0  0  0  0
  2  9  1  0  0  0  0
  2 19  1  0  0  0  0
  3  4  1  0  0  0  0
  3 20  1  0  0  0  0
  3 37  1  0  0  0  0
  4  5  1  0  0  0  0
  4 21  1  0  0  0  0
  4 22  1  0  0  0  0
  5  6  1  0  0  0  0
  5  7  1  0  0  0  0
  5  8  1  0  0  0  0
  6 23  1  0  0  0  0
  6 24  1  0  0  0  0
  6 25  1  0  0  0  0
  7 26  1  0  0  0  0
  7 27  1  0  0  0  0
  7 28  1  0  0  0  0
  8 29  1  0  0  0  0
  9 10  1  0  0  0  0
  9 11  1  0  0  0  0
  9 30  1  0  0  0  0
 10 31  1  0  0  0  0
 10 32  1  0  0  0  0
 10 33  1  0  0  0  0
 11 15  1  0  0  0  0
 11 12  1  0  0  0  0
 12 13  2  0  0  0  0
 12 34  1  0  0  0  0
 13 14  1  0  0  0  0
 13 35  1  0  0  0  0
 14 15  2  0  0  0  0
 14 36  1  0  0  0  0
M  CHG  1   3   1
M  END
> <s_m_source_file>
AV-unprocessed.smi

> <i_m_source_file_index>
3117

> <i_lp_mmshare_version>
43012

> <i_f3d_flags>
0

> <s_epik_input>
W0NIM11DKFtDSDNdKShbT0hdKVtDSDJdW05IXVtDQEBIXShbQ0gzXSlbQ0BIXShbQ0gzXSluMVtjSF1bY0hdW2NIXW4x

> <s_epik_cmdline>
J2VwaWtfcHl0aG9uJywgJy1waCcsICc3LjAnLCAnLXRuJywgJzgnLCAnLW1hJywgJzIwMCcsICctbWV0YWxfYmluZGluZycsICctaW1hZScsICc8aW5maWxlLm1hZT4nLCAnLW9tYWUnLCAnPG91dGZpbGUubWFlPic=

> <r_lp_tautomer_probability>
1

> <r_epik_Ionization_Penalty>
0.0164263

> <r_epik_Ionization_Penalty_Charging>
0.0164138

> <r_epik_Ionization_Penalty_Neutral>
1.24697e-05

> <r_epik_State_Penalty>
0.0129543

> <r_epik_Charging_Adjusted_Penalty>
0.0293681

> <i_epik_Tot_Q>
1

> <i_epik_Tot_abs_Q>
1

> <r_epik_Metal_State_Penalty>
0.0129806

> <b_epik_Metal_Only>
0

> <s_lp_Force_Field>
OPLS_2005

> <r_lp_Energy>
13.915

> <b_lp_Chiralities_Consistent>
1

> <s_lp_Variant>
AV-unprocessed.smi:3117-2

> <Gold.Version>
5.8.1

> <Gold.Id.Protein>
6NUR|6NUR_protein|mol2

> <Gold.PLP.Fitness>
41.8195

> <Gold.PLP.PLP>
-36.3868

> <Gold.PLP.part.hbond>
-1.8474

> <Gold.PLP.part.metal>
0.0000

> <Gold.PLP.part.buried>
-2.8582

> <Gold.PLP.part.nonpolar>
-31.7446

> <Gold.PLP.part.repulsive>
0.2155

> <Gold.PLP.ligand.clash>
0.0000

> <Gold.PLP.ligand.torsion>
1.9925

> <Gold.PLP.Chemscore.Hbond>
2.0000

> <Gold.PLP.Chemscore.CHOScore>
1.1063

> <Gold.PLP.Chemscore.Metal>
0.0000

> <Gold.Chemscore.Hbonds>
donor molecule, donor type, donor heavy atom, donor atom, acceptor molecule, acceptor atom, score
      L1  H     3    20       P1  8028  2.00
      L1  C    14    36       P1  7948  0.17
      L1  C    14    36       P1  7949  0.95

> <Gold.PLP.Chemscore.Internal.Correction>
0.0989

> <Gold.Rescore>
     Score         DG    S(hbond)    S(metal)    S(lipo)     H(rot)  DE(clash)    DE(int)     intcor
     11.67     -13.83       1.00        0.00      92.57       2.27       0.18       1.98       ----

> <Gold.Chemscore.Fitness>
11.6709

> <Gold.Chemscore.DG>
-13.8274

> <Gold.Chemscore.ZeroCoef>
-5.4800

> <Gold.Chemscore.Hbond>
0.9983

> <Gold.Chemscore.Metal>
0.0000

> <Gold.Chemscore.Lipo>
92.5700

> <Gold.Chemscore.Internal_Hbond>
0.0000

> <Gold.Chemscore.DEClash>
0.1778

> <Gold.Chemscore.DEInternal>
1.9787

> <Gold.Chemscore.Rot>
2.2725

> <Gold.Chemscore.Internal.Correction>
   9.000000E+99

> <Gold.Chemscore.Hbonds>
donor molecule, donor type, donor heavy atom, donor atom, acceptor molecule, acceptor atom, score
      L1  H     3    20       P1  8028  0.99

> <Gold.Chemscore.Hbond.Weighted>
-3.3343

> <Gold.Chemscore.Metal.Weighted>
-0.0000

> <Gold.Chemscore.Lipo.Weighted>
-10.8307

> <Gold.Chemscore.Internal_Hbond.Weighted>
0.0000

> <Gold.Chemscore.DEClash.Weighted>
0.1778

> <Gold.Chemscore.DEInternal.Weighted>
1.9787

> <Gold.Chemscore.Rot.Weighted>
5.8176

> <Gold.Chemscore.Internal.Correction.Weighted>
   9.000000E+99

> <Gold.Protein.RotatedTorsions>
[ 6907 6896 6895 6894 ] final   58.86 input  -60.11 | X-H torsion
[ 7974 7965 7964 7962 ] final   73.52 input  175.53 | X-H torsion
[ 8008 7997 7996 7995 ] final  166.92 input   59.86 | X-H torsion
[ 10167 10162 10161 10158 ] final   10.84 input  -65.29 | X-H torsion
[ 10718 10713 10712 10709 ] final -138.37 input   66.30 | X-H torsion
[ 10763 10752 10751 10750 ] final  -13.37 input  -60.55 | X-H torsion
[ 11005 11000 10999 10996 ] final -179.04 input  -57.11 | X-H torsion

> <Gold.Protein.ActiveResidues>
 VAL166  LYS551  ARG553  GLY616  TRP617  ASP618  TYR619  PRO620  LYS621  CYS622 
 ASP623  PHE694  ASN695  SER759  ASP760  ASP761  ALA762  ILE779  LEU786  VAL792 
 PHE793  MET794  SER795  GLU796  ALA797  LYS798  CYS799  TRP800  GLU811  SER814 

> <Gold.Protein.RotatedAtoms>
  152.3862  134.6513  160.0124 H   0  0  0  0  0  0  0  0  0  0  0  0  # atno 6907 bound_to 6896
  151.6761  133.3307  159.3216 H   0  0  0  0  0  0  0  0  0  0  0  0  # atno 6908 bound_to 6896
  150.7788  134.6757  159.6461 H   0  0  0  0  0  0  0  0  0  0  0  0  # atno 6909 bound_to 6896
  145.7399  139.2716  143.1492 H   0  0  0  0  0  0  0  0  0  0  0  0  # atno 7974 bound_to 7965
  156.1678  140.1630  156.8501 H   0  0  0  0  0  0  0  0  0  0  0  0  # atno 8008 bound_to 7997
  154.5225  140.0775  156.8233 H   0  0  0  0  0  0  0  0  0  0  0  0  # atno 8009 bound_to 7997
  155.3576  140.3393  155.4242 H   0  0  0  0  0  0  0  0  0  0  0  0  # atno 8010 bound_to 7997
  140.6169  143.8289  150.7129 H   0  0  0  0  0  0  0  0  0  0  0  0  # atno 10167 bound_to 10162
  156.2986  130.7416  151.1462 H   0  0  0  0  0  0  0  0  0  0  0  0  # atno 10718 bound_to 10713
  153.5123  135.7016  153.5774 H   0  0  0  0  0  0  0  0  0  0  0  0  # atno 10763 bound_to 10752
  153.3860  135.3908  155.1890 H   0  0  0  0  0  0  0  0  0  0  0  0  # atno 10764 bound_to 10752
  154.8702  135.3846  154.4604 H   0  0  0  0  0  0  0  0  0  0  0  0  # atno 10765 bound_to 10752
  140.4231  134.6587  157.4674 H   0  0  0  0  0  0  0  0  0  0  0  0  # atno 11005 bound_to 11000
  146.0458  140.8119  142.9806 LP  0  0  0  0  0  0  0  0  0  0  0  0  # atno 17320 bound_to 7965
  144.6873  140.2978  143.7268 LP  0  0  0  0  0  0  0  0  0  0  0  0  # atno 17321 bound_to 7965
  140.1870  143.4068  152.1891 LP  0  0  0  0  0  0  0  0  0  0  0  0  # atno 17342 bound_to 10162
  139.5406  144.7252  151.4747 LP  0  0  0  0  0  0  0  0  0  0  0  0  # atno 17343 bound_to 10162
  157.7362  131.0565  150.5427 LP  0  0  0  0  0  0  0  0  0  0  0  0  # atno 17370 bound_to 10713
  156.5552  130.4241  149.6089 LP  0  0  0  0  0  0  0  0  0  0  0  0  # atno 17371 bound_to 10713
  140.0186  134.6581  155.9273 LP  0  0  0  0  0  0  0  0  0  0  0  0  # atno 17394 bound_to 11000
  141.1776  133.6542  156.4890 LP  0  0  0  0  0  0  0  0  0  0  0  0  # atno 17395 bound_to 11000

$$$$
