AV-unprocessed.smi:2178|AV-procd|sdf|8853|dock6
  -GOLD-   2272012 43D 1   1.00000     0.00000
 Structure written by MMmdl.
 46 48  0  0  0  0  0  0  0  0  1 V2000
  147.4537  137.1221  155.8253 C   0  0  0  0  0  0  0  0  0  0  0  0
  147.3630  138.1387  154.7024 C   0  0  0  0  0  0  0  0  0  0  0  0
  146.6432  137.8238  153.5314 C   0  0  0  0  0  0  0  0  0  0  0  0
  146.5608  138.7542  152.4790 C   0  0  0  0  0  0  0  0  0  0  0  0
  147.2038  140.0008  152.5903 C   0  0  0  0  0  0  0  0  0  0  0  0
  147.9282  140.3260  153.7558 C   0  0  0  0  0  0  0  0  0  0  0  0
  148.6281  141.6692  153.8463 C   0  0  0  0  0  0  0  0  0  0  0  0
  147.9965  139.3979  154.8222 C   0  0  0  0  0  0  0  0  0  0  0  0
  148.6966  139.7005  155.9613 O   0  0  0  0  0  0  0  0  0  0  0  0
  148.1660  140.8038  156.6815 C   0  0  0  0  0  0  0  0  0  0  0  0
  149.0333  141.0483  157.9238 C   0  0  1  0  0  0  0  0  0  0  0  0
  149.2679  139.8089  158.5616 O   0  0  0  0  0  0  0  0  0  0  0  0
  150.3745  141.7252  157.5771 C   0  0  0  0  0  0  0  0  0  0  0  0
  151.5227  140.9597  158.0439 N   0  0  0  0  0  0  0  0  0  0  0  0
  152.0747  139.8456  157.4995 C   0  0  0  0  0  0  0  0  0  0  0  0
  151.5195  139.2260  156.2482 C   0  0  0  0  0  0  0  0  0  0  0  0
  151.3794  140.1307  155.1709 O   0  0  0  0  0  0  0  0  0  0  0  0
  153.1355  139.3544  158.1456 N   0  0  0  0  0  0  0  0  0  0  0  0
  153.2816  140.2278  159.2050 C   0  0  0  0  0  0  0  0  0  0  0  0
  154.2254  140.2477  160.2566 C   0  0  0  0  0  0  0  0  0  0  0  0
  154.1765  141.2569  161.2407 C   0  0  0  0  0  0  0  0  0  0  0  0
  153.1866  142.2596  161.1865 C   0  0  0  0  0  0  0  0  0  0  0  0
  152.2369  142.2581  160.1467 C   0  0  0  0  0  0  0  0  0  0  0  0
  152.2890  141.2469  159.1686 C   0  0  0  0  0  0  0  0  0  0  0  0
  147.0853  136.1463  155.5079 H   0  0  0  0  0  0  0  0  0  0  0  0
  146.8615  137.4468  156.6808 H   0  0  0  0  0  0  0  0  0  0  0  0
  148.4879  137.0008  156.1484 H   0  0  0  0  0  0  0  0  0  0  0  0
  146.1525  136.8663  153.4342 H   0  0  0  0  0  0  0  0  0  0  0  0
  146.0086  138.5093  151.5838 H   0  0  0  0  0  0  0  0  0  0  0  0
  147.1415  140.7064  151.7746 H   0  0  0  0  0  0  0  0  0  0  0  0
  149.5718  141.5843  154.3856 H   0  0  0  0  0  0  0  0  0  0  0  0
  147.9964  142.3902  154.3653 H   0  0  0  0  0  0  0  0  0  0  0  0
  148.8478  142.0621  152.8532 H   0  0  0  0  0  0  0  0  0  0  0  0
  148.1751  141.6856  156.0395 H   0  0  0  0  0  0  0  0  0  0  0  0
  147.1284  140.6270  156.9706 H   0  0  0  0  0  0  0  0  0  0  0  0
  148.4775  141.6738  158.6233 H   0  0  0  0  0  0  0  0  0  0  0  0
  150.1988  139.7084  158.6898 H   0  0  0  0  0  0  0  0  0  0  0  0
  150.4532  141.8951  156.5035 H   0  0  0  0  0  0  0  0  0  0  0  0
  150.4236  142.7109  158.0407 H   0  0  0  0  0  0  0  0  0  0  0  0
  152.1704  138.4130  155.9273 H   0  0  0  0  0  0  0  0  0  0  0  0
  150.5424  138.7957  156.4697 H   0  0  0  0  0  0  0  0  0  0  0  0
  150.6133  140.6621  155.3228 H   0  0  0  0  0  0  0  0  0  0  0  0
  154.9880  139.4846  160.3064 H   0  0  0  0  0  0  0  0  0  0  0  0
  154.9022  141.2615  162.0409 H   0  0  0  0  0  0  0  0  0  0  0  0
  153.1564  143.0294  161.9437 H   0  0  0  0  0  0  0  0  0  0  0  0
  151.4768  143.0239  160.1020 H   0  0  0  0  0  0  0  0  0  0  0  0
  1  2  1  0  0  0  0
  1 25  1  0  0  0  0
  1 26  1  0  0  0  0
  1 27  1  0  0  0  0
  2  8  1  0  0  0  0
  2  3  2  0  0  0  0
  3  4  1  0  0  0  0
  3 28  1  0  0  0  0
  4  5  2  0  0  0  0
  4 29  1  0  0  0  0
  5  6  1  0  0  0  0
  5 30  1  0  0  0  0
  6  7  1  0  0  0  0
  6  8  2  0  0  0  0
  7 31  1  0  0  0  0
  7 32  1  0  0  0  0
  7 33  1  0  0  0  0
  8  9  1  0  0  0  0
  9 10  1  0  0  0  0
 10 11  1  0  0  0  0
 10 34  1  0  0  0  0
 10 35  1  0  0  0  0
 11 12  1  0  0  0  0
 11 13  1  0  0  0  0
 11 36  1  0  0  0  0
 12 37  1  0  0  0  0
 13 14  1  0  0  0  0
 13 38  1  0  0  0  0
 13 39  1  0  0  0  0
 14 24  1  0  0  0  0
 14 15  1  0  0  0  0
 15 16  1  0  0  0  0
 15 18  2  0  0  0  0
 16 17  1  0  0  0  0
 16 40  1  0  0  0  0
 16 41  1  0  0  0  0
 17 42  1  0  0  0  0
 18 19  1  0  0  0  0
 19 24  2  0  0  0  0
 19 20  1  0  0  0  0
 20 21  2  0  0  0  0
 20 43  1  0  0  0  0
 21 22  1  0  0  0  0
 21 44  1  0  0  0  0
 22 23  2  0  0  0  0
 22 45  1  0  0  0  0
 23 24  1  0  0  0  0
 23 46  1  0  0  0  0
M  END
> <s_m_source_file>
AV-unprocessed.smi

> <i_m_source_file_index>
2178

> <i_lp_mmshare_version>
43012

> <i_f3d_flags>
0

> <s_epik_input>
W0NIM11jMVtjSF1bY0hdW2NIXWMoW0NIM10pYzFPW0NIMl1bQ0BIXShbT0hdKVtDSDJdbihjKG4yKVtDSDJdW09IXSljKGMyMylbY0hdW2NIXVtjSF1bY0hdMw==

> <s_epik_cmdline>
J2VwaWtfcHl0aG9uJywgJy1waCcsICc3LjAnLCAnLXRuJywgJzgnLCAnLW1hJywgJzIwMCcsICctbWV0YWxfYmluZGluZycsICctaW1hZScsICc8aW5maWxlLm1hZT4nLCAnLW9tYWUnLCAnPG91dGZpbGUubWFlPic=

> <r_lp_tautomer_probability>
1

> <r_epik_Ionization_Penalty>
0.0555874

> <r_epik_Ionization_Penalty_Charging>
0

> <r_epik_Ionization_Penalty_Neutral>
0.0555874

> <r_epik_State_Penalty>
0.0478234

> <r_epik_Charging_Adjusted_Penalty>
0.0478234

> <i_epik_Tot_Q>
0

> <i_epik_Tot_abs_Q>
0

> <r_epik_Metal_State_Penalty>
4.98044e-05

> <b_epik_Metal_Only>
0

> <s_lp_Force_Field>
OPLS_2005

> <r_lp_Energy>
18.9383

> <b_lp_Chiralities_Consistent>
1

> <s_lp_Variant>
AV-unprocessed.smi:2178-2

> <Gold.Version>
5.8.1

> <Gold.Id.Protein>
6NUR|6NUR_protein|mol2

> <Gold.PLP.Fitness>
40.4293

> <Gold.PLP.PLP>
-36.5415

> <Gold.PLP.part.hbond>
-2.8233

> <Gold.PLP.part.metal>
0.0000

> <Gold.PLP.part.buried>
2.0231

> <Gold.PLP.part.nonpolar>
-35.0992

> <Gold.PLP.part.repulsive>
0.0016

> <Gold.PLP.ligand.clash>
0.0000

> <Gold.PLP.ligand.torsion>
1.1436

> <Gold.PLP.Chemscore.Hbond>
2.0000

> <Gold.PLP.Chemscore.CHOScore>
0.0000

> <Gold.PLP.Chemscore.Metal>
0.0000

> <Gold.Chemscore.Hbonds>
donor molecule, donor type, donor heavy atom, donor atom, acceptor molecule, acceptor atom, score
      P1  H  7989  7998       L1    17  0.60
      P1  H  7997  8009       L1    18  0.90

> <Gold.PLP.Chemscore.Internal.Correction>
0.1750

> <Gold.Rescore>
     Score         DG    S(hbond)    S(metal)    S(lipo)     H(rot)  DE(clash)    DE(int)     intcor
      9.76     -15.33       1.53        0.00     105.11       2.96       0.54       5.03       ----

> <Gold.Chemscore.Fitness>
9.7576

> <Gold.Chemscore.DG>
-15.3283

> <Gold.Chemscore.ZeroCoef>
-5.4800

> <Gold.Chemscore.Hbond>
1.5322

> <Gold.Chemscore.Metal>
0.0000

> <Gold.Chemscore.Lipo>
105.1139

> <Gold.Chemscore.Internal_Hbond>
0.0000

> <Gold.Chemscore.DEClash>
0.5387

> <Gold.Chemscore.DEInternal>
5.0320

> <Gold.Chemscore.Rot>
2.9561

> <Gold.Chemscore.Internal.Correction>
   9.000000E+99

> <Gold.Chemscore.Hbonds>
donor molecule, donor type, donor heavy atom, donor atom, acceptor molecule, acceptor atom, score
      P1  H  7989  7998       L1    17  0.04
      P1  H  7997  8009       L1    18  0.05

> <Gold.Chemscore.Hbond.Weighted>
-5.1176

> <Gold.Chemscore.Metal.Weighted>
-0.0000

> <Gold.Chemscore.Lipo.Weighted>
-12.2983

> <Gold.Chemscore.Internal_Hbond.Weighted>
0.0000

> <Gold.Chemscore.DEClash.Weighted>
0.5387

> <Gold.Chemscore.DEInternal.Weighted>
5.0320

> <Gold.Chemscore.Rot.Weighted>
7.5677

> <Gold.Chemscore.Internal.Correction.Weighted>
   9.000000E+99

> <Gold.Protein.RotatedTorsions>
[ 6907 6896 6895 6894 ] final    5.70 input  -60.11 | X-H torsion
[ 7974 7965 7964 7962 ] final   84.16 input  175.53 | X-H torsion
[ 8008 7997 7996 7995 ] final  154.34 input   59.86 | X-H torsion
[ 10167 10162 10161 10158 ] final   92.04 input  -65.29 | X-H torsion
[ 10718 10713 10712 10709 ] final  -98.94 input   66.30 | X-H torsion
[ 10763 10752 10751 10750 ] final  133.15 input  -60.55 | X-H torsion
[ 11005 11000 10999 10996 ] final   25.84 input  -57.11 | X-H torsion

> <Gold.Protein.ActiveResidues>
 VAL166  LYS551  ARG553  GLY616  TRP617  ASP618  TYR619  PRO620  LYS621  CYS622 
 ASP623  PHE694  ASN695  SER759  ASP760  ASP761  ALA762  ILE779  LEU786  VAL792 
 PHE793  MET794  SER795  GLU796  ALA797  LYS798  CYS799  TRP800  GLU811  SER814 

> <Gold.Protein.RotatedAtoms>
  151.6618  135.0988  160.0180 H   0  0  0  0  0  0  0  0  0  0  0  0  # atno 6907 bound_to 6896
  152.3942  133.6719  159.6271 H   0  0  0  0  0  0  0  0  0  0  0  0  # atno 6908 bound_to 6896
  150.7852  133.8818  159.3329 H   0  0  0  0  0  0  0  0  0  0  0  0  # atno 6909 bound_to 6896
  145.6024  139.2354  143.2238 H   0  0  0  0  0  0  0  0  0  0  0  0  # atno 7974 bound_to 7965
  156.2536  140.1969  156.6630 H   0  0  0  0  0  0  0  0  0  0  0  0  # atno 8008 bound_to 7997
  154.6450  140.0579  156.9915 H   0  0  0  0  0  0  0  0  0  0  0  0  # atno 8009 bound_to 7997
  155.1505  140.3251  155.4435 H   0  0  0  0  0  0  0  0  0  0  0  0  # atno 8010 bound_to 7997
  139.8316  144.6684  150.9393 H   0  0  0  0  0  0  0  0  0  0  0  0  # atno 10167 bound_to 10162
  156.0121  130.5260  150.6597 H   0  0  0  0  0  0  0  0  0  0  0  0  # atno 10718 bound_to 10713
  153.8024  135.3140  155.3391 H   0  0  0  0  0  0  0  0  0  0  0  0  # atno 10763 bound_to 10752
  154.8084  135.4683  154.0454 H   0  0  0  0  0  0  0  0  0  0  0  0  # atno 10764 bound_to 10752
  153.1806  135.6893  153.8571 H   0  0  0  0  0  0  0  0  0  0  0  0  # atno 10765 bound_to 10752
  140.3435  134.2307  155.7687 H   0  0  0  0  0  0  0  0  0  0  0  0  # atno 11005 bound_to 11000
  146.1566  140.6849  142.9297 LP  0  0  0  0  0  0  0  0  0  0  0  0  # atno 17320 bound_to 7965
  144.7304  140.4654  143.6942 LP  0  0  0  0  0  0  0  0  0  0  0  0  # atno 17321 bound_to 7965
  140.7806  143.3996  151.1171 LP  0  0  0  0  0  0  0  0  0  0  0  0  # atno 17342 bound_to 10162
  139.7649  143.8580  152.3108 LP  0  0  0  0  0  0  0  0  0  0  0  0  # atno 17343 bound_to 10162
  157.4342  131.0853  151.1008 LP  0  0  0  0  0  0  0  0  0  0  0  0  # atno 17370 bound_to 10713
  157.1572  130.6210  149.5600 LP  0  0  0  0  0  0  0  0  0  0  0  0  # atno 17371 bound_to 10713
  141.2032  133.7918  157.0352 LP  0  0  0  0  0  0  0  0  0  0  0  0  # atno 17394 bound_to 11000
  140.0762  134.9674  157.1549 LP  0  0  0  0  0  0  0  0  0  0  0  0  # atno 17395 bound_to 11000

$$$$
