AV-unprocessed.smi:103|AV-procd|sdf|987|dock9
  -GOLD-   2262017563D 1   1.00000     0.00000
 Structure written by MMmdl.
 53 55  0  0  0  0  0  0  0  0  1 V2000
  154.4959  140.6450  160.3404 C   0  0  0  0  0  0  0  0  0  0  0  0
  153.6790  139.8538  159.3273 C   0  0  0  0  0  0  0  0  0  0  0  0
  153.1417  140.4027  158.3652 O   0  0  0  0  0  0  0  0  0  0  0  0
  153.6326  138.5444  159.6164 O   0  0  0  0  0  0  0  0  0  0  0  0
  152.8618  137.6762  158.8023 C   0  0  0  0  0  0  0  0  0  0  0  0
  151.3691  137.9825  158.9910 C   0  0  2  0  0  0  0  0  0  0  0  0
  150.6569  136.8244  159.3997 O   0  0  0  0  0  0  0  0  0  0  0  0
  149.3053  137.0549  159.1737 C   0  0  2  0  0  0  0  0  0  0  0  0
  148.6291  135.7362  158.9836 N   0  0  0  0  0  0  0  0  0  0  0  0
  147.6366  135.1304  159.7275 C   0  0  0  0  0  0  0  0  0  0  0  0
  146.8739  135.7773  161.2107 S   0  0  0  0  0  0  0  0  0  0  0  0
  147.4511  134.5854  162.4859 C   0  0  0  0  0  0  0  0  0  0  0  0
  147.4767  137.0938  161.4680 O   0  0  0  0  0  0  0  0  0  0  0  0
  145.4186  135.6420  161.0411 O   0  0  0  0  0  0  0  0  0  0  0  0
  147.2819  133.9286  159.3604 N   0  0  0  0  0  0  0  0  0  0  0  0
  148.0499  133.7065  158.2258 C   0  0  0  0  0  0  0  0  0  0  0  0
  148.1648  132.6333  157.3068 C   0  0  0  0  0  0  0  0  0  0  0  0
  147.4470  131.5059  157.4055 N   0  0  0  0  0  0  0  0  0  0  0  0
  149.0392  132.7514  156.2803 N   0  0  0  0  0  0  0  0  0  0  0  0
  149.7680  133.8659  156.1598 C   0  0  0  0  0  0  0  0  0  0  0  0
  149.7731  134.9494  156.9409 N   0  0  0  0  0  0  0  0  0  0  0  0
  148.8894  134.8296  157.9755 C   0  0  0  0  0  0  0  0  0  0  0  0
  149.2146  137.8994  157.8928 C   0  0  1  0  0  0  0  0  0  0  0  0
  148.1655  138.8715  157.9237 O   0  0  0  0  0  0  0  0  0  0  0  0
  146.8517  138.5546  157.8939 C   0  0  0  0  0  0  0  0  0  0  0  0
  145.9677  139.7866  157.7580 C   0  0  0  0  0  0  0  0  0  0  0  0
  146.3683  137.4247  157.9548 O   0  0  0  0  0  0  0  0  0  0  0  0
  150.6339  138.4542  157.7245 C   0  0  2  0  0  0  0  0  0  0  0  0
  151.2249  137.9098  156.5489 O   0  0  0  0  0  0  0  0  0  0  0  0
  151.1693  138.5830  155.3869 C   0  0  0  0  0  0  0  0  0  0  0  0
  151.1489  137.6544  154.1807 C   0  0  0  0  0  0  0  0  0  0  0  0
  151.1329  139.8068  155.2587 O   0  0  0  0  0  0  0  0  0  0  0  0
  154.2448  140.3387  161.3558 H   0  0  0  0  0  0  0  0  0  0  0  0
  154.2960  141.7124  160.2432 H   0  0  0  0  0  0  0  0  0  0  0  0
  155.5608  140.4762  160.1797 H   0  0  0  0  0  0  0  0  0  0  0  0
  153.1396  137.8351  157.7592 H   0  0  0  0  0  0  0  0  0  0  0  0
  153.0747  136.6341  159.0454 H   0  0  0  0  0  0  0  0  0  0  0  0
  151.2491  138.7435  159.7636 H   0  0  0  0  0  0  0  0  0  0  0  0
  148.8667  137.5065  160.0608 H   0  0  0  0  0  0  0  0  0  0  0  0
  147.0488  134.8718  163.4572 H   0  0  0  0  0  0  0  0  0  0  0  0
  148.5397  134.5905  162.5277 H   0  0  0  0  0  0  0  0  0  0  0  0
  147.1029  133.5848  162.2301 H   0  0  0  0  0  0  0  0  0  0  0  0
  146.7871  131.3934  158.1619 H   0  0  0  0  0  0  0  0  0  0  0  0
  147.5654  130.7714  156.7227 H   0  0  0  0  0  0  0  0  0  0  0  0
  150.4454  133.8931  155.3193 H   0  0  0  0  0  0  0  0  0  0  0  0
  148.9989  137.2291  157.0601 H   0  0  0  0  0  0  0  0  0  0  0  0
  146.1967  140.5073  158.5432 H   0  0  0  0  0  0  0  0  0  0  0  0
  144.9150  139.5137  157.8353 H   0  0  0  0  0  0  0  0  0  0  0  0
  146.1313  140.2621  156.7909 H   0  0  0  0  0  0  0  0  0  0  0  0
  150.6565  139.5439  157.6750 H   0  0  0  0  0  0  0  0  0  0  0  0
  152.0299  137.0126  154.1818 H   0  0  0  0  0  0  0  0  0  0  0  0
  151.1413  138.2297  153.2548 H   0  0  0  0  0  0  0  0  0  0  0  0
  150.2595  137.0242  154.2036 H   0  0  0  0  0  0  0  0  0  0  0  0
  1  2  1  0  0  0  0
  1 33  1  0  0  0  0
  1 34  1  0  0  0  0
  1 35  1  0  0  0  0
  2  3  2  0  0  0  0
  2  4  1  0  0  0  0
  4  5  1  0  0  0  0
  5  6  1  0  0  0  0
  5 36  1  0  0  0  0
  5 37  1  0  0  0  0
  6 28  1  0  0  0  0
  6  7  1  0  0  0  0
  6 38  1  0  0  0  0
  7  8  1  0  0  0  0
  8  9  1  0  0  0  0
  8 23  1  0  0  0  0
  8 39  1  0  0  0  0
  9 22  1  0  0  0  0
  9 10  1  0  0  0  0
 10 11  1  0  0  0  0
 10 15  2  0  0  0  0
 11 12  1  0  0  0  0
 11 13  2  0  0  0  0
 11 14  2  0  0  0  0
 12 40  1  0  0  0  0
 12 41  1  0  0  0  0
 12 42  1  0  0  0  0
 15 16  1  0  0  0  0
 16 22  2  0  0  0  0
 16 17  1  0  0  0  0
 17 18  1  0  0  0  0
 17 19  2  0  0  0  0
 18 43  1  0  0  0  0
 18 44  1  0  0  0  0
 19 20  1  0  0  0  0
 20 21  2  0  0  0  0
 20 45  1  0  0  0  0
 21 22  1  0  0  0  0
 23 24  1  0  0  0  0
 23 28  1  0  0  0  0
 23 46  1  0  0  0  0
 24 25  1  0  0  0  0
 25 26  1  0  0  0  0
 25 27  2  0  0  0  0
 26 47  1  0  0  0  0
 26 48  1  0  0  0  0
 26 49  1  0  0  0  0
 28 29  1  0  0  0  0
 28 50  1  0  0  0  0
 29 30  1  0  0  0  0
 30 31  1  0  0  0  0
 30 32  2  0  0  0  0
 31 51  1  0  0  0  0
 31 52  1  0  0  0  0
 31 53  1  0  0  0  0
M  END
> <s_m_source_file>
AV-unprocessed.smi

> <i_m_source_file_index>
103

> <i_lp_mmshare_version>
43012

> <i_f3d_flags>
0

> <s_epik_input>
W0NIM11DKD1PKU9bQ0gyXVtDQEBIXTFPW0NASF0oW0NAQEhdKE9DKD1PKVtDSDNdKVtDQEhdMU9DKD1PKVtDSDNdKW4oYyhuMilTKD1PKSg9TylbQ0gzXSljKGMyMyluW2NIXW5jM1tOSDJd

> <s_epik_cmdline>
J2VwaWtfcHl0aG9uJywgJy1waCcsICc3LjAnLCAnLXRuJywgJzgnLCAnLW1hJywgJzIwMCcsICctbWV0YWxfYmluZGluZycsICctaW1hZScsICc8aW5maWxlLm1hZT4nLCAnLW9tYWUnLCAnPG91dGZpbGUubWFlPic=

> <r_lp_tautomer_probability>
1

> <r_epik_Ionization_Penalty>
1.51338e-05

> <r_epik_Ionization_Penalty_Charging>
0

> <r_epik_Ionization_Penalty_Neutral>
1.51338e-05

> <r_epik_State_Penalty>
-0

> <r_epik_Charging_Adjusted_Penalty>
0

> <i_epik_Tot_Q>
0

> <i_epik_Tot_abs_Q>
0

> <r_epik_Metal_State_Penalty>
-0

> <b_epik_Metal_Only>
0

> <s_epik_Chemistry_Notes>
This compound has an ester and may undergo hydrolysis at high or low pH. This compound contains an acetal/aminal-like group ( X-CH(R)-Y where X, Y are N, S, or O) that may be acid/base labile, releasing an aldehyde.

> <s_lp_Force_Field>
OPLS_2005

> <r_lp_Energy>
18.7655

> <b_lp_Chiralities_Consistent>
1

> <s_lp_Variant>
AV-unprocessed.smi:103-11

> <Gold.Version>
5.8.1

> <Gold.Id.Protein>
6NUR|6NUR_protein|mol2

> <Gold.PLP.Fitness>
44.1222

> <Gold.PLP.PLP>
-34.1539

> <Gold.PLP.part.hbond>
-4.8868

> <Gold.PLP.part.metal>
0.0000

> <Gold.PLP.part.buried>
-4.4767

> <Gold.PLP.part.nonpolar>
-24.7637

> <Gold.PLP.part.repulsive>
0.0212

> <Gold.PLP.ligand.clash>
0.0000

> <Gold.PLP.ligand.torsion>
2.7438

> <Gold.PLP.Chemscore.Hbond>
4.4363

> <Gold.PLP.Chemscore.CHOScore>
0.0000

> <Gold.PLP.Chemscore.Metal>
0.0000

> <Gold.Chemscore.Hbonds>
donor molecule, donor type, donor heavy atom, donor atom, acceptor molecule, acceptor atom, score
      P1  H  6896  6907       L1     7  1.00
      P1  H  6931  6943       L1    13  0.98
      P1  H  6934  6947       L1    13  0.90
      P1  H  7989  7998       L1    32  0.80
      P1  H  7997  8009       L1     3  0.64

> <Gold.PLP.Chemscore.Internal.Correction>
2.1471

> <Gold.Rescore>
     Score         DG    S(hbond)    S(metal)    S(lipo)     H(rot)  DE(clash)    DE(int)     intcor
      8.94     -14.15       4.39        0.00      41.64       4.25       0.38       4.83       ----

> <Gold.Chemscore.Fitness>
8.9417

> <Gold.Chemscore.DG>
-14.1500

> <Gold.Chemscore.ZeroCoef>
-5.4800

> <Gold.Chemscore.Hbond>
4.3911

> <Gold.Chemscore.Metal>
0.0000

> <Gold.Chemscore.Lipo>
41.6437

> <Gold.Chemscore.Internal_Hbond>
0.0000

> <Gold.Chemscore.DEClash>
0.3773

> <Gold.Chemscore.DEInternal>
4.8309

> <Gold.Chemscore.Rot>
4.2456

> <Gold.Chemscore.Internal.Correction>
   9.000000E+99

> <Gold.Chemscore.Hbonds>
donor molecule, donor type, donor heavy atom, donor atom, acceptor molecule, acceptor atom, score
      P1  H  6896  6907       L1     7  0.78
      P1  H  6931  6943       L1    13  0.91
      P1  H  6934  6947       L1    13  0.83
      P1  H  7989  7998       L1    32  0.78
      P1  H  7997  8009       L1     3  0.07

> <Gold.Chemscore.Hbond.Weighted>
-14.6663

> <Gold.Chemscore.Metal.Weighted>
-0.0000

> <Gold.Chemscore.Lipo.Weighted>
-4.8723

> <Gold.Chemscore.Internal_Hbond.Weighted>
0.0000

> <Gold.Chemscore.DEClash.Weighted>
0.3773

> <Gold.Chemscore.DEInternal.Weighted>
4.8309

> <Gold.Chemscore.Rot.Weighted>
10.8687

> <Gold.Chemscore.Internal.Correction.Weighted>
   9.000000E+99

> <Gold.Protein.RotatedTorsions>
[ 6907 6896 6895 6894 ] final  -38.29 input  -60.11 | X-H torsion
[ 7974 7965 7964 7962 ] final   20.97 input  175.53 | X-H torsion
[ 8008 7997 7996 7995 ] final  149.88 input   59.86 | X-H torsion
[ 10167 10162 10161 10158 ] final    5.24 input  -65.29 | X-H torsion
[ 10718 10713 10712 10709 ] final  -19.99 input   66.30 | X-H torsion
[ 10763 10752 10751 10750 ] final  135.12 input  -60.55 | X-H torsion
[ 11005 11000 10999 10996 ] final   58.27 input  -57.11 | X-H torsion

> <Gold.Protein.ActiveResidues>
 VAL166  LYS551  ARG553  GLY616  TRP617  ASP618  TYR619  PRO620  LYS621  CYS622 
 ASP623  PHE694  ASN695  SER759  ASP760  ASP761  ALA762  ILE779  LEU786  VAL792 
 PHE793  MET794  SER795  GLU796  ALA797  LYS798  CYS799  TRP800  GLU811  SER814 

> <Gold.Protein.RotatedAtoms>
  151.0042  134.9346  159.7970 H   0  0  0  0  0  0  0  0  0  0  0  0  # atno 6907 bound_to 6896
  152.5286  134.3113  159.9124 H   0  0  0  0  0  0  0  0  0  0  0  0  # atno 6908 bound_to 6896
  151.3119  133.4035  159.2682 H   0  0  0  0  0  0  0  0  0  0  0  0  # atno 6909 bound_to 6896
  146.2090  139.8093  142.8703 H   0  0  0  0  0  0  0  0  0  0  0  0  # atno 7974 bound_to 7965
  156.2738  140.2090  156.5928 H   0  0  0  0  0  0  0  0  0  0  0  0  # atno 8008 bound_to 7997
  154.6968  140.0525  157.0442 H   0  0  0  0  0  0  0  0  0  0  0  0  # atno 8009 bound_to 7997
  155.0789  140.3184  155.4610 H   0  0  0  0  0  0  0  0  0  0  0  0  # atno 8010 bound_to 7997
  140.6493  143.7585  150.7548 H   0  0  0  0  0  0  0  0  0  0  0  0  # atno 10167 bound_to 10162
  156.5381  130.4671  149.6513 H   0  0  0  0  0  0  0  0  0  0  0  0  # atno 10718 bound_to 10713
  153.8348  135.3099  155.3421 H   0  0  0  0  0  0  0  0  0  0  0  0  # atno 10763 bound_to 10752
  154.7958  135.4756  154.0160 H   0  0  0  0  0  0  0  0  0  0  0  0  # atno 10764 bound_to 10752
  153.1612  135.6861  153.8831 H   0  0  0  0  0  0  0  0  0  0  0  0  # atno 10765 bound_to 10752
  140.0390  134.5901  155.9406 H   0  0  0  0  0  0  0  0  0  0  0  0  # atno 11005 bound_to 11000
  145.3212  141.0244  143.3499 LP  0  0  0  0  0  0  0  0  0  0  0  0  # atno 17320 bound_to 7965
  144.8865  139.4832  143.6698 LP  0  0  0  0  0  0  0  0  0  0  0  0  # atno 17321 bound_to 7965
  140.1233  143.4592  152.2300 LP  0  0  0  0  0  0  0  0  0  0  0  0  # atno 17342 bound_to 10162
  139.5706  144.7460  151.3901 LP  0  0  0  0  0  0  0  0  0  0  0  0  # atno 17343 bound_to 10162
  156.2997  130.7170  151.2039 LP  0  0  0  0  0  0  0  0  0  0  0  0  # atno 17370 bound_to 10713
  157.7410  131.0509  150.5126 LP  0  0  0  0  0  0  0  0  0  0  0  0  # atno 17371 bound_to 10713
  141.1873  133.6559  156.5275 LP  0  0  0  0  0  0  0  0  0  0  0  0  # atno 17394 bound_to 11000
  140.4100  134.7281  157.4830 LP  0  0  0  0  0  0  0  0  0  0  0  0  # atno 17395 bound_to 11000

$$$$
