AV-unprocessed.smi:912|AV-procd|sdf|4140|dock3
  -GOLD-   22720 2 43D 1   1.00000     0.00000
 Structure written by MMmdl.
 26 26  0  0  0  0  0  0  0  0  1 V2000
  146.6734  138.7524  152.4261 C   0  0  0  0  0  0  0  0  0  0  0  0
  148.0162  138.8236  152.9985 N   0  0  0  0  0  0  0  0  0  0  0  0
  148.1846  139.5226  154.2868 C   0  0  1  0  0  0  0  0  0  0  0  0
  147.7133  140.9774  154.0264 C   0  0  0  0  0  0  0  0  0  0  0  0
  147.3586  138.8614  155.4249 C   0  0  0  0  0  0  0  0  0  0  0  0
  147.6601  137.5996  155.7517 N   0  0  0  0  0  0  0  0  0  0  0  0
  146.4583  139.4727  155.9991 O   0  0  0  0  0  0  0  0  0  0  0  0
  149.6616  139.5367  154.7332 C   0  0  0  0  0  0  0  0  0  0  0  0
  150.6485  138.7261  154.1175 C   0  0  0  0  0  0  0  0  0  0  0  0
  151.9766  138.7893  154.5838 C   0  0  0  0  0  0  0  0  0  0  0  0
  152.3713  139.5841  155.5995 N   0  0  0  0  0  0  0  0  0  0  0  0
  151.4354  140.3528  156.1925 C   0  0  0  0  0  0  0  0  0  0  0  0
  150.0820  140.3649  155.8024 C   0  0  0  0  0  0  0  0  0  0  0  0
  146.7380  138.3279  151.4245 H   0  0  0  0  0  0  0  0  0  0  0  0
  146.2140  139.7364  152.3360 H   0  0  0  0  0  0  0  0  0  0  0  0
  146.0116  138.1065  153.0030 H   0  0  0  0  0  0  0  0  0  0  0  0
  148.5843  139.3149  152.3234 H   0  0  0  0  0  0  0  0  0  0  0  0
  147.7760  141.5999  154.9191 H   0  0  0  0  0  0  0  0  0  0  0  0
  146.6777  141.0263  153.6895 H   0  0  0  0  0  0  0  0  0  0  0  0
  148.3252  141.4560  153.2609 H   0  0  0  0  0  0  0  0  0  0  0  0
  147.1466  137.1372  156.4880 H   0  0  0  0  0  0  0  0  0  0  0  0
  148.4000  137.1168  155.2631 H   0  0  0  0  0  0  0  0  0  0  0  0
  150.4146  138.0575  153.3028 H   0  0  0  0  0  0  0  0  0  0  0  0
  152.7434  138.1807  154.1280 H   0  0  0  0  0  0  0  0  0  0  0  0
  151.7741  140.9766  157.0064 H   0  0  0  0  0  0  0  0  0  0  0  0
  149.3825  140.9979  156.3279 H   0  0  0  0  0  0  0  0  0  0  0  0
  1  2  1  0  0  0  0
  1 14  1  0  0  0  0
  1 15  1  0  0  0  0
  1 16  1  0  0  0  0
  2  3  1  0  0  0  0
  2 17  1  0  0  0  0
  3  4  1  0  0  0  0
  3  5  1  0  0  0  0
  3  8  1  0  0  0  0
  4 18  1  0  0  0  0
  4 19  1  0  0  0  0
  4 20  1  0  0  0  0
  5  6  1  0  0  0  0
  5  7  2  0  0  0  0
  6 21  1  0  0  0  0
  6 22  1  0  0  0  0
  8 13  1  0  0  0  0
  8  9  2  0  0  0  0
  9 10  1  0  0  0  0
  9 23  1  0  0  0  0
 10 11  2  0  0  0  0
 10 24  1  0  0  0  0
 11 12  1  0  0  0  0
 12 13  2  0  0  0  0
 12 25  1  0  0  0  0
 13 26  1  0  0  0  0
M  END
> <s_m_source_file>
AV-unprocessed.smi

> <i_m_source_file_index>
912

> <i_lp_mmshare_version>
43012

> <i_f3d_flags>
0

> <s_epik_input>
W0NIM11bTkhdW0NAQF0oW0NIM10pKEMoPU8pW05IMl0pYzFbY0hdW2NIXW5bY0hdW2NIXTE=

> <s_epik_cmdline>
J2VwaWtfcHl0aG9uJywgJy1waCcsICc3LjAnLCAnLXRuJywgJzgnLCAnLW1hJywgJzIwMCcsICctbWV0YWxfYmluZGluZycsICctaW1hZScsICc8aW5maWxlLm1hZT4nLCAnLW9tYWUnLCAnPG91dGZpbGUubWFlPic=

> <r_epik_Ionization_Penalty>
0.458428

> <r_epik_Ionization_Penalty_Charging>
0

> <r_epik_Ionization_Penalty_Neutral>
0.458428

> <r_epik_State_Penalty>
0.443707

> <r_epik_Charging_Adjusted_Penalty>
0.443707

> <i_epik_Tot_Q>
0

> <i_epik_Tot_abs_Q>
0

> <r_epik_Metal_State_Penalty>
0.312856

> <b_epik_Metal_Only>
0

> <s_lp_Force_Field>
OPLS_2005

> <r_lp_Energy>
10.7043

> <b_lp_Chiralities_Consistent>
1

> <s_lp_Variant>
AV-unprocessed.smi:912-1

> <Gold.Version>
5.8.1

> <Gold.Id.Protein>
6NUR|6NUR_protein|mol2

> <Gold.PLP.Fitness>
31.7470

> <Gold.PLP.PLP>
-26.2941

> <Gold.PLP.part.hbond>
-2.9790

> <Gold.PLP.part.metal>
0.0000

> <Gold.PLP.part.buried>
-2.7964

> <Gold.PLP.part.nonpolar>
-20.3118

> <Gold.PLP.part.repulsive>
0.0273

> <Gold.PLP.ligand.clash>
0.0000

> <Gold.PLP.ligand.torsion>
0.2909

> <Gold.PLP.Chemscore.Hbond>
2.0000

> <Gold.PLP.Chemscore.CHOScore>
0.0000

> <Gold.PLP.Chemscore.Metal>
0.0000

> <Gold.Chemscore.Hbonds>
donor molecule, donor type, donor heavy atom, donor atom, acceptor molecule, acceptor atom, score
      L1  H     2    17       P1  7957  1.00
      P1  H  7997  8010       L1    11  0.73

> <Gold.PLP.Chemscore.Internal.Correction>
0.0346

> <Gold.Rescore>
     Score         DG    S(hbond)    S(metal)    S(lipo)     H(rot)  DE(clash)    DE(int)     intcor
     14.04     -14.30       1.96        0.00      58.15       1.77       0.02       0.24       ----

> <Gold.Chemscore.Fitness>
14.0437

> <Gold.Chemscore.DG>
-14.3028

> <Gold.Chemscore.ZeroCoef>
-5.4800

> <Gold.Chemscore.Hbond>
1.9622

> <Gold.Chemscore.Metal>
0.0000

> <Gold.Chemscore.Lipo>
58.1476

> <Gold.Chemscore.Internal_Hbond>
0.0000

> <Gold.Chemscore.DEClash>
0.0230

> <Gold.Chemscore.DEInternal>
0.2361

> <Gold.Chemscore.Rot>
1.7712

> <Gold.Chemscore.Internal.Correction>
   9.000000E+99

> <Gold.Chemscore.Hbonds>
donor molecule, donor type, donor heavy atom, donor atom, acceptor molecule, acceptor atom, score
      L1  H     2    17       P1  7957  1.00
      P1  H  7997  8010       L1    11  0.60

> <Gold.Chemscore.Hbond.Weighted>
-6.5539

> <Gold.Chemscore.Metal.Weighted>
-0.0000

> <Gold.Chemscore.Lipo.Weighted>
-6.8033

> <Gold.Chemscore.Internal_Hbond.Weighted>
0.0000

> <Gold.Chemscore.DEClash.Weighted>
0.0230

> <Gold.Chemscore.DEInternal.Weighted>
0.2361

> <Gold.Chemscore.Rot.Weighted>
4.5343

> <Gold.Chemscore.Internal.Correction.Weighted>
   9.000000E+99

> <Gold.Protein.RotatedTorsions>
[ 6907 6896 6895 6894 ] final  149.38 input  -60.11 | X-H torsion
[ 7974 7965 7964 7962 ] final   59.19 input  175.53 | X-H torsion
[ 8008 7997 7996 7995 ] final   87.05 input   59.86 | X-H torsion
[ 10167 10162 10161 10158 ] final -128.56 input  -65.29 | X-H torsion
[ 10718 10713 10712 10709 ] final   96.48 input   66.30 | X-H torsion
[ 10763 10752 10751 10750 ] final  126.10 input  -60.55 | X-H torsion
[ 11005 11000 10999 10996 ] final -150.50 input  -57.11 | X-H torsion

> <Gold.Protein.ActiveResidues>
 VAL166  LYS551  ARG553  GLY616  TRP617  ASP618  TYR619  PRO620  LYS621  CYS622 
 ASP623  PHE694  ASN695  SER759  ASP760  ASP761  ALA762  ILE779  LEU786  VAL792 
 PHE793  MET794  SER795  GLU796  ALA797  LYS798  CYS799  TRP800  GLU811  SER814 

> <Gold.Protein.RotatedAtoms>
  152.1287  133.4395  159.4710 H   0  0  0  0  0  0  0  0  0  0  0  0  # atno 6907 bound_to 6896
  150.6876  134.2446  159.4495 H   0  0  0  0  0  0  0  0  0  0  0  0  # atno 6908 bound_to 6896
  152.0329  134.9757  160.0623 H   0  0  0  0  0  0  0  0  0  0  0  0  # atno 6909 bound_to 6896
  145.9099  139.3646  143.0542 H   0  0  0  0  0  0  0  0  0  0  0  0  # atno 7974 bound_to 7965
  155.9705  140.3386  155.6571 H   0  0  0  0  0  0  0  0  0  0  0  0  # atno 8008 bound_to 7997
  155.6681  140.0723  157.2548 H   0  0  0  0  0  0  0  0  0  0  0  0  # atno 8009 bound_to 7997
  154.4165  140.1696  156.1837 H   0  0  0  0  0  0  0  0  0  0  0  0  # atno 8010 bound_to 7997
  139.9490  143.6078  152.2481 H   0  0  0  0  0  0  0  0  0  0  0  0  # atno 10167 bound_to 10162
  157.6926  131.0579  150.4498 H   0  0  0  0  0  0  0  0  0  0  0  0  # atno 10718 bound_to 10713
  153.6880  135.3303  155.3195 H   0  0  0  0  0  0  0  0  0  0  0  0  # atno 10763 bound_to 10752
  154.8448  135.4424  154.1538 H   0  0  0  0  0  0  0  0  0  0  0  0  # atno 10764 bound_to 10752
  153.2572  135.6987  153.7694 H   0  0  0  0  0  0  0  0  0  0  0  0  # atno 10765 bound_to 10752
  140.7395  134.3530  157.5150 H   0  0  0  0  0  0  0  0  0  0  0  0  # atno 11005 bound_to 11000
  145.8685  140.9434  143.0663 LP  0  0  0  0  0  0  0  0  0  0  0  0  # atno 17320 bound_to 7965
  144.6742  140.0623  143.7475 LP  0  0  0  0  0  0  0  0  0  0  0  0  # atno 17321 bound_to 7965
  139.6644  144.7662  151.1901 LP  0  0  0  0  0  0  0  0  0  0  0  0  # atno 17342 bound_to 10162
  140.7589  143.5961  150.8747 LP  0  0  0  0  0  0  0  0  0  0  0  0  # atno 17343 bound_to 10162
  156.4850  130.4082  149.6439 LP  0  0  0  0  0  0  0  0  0  0  0  0  # atno 17370 bound_to 10713
  156.3471  130.7412  151.2366 LP  0  0  0  0  0  0  0  0  0  0  0  0  # atno 17371 bound_to 10713
  139.8809  134.9071  156.2938 LP  0  0  0  0  0  0  0  0  0  0  0  0  # atno 17394 bound_to 11000
  140.9849  133.7244  156.0727 LP  0  0  0  0  0  0  0  0  0  0  0  0  # atno 17395 bound_to 11000

$$$$
