AV-unprocessed.smi:1190|AV-procd|sdf|4981|dock10
  -GOLD-   22720 3583D 1   1.00000     0.00000
 Structure written by MMmdl.
 43 44  0  0  0  0  0  0  0  0  1 V2000
  143.1082  132.6622  148.0228 C   0  0  0  0  0  0  0  0  0  0  0  0
  143.4657  132.0252  149.2444 O   0  0  0  0  0  0  0  0  0  0  0  0
  144.3825  132.6499  150.0649 C   0  0  0  0  0  0  0  0  0  0  0  0
  145.1610  131.8578  150.9318 C   0  0  0  0  0  0  0  0  0  0  0  0
  146.0950  132.4907  151.7731 C   0  0  0  0  0  0  0  0  0  0  0  0
  146.2189  133.8940  151.7319 C   0  0  0  0  0  0  0  0  0  0  0  0
  147.1810  134.5016  152.5833 N   0  0  0  0  0  0  0  0  0  0  0  0
  147.5028  134.1819  153.8486 C   0  0  0  0  0  0  0  0  0  0  0  0
  147.0127  133.2573  154.4959 O   0  0  0  0  0  0  0  0  0  0  0  0
  148.4511  135.0013  154.3253 N   0  0  0  0  0  0  0  0  0  0  0  0
  149.0397  134.9380  155.6614 C   0  0  0  0  0  0  0  0  0  0  0  0
  149.1862  136.3360  156.3268 C   0  0  1  0  0  0  0  0  0  0  0  0
  150.0872  136.2085  157.5818 C   0  0  0  0  0  0  0  0  0  0  0  0
  149.6583  137.3823  155.3890 N   0  0  0  0  0  0  0  0  0  0  0  0
  149.3829  138.7429  155.8662 C   0  0  0  0  0  0  0  0  0  0  0  0
  149.8995  139.8296  154.9074 C   0  0  0  0  0  0  0  0  0  0  0  0
  151.2943  139.6601  154.6977 O   0  0  0  0  0  0  0  0  0  0  0  0
  151.5993  138.3817  154.1582 C   0  0  0  0  0  0  0  0  0  0  0  0
  151.0962  137.2836  155.1110 C   0  0  0  0  0  0  0  0  0  0  0  0
  145.4009  134.6005  150.8164 C   0  0  0  0  0  0  0  0  0  0  0  0
  144.5045  133.9989  150.0055 N   0  0  0  0  0  0  0  0  0  0  0  0
  142.3739  132.0505  147.4989 H   0  0  0  0  0  0  0  0  0  0  0  0
  143.9715  132.7781  147.3658 H   0  0  0  0  0  0  0  0  0  0  0  0
  142.6582  133.6404  148.1990 H   0  0  0  0  0  0  0  0  0  0  0  0
  145.0436  130.7844  150.9507 H   0  0  0  0  0  0  0  0  0  0  0  0
  146.7040  131.9029  152.4443 H   0  0  0  0  0  0  0  0  0  0  0  0
  147.7258  135.2391  152.1611 H   0  0  0  0  0  0  0  0  0  0  0  0
  148.7942  135.7300  153.7168 H   0  0  0  0  0  0  0  0  0  0  0  0
  148.4789  134.2694  156.3170 H   0  0  0  0  0  0  0  0  0  0  0  0
  150.0106  134.4711  155.5075 H   0  0  0  0  0  0  0  0  0  0  0  0
  148.1943  136.6246  156.6783 H   0  0  0  0  0  0  0  0  0  0  0  0
  149.7511  135.4231  158.2570 H   0  0  0  0  0  0  0  0  0  0  0  0
  150.0892  137.1136  158.1871 H   0  0  0  0  0  0  0  0  0  0  0  0
  151.1178  135.9838  157.3052 H   0  0  0  0  0  0  0  0  0  0  0  0
  148.3124  138.9043  155.9747 H   0  0  0  0  0  0  0  0  0  0  0  0
  149.8293  138.8873  156.8513 H   0  0  0  0  0  0  0  0  0  0  0  0
  149.3713  139.7862  153.9536 H   0  0  0  0  0  0  0  0  0  0  0  0
  149.7209  140.8198  155.3267 H   0  0  0  0  0  0  0  0  0  0  0  0
  151.1455  138.2755  153.1716 H   0  0  0  0  0  0  0  0  0  0  0  0
  152.6781  138.3008  154.0245 H   0  0  0  0  0  0  0  0  0  0  0  0
  151.6576  137.3309  156.0453 H   0  0  0  0  0  0  0  0  0  0  0  0
  151.3339  136.3288  154.6462 H   0  0  0  0  0  0  0  0  0  0  0  0
  145.4632  135.6708  150.6988 H   0  0  0  0  0  0  0  0  0  0  0  0
  1  2  1  0  0  0  0
  1 22  1  0  0  0  0
  1 23  1  0  0  0  0
  1 24  1  0  0  0  0
  2  3  1  0  0  0  0
  3 21  1  0  0  0  0
  3  4  2  0  0  0  0
  4  5  1  0  0  0  0
  4 25  1  0  0  0  0
  5  6  2  0  0  0  0
  5 26  1  0  0  0  0
  6  7  1  0  0  0  0
  6 20  1  0  0  0  0
  7  8  1  0  0  0  0
  7 27  1  0  0  0  0
  8  9  2  0  0  0  0
  8 10  1  0  0  0  0
 10 11  1  0  0  0  0
 10 28  1  0  0  0  0
 11 12  1  0  0  0  0
 11 29  1  0  0  0  0
 11 30  1  0  0  0  0
 12 13  1  0  0  0  0
 12 14  1  0  0  0  0
 12 31  1  0  0  0  0
 13 32  1  0  0  0  0
 13 33  1  0  0  0  0
 13 34  1  0  0  0  0
 14 19  1  0  0  0  0
 14 15  1  0  0  0  0
 15 16  1  0  0  0  0
 15 35  1  0  0  0  0
 15 36  1  0  0  0  0
 16 17  1  0  0  0  0
 16 37  1  0  0  0  0
 16 38  1  0  0  0  0
 17 18  1  0  0  0  0
 18 19  1  0  0  0  0
 18 39  1  0  0  0  0
 18 40  1  0  0  0  0
 19 41  1  0  0  0  0
 19 42  1  0  0  0  0
 20 21  2  0  0  0  0
 20 43  1  0  0  0  0
M  END
> <s_m_source_file>
AV-unprocessed.smi

> <i_m_source_file_index>
1190

> <i_lp_mmshare_version>
43012

> <i_f3d_flags>
0

> <s_epik_input>
W0NIM11PYzFbY0hdW2NIXWMoW2NIXW4xKVtOSF1DKD1PKVtOSF1bQ0gyXVtDQEhdKFtDSDNdKU4yW0NIMl1bQ0gyXU9bQ0gyXVtDSDJdMg==

> <s_epik_cmdline>
J2VwaWtfcHl0aG9uJywgJy1waCcsICc3LjAnLCAnLXRuJywgJzgnLCAnLW1hJywgJzIwMCcsICctbWV0YWxfYmluZGluZycsICctaW1hZScsICc8aW5maWxlLm1hZT4nLCAnLW9tYWUnLCAnPG91dGZpbGUubWFlPic=

> <r_lp_tautomer_probability>
1

> <r_epik_Ionization_Penalty>
0.266084

> <r_epik_Ionization_Penalty_Charging>
0

> <r_epik_Ionization_Penalty_Neutral>
0.266084

> <r_epik_State_Penalty>
0.257924

> <r_epik_Charging_Adjusted_Penalty>
0.257924

> <i_epik_Tot_Q>
0

> <i_epik_Tot_abs_Q>
0

> <r_epik_Metal_State_Penalty>
0.257922

> <b_epik_Metal_Only>
0

> <s_lp_Force_Field>
OPLS_2005

> <r_lp_Energy>
31.4194

> <b_lp_Chiralities_Consistent>
1

> <s_lp_Variant>
AV-unprocessed.smi:1190-2

> <Gold.Version>
5.8.1

> <Gold.Id.Protein>
6NUR|6NUR_protein|mol2

> <Gold.PLP.Fitness>
38.1572

> <Gold.PLP.PLP>
-28.8926

> <Gold.PLP.part.hbond>
-4.0000

> <Gold.PLP.part.metal>
0.0000

> <Gold.PLP.part.buried>
-3.6524

> <Gold.PLP.part.nonpolar>
-22.9384

> <Gold.PLP.part.repulsive>
2.0135

> <Gold.PLP.ligand.clash>
0.0000

> <Gold.PLP.ligand.torsion>
1.1106

> <Gold.PLP.Chemscore.Hbond>
3.8080

> <Gold.PLP.Chemscore.CHOScore>
0.0000

> <Gold.PLP.Chemscore.Metal>
0.0000

> <Gold.Chemscore.Hbonds>
donor molecule, donor type, donor heavy atom, donor atom, acceptor molecule, acceptor atom, score
      L1  H     7    27       P1  7948  1.00
      L1  H    10    28       P1  7948  0.85
      P1  H  7989  7998       L1    17  1.00
      P1  H 10785 10796       L1     2  0.98

> <Gold.PLP.Chemscore.Internal.Correction>
0.0617

> <Gold.Rescore>
     Score         DG    S(hbond)    S(metal)    S(lipo)     H(rot)  DE(clash)    DE(int)     intcor
     14.16     -18.42       2.59        0.00      74.36       1.73       2.07       2.18       ----

> <Gold.Chemscore.Fitness>
14.1636

> <Gold.Chemscore.DG>
-18.4192

> <Gold.Chemscore.ZeroCoef>
-5.4800

> <Gold.Chemscore.Hbond>
2.5947

> <Gold.Chemscore.Metal>
0.0000

> <Gold.Chemscore.Lipo>
74.3571

> <Gold.Chemscore.Internal_Hbond>
0.0000

> <Gold.Chemscore.DEClash>
2.0707

> <Gold.Chemscore.DEInternal>
2.1849

> <Gold.Chemscore.Rot>
1.7292

> <Gold.Chemscore.Internal.Correction>
   9.000000E+99

> <Gold.Chemscore.Hbonds>
donor molecule, donor type, donor heavy atom, donor atom, acceptor molecule, acceptor atom, score
      L1  H     7    27       P1  7948  0.94
      L1  H    10    28       P1  7948  0.80
      P1  H  7989  7998       L1    17  0.26
      P1  H 10785 10796       L1     2  0.23

> <Gold.Chemscore.Hbond.Weighted>
-8.6663

> <Gold.Chemscore.Metal.Weighted>
-0.0000

> <Gold.Chemscore.Lipo.Weighted>
-8.6998

> <Gold.Chemscore.Internal_Hbond.Weighted>
0.0000

> <Gold.Chemscore.DEClash.Weighted>
2.0707

> <Gold.Chemscore.DEInternal.Weighted>
2.1849

> <Gold.Chemscore.Rot.Weighted>
4.4268

> <Gold.Chemscore.Internal.Correction.Weighted>
   9.000000E+99

> <Gold.Protein.RotatedTorsions>
[ 6907 6896 6895 6894 ] final  -16.43 input  -60.11 | X-H torsion
[ 7974 7965 7964 7962 ] final  -76.66 input  175.53 | X-H torsion
[ 8008 7997 7996 7995 ] final   12.08 input   59.86 | X-H torsion
[ 10167 10162 10161 10158 ] final  165.26 input  -65.29 | X-H torsion
[ 10718 10713 10712 10709 ] final  -27.31 input   66.30 | X-H torsion
[ 10763 10752 10751 10750 ] final  114.95 input  -60.55 | X-H torsion
[ 11005 11000 10999 10996 ] final  -61.72 input  -57.11 | X-H torsion

> <Gold.Protein.ActiveResidues>
 VAL166  LYS551  ARG553  GLY616  TRP617  ASP618  TYR619  PRO620  LYS621  CYS622 
 ASP623  PHE694  ASN695  SER759  ASP760  ASP761  ALA762  ILE779  LEU786  VAL792 
 PHE793  MET794  SER795  GLU796  ALA797  LYS798  CYS799  TRP800  GLU811  SER814 

> <Gold.Protein.RotatedAtoms>
  151.3087  135.0788  159.9264 H   0  0  0  0  0  0  0  0  0  0  0  0  # atno 6907 bound_to 6896
  152.5282  133.9758  159.7794 H   0  0  0  0  0  0  0  0  0  0  0  0  # atno 6908 bound_to 6896
  151.0058  133.5960  159.2719 H   0  0  0  0  0  0  0  0  0  0  0  0  # atno 6909 bound_to 6896
  145.6099  140.9389  143.1195 H   0  0  0  0  0  0  0  0  0  0  0  0  # atno 7974 bound_to 7965
  154.8157  140.2875  155.5821 H   0  0  0  0  0  0  0  0  0  0  0  0  # atno 8008 bound_to 7997
  156.2993  140.2559  156.2985 H   0  0  0  0  0  0  0  0  0  0  0  0  # atno 8009 bound_to 7997
  154.9396  140.0381  157.2079 H   0  0  0  0  0  0  0  0  0  0  0  0  # atno 8010 bound_to 7997
  139.4903  144.4150  151.9254 H   0  0  0  0  0  0  0  0  0  0  0  0  # atno 10167 bound_to 10162
  156.4398  130.4462  149.7060 H   0  0  0  0  0  0  0  0  0  0  0  0  # atno 10718 bound_to 10713
  153.5149  135.3610  155.2604 H   0  0  0  0  0  0  0  0  0  0  0  0  # atno 10763 bound_to 10752
  154.8739  135.4031  154.3326 H   0  0  0  0  0  0  0  0  0  0  0  0  # atno 10764 bound_to 10752
  153.3986  135.7074  153.6509 H   0  0  0  0  0  0  0  0  0  0  0  0  # atno 10765 bound_to 10752
  141.1334  133.6633  156.5418 H   0  0  0  0  0  0  0  0  0  0  0  0  # atno 11005 bound_to 11000
  144.7274  139.7832  143.7360 LP  0  0  0  0  0  0  0  0  0  0  0  0  # atno 17320 bound_to 7965
  146.1512  139.4596  143.0047 LP  0  0  0  0  0  0  0  0  0  0  0  0  # atno 17321 bound_to 7965
  140.3592  144.2993  150.5936 LP  0  0  0  0  0  0  0  0  0  0  0  0  # atno 17342 bound_to 10162
  140.5417  143.2222  151.8073 LP  0  0  0  0  0  0  0  0  0  0  0  0  # atno 17343 bound_to 10162
  156.3930  130.7636  151.2639 LP  0  0  0  0  0  0  0  0  0  0  0  0  # atno 17370 bound_to 10713
  157.7506  131.0262  150.3953 LP  0  0  0  0  0  0  0  0  0  0  0  0  # atno 17371 bound_to 10713
  140.4134  134.7252  157.4849 LP  0  0  0  0  0  0  0  0  0  0  0  0  # atno 17394 bound_to 11000
  140.0411  134.6266  155.8979 LP  0  0  0  0  0  0  0  0  0  0  0  0  # atno 17395 bound_to 11000

$$$$
