AV-unprocessed.smi:1346|AV-procd|sdf|5513|dock8
  -GOLD-   22720 5 93D 1   1.00000     0.00000
 Structure written by MMmdl.
 47 48  0  0  0  0  0  0  0  0  1 V2000
  147.1020  139.7199  156.3548 C   0  0  0  0  0  0  0  0  0  0  0  0
  146.5140  140.9315  155.6906 C   0  0  0  0  0  0  0  0  0  0  0  0
  145.3798  141.4329  156.1496 N   0  0  0  0  0  0  0  0  0  0  0  0
  145.0943  142.5375  155.3418 O   0  0  0  0  0  0  0  0  0  0  0  0
  146.0787  142.6584  154.4156 C   0  0  0  0  0  0  0  0  0  0  0  0
  145.9528  143.7925  153.4554 C   0  0  0  0  0  0  0  0  0  0  0  0
  147.0105  141.6697  154.5773 C   0  0  0  0  0  0  0  0  0  0  0  0
  148.2631  141.4197  153.7773 C   0  0  0  0  0  0  0  0  0  0  0  0
  149.4406  141.1852  154.7237 C   0  0  0  0  0  0  0  0  0  0  0  0
  150.0418  140.1110  154.7034 O   0  0  0  0  0  0  0  0  0  0  0  0
  149.7584  142.1954  155.5474 N   0  0  0  0  0  0  0  0  0  0  0  0
  150.8322  142.1716  156.5342 C   0  0  0  0  0  0  0  0  0  0  0  0
  150.2992  142.3559  157.9626 C   0  0  0  0  0  0  0  0  0  0  0  0
  151.2806  141.9126  158.8875 O   0  0  0  0  0  0  0  0  0  0  0  0
  152.4749  142.6872  158.8852 C   0  0  1  0  0  0  0  0  0  0  0  0
  152.0841  144.1664  159.0581 C   0  0  0  0  0  0  0  0  0  0  0  0
  151.4742  144.4417  160.4425 C   0  0  0  0  0  0  0  0  0  0  0  0
  152.4139  143.9807  161.5666 C   0  0  0  0  0  0  0  0  0  0  0  0
  152.7870  142.4981  161.4079 C   0  0  0  0  0  0  0  0  0  0  0  0
  153.4077  142.2157  160.0252 C   0  0  1  0  0  0  0  0  0  0  0  0
  153.8167  140.7422  159.8760 C   0  0  0  0  0  0  0  0  0  0  0  0
  148.1657  139.6245  156.1386 H   0  0  0  0  0  0  0  0  0  0  0  0
  146.6099  138.8099  156.0108 H   0  0  0  0  0  0  0  0  0  0  0  0
  146.9919  139.7699  157.4386 H   0  0  0  0  0  0  0  0  0  0  0  0
  146.8963  143.9780  152.9418 H   0  0  0  0  0  0  0  0  0  0  0  0
  145.6678  144.7085  153.9731 H   0  0  0  0  0  0  0  0  0  0  0  0
  145.1947  143.5778  152.7024 H   0  0  0  0  0  0  0  0  0  0  0  0
  148.1467  140.5647  153.1100 H   0  0  0  0  0  0  0  0  0  0  0  0
  148.5002  142.2685  153.1352 H   0  0  0  0  0  0  0  0  0  0  0  0
  149.2084  143.0405  155.4953 H   0  0  0  0  0  0  0  0  0  0  0  0
  151.3832  141.2331  156.4560 H   0  0  0  0  0  0  0  0  0  0  0  0
  151.5381  142.9674  156.2954 H   0  0  0  0  0  0  0  0  0  0  0  0
  150.0454  143.4015  158.1429 H   0  0  0  0  0  0  0  0  0  0  0  0
  149.3861  141.7740  158.0949 H   0  0  0  0  0  0  0  0  0  0  0  0
  153.0029  142.5884  157.9342 H   0  0  0  0  0  0  0  0  0  0  0  0
  152.9693  144.7899  158.9264 H   0  0  0  0  0  0  0  0  0  0  0  0
  151.3833  144.4605  158.2760 H   0  0  0  0  0  0  0  0  0  0  0  0
  151.2611  145.5055  160.5494 H   0  0  0  0  0  0  0  0  0  0  0  0
  150.5175  143.9257  160.5318 H   0  0  0  0  0  0  0  0  0  0  0  0
  153.3195  144.5883  161.5581 H   0  0  0  0  0  0  0  0  0  0  0  0
  151.9416  144.1435  162.5358 H   0  0  0  0  0  0  0  0  0  0  0  0
  153.4868  142.2143  162.1946 H   0  0  0  0  0  0  0  0  0  0  0  0
  151.8988  141.8807  161.5494 H   0  0  0  0  0  0  0  0  0  0  0  0
  154.3233  142.8050  159.9550 H   0  0  0  0  0  0  0  0  0  0  0  0
  152.9584  140.0777  159.9770 H   0  0  0  0  0  0  0  0  0  0  0  0
  154.5436  140.4588  160.6375 H   0  0  0  0  0  0  0  0  0  0  0  0
  154.2699  140.5565  158.9019 H   0  0  0  0  0  0  0  0  0  0  0  0
  1  2  1  0  0  0  0
  1 22  1  0  0  0  0
  1 23  1  0  0  0  0
  1 24  1  0  0  0  0
  2  7  1  0  0  0  0
  2  3  2  0  0  0  0
  3  4  1  0  0  0  0
  4  5  1  0  0  0  0
  5  6  1  0  0  0  0
  5  7  2  0  0  0  0
  6 25  1  0  0  0  0
  6 26  1  0  0  0  0
  6 27  1  0  0  0  0
  7  8  1  0  0  0  0
  8  9  1  0  0  0  0
  8 28  1  0  0  0  0
  8 29  1  0  0  0  0
  9 10  2  0  0  0  0
  9 11  1  0  0  0  0
 11 12  1  0  0  0  0
 11 30  1  0  0  0  0
 12 13  1  0  0  0  0
 12 31  1  0  0  0  0
 12 32  1  0  0  0  0
 13 14  1  0  0  0  0
 13 33  1  0  0  0  0
 13 34  1  0  0  0  0
 14 15  1  0  0  0  0
 15 20  1  0  0  0  0
 15 16  1  0  0  0  0
 15 35  1  0  0  0  0
 16 17  1  0  0  0  0
 16 36  1  0  0  0  0
 16 37  1  0  0  0  0
 17 18  1  0  0  0  0
 17 38  1  0  0  0  0
 17 39  1  0  0  0  0
 18 19  1  0  0  0  0
 18 40  1  0  0  0  0
 18 41  1  0  0  0  0
 19 20  1  0  0  0  0
 19 42  1  0  0  0  0
 19 43  1  0  0  0  0
 20 21  1  0  0  0  0
 20 44  1  0  0  0  0
 21 45  1  0  0  0  0
 21 46  1  0  0  0  0
 21 47  1  0  0  0  0
M  END
> <s_m_source_file>
AV-unprocessed.smi

> <i_m_source_file_index>
1346

> <i_lp_mmshare_version>
43012

> <i_f3d_flags>
0

> <s_epik_input>
W0NIM11jMW5vYyhbQ0gzXSljMVtDSDJdQyg9TylbTkhdW0NIMl1bQ0gyXU9bQ0BASF0yW0NIMl1bQ0gyXVtDSDJdW0NIMl1bQ0BIXTJbQ0gzXQ==

> <s_epik_cmdline>
J2VwaWtfcHl0aG9uJywgJy1waCcsICc3LjAnLCAnLXRuJywgJzgnLCAnLW1hJywgJzIwMCcsICctbWV0YWxfYmluZGluZycsICctaW1hZScsICc8aW5maWxlLm1hZT4nLCAnLW9tYWUnLCAnPG91dGZpbGUubWFlPic=

> <r_lp_tautomer_probability>
1

> <r_epik_Ionization_Penalty>
3.26154e-08

> <r_epik_Ionization_Penalty_Charging>
0

> <r_epik_Ionization_Penalty_Neutral>
3.26154e-08

> <r_epik_State_Penalty>
-0

> <r_epik_Charging_Adjusted_Penalty>
0

> <i_epik_Tot_Q>
0

> <i_epik_Tot_abs_Q>
0

> <r_epik_Metal_State_Penalty>
-0

> <b_epik_Metal_Only>
0

> <s_lp_Force_Field>
OPLS_2005

> <r_lp_Energy>
6.45158

> <b_lp_Chiralities_Consistent>
1

> <s_lp_Variant>
AV-unprocessed.smi:1346-2

> <Gold.Version>
5.8.1

> <Gold.Id.Protein>
6NUR|6NUR_protein|mol2

> <Gold.PLP.Fitness>
54.5764

> <Gold.PLP.PLP>
-49.0530

> <Gold.PLP.part.hbond>
-2.0000

> <Gold.PLP.part.metal>
0.0000

> <Gold.PLP.part.buried>
-4.9212

> <Gold.PLP.part.nonpolar>
-41.8689

> <Gold.PLP.part.repulsive>
0.4452

> <Gold.PLP.ligand.clash>
0.0000

> <Gold.PLP.ligand.torsion>
0.2571

> <Gold.PLP.Chemscore.Hbond>
1.9920

> <Gold.PLP.Chemscore.CHOScore>
0.0000

> <Gold.PLP.Chemscore.Metal>
0.0000

> <Gold.Chemscore.Hbonds>
donor molecule, donor type, donor heavy atom, donor atom, acceptor molecule, acceptor atom, score
      L1  H    11    30       P1  8028  1.00
      P1  H  7989  7998       L1    10  0.49

> <Gold.PLP.Chemscore.Internal.Correction>
0.0617

> <Gold.Rescore>
     Score         DG    S(hbond)    S(metal)    S(lipo)     H(rot)  DE(clash)    DE(int)     intcor
     18.54     -19.13       0.99        0.00     126.42       1.74       0.06       0.53       ----

> <Gold.Chemscore.Fitness>
18.5390

> <Gold.Chemscore.DG>
-19.1312

> <Gold.Chemscore.ZeroCoef>
-5.4800

> <Gold.Chemscore.Hbond>
0.9886

> <Gold.Chemscore.Metal>
0.0000

> <Gold.Chemscore.Lipo>
126.4233

> <Gold.Chemscore.Internal_Hbond>
0.0000

> <Gold.Chemscore.DEClash>
0.0637

> <Gold.Chemscore.DEInternal>
0.5285

> <Gold.Chemscore.Rot>
1.7352

> <Gold.Chemscore.Internal.Correction>
   9.000000E+99

> <Gold.Chemscore.Hbonds>
donor molecule, donor type, donor heavy atom, donor atom, acceptor molecule, acceptor atom, score
      L1  H    11    30       P1  8028  0.99
      P1  H  7989  7998       L1    10  0.04

> <Gold.Chemscore.Hbond.Weighted>
-3.3018

> <Gold.Chemscore.Metal.Weighted>
-0.0000

> <Gold.Chemscore.Lipo.Weighted>
-14.7915

> <Gold.Chemscore.Internal_Hbond.Weighted>
0.0000

> <Gold.Chemscore.DEClash.Weighted>
0.0637

> <Gold.Chemscore.DEInternal.Weighted>
0.5285

> <Gold.Chemscore.Rot.Weighted>
4.4420

> <Gold.Chemscore.Internal.Correction.Weighted>
   9.000000E+99

> <Gold.Protein.RotatedTorsions>
[ 6907 6896 6895 6894 ] final -165.75 input  -60.11 | X-H torsion
[ 7974 7965 7964 7962 ] final -127.54 input  175.53 | X-H torsion
[ 8008 7997 7996 7995 ] final -109.69 input   59.86 | X-H torsion
[ 10167 10162 10161 10158 ] final -126.45 input  -65.29 | X-H torsion
[ 10718 10713 10712 10709 ] final -150.98 input   66.30 | X-H torsion
[ 10763 10752 10751 10750 ] final  137.27 input  -60.55 | X-H torsion
[ 11005 11000 10999 10996 ] final  178.90 input  -57.11 | X-H torsion

> <Gold.Protein.ActiveResidues>
 VAL166  LYS551  ARG553  GLY616  TRP617  ASP618  TYR619  PRO620  LYS621  CYS622 
 ASP623  PHE694  ASN695  SER759  ASP760  ASP761  ALA762  ILE779  LEU786  VAL792 
 PHE793  MET794  SER795  GLU796  ALA797  LYS798  CYS799  TRP800  GLU811  SER814 

> <Gold.Protein.RotatedAtoms>
  151.4327  133.3666  159.2770 H   0  0  0  0  0  0  0  0  0  0  0  0  # atno 6907 bound_to 6896
  150.9214  134.8633  159.7502 H   0  0  0  0  0  0  0  0  0  0  0  0  # atno 6908 bound_to 6896
  152.4983  134.4265  159.9550 H   0  0  0  0  0  0  0  0  0  0  0  0  # atno 6909 bound_to 6896
  144.9760  140.7593  143.4641 H   0  0  0  0  0  0  0  0  0  0  0  0  # atno 7974 bound_to 7965
  154.9632  140.0399  157.2200 H   0  0  0  0  0  0  0  0  0  0  0  0  # atno 8008 bound_to 7997
  154.7870  140.2829  155.5998 H   0  0  0  0  0  0  0  0  0  0  0  0  # atno 8009 bound_to 7997
  156.2944  140.2581  156.2708 H   0  0  0  0  0  0  0  0  0  0  0  0  # atno 8010 bound_to 7997
  139.9713  143.5842  152.2411 H   0  0  0  0  0  0  0  0  0  0  0  0  # atno 10167 bound_to 10162
  156.4532  130.8178  151.2409 H   0  0  0  0  0  0  0  0  0  0  0  0  # atno 10718 bound_to 10713
  153.8703  135.3056  155.3442 H   0  0  0  0  0  0  0  0  0  0  0  0  # atno 10763 bound_to 10752
  154.7808  135.4836  153.9844 H   0  0  0  0  0  0  0  0  0  0  0  0  # atno 10764 bound_to 10752
  153.1410  135.6824  153.9123 H   0  0  0  0  0  0  0  0  0  0  0  0  # atno 10765 bound_to 10752
  140.4003  134.6783  157.4558 H   0  0  0  0  0  0  0  0  0  0  0  0  # atno 11005 bound_to 11000
  145.2489  139.2040  143.4953 LP  0  0  0  0  0  0  0  0  0  0  0  0  # atno 17320 bound_to 7965
  146.3395  140.2399  142.8595 LP  0  0  0  0  0  0  0  0  0  0  0  0  # atno 17321 bound_to 7965
  139.6479  144.7659  151.2207 LP  0  0  0  0  0  0  0  0  0  0  0  0  # atno 17342 bound_to 10162
  140.7521  143.6209  150.8514 LP  0  0  0  0  0  0  0  0  0  0  0  0  # atno 17343 bound_to 10162
  157.7502  131.0131  150.3411 LP  0  0  0  0  0  0  0  0  0  0  0  0  # atno 17370 bound_to 10713
  156.3794  130.3878  149.7113 LP  0  0  0  0  0  0  0  0  0  0  0  0  # atno 17371 bound_to 10713
  140.0341  134.6362  155.9066 LP  0  0  0  0  0  0  0  0  0  0  0  0  # atno 17394 bound_to 11000
  141.1859  133.6556  156.5218 LP  0  0  0  0  0  0  0  0  0  0  0  0  # atno 17395 bound_to 11000

$$$$
