AV-unprocessed.smi:99|AV-procd|sdf|867|dock5
  -GOLD-   2262017323D 1   1.00000     0.00000
 Structure written by MMmdl.
 53 56  0  0  0  0  0  0  0  0  1 V2000
  145.6157  142.0517  158.4563 O   0  0  0  0  0  0  0  0  0  0  0  0
  146.7737  142.4704  158.5067 C   0  0  0  0  0  0  0  0  0  0  0  0
  147.7906  141.9461  157.7958 O   0  0  0  0  0  0  0  0  0  0  0  0
  147.6454  140.7016  157.1296 C   0  0  0  0  0  0  0  0  0  0  0  0
  148.8405  140.5067  156.1881 C   0  0  2  0  0  0  0  0  0  0  0  0
  148.5811  139.4476  155.2707 O   0  0  0  0  0  0  0  0  0  0  0  0
  149.7777  138.8133  154.9123 C   0  0  2  0  0  0  0  0  0  0  0  0
  149.6654  137.3358  155.2173 N   0  0  0  0  0  0  0  0  0  0  0  0
  148.4977  136.7821  155.7275 C   0  0  0  0  0  0  0  0  0  0  0  0
  148.3727  135.4671  156.0248 C   0  0  0  0  0  0  0  0  0  0  0  0
  149.4914  134.5521  155.8224 C   0  0  0  0  0  0  0  0  0  0  0  0
  149.4721  133.3460  156.0575 O   0  0  0  0  0  0  0  0  0  0  0  0
  150.6500  135.1541  155.3234 N   0  0  0  0  0  0  0  0  0  0  0  0
  150.7926  136.5085  155.0183 C   0  0  0  0  0  0  0  0  0  0  0  0
  151.8689  136.9363  154.6034 O   0  0  0  0  0  0  0  0  0  0  0  0
  150.9132  139.4383  155.7394 C   0  0  1  0  0  0  0  0  0  0  0  0
  151.6094  140.4015  154.9696 O   0  0  0  0  0  0  0  0  0  0  0  0
  150.1285  140.0635  156.8799 C   0  0  1  0  0  0  0  0  0  0  0  0
  150.8524  141.1126  157.5168 O   0  0  0  0  0  0  0  0  0  0  0  0
  152.0953  140.9082  158.0071 C   0  0  0  0  0  0  0  0  0  0  0  0
  152.8511  140.0179  157.6135 O   0  0  0  0  0  0  0  0  0  0  0  0
  152.4446  141.8512  159.1073 C   0  0  0  0  0  0  0  0  0  0  0  0
  153.3877  141.4550  160.0843 C   0  0  0  0  0  0  0  0  0  0  0  0
  153.7176  142.3125  161.1515 C   0  0  0  0  0  0  0  0  0  0  0  0
  153.1101  143.5774  161.2535 C   0  0  0  0  0  0  0  0  0  0  0  0
  152.1725  143.9842  160.2865 C   0  0  0  0  0  0  0  0  0  0  0  0
  151.8402  143.1277  159.2189 C   0  0  0  0  0  0  0  0  0  0  0  0
  147.2065  143.5978  159.3823 C   0  0  0  0  0  0  0  0  0  0  0  0
  148.5256  144.0956  159.2719 C   0  0  0  0  0  0  0  0  0  0  0  0
  148.9546  145.1735  160.0706 C   0  0  0  0  0  0  0  0  0  0  0  0
  148.0698  145.7669  160.9895 C   0  0  0  0  0  0  0  0  0  0  0  0
  146.7562  145.2785  161.1120 C   0  0  0  0  0  0  0  0  0  0  0  0
  146.3263  144.1995  160.3158 C   0  0  0  0  0  0  0  0  0  0  0  0
  151.4528  134.5597  155.1762 H   0  0  0  0  0  0  0  0  0  0  0  0
  147.5903  139.8718  157.8357 H   0  0  0  0  0  0  0  0  0  0  0  0
  146.7139  140.7142  156.5631 H   0  0  0  0  0  0  0  0  0  0  0  0
  149.0170  141.4124  155.6053 H   0  0  0  0  0  0  0  0  0  0  0  0
  149.9108  138.8945  153.8316 H   0  0  0  0  0  0  0  0  0  0  0  0
  147.6397  137.4129  155.9072 H   0  0  0  0  0  0  0  0  0  0  0  0
  147.4396  135.0893  156.4173 H   0  0  0  0  0  0  0  0  0  0  0  0
  151.6204  138.6840  156.0871 H   0  0  0  0  0  0  0  0  0  0  0  0
  151.4483  141.2548  155.3424 H   0  0  0  0  0  0  0  0  0  0  0  0
  149.8865  139.2650  157.5825 H   0  0  0  0  0  0  0  0  0  0  0  0
  153.8612  140.4852  160.0318 H   0  0  0  0  0  0  0  0  0  0  0  0
  154.4345  141.9967  161.8948 H   0  0  0  0  0  0  0  0  0  0  0  0
  153.3621  144.2343  162.0729 H   0  0  0  0  0  0  0  0  0  0  0  0
  151.7043  144.9543  160.3649 H   0  0  0  0  0  0  0  0  0  0  0  0
  151.1123  143.4685  158.4972 H   0  0  0  0  0  0  0  0  0  0  0  0
  149.2212  143.6598  158.5692 H   0  0  0  0  0  0  0  0  0  0  0  0
  149.9638  145.5469  159.9755 H   0  0  0  0  0  0  0  0  0  0  0  0
  148.3983  146.5958  161.5992 H   0  0  0  0  0  0  0  0  0  0  0  0
  146.0741  145.7351  161.8141 H   0  0  0  0  0  0  0  0  0  0  0  0
  145.3090  143.8548  160.4306 H   0  0  0  0  0  0  0  0  0  0  0  0
  1  2  2  0  0  0  0
  2  3  1  0  0  0  0
  2 28  1  0  0  0  0
  3  4  1  0  0  0  0
  4  5  1  0  0  0  0
  4 35  1  0  0  0  0
  4 36  1  0  0  0  0
  5 18  1  0  0  0  0
  5  6  1  0  0  0  0
  5 37  1  0  0  0  0
  6  7  1  0  0  0  0
  7  8  1  0  0  0  0
  7 16  1  0  0  0  0
  7 38  1  0  0  0  0
  8 14  1  0  0  0  0
  8  9  1  0  0  0  0
  9 10  2  0  0  0  0
  9 39  1  0  0  0  0
 10 11  1  0  0  0  0
 10 40  1  0  0  0  0
 11 12  2  0  0  0  0
 11 13  1  0  0  0  0
 13 34  1  0  0  0  0
 13 14  1  0  0  0  0
 14 15  2  0  0  0  0
 16 17  1  0  0  0  0
 16 18  1  0  0  0  0
 16 41  1  0  0  0  0
 17 42  1  0  0  0  0
 18 19  1  0  0  0  0
 18 43  1  0  0  0  0
 19 20  1  0  0  0  0
 20 21  2  0  0  0  0
 20 22  1  0  0  0  0
 22 27  1  0  0  0  0
 22 23  2  0  0  0  0
 23 24  1  0  0  0  0
 23 44  1  0  0  0  0
 24 25  2  0  0  0  0
 24 45  1  0  0  0  0
 25 26  1  0  0  0  0
 25 46  1  0  0  0  0
 26 27  2  0  0  0  0
 26 47  1  0  0  0  0
 27 48  1  0  0  0  0
 28 33  1  0  0  0  0
 28 29  2  0  0  0  0
 29 30  1  0  0  0  0
 29 49  1  0  0  0  0
 30 31  2  0  0  0  0
 30 50  1  0  0  0  0
 31 32  1  0  0  0  0
 31 51  1  0  0  0  0
 32 33  2  0  0  0  0
 32 52  1  0  0  0  0
 33 53  1  0  0  0  0
M  END
> <s_m_source_file>
AV-unprocessed.smi

> <i_m_source_file_index>
99

> <i_lp_mmshare_version>
43012

> <i_f3d_flags>
0

> <s_epik_input>
W2NIXTFbY0hdW2NIXVtjSF1bY0hdYzFDKD1PKU9bQ0gyXVtDQEBIXTJPW0NAQEhdKG4zW2NIXVtjSF1jKD1PKVtuSF1jMz1PKVtDQEBIXShbT0hdKVtDQEhdMk9DKD1PKWM0W2NIXVtjSF1bY0hdW2NIXVtjSF00

> <s_epik_cmdline>
J2VwaWtfcHl0aG9uJywgJy1waCcsICc3LjAnLCAnLXRuJywgJzgnLCAnLW1hJywgJzIwMCcsICctbWV0YWxfYmluZGluZycsICctaW1hZScsICc8aW5maWxlLm1hZT4nLCAnLW9tYWUnLCAnPG91dGZpbGUubWFlPic=

> <r_lp_tautomer_probability>
1

> <r_epik_Ionization_Penalty>
0.00454555

> <r_epik_Ionization_Penalty_Charging>
0.0045191

> <r_epik_Ionization_Penalty_Neutral>
2.64449e-05

> <r_epik_State_Penalty>
-0

> <r_epik_Charging_Adjusted_Penalty>
0.0045191

> <i_epik_Tot_Q>
0

> <i_epik_Tot_abs_Q>
0

> <r_epik_Metal_State_Penalty>
1.27877

> <b_epik_Metal_Only>
0

> <s_epik_Chemistry_Notes>
This compound has an ester and may undergo hydrolysis at high or low pH. This compound contains an acetal/aminal-like group ( X-CH(R)-Y where X, Y are N, S, or O) that may be acid/base labile, releasing an aldehyde.

> <s_lp_Force_Field>
OPLS_2005

> <r_lp_Energy>
37.3594

> <b_lp_Chiralities_Consistent>
1

> <s_lp_Variant>
AV-unprocessed.smi:99-3

> <Gold.Version>
5.8.1

> <Gold.Id.Protein>
6NUR|6NUR_protein|mol2

> <Gold.PLP.Fitness>
56.1343

> <Gold.PLP.PLP>
-49.3040

> <Gold.PLP.part.hbond>
-2.7934

> <Gold.PLP.part.metal>
0.0000

> <Gold.PLP.part.buried>
-8.6594

> <Gold.PLP.part.nonpolar>
-39.9604

> <Gold.PLP.part.repulsive>
0.4569

> <Gold.PLP.ligand.clash>
0.0000

> <Gold.PLP.ligand.torsion>
0.9907

> <Gold.PLP.Chemscore.Hbond>
2.8160

> <Gold.PLP.Chemscore.CHOScore>
0.0000

> <Gold.PLP.Chemscore.Metal>
0.0000

> <Gold.Chemscore.Hbonds>
donor molecule, donor type, donor heavy atom, donor atom, acceptor molecule, acceptor atom, score
      P1  H  7989  7998       L1    17  0.72
      P1  H  7997  8008       L1    21  1.00
      P1  H 10752 10763       L1    15  1.00

> <Gold.PLP.Chemscore.Internal.Correction>
0.3638

> <Gold.Rescore>
     Score         DG    S(hbond)    S(metal)    S(lipo)     H(rot)  DE(clash)    DE(int)     intcor
     11.80     -16.37       2.03        0.00     104.91       3.19       0.13       4.44       ----

> <Gold.Chemscore.Fitness>
11.8021

> <Gold.Chemscore.DG>
-16.3714

> <Gold.Chemscore.ZeroCoef>
-5.4800

> <Gold.Chemscore.Hbond>
2.0313

> <Gold.Chemscore.Metal>
0.0000

> <Gold.Chemscore.Lipo>
104.9066

> <Gold.Chemscore.Internal_Hbond>
0.0000

> <Gold.Chemscore.DEClash>
0.1268

> <Gold.Chemscore.DEInternal>
4.4426

> <Gold.Chemscore.Rot>
3.1903

> <Gold.Chemscore.Internal.Correction>
   9.000000E+99

> <Gold.Chemscore.Hbonds>
donor molecule, donor type, donor heavy atom, donor atom, acceptor molecule, acceptor atom, score
      P1  H  7989  7998       L1    17  0.10
      P1  H  7997  8008       L1    21  0.98
      P1  H 10752 10763       L1    15  0.73

> <Gold.Chemscore.Hbond.Weighted>
-6.7844

> <Gold.Chemscore.Metal.Weighted>
-0.0000

> <Gold.Chemscore.Lipo.Weighted>
-12.2741

> <Gold.Chemscore.Internal_Hbond.Weighted>
0.0000

> <Gold.Chemscore.DEClash.Weighted>
0.1268

> <Gold.Chemscore.DEInternal.Weighted>
4.4426

> <Gold.Chemscore.Rot.Weighted>
8.1671

> <Gold.Chemscore.Internal.Correction.Weighted>
   9.000000E+99

> <Gold.Protein.RotatedTorsions>
[ 6907 6896 6895 6894 ] final   71.43 input  -60.11 | X-H torsion
[ 7974 7965 7964 7962 ] final   75.65 input  175.53 | X-H torsion
[ 8008 7997 7996 7995 ] final  -65.65 input   59.86 | X-H torsion
[ 10167 10162 10161 10158 ] final   12.61 input  -65.29 | X-H torsion
[ 10718 10713 10712 10709 ] final   22.36 input   66.30 | X-H torsion
[ 10763 10752 10751 10750 ] final   46.66 input  -60.55 | X-H torsion
[ 11005 11000 10999 10996 ] final -118.66 input  -57.11 | X-H torsion

> <Gold.Protein.ActiveResidues>
 VAL166  LYS551  ARG553  GLY616  TRP617  ASP618  TYR619  PRO620  LYS621  CYS622 
 ASP623  PHE694  ASN695  SER759  ASP760  ASP761  ALA762  ILE779  LEU786  VAL792 
 PHE793  MET794  SER795  GLU796  ALA797  LYS798  CYS799  TRP800  GLU811  SER814 

> <Gold.Protein.RotatedAtoms>
  152.4809  134.4721  159.9638 H   0  0  0  0  0  0  0  0  0  0  0  0  # atno 6907 bound_to 6896
  151.4727  133.3559  159.2834 H   0  0  0  0  0  0  0  0  0  0  0  0  # atno 6908 bound_to 6896
  150.8882  134.8308  159.7335 H   0  0  0  0  0  0  0  0  0  0  0  0  # atno 6909 bound_to 6896
  145.7129  139.2621  143.1640 H   0  0  0  0  0  0  0  0  0  0  0  0  # atno 7974 bound_to 7965
  154.4685  140.0929  156.7082 H   0  0  0  0  0  0  0  0  0  0  0  0  # atno 8008 bound_to 7997
  155.4791  140.3467  155.4319 H   0  0  0  0  0  0  0  0  0  0  0  0  # atno 8009 bound_to 7997
  156.0998  140.1419  156.9472 H   0  0  0  0  0  0  0  0  0  0  0  0  # atno 8010 bound_to 7997
  140.6057  143.8513  150.7011 H   0  0  0  0  0  0  0  0  0  0  0  0  # atno 10167 bound_to 10162
  157.1512  130.6675  149.6012 H   0  0  0  0  0  0  0  0  0  0  0  0  # atno 10718 bound_to 10713
  152.9808  135.6001  154.3636 H   0  0  0  0  0  0  0  0  0  0  0  0  # atno 10763 bound_to 10752
  154.3315  135.2768  155.2471 H   0  0  0  0  0  0  0  0  0  0  0  0  # atno 10764 bound_to 10752
  154.4593  135.5970  153.6300 H   0  0  0  0  0  0  0  0  0  0  0  0  # atno 10765 bound_to 10752
  141.0270  134.0038  157.3199 H   0  0  0  0  0  0  0  0  0  0  0  0  # atno 11005 bound_to 11000
  146.0696  140.7883  142.9694 LP  0  0  0  0  0  0  0  0  0  0  0  0  # atno 17320 bound_to 7965
  144.6937  140.3322  143.7214 LP  0  0  0  0  0  0  0  0  0  0  0  0  # atno 17321 bound_to 7965
  140.2070  143.3914  152.1748 LP  0  0  0  0  0  0  0  0  0  0  0  0  # atno 17342 bound_to 10162
  139.5323  144.7172  151.5013 LP  0  0  0  0  0  0  0  0  0  0  0  0  # atno 17343 bound_to 10162
  155.9770  130.4744  150.6565 LP  0  0  0  0  0  0  0  0  0  0  0  0  # atno 17370 bound_to 10713
  157.4218  131.0838  151.1123 LP  0  0  0  0  0  0  0  0  0  0  0  0  # atno 17371 bound_to 10713
  139.9182  135.0198  156.7965 LP  0  0  0  0  0  0  0  0  0  0  0  0  # atno 17394 bound_to 11000
  140.6473  133.9763  155.7737 LP  0  0  0  0  0  0  0  0  0  0  0  0  # atno 17395 bound_to 11000

$$$$
