AV-unprocessed.smi:3039|AV-procd|sdf|11593|dock3
  -GOLD-   2272016573D 1   1.00000     0.00000
 Structure written by MMmdl.
 38 39  0  0  0  0  0  0  0  0  1 V2000
  151.5053  142.4874  157.0418 O   0  0  0  0  0  0  0  0  0  0  0  0
  151.4770  141.3257  157.4478 C   0  0  0  0  0  0  0  0  0  0  0  0
  151.8745  141.0068  158.8892 C   0  0  0  0  0  0  0  0  0  0  0  0
  152.0205  142.2786  159.6823 C   0  0  0  0  0  0  0  0  0  0  0  0
  153.1640  142.7623  160.3793 C   0  0  0  0  0  0  0  0  0  0  0  0
  152.7374  143.9448  160.9114 C   0  0  0  0  0  0  0  0  0  0  0  0
  151.4452  144.1802  160.5712 O   0  0  0  0  0  0  0  0  0  0  0  0
  150.9967  143.1126  159.7855 N   0  0  0  0  0  0  0  0  0  0  0  0
  151.1085  140.2823  156.6880 N   0  0  0  0  0  0  0  0  0  0  0  0
  150.6802  140.3422  155.2919 C   0  0  2  0  0  0  0  0  0  0  0  0
  149.4483  141.2726  155.1907 C   0  0  0  0  0  0  0  0  0  0  0  0
  148.6272  141.1658  153.8959 C   0  0  0  0  0  0  0  0  0  0  0  0
  147.5405  140.0793  153.9761 C   0  0  0  0  0  0  0  0  0  0  0  0
  148.0608  138.6358  153.9076 C   0  0  0  0  0  0  0  0  0  0  0  0
  149.1231  138.2710  154.9616 C   0  0  0  0  0  0  0  0  0  0  0  0
  150.4998  138.9194  154.6865 C   0  0  2  0  0  0  0  0  0  0  0  0
  151.6746  137.9543  154.9833 C   0  0  0  0  0  0  0  0  0  0  0  0
  151.6706  136.8065  154.1558 O   0  0  0  0  0  0  0  0  0  0  0  0
  151.1185  140.3626  159.3399 H   0  0  0  0  0  0  0  0  0  0  0  0
  152.8048  140.4364  158.8887 H   0  0  0  0  0  0  0  0  0  0  0  0
  154.1400  142.3102  160.4777 H   0  0  0  0  0  0  0  0  0  0  0  0
  153.2119  144.6969  161.5243 H   0  0  0  0  0  0  0  0  0  0  0  0
  151.1319  139.3643  157.1087 H   0  0  0  0  0  0  0  0  0  0  0  0
  151.4874  140.8056  154.7209 H   0  0  0  0  0  0  0  0  0  0  0  0
  148.7867  141.1140  156.0439 H   0  0  0  0  0  0  0  0  0  0  0  0
  149.7967  142.3015  155.2924 H   0  0  0  0  0  0  0  0  0  0  0  0
  148.1246  142.1208  153.7389 H   0  0  0  0  0  0  0  0  0  0  0  0
  149.2711  141.0239  153.0274 H   0  0  0  0  0  0  0  0  0  0  0  0
  146.9542  140.2131  154.8859 H   0  0  0  0  0  0  0  0  0  0  0  0
  146.8401  140.2264  153.1532 H   0  0  0  0  0  0  0  0  0  0  0  0
  147.2095  137.9648  154.0277 H   0  0  0  0  0  0  0  0  0  0  0  0
  148.4498  138.4344  152.9088 H   0  0  0  0  0  0  0  0  0  0  0  0
  148.7749  138.5059  155.9681 H   0  0  0  0  0  0  0  0  0  0  0  0
  149.2311  137.1861  154.9352 H   0  0  0  0  0  0  0  0  0  0  0  0
  150.5588  139.0617  153.6066 H   0  0  0  0  0  0  0  0  0  0  0  0
  152.6230  138.4700  154.8286 H   0  0  0  0  0  0  0  0  0  0  0  0
  151.6580  137.6422  156.0281 H   0  0  0  0  0  0  0  0  0  0  0  0
  150.8800  136.8130  153.6378 H   0  0  0  0  0  0  0  0  0  0  0  0
  1  2  2  0  0  0  0
  2  3  1  0  0  0  0
  2  9  1  0  0  0  0
  3  4  1  0  0  0  0
  3 19  1  0  0  0  0
  3 20  1  0  0  0  0
  4  8  2  0  0  0  0
  4  5  1  0  0  0  0
  5  6  2  0  0  0  0
  5 21  1  0  0  0  0
  6  7  1  0  0  0  0
  6 22  1  0  0  0  0
  7  8  1  0  0  0  0
  9 10  1  0  0  0  0
  9 23  1  0  0  0  0
 10 16  1  0  0  0  0
 10 11  1  0  0  0  0
 10 24  1  0  0  0  0
 11 12  1  0  0  0  0
 11 25  1  0  0  0  0
 11 26  1  0  0  0  0
 12 13  1  0  0  0  0
 12 27  1  0  0  0  0
 12 28  1  0  0  0  0
 13 14  1  0  0  0  0
 13 29  1  0  0  0  0
 13 30  1  0  0  0  0
 14 15  1  0  0  0  0
 14 31  1  0  0  0  0
 14 32  1  0  0  0  0
 15 16  1  0  0  0  0
 15 33  1  0  0  0  0
 15 34  1  0  0  0  0
 16 17  1  0  0  0  0
 16 35  1  0  0  0  0
 17 18  1  0  0  0  0
 17 36  1  0  0  0  0
 17 37  1  0  0  0  0
 18 38  1  0  0  0  0
M  END
> <s_m_source_file>
AV-unprocessed.smi

> <i_m_source_file_index>
3039

> <i_lp_mmshare_version>
43012

> <i_f3d_flags>
0

> <s_epik_input>
bjFvW2NIXVtjSF1jMVtDSDJdQyg9TylbTkhdW0NAQEhdMltDSDJdW0NIMl1bQ0gyXVtDSDJdW0NIMl1bQ0BIXTJbQ0gyXVtPSF0=

> <s_epik_cmdline>
J2VwaWtfcHl0aG9uJywgJy1waCcsICc3LjAnLCAnLXRuJywgJzgnLCAnLW1hJywgJzIwMCcsICctbWV0YWxfYmluZGluZycsICctaW1hZScsICc8aW5maWxlLm1hZT4nLCAnLW9tYWUnLCAnPG91dGZpbGUubWFlPic=

> <r_lp_tautomer_probability>
1

> <r_epik_Ionization_Penalty>
3.05817e-07

> <r_epik_Ionization_Penalty_Charging>
0

> <r_epik_Ionization_Penalty_Neutral>
3.05817e-07

> <r_epik_State_Penalty>
-0

> <r_epik_Charging_Adjusted_Penalty>
0

> <i_epik_Tot_Q>
0

> <i_epik_Tot_abs_Q>
0

> <r_epik_Metal_State_Penalty>
-0

> <b_epik_Metal_Only>
0

> <s_lp_Force_Field>
OPLS_2005

> <r_lp_Energy>
21.1275

> <b_lp_Chiralities_Consistent>
1

> <s_lp_Variant>
AV-unprocessed.smi:3039-3

> <Gold.Version>
5.8.1

> <Gold.Id.Protein>
6NUR|6NUR_protein|mol2

> <Gold.PLP.Fitness>
39.8638

> <Gold.PLP.PLP>
-36.5989

> <Gold.PLP.part.hbond>
-3.3862

> <Gold.PLP.part.metal>
0.0000

> <Gold.PLP.part.buried>
-3.4141

> <Gold.PLP.part.nonpolar>
-29.6677

> <Gold.PLP.part.repulsive>
0.3446

> <Gold.PLP.ligand.clash>
0.0000

> <Gold.PLP.ligand.torsion>
0.1840

> <Gold.PLP.Chemscore.Hbond>
1.1825

> <Gold.PLP.Chemscore.CHOScore>
0.0000

> <Gold.PLP.Chemscore.Metal>
0.0000

> <Gold.Chemscore.Hbonds>
donor molecule, donor type, donor heavy atom, donor atom, acceptor molecule, acceptor atom, score
      L1  H    18    38       P1  7949  0.07
      P1  H 10752 10764       L1    18  1.00

> <Gold.PLP.Chemscore.Internal.Correction>
0.0853

> <Gold.Rescore>
     Score         DG    S(hbond)    S(metal)    S(lipo)     H(rot)  DE(clash)    DE(int)     intcor
     13.22     -14.15       1.02        0.00      94.34       2.26       0.54       0.39       ----

> <Gold.Chemscore.Fitness>
13.2216

> <Gold.Chemscore.DG>
-14.1469

> <Gold.Chemscore.ZeroCoef>
-5.4800

> <Gold.Chemscore.Hbond>
1.0235

> <Gold.Chemscore.Metal>
0.0000

> <Gold.Chemscore.Lipo>
94.3432

> <Gold.Chemscore.Internal_Hbond>
0.0000

> <Gold.Chemscore.DEClash>
0.5354

> <Gold.Chemscore.DEInternal>
0.3899

> <Gold.Chemscore.Rot>
2.2616

> <Gold.Chemscore.Internal.Correction>
   9.000000E+99

> <Gold.Chemscore.Hbonds>
donor molecule, donor type, donor heavy atom, donor atom, acceptor molecule, acceptor atom, score
      L1  H    18    38       P1  7949  0.01
      P1  H 10752 10764       L1    18  0.98

> <Gold.Chemscore.Hbond.Weighted>
-3.4184

> <Gold.Chemscore.Metal.Weighted>
-0.0000

> <Gold.Chemscore.Lipo.Weighted>
-11.0382

> <Gold.Chemscore.Internal_Hbond.Weighted>
0.0000

> <Gold.Chemscore.DEClash.Weighted>
0.5354

> <Gold.Chemscore.DEInternal.Weighted>
0.3899

> <Gold.Chemscore.Rot.Weighted>
5.7896

> <Gold.Chemscore.Internal.Correction.Weighted>
   9.000000E+99

> <Gold.Protein.RotatedTorsions>
[ 6907 6896 6895 6894 ] final  128.71 input  -60.11 | X-H torsion
[ 7974 7965 7964 7962 ] final  138.59 input  175.53 | X-H torsion
[ 8008 7997 7996 7995 ] final -107.80 input   59.86 | X-H torsion
[ 10167 10162 10161 10158 ] final -108.82 input  -65.29 | X-H torsion
[ 10718 10713 10712 10709 ] final   74.63 input   66.30 | X-H torsion
[ 10763 10752 10751 10750 ] final  -80.95 input  -60.55 | X-H torsion
[ 11005 11000 10999 10996 ] final  -24.42 input  -57.11 | X-H torsion

> <Gold.Protein.ActiveResidues>
 VAL166  LYS551  ARG553  GLY616  TRP617  ASP618  TYR619  PRO620  LYS621  CYS622 
 ASP623  PHE694  ASN695  SER759  ASP760  ASP761  ALA762  ILE779  LEU786  VAL792 
 PHE793  MET794  SER795  GLU796  ALA797  LYS798  CYS799  TRP800  GLU811  SER814 

> <Gold.Protein.RotatedAtoms>
  152.3694  133.6398  159.6074 H   0  0  0  0  0  0  0  0  0  0  0  0  # atno 6907 bound_to 6896
  150.7657  133.9295  159.3431 H   0  0  0  0  0  0  0  0  0  0  0  0  # atno 6908 bound_to 6896
  151.7121  135.0912  160.0320 H   0  0  0  0  0  0  0  0  0  0  0  0  # atno 6909 bound_to 6896
  144.9358  139.4991  143.5596 H   0  0  0  0  0  0  0  0  0  0  0  0  # atno 7974 bound_to 7965
  154.9348  140.0404  157.2066 H   0  0  0  0  0  0  0  0  0  0  0  0  # atno 8008 bound_to 7997
  154.8126  140.2870  155.5821 H   0  0  0  0  0  0  0  0  0  0  0  0  # atno 8009 bound_to 7997
  156.2973  140.2534  156.3017 H   0  0  0  0  0  0  0  0  0  0  0  0  # atno 8010 bound_to 7997
  140.1620  143.4113  152.1419 H   0  0  0  0  0  0  0  0  0  0  0  0  # atno 10167 bound_to 10162
  157.6600  130.9687  150.1238 H   0  0  0  0  0  0  0  0  0  0  0  0  # atno 10718 bound_to 10713
  154.5576  135.5643  153.6978 H   0  0  0  0  0  0  0  0  0  0  0  0  # atno 10763 bound_to 10752
  153.0008  135.6266  154.2289 H   0  0  0  0  0  0  0  0  0  0  0  0  # atno 10764 bound_to 10752
  154.2226  135.2869  155.2899 H   0  0  0  0  0  0  0  0  0  0  0  0  # atno 10765 bound_to 10752
  140.8843  133.7632  156.0341 H   0  0  0  0  0  0  0  0  0  0  0  0  # atno 11005 bound_to 11000
  146.3266  139.8341  142.8903 LP  0  0  0  0  0  0  0  0  0  0  0  0  # atno 17320 bound_to 7965
  145.3069  141.0209  143.3576 LP  0  0  0  0  0  0  0  0  0  0  0  0  # atno 17321 bound_to 7965
  139.5377  144.7226  151.4838 LP  0  0  0  0  0  0  0  0  0  0  0  0  # atno 17342 bound_to 10162
  140.6637  143.8444  150.6917 LP  0  0  0  0  0  0  0  0  0  0  0  0  # atno 17343 bound_to 10162
  156.2103  130.3666  149.8679 LP  0  0  0  0  0  0  0  0  0  0  0  0  # atno 17370 bound_to 10713
  156.6559  130.8762  151.3539 LP  0  0  0  0  0  0  0  0  0  0  0  0  # atno 17371 bound_to 10713
  140.8424  134.3051  157.5308 LP  0  0  0  0  0  0  0  0  0  0  0  0  # atno 17394 bound_to 11000
  139.8723  134.9423  156.3821 LP  0  0  0  0  0  0  0  0  0  0  0  0  # atno 17395 bound_to 11000

$$$$
