AV-unprocessed.smi:3349|AV-procd|sdf|12933|dock1
  -GOLD-   2272019363D 1   1.00000     0.00000
 Structure written by MMmdl.
 40 41  0  0  0  0  0  0  0  0  1 V2000
  145.8191  143.8505  153.5566 C   0  0  0  0  0  0  0  0  0  0  0  0
  145.6107  143.0136  154.8459 C   0  0  2  0  0  0  0  0  0  0  0  0
  146.5195  141.7550  154.7790 C   0  0  0  0  0  0  0  0  0  0  0  0
  147.8414  142.0006  155.3432 N   0  0  0  0  0  0  0  0  0  0  0  0
  148.8708  141.1414  155.2962 C   0  0  0  0  0  0  0  0  0  0  0  0
  148.7799  140.0138  154.8096 O   0  0  0  0  0  0  0  0  0  0  0  0
  150.1983  141.6423  155.8916 C   0  0  1  0  0  0  0  0  0  0  0  0
  150.0474  142.2038  157.3203 C   0  0  0  0  0  0  0  0  0  0  0  0
  151.2140  140.5975  155.8227 N   0  0  0  0  0  0  0  0  0  0  0  0
  152.0216  140.1217  156.7731 C   0  0  0  0  0  0  0  0  0  0  0  0
  152.8693  139.1961  156.3465 N   0  0  0  0  0  0  0  0  0  0  0  0
  152.5117  139.1497  155.0290 C   0  0  0  0  0  0  0  0  0  0  0  0
  151.5320  139.9747  154.6603 N   0  0  0  0  0  0  0  0  0  0  0  0
  144.1857  142.6948  155.0965 N   0  0  0  0  0  0  0  0  0  0  0  0
  143.9970  141.7862  156.2337 C   0  0  0  0  0  0  0  0  0  0  0  0
  142.5157  141.4795  156.5156 C   0  0  0  0  0  0  0  0  0  0  0  0
  141.8078  142.6916  156.7351 O   0  0  0  0  0  0  0  0  0  0  0  0
  141.8977  143.5694  155.6217 C   0  0  0  0  0  0  0  0  0  0  0  0
  143.3743  143.8939  155.3365 C   0  0  0  0  0  0  0  0  0  0  0  0
  146.8707  144.0423  153.3453 H   0  0  0  0  0  0  0  0  0  0  0  0
  145.3616  144.8366  153.6244 H   0  0  0  0  0  0  0  0  0  0  0  0
  145.3999  143.3436  152.6869 H   0  0  0  0  0  0  0  0  0  0  0  0
  145.9696  143.6197  155.6795 H   0  0  0  0  0  0  0  0  0  0  0  0
  146.1062  140.9261  155.3511 H   0  0  0  0  0  0  0  0  0  0  0  0
  146.6072  141.4201  153.7437 H   0  0  0  0  0  0  0  0  0  0  0  0
  147.9950  142.9044  155.7657 H   0  0  0  0  0  0  0  0  0  0  0  0
  150.5389  142.4614  155.2563 H   0  0  0  0  0  0  0  0  0  0  0  0
  149.3437  143.0366  157.3439 H   0  0  0  0  0  0  0  0  0  0  0  0
  151.0020  142.5746  157.6942 H   0  0  0  0  0  0  0  0  0  0  0  0
  149.6896  141.4482  158.0213 H   0  0  0  0  0  0  0  0  0  0  0  0
  151.9941  140.4646  157.7971 H   0  0  0  0  0  0  0  0  0  0  0  0
  152.9916  138.4921  154.3191 H   0  0  0  0  0  0  0  0  0  0  0  0
  144.4856  140.8315  156.0498 H   0  0  0  0  0  0  0  0  0  0  0  0
  144.4549  142.2120  157.1278 H   0  0  0  0  0  0  0  0  0  0  0  0
  142.0690  140.9335  155.6830 H   0  0  0  0  0  0  0  0  0  0  0  0
  142.4216  140.8481  157.3993 H   0  0  0  0  0  0  0  0  0  0  0  0
  141.4259  143.1145  154.7493 H   0  0  0  0  0  0  0  0  0  0  0  0
  141.3459  144.4829  155.8440 H   0  0  0  0  0  0  0  0  0  0  0  0
  143.7881  144.4592  156.1729 H   0  0  0  0  0  0  0  0  0  0  0  0
  143.3934  144.5512  154.4690 H   0  0  0  0  0  0  0  0  0  0  0  0
  1  2  1  0  0  0  0
  1 20  1  0  0  0  0
  1 21  1  0  0  0  0
  1 22  1  0  0  0  0
  2  3  1  0  0  0  0
  2 14  1  0  0  0  0
  2 23  1  0  0  0  0
  3  4  1  0  0  0  0
  3 24  1  0  0  0  0
  3 25  1  0  0  0  0
  4  5  1  0  0  0  0
  4 26  1  0  0  0  0
  5  6  2  0  0  0  0
  5  7  1  0  0  0  0
  7  8  1  0  0  0  0
  7  9  1  0  0  0  0
  7 27  1  0  0  0  0
  8 28  1  0  0  0  0
  8 29  1  0  0  0  0
  8 30  1  0  0  0  0
  9 13  1  0  0  0  0
  9 10  1  0  0  0  0
 10 11  2  0  0  0  0
 10 31  1  0  0  0  0
 11 12  1  0  0  0  0
 12 13  2  0  0  0  0
 12 32  1  0  0  0  0
 14 19  1  0  0  0  0
 14 15  1  0  0  0  0
 15 16  1  0  0  0  0
 15 33  1  0  0  0  0
 15 34  1  0  0  0  0
 16 17  1  0  0  0  0
 16 35  1  0  0  0  0
 16 36  1  0  0  0  0
 17 18  1  0  0  0  0
 18 19  1  0  0  0  0
 18 37  1  0  0  0  0
 18 38  1  0  0  0  0
 19 39  1  0  0  0  0
 19 40  1  0  0  0  0
M  END
> <s_m_source_file>
AV-unprocessed.smi

> <i_m_source_file_index>
3349

> <i_lp_mmshare_version>
43012

> <i_f3d_flags>
0

> <s_epik_input>
W0NIMl0xW0NIMl1PW0NIMl1bQ0gyXU4xW0NASF0oW0NIM10pW0NIMl1bTkhdQyg9TylbQ0BIXShbQ0gzXSluMltjSF1uW2NIXW4y

> <s_epik_cmdline>
J2VwaWtfcHl0aG9uJywgJy1waCcsICc3LjAnLCAnLXRuJywgJzgnLCAnLW1hJywgJzIwMCcsICctbWV0YWxfYmluZGluZycsICctaW1hZScsICc8aW5maWxlLm1hZT4nLCAnLW9tYWUnLCAnPG91dGZpbGUubWFlPic=

> <r_lp_tautomer_probability>
1

> <r_epik_Ionization_Penalty>
0.211373

> <r_epik_Ionization_Penalty_Charging>
0

> <r_epik_Ionization_Penalty_Neutral>
0.211373

> <r_epik_State_Penalty>
0.201459

> <r_epik_Charging_Adjusted_Penalty>
0.201459

> <i_epik_Tot_Q>
0

> <i_epik_Tot_abs_Q>
0

> <r_epik_Metal_State_Penalty>
0.201458

> <b_epik_Metal_Only>
0

> <s_lp_Force_Field>
OPLS_2005

> <r_lp_Energy>
35.2026

> <b_lp_Chiralities_Consistent>
1

> <s_lp_Variant>
AV-unprocessed.smi:3349-3

> <Gold.Version>
5.8.1

> <Gold.Id.Protein>
6NUR|6NUR_protein|mol2

> <Gold.PLP.Fitness>
36.6036

> <Gold.PLP.PLP>
-28.6540

> <Gold.PLP.part.hbond>
-3.0000

> <Gold.PLP.part.metal>
0.0000

> <Gold.PLP.part.buried>
-4.3241

> <Gold.PLP.part.nonpolar>
-21.7691

> <Gold.PLP.part.repulsive>
0.4139

> <Gold.PLP.ligand.clash>
0.0000

> <Gold.PLP.ligand.torsion>
0.6381

> <Gold.PLP.Chemscore.Hbond>
3.0000

> <Gold.PLP.Chemscore.CHOScore>
0.0000

> <Gold.PLP.Chemscore.Metal>
0.0000

> <Gold.Chemscore.Hbonds>
donor molecule, donor type, donor heavy atom, donor atom, acceptor molecule, acceptor atom, score
      L1  H     4    26       P1  8028  0.96
      P1  H  7989  7998       L1    13  0.83
      P1  H  7997  8009       L1    11  0.95

> <Gold.PLP.Chemscore.Internal.Correction>
0.2259

> <Gold.Rescore>
     Score         DG    S(hbond)    S(metal)    S(lipo)     H(rot)  DE(clash)    DE(int)     intcor
      8.75     -10.85       2.20        0.00      39.15       2.56       0.16       1.94       ----

> <Gold.Chemscore.Fitness>
8.7526

> <Gold.Chemscore.DG>
-10.8525

> <Gold.Chemscore.ZeroCoef>
-5.4800

> <Gold.Chemscore.Hbond>
2.1970

> <Gold.Chemscore.Metal>
0.0000

> <Gold.Chemscore.Lipo>
39.1495

> <Gold.Chemscore.Internal_Hbond>
0.0000

> <Gold.Chemscore.DEClash>
0.1613

> <Gold.Chemscore.DEInternal>
1.9386

> <Gold.Chemscore.Rot>
2.5570

> <Gold.Chemscore.Internal.Correction>
   9.000000E+99

> <Gold.Chemscore.Hbonds>
donor molecule, donor type, donor heavy atom, donor atom, acceptor molecule, acceptor atom, score
      L1  H     4    26       P1  8028  0.66
      P1  H  7989  7998       L1    13  0.73
      P1  H  7997  8009       L1    11  0.18

> <Gold.Chemscore.Hbond.Weighted>
-7.3379

> <Gold.Chemscore.Metal.Weighted>
-0.0000

> <Gold.Chemscore.Lipo.Weighted>
-4.5805

> <Gold.Chemscore.Internal_Hbond.Weighted>
0.0000

> <Gold.Chemscore.DEClash.Weighted>
0.1613

> <Gold.Chemscore.DEInternal.Weighted>
1.9386

> <Gold.Chemscore.Rot.Weighted>
6.5459

> <Gold.Chemscore.Internal.Correction.Weighted>
   9.000000E+99

> <Gold.Protein.RotatedTorsions>
[ 6907 6896 6895 6894 ] final   66.36 input  -60.11 | X-H torsion
[ 7974 7965 7964 7962 ] final -129.47 input  175.53 | X-H torsion
[ 8008 7997 7996 7995 ] final  179.03 input   59.86 | X-H torsion
[ 10167 10162 10161 10158 ] final  163.95 input  -65.29 | X-H torsion
[ 10718 10713 10712 10709 ] final -106.43 input   66.30 | X-H torsion
[ 10763 10752 10751 10750 ] final  -58.73 input  -60.55 | X-H torsion
[ 11005 11000 10999 10996 ] final  -76.69 input  -57.11 | X-H torsion

> <Gold.Protein.ActiveResidues>
 VAL166  LYS551  ARG553  GLY616  TRP617  ASP618  TYR619  PRO620  LYS621  CYS622 
 ASP623  PHE694  ASN695  SER759  ASP760  ASP761  ALA762  ILE779  LEU786  VAL792 
 PHE793  MET794  SER795  GLU796  ALA797  LYS798  CYS799  TRP800  GLU811  SER814 

> <Gold.Protein.RotatedAtoms>
  152.4475  134.5464  159.9853 H   0  0  0  0  0  0  0  0  0  0  0  0  # atno 6907 bound_to 6896
  151.5545  133.3406  159.2967 H   0  0  0  0  0  0  0  0  0  0  0  0  # atno 6908 bound_to 6896
  150.8395  134.7714  159.6984 H   0  0  0  0  0  0  0  0  0  0  0  0  # atno 6909 bound_to 6896
  144.9568  140.7404  143.4753 H   0  0  0  0  0  0  0  0  0  0  0  0  # atno 7974 bound_to 7965
  156.0480  140.1319  157.0082 H   0  0  0  0  0  0  0  0  0  0  0  0  # atno 8008 bound_to 7997
  154.4421  140.1016  156.6405 H   0  0  0  0  0  0  0  0  0  0  0  0  # atno 8009 bound_to 7997
  155.5566  140.3464  155.4483 H   0  0  0  0  0  0  0  0  0  0  0  0  # atno 8010 bound_to 7997
  139.4881  144.4285  151.9100 H   0  0  0  0  0  0  0  0  0  0  0  0  # atno 10167 bound_to 10162
  156.0390  130.5613  150.7680 H   0  0  0  0  0  0  0  0  0  0  0  0  # atno 10718 bound_to 10713
  154.2426  135.6340  153.5212 H   0  0  0  0  0  0  0  0  0  0  0  0  # atno 10763 bound_to 10752
  152.9927  135.5546  154.5893 H   0  0  0  0  0  0  0  0  0  0  0  0  # atno 10764 bound_to 10752
  154.5402  135.2894  155.1076 H   0  0  0  0  0  0  0  0  0  0  0  0  # atno 10765 bound_to 10752
  141.1655  133.6993  156.7707 H   0  0  0  0  0  0  0  0  0  0  0  0  # atno 11005 bound_to 11000
  145.2760  139.1936  143.4816 LP  0  0  0  0  0  0  0  0  0  0  0  0  # atno 17320 bound_to 7965
  146.3340  140.2714  142.8606 LP  0  0  0  0  0  0  0  0  0  0  0  0  # atno 17321 bound_to 7965
  140.3732  144.2829  150.5917 LP  0  0  0  0  0  0  0  0  0  0  0  0  # atno 17342 bound_to 10162
  140.5300  143.2245  151.8253 LP  0  0  0  0  0  0  0  0  0  0  0  0  # atno 17343 bound_to 10162
  157.5182  131.0930  151.0113 LP  0  0  0  0  0  0  0  0  0  0  0  0  # atno 17370 bound_to 10713
  157.0450  130.5764  149.5362 LP  0  0  0  0  0  0  0  0  0  0  0  0  # atno 17371 bound_to 10713
  140.2466  134.8573  157.3626 LP  0  0  0  0  0  0  0  0  0  0  0  0  # atno 17394 bound_to 11000
  140.1743  134.4569  155.7811 LP  0  0  0  0  0  0  0  0  0  0  0  0  # atno 17395 bound_to 11000

$$$$
