AV-unprocessed.smi:845|AV-procd|sdf|3933|dock8
  -GOLD-   22720 1393D 1   1.00000     0.00000
 Structure written by MMmdl.
 41 42  0  0  0  0  0  0  0  0  2 V2000
  147.7265  140.8390  154.2423 C   0  0  0  0  0  0  0  0  0  0  0  0
  148.0158  139.3939  153.8024 C   0  0  0  0  0  0  0  0  0  0  0  0
  146.8424  138.8204  152.9840 C   0  0  0  0  0  0  0  0  0  0  0  0
  148.5510  138.5146  154.9774 C   0  0  2  0  0  0  0  0  0  0  0  0
  147.5943  138.4507  156.1989 C   0  0  0  0  0  0  0  0  0  0  0  0
  148.2253  137.8067  157.3488 N   0  0  0  0  0  0  0  0  0  0  0  0
  147.6446  137.5122  158.5209 C   0  0  0  0  0  0  0  0  0  0  0  0
  146.4630  137.8035  158.7194 O   0  0  0  0  0  0  0  0  0  0  0  0
  148.4729  136.8952  159.3942 N   0  5  0  0  0  0  0  0  0  0  0  0
  147.9648  136.2101  160.4315 C   0  0  0  0  0  0  0  0  0  0  0  0
  148.2132  136.5266  161.7076 N   0  0  0  0  0  0  0  0  0  0  0  0
  147.5786  135.6840  162.6223 C   0  0  0  0  0  0  0  0  0  0  0  0
  146.8210  134.7096  162.0287 C   0  0  0  0  0  0  0  0  0  0  0  0
  146.8835  134.8207  160.2928 S   0  0  0  0  0  0  0  0  0  0  0  0
  149.9728  138.7291  155.3158 N   0  0  0  0  0  0  0  0  0  0  0  0
  150.9325  138.3107  154.2944 C   0  0  0  0  0  0  0  0  0  0  0  0
  152.3835  138.4810  154.7761 C   0  0  0  0  0  0  0  0  0  0  0  0
  152.6068  139.8336  155.1616 O   0  0  0  0  0  0  0  0  0  0  0  0
  151.7177  140.2663  156.1863 C   0  0  0  0  0  0  0  0  0  0  0  0
  150.2640  140.1058  155.7104 C   0  0  0  0  0  0  0  0  0  0  0  0
  146.8711  140.8885  154.9166 H   0  0  0  0  0  0  0  0  0  0  0  0
  147.5053  141.4723  153.3828 H   0  0  0  0  0  0  0  0  0  0  0  0
  148.5836  141.2730  154.7580 H   0  0  0  0  0  0  0  0  0  0  0  0
  148.8407  139.4732  153.0934 H   0  0  0  0  0  0  0  0  0  0  0  0
  145.8897  138.9121  153.5010 H   0  0  0  0  0  0  0  0  0  0  0  0
  146.9910  137.7746  152.7199 H   0  0  0  0  0  0  0  0  0  0  0  0
  146.7364  139.3689  152.0477 H   0  0  0  0  0  0  0  0  0  0  0  0
  148.5092  137.5094  154.5548 H   0  0  0  0  0  0  0  0  0  0  0  0
  147.3170  139.4533  156.5211 H   0  0  0  0  0  0  0  0  0  0  0  0
  146.6613  137.9566  155.9284 H   0  0  0  0  0  0  0  0  0  0  0  0
  149.1946  137.5461  157.2422 H   0  0  0  0  0  0  0  0  0  0  0  0
  147.7209  135.8525  163.6792 H   0  0  0  0  0  0  0  0  0  0  0  0
  146.2324  133.9387  162.5025 H   0  0  0  0  0  0  0  0  0  0  0  0
  150.7820  137.2720  154.0203 H   0  0  0  0  0  0  0  0  0  0  0  0
  150.7941  138.8981  153.3864 H   0  0  0  0  0  0  0  0  0  0  0  0
  152.5907  137.8169  155.6166 H   0  0  0  0  0  0  0  0  0  0  0  0
  153.0804  138.2177  153.9804 H   0  0  0  0  0  0  0  0  0  0  0  0
  151.8922  139.6901  157.0962 H   0  0  0  0  0  0  0  0  0  0  0  0
  151.9263  141.3098  156.4226 H   0  0  0  0  0  0  0  0  0  0  0  0
  150.0917  140.7843  154.8748 H   0  0  0  0  0  0  0  0  0  0  0  0
  149.5904  140.4153  156.5102 H   0  0  0  0  0  0  0  0  0  0  0  0
  1  2  1  0  0  0  0
  1 21  1  0  0  0  0
  1 22  1  0  0  0  0
  1 23  1  0  0  0  0
  2  3  1  0  0  0  0
  2  4  1  0  0  0  0
  2 24  1  0  0  0  0
  3 25  1  0  0  0  0
  3 26  1  0  0  0  0
  3 27  1  0  0  0  0
  4  5  1  0  0  0  0
  4 15  1  0  0  0  0
  4 28  1  0  0  0  0
  5  6  1  0  0  0  0
  5 29  1  0  0  0  0
  5 30  1  0  0  0  0
  6  7  1  0  0  0  0
  6 31  1  0  0  0  0
  7  8  2  0  0  0  0
  7  9  1  0  0  0  0
  9 10  1  0  0  0  0
 10 14  1  0  0  0  0
 10 11  2  0  0  0  0
 11 12  1  0  0  0  0
 12 13  2  0  0  0  0
 12 32  1  0  0  0  0
 13 14  1  0  0  0  0
 13 33  1  0  0  0  0
 15 20  1  0  0  0  0
 15 16  1  0  0  0  0
 16 17  1  0  0  0  0
 16 34  1  0  0  0  0
 16 35  1  0  0  0  0
 17 18  1  0  0  0  0
 17 36  1  0  0  0  0
 17 37  1  0  0  0  0
 18 19  1  0  0  0  0
 19 20  1  0  0  0  0
 19 38  1  0  0  0  0
 19 39  1  0  0  0  0
 20 40  1  0  0  0  0
 20 41  1  0  0  0  0
M  CHG  1   9  -1
M  END
> <s_m_source_file>
AV-unprocessed.smi

> <i_m_source_file_index>
845

> <i_lp_mmshare_version>
43012

> <i_f3d_flags>
0

> <s_epik_input>
W0NIMl0xW0NIMl1PW0NIMl1bQ0gyXU4xW0NASF0oW0NIXShbQ0gzXSlbQ0gzXSlbQ0gyXVtOSF1DKD1PKVtOSF1jMm5bY0hdW2NIXXMy

> <s_epik_cmdline>
J2VwaWtfcHl0aG9uJywgJy1waCcsICc3LjAnLCAnLXRuJywgJzgnLCAnLW1hJywgJzIwMCcsICctbWV0YWxfYmluZGluZycsICctaW1hZScsICc8aW5maWxlLm1hZT4nLCAnLW9tYWUnLCAnPG91dGZpbGUubWFlPic=

> <r_lp_tautomer_probability>
0.999

> <r_epik_Ionization_Penalty>
9.02543

> <r_epik_Ionization_Penalty_Charging>
6.76546

> <r_epik_Ionization_Penalty_Neutral>
2.25997

> <r_epik_State_Penalty>
7.18984

> <r_epik_Charging_Adjusted_Penalty>
13.9553

> <i_epik_Tot_Q>
-1

> <i_epik_Tot_abs_Q>
1

> <r_epik_Metal_State_Penalty>
3.11401

> <b_epik_Metal_Only>
1

> <s_lp_Force_Field>
OPLS_2005

> <r_lp_Energy>
34.1255

> <b_lp_Chiralities_Consistent>
1

> <s_lp_Variant>
AV-unprocessed.smi:845-7

> <Gold.Version>
5.8.1

> <Gold.Id.Protein>
6NUR|6NUR_protein|mol2

> <Gold.PLP.Fitness>
40.3517

> <Gold.PLP.PLP>
-35.0450

> <Gold.PLP.part.hbond>
-3.9540

> <Gold.PLP.part.metal>
0.0000

> <Gold.PLP.part.buried>
-4.8895

> <Gold.PLP.part.nonpolar>
-27.0645

> <Gold.PLP.part.repulsive>
0.1249

> <Gold.PLP.ligand.clash>
0.0000

> <Gold.PLP.ligand.torsion>
1.2699

> <Gold.PLP.Chemscore.Hbond>
2.4520

> <Gold.PLP.Chemscore.CHOScore>
0.0000

> <Gold.PLP.Chemscore.Metal>
0.0000

> <Gold.Chemscore.Hbonds>
donor molecule, donor type, donor heavy atom, donor atom, acceptor molecule, acceptor atom, score
      P1  H  6931  6943       L1    11  1.00
      P1  H  7989  7998       L1    18  0.35
      P1  H  7997  8008       L1    18  1.00

> <Gold.PLP.Chemscore.Internal.Correction>
0.4903

> <Gold.Rescore>
     Score         DG    S(hbond)    S(metal)    S(lipo)     H(rot)  DE(clash)    DE(int)     intcor
     13.03     -14.85       1.56        0.00      72.90       1.71       0.51       1.31       ----

> <Gold.Chemscore.Fitness>
13.0327

> <Gold.Chemscore.DG>
-14.8534

> <Gold.Chemscore.ZeroCoef>
-5.4800

> <Gold.Chemscore.Hbond>
1.5620

> <Gold.Chemscore.Metal>
0.0000

> <Gold.Chemscore.Lipo>
72.8992

> <Gold.Chemscore.Internal_Hbond>
0.0000

> <Gold.Chemscore.DEClash>
0.5134

> <Gold.Chemscore.DEInternal>
1.3074

> <Gold.Chemscore.Rot>
1.7081

> <Gold.Chemscore.Internal.Correction>
   9.000000E+99

> <Gold.Chemscore.Hbonds>
donor molecule, donor type, donor heavy atom, donor atom, acceptor molecule, acceptor atom, score
      P1  H  6931  6943       L1    11  0.85
      P1  H  7989  7998       L1    18  0.02
      P1  H  7997  8008       L1    18  0.30

> <Gold.Chemscore.Hbond.Weighted>
-5.2170

> <Gold.Chemscore.Metal.Weighted>
-0.0000

> <Gold.Chemscore.Lipo.Weighted>
-8.5292

> <Gold.Chemscore.Internal_Hbond.Weighted>
0.0000

> <Gold.Chemscore.DEClash.Weighted>
0.5134

> <Gold.Chemscore.DEInternal.Weighted>
1.3074

> <Gold.Chemscore.Rot.Weighted>
4.3728

> <Gold.Chemscore.Internal.Correction.Weighted>
   9.000000E+99

> <Gold.Protein.RotatedTorsions>
[ 6907 6896 6895 6894 ] final -105.13 input  -60.11 | X-H torsion
[ 7974 7965 7964 7962 ] final   88.03 input  175.53 | X-H torsion
[ 8008 7997 7996 7995 ] final  -22.74 input   59.86 | X-H torsion
[ 10167 10162 10161 10158 ] final  -19.26 input  -65.29 | X-H torsion
[ 10718 10713 10712 10709 ] final  -84.35 input   66.30 | X-H torsion
[ 10763 10752 10751 10750 ] final   30.78 input  -60.55 | X-H torsion
[ 11005 11000 10999 10996 ] final -111.41 input  -57.11 | X-H torsion

> <Gold.Protein.ActiveResidues>
 VAL166  LYS551  ARG553  GLY616  TRP617  ASP618  TYR619  PRO620  LYS621  CYS622 
 ASP623  PHE694  ASN695  SER759  ASP760  ASP761  ALA762  ILE779  LEU786  VAL792 
 PHE793  MET794  SER795  GLU796  ALA797  LYS798  CYS799  TRP800  GLU811  SER814 

> <Gold.Protein.RotatedAtoms>
  150.7321  134.0173  159.3689 H   0  0  0  0  0  0  0  0  0  0  0  0  # atno 6907 bound_to 6896
  151.8136  135.0671  160.0425 H   0  0  0  0  0  0  0  0  0  0  0  0  # atno 6908 bound_to 6896
  152.3055  133.5662  159.5682 H   0  0  0  0  0  0  0  0  0  0  0  0  # atno 6909 bound_to 6896
  145.5511  139.2295  143.2512 H   0  0  0  0  0  0  0  0  0  0  0  0  # atno 7974 bound_to 7965
  154.4626  140.1999  156.0204 H   0  0  0  0  0  0  0  0  0  0  0  0  # atno 8008 bound_to 7997
  156.0868  140.3264  155.7735 H   0  0  0  0  0  0  0  0  0  0  0  0  # atno 8009 bound_to 7997
  155.5022  140.0555  157.2928 H   0  0  0  0  0  0  0  0  0  0  0  0  # atno 8010 bound_to 7997
  140.7266  143.4836  151.0085 H   0  0  0  0  0  0  0  0  0  0  0  0  # atno 10167 bound_to 10162
  156.0007  130.4695  150.4396 H   0  0  0  0  0  0  0  0  0  0  0  0  # atno 10718 bound_to 10713
  153.0352  135.6455  154.1098 H   0  0  0  0  0  0  0  0  0  0  0  0  # atno 10763 bound_to 10752
  154.0813  135.2873  155.3291 H   0  0  0  0  0  0  0  0  0  0  0  0  # atno 10764 bound_to 10752
  154.6528  135.5420  153.7986 H   0  0  0  0  0  0  0  0  0  0  0  0  # atno 10765 bound_to 10752
  141.0736  133.9339  157.2436 H   0  0  0  0  0  0  0  0  0  0  0  0  # atno 11005 bound_to 11000
  146.1916  140.6334  142.9143 LP  0  0  0  0  0  0  0  0  0  0  0  0  # atno 17320 bound_to 7965
  144.7529  140.5235  143.6789 LP  0  0  0  0  0  0  0  0  0  0  0  0  # atno 17321 bound_to 7965
  139.8536  143.7406  152.3177 LP  0  0  0  0  0  0  0  0  0  0  0  0  # atno 17342 bound_to 10162
  139.7597  144.7510  151.0383 LP  0  0  0  0  0  0  0  0  0  0  0  0  # atno 17343 bound_to 10162
  157.2438  131.0531  151.2420 LP  0  0  0  0  0  0  0  0  0  0  0  0  # atno 17370 bound_to 10713
  157.3594  130.7123  149.6492 LP  0  0  0  0  0  0  0  0  0  0  0  0  # atno 17371 bound_to 10713
  139.9548  135.0168  156.9097 LP  0  0  0  0  0  0  0  0  0  0  0  0  # atno 17394 bound_to 11000
  140.5622  134.0524  155.7402 LP  0  0  0  0  0  0  0  0  0  0  0  0  # atno 17395 bound_to 11000

$$$$
