AV-unprocessed.smi:225|AV-procd|sdf|1723|dock6
  -GOLD-   2262020203D 1   1.00000     0.00000
 Structure written by MMmdl.
 56 59  0  0  0  0  0  0  0  0  1 V2000
  152.6170  139.5836  155.0141 O   0  0  0  0  0  0  0  0  0  0  0  0
  151.5390  139.0668  155.7628 C   0  0  0  0  0  0  0  0  0  0  0  0
  150.4116  140.1113  155.8273 C   0  0  0  0  0  0  0  0  0  0  0  0
  149.9619  140.3791  157.1965 N   0  0  0  0  0  0  0  0  0  0  0  0
  150.9565  140.8810  158.1459 C   0  0  0  0  0  0  0  0  0  0  0  0
  151.1583  142.4093  158.0696 C   0  0  0  0  0  0  0  0  0  0  0  0
  152.4486  142.8233  158.8048 C   0  0  0  0  0  0  0  0  0  0  0  0
  152.6783  144.3425  158.7406 C   0  0  0  0  0  0  0  0  0  0  0  0
  151.4717  145.1127  159.2978 C   0  0  0  0  0  0  0  0  0  0  0  0
  150.1771  144.7069  158.5769 C   0  0  0  0  0  0  0  0  0  0  0  0
  149.9552  143.1873  158.6438 C   0  0  0  0  0  0  0  0  0  0  0  0
  149.0858  139.5041  157.7552 C   0  0  0  0  0  0  0  0  0  0  0  0
  147.7573  139.5980  157.4791 N   0  0  0  0  0  0  0  0  0  0  0  0
  146.8930  138.7330  158.0177 C   0  0  0  0  0  0  0  0  0  0  0  0
  147.1382  137.7116  158.8404 N   0  0  0  0  0  0  0  0  0  0  0  0
  148.4696  137.6087  159.1174 C   0  0  0  0  0  0  0  0  0  0  0  0
  149.5010  138.4565  158.6240 C   0  0  0  0  0  0  0  0  0  0  0  0
  150.7288  138.0532  159.1334 N   0  0  0  0  0  0  0  0  0  0  0  0
  150.4417  137.0216  159.8790 C   0  0  0  0  0  0  0  0  0  0  0  0
  149.1089  136.6793  159.9194 N   0  0  0  0  0  0  0  0  0  0  0  0
  148.5125  135.5782  160.6593 C   0  0  0  0  0  0  0  0  0  0  0  0
  147.8994  136.0086  162.0123 C   0  0  1  0  0  0  0  0  0  0  0  0
  148.7636  136.9417  162.6371 O   0  0  0  0  0  0  0  0  0  0  0  0
  146.5123  136.6369  161.8968 C   0  0  0  0  0  0  0  0  0  0  0  0
  145.8296  136.1972  163.1842 C   0  0  0  0  0  0  0  0  0  0  0  0
  146.2924  134.8666  163.3349 O   0  0  0  0  0  0  0  0  0  0  0  0
  147.6706  134.8297  162.9799 C   0  0  0  0  0  0  0  0  0  0  0  0
  152.9754  138.8879  154.4845 H   0  0  0  0  0  0  0  0  0  0  0  0
  151.1846  138.1512  155.2885 H   0  0  0  0  0  0  0  0  0  0  0  0
  151.9003  138.8014  156.7563 H   0  0  0  0  0  0  0  0  0  0  0  0
  150.7302  141.0415  155.3548 H   0  0  0  0  0  0  0  0  0  0  0  0
  149.5705  139.7543  155.2344 H   0  0  0  0  0  0  0  0  0  0  0  0
  150.7028  140.6032  159.1701 H   0  0  0  0  0  0  0  0  0  0  0  0
  151.9013  140.3810  157.9290 H   0  0  0  0  0  0  0  0  0  0  0  0
  151.2776  142.6971  157.0252 H   0  0  0  0  0  0  0  0  0  0  0  0
  152.3965  142.5084  159.8481 H   0  0  0  0  0  0  0  0  0  0  0  0
  153.3063  142.3084  158.3708 H   0  0  0  0  0  0  0  0  0  0  0  0
  153.5770  144.6064  159.2986 H   0  0  0  0  0  0  0  0  0  0  0  0
  152.8574  144.6417  157.7072 H   0  0  0  0  0  0  0  0  0  0  0  0
  151.3734  144.9144  160.3659 H   0  0  0  0  0  0  0  0  0  0  0  0
  151.6349  146.1859  159.1956 H   0  0  0  0  0  0  0  0  0  0  0  0
  149.3271  145.2261  159.0202 H   0  0  0  0  0  0  0  0  0  0  0  0
  150.2235  145.0237  157.5343 H   0  0  0  0  0  0  0  0  0  0  0  0
  149.0456  142.9328  158.0990 H   0  0  0  0  0  0  0  0  0  0  0  0
  149.7877  142.8930  159.6806 H   0  0  0  0  0  0  0  0  0  0  0  0
  145.8570  138.8792  157.7499 H   0  0  0  0  0  0  0  0  0  0  0  0
  151.2011  136.4768  160.4205 H   0  0  0  0  0  0  0  0  0  0  0  0
  147.7479  135.1223  160.0291 H   0  0  0  0  0  0  0  0  0  0  0  0
  149.2745  134.8132  160.8154 H   0  0  0  0  0  0  0  0  0  0  0  0
  149.2892  136.4836  163.2749 H   0  0  0  0  0  0  0  0  0  0  0  0
  146.5270  137.7198  161.7640 H   0  0  0  0  0  0  0  0  0  0  0  0
  145.9715  136.2067  161.0531 H   0  0  0  0  0  0  0  0  0  0  0  0
  146.1570  136.8019  164.0313 H   0  0  0  0  0  0  0  0  0  0  0  0
  144.7421  136.2424  163.1241 H   0  0  0  0  0  0  0  0  0  0  0  0
  147.8993  133.8656  162.5250 H   0  0  0  0  0  0  0  0  0  0  0  0
  148.2785  134.9162  163.8822 H   0  0  0  0  0  0  0  0  0  0  0  0
  1  2  1  0  0  0  0
  1 28  1  0  0  0  0
  2  3  1  0  0  0  0
  2 29  1  0  0  0  0
  2 30  1  0  0  0  0
  3  4  1  0  0  0  0
  3 31  1  0  0  0  0
  3 32  1  0  0  0  0
  4  5  1  0  0  0  0
  4 12  1  0  0  0  0
  5  6  1  0  0  0  0
  5 33  1  0  0  0  0
  5 34  1  0  0  0  0
  6 11  1  0  0  0  0
  6  7  1  0  0  0  0
  6 35  1  0  0  0  0
  7  8  1  0  0  0  0
  7 36  1  0  0  0  0
  7 37  1  0  0  0  0
  8  9  1  0  0  0  0
  8 38  1  0  0  0  0
  8 39  1  0  0  0  0
  9 10  1  0  0  0  0
  9 40  1  0  0  0  0
  9 41  1  0  0  0  0
 10 11  1  0  0  0  0
 10 42  1  0  0  0  0
 10 43  1  0  0  0  0
 11 44  1  0  0  0  0
 11 45  1  0  0  0  0
 12 17  1  0  0  0  0
 12 13  2  0  0  0  0
 13 14  1  0  0  0  0
 14 15  2  0  0  0  0
 14 46  1  0  0  0  0
 15 16  1  0  0  0  0
 16 20  1  0  0  0  0
 16 17  2  0  0  0  0
 17 18  1  0  0  0  0
 18 19  2  0  0  0  0
 19 20  1  0  0  0  0
 19 47  1  0  0  0  0
 20 21  1  0  0  0  0
 21 22  1  0  0  0  0
 21 48  1  0  0  0  0
 21 49  1  0  0  0  0
 22 27  1  0  0  0  0
 22 23  1  0  0  0  0
 22 24  1  0  0  0  0
 23 50  1  0  0  0  0
 24 25  1  0  0  0  0
 24 51  1  0  0  0  0
 24 52  1  0  0  0  0
 25 26  1  0  0  0  0
 25 53  1  0  0  0  0
 25 54  1  0  0  0  0
 26 27  1  0  0  0  0
 27 55  1  0  0  0  0
 27 56  1  0  0  0  0
M  END
> <s_m_source_file>
AV-unprocessed.smi

> <i_m_source_file_index>
225

> <i_lp_mmshare_version>
43012

> <i_f3d_flags>
0

> <s_epik_input>
W0NIMl0xW0NIMl1bQ0gyXVtDSDJdW0NIMl1bQ0hdMVtDSDJdTihbQ0gyXVtDSDJdW09IXSljKG5bY0hdbjIpYyhjMjMpbltjSF1uM1tDSDJdW0NAQF00KFtPSF0pW0NIMl1bQ0gyXU9bQ0gyXTQ=

> <s_epik_cmdline>
J2VwaWtfcHl0aG9uJywgJy1waCcsICc3LjAnLCAnLXRuJywgJzgnLCAnLW1hJywgJzIwMCcsICctbWV0YWxfYmluZGluZycsICctaW1hZScsICc8aW5maWxlLm1hZT4nLCAnLW9tYWUnLCAnPG91dGZpbGUubWFlPic=

> <r_lp_tautomer_probability>
1

> <r_epik_Ionization_Penalty>
0.00405109

> <r_epik_Ionization_Penalty_Charging>
0

> <r_epik_Ionization_Penalty_Neutral>
0.00405109

> <r_epik_State_Penalty>
0.00270467

> <r_epik_Charging_Adjusted_Penalty>
0.00270467

> <i_epik_Tot_Q>
0

> <i_epik_Tot_abs_Q>
0

> <r_epik_Metal_State_Penalty>
-0

> <b_epik_Metal_Only>
0

> <s_lp_Force_Field>
OPLS_2005

> <r_lp_Energy>
35.3167

> <b_lp_Chiralities_Consistent>
1

> <s_lp_Variant>
AV-unprocessed.smi:225-1

> <Gold.Version>
5.8.1

> <Gold.Id.Protein>
6NUR|6NUR_protein|mol2

> <Gold.PLP.Fitness>
50.0277

> <Gold.PLP.PLP>
-46.5337

> <Gold.PLP.part.hbond>
-3.0236

> <Gold.PLP.part.metal>
0.0000

> <Gold.PLP.part.buried>
-8.0770

> <Gold.PLP.part.nonpolar>
-36.8619

> <Gold.PLP.part.repulsive>
0.0207

> <Gold.PLP.ligand.clash>
0.0000

> <Gold.PLP.ligand.torsion>
2.0915

> <Gold.PLP.Chemscore.Hbond>
2.2388

> <Gold.PLP.Chemscore.CHOScore>
0.0000

> <Gold.PLP.Chemscore.Metal>
0.0000

> <Gold.Chemscore.Hbonds>
donor molecule, donor type, donor heavy atom, donor atom, acceptor molecule, acceptor atom, score
      P1  H  6931  6943       L1    23  0.84
      P1  H  7989  7998       L1     1  0.37
      P1  H  7997  8010       L1     1  0.61

> <Gold.PLP.Chemscore.Internal.Correction>
0.9606

> <Gold.Rescore>
     Score         DG    S(hbond)    S(metal)    S(lipo)     H(rot)  DE(clash)    DE(int)     intcor
     11.95     -15.03       1.86        0.00     110.91       3.76       0.07       3.01       ----

> <Gold.Chemscore.Fitness>
11.9521

> <Gold.Chemscore.DG>
-15.0300

> <Gold.Chemscore.ZeroCoef>
-5.4800

> <Gold.Chemscore.Hbond>
1.8594

> <Gold.Chemscore.Metal>
0.0000

> <Gold.Chemscore.Lipo>
110.9101

> <Gold.Chemscore.Internal_Hbond>
0.0000

> <Gold.Chemscore.DEClash>
0.0729

> <Gold.Chemscore.DEInternal>
3.0051

> <Gold.Chemscore.Rot>
3.7644

> <Gold.Chemscore.Internal.Correction>
   9.000000E+99

> <Gold.Chemscore.Hbonds>
donor molecule, donor type, donor heavy atom, donor atom, acceptor molecule, acceptor atom, score
      P1  H  6931  6943       L1    23  0.76
      P1  H  7989  7998       L1     1  0.07
      P1  H  7997  8010       L1     1  0.09

> <Gold.Chemscore.Hbond.Weighted>
-6.2104

> <Gold.Chemscore.Metal.Weighted>
-0.0000

> <Gold.Chemscore.Lipo.Weighted>
-12.9765

> <Gold.Chemscore.Internal_Hbond.Weighted>
0.0000

> <Gold.Chemscore.DEClash.Weighted>
0.0729

> <Gold.Chemscore.DEInternal.Weighted>
3.0051

> <Gold.Chemscore.Rot.Weighted>
9.6369

> <Gold.Chemscore.Internal.Correction.Weighted>
   9.000000E+99

> <Gold.Protein.RotatedTorsions>
[ 6907 6896 6895 6894 ] final -135.38 input  -60.11 | X-H torsion
[ 7974 7965 7964 7962 ] final -128.83 input  175.53 | X-H torsion
[ 8008 7997 7996 7995 ] final  106.95 input   59.86 | X-H torsion
[ 10167 10162 10161 10158 ] final  -88.01 input  -65.29 | X-H torsion
[ 10718 10713 10712 10709 ] final  -44.59 input   66.30 | X-H torsion
[ 10763 10752 10751 10750 ] final  160.72 input  -60.55 | X-H torsion
[ 11005 11000 10999 10996 ] final   -3.59 input  -57.11 | X-H torsion

> <Gold.Protein.ActiveResidues>
 VAL166  LYS551  ARG553  GLY616  TRP617  ASP618  TYR619  PRO620  LYS621  CYS622 
 ASP623  PHE694  ASN695  SER759  ASP760  ASP761  ALA762  ILE779  LEU786  VAL792 
 PHE793  MET794  SER795  GLU796  ALA797  LYS798  CYS799  TRP800  GLU811  SER814 

> <Gold.Protein.RotatedAtoms>
  150.9971  133.6092  159.2699 H   0  0  0  0  0  0  0  0  0  0  0  0  # atno 6907 bound_to 6896
  151.3292  135.0836  159.9342 H   0  0  0  0  0  0  0  0  0  0  0  0  # atno 6908 bound_to 6896
  152.5263  133.9604  159.7768 H   0  0  0  0  0  0  0  0  0  0  0  0  # atno 6909 bound_to 6896
  144.9631  140.7468  143.4716 H   0  0  0  0  0  0  0  0  0  0  0  0  # atno 7974 bound_to 7965
  156.1784  140.3103  155.9103 H   0  0  0  0  0  0  0  0  0  0  0  0  # atno 8008 bound_to 7997
  155.3437  140.0467  157.3062 H   0  0  0  0  0  0  0  0  0  0  0  0  # atno 8009 bound_to 7997
  154.5316  140.2232  155.8805 H   0  0  0  0  0  0  0  0  0  0  0  0  # atno 8010 bound_to 7997
  140.3789  143.2758  151.9408 H   0  0  0  0  0  0  0  0  0  0  0  0  # atno 10167 bound_to 10162
  156.2370  130.4177  149.8806 H   0  0  0  0  0  0  0  0  0  0  0  0  # atno 10718 bound_to 10713
  154.2517  135.2771  155.2814 H   0  0  0  0  0  0  0  0  0  0  0  0  # atno 10763 bound_to 10752
  154.5459  135.5689  153.6883 H   0  0  0  0  0  0  0  0  0  0  0  0  # atno 10764 bound_to 10752
  152.9979  135.6262  154.2665 H   0  0  0  0  0  0  0  0  0  0  0  0  # atno 10765 bound_to 10752
  140.6710  133.9236  155.8494 H   0  0  0  0  0  0  0  0  0  0  0  0  # atno 11005 bound_to 11000
  145.2669  139.1970  143.4862 LP  0  0  0  0  0  0  0  0  0  0  0  0  # atno 17320 bound_to 7965
  146.3359  140.2609  142.8602 LP  0  0  0  0  0  0  0  0  0  0  0  0  # atno 17321 bound_to 7965
  139.4797  144.5837  151.7889 LP  0  0  0  0  0  0  0  0  0  0  0  0  # atno 17342 bound_to 10162
  140.4958  144.1243  150.5960 LP  0  0  0  0  0  0  0  0  0  0  0  0  # atno 17343 bound_to 10162
  156.6400  130.8701  151.3512 LP  0  0  0  0  0  0  0  0  0  0  0  0  # atno 17370 bound_to 10713
  157.7159  130.9496  150.1253 LP  0  0  0  0  0  0  0  0  0  0  0  0  # atno 17371 bound_to 10713
  141.0392  134.0646  157.3922 LP  0  0  0  0  0  0  0  0  0  0  0  0  # atno 17394 bound_to 11000
  139.8981  135.0153  156.7135 LP  0  0  0  0  0  0  0  0  0  0  0  0  # atno 17395 bound_to 11000

$$$$
