AV-unprocessed.smi:101|AV-procd|sdf|926|dock2
  -GOLD-   2262017433D 1   1.00000     0.00000
 Structure written by MMmdl.
 44 46  0  0  0  0  0  0  0  0  1 V2000
  147.3326  137.5246  153.6914 C   0  0  0  0  0  0  0  0  0  0  0  0
  148.3096  138.6881  153.6548 C   0  0  0  0  0  0  0  0  0  0  0  0
  149.6273  138.5412  153.9474 C   0  0  0  0  0  0  0  0  0  0  0  0
  150.5422  139.5855  153.9228 N   0  0  0  0  0  0  0  0  0  0  0  0
  152.0029  139.3624  154.2415 C   0  0  1  0  0  0  0  0  0  0  0  0
  152.2799  139.9137  155.4955 O   0  0  0  0  0  0  0  0  0  0  0  0
  152.9764  138.9689  156.3010 C   0  0  1  0  0  0  0  0  0  0  0  0
  152.6845  139.2353  157.7818 C   0  0  0  0  0  0  0  0  0  0  0  0
  152.8167  140.6232  158.0396 O   0  0  0  0  0  0  0  0  0  0  0  0
  153.2319  141.0481  159.2484 C   0  0  0  0  0  0  0  0  0  0  0  0
  153.8869  140.3531  160.0279 O   0  0  0  0  0  0  0  0  0  0  0  0
  152.8161  142.4495  159.5453 C   0  0  0  0  0  0  0  0  0  0  0  0
  152.8236  143.4093  158.5065 C   0  0  0  0  0  0  0  0  0  0  0  0
  152.4363  144.7402  158.7566 C   0  0  0  0  0  0  0  0  0  0  0  0
  152.0372  145.1276  160.0490 C   0  0  0  0  0  0  0  0  0  0  0  0
  152.0257  144.1823  161.0909 C   0  0  0  0  0  0  0  0  0  0  0  0
  152.4124  142.8507  160.8426 C   0  0  0  0  0  0  0  0  0  0  0  0
  152.4398  137.6282  155.8038 C   0  0  2  0  0  0  0  0  0  0  0  0
  153.2767  136.5364  156.1362 O   0  0  0  0  0  0  0  0  0  0  0  0
  152.3092  137.8564  154.3022 C   0  0  2  0  0  0  0  0  0  0  0  0
  153.4973  137.5508  153.5945 O   0  0  0  0  0  0  0  0  0  0  0  0
  150.1116  140.8734  153.5437 C   0  0  0  0  0  0  0  0  0  0  0  0
  150.8739  141.8356  153.4592 O   0  0  0  0  0  0  0  0  0  0  0  0
  148.7581  141.0259  153.2487 N   0  0  0  0  0  0  0  0  0  0  0  0
  147.7994  140.0103  153.2812 C   0  0  0  0  0  0  0  0  0  0  0  0
  146.6302  140.2700  153.0014 O   0  0  0  0  0  0  0  0  0  0  0  0
  148.4442  141.9480  152.9833 H   0  0  0  0  0  0  0  0  0  0  0  0
  147.8217  136.5939  153.9807 H   0  0  0  0  0  0  0  0  0  0  0  0
  146.8819  137.3744  152.7098 H   0  0  0  0  0  0  0  0  0  0  0  0
  146.5347  137.7198  154.4088 H   0  0  0  0  0  0  0  0  0  0  0  0
  149.9772  137.5528  154.2070 H   0  0  0  0  0  0  0  0  0  0  0  0
  152.5773  139.9073  153.4896 H   0  0  0  0  0  0  0  0  0  0  0  0
  154.0451  139.0429  156.0917 H   0  0  0  0  0  0  0  0  0  0  0  0
  151.6845  138.8863  158.0441 H   0  0  0  0  0  0  0  0  0  0  0  0
  153.3973  138.6921  158.4037 H   0  0  0  0  0  0  0  0  0  0  0  0
  153.1265  143.1355  157.5061 H   0  0  0  0  0  0  0  0  0  0  0  0
  152.4457  145.4643  157.9552 H   0  0  0  0  0  0  0  0  0  0  0  0
  151.7407  146.1482  160.2410 H   0  0  0  0  0  0  0  0  0  0  0  0
  151.7207  144.4781  162.0839 H   0  0  0  0  0  0  0  0  0  0  0  0
  152.3930  142.1511  161.6655 H   0  0  0  0  0  0  0  0  0  0  0  0
  151.4481  137.4537  156.2239 H   0  0  0  0  0  0  0  0  0  0  0  0
  153.2848  136.4399  157.0763 H   0  0  0  0  0  0  0  0  0  0  0  0
  151.4950  137.2696  153.8742 H   0  0  0  0  0  0  0  0  0  0  0  0
  153.2610  137.1865  152.7549 H   0  0  0  0  0  0  0  0  0  0  0  0
  1  2  1  0  0  0  0
  1 28  1  0  0  0  0
  1 29  1  0  0  0  0
  1 30  1  0  0  0  0
  2 25  1  0  0  0  0
  2  3  2  0  0  0  0
  3  4  1  0  0  0  0
  3 31  1  0  0  0  0
  4  5  1  0  0  0  0
  4 22  1  0  0  0  0
  5 20  1  0  0  0  0
  5  6  1  0  0  0  0
  5 32  1  0  0  0  0
  6  7  1  0  0  0  0
  7  8  1  0  0  0  0
  7 18  1  0  0  0  0
  7 33  1  0  0  0  0
  8  9  1  0  0  0  0
  8 34  1  0  0  0  0
  8 35  1  0  0  0  0
  9 10  1  0  0  0  0
 10 11  2  0  0  0  0
 10 12  1  0  0  0  0
 12 17  1  0  0  0  0
 12 13  2  0  0  0  0
 13 14  1  0  0  0  0
 13 36  1  0  0  0  0
 14 15  2  0  0  0  0
 14 37  1  0  0  0  0
 15 16  1  0  0  0  0
 15 38  1  0  0  0  0
 16 17  2  0  0  0  0
 16 39  1  0  0  0  0
 17 40  1  0  0  0  0
 18 19  1  0  0  0  0
 18 20  1  0  0  0  0
 18 41  1  0  0  0  0
 19 42  1  0  0  0  0
 20 21  1  0  0  0  0
 20 43  1  0  0  0  0
 21 44  1  0  0  0  0
 22 23  2  0  0  0  0
 22 24  1  0  0  0  0
 24 27  1  0  0  0  0
 24 25  1  0  0  0  0
 25 26  2  0  0  0  0
M  END
> <s_m_source_file>
AV-unprocessed.smi

> <i_m_source_file_index>
101

> <i_lp_mmshare_version>
43012

> <i_f3d_flags>
0

> <s_epik_input>
Tz1jMVtuSF1jKD1PKW4oW2NIXWMxW0NIM10pW0NAQEhdMk9bQ0BIXShbQ0BASF0oW09IXSlbQ0BIXTJbT0hdKVtDSDJdT0MoPU8pYzNbY0hdW2NIXVtjSF1bY0hdW2NIXTM=

> <s_epik_cmdline>
J2VwaWtfcHl0aG9uJywgJy1waCcsICc3LjAnLCAnLXRuJywgJzgnLCAnLW1hJywgJzIwMCcsICctbWV0YWxfYmluZGluZycsICctaW1hZScsICc8aW5maWxlLm1hZT4nLCAnLW9tYWUnLCAnPG91dGZpbGUubWFlPic=

> <r_lp_tautomer_probability>
0.999537

> <r_epik_Ionization_Penalty>
0.00263537

> <r_epik_Ionization_Penalty_Charging>
0.00263428

> <r_epik_Ionization_Penalty_Neutral>
1.09111e-06

> <r_epik_State_Penalty>
0.00183335

> <r_epik_Charging_Adjusted_Penalty>
0.00446763

> <i_epik_Tot_Q>
0

> <i_epik_Tot_abs_Q>
0

> <r_epik_Metal_State_Penalty>
1.00528

> <b_epik_Metal_Only>
0

> <s_epik_Chemistry_Notes>
This compound has an ester and may undergo hydrolysis at high or low pH. This compound contains an acetal/aminal-like group ( X-CH(R)-Y where X, Y are N, S, or O) that may be acid/base labile, releasing an aldehyde.

> <s_lp_Force_Field>
OPLS_2005

> <r_lp_Energy>
34.5485

> <b_lp_Chiralities_Consistent>
1

> <s_lp_Variant>
AV-unprocessed.smi:101-14

> <Gold.Version>
5.8.1

> <Gold.Id.Protein>
6NUR|6NUR_protein|mol2

> <Gold.PLP.Fitness>
53.8613

> <Gold.PLP.PLP>
-48.3317

> <Gold.PLP.part.hbond>
-5.2717

> <Gold.PLP.part.metal>
0.0000

> <Gold.PLP.part.buried>
-6.0178

> <Gold.PLP.part.nonpolar>
-37.8612

> <Gold.PLP.part.repulsive>
1.0007

> <Gold.PLP.ligand.clash>
0.0000

> <Gold.PLP.ligand.torsion>
1.5136

> <Gold.PLP.Chemscore.Hbond>
2.8372

> <Gold.PLP.Chemscore.CHOScore>
0.0000

> <Gold.PLP.Chemscore.Metal>
0.0000

> <Gold.Chemscore.Hbonds>
donor molecule, donor type, donor heavy atom, donor atom, acceptor molecule, acceptor atom, score
      P1  H  8011  8017       L1    23  0.08
      P1  H 10752 10763       L1    19  0.55
      L1  C     3    31       P1  7948  0.07

> <Gold.PLP.Chemscore.Internal.Correction>
0.0451

> <Gold.Rescore>
     Score         DG    S(hbond)    S(metal)    S(lipo)     H(rot)  DE(clash)    DE(int)     intcor
     15.71     -18.14       2.79        0.00     101.08       3.32       0.50       1.93       ----

> <Gold.Chemscore.Fitness>
15.7140

> <Gold.Chemscore.DG>
-18.1371

> <Gold.Chemscore.ZeroCoef>
-5.4800

> <Gold.Chemscore.Hbond>
2.7911

> <Gold.Chemscore.Metal>
0.0000

> <Gold.Chemscore.Lipo>
101.0847

> <Gold.Chemscore.Internal_Hbond>
0.0000

> <Gold.Chemscore.DEClash>
0.4979

> <Gold.Chemscore.DEInternal>
1.9252

> <Gold.Chemscore.Rot>
3.3172

> <Gold.Chemscore.Internal.Correction>
   9.000000E+99

> <Gold.Chemscore.Hbonds>
donor molecule, donor type, donor heavy atom, donor atom, acceptor molecule, acceptor atom, score
      P1  H 10752 10763       L1    19  0.52

> <Gold.Chemscore.Hbond.Weighted>
-9.3222

> <Gold.Chemscore.Metal.Weighted>
-0.0000

> <Gold.Chemscore.Lipo.Weighted>
-11.8269

> <Gold.Chemscore.Internal_Hbond.Weighted>
0.0000

> <Gold.Chemscore.DEClash.Weighted>
0.4979

> <Gold.Chemscore.DEInternal.Weighted>
1.9252

> <Gold.Chemscore.Rot.Weighted>
8.4920

> <Gold.Chemscore.Internal.Correction.Weighted>
   9.000000E+99

> <Gold.Protein.RotatedTorsions>
[ 6907 6896 6895 6894 ] final  149.35 input  -60.11 | X-H torsion
[ 7974 7965 7964 7962 ] final  125.91 input  175.53 | X-H torsion
[ 8008 7997 7996 7995 ] final   51.52 input   59.86 | X-H torsion
[ 10167 10162 10161 10158 ] final -122.32 input  -65.29 | X-H torsion
[ 10718 10713 10712 10709 ] final  -85.89 input   66.30 | X-H torsion
[ 10763 10752 10751 10750 ] final  115.72 input  -60.55 | X-H torsion
[ 11005 11000 10999 10996 ] final  -86.28 input  -57.11 | X-H torsion

> <Gold.Protein.ActiveResidues>
 VAL166  LYS551  ARG553  GLY616  TRP617  ASP618  TYR619  PRO620  LYS621  CYS622 
 ASP623  PHE694  ASN695  SER759  ASP760  ASP761  ALA762  ILE779  LEU786  VAL792 
 PHE793  MET794  SER795  GLU796  ALA797  LYS798  CYS799  TRP800  GLU811  SER814 

> <Gold.Protein.RotatedAtoms>
  152.1291  133.4397  159.4712 H   0  0  0  0  0  0  0  0  0  0  0  0  # atno 6907 bound_to 6896
  150.6877  134.2442  159.4494 H   0  0  0  0  0  0  0  0  0  0  0  0  # atno 6908 bound_to 6896
  152.0324  134.9759  160.0623 H   0  0  0  0  0  0  0  0  0  0  0  0  # atno 6909 bound_to 6896
  145.0677  139.3754  143.4973 H   0  0  0  0  0  0  0  0  0  0  0  0  # atno 7974 bound_to 7965
  155.4367  140.3453  155.4285 H   0  0  0  0  0  0  0  0  0  0  0  0  # atno 8008 bound_to 7997
  156.1304  140.1512  156.9105 H   0  0  0  0  0  0  0  0  0  0  0  0  # atno 8009 bound_to 7997
  154.4890  140.0847  156.7532 H   0  0  0  0  0  0  0  0  0  0  0  0  # atno 8010 bound_to 7997
  140.0155  143.5397  152.2244 H   0  0  0  0  0  0  0  0  0  0  0  0  # atno 10167 bound_to 10162
  155.9993  130.4746  150.4632 H   0  0  0  0  0  0  0  0  0  0  0  0  # atno 10718 bound_to 10713
  153.5264  135.3587  155.2656 H   0  0  0  0  0  0  0  0  0  0  0  0  # atno 10763 bound_to 10752
  154.8731  135.4058  154.3201 H   0  0  0  0  0  0  0  0  0  0  0  0  # atno 10764 bound_to 10752
  153.3881  135.7071  153.6582 H   0  0  0  0  0  0  0  0  0  0  0  0  # atno 10765 bound_to 10752
  141.1632  133.7446  156.9139 H   0  0  0  0  0  0  0  0  0  0  0  0  # atno 11005 bound_to 11000
  146.3527  140.0406  142.8643 LP  0  0  0  0  0  0  0  0  0  0  0  0  # atno 17320 bound_to 7965
  145.1331  140.9529  143.4533 LP  0  0  0  0  0  0  0  0  0  0  0  0  # atno 17321 bound_to 7965
  139.6175  144.7622  151.2813 LP  0  0  0  0  0  0  0  0  0  0  0  0  # atno 17342 bound_to 10162
  140.7364  143.6709  150.8083 LP  0  0  0  0  0  0  0  0  0  0  0  0  # atno 17343 bound_to 10162
  157.2654  131.0576  151.2294 LP  0  0  0  0  0  0  0  0  0  0  0  0  # atno 17370 bound_to 10713
  157.3393  130.7025  149.6372 LP  0  0  0  0  0  0  0  0  0  0  0  0  # atno 17371 bound_to 10713
  140.1498  134.9238  157.2577 LP  0  0  0  0  0  0  0  0  0  0  0  0  # atno 17394 bound_to 11000
  140.2736  134.3431  155.7365 LP  0  0  0  0  0  0  0  0  0  0  0  0  # atno 17395 bound_to 11000

$$$$
