AV-unprocessed.smi:551|AV-procd|sdf|2901|dock4
  -GOLD-   2262023393D 1   1.00000     0.00000
 Structure written by MMmdl.
 38 39  0  0  0  0  0  0  0  0  1 V2000
  149.0236  139.8821  157.0875 C   0  0  0  0  0  0  0  0  0  0  0  0
  150.2852  140.4952  156.4654 C   0  0  1  0  0  0  0  0  0  0  0  0
  149.9556  141.2677  155.1707 C   0  0  0  0  0  0  0  0  0  0  0  0
  148.5560  141.1675  154.7989 N   0  0  0  0  0  0  0  0  0  0  0  0
  148.0020  140.3334  153.8363 C   0  0  0  0  0  0  0  0  0  0  0  0
  146.6472  140.5762  153.8387 C   0  0  0  0  0  0  0  0  0  0  0  0
  146.3478  141.5543  154.7843 N   0  0  0  0  0  0  0  0  0  0  0  0
  147.5273  141.8566  155.3115 C   0  0  0  0  0  0  0  0  0  0  0  0
  150.9193  141.3755  157.4458 N   0  0  0  0  0  0  0  0  0  0  0  0
  152.1048  141.1629  158.0395 C   0  0  0  0  0  0  0  0  0  0  0  0
  152.7914  140.1599  157.8412 O   0  0  0  0  0  0  0  0  0  0  0  0
  152.5986  142.2619  158.9889 C   0  0  0  0  0  0  0  0  0  0  0  0
  152.6332  141.7492  160.4444 C   0  0  0  0  0  0  0  0  0  0  0  0
  153.1125  142.8435  161.4119 C   0  0  0  0  0  0  0  0  0  0  0  0
  152.2430  144.1057  161.2995 C   0  0  0  0  0  0  0  0  0  0  0  0
  152.1967  144.6215  159.8522 C   0  0  0  0  0  0  0  0  0  0  0  0
  151.7175  143.5257  158.8859 C   0  0  0  0  0  0  0  0  0  0  0  0
  148.5390  139.1949  156.3934 H   0  0  0  0  0  0  0  0  0  0  0  0
  148.2978  140.6509  157.3552 H   0  0  0  0  0  0  0  0  0  0  0  0
  149.2638  139.3207  157.9911 H   0  0  0  0  0  0  0  0  0  0  0  0
  150.9547  139.6692  156.2177 H   0  0  0  0  0  0  0  0  0  0  0  0
  150.1936  142.3251  155.2934 H   0  0  0  0  0  0  0  0  0  0  0  0
  150.5652  140.9054  154.3418 H   0  0  0  0  0  0  0  0  0  0  0  0
  148.5995  139.6504  153.2508 H   0  0  0  0  0  0  0  0  0  0  0  0
  145.8714  140.1261  153.2370 H   0  0  0  0  0  0  0  0  0  0  0  0
  147.6455  142.5930  156.0929 H   0  0  0  0  0  0  0  0  0  0  0  0
  150.4292  142.2291  157.6711 H   0  0  0  0  0  0  0  0  0  0  0  0
  153.6157  142.5338  158.7000 H   0  0  0  0  0  0  0  0  0  0  0  0
  151.6413  141.4105  160.7488 H   0  0  0  0  0  0  0  0  0  0  0  0
  153.2905  140.8819  160.5219 H   0  0  0  0  0  0  0  0  0  0  0  0
  153.0937  142.4690  162.4356 H   0  0  0  0  0  0  0  0  0  0  0  0
  154.1511  143.0946  161.1937 H   0  0  0  0  0  0  0  0  0  0  0  0
  151.2310  143.8833  161.6406 H   0  0  0  0  0  0  0  0  0  0  0  0
  152.6285  144.8830  161.9599 H   0  0  0  0  0  0  0  0  0  0  0  0
  151.5380  145.4879  159.7875 H   0  0  0  0  0  0  0  0  0  0  0  0
  153.1884  144.9641  159.5540 H   0  0  0  0  0  0  0  0  0  0  0  0
  151.7297  143.9100  157.8653 H   0  0  0  0  0  0  0  0  0  0  0  0
  150.6782  143.2807  159.1110 H   0  0  0  0  0  0  0  0  0  0  0  0
  1  2  1  0  0  0  0
  1 18  1  0  0  0  0
  1 19  1  0  0  0  0
  1 20  1  0  0  0  0
  2  3  1  0  0  0  0
  2  9  1  0  0  0  0
  2 21  1  0  0  0  0
  3  4  1  0  0  0  0
  3 22  1  0  0  0  0
  3 23  1  0  0  0  0
  4  8  1  0  0  0  0
  4  5  1  0  0  0  0
  5  6  2  0  0  0  0
  5 24  1  0  0  0  0
  6  7  1  0  0  0  0
  6 25  1  0  0  0  0
  7  8  2  0  0  0  0
  8 26  1  0  0  0  0
  9 10  1  0  0  0  0
  9 27  1  0  0  0  0
 10 11  2  0  0  0  0
 10 12  1  0  0  0  0
 12 17  1  0  0  0  0
 12 13  1  0  0  0  0
 12 28  1  0  0  0  0
 13 14  1  0  0  0  0
 13 29  1  0  0  0  0
 13 30  1  0  0  0  0
 14 15  1  0  0  0  0
 14 31  1  0  0  0  0
 14 32  1  0  0  0  0
 15 16  1  0  0  0  0
 15 33  1  0  0  0  0
 15 34  1  0  0  0  0
 16 17  1  0  0  0  0
 16 35  1  0  0  0  0
 16 36  1  0  0  0  0
 17 37  1  0  0  0  0
 17 38  1  0  0  0  0
M  END
> <s_m_source_file>
AV-unprocessed.smi

> <i_m_source_file_index>
551

> <i_lp_mmshare_version>
43012

> <i_f3d_flags>
0

> <s_epik_input>
W2NIXTFuW2NIXVtjSF1uMVtDSDJdW0NAQEhdKFtDSDNdKVtOSF1DKD1PKVtDSF0yW0NIMl1bQ0gyXVtDSDJdW0NIMl1bQ0gyXTI=

> <s_epik_cmdline>
J2VwaWtfcHl0aG9uJywgJy1waCcsICc3LjAnLCAnLXRuJywgJzgnLCAnLW1hJywgJzIwMCcsICctbWV0YWxfYmluZGluZycsICctaW1hZScsICc8aW5maWxlLm1hZT4nLCAnLW9tYWUnLCAnPG91dGZpbGUubWFlPic=

> <r_lp_tautomer_probability>
1

> <r_epik_Ionization_Penalty>
0.642614

> <r_epik_Ionization_Penalty_Charging>
0.642614

> <r_epik_Ionization_Penalty_Neutral>
3.29891e-08

> <r_epik_State_Penalty>
0.660429

> <r_epik_Charging_Adjusted_Penalty>
1.30304

> <i_epik_Tot_Q>
0

> <i_epik_Tot_abs_Q>
0

> <r_epik_Metal_State_Penalty>
0.31224

> <b_epik_Metal_Only>
0

> <s_lp_Force_Field>
OPLS_2005

> <r_lp_Energy>
12.4308

> <b_lp_Chiralities_Consistent>
1

> <s_lp_Variant>
AV-unprocessed.smi:551-4

> <Gold.Version>
5.8.1

> <Gold.Id.Protein>
6NUR|6NUR_protein|mol2

> <Gold.PLP.Fitness>
42.8107

> <Gold.PLP.PLP>
-35.3652

> <Gold.PLP.part.hbond>
-1.0000

> <Gold.PLP.part.metal>
0.0000

> <Gold.PLP.part.buried>
-0.2150

> <Gold.PLP.part.nonpolar>
-32.7242

> <Gold.PLP.part.repulsive>
0.1909

> <Gold.PLP.ligand.clash>
1.5097

> <Gold.PLP.ligand.torsion>
1.1962

> <Gold.PLP.Chemscore.Hbond>
1.0000

> <Gold.PLP.Chemscore.CHOScore>
2.7744

> <Gold.PLP.Chemscore.Metal>
0.0000

> <Gold.Chemscore.Hbonds>
donor molecule, donor type, donor heavy atom, donor atom, acceptor molecule, acceptor atom, score
      P1  H  7997  8008       L1    11  0.99
      L1  C     5    24       P1  7957  0.96
      L1  C     6    25       P1 10175  1.00
      L1  C     8    26       P1  8028  0.81

> <Gold.PLP.Chemscore.Internal.Correction>
0.0244

> <Gold.Rescore>
     Score         DG    S(hbond)    S(metal)    S(lipo)     H(rot)  DE(clash)    DE(int)     intcor
     14.10     -15.48       0.96        0.00      95.83       1.73       0.14       1.24       ----

> <Gold.Chemscore.Fitness>
14.0979

> <Gold.Chemscore.DG>
-15.4806

> <Gold.Chemscore.ZeroCoef>
-5.4800

> <Gold.Chemscore.Hbond>
0.9648

> <Gold.Chemscore.Metal>
0.0000

> <Gold.Chemscore.Lipo>
95.8273

> <Gold.Chemscore.Internal_Hbond>
0.0000

> <Gold.Chemscore.DEClash>
0.1394

> <Gold.Chemscore.DEInternal>
1.2432

> <Gold.Chemscore.Rot>
1.7319

> <Gold.Chemscore.Internal.Correction>
   9.000000E+99

> <Gold.Chemscore.Hbonds>
donor molecule, donor type, donor heavy atom, donor atom, acceptor molecule, acceptor atom, score
      P1  H  7997  8008       L1    11  0.93

> <Gold.Chemscore.Hbond.Weighted>
-3.2225

> <Gold.Chemscore.Metal.Weighted>
-0.0000

> <Gold.Chemscore.Lipo.Weighted>
-11.2118

> <Gold.Chemscore.Internal_Hbond.Weighted>
0.0000

> <Gold.Chemscore.DEClash.Weighted>
0.1394

> <Gold.Chemscore.DEInternal.Weighted>
1.2432

> <Gold.Chemscore.Rot.Weighted>
4.4338

> <Gold.Chemscore.Internal.Correction.Weighted>
   9.000000E+99

> <Gold.Protein.RotatedTorsions>
[ 6907 6896 6895 6894 ] final    8.82 input  -60.11 | X-H torsion
[ 7974 7965 7964 7962 ] final  -14.84 input  175.53 | X-H torsion
[ 8008 7997 7996 7995 ] final  -80.37 input   59.86 | X-H torsion
[ 10167 10162 10161 10158 ] final   48.89 input  -65.29 | X-H torsion
[ 10718 10713 10712 10709 ] final  -82.48 input   66.30 | X-H torsion
[ 10763 10752 10751 10750 ] final -167.92 input  -60.55 | X-H torsion
[ 11005 11000 10999 10996 ] final  105.48 input  -57.11 | X-H torsion

> <Gold.Protein.ActiveResidues>
 VAL166  LYS551  ARG553  GLY616  TRP617  ASP618  TYR619  PRO620  LYS621  CYS622 
 ASP623  PHE694  ASN695  SER759  ASP760  ASP761  ALA762  ILE779  LEU786  VAL792 
 PHE793  MET794  SER795  GLU796  ALA797  LYS798  CYS799  TRP800  GLU811  SER814 

> <Gold.Protein.RotatedAtoms>
  151.7123  135.0910  160.0269 H   0  0  0  0  0  0  0  0  0  0  0  0  # atno 6907 bound_to 6896
  152.3654  133.6346  159.6055 H   0  0  0  0  0  0  0  0  0  0  0  0  # atno 6908 bound_to 6896
  150.7634  133.9273  159.3457 H   0  0  0  0  0  0  0  0  0  0  0  0  # atno 6909 bound_to 6896
  146.2057  140.3406  142.8408 H   0  0  0  0  0  0  0  0  0  0  0  0  # atno 7974 bound_to 7965
  154.5876  140.0664  156.9193 H   0  0  0  0  0  0  0  0  0  0  0  0  # atno 8008 bound_to 7997
  155.2352  140.3340  155.4280 H   0  0  0  0  0  0  0  0  0  0  0  0  # atno 8009 bound_to 7997
  156.2234  140.1808  156.7408 H   0  0  0  0  0  0  0  0  0  0  0  0  # atno 8010 bound_to 7997
  140.2885  144.3073  150.6246 H   0  0  0  0  0  0  0  0  0  0  0  0  # atno 10167 bound_to 10162
  156.0032  130.4636  150.4112 H   0  0  0  0  0  0  0  0  0  0  0  0  # atno 10718 bound_to 10713
  154.6683  135.2935  154.9776 H   0  0  0  0  0  0  0  0  0  0  0  0  # atno 10763 bound_to 10752
  154.0812  135.6604  153.4842 H   0  0  0  0  0  0  0  0  0  0  0  0  # atno 10764 bound_to 10752
  153.0471  135.5198  154.7666 H   0  0  0  0  0  0  0  0  0  0  0  0  # atno 10765 bound_to 10752
  139.8802  134.9337  156.5520 H   0  0  0  0  0  0  0  0  0  0  0  0  # atno 11005 bound_to 11000
  144.8788  140.7373  143.6000 LP  0  0  0  0  0  0  0  0  0  0  0  0  # atno 17320 bound_to 7965
  145.3326  139.1755  143.4529 LP  0  0  0  0  0  0  0  0  0  0  0  0  # atno 17321 bound_to 7965
  140.5752  143.2177  151.7528 LP  0  0  0  0  0  0  0  0  0  0  0  0  # atno 17342 bound_to 10162
  139.4944  144.4160  152.0029 LP  0  0  0  0  0  0  0  0  0  0  0  0  # atno 17343 bound_to 10162
  157.2174  131.0474  151.2565 LP  0  0  0  0  0  0  0  0  0  0  0  0  # atno 17370 bound_to 10713
  157.3832  130.7242  149.6645 LP  0  0  0  0  0  0  0  0  0  0  0  0  # atno 17371 bound_to 10713
  140.8233  133.8336  155.8916 LP  0  0  0  0  0  0  0  0  0  0  0  0  # atno 17394 bound_to 11000
  140.9398  134.1915  157.4806 LP  0  0  0  0  0  0  0  0  0  0  0  0  # atno 17395 bound_to 11000

$$$$
