AV-unprocessed.smi:1199|AV-procd|sdf|5017|dock5
  -GOLD-   22720 4 33D 1   1.00000     0.00000
 Structure written by MMmdl.
 41 42  0  0  0  0  0  0  0  0  3 V2000
  146.7130  138.3252  157.7417 C   0  0  0  0  0  0  0  0  0  0  0  0
  147.8177  137.2645  157.8585 C   0  0  1  0  0  0  0  0  0  0  0  0
  149.2249  137.8964  157.9460 C   0  0  0  0  0  0  0  0  0  0  0  0
  149.5226  138.8567  156.8489 N   0  3  0  0  0  0  0  0  0  0  0  0
  150.7711  139.6325  157.0488 C   0  0  0  0  0  0  0  0  0  0  0  0
  150.9721  140.6264  155.8924 C   0  0  0  0  0  0  0  0  0  0  0  0
  151.0002  139.9206  154.6581 O   0  0  0  0  0  0  0  0  0  0  0  0
  149.7767  139.2401  154.4084 C   0  0  0  0  0  0  0  0  0  0  0  0
  149.5223  138.2060  155.5172 C   0  0  0  0  0  0  0  0  0  0  0  0
  147.5843  136.4093  159.0166 N   0  0  0  0  0  0  0  0  0  0  0  0
  148.2697  135.3007  159.3382 C   0  0  0  0  0  0  0  0  0  0  0  0
  149.1175  134.7999  158.6003 O   0  0  0  0  0  0  0  0  0  0  0  0
  147.9969  134.6725  160.7152 C   0  0  0  0  0  0  0  0  0  0  0  0
  146.7461  135.1224  161.3500 N   0  0  0  0  0  0  0  0  0  0  0  0
  145.7269  134.0793  161.4419 N   0  5  0  0  0  0  0  0  0  0  0  0
  144.5124  134.3850  161.9694 C   0  0  0  0  0  0  0  0  0  0  0  0
  143.5944  133.5717  162.0392 O   0  0  0  0  0  0  0  0  0  0  0  0
  144.3087  135.7292  162.4827 C   0  0  0  0  0  0  0  0  0  0  0  0
  145.2840  136.6577  162.4293 C   0  0  0  0  0  0  0  0  0  0  0  0
  146.5925  136.3823  161.8484 C   0  0  0  0  0  0  0  0  0  0  0  0
  147.4937  137.2194  161.8135 O   0  0  0  0  0  0  0  0  0  0  0  0
  146.8737  138.9634  156.8726 H   0  0  0  0  0  0  0  0  0  0  0  0
  146.6809  138.9656  158.6239 H   0  0  0  0  0  0  0  0  0  0  0  0
  145.7320  137.8618  157.6317 H   0  0  0  0  0  0  0  0  0  0  0  0
  147.7841  136.6498  156.9575 H   0  0  0  0  0  0  0  0  0  0  0  0
  149.3650  138.3808  158.9134 H   0  0  0  0  0  0  0  0  0  0  0  0
  149.9626  137.0940  157.8951 H   0  0  0  0  0  0  0  0  0  0  0  0
  150.7298  140.1843  157.9875 H   0  0  0  0  0  0  0  0  0  0  0  0
  151.6215  138.9522  157.1119 H   0  0  0  0  0  0  0  0  0  0  0  0
  150.1822  141.3788  155.8801 H   0  0  0  0  0  0  0  0  0  0  0  0
  151.9152  141.1591  156.0154 H   0  0  0  0  0  0  0  0  0  0  0  0
  148.9540  139.9515  154.3447 H   0  0  0  0  0  0  0  0  0  0  0  0
  149.8408  138.7435  153.4401 H   0  0  0  0  0  0  0  0  0  0  0  0
  150.2915  137.4325  155.4888 H   0  0  0  0  0  0  0  0  0  0  0  0
  148.5645  137.7142  155.3447 H   0  0  0  0  0  0  0  0  0  0  0  0
  146.8966  136.7272  159.6846 H   0  0  0  0  0  0  0  0  0  0  0  0
  148.0118  133.5865  160.6111 H   0  0  0  0  0  0  0  0  0  0  0  0
  148.8384  134.9093  161.3686 H   0  0  0  0  0  0  0  0  0  0  0  0
  143.3555  135.9883  162.9195 H   0  0  0  0  0  0  0  0  0  0  0  0
  145.0900  137.6431  162.8261 H   0  0  0  0  0  0  0  0  0  0  0  0
  148.7670  139.5286  156.8395 H   0  0  0  0  0  0  0  0  0  0  0  0
  1  2  1  0  0  0  0
  1 22  1  0  0  0  0
  1 23  1  0  0  0  0
  1 24  1  0  0  0  0
  2  3  1  0  0  0  0
  2 10  1  0  0  0  0
  2 25  1  0  0  0  0
  3  4  1  0  0  0  0
  3 26  1  0  0  0  0
  3 27  1  0  0  0  0
  4  9  1  0  0  0  0
  4  5  1  0  0  0  0
  4 41  1  0  0  0  0
  5  6  1  0  0  0  0
  5 28  1  0  0  0  0
  5 29  1  0  0  0  0
  6  7  1  0  0  0  0
  6 30  1  0  0  0  0
  6 31  1  0  0  0  0
  7  8  1  0  0  0  0
  8  9  1  0  0  0  0
  8 32  1  0  0  0  0
  8 33  1  0  0  0  0
  9 34  1  0  0  0  0
  9 35  1  0  0  0  0
 10 11  1  0  0  0  0
 10 36  1  0  0  0  0
 11 12  2  0  0  0  0
 11 13  1  0  0  0  0
 13 37  1  0  0  0  0
 13 38  1  0  0  0  0
 13 14  1  0  0  0  0
 14 15  1  0  0  0  0
 14 20  1  0  0  0  0
 15 16  1  0  0  0  0
 16 17  2  0  0  0  0
 16 18  1  0  0  0  0
 18 39  1  0  0  0  0
 18 19  2  0  0  0  0
 19 40  1  0  0  0  0
 19 20  1  0  0  0  0
 20 21  2  0  0  0  0
M  CHG  1   4   1
M  CHG  1  15  -1
M  END
> <s_m_source_file>
AV-unprocessed.smi

> <i_m_source_file_index>
1199

> <i_lp_mmshare_version>
43012

> <i_f3d_flags>
0

> <s_epik_input>
W0NIMl0xW0NIMl1PW0NIMl1bQ0gyXU4xW0NIMl1bQ0BASF0oW0NIM10pW05IXUMoPU8pW0NIMl1uMltuSF1jKD1PKVtjSF1bY0hdYzI9Tw==

> <s_epik_cmdline>
J2VwaWtfcHl0aG9uJywgJy1waCcsICc3LjAnLCAnLXRuJywgJzgnLCAnLW1hJywgJzIwMCcsICctbWV0YWxfYmluZGluZycsICctaW1hZScsICc8aW5maWxlLm1hZT4nLCAnLW9tYWUnLCAnPG91dGZpbGUubWFlPic=

> <r_lp_tautomer_probability>
1

> <r_epik_Ionization_Penalty>
0.741876

> <r_epik_Ionization_Penalty_Charging>
0.741876

> <r_epik_Ionization_Penalty_Neutral>
9.12373e-08

> <r_epik_State_Penalty>
0.692284

> <r_epik_Charging_Adjusted_Penalty>
1.43416

> <i_epik_Tot_Q>
0

> <i_epik_Tot_abs_Q>
2

> <r_epik_Metal_State_Penalty>
0.692284

> <b_epik_Metal_Only>
0

> <s_lp_Force_Field>
OPLS_2005

> <r_lp_Energy>
27.3091

> <b_lp_Chiralities_Consistent>
1

> <s_lp_Variant>
AV-unprocessed.smi:1199-4

> <Gold.Version>
5.8.1

> <Gold.Id.Protein>
6NUR|6NUR_protein|mol2

> <Gold.PLP.Fitness>
37.4723

> <Gold.PLP.PLP>
-27.2174

> <Gold.PLP.part.hbond>
-4.0000

> <Gold.PLP.part.metal>
0.0000

> <Gold.PLP.part.buried>
-5.8930

> <Gold.PLP.part.nonpolar>
-17.5073

> <Gold.PLP.part.repulsive>
0.2616

> <Gold.PLP.ligand.clash>
0.0000

> <Gold.PLP.ligand.torsion>
0.3755

> <Gold.PLP.Chemscore.Hbond>
3.6503

> <Gold.PLP.Chemscore.CHOScore>
0.0000

> <Gold.PLP.Chemscore.Metal>
0.0000

> <Gold.Chemscore.Hbonds>
donor molecule, donor type, donor heavy atom, donor atom, acceptor molecule, acceptor atom, score
      P1  H  6896  6908       L1    12  1.00
      P1  H  6931  6943       L1    21  0.93
      P1  H  6934  6947       L1    21  0.74
      P1  H  7989  7998       L1     7  1.00

> <Gold.PLP.Chemscore.Internal.Correction>
0.0551

> <Gold.Rescore>
     Score         DG    S(hbond)    S(metal)    S(lipo)     H(rot)  DE(clash)    DE(int)     intcor
     13.23     -15.93       3.54        0.00      40.29       2.37       0.00       2.70       ----

> <Gold.Chemscore.Fitness>
13.2346

> <Gold.Chemscore.DG>
-15.9339

> <Gold.Chemscore.ZeroCoef>
-5.4800

> <Gold.Chemscore.Hbond>
3.5385

> <Gold.Chemscore.Metal>
0.0000

> <Gold.Chemscore.Lipo>
40.2947

> <Gold.Chemscore.Internal_Hbond>
0.0000

> <Gold.Chemscore.DEClash>
0.0000

> <Gold.Chemscore.DEInternal>
2.6993

> <Gold.Chemscore.Rot>
2.3747

> <Gold.Chemscore.Internal.Correction>
   9.000000E+99

> <Gold.Chemscore.Hbonds>
donor molecule, donor type, donor heavy atom, donor atom, acceptor molecule, acceptor atom, score
      P1  H  6896  6908       L1    12  0.93
      P1  H  6931  6943       L1    21  0.91
      P1  H  6934  6947       L1    21  0.69
      P1  H  7989  7998       L1     7  0.72

> <Gold.Chemscore.Hbond.Weighted>
-11.8186

> <Gold.Chemscore.Metal.Weighted>
-0.0000

> <Gold.Chemscore.Lipo.Weighted>
-4.7145

> <Gold.Chemscore.Internal_Hbond.Weighted>
0.0000

> <Gold.Chemscore.DEClash.Weighted>
0.0000

> <Gold.Chemscore.DEInternal.Weighted>
2.6993

> <Gold.Chemscore.Rot.Weighted>
6.0791

> <Gold.Chemscore.Internal.Correction.Weighted>
   9.000000E+99

> <Gold.Protein.RotatedTorsions>
[ 6907 6896 6895 6894 ] final  135.07 input  -60.11 | X-H torsion
[ 7974 7965 7964 7962 ] final  -97.93 input  175.53 | X-H torsion
[ 8008 7997 7996 7995 ] final -143.24 input   59.86 | X-H torsion
[ 10167 10162 10161 10158 ] final -138.12 input  -65.29 | X-H torsion
[ 10718 10713 10712 10709 ] final   92.90 input   66.30 | X-H torsion
[ 10763 10752 10751 10750 ] final  113.20 input  -60.55 | X-H torsion
[ 11005 11000 10999 10996 ] final  -50.13 input  -57.11 | X-H torsion

> <Gold.Protein.ActiveResidues>
 VAL166  LYS551  ARG553  GLY616  TRP617  ASP618  TYR619  PRO620  LYS621  CYS622 
 ASP623  PHE694  ASN695  SER759  ASP760  ASP761  ALA762  ILE779  LEU786  VAL792 
 PHE793  MET794  SER795  GLU796  ALA797  LYS798  CYS799  TRP800  GLU811  SER814 

> <Gold.Protein.RotatedAtoms>
  152.3045  133.5689  159.5639 H   0  0  0  0  0  0  0  0  0  0  0  0  # atno 6907 bound_to 6896
  150.7293  134.0243  159.3721 H   0  0  0  0  0  0  0  0  0  0  0  0  # atno 6908 bound_to 6896
  151.8141  135.0672  160.0467 H   0  0  0  0  0  0  0  0  0  0  0  0  # atno 6909 bound_to 6896
  145.3272  140.9434  143.2682 H   0  0  0  0  0  0  0  0  0  0  0  0  # atno 7974 bound_to 7965
  155.5074  140.0580  157.2929 H   0  0  0  0  0  0  0  0  0  0  0  0  # atno 8008 bound_to 7997
  154.4564  140.1975  156.0316 H   0  0  0  0  0  0  0  0  0  0  0  0  # atno 8009 bound_to 7997
  156.0807  140.3247  155.7695 H   0  0  0  0  0  0  0  0  0  0  0  0  # atno 8010 bound_to 7997
  139.8510  143.7199  152.2658 H   0  0  0  0  0  0  0  0  0  0  0  0  # atno 10167 bound_to 10162
  157.6957  131.0459  150.3952 H   0  0  0  0  0  0  0  0  0  0  0  0  # atno 10718 bound_to 10713
  153.4890  135.3663  155.2482 H   0  0  0  0  0  0  0  0  0  0  0  0  # atno 10763 bound_to 10752
  154.8753  135.3972  154.3611 H   0  0  0  0  0  0  0  0  0  0  0  0  # atno 10764 bound_to 10752
  153.4227  135.7080  153.6349 H   0  0  0  0  0  0  0  0  0  0  0  0  # atno 10765 bound_to 10752
  141.0798  133.6656  156.3686 H   0  0  0  0  0  0  0  0  0  0  0  0  # atno 11005 bound_to 11000
  144.8892  139.4797  143.6686 LP  0  0  0  0  0  0  0  0  0  0  0  0  # atno 17320 bound_to 7965
  146.3059  139.7580  142.9056 LP  0  0  0  0  0  0  0  0  0  0  0  0  # atno 17321 bound_to 7965
  139.7466  144.7545  151.0571 LP  0  0  0  0  0  0  0  0  0  0  0  0  # atno 17342 bound_to 10162
  140.7787  143.4909  150.9894 LP  0  0  0  0  0  0  0  0  0  0  0  0  # atno 17343 bound_to 10162
  156.4352  130.3980  149.6734 LP  0  0  0  0  0  0  0  0  0  0  0  0  # atno 17370 bound_to 10713
  156.3937  130.7640  151.2643 LP  0  0  0  0  0  0  0  0  0  0  0  0  # atno 17371 bound_to 10713
  140.5492  134.6044  157.5403 LP  0  0  0  0  0  0  0  0  0  0  0  0  # atno 17394 bound_to 11000
  139.9612  134.7450  156.0233 LP  0  0  0  0  0  0  0  0  0  0  0  0  # atno 17395 bound_to 11000

$$$$
