AV-unprocessed.smi:177|AV-procd|sdf|1441|dock6
  -GOLD-   2262019223D 1   1.00000     0.00000
 Structure written by MMmdl.
 61 65  0  0  0  0  0  0  0  0  1 V2000
  147.7353  132.5161  161.5728 C   0  0  0  0  0  0  0  0  0  0  0  0
  147.8411  133.6479  162.4227 O   0  0  0  0  0  0  0  0  0  0  0  0
  147.2433  134.8277  161.9012 C   0  0  2  0  0  0  0  0  0  0  0  0
  147.5236  136.0349  162.8188 C   0  0  0  0  0  0  0  0  0  0  0  0
  146.7738  137.2896  162.3444 C   0  0  0  0  0  0  0  0  0  0  0  0
  145.2573  137.0263  162.2576 C   0  0  1  0  0  0  0  0  0  0  0  0
  144.5121  138.1852  161.8787 O   0  0  0  0  0  0  0  0  0  0  0  0
  144.5954  138.5250  160.4988 C   0  0  0  0  0  0  0  0  0  0  0  0
  144.1016  137.3458  159.6436 C   0  0  0  0  0  0  0  0  0  0  0  0
  144.8560  136.1350  159.9468 N   0  0  0  0  0  0  0  0  0  0  0  0
  145.9021  135.8562  159.1328 C   0  0  0  0  0  0  0  0  0  0  0  0
  146.1460  134.5741  158.7569 N   0  0  0  0  0  0  0  0  0  0  0  0
  147.1590  134.2971  157.9317 C   0  0  0  0  0  0  0  0  0  0  0  0
  148.0423  135.1349  157.3866 N   0  0  0  0  0  0  0  0  0  0  0  0
  147.8238  136.4192  157.7894 C   0  0  0  0  0  0  0  0  0  0  0  0
  146.7843  136.8628  158.6542 C   0  0  0  0  0  0  0  0  0  0  0  0
  146.8728  138.2365  158.8378 N   0  0  0  0  0  0  0  0  0  0  0  0
  147.8925  138.5890  158.1044 C   0  0  0  0  0  0  0  0  0  0  0  0
  148.5378  137.5580  157.4574 N   0  0  0  0  0  0  0  0  0  0  0  0
  149.6937  137.6729  156.5801 C   0  0  0  0  0  0  0  0  0  0  0  0
  149.4725  138.4776  155.2582 C   0  0  0  0  0  0  0  0  0  0  0  0
  148.1844  138.0085  154.5237 C   0  0  0  0  0  0  0  0  0  0  0  0
  148.0379  138.5555  153.2278 O   0  0  0  0  0  0  0  0  0  0  0  0
  149.4197  140.0108  155.4845 C   0  0  0  0  0  0  0  0  0  0  0  0
  150.7808  140.6018  155.8955 C   0  0  0  0  0  0  0  0  0  0  0  0
  151.7626  140.2895  154.9164 O   0  0  0  0  0  0  0  0  0  0  0  0
  151.9718  138.8910  154.7737 C   0  0  0  0  0  0  0  0  0  0  0  0
  150.6699  138.2117  154.3100 C   0  0  0  0  0  0  0  0  0  0  0  0
  144.8919  135.8018  161.3798 C   0  0  1  0  0  0  0  0  0  0  0  0
  145.7262  134.5609  161.7900 C   0  0  0  0  0  0  0  0  0  0  0  0
  148.2094  131.6589  162.0506 H   0  0  0  0  0  0  0  0  0  0  0  0
  148.2305  132.6781  160.6155 H   0  0  0  0  0  0  0  0  0  0  0  0
  146.6914  132.2588  161.3883 H   0  0  0  0  0  0  0  0  0  0  0  0
  147.6510  135.0219  160.9103 H   0  0  0  0  0  0  0  0  0  0  0  0
  147.2219  135.7957  163.8395 H   0  0  0  0  0  0  0  0  0  0  0  0
  148.5913  136.2489  162.8559 H   0  0  0  0  0  0  0  0  0  0  0  0
  146.9629  138.1106  163.0362 H   0  0  0  0  0  0  0  0  0  0  0  0
  147.1748  137.6063  161.3840 H   0  0  0  0  0  0  0  0  0  0  0  0
  144.9303  136.7989  163.2731 H   0  0  0  0  0  0  0  0  0  0  0  0
  143.9696  139.3990  160.3182 H   0  0  0  0  0  0  0  0  0  0  0  0
  145.6117  138.8160  160.2356 H   0  0  0  0  0  0  0  0  0  0  0  0
  143.0475  137.1560  159.8473 H   0  0  0  0  0  0  0  0  0  0  0  0
  144.1734  137.5889  158.5825 H   0  0  0  0  0  0  0  0  0  0  0  0
  147.2769  133.2563  157.6694 H   0  0  0  0  0  0  0  0  0  0  0  0
  148.2142  139.6175  158.0267 H   0  0  0  0  0  0  0  0  0  0  0  0
  150.5043  138.0987  157.1697 H   0  0  0  0  0  0  0  0  0  0  0  0
  150.0179  136.6599  156.3376 H   0  0  0  0  0  0  0  0  0  0  0  0
  148.1856  136.9249  154.4011 H   0  0  0  0  0  0  0  0  0  0  0  0
  147.2987  138.2505  155.1119 H   0  0  0  0  0  0  0  0  0  0  0  0
  148.2005  137.8740  152.5934 H   0  0  0  0  0  0  0  0  0  0  0  0
  149.1080  140.4983  154.5597 H   0  0  0  0  0  0  0  0  0  0  0  0
  148.6638  140.2743  156.2235 H   0  0  0  0  0  0  0  0  0  0  0  0
  150.7030  141.6860  155.9755 H   0  0  0  0  0  0  0  0  0  0  0  0
  151.0997  140.2408  156.8732 H   0  0  0  0  0  0  0  0  0  0  0  0
  152.7543  138.7340  154.0311 H   0  0  0  0  0  0  0  0  0  0  0  0
  152.3417  138.4656  155.7068 H   0  0  0  0  0  0  0  0  0  0  0  0
  150.8324  137.1397  154.1917 H   0  0  0  0  0  0  0  0  0  0  0  0
  150.4415  138.5900  153.3127 H   0  0  0  0  0  0  0  0  0  0  0  0
  143.8551  135.5524  161.6092 H   0  0  0  0  0  0  0  0  0  0  0  0
  145.5273  133.7167  161.1326 H   0  0  0  0  0  0  0  0  0  0  0  0
  145.3763  134.2403  162.7722 H   0  0  0  0  0  0  0  0  0  0  0  0
  1  2  1  0  0  0  0
  1 31  1  0  0  0  0
  1 32  1  0  0  0  0
  1 33  1  0  0  0  0
  2  3  1  0  0  0  0
  3 30  1  0  0  0  0
  3  4  1  0  0  0  0
  3 34  1  0  0  0  0
  4  5  1  0  0  0  0
  4 35  1  0  0  0  0
  4 36  1  0  0  0  0
  5  6  1  0  0  0  0
  5 37  1  0  0  0  0
  5 38  1  0  0  0  0
  6 29  1  0  0  0  0
  6  7  1  0  0  0  0
  6 39  1  0  0  0  0
  7  8  1  0  0  0  0
  8  9  1  0  0  0  0
  8 40  1  0  0  0  0
  8 41  1  0  0  0  0
  9 10  1  0  0  0  0
  9 42  1  0  0  0  0
  9 43  1  0  0  0  0
 10 11  1  0  0  0  0
 10 29  1  0  0  0  0
 11 16  1  0  0  0  0
 11 12  2  0  0  0  0
 12 13  1  0  0  0  0
 13 14  2  0  0  0  0
 13 44  1  0  0  0  0
 14 15  1  0  0  0  0
 15 19  1  0  0  0  0
 15 16  2  0  0  0  0
 16 17  1  0  0  0  0
 17 18  2  0  0  0  0
 18 19  1  0  0  0  0
 18 45  1  0  0  0  0
 19 20  1  0  0  0  0
 20 21  1  0  0  0  0
 20 46  1  0  0  0  0
 20 47  1  0  0  0  0
 21 28  1  0  0  0  0
 21 22  1  0  0  0  0
 21 24  1  0  0  0  0
 22 23  1  0  0  0  0
 22 48  1  0  0  0  0
 22 49  1  0  0  0  0
 23 50  1  0  0  0  0
 24 25  1  0  0  0  0
 24 51  1  0  0  0  0
 24 52  1  0  0  0  0
 25 26  1  0  0  0  0
 25 53  1  0  0  0  0
 25 54  1  0  0  0  0
 26 27  1  0  0  0  0
 27 28  1  0  0  0  0
 27 55  1  0  0  0  0
 27 56  1  0  0  0  0
 28 57  1  0  0  0  0
 28 58  1  0  0  0  0
 29 30  1  0  0  0  0
 29 59  1  0  0  0  0
 30 60  1  0  0  0  0
 30 61  1  0  0  0  0
M  END
> <s_m_source_file>
AV-unprocessed.smi

> <i_m_source_file_index>
177

> <i_lp_mmshare_version>
43012

> <i_f3d_flags>
0

> <s_epik_input>
W0NIM11PW0NASF0oW0NIMl1bQ0gyXTEpW0NIMl1bQ0BIXShbQ0BASF0xMilOKFtDSDJdW0NIMl1PMiljKG5bY0hdbjMpYyhjMzQpbltjSF1uNFtDSDJdQzUoW0NIMl1bT0hdKVtDSDJdW0NIMl1PW0NIMl1bQ0gyXTU=

> <s_epik_cmdline>
J2VwaWtfcHl0aG9uJywgJy1waCcsICc3LjAnLCAnLXRuJywgJzgnLCAnLW1hJywgJzIwMCcsICctbWV0YWxfYmluZGluZycsICctaW1hZScsICc8aW5maWxlLm1hZT4nLCAnLW9tYWUnLCAnPG91dGZpbGUubWFlPic=

> <r_lp_tautomer_probability>
1

> <r_epik_Ionization_Penalty>
0.0065899

> <r_epik_Ionization_Penalty_Charging>
0

> <r_epik_Ionization_Penalty_Neutral>
0.0065899

> <r_epik_State_Penalty>
0.00470042

> <r_epik_Charging_Adjusted_Penalty>
0.00470042

> <i_epik_Tot_Q>
0

> <i_epik_Tot_abs_Q>
0

> <r_epik_Metal_State_Penalty>
-0

> <b_epik_Metal_Only>
0

> <s_lp_Force_Field>
OPLS_2005

> <r_lp_Energy>
52.4416

> <b_lp_Chiralities_Consistent>
1

> <s_lp_Variant>
AV-unprocessed.smi:177-5

> <Gold.Version>
5.8.1

> <Gold.Id.Protein>
6NUR|6NUR_protein|mol2

> <Gold.PLP.Fitness>
41.8272

> <Gold.PLP.PLP>
-36.8418

> <Gold.PLP.part.hbond>
-4.8258

> <Gold.PLP.part.metal>
0.0000

> <Gold.PLP.part.buried>
-4.5768

> <Gold.PLP.part.nonpolar>
-28.8817

> <Gold.PLP.part.repulsive>
0.0547

> <Gold.PLP.ligand.clash>
0.0000

> <Gold.PLP.ligand.torsion>
1.2199

> <Gold.PLP.Chemscore.Hbond>
2.1334

> <Gold.PLP.Chemscore.CHOScore>
0.0000

> <Gold.PLP.Chemscore.Metal>
0.0000

> <Gold.Chemscore.Hbonds>
donor molecule, donor type, donor heavy atom, donor atom, acceptor molecule, acceptor atom, score
      L1  H    23    50       P1  7948  1.00
      P1  H  6934  6947       L1    17  0.22
      P1  H  7989  7998       L1    26  0.87

> <Gold.PLP.Chemscore.Internal.Correction>
1.0250

> <Gold.Rescore>
     Score         DG    S(hbond)    S(metal)    S(lipo)     H(rot)  DE(clash)    DE(int)     intcor
     12.72     -16.44       1.96        0.00      88.55       2.32       0.30       3.42       ----

> <Gold.Chemscore.Fitness>
12.7219

> <Gold.Chemscore.DG>
-16.4425

> <Gold.Chemscore.ZeroCoef>
-5.4800

> <Gold.Chemscore.Hbond>
1.9561

> <Gold.Chemscore.Metal>
0.0000

> <Gold.Chemscore.Lipo>
88.5501

> <Gold.Chemscore.Internal_Hbond>
0.0000

> <Gold.Chemscore.DEClash>
0.3038

> <Gold.Chemscore.DEInternal>
3.4169

> <Gold.Chemscore.Rot>
2.3169

> <Gold.Chemscore.Internal.Correction>
   9.000000E+99

> <Gold.Chemscore.Hbonds>
donor molecule, donor type, donor heavy atom, donor atom, acceptor molecule, acceptor atom, score
      L1  H    23    50       P1  7948  0.99
      P1  H  6934  6947       L1    17  0.15
      P1  H  7989  7998       L1    26  0.47

> <Gold.Chemscore.Hbond.Weighted>
-6.5334

> <Gold.Chemscore.Metal.Weighted>
-0.0000

> <Gold.Chemscore.Lipo.Weighted>
-10.3604

> <Gold.Chemscore.Internal_Hbond.Weighted>
0.0000

> <Gold.Chemscore.DEClash.Weighted>
0.3038

> <Gold.Chemscore.DEInternal.Weighted>
3.4169

> <Gold.Chemscore.Rot.Weighted>
5.9313

> <Gold.Chemscore.Internal.Correction.Weighted>
   9.000000E+99

> <Gold.Protein.RotatedTorsions>
[ 6907 6896 6895 6894 ] final  -76.48 input  -60.11 | X-H torsion
[ 7974 7965 7964 7962 ] final  -80.66 input  175.53 | X-H torsion
[ 8008 7997 7996 7995 ] final  151.56 input   59.86 | X-H torsion
[ 10167 10162 10161 10158 ] final -148.33 input  -65.29 | X-H torsion
[ 10718 10713 10712 10709 ] final  167.97 input   66.30 | X-H torsion
[ 10763 10752 10751 10750 ] final  -47.35 input  -60.55 | X-H torsion
[ 11005 11000 10999 10996 ] final  174.26 input  -57.11 | X-H torsion

> <Gold.Protein.ActiveResidues>
 VAL166  LYS551  ARG553  GLY616  TRP617  ASP618  TYR619  PRO620  LYS621  CYS622 
 ASP623  PHE694  ASN695  SER759  ASP760  ASP761  ALA762  ILE779  LEU786  VAL792 
 PHE793  MET794  SER795  GLU796  ALA797  LYS798  CYS799  TRP800  GLU811  SER814 

> <Gold.Protein.RotatedAtoms>
  150.7026  134.4565  159.5360 H   0  0  0  0  0  0  0  0  0  0  0  0  # atno 6907 bound_to 6896
  152.2248  134.8376  160.0490 H   0  0  0  0  0  0  0  0  0  0  0  0  # atno 6908 bound_to 6896
  151.9213  133.3551  159.3935 H   0  0  0  0  0  0  0  0  0  0  0  0  # atno 6909 bound_to 6896
  145.5570  140.9488  143.1468 H   0  0  0  0  0  0  0  0  0  0  0  0  # atno 7974 bound_to 7965
  156.2668  140.2044  156.6195 H   0  0  0  0  0  0  0  0  0  0  0  0  # atno 8008 bound_to 7997
  154.6768  140.0544  157.0248 H   0  0  0  0  0  0  0  0  0  0  0  0  # atno 8009 bound_to 7997
  155.1058  140.3210  155.4538 H   0  0  0  0  0  0  0  0  0  0  0  0  # atno 8010 bound_to 7997
  139.7541  143.8474  152.2593 H   0  0  0  0  0  0  0  0  0  0  0  0  # atno 10167 bound_to 10162
  157.0438  131.0294  151.2704 H   0  0  0  0  0  0  0  0  0  0  0  0  # atno 10718 bound_to 10713
  154.0599  135.6619  153.4810 H   0  0  0  0  0  0  0  0  0  0  0  0  # atno 10763 bound_to 10752
  153.0431  135.5132  154.7669 H   0  0  0  0  0  0  0  0  0  0  0  0  # atno 10764 bound_to 10752
  154.6702  135.3028  154.9719 H   0  0  0  0  0  0  0  0  0  0  0  0  # atno 10765 bound_to 10752
  140.3494  134.7208  157.4257 H   0  0  0  0  0  0  0  0  0  0  0  0  # atno 11005 bound_to 11000
  144.7501  139.7215  143.7276 LP  0  0  0  0  0  0  0  0  0  0  0  0  # atno 17320 bound_to 7965
  146.1877  139.5101  142.9825 LP  0  0  0  0  0  0  0  0  0  0  0  0  # atno 17321 bound_to 7965
  139.8461  144.7187  150.9271 LP  0  0  0  0  0  0  0  0  0  0  0  0  # atno 17342 bound_to 10162
  140.7801  143.3940  151.1260 LP  0  0  0  0  0  0  0  0  0  0  0  0  # atno 17343 bound_to 10162
  157.5084  130.7923  149.7678 LP  0  0  0  0  0  0  0  0  0  0  0  0  # atno 17370 bound_to 10713
  156.0029  130.3870  150.2537 LP  0  0  0  0  0  0  0  0  0  0  0  0  # atno 17371 bound_to 10713
  140.0715  134.5856  155.8637 LP  0  0  0  0  0  0  0  0  0  0  0  0  # atno 17394 bound_to 11000
  141.2016  133.6620  156.5961 LP  0  0  0  0  0  0  0  0  0  0  0  0  # atno 17395 bound_to 11000

$$$$
