AV-unprocessed.smi:1538|AV-procd|sdf|6193|dock8
  -GOLD-   22720 6363D 1   1.00000     0.00000
 Structure written by MMmdl.
 37 38  0  0  0  0  0  0  0  0  2 V2000
  153.7033  142.2702  162.1125 C   0  0  0  0  0  0  0  0  0  0  0  0
  153.0044  142.1502  160.8321 N   0  0  0  0  0  0  0  0  0  0  0  0
  153.2616  140.9010  160.1018 C   0  0  0  0  0  0  0  0  0  0  0  0
  152.8782  140.9670  158.6178 C   0  0  0  0  0  0  0  0  0  0  0  0
  151.4740  141.5646  158.4640 C   0  0  2  0  0  0  0  0  0  0  0  0
  151.0481  141.5742  156.9892 C   0  0  0  0  0  0  0  0  0  0  0  0
  150.6762  142.6189  156.4538 O   0  0  0  0  0  0  0  0  0  0  0  0
  151.1117  140.4031  156.3392 N   0  0  0  0  0  0  0  0  0  0  0  0
  150.7593  140.2244  154.9379 C   0  0  0  0  0  0  0  0  0  0  0  0
  149.5688  139.2670  154.7957 C   0  0  0  0  0  0  0  0  0  0  0  0
  148.3652  139.9660  154.3409 N   0  0  0  0  0  0  0  0  0  0  0  0
  148.0615  141.2925  154.5103 C   0  0  0  0  0  0  0  0  0  0  0  0
  146.8416  141.4925  153.9168 C   0  0  0  0  0  0  0  0  0  0  0  0
  146.4529  140.2809  153.4112 N   0  3  0  0  0  0  0  0  0  0  0  0
  147.3814  139.3539  153.6692 C   0  0  0  0  0  0  0  0  0  0  0  0
  151.4497  142.9871  159.0591 C   0  0  0  0  0  0  0  0  0  0  0  0
  152.1430  143.1145  160.4262 C   0  0  0  0  0  0  0  0  0  0  0  0
  151.9098  144.1180  161.1007 O   0  0  0  0  0  0  0  0  0  0  0  0
  153.0034  142.4790  162.9232 H   0  0  0  0  0  0  0  0  0  0  0  0
  154.4311  143.0815  162.0718 H   0  0  0  0  0  0  0  0  0  0  0  0
  154.2377  141.3568  162.3764 H   0  0  0  0  0  0  0  0  0  0  0  0
  154.3150  140.6291  160.1840 H   0  0  0  0  0  0  0  0  0  0  0  0
  152.6954  140.1060  160.5888 H   0  0  0  0  0  0  0  0  0  0  0  0
  153.6080  141.5771  158.0828 H   0  0  0  0  0  0  0  0  0  0  0  0
  152.9263  139.9690  158.1800 H   0  0  0  0  0  0  0  0  0  0  0  0
  150.7721  140.9435  159.0240 H   0  0  0  0  0  0  0  0  0  0  0  0
  151.4269  139.5892  156.8471 H   0  0  0  0  0  0  0  0  0  0  0  0
  150.5155  141.1938  154.4999 H   0  0  0  0  0  0  0  0  0  0  0  0
  151.6222  139.8330  154.3966 H   0  0  0  0  0  0  0  0  0  0  0  0
  149.7930  138.4693  154.0856 H   0  0  0  0  0  0  0  0  0  0  0  0
  149.3376  138.7932  155.7508 H   0  0  0  0  0  0  0  0  0  0  0  0
  148.7191  141.9778  155.0253 H   0  0  0  0  0  0  0  0  0  0  0  0
  146.2377  142.3831  153.8185 H   0  0  0  0  0  0  0  0  0  0  0  0
  147.3433  138.3160  153.3888 H   0  0  0  0  0  0  0  0  0  0  0  0
  151.9437  143.6908  158.3872 H   0  0  0  0  0  0  0  0  0  0  0  0
  150.4178  143.3274  159.1563 H   0  0  0  0  0  0  0  0  0  0  0  0
  145.5887  140.1089  152.9125 H   0  0  0  0  0  0  0  0  0  0  0  0
  1  2  1  0  0  0  0
  1 19  1  0  0  0  0
  1 20  1  0  0  0  0
  1 21  1  0  0  0  0
  2 17  1  0  0  0  0
  2  3  1  0  0  0  0
  3  4  1  0  0  0  0
  3 22  1  0  0  0  0
  3 23  1  0  0  0  0
  4  5  1  0  0  0  0
  4 24  1  0  0  0  0
  4 25  1  0  0  0  0
  5  6  1  0  0  0  0
  5 16  1  0  0  0  0
  5 26  1  0  0  0  0
  6  7  2  0  0  0  0
  6  8  1  0  0  0  0
  8  9  1  0  0  0  0
  8 27  1  0  0  0  0
  9 10  1  0  0  0  0
  9 28  1  0  0  0  0
  9 29  1  0  0  0  0
 10 11  1  0  0  0  0
 10 30  1  0  0  0  0
 10 31  1  0  0  0  0
 11 15  1  0  0  0  0
 11 12  1  0  0  0  0
 12 13  2  0  0  0  0
 12 32  1  0  0  0  0
 13 14  1  0  0  0  0
 13 33  1  0  0  0  0
 14 15  2  0  0  0  0
 14 37  1  0  0  0  0
 15 34  1  0  0  0  0
 16 17  1  0  0  0  0
 16 35  1  0  0  0  0
 16 36  1  0  0  0  0
 17 18  2  0  0  0  0
M  CHG  1  14   1
M  END
> <s_m_source_file>
AV-unprocessed.smi

> <i_m_source_file_index>
1538

> <i_lp_mmshare_version>
43012

> <i_f3d_flags>
0

> <s_epik_input>
W0NIM11OMVtDSDJdW0NIMl1bQ0BIXShbQ0gyXUMxPU8pQyg9TylbTkhdW0NIMl1bQ0gyXW4yW2NIXVtjSF1uW2NIXTI=

> <s_epik_cmdline>
J2VwaWtfcHl0aG9uJywgJy1waCcsICc3LjAnLCAnLXRuJywgJzgnLCAnLW1hJywgJzIwMCcsICctbWV0YWxfYmluZGluZycsICctaW1hZScsICc8aW5maWxlLm1hZT4nLCAnLW9tYWUnLCAnPG91dGZpbGUubWFlPic=

> <r_lp_tautomer_probability>
1

> <r_epik_Ionization_Penalty>
0.272873

> <r_epik_Ionization_Penalty_Charging>
0

> <r_epik_Ionization_Penalty_Neutral>
0.272873

> <r_epik_State_Penalty>
0.265096

> <r_epik_Charging_Adjusted_Penalty>
0.265096

> <i_epik_Tot_Q>
1

> <i_epik_Tot_abs_Q>
1

> <r_epik_Metal_State_Penalty>
0.549113

> <b_epik_Metal_Only>
0

> <s_lp_Force_Field>
OPLS_2005

> <r_lp_Energy>
17.9959

> <b_lp_Chiralities_Consistent>
1

> <s_lp_Variant>
AV-unprocessed.smi:1538-2

> <Gold.Version>
5.8.1

> <Gold.Id.Protein>
6NUR|6NUR_protein|mol2

> <Gold.PLP.Fitness>
45.0469

> <Gold.PLP.PLP>
-37.5580

> <Gold.PLP.part.hbond>
-1.0000

> <Gold.PLP.part.metal>
0.0000

> <Gold.PLP.part.buried>
-3.6945

> <Gold.PLP.part.nonpolar>
-33.7686

> <Gold.PLP.part.repulsive>
1.2985

> <Gold.PLP.ligand.clash>
0.0000

> <Gold.PLP.ligand.torsion>
0.7649

> <Gold.PLP.Chemscore.Hbond>
2.0000

> <Gold.PLP.Chemscore.CHOScore>
1.0000

> <Gold.PLP.Chemscore.Metal>
0.0000

> <Gold.Chemscore.Hbonds>
donor molecule, donor type, donor heavy atom, donor atom, acceptor molecule, acceptor atom, score
      L1  H    14    37       P1 10175  2.00
      L1  C    12    32       P1  8028  0.31

> <Gold.PLP.Chemscore.Internal.Correction>
0.0186

> <Gold.Rescore>
     Score         DG    S(hbond)    S(metal)    S(lipo)     H(rot)  DE(clash)    DE(int)     intcor
     10.57     -11.60       0.99        0.00      68.90       2.05       0.41       0.62       ----

> <Gold.Chemscore.Fitness>
10.5722

> <Gold.Chemscore.DG>
-11.5952

> <Gold.Chemscore.ZeroCoef>
-5.4800

> <Gold.Chemscore.Hbond>
0.9867

> <Gold.Chemscore.Metal>
0.0000

> <Gold.Chemscore.Lipo>
68.9050

> <Gold.Chemscore.Internal_Hbond>
0.0000

> <Gold.Chemscore.DEClash>
0.4077

> <Gold.Chemscore.DEInternal>
0.6153

> <Gold.Chemscore.Rot>
2.0478

> <Gold.Chemscore.Internal.Correction>
   9.000000E+99

> <Gold.Chemscore.Hbonds>
donor molecule, donor type, donor heavy atom, donor atom, acceptor molecule, acceptor atom, score
      L1  H    14    37       P1 10175  0.93

> <Gold.Chemscore.Hbond.Weighted>
-3.2957

> <Gold.Chemscore.Metal.Weighted>
-0.0000

> <Gold.Chemscore.Lipo.Weighted>
-8.0619

> <Gold.Chemscore.Internal_Hbond.Weighted>
0.0000

> <Gold.Chemscore.DEClash.Weighted>
0.4077

> <Gold.Chemscore.DEInternal.Weighted>
0.6153

> <Gold.Chemscore.Rot.Weighted>
5.2423

> <Gold.Chemscore.Internal.Correction.Weighted>
   9.000000E+99

> <Gold.Protein.RotatedTorsions>
[ 6907 6896 6895 6894 ] final  138.65 input  -60.11 | X-H torsion
[ 7974 7965 7964 7962 ] final   43.28 input  175.53 | X-H torsion
[ 8008 7997 7996 7995 ] final   64.39 input   59.86 | X-H torsion
[ 10167 10162 10161 10158 ] final  149.10 input  -65.29 | X-H torsion
[ 10718 10713 10712 10709 ] final  -36.75 input   66.30 | X-H torsion
[ 10763 10752 10751 10750 ] final  162.45 input  -60.55 | X-H torsion
[ 11005 11000 10999 10996 ] final -146.67 input  -57.11 | X-H torsion

> <Gold.Protein.ActiveResidues>
 VAL166  LYS551  ARG553  GLY616  TRP617  ASP618  TYR619  PRO620  LYS621  CYS622 
 ASP623  PHE694  ASN695  SER759  ASP760  ASP761  ALA762  ILE779  LEU786  VAL792 
 PHE793  MET794  SER795  GLU796  ALA797  LYS798  CYS799  TRP800  GLU811  SER814 

> <Gold.Protein.RotatedAtoms>
  152.2642  133.5324  159.5399 H   0  0  0  0  0  0  0  0  0  0  0  0  # atno 6907 bound_to 6896
  150.7136  134.0788  159.3899 H   0  0  0  0  0  0  0  0  0  0  0  0  # atno 6908 bound_to 6896
  151.8705  135.0491  160.0529 H   0  0  0  0  0  0  0  0  0  0  0  0  # atno 6909 bound_to 6896
  146.0669  139.5204  142.9623 H   0  0  0  0  0  0  0  0  0  0  0  0  # atno 7974 bound_to 7965
  155.6453  140.3497  155.4729 H   0  0  0  0  0  0  0  0  0  0  0  0  # atno 8008 bound_to 7997
  155.9892  140.1190  157.0677 H   0  0  0  0  0  0  0  0  0  0  0  0  # atno 8009 bound_to 7997
  154.4214  140.1123  156.5528 H   0  0  0  0  0  0  0  0  0  0  0  0  # atno 8010 bound_to 7997
  139.4866  144.5628  151.7200 H   0  0  0  0  0  0  0  0  0  0  0  0  # atno 10167 bound_to 10162
  156.3232  130.4268  149.7940 H   0  0  0  0  0  0  0  0  0  0  0  0  # atno 10718 bound_to 10713
  154.2785  135.2764  155.2707 H   0  0  0  0  0  0  0  0  0  0  0  0  # atno 10763 bound_to 10752
  154.5239  135.5748  153.6707 H   0  0  0  0  0  0  0  0  0  0  0  0  # atno 10764 bound_to 10752
  152.9933  135.6211  154.2943 H   0  0  0  0  0  0  0  0  0  0  0  0  # atno 10765 bound_to 10752
  140.7796  134.3094  157.5049 H   0  0  0  0  0  0  0  0  0  0  0  0  # atno 11005 bound_to 11000
  145.6461  141.0273  143.1785 LP  0  0  0  0  0  0  0  0  0  0  0  0  # atno 17320 bound_to 7965
  144.7208  139.8038  143.7383 LP  0  0  0  0  0  0  0  0  0  0  0  0  # atno 17321 bound_to 7965
  140.5200  144.0893  150.6020 LP  0  0  0  0  0  0  0  0  0  0  0  0  # atno 17342 bound_to 10162
  140.3848  143.2783  152.0129 LP  0  0  0  0  0  0  0  0  0  0  0  0  # atno 17343 bound_to 10162
  156.5240  130.8228  151.3214 LP  0  0  0  0  0  0  0  0  0  0  0  0  # atno 17370 bound_to 10713
  157.7416  130.9873  150.2457 LP  0  0  0  0  0  0  0  0  0  0  0  0  # atno 17371 bound_to 10713
  139.8744  134.9310  156.3518 LP  0  0  0  0  0  0  0  0  0  0  0  0  # atno 17394 bound_to 11000
  140.9495  133.7460  156.0253 LP  0  0  0  0  0  0  0  0  0  0  0  0  # atno 17395 bound_to 11000

$$$$
