AV-unprocessed.smi:2651|AV-procd|sdf|10292|dock7
  -GOLD-   2272014303D 1   1.00000     0.00000
 Structure written by MMmdl.
 43 44  0  0  0  0  0  0  0  0  1 V2000
  152.0826  139.6036  156.2471 C   0  0  0  0  0  0  0  0  0  0  0  0
  151.5515  138.2781  155.8209 C   0  0  0  0  0  0  0  0  0  0  0  0
  150.5227  137.9084  155.0011 C   0  0  0  0  0  0  0  0  0  0  0  0
  150.5721  136.4899  155.0461 C   0  0  0  0  0  0  0  0  0  0  0  0
  149.6431  135.7070  154.3153 N   0  0  0  0  0  0  0  0  0  0  0  0
  149.0597  134.5580  154.6955 C   0  0  0  0  0  0  0  0  0  0  0  0
  149.2613  133.9849  155.7661 O   0  0  0  0  0  0  0  0  0  0  0  0
  148.2152  134.1157  153.7487 N   0  0  0  0  0  0  0  0  0  0  0  0
  147.3575  132.9206  153.7556 C   0  0  1  0  0  0  0  0  0  0  0  0
  148.2248  131.6521  153.9584 C   0  0  0  0  0  0  0  0  0  0  0  0
  146.3468  133.0214  154.9359 C   0  0  0  0  0  0  0  0  0  0  0  0
  145.6339  131.8172  155.1367 O   0  0  0  0  0  0  0  0  0  0  0  0
  146.6239  132.8677  152.3677 C   0  0  0  0  0  0  0  0  0  0  0  0
  145.6884  134.0817  152.1145 C   0  0  0  0  0  0  0  0  0  0  0  0
  145.0193  134.0257  150.7316 C   0  0  0  0  0  0  0  0  0  0  0  0
  144.2365  132.7206  150.5440 C   0  0  0  0  0  0  0  0  0  0  0  0
  145.1491  131.5080  150.7629 C   0  0  0  0  0  0  0  0  0  0  0  0
  145.8212  131.5566  152.1442 C   0  0  0  0  0  0  0  0  0  0  0  0
  151.5467  136.0345  155.8183 N   0  0  0  0  0  0  0  0  0  0  0  0
  152.1793  137.1784  156.3190 O   0  0  0  0  0  0  0  0  0  0  0  0
  151.3933  140.4042  155.9782 H   0  0  0  0  0  0  0  0  0  0  0  0
  153.0409  139.8070  155.7693 H   0  0  0  0  0  0  0  0  0  0  0  0
  152.2287  139.6333  157.3272 H   0  0  0  0  0  0  0  0  0  0  0  0
  149.8436  138.5513  154.4613 H   0  0  0  0  0  0  0  0  0  0  0  0
  149.3815  136.0700  153.4108 H   0  0  0  0  0  0  0  0  0  0  0  0
  148.1450  134.6803  152.9148 H   0  0  0  0  0  0  0  0  0  0  0  0
  147.6483  130.7456  153.7713 H   0  0  0  0  0  0  0  0  0  0  0  0
  148.6060  131.5781  154.9771 H   0  0  0  0  0  0  0  0  0  0  0  0
  149.0923  131.6354  153.2990 H   0  0  0  0  0  0  0  0  0  0  0  0
  146.8553  133.2579  155.8708 H   0  0  0  0  0  0  0  0  0  0  0  0
  145.6295  133.8265  154.7763 H   0  0  0  0  0  0  0  0  0  0  0  0
  144.7176  131.9804  154.9729 H   0  0  0  0  0  0  0  0  0  0  0  0
  147.3889  132.9066  151.5908 H   0  0  0  0  0  0  0  0  0  0  0  0
  144.9142  134.1309  152.8806 H   0  0  0  0  0  0  0  0  0  0  0  0
  146.2429  135.0168  152.1780 H   0  0  0  0  0  0  0  0  0  0  0  0
  144.3518  134.8789  150.6078 H   0  0  0  0  0  0  0  0  0  0  0  0
  145.7788  134.1129  149.9536 H   0  0  0  0  0  0  0  0  0  0  0  0
  143.4036  132.6866  151.2477 H   0  0  0  0  0  0  0  0  0  0  0  0
  143.8017  132.6858  149.5446 H   0  0  0  0  0  0  0  0  0  0  0  0
  144.5723  130.5880  150.6638 H   0  0  0  0  0  0  0  0  0  0  0  0
  145.9131  131.4785  149.9850 H   0  0  0  0  0  0  0  0  0  0  0  0
  146.4708  130.6866  152.2286 H   0  0  0  0  0  0  0  0  0  0  0  0
  145.0573  131.4456  152.9143 H   0  0  0  0  0  0  0  0  0  0  0  0
  1  2  1  0  0  0  0
  1 21  1  0  0  0  0
  1 22  1  0  0  0  0
  1 23  1  0  0  0  0
  2 20  1  0  0  0  0
  2  3  2  0  0  0  0
  3  4  1  0  0  0  0
  3 24  1  0  0  0  0
  4  5  1  0  0  0  0
  4 19  2  0  0  0  0
  5  6  1  0  0  0  0
  5 25  1  0  0  0  0
  6  7  2  0  0  0  0
  6  8  1  0  0  0  0
  8  9  1  0  0  0  0
  8 26  1  0  0  0  0
  9 10  1  0  0  0  0
  9 11  1  0  0  0  0
  9 13  1  0  0  0  0
 10 27  1  0  0  0  0
 10 28  1  0  0  0  0
 10 29  1  0  0  0  0
 11 12  1  0  0  0  0
 11 30  1  0  0  0  0
 11 31  1  0  0  0  0
 12 32  1  0  0  0  0
 13 18  1  0  0  0  0
 13 14  1  0  0  0  0
 13 33  1  0  0  0  0
 14 15  1  0  0  0  0
 14 34  1  0  0  0  0
 14 35  1  0  0  0  0
 15 16  1  0  0  0  0
 15 36  1  0  0  0  0
 15 37  1  0  0  0  0
 16 17  1  0  0  0  0
 16 38  1  0  0  0  0
 16 39  1  0  0  0  0
 17 18  1  0  0  0  0
 17 40  1  0  0  0  0
 17 41  1  0  0  0  0
 18 42  1  0  0  0  0
 18 43  1  0  0  0  0
 19 20  1  0  0  0  0
M  END
> <s_m_source_file>
AV-unprocessed.smi

> <i_m_source_file_index>
2651

> <i_lp_mmshare_version>
43012

> <i_f3d_flags>
0

> <s_epik_input>
W0NIM11jMVtjSF1jKG5vMSlbTkhdQyg9TylbTkhdW0NAQF0oW0NIM10pKFtDSDJdW09IXSlbQ0hdMltDSDJdW0NIMl1bQ0gyXVtDSDJdW0NIMl0y

> <s_epik_cmdline>
J2VwaWtfcHl0aG9uJywgJy1waCcsICc3LjAnLCAnLXRuJywgJzgnLCAnLW1hJywgJzIwMCcsICctbWV0YWxfYmluZGluZycsICctaW1hZScsICc8aW5maWxlLm1hZT4nLCAnLW9tYWUnLCAnPG91dGZpbGUubWFlPic=

> <r_lp_tautomer_probability>
1

> <r_epik_Ionization_Penalty>
2.26451e-05

> <r_epik_Ionization_Penalty_Charging>
0

> <r_epik_Ionization_Penalty_Neutral>
2.26451e-05

> <r_epik_State_Penalty>
-0

> <r_epik_Charging_Adjusted_Penalty>
0

> <i_epik_Tot_Q>
0

> <i_epik_Tot_abs_Q>
0

> <r_epik_Metal_State_Penalty>
-0

> <b_epik_Metal_Only>
0

> <s_lp_Force_Field>
OPLS_2005

> <r_lp_Energy>
17.1045

> <b_lp_Chiralities_Consistent>
1

> <s_lp_Variant>
AV-unprocessed.smi:2651-1

> <Gold.Version>
5.8.1

> <Gold.Id.Protein>
6NUR|6NUR_protein|mol2

> <Gold.PLP.Fitness>
41.3102

> <Gold.PLP.PLP>
-31.1414

> <Gold.PLP.part.hbond>
-5.2928

> <Gold.PLP.part.metal>
0.0000

> <Gold.PLP.part.buried>
-3.3043

> <Gold.PLP.part.nonpolar>
-23.5769

> <Gold.PLP.part.repulsive>
0.1214

> <Gold.PLP.ligand.clash>
0.0000

> <Gold.PLP.ligand.torsion>
0.4153

> <Gold.PLP.Chemscore.Hbond>
3.6533

> <Gold.PLP.Chemscore.CHOScore>
0.0000

> <Gold.PLP.Chemscore.Metal>
0.0000

> <Gold.Chemscore.Hbonds>
donor molecule, donor type, donor heavy atom, donor atom, acceptor molecule, acceptor atom, score
      L1  H     5    25       P1  7948  1.00
      L1  H     8    26       P1  7948  0.91
      L1  H    12    32       P1 10957  0.98
      P1  H 10752 10763       L1    19  0.75

> <Gold.PLP.Chemscore.Internal.Correction>
0.0396

> <Gold.Rescore>
     Score         DG    S(hbond)    S(metal)    S(lipo)     H(rot)  DE(clash)    DE(int)     intcor
     15.56     -16.30       2.49        0.00      67.28       2.09       0.01       0.73       ----

> <Gold.Chemscore.Fitness>
15.5624

> <Gold.Chemscore.DG>
-16.2962

> <Gold.Chemscore.ZeroCoef>
-5.4800

> <Gold.Chemscore.Hbond>
2.4863

> <Gold.Chemscore.Metal>
0.0000

> <Gold.Chemscore.Lipo>
67.2772

> <Gold.Chemscore.Internal_Hbond>
0.0000

> <Gold.Chemscore.DEClash>
0.0060

> <Gold.Chemscore.DEInternal>
0.7278

> <Gold.Chemscore.Rot>
2.0935

> <Gold.Chemscore.Internal.Correction>
   9.000000E+99

> <Gold.Chemscore.Hbonds>
donor molecule, donor type, donor heavy atom, donor atom, acceptor molecule, acceptor atom, score
      L1  H     5    25       P1  7948  0.59
      L1  H     8    26       P1  7948  0.60
      L1  H    12    32       P1 10957  0.37
      P1  H 10752 10763       L1    19  0.04

> <Gold.Chemscore.Hbond.Weighted>
-8.3042

> <Gold.Chemscore.Metal.Weighted>
-0.0000

> <Gold.Chemscore.Lipo.Weighted>
-7.8714

> <Gold.Chemscore.Internal_Hbond.Weighted>
0.0000

> <Gold.Chemscore.DEClash.Weighted>
0.0060

> <Gold.Chemscore.DEInternal.Weighted>
0.7278

> <Gold.Chemscore.Rot.Weighted>
5.3594

> <Gold.Chemscore.Internal.Correction.Weighted>
   9.000000E+99

> <Gold.Protein.RotatedTorsions>
[ 6907 6896 6895 6894 ] final   88.83 input  -60.11 | X-H torsion
[ 7974 7965 7964 7962 ] final   35.11 input  175.53 | X-H torsion
[ 8008 7997 7996 7995 ] final   90.36 input   59.86 | X-H torsion
[ 10167 10162 10161 10158 ] final  -43.06 input  -65.29 | X-H torsion
[ 10718 10713 10712 10709 ] final  137.27 input   66.30 | X-H torsion
[ 10763 10752 10751 10750 ] final   58.33 input  -60.55 | X-H torsion
[ 11005 11000 10999 10996 ] final  -20.76 input  -57.11 | X-H torsion

> <Gold.Protein.ActiveResidues>
 VAL166  LYS551  ARG553  GLY616  TRP617  ASP618  TYR619  PRO620  LYS621  CYS622 
 ASP623  PHE694  ASN695  SER759  ASP760  ASP761  ALA762  ILE779  LEU786  VAL792 
 PHE793  MET794  SER795  GLU796  ALA797  LYS798  CYS799  TRP800  GLU811  SER814 

> <Gold.Protein.RotatedAtoms>
  152.5429  134.2060  159.8730 H   0  0  0  0  0  0  0  0  0  0  0  0  # atno 6907 bound_to 6896
  151.2046  133.4584  159.2604 H   0  0  0  0  0  0  0  0  0  0  0  0  # atno 6908 bound_to 6896
  151.0956  134.9954  159.8479 H   0  0  0  0  0  0  0  0  0  0  0  0  # atno 6909 bound_to 6896
  146.1306  139.6184  142.9229 H   0  0  0  0  0  0  0  0  0  0  0  0  # atno 7974 bound_to 7965
  156.0110  140.3350  155.6941 H   0  0  0  0  0  0  0  0  0  0  0  0  # atno 8008 bound_to 7997
  155.6158  140.0670  157.2710 H   0  0  0  0  0  0  0  0  0  0  0  0  # atno 8009 bound_to 7997
  154.4281  140.1785  156.1307 H   0  0  0  0  0  0  0  0  0  0  0  0  # atno 8010 bound_to 7997
  140.6947  143.3003  151.3298 H   0  0  0  0  0  0  0  0  0  0  0  0  # atno 10167 bound_to 10162
  157.4379  131.1055  151.0177 H   0  0  0  0  0  0  0  0  0  0  0  0  # atno 10718 bound_to 10713
  152.9868  135.5610  154.5535 H   0  0  0  0  0  0  0  0  0  0  0  0  # atno 10763 bound_to 10752
  154.4967  135.2795  155.1455 H   0  0  0  0  0  0  0  0  0  0  0  0  # atno 10764 bound_to 10752
  154.2902  135.6327  153.5435 H   0  0  0  0  0  0  0  0  0  0  0  0  # atno 10765 bound_to 10752
  140.8495  133.7867  155.9950 H   0  0  0  0  0  0  0  0  0  0  0  0  # atno 11005 bound_to 11000
  145.5269  141.0429  143.2404 LP  0  0  0  0  0  0  0  0  0  0  0  0  # atno 17320 bound_to 7965
  144.7686  139.6786  143.7204 LP  0  0  0  0  0  0  0  0  0  0  0  0  # atno 17321 bound_to 7965
  139.6389  144.0577  152.2538 LP  0  0  0  0  0  0  0  0  0  0  0  0  # atno 17342 bound_to 10162
  140.0076  144.6247  150.7675 LP  0  0  0  0  0  0  0  0  0  0  0  0  # atno 17343 bound_to 10162
  157.1050  130.5998  149.5469 LP  0  0  0  0  0  0  0  0  0  0  0  0  # atno 17370 bound_to 10713
  155.9937  130.4999  150.7392 LP  0  0  0  0  0  0  0  0  0  0  0  0  # atno 17371 bound_to 10713
  140.8805  134.2616  157.5146 LP  0  0  0  0  0  0  0  0  0  0  0  0  # atno 17394 bound_to 11000
  139.8704  134.9613  156.4391 LP  0  0  0  0  0  0  0  0  0  0  0  0  # atno 17395 bound_to 11000

$$$$
