AV-unprocessed.smi:2999|AV-procd|sdf|11420|dock5
  -GOLD-   2272016343D 1   1.00000     0.00000
 Structure written by MMmdl.
 38 40  0  0  0  0  0  0  0  0  2 V2000
  146.4218  139.5651  153.8118 O   0  0  0  0  0  0  0  0  0  0  0  0
  147.2232  138.7471  153.3599 C   0  0  0  0  0  0  0  0  0  0  0  0
  146.8626  137.6975  152.6080 N   0  0  0  0  0  0  0  0  0  0  0  0
  145.4927  137.3698  152.2213 C   0  0  0  0  0  0  0  0  0  0  0  0
  145.3191  135.9027  151.7771 C   0  0  1  0  0  0  0  0  0  0  0  0
  145.4971  135.6893  150.2556 C   0  0  0  0  0  0  0  0  0  0  0  0
  145.3707  134.2586  149.8904 N   0  3  2  0  0  0  0  0  0  0  0  0
  143.9698  133.7772  149.8646 C   0  0  0  0  0  0  0  0  0  0  0  0
  143.8405  132.2886  150.0864 C   0  0  0  0  0  0  0  0  0  0  0  0
  143.6640  132.8654  148.6994 C   0  0  0  0  0  0  0  0  0  0  0  0
  146.2666  133.4186  150.7200 C   0  0  0  0  0  0  0  0  0  0  0  0
  146.0661  133.6985  152.2207 C   0  0  0  0  0  0  0  0  0  0  0  0
  146.2497  135.0846  152.4791 O   0  0  0  0  0  0  0  0  0  0  0  0
  148.5539  138.7756  153.5485 N   0  0  0  0  0  0  0  0  0  0  0  0
  149.3147  139.7170  154.2904 C   0  0  0  0  0  0  0  0  0  0  0  0
  150.4564  139.4306  154.9269 N   0  0  0  0  0  0  0  0  0  0  0  0
  150.9897  140.5479  155.5744 C   0  0  0  0  0  0  0  0  0  0  0  0
  150.2366  141.6848  155.4174 C   0  0  0  0  0  0  0  0  0  0  0  0
  148.8186  141.3958  154.4453 S   0  0  0  0  0  0  0  0  0  0  0  0
  147.5890  137.0810  152.2745 H   0  0  0  0  0  0  0  0  0  0  0  0
  144.8006  137.6065  153.0311 H   0  0  0  0  0  0  0  0  0  0  0  0
  145.2250  138.0278  151.3943 H   0  0  0  0  0  0  0  0  0  0  0  0
  144.3134  135.5980  152.0703 H   0  0  0  0  0  0  0  0  0  0  0  0
  144.7782  136.2869  149.6940 H   0  0  0  0  0  0  0  0  0  0  0  0
  146.4876  136.0214  149.9428 H   0  0  0  0  0  0  0  0  0  0  0  0
  143.2079  134.4553  150.2438 H   0  0  0  0  0  0  0  0  0  0  0  0
  144.7459  131.7162  150.2811 H   0  0  0  0  0  0  0  0  0  0  0  0
  142.9471  131.9325  150.5955 H   0  0  0  0  0  0  0  0  0  0  0  0
  142.6541  132.8899  148.2949 H   0  0  0  0  0  0  0  0  0  0  0  0
  144.4512  132.6740  147.9723 H   0  0  0  0  0  0  0  0  0  0  0  0
  146.1083  132.3627  150.4984 H   0  0  0  0  0  0  0  0  0  0  0  0
  147.2984  133.6422  150.4457 H   0  0  0  0  0  0  0  0  0  0  0  0
  145.0782  133.3803  152.5563 H   0  0  0  0  0  0  0  0  0  0  0  0
  146.7927  133.1341  152.8057 H   0  0  0  0  0  0  0  0  0  0  0  0
  149.0863  138.0386  153.1107 H   0  0  0  0  0  0  0  0  0  0  0  0
  151.9124  140.4445  156.1257 H   0  0  0  0  0  0  0  0  0  0  0  0
  150.4299  142.6706  155.8132 H   0  0  0  0  0  0  0  0  0  0  0  0
  145.6995  134.1752  148.9391 H   0  0  0  0  0  0  0  0  0  0  0  0
  1  2  2  0  0  0  0
  2  3  1  0  0  0  0
  2 14  1  0  0  0  0
  3  4  1  0  0  0  0
  3 20  1  0  0  0  0
  4  5  1  0  0  0  0
  4 21  1  0  0  0  0
  4 22  1  0  0  0  0
  5 13  1  0  0  0  0
  5  6  1  0  0  0  0
  5 23  1  0  0  0  0
  6  7  1  0  0  0  0
  6 24  1  0  0  0  0
  6 25  1  0  0  0  0
  7  8  1  0  0  0  0
  7 11  1  0  0  0  0
  7 38  1  0  0  0  0
  8 10  1  0  0  0  0
  8  9  1  0  0  0  0
  8 26  1  0  0  0  0
  9 10  1  0  0  0  0
  9 27  1  0  0  0  0
  9 28  1  0  0  0  0
 10 29  1  0  0  0  0
 10 30  1  0  0  0  0
 11 12  1  0  0  0  0
 11 31  1  0  0  0  0
 11 32  1  0  0  0  0
 12 13  1  0  0  0  0
 12 33  1  0  0  0  0
 12 34  1  0  0  0  0
 14 15  1  0  0  0  0
 14 35  1  0  0  0  0
 15 19  1  0  0  0  0
 15 16  2  0  0  0  0
 16 17  1  0  0  0  0
 17 18  2  0  0  0  0
 17 36  1  0  0  0  0
 18 19  1  0  0  0  0
 18 37  1  0  0  0  0
M  CHG  1   7   1
M  END
> <s_m_source_file>
AV-unprocessed.smi

> <i_m_source_file_index>
2999

> <i_lp_mmshare_version>
43012

> <i_f3d_flags>
0

> <s_epik_input>
czFbY0hdW2NIXW5jMVtOSF1DKD1PKVtOSF1bQ0gyXVtDQEBIXTJbQ0gyXU4oW0NIMl1bQ0gyXU8yKVtDSF0zW0NIMl1bQ0gyXTM=

> <s_epik_cmdline>
J2VwaWtfcHl0aG9uJywgJy1waCcsICc3LjAnLCAnLXRuJywgJzgnLCAnLW1hJywgJzIwMCcsICctbWV0YWxfYmluZGluZycsICctaW1hZScsICc8aW5maWxlLm1hZT4nLCAnLW9tYWUnLCAnPG91dGZpbGUubWFlPic=

> <r_lp_tautomer_probability>
0.999

> <r_epik_Ionization_Penalty>
1.55235

> <r_epik_Ionization_Penalty_Charging>
1.55221

> <r_epik_Ionization_Penalty_Neutral>
0.000139685

> <r_epik_State_Penalty>
1.64652

> <r_epik_Charging_Adjusted_Penalty>
3.19873

> <i_epik_Tot_Q>
1

> <i_epik_Tot_abs_Q>
1

> <r_epik_Metal_State_Penalty>
1.68612

> <b_epik_Metal_Only>
0

> <s_lp_Force_Field>
OPLS_2005

> <r_lp_Energy>
24.3861

> <b_lp_Chiralities_Consistent>
1

> <s_lp_Variant>
AV-unprocessed.smi:2999-4

> <Gold.Version>
5.8.1

> <Gold.Id.Protein>
6NUR|6NUR_protein|mol2

> <Gold.PLP.Fitness>
44.2971

> <Gold.PLP.PLP>
-35.2911

> <Gold.PLP.part.hbond>
-3.8399

> <Gold.PLP.part.metal>
0.0000

> <Gold.PLP.part.buried>
-1.1455

> <Gold.PLP.part.nonpolar>
-31.5722

> <Gold.PLP.part.repulsive>
1.5828

> <Gold.PLP.ligand.clash>
0.0000

> <Gold.PLP.ligand.torsion>
1.5807

> <Gold.PLP.Chemscore.Hbond>
2.6373

> <Gold.PLP.Chemscore.CHOScore>
0.9929

> <Gold.PLP.Chemscore.Metal>
0.0000

> <Gold.Chemscore.Hbonds>
donor molecule, donor type, donor heavy atom, donor atom, acceptor molecule, acceptor atom, score
      L1  H     3    20       P1  7948  1.00
      L1  H     7    38       P1  7921  0.96
      L1  H    14    35       P1  7948  0.59
      L1  C    18    37       P1  8028  0.85

> <Gold.PLP.Chemscore.Internal.Correction>
1.2768

> <Gold.Rescore>
     Score         DG    S(hbond)    S(metal)    S(lipo)     H(rot)  DE(clash)    DE(int)     intcor
     15.84     -18.74       2.36        0.00      80.52       1.58       0.42       2.48       ----

> <Gold.Chemscore.Fitness>
15.8445

> <Gold.Chemscore.DG>
-18.7421

> <Gold.Chemscore.ZeroCoef>
-5.4800

> <Gold.Chemscore.Hbond>
2.3606

> <Gold.Chemscore.Metal>
0.0000

> <Gold.Chemscore.Lipo>
80.5228

> <Gold.Chemscore.Internal_Hbond>
0.0000

> <Gold.Chemscore.DEClash>
0.4155

> <Gold.Chemscore.DEInternal>
2.4822

> <Gold.Chemscore.Rot>
1.5795

> <Gold.Chemscore.Internal.Correction>
   9.000000E+99

> <Gold.Chemscore.Hbonds>
donor molecule, donor type, donor heavy atom, donor atom, acceptor molecule, acceptor atom, score
      L1  H     3    20       P1  7948  1.00
      L1  H     7    38       P1  7921  0.56
      L1  H    14    35       P1  7948  0.58

> <Gold.Chemscore.Hbond.Weighted>
-7.8843

> <Gold.Chemscore.Metal.Weighted>
-0.0000

> <Gold.Chemscore.Lipo.Weighted>
-9.4212

> <Gold.Chemscore.Internal_Hbond.Weighted>
0.0000

> <Gold.Chemscore.DEClash.Weighted>
0.4155

> <Gold.Chemscore.DEInternal.Weighted>
2.4822

> <Gold.Chemscore.Rot.Weighted>
4.0434

> <Gold.Chemscore.Internal.Correction.Weighted>
   9.000000E+99

> <Gold.Protein.RotatedTorsions>
[ 6907 6896 6895 6894 ] final  122.47 input  -60.11 | X-H torsion
[ 7974 7965 7964 7962 ] final -155.59 input  175.53 | X-H torsion
[ 8008 7997 7996 7995 ] final   72.27 input   59.86 | X-H torsion
[ 10167 10162 10161 10158 ] final   40.12 input  -65.29 | X-H torsion
[ 10718 10713 10712 10709 ] final -122.61 input   66.30 | X-H torsion
[ 10763 10752 10751 10750 ] final  -86.02 input  -60.55 | X-H torsion
[ 11005 11000 10999 10996 ] final  150.23 input  -57.11 | X-H torsion

> <Gold.Protein.ActiveResidues>
 VAL166  LYS551  ARG553  GLY616  TRP617  ASP618  TYR619  PRO620  LYS621  CYS622 
 ASP623  PHE694  ASN695  SER759  ASP760  ASP761  ALA762  ILE779  LEU786  VAL792 
 PHE793  MET794  SER795  GLU796  ALA797  LYS798  CYS799  TRP800  GLU811  SER814 

> <Gold.Protein.RotatedAtoms>
  152.4240  133.7164  159.6508 H   0  0  0  0  0  0  0  0  0  0  0  0  # atno 6907 bound_to 6896
  150.8116  133.8400  159.3185 H   0  0  0  0  0  0  0  0  0  0  0  0  # atno 6908 bound_to 6896
  151.6108  135.1042  160.0132 H   0  0  0  0  0  0  0  0  0  0  0  0  # atno 6909 bound_to 6896
  144.7633  140.4229  143.5960 H   0  0  0  0  0  0  0  0  0  0  0  0  # atno 7974 bound_to 7965
  155.7663  140.3485  155.5224 H   0  0  0  0  0  0  0  0  0  0  0  0  # atno 8008 bound_to 7997
  155.8865  140.1010  157.1470 H   0  0  0  0  0  0  0  0  0  0  0  0  # atno 8009 bound_to 7997
  154.4029  140.1312  156.4249 H   0  0  0  0  0  0  0  0  0  0  0  0  # atno 8010 bound_to 7997
  140.3773  144.2026  150.6131 H   0  0  0  0  0  0  0  0  0  0  0  0  # atno 10167 bound_to 10162
  156.1433  130.6481  150.9804 H   0  0  0  0  0  0  0  0  0  0  0  0  # atno 10718 bound_to 10713
  154.6178  135.5464  153.7542 H   0  0  0  0  0  0  0  0  0  0  0  0  # atno 10763 bound_to 10752
  153.0224  135.6405  154.1485 H   0  0  0  0  0  0  0  0  0  0  0  0  # atno 10764 bound_to 10752
  154.1421  135.2908  155.3138 H   0  0  0  0  0  0  0  0  0  0  0  0  # atno 10765 bound_to 10752
  140.1113  134.8922  157.1941 H   0  0  0  0  0  0  0  0  0  0  0  0  # atno 11005 bound_to 11000
  145.6550  139.1571  143.2841 LP  0  0  0  0  0  0  0  0  0  0  0  0  # atno 17320 bound_to 7965
  146.1717  140.6635  142.9230 LP  0  0  0  0  0  0  0  0  0  0  0  0  # atno 17321 bound_to 7965
  140.4973  143.2328  151.8730 LP  0  0  0  0  0  0  0  0  0  0  0  0  # atno 17342 bound_to 10162
  139.4798  144.5099  151.8947 LP  0  0  0  0  0  0  0  0  0  0  0  0  # atno 17343 bound_to 10162
  157.6594  131.0883  150.7872 LP  0  0  0  0  0  0  0  0  0  0  0  0  # atno 17370 bound_to 10713
  156.7946  130.4901  149.5379 LP  0  0  0  0  0  0  0  0  0  0  0  0  # atno 17371 bound_to 10713
  140.3087  134.3049  155.7272 LP  0  0  0  0  0  0  0  0  0  0  0  0  # atno 17394 bound_to 11000
  141.2131  133.7637  156.9745 LP  0  0  0  0  0  0  0  0  0  0  0  0  # atno 17395 bound_to 11000

$$$$
