AV-unprocessed.smi:2775|AV-procd|sdf|10693|dock3
  -GOLD-   2272015133D 1   1.00000     0.00000
 Structure written by MMmdl.
 42 45  0  0  0  0  0  0  0  0  1 V2000
  138.6991  137.0106  153.6946 C   0  0  0  0  0  0  0  0  0  0  0  0
  140.1457  136.5561  153.6457 C   0  0  0  0  0  0  0  0  0  0  0  0
  140.3374  135.2245  153.5244 N   0  0  0  0  0  0  0  0  0  0  0  0
  141.6055  134.7687  153.4698 C   0  0  0  0  0  0  0  0  0  0  0  0
  142.7348  135.6068  153.5379 C   0  0  0  0  0  0  0  0  0  0  0  0
  142.5376  137.0014  153.6790 C   0  0  0  0  0  0  0  0  0  0  0  0
  143.5940  137.9507  153.7447 N   0  0  0  0  0  0  0  0  0  0  0  0
  144.7834  137.8804  154.3733 C   0  0  0  0  0  0  0  0  0  0  0  0
  145.1750  136.9261  155.0410 O   0  0  0  0  0  0  0  0  0  0  0  0
  145.5399  138.9816  154.2213 N   0  0  0  0  0  0  0  0  0  0  0  0
  146.8746  139.2231  154.7724 C   0  0  1  0  0  0  0  0  0  0  0  0
  147.9424  138.3031  154.1517 C   0  0  2  0  0  0  0  0  0  0  0  0
  148.6641  137.3059  155.0172 C   0  0  0  0  0  0  0  0  0  0  0  0
  149.9665  138.0330  155.3643 C   0  0  0  0  0  0  0  0  0  0  0  0
  149.6685  139.4151  155.1811 O   0  0  0  0  0  0  0  0  0  0  0  0
  148.8431  139.5268  154.0257 C   0  0  2  0  0  0  0  0  0  0  0  0
  147.6170  140.4362  154.1722 C   0  0  0  0  0  0  0  0  0  0  0  0
  147.0920  141.2221  152.9554 C   0  0  0  0  0  0  0  0  0  0  0  0
  146.7350  142.3716  153.9016 C   0  0  0  0  0  0  0  0  0  0  0  0
  147.7050  141.7719  154.9240 C   0  0  0  0  0  0  0  0  0  0  0  0
  141.2089  137.4856  153.7227 C   0  0  0  0  0  0  0  0  0  0  0  0
  140.8902  139.1823  153.8718 Cl  0  0  0  0  0  0  0  0  0  0  0  0
  138.4983  137.5354  154.6287 H   0  0  0  0  0  0  0  0  0  0  0  0
  138.0100  136.1677  153.6267 H   0  0  0  0  0  0  0  0  0  0  0  0
  138.4872  137.6867  152.8661 H   0  0  0  0  0  0  0  0  0  0  0  0
  141.7251  133.7006  153.3625 H   0  0  0  0  0  0  0  0  0  0  0  0
  143.7154  135.1634  153.4696 H   0  0  0  0  0  0  0  0  0  0  0  0
  143.4008  138.8289  153.2855 H   0  0  0  0  0  0  0  0  0  0  0  0
  145.1490  139.7281  153.6647 H   0  0  0  0  0  0  0  0  0  0  0  0
  146.9260  139.2089  155.8633 H   0  0  0  0  0  0  0  0  0  0  0  0
  147.6500  137.9256  153.1699 H   0  0  0  0  0  0  0  0  0  0  0  0
  148.0912  137.0854  155.9185 H   0  0  0  0  0  0  0  0  0  0  0  0
  148.8550  136.3637  154.5030 H   0  0  0  0  0  0  0  0  0  0  0  0
  150.3065  137.8269  156.3793 H   0  0  0  0  0  0  0  0  0  0  0  0
  150.7603  137.7469  154.6728 H   0  0  0  0  0  0  0  0  0  0  0  0
  149.3899  139.5887  153.0837 H   0  0  0  0  0  0  0  0  0  0  0  0
  147.8868  141.4939  152.2591 H   0  0  0  0  0  0  0  0  0  0  0  0
  146.2429  140.7851  152.4304 H   0  0  0  0  0  0  0  0  0  0  0  0
  147.0121  143.3617  153.5387 H   0  0  0  0  0  0  0  0  0  0  0  0
  145.6966  142.3410  154.2327 H   0  0  0  0  0  0  0  0  0  0  0  0
  147.3275  141.7476  155.9465 H   0  0  0  0  0  0  0  0  0  0  0  0
  148.6995  142.2178  154.8723 H   0  0  0  0  0  0  0  0  0  0  0  0
  1  2  1  0  0  0  0
  1 23  1  0  0  0  0
  1 24  1  0  0  0  0
  1 25  1  0  0  0  0
  2 21  1  0  0  0  0
  2  3  2  0  0  0  0
  3  4  1  0  0  0  0
  4  5  2  0  0  0  0
  4 26  1  0  0  0  0
  5  6  1  0  0  0  0
  5 27  1  0  0  0  0
  6  7  1  0  0  0  0
  6 21  2  0  0  0  0
  7  8  1  0  0  0  0
  7 28  1  0  0  0  0
  8  9  2  0  0  0  0
  8 10  1  0  0  0  0
 10 11  1  0  0  0  0
 10 29  1  0  0  0  0
 11 17  1  0  0  0  0
 11 12  1  0  0  0  0
 11 30  1  0  0  0  0
 12 16  1  0  0  0  0
 12 13  1  0  0  0  0
 12 31  1  0  0  0  0
 13 14  1  0  0  0  0
 13 32  1  0  0  0  0
 13 33  1  0  0  0  0
 14 15  1  0  0  0  0
 14 34  1  0  0  0  0
 14 35  1  0  0  0  0
 15 16  1  0  0  0  0
 16 17  1  0  0  0  0
 16 36  1  0  0  0  0
 17 20  1  0  0  0  0
 17 18  1  0  0  0  0
 18 19  1  0  0  0  0
 18 37  1  0  0  0  0
 18 38  1  0  0  0  0
 19 20  1  0  0  0  0
 19 39  1  0  0  0  0
 19 40  1  0  0  0  0
 20 41  1  0  0  0  0
 20 42  1  0  0  0  0
 21 22  1  0  0  0  0
M  END
> <s_m_source_file>
AV-unprocessed.smi

> <i_m_source_file_index>
2775

> <i_lp_mmshare_version>
43012

> <i_f3d_flags>
0

> <s_epik_input>
W0NIM11jMW5bY0hdW2NIXWMoYzFDbClbTkhdQyg9TylbTkhdW0NAQEhdMltDQEhdKFtDSDJdW0NIMl1PMylbQ0BASF0zQzI0W0NIMl1bQ0gyXVtDSDJdNA==

> <s_epik_cmdline>
J2VwaWtfcHl0aG9uJywgJy1waCcsICc3LjAnLCAnLXRuJywgJzgnLCAnLW1hJywgJzIwMCcsICctbWV0YWxfYmluZGluZycsICctaW1hZScsICc8aW5maWxlLm1hZT4nLCAnLW9tYWUnLCAnPG91dGZpbGUubWFlPic=

> <r_epik_Ionization_Penalty>
0.01026

> <r_epik_Ionization_Penalty_Charging>
0

> <r_epik_Ionization_Penalty_Neutral>
0.01026

> <r_epik_State_Penalty>
0.00780685

> <r_epik_Charging_Adjusted_Penalty>
0.00780685

> <i_epik_Tot_Q>
0

> <i_epik_Tot_abs_Q>
0

> <r_epik_Metal_State_Penalty>
0.00767411

> <b_epik_Metal_Only>
0

> <s_lp_Force_Field>
OPLS_2005

> <r_lp_Energy>
55.7344

> <b_lp_Chiralities_Consistent>
1

> <s_lp_Variant>
AV-unprocessed.smi:2775-6

> <Gold.Version>
5.8.1

> <Gold.Id.Protein>
6NUR|6NUR_protein|mol2

> <Gold.PLP.Fitness>
41.1124

> <Gold.PLP.PLP>
-32.3400

> <Gold.PLP.part.hbond>
-3.0030

> <Gold.PLP.part.metal>
0.0000

> <Gold.PLP.part.buried>
-5.0042

> <Gold.PLP.part.nonpolar>
-25.0699

> <Gold.PLP.part.repulsive>
0.8781

> <Gold.PLP.ligand.clash>
0.0000

> <Gold.PLP.ligand.torsion>
0.3987

> <Gold.PLP.Chemscore.Hbond>
2.1253

> <Gold.PLP.Chemscore.CHOScore>
1.0000

> <Gold.PLP.Chemscore.Metal>
0.0000

> <Gold.Chemscore.Hbonds>
donor molecule, donor type, donor heavy atom, donor atom, acceptor molecule, acceptor atom, score
      L1  H     7    28       P1 10175  1.00
      L1  H    10    29       P1 10175  0.99
      P1  H 11000 11005       L1     3  0.06
      L1  C     4    26       P1 10957  0.94

> <Gold.PLP.Chemscore.Internal.Correction>
0.1940

> <Gold.Rescore>
     Score         DG    S(hbond)    S(metal)    S(lipo)     H(rot)  DE(clash)    DE(int)     intcor
     17.96     -19.79       1.95        0.00      88.55       1.00       1.51       0.32       ----

> <Gold.Chemscore.Fitness>
17.9632

> <Gold.Chemscore.DG>
-19.7931

> <Gold.Chemscore.ZeroCoef>
-5.4800

> <Gold.Chemscore.Hbond>
1.9499

> <Gold.Chemscore.Metal>
0.0000

> <Gold.Chemscore.Lipo>
88.5519

> <Gold.Chemscore.Internal_Hbond>
0.0000

> <Gold.Chemscore.DEClash>
1.5070

> <Gold.Chemscore.DEInternal>
0.3230

> <Gold.Chemscore.Rot>
1.0000

> <Gold.Chemscore.Internal.Correction>
   9.000000E+99

> <Gold.Chemscore.Hbonds>
donor molecule, donor type, donor heavy atom, donor atom, acceptor molecule, acceptor atom, score
      L1  H     7    28       P1 10175  1.00
      L1  H    10    29       P1 10175  0.88

> <Gold.Chemscore.Hbond.Weighted>
-6.5125

> <Gold.Chemscore.Metal.Weighted>
-0.0000

> <Gold.Chemscore.Lipo.Weighted>
-10.3606

> <Gold.Chemscore.Internal_Hbond.Weighted>
0.0000

> <Gold.Chemscore.DEClash.Weighted>
1.5070

> <Gold.Chemscore.DEInternal.Weighted>
0.3230

> <Gold.Chemscore.Rot.Weighted>
2.5600

> <Gold.Chemscore.Internal.Correction.Weighted>
   9.000000E+99

> <Gold.Protein.RotatedTorsions>
[ 6907 6896 6895 6894 ] final   71.65 input  -60.11 | X-H torsion
[ 7974 7965 7964 7962 ] final -155.45 input  175.53 | X-H torsion
[ 8008 7997 7996 7995 ] final   89.46 input   59.86 | X-H torsion
[ 10167 10162 10161 10158 ] final -114.70 input  -65.29 | X-H torsion
[ 10718 10713 10712 10709 ] final   85.62 input   66.30 | X-H torsion
[ 10763 10752 10751 10750 ] final   40.91 input  -60.55 | X-H torsion
[ 11005 11000 10999 10996 ] final   46.68 input  -57.11 | X-H torsion

> <Gold.Protein.ActiveResidues>
 VAL166  LYS551  ARG553  GLY616  TRP617  ASP618  TYR619  PRO620  LYS621  CYS622 
 ASP623  PHE694  ASN695  SER759  ASP760  ASP761  ALA762  ILE779  LEU786  VAL792 
 PHE793  MET794  SER795  GLU796  ALA797  LYS798  CYS799  TRP800  GLU811  SER814 

> <Gold.Protein.RotatedAtoms>
  152.4823  134.4688  159.9628 H   0  0  0  0  0  0  0  0  0  0  0  0  # atno 6907 bound_to 6896
  151.4691  133.3567  159.2828 H   0  0  0  0  0  0  0  0  0  0  0  0  # atno 6908 bound_to 6896
  150.8904  134.8333  159.7350 H   0  0  0  0  0  0  0  0  0  0  0  0  # atno 6909 bound_to 6896
  144.7640  140.4248  143.5956 H   0  0  0  0  0  0  0  0  0  0  0  0  # atno 7974 bound_to 7965
  156.0002  140.3360  155.6838 H   0  0  0  0  0  0  0  0  0  0  0  0  # atno 8008 bound_to 7997
  155.6301  140.0684  157.2669 H   0  0  0  0  0  0  0  0  0  0  0  0  # atno 8009 bound_to 7997
  154.4247  140.1761  156.1451 H   0  0  0  0  0  0  0  0  0  0  0  0  # atno 8010 bound_to 7997
  140.0981  143.4638  152.1829 H   0  0  0  0  0  0  0  0  0  0  0  0  # atno 10167 bound_to 10162
  157.6917  131.0182  150.2849 H   0  0  0  0  0  0  0  0  0  0  0  0  # atno 10718 bound_to 10713
  152.9923  135.6177  154.2701 H   0  0  0  0  0  0  0  0  0  0  0  0  # atno 10763 bound_to 10752
  154.2435  135.2788  155.2846 H   0  0  0  0  0  0  0  0  0  0  0  0  # atno 10764 bound_to 10752
  154.5349  135.5777  153.6848 H   0  0  0  0  0  0  0  0  0  0  0  0  # atno 10765 bound_to 10752
  140.1347  134.4661  155.8495 H   0  0  0  0  0  0  0  0  0  0  0  0  # atno 11005 bound_to 11000
  145.6530  139.1568  143.2851 LP  0  0  0  0  0  0  0  0  0  0  0  0  # atno 17320 bound_to 7965
  146.1729  140.6617  142.9224 LP  0  0  0  0  0  0  0  0  0  0  0  0  # atno 17321 bound_to 7965
  139.5687  144.7450  151.3951 LP  0  0  0  0  0  0  0  0  0  0  0  0  # atno 17342 bound_to 10162
  140.6993  143.7672  150.7376 LP  0  0  0  0  0  0  0  0  0  0  0  0  # atno 17343 bound_to 10162
  156.3389  130.3812  149.7426 LP  0  0  0  0  0  0  0  0  0  0  0  0  # atno 17370 bound_to 10713
  156.4941  130.8098  151.3106 LP  0  0  0  0  0  0  0  0  0  0  0  0  # atno 17371 bound_to 10713
  141.2176  133.6809  156.7134 LP  0  0  0  0  0  0  0  0  0  0  0  0  # atno 17394 bound_to 11000
  140.2798  134.8326  157.3923 LP  0  0  0  0  0  0  0  0  0  0  0  0  # atno 17395 bound_to 11000

$$$$
