AV-unprocessed.smi:1703|AV-procd|sdf|6872|dock6
  -GOLD-   22720 8 73D 1   1.00000     0.00000
 Structure written by MMmdl.
 49 51  0  0  0  0  0  0  0  0  2 V2000
  149.7251  134.4831  155.0338 C   0  0  0  0  0  0  0  0  0  0  0  0
  149.6748  134.7488  156.5421 C   0  0  1  0  0  0  0  0  0  0  0  0
  150.4361  136.0287  156.9305 C   0  0  0  0  0  0  0  0  0  0  0  0
  150.3215  136.3231  158.3537 N   0  0  0  0  0  0  0  0  0  0  0  0
  151.0919  137.5185  158.7011 C   0  0  0  0  0  0  0  0  0  0  0  0
  150.6576  138.8170  157.9931 C   0  0  1  0  0  0  0  0  0  0  0  0
  149.6081  139.4014  158.7386 O   0  0  0  0  0  0  0  0  0  0  0  0
  151.8263  139.8149  157.8786 C   0  0  0  0  0  0  0  0  0  0  0  0
  151.3868  141.1742  157.5199 N   0  0  0  0  0  0  0  0  0  0  0  0
  150.5393  141.5927  156.5354 C   0  0  0  0  0  0  0  0  0  0  0  0
  149.8171  140.7395  155.5449 C   0  0  0  0  0  0  0  0  0  0  0  0
  150.6982  140.0434  154.6913 O   0  0  0  0  0  0  0  0  0  0  0  0
  150.4582  142.9503  156.6225 N   0  3  0  0  0  0  0  0  0  0  0  0
  151.2582  143.4060  157.6706 C   0  0  0  0  0  0  0  0  0  0  0  0
  151.4947  144.6940  158.1410 C   0  0  0  0  0  0  0  0  0  0  0  0
  152.3674  144.8153  159.2422 C   0  0  0  0  0  0  0  0  0  0  0  0
  152.9652  143.6830  159.8325 C   0  0  0  0  0  0  0  0  0  0  0  0
  152.7191  142.3825  159.3453 C   0  0  0  0  0  0  0  0  0  0  0  0
  151.8568  142.2705  158.2543 C   0  0  0  0  0  0  0  0  0  0  0  0
  148.9054  136.4425  158.6985 C   0  0  0  0  0  0  0  0  0  0  0  0
  148.0868  135.1984  158.2984 C   0  0  2  0  0  0  0  0  0  0  0  0
  148.3357  133.9863  159.2124 C   0  0  0  0  0  0  0  0  0  0  0  0
  148.3068  134.8796  156.9236 O   0  0  0  0  0  0  0  0  0  0  0  0
  150.7530  134.3651  154.6901 H   0  0  0  0  0  0  0  0  0  0  0  0
  149.2764  135.3037  154.4734 H   0  0  0  0  0  0  0  0  0  0  0  0
  149.1836  133.5713  154.7809 H   0  0  0  0  0  0  0  0  0  0  0  0
  150.1146  133.8932  157.0554 H   0  0  0  0  0  0  0  0  0  0  0  0
  151.4869  135.9134  156.6617 H   0  0  0  0  0  0  0  0  0  0  0  0
  150.0570  136.8701  156.3481 H   0  0  0  0  0  0  0  0  0  0  0  0
  151.0292  137.6875  159.7772 H   0  0  0  0  0  0  0  0  0  0  0  0
  152.1469  137.3323  158.4944 H   0  0  0  0  0  0  0  0  0  0  0  0
  150.2891  138.6063  156.9907 H   0  0  0  0  0  0  0  0  0  0  0  0
  149.7882  139.2678  159.6572 H   0  0  0  0  0  0  0  0  0  0  0  0
  152.4069  139.8529  158.8005 H   0  0  0  0  0  0  0  0  0  0  0  0
  152.5194  139.4849  157.1047 H   0  0  0  0  0  0  0  0  0  0  0  0
  149.1953  140.0174  156.0750 H   0  0  0  0  0  0  0  0  0  0  0  0
  149.1478  141.3565  154.9453 H   0  0  0  0  0  0  0  0  0  0  0  0
  150.1972  139.4277  154.1781 H   0  0  0  0  0  0  0  0  0  0  0  0
  151.0350  145.5625  157.6925 H   0  0  0  0  0  0  0  0  0  0  0  0
  152.5805  145.7956  159.6433 H   0  0  0  0  0  0  0  0  0  0  0  0
  153.6254  143.8132  160.6778 H   0  0  0  0  0  0  0  0  0  0  0  0
  153.1775  141.5228  159.8110 H   0  0  0  0  0  0  0  0  0  0  0  0
  148.7794  136.6127  159.7667 H   0  0  0  0  0  0  0  0  0  0  0  0
  148.4845  137.3152  158.1968 H   0  0  0  0  0  0  0  0  0  0  0  0
  147.0299  135.4510  158.3876 H   0  0  0  0  0  0  0  0  0  0  0  0
  148.0490  134.2112  160.2398 H   0  0  0  0  0  0  0  0  0  0  0  0
  149.3844  133.6907  159.2251 H   0  0  0  0  0  0  0  0  0  0  0  0
  147.7494  133.1269  158.8870 H   0  0  0  0  0  0  0  0  0  0  0  0
  149.8910  143.5212  156.0091 H   0  0  0  0  0  0  0  0  0  0  0  0
  1  2  1  0  0  0  0
  1 24  1  0  0  0  0
  1 25  1  0  0  0  0
  1 26  1  0  0  0  0
  2 23  1  0  0  0  0
  2  3  1  0  0  0  0
  2 27  1  0  0  0  0
  3  4  1  0  0  0  0
  3 28  1  0  0  0  0
  3 29  1  0  0  0  0
  4  5  1  0  0  0  0
  4 20  1  0  0  0  0
  5  6  1  0  0  0  0
  5 30  1  0  0  0  0
  5 31  1  0  0  0  0
  6  7  1  0  0  0  0
  6  8  1  0  0  0  0
  6 32  1  0  0  0  0
  7 33  1  0  0  0  0
  8  9  1  0  0  0  0
  8 34  1  0  0  0  0
  8 35  1  0  0  0  0
  9 19  1  0  0  0  0
  9 10  1  0  0  0  0
 10 11  1  0  0  0  0
 10 13  2  0  0  0  0
 11 12  1  0  0  0  0
 11 36  1  0  0  0  0
 11 37  1  0  0  0  0
 12 38  1  0  0  0  0
 13 14  1  0  0  0  0
 13 49  1  0  0  0  0
 14 19  2  0  0  0  0
 14 15  1  0  0  0  0
 15 16  2  0  0  0  0
 15 39  1  0  0  0  0
 16 17  1  0  0  0  0
 16 40  1  0  0  0  0
 17 18  2  0  0  0  0
 17 41  1  0  0  0  0
 18 19  1  0  0  0  0
 18 42  1  0  0  0  0
 20 21  1  0  0  0  0
 20 43  1  0  0  0  0
 20 44  1  0  0  0  0
 21 22  1  0  0  0  0
 21 23  1  0  0  0  0
 21 45  1  0  0  0  0
 22 46  1  0  0  0  0
 22 47  1  0  0  0  0
 22 48  1  0  0  0  0
M  CHG  1  13   1
M  END
> <s_m_source_file>
AV-unprocessed.smi

> <i_m_source_file_index>
1703

> <i_lp_mmshare_version>
43012

> <i_f3d_flags>
0

> <s_epik_input>
W0NIM11bQ0BASF0xW0NIMl1OKFtDSDJdW0NASF0oTzEpW0NIM10pW0NIMl1bQ0BIXShbT0hdKVtDSDJdbihjKG4yKVtDSDJdW09IXSljKGMyMylbY0hdW2NIXVtjSF1bY0hdMw==

> <s_epik_cmdline>
J2VwaWtfcHl0aG9uJywgJy1waCcsICc3LjAnLCAnLXRuJywgJzgnLCAnLW1hJywgJzIwMCcsICctbWV0YWxfYmluZGluZycsICctaW1hZScsICc8aW5maWxlLm1hZT4nLCAnLW9tYWUnLCAnPG91dGZpbGUubWFlPic=

> <r_epik_Ionization_Penalty>
1.7682

> <r_epik_Ionization_Penalty_Charging>
1.55298

> <r_epik_Ionization_Penalty_Neutral>
0.215215

> <r_epik_State_Penalty>
1.83821

> <r_epik_Charging_Adjusted_Penalty>
3.39119

> <i_epik_Tot_Q>
1

> <i_epik_Tot_abs_Q>
1

> <r_epik_Metal_State_Penalty>
5.89206

> <b_epik_Metal_Only>
0

> <s_lp_Force_Field>
OPLS_2005

> <r_lp_Energy>
35.5587

> <b_lp_Chiralities_Consistent>
1

> <s_lp_Variant>
AV-unprocessed.smi:1703-20

> <Gold.Version>
5.8.1

> <Gold.Id.Protein>
6NUR|6NUR_protein|mol2

> <Gold.PLP.Fitness>
53.6244

> <Gold.PLP.PLP>
-42.8170

> <Gold.PLP.part.hbond>
-3.8377

> <Gold.PLP.part.metal>
0.0000

> <Gold.PLP.part.buried>
-5.7035

> <Gold.PLP.part.nonpolar>
-34.2640

> <Gold.PLP.part.repulsive>
0.0637

> <Gold.PLP.ligand.clash>
0.0000

> <Gold.PLP.ligand.torsion>
0.5275

> <Gold.PLP.Chemscore.Hbond>
3.9440

> <Gold.PLP.Chemscore.CHOScore>
0.0000

> <Gold.PLP.Chemscore.Metal>
0.0000

> <Gold.Chemscore.Hbonds>
donor molecule, donor type, donor heavy atom, donor atom, acceptor molecule, acceptor atom, score
      L1  H    13    49       P1  8028  2.00
      P1  H  6896  6909       L1     4  0.92
      P1  H  7989  7998       L1    12  1.00

> <Gold.PLP.Chemscore.Internal.Correction>
0.0304

> <Gold.Rescore>
     Score         DG    S(hbond)    S(metal)    S(lipo)     H(rot)  DE(clash)    DE(int)     intcor
     16.39     -17.93       2.06        0.00     112.28       2.96       0.21       1.33       ----

> <Gold.Chemscore.Fitness>
16.3911

> <Gold.Chemscore.DG>
-17.9338

> <Gold.Chemscore.ZeroCoef>
-5.4800

> <Gold.Chemscore.Hbond>
2.0609

> <Gold.Chemscore.Metal>
0.0000

> <Gold.Chemscore.Lipo>
112.2753

> <Gold.Chemscore.Internal_Hbond>
0.0000

> <Gold.Chemscore.DEClash>
0.2091

> <Gold.Chemscore.DEInternal>
1.3336

> <Gold.Chemscore.Rot>
2.9555

> <Gold.Chemscore.Internal.Correction>
   9.000000E+99

> <Gold.Chemscore.Hbonds>
donor molecule, donor type, donor heavy atom, donor atom, acceptor molecule, acceptor atom, score
      L1  H    13    49       P1  8028  0.97
      P1  H  6896  6909       L1     4  0.10
      P1  H  7989  7998       L1    12  0.39

> <Gold.Chemscore.Hbond.Weighted>
-6.8836

> <Gold.Chemscore.Metal.Weighted>
-0.0000

> <Gold.Chemscore.Lipo.Weighted>
-13.1362

> <Gold.Chemscore.Internal_Hbond.Weighted>
0.0000

> <Gold.Chemscore.DEClash.Weighted>
0.2091

> <Gold.Chemscore.DEInternal.Weighted>
1.3336

> <Gold.Chemscore.Rot.Weighted>
7.5660

> <Gold.Chemscore.Internal.Correction.Weighted>
   9.000000E+99

> <Gold.Protein.RotatedTorsions>
[ 6907 6896 6895 6894 ] final   74.35 input  -60.11 | X-H torsion
[ 7974 7965 7964 7962 ] final   38.83 input  175.53 | X-H torsion
[ 8008 7997 7996 7995 ] final  -35.61 input   59.86 | X-H torsion
[ 10167 10162 10161 10158 ] final  152.65 input  -65.29 | X-H torsion
[ 10718 10713 10712 10709 ] final   87.26 input   66.30 | X-H torsion
[ 10763 10752 10751 10750 ] final -100.47 input  -60.55 | X-H torsion
[ 11005 11000 10999 10996 ] final   65.07 input  -57.11 | X-H torsion

> <Gold.Protein.ActiveResidues>
 VAL166  LYS551  ARG553  GLY616  TRP617  ASP618  TYR619  PRO620  LYS621  CYS622 
 ASP623  PHE694  ASN695  SER759  ASP760  ASP761  ALA762  ILE779  LEU786  VAL792 
 PHE793  MET794  SER795  GLU796  ALA797  LYS798  CYS799  TRP800  GLU811  SER814 

> <Gold.Protein.RotatedAtoms>
  152.4971  134.4285  159.9504 H   0  0  0  0  0  0  0  0  0  0  0  0  # atno 6907 bound_to 6896
  151.4262  133.3677  159.2770 H   0  0  0  0  0  0  0  0  0  0  0  0  # atno 6908 bound_to 6896
  150.9187  134.8628  159.7534 H   0  0  0  0  0  0  0  0  0  0  0  0  # atno 6909 bound_to 6896
  146.1031  139.5724  142.9401 H   0  0  0  0  0  0  0  0  0  0  0  0  # atno 7974 bound_to 7965
  154.4091  140.1652  156.2240 H   0  0  0  0  0  0  0  0  0  0  0  0  # atno 8008 bound_to 7997
  155.9340  140.3413  155.6249 H   0  0  0  0  0  0  0  0  0  0  0  0  # atno 8009 bound_to 7997
  155.7072  140.0752  157.2377 H   0  0  0  0  0  0  0  0  0  0  0  0  # atno 8010 bound_to 7997
  139.4831  144.5340  151.7676 H   0  0  0  0  0  0  0  0  0  0  0  0  # atno 10167 bound_to 10162
  157.6938  131.0248  150.3097 H   0  0  0  0  0  0  0  0  0  0  0  0  # atno 10718 bound_to 10713
  154.7582  135.4934  153.9414 H   0  0  0  0  0  0  0  0  0  0  0  0  # atno 10763 bound_to 10752
  153.1220  135.6734  153.9328 H   0  0  0  0  0  0  0  0  0  0  0  0  # atno 10764 bound_to 10752
  153.9057  135.3105  155.3427 H   0  0  0  0  0  0  0  0  0  0  0  0  # atno 10765 bound_to 10752
  139.9918  134.6580  156.0078 H   0  0  0  0  0  0  0  0  0  0  0  0  # atno 11005 bound_to 11000
  145.5814  141.0382  143.2120 LP  0  0  0  0  0  0  0  0  0  0  0  0  # atno 17320 bound_to 7965
  144.7449  139.7348  143.7296 LP  0  0  0  0  0  0  0  0  0  0  0  0  # atno 17321 bound_to 7965
  140.4870  144.1366  150.5943 LP  0  0  0  0  0  0  0  0  0  0  0  0  # atno 17342 bound_to 10162
  140.4214  143.2610  151.9710 LP  0  0  0  0  0  0  0  0  0  0  0  0  # atno 17343 bound_to 10162
  156.3600  130.3845  149.7259 LP  0  0  0  0  0  0  0  0  0  0  0  0  # atno 17370 bound_to 10713
  156.4708  130.7996  151.3014 LP  0  0  0  0  0  0  0  0  0  0  0  0  # atno 17371 bound_to 10713
  141.1572  133.6542  156.4199 LP  0  0  0  0  0  0  0  0  0  0  0  0  # atno 17394 bound_to 11000
  140.4894  134.6590  157.5204 LP  0  0  0  0  0  0  0  0  0  0  0  0  # atno 17395 bound_to 11000

$$$$
