AV-unprocessed.smi:1164|AV-procd|sdf|4927|dock3
  -GOLD-   22720 3513D 1   1.00000     0.00000
 Structure written by MMmdl.
 31 31  0  0  0  0  0  0  0  0  1 V2000
  150.2485  144.5138  158.9415 C   0  0  0  0  0  0  0  0  0  0  0  0
  151.6486  143.9480  159.2386 C   0  0  0  0  0  0  0  0  0  0  0  0
  152.6726  144.6337  158.3092 C   0  0  0  0  0  0  0  0  0  0  0  0
  151.9936  144.2149  160.7187 C   0  0  0  0  0  0  0  0  0  0  0  0
  151.5899  142.5049  158.9764 N   0  0  0  0  0  0  0  0  0  0  0  0
  151.3584  141.8745  157.8111 C   0  0  0  0  0  0  0  0  0  0  0  0
  151.1400  142.4584  156.7489 O   0  0  0  0  0  0  0  0  0  0  0  0
  151.3698  140.3397  157.8790 C   0  0  0  0  0  0  0  0  0  0  0  0
  151.3107  139.6862  156.5631 N   0  0  0  0  0  0  0  0  0  0  0  0
  150.2771  140.1355  155.7554 N   0  0  0  0  0  0  0  0  0  0  0  0
  150.1255  139.6479  154.5707 C   0  0  0  0  0  0  0  0  0  0  0  0
  149.0897  140.1230  153.8040 O   0  0  0  0  0  0  0  0  0  0  0  0
  151.0177  138.6300  154.0603 C   0  0  0  0  0  0  0  0  0  0  0  0
  152.0193  138.1956  154.8561 C   0  0  0  0  0  0  0  0  0  0  0  0
  152.2185  138.7263  156.2062 C   0  0  0  0  0  0  0  0  0  0  0  0
  153.1199  138.3469  156.9533 O   0  0  0  0  0  0  0  0  0  0  0  0
  149.3728  140.0234  152.9082 H   0  0  0  0  0  0  0  0  0  0  0  0
  150.2083  145.5892  159.1186 H   0  0  0  0  0  0  0  0  0  0  0  0
  149.4891  144.0499  159.5723 H   0  0  0  0  0  0  0  0  0  0  0  0
  149.9621  144.3429  157.9029 H   0  0  0  0  0  0  0  0  0  0  0  0
  152.4665  144.4156  157.2607 H   0  0  0  0  0  0  0  0  0  0  0  0
  153.6944  144.3169  158.5174 H   0  0  0  0  0  0  0  0  0  0  0  0
  152.6464  145.7172  158.4292 H   0  0  0  0  0  0  0  0  0  0  0  0
  151.9503  145.2807  160.9455 H   0  0  0  0  0  0  0  0  0  0  0  0
  152.9973  143.8748  160.9738 H   0  0  0  0  0  0  0  0  0  0  0  0
  151.2949  143.7095  161.3864 H   0  0  0  0  0  0  0  0  0  0  0  0
  151.7506  141.9147  159.7797 H   0  0  0  0  0  0  0  0  0  0  0  0
  152.2610  140.0127  158.4182 H   0  0  0  0  0  0  0  0  0  0  0  0
  150.5247  140.0213  158.4922 H   0  0  0  0  0  0  0  0  0  0  0  0
  150.8797  138.2322  153.0657 H   0  0  0  0  0  0  0  0  0  0  0  0
  152.6942  137.4370  154.4878 H   0  0  0  0  0  0  0  0  0  0  0  0
  1  2  1  0  0  0  0
  1 18  1  0  0  0  0
  1 19  1  0  0  0  0
  1 20  1  0  0  0  0
  2  3  1  0  0  0  0
  2  4  1  0  0  0  0
  2  5  1  0  0  0  0
  3 21  1  0  0  0  0
  3 22  1  0  0  0  0
  3 23  1  0  0  0  0
  4 24  1  0  0  0  0
  4 25  1  0  0  0  0
  4 26  1  0  0  0  0
  5  6  1  0  0  0  0
  5 27  1  0  0  0  0
  6  7  2  0  0  0  0
  6  8  1  0  0  0  0
  8 28  1  0  0  0  0
  8 29  1  0  0  0  0
  8  9  1  0  0  0  0
  9 10  1  0  0  0  0
  9 15  1  0  0  0  0
 10 11  2  0  0  0  0
 11 12  1  0  0  0  0
 11 13  1  0  0  0  0
 12 17  1  0  0  0  0
 13 30  1  0  0  0  0
 13 14  2  0  0  0  0
 14 31  1  0  0  0  0
 14 15  1  0  0  0  0
 15 16  2  0  0  0  0
M  END
> <s_m_source_file>
AV-unprocessed.smi

> <i_m_source_file_index>
1164

> <i_lp_mmshare_version>
43012

> <i_f3d_flags>
0

> <s_epik_input>
W0NIM11DKFtDSDNdKShbQ0gzXSlbTkhdQyg9TylbQ0gyXW4xW25IXWMoPU8pW2NIXVtjSF1jMT1P

> <s_epik_cmdline>
J2VwaWtfcHl0aG9uJywgJy1waCcsICc3LjAnLCAnLXRuJywgJzgnLCAnLW1hJywgJzIwMCcsICctbWV0YWxfYmluZGluZycsICctaW1hZScsICc8aW5maWxlLm1hZT4nLCAnLW9tYWUnLCAnPG91dGZpbGUubWFlPic=

> <r_lp_tautomer_probability>
0.9996

> <r_epik_Ionization_Penalty>
2.1187

> <r_epik_Ionization_Penalty_Charging>
3.7231e-08

> <r_epik_Ionization_Penalty_Neutral>
2.1187

> <r_epik_State_Penalty>
1.69546

> <r_epik_Charging_Adjusted_Penalty>
1.69546

> <i_epik_Tot_Q>
0

> <i_epik_Tot_abs_Q>
0

> <r_epik_Metal_State_Penalty>
1.69546

> <b_epik_Metal_Only>
0

> <s_lp_Force_Field>
OPLS_2005

> <r_lp_Energy>
13.6022

> <b_lp_Chiralities_Consistent>
1

> <s_lp_Variant>
AV-unprocessed.smi:1164-2

> <Gold.Version>
5.8.1

> <Gold.Id.Protein>
6NUR|6NUR_protein|mol2

> <Gold.PLP.Fitness>
39.5107

> <Gold.PLP.PLP>
-33.9439

> <Gold.PLP.part.hbond>
-2.0000

> <Gold.PLP.part.metal>
0.0000

> <Gold.PLP.part.buried>
-5.9315

> <Gold.PLP.part.nonpolar>
-26.9720

> <Gold.PLP.part.repulsive>
0.1924

> <Gold.PLP.ligand.clash>
0.0000

> <Gold.PLP.ligand.torsion>
0.1607

> <Gold.PLP.Chemscore.Hbond>
1.9600

> <Gold.PLP.Chemscore.CHOScore>
0.0000

> <Gold.PLP.Chemscore.Metal>
0.0000

> <Gold.Chemscore.Hbonds>
donor molecule, donor type, donor heavy atom, donor atom, acceptor molecule, acceptor atom, score
      L1  H    12    17       P1  7957  1.00
      P1  H  7997  8010       L1    16  0.47

> <Gold.PLP.Chemscore.Internal.Correction>
0.0083

> <Gold.Rescore>
     Score         DG    S(hbond)    S(metal)    S(lipo)     H(rot)  DE(clash)    DE(int)     intcor
     11.48     -13.51       1.75        0.00      69.37       2.31       0.44       1.60       ----

> <Gold.Chemscore.Fitness>
11.4788

> <Gold.Chemscore.DG>
-13.5122

> <Gold.Chemscore.ZeroCoef>
-5.4800

> <Gold.Chemscore.Hbond>
1.7454

> <Gold.Chemscore.Metal>
0.0000

> <Gold.Chemscore.Lipo>
69.3657

> <Gold.Chemscore.Internal_Hbond>
0.0000

> <Gold.Chemscore.DEClash>
0.4378

> <Gold.Chemscore.DEInternal>
1.5956

> <Gold.Chemscore.Rot>
2.3099

> <Gold.Chemscore.Internal.Correction>
   9.000000E+99

> <Gold.Chemscore.Hbonds>
donor molecule, donor type, donor heavy atom, donor atom, acceptor molecule, acceptor atom, score
      L1  H    12    17       P1  7957  1.00
      P1  H  7997  8010       L1    16  0.05

> <Gold.Chemscore.Hbond.Weighted>
-5.8298

> <Gold.Chemscore.Metal.Weighted>
-0.0000

> <Gold.Chemscore.Lipo.Weighted>
-8.1158

> <Gold.Chemscore.Internal_Hbond.Weighted>
0.0000

> <Gold.Chemscore.DEClash.Weighted>
0.4378

> <Gold.Chemscore.DEInternal.Weighted>
1.5956

> <Gold.Chemscore.Rot.Weighted>
5.9134

> <Gold.Chemscore.Internal.Correction.Weighted>
   9.000000E+99

> <Gold.Protein.RotatedTorsions>
[ 6907 6896 6895 6894 ] final   -9.96 input  -60.11 | X-H torsion
[ 7974 7965 7964 7962 ] final  -97.41 input  175.53 | X-H torsion
[ 8008 7997 7996 7995 ] final   66.41 input   59.86 | X-H torsion
[ 10167 10162 10161 10158 ] final -162.06 input  -65.29 | X-H torsion
[ 10718 10713 10712 10709 ] final  169.83 input   66.30 | X-H torsion
[ 10763 10752 10751 10750 ] final    2.74 input  -60.55 | X-H torsion
[ 11005 11000 10999 10996 ] final  -88.42 input  -57.11 | X-H torsion

> <Gold.Protein.ActiveResidues>
 VAL166  LYS551  ARG553  GLY616  TRP617  ASP618  TYR619  PRO620  LYS621  CYS622 
 ASP623  PHE694  ASN695  SER759  ASP760  ASP761  ALA762  ILE779  LEU786  VAL792 
 PHE793  MET794  SER795  GLU796  ALA797  LYS798  CYS799  TRP800  GLU811  SER814 

> <Gold.Protein.RotatedAtoms>
  151.4095  135.0983  159.9580 H   0  0  0  0  0  0  0  0  0  0  0  0  # atno 6907 bound_to 6896
  152.5024  133.8811  159.7357 H   0  0  0  0  0  0  0  0  0  0  0  0  # atno 6908 bound_to 6896
  150.9302  133.6718  159.2840 H   0  0  0  0  0  0  0  0  0  0  0  0  # atno 6909 bound_to 6896
  145.3341  140.9447  143.2645 H   0  0  0  0  0  0  0  0  0  0  0  0  # atno 7974 bound_to 7965
  155.6769  140.3497  155.4840 H   0  0  0  0  0  0  0  0  0  0  0  0  # atno 8008 bound_to 7997
  155.9640  140.1143  157.0893 H   0  0  0  0  0  0  0  0  0  0  0  0  # atno 8009 bound_to 7997
  154.4150  140.1170  156.5203 H   0  0  0  0  0  0  0  0  0  0  0  0  # atno 8010 bound_to 7997
  139.6419  144.0243  152.2098 H   0  0  0  0  0  0  0  0  0  0  0  0  # atno 10167 bound_to 10162
  157.0169  131.0220  151.2786 H   0  0  0  0  0  0  0  0  0  0  0  0  # atno 10718 bound_to 10713
  153.2919  135.6949  153.7285 H   0  0  0  0  0  0  0  0  0  0  0  0  # atno 10763 bound_to 10752
  153.6233  135.3423  155.3018 H   0  0  0  0  0  0  0  0  0  0  0  0  # atno 10764 bound_to 10752
  154.8526  135.4391  154.2004 H   0  0  0  0  0  0  0  0  0  0  0  0  # atno 10765 bound_to 10752
  141.1602  133.7569  156.9449 H   0  0  0  0  0  0  0  0  0  0  0  0  # atno 11005 bound_to 11000
  144.8841  139.4864  143.6709 LP  0  0  0  0  0  0  0  0  0  0  0  0  # atno 17320 bound_to 7965
  146.3034  139.7499  142.9074 LP  0  0  0  0  0  0  0  0  0  0  0  0  # atno 17321 bound_to 7965
  139.9935  144.6344  150.7793 LP  0  0  0  0  0  0  0  0  0  0  0  0  # atno 17342 bound_to 10162
  140.7495  143.2940  151.3254 LP  0  0  0  0  0  0  0  0  0  0  0  0  # atno 17343 bound_to 10162
  157.5279  130.8039  149.7882 LP  0  0  0  0  0  0  0  0  0  0  0  0  # atno 17370 bound_to 10713
  156.0116  130.3831  150.2246 LP  0  0  0  0  0  0  0  0  0  0  0  0  # atno 17371 bound_to 10713
  140.1297  134.9364  157.2319 LP  0  0  0  0  0  0  0  0  0  0  0  0  # atno 17394 bound_to 11000
  140.2969  134.3176  155.7300 LP  0  0  0  0  0  0  0  0  0  0  0  0  # atno 17395 bound_to 11000

$$$$
