AV-unprocessed.smi:2521|AV-procd|sdf|9915|dock2
  -GOLD-   2272013553D 1   1.00000     0.00000
 Structure written by MMmdl.
 36 37  0  0  0  0  0  0  0  0  1 V2000
  146.2421  129.0717  151.9977 C   0  0  0  0  0  0  0  0  0  0  0  0
  145.5360  130.4339  152.0590 C   0  0  0  0  0  0  0  0  0  0  0  0
  145.1277  130.9637  150.6768 C   0  0  0  0  0  0  0  0  0  0  0  0
  146.3207  131.4409  152.8408 C   0  0  0  0  0  0  0  0  0  0  0  0
  146.7654  131.2135  154.0843 N   0  0  0  0  0  0  0  0  0  0  0  0
  147.4621  132.2956  154.6027 N   0  0  0  0  0  0  0  0  0  0  0  0
  147.5226  133.3135  153.7334 C   0  0  0  0  0  0  0  0  0  0  0  0
  148.1673  134.5485  154.0079 N   0  0  0  0  0  0  0  0  0  0  0  0
  148.5564  135.0393  155.1977 C   0  0  0  0  0  0  0  0  0  0  0  0
  148.4417  134.4603  156.2783 O   0  0  0  0  0  0  0  0  0  0  0  0
  149.0952  136.2602  155.0654 N   0  0  0  0  0  0  0  0  0  0  0  0
  149.6135  137.0808  156.1560 C   0  0  0  0  0  0  0  0  0  0  0  0
  150.2686  138.3763  155.6405 C   0  0  2  0  0  0  0  0  0  0  0  0
  150.2336  139.5176  156.6361 C   0  0  0  0  0  0  0  0  0  0  0  0
  150.4934  140.7287  155.7445 C   0  0  0  0  0  0  0  0  0  0  0  0
  149.9641  140.3945  154.4647 O   0  0  0  0  0  0  0  0  0  0  0  0
  149.5775  139.0242  154.4389 C   0  0  0  0  0  0  0  0  0  0  0  0
  146.7269  133.0279  152.1955 S   0  0  0  0  0  0  0  0  0  0  0  0
  146.4405  128.6876  152.9988 H   0  0  0  0  0  0  0  0  0  0  0  0
  147.1951  129.1417  151.4724 H   0  0  0  0  0  0  0  0  0  0  0  0
  145.6298  128.3349  151.4771 H   0  0  0  0  0  0  0  0  0  0  0  0
  144.6087  130.2727  152.6099 H   0  0  0  0  0  0  0  0  0  0  0  0
  144.5565  131.8883  150.7640 H   0  0  0  0  0  0  0  0  0  0  0  0
  144.5073  130.2408  150.1467 H   0  0  0  0  0  0  0  0  0  0  0  0
  146.0011  131.1688  150.0567 H   0  0  0  0  0  0  0  0  0  0  0  0
  148.3424  135.1326  153.2037 H   0  0  0  0  0  0  0  0  0  0  0  0
  149.1487  136.6560  154.1383 H   0  0  0  0  0  0  0  0  0  0  0  0
  148.8289  137.3059  156.8805 H   0  0  0  0  0  0  0  0  0  0  0  0
  150.3563  136.4868  156.6890 H   0  0  0  0  0  0  0  0  0  0  0  0
  151.3101  138.1782  155.3811 H   0  0  0  0  0  0  0  0  0  0  0  0
  149.2453  139.5955  157.0918 H   0  0  0  0  0  0  0  0  0  0  0  0
  150.9696  139.4141  157.4340 H   0  0  0  0  0  0  0  0  0  0  0  0
  150.0398  141.6384  156.1384 H   0  0  0  0  0  0  0  0  0  0  0  0
  151.5650  140.9023  155.6402 H   0  0  0  0  0  0  0  0  0  0  0  0
  149.8494  138.5529  153.4941 H   0  0  0  0  0  0  0  0  0  0  0  0
  148.4929  138.9718  154.5432 H   0  0  0  0  0  0  0  0  0  0  0  0
  1  2  1  0  0  0  0
  1 19  1  0  0  0  0
  1 20  1  0  0  0  0
  1 21  1  0  0  0  0
  2  3  1  0  0  0  0
  2  4  1  0  0  0  0
  2 22  1  0  0  0  0
  3 23  1  0  0  0  0
  3 24  1  0  0  0  0
  3 25  1  0  0  0  0
  4 18  1  0  0  0  0
  4  5  2  0  0  0  0
  5  6  1  0  0  0  0
  6  7  2  0  0  0  0
  7  8  1  0  0  0  0
  7 18  1  0  0  0  0
  8  9  1  0  0  0  0
  8 26  1  0  0  0  0
  9 10  2  0  0  0  0
  9 11  1  0  0  0  0
 11 12  1  0  0  0  0
 11 27  1  0  0  0  0
 12 13  1  0  0  0  0
 12 28  1  0  0  0  0
 12 29  1  0  0  0  0
 13 17  1  0  0  0  0
 13 14  1  0  0  0  0
 13 30  1  0  0  0  0
 14 15  1  0  0  0  0
 14 31  1  0  0  0  0
 14 32  1  0  0  0  0
 15 16  1  0  0  0  0
 15 33  1  0  0  0  0
 15 34  1  0  0  0  0
 16 17  1  0  0  0  0
 17 35  1  0  0  0  0
 17 36  1  0  0  0  0
M  END
> <s_m_source_file>
AV-unprocessed.smi

> <i_m_source_file_index>
2521

> <i_lp_mmshare_version>
43012

> <i_f3d_flags>
0

> <s_epik_input>
W0NIM11bQ0hdKFtDSDNdKWMxbm5jKHMxKVtOSF1DKD1PKVtOSF1bQ0gyXVtDQEBIXTJbQ0gyXVtDSDJdT1tDSDJdMg==

> <s_epik_cmdline>
J2VwaWtfcHl0aG9uJywgJy1waCcsICc3LjAnLCAnLXRuJywgJzgnLCAnLW1hJywgJzIwMCcsICctbWV0YWxfYmluZGluZycsICctaW1hZScsICc8aW5maWxlLm1hZT4nLCAnLW9tYWUnLCAnPG91dGZpbGUubWFlPic=

> <r_lp_tautomer_probability>
1

> <r_epik_Ionization_Penalty>
0.000452582

> <r_epik_Ionization_Penalty_Charging>
0

> <r_epik_Ionization_Penalty_Neutral>
0.000452582

> <r_epik_State_Penalty>
-0

> <r_epik_Charging_Adjusted_Penalty>
0

> <i_epik_Tot_Q>
0

> <i_epik_Tot_abs_Q>
0

> <r_epik_Metal_State_Penalty>
0.207746

> <b_epik_Metal_Only>
0

> <s_lp_Force_Field>
OPLS_2005

> <r_lp_Energy>
11.692

> <b_lp_Chiralities_Consistent>
1

> <s_lp_Variant>
AV-unprocessed.smi:2521-1

> <Gold.Version>
5.8.1

> <Gold.Id.Protein>
6NUR|6NUR_protein|mol2

> <Gold.PLP.Fitness>
38.9780

> <Gold.PLP.PLP>
-32.4669

> <Gold.PLP.part.hbond>
-2.8265

> <Gold.PLP.part.metal>
0.0000

> <Gold.PLP.part.buried>
-4.6381

> <Gold.PLP.part.nonpolar>
-25.5476

> <Gold.PLP.part.repulsive>
0.3107

> <Gold.PLP.ligand.clash>
0.0000

> <Gold.PLP.ligand.torsion>
0.4017

> <Gold.PLP.Chemscore.Hbond>
2.4096

> <Gold.PLP.Chemscore.CHOScore>
0.0000

> <Gold.PLP.Chemscore.Metal>
0.0000

> <Gold.Chemscore.Hbonds>
donor molecule, donor type, donor heavy atom, donor atom, acceptor molecule, acceptor atom, score
      L1  H     8    26       P1  7948  1.00
      L1  H    11    27       P1  7948  0.28
      P1  H  7989  7998       L1    16  0.67

> <Gold.PLP.Chemscore.Internal.Correction>
0.0856

> <Gold.Rescore>
     Score         DG    S(hbond)    S(metal)    S(lipo)     H(rot)  DE(clash)    DE(int)     intcor
     12.98     -14.73       1.53        0.00      66.96       1.45       0.02       1.74       ----

> <Gold.Chemscore.Fitness>
12.9777

> <Gold.Chemscore.DG>
-14.7328

> <Gold.Chemscore.ZeroCoef>
-5.4800

> <Gold.Chemscore.Hbond>
1.5329

> <Gold.Chemscore.Metal>
0.0000

> <Gold.Chemscore.Lipo>
66.9646

> <Gold.Chemscore.Internal_Hbond>
0.0000

> <Gold.Chemscore.DEClash>
0.0186

> <Gold.Chemscore.DEInternal>
1.7365

> <Gold.Chemscore.Rot>
1.4461

> <Gold.Chemscore.Internal.Correction>
   9.000000E+99

> <Gold.Chemscore.Hbonds>
donor molecule, donor type, donor heavy atom, donor atom, acceptor molecule, acceptor atom, score
      L1  H     8    26       P1  7948  0.93
      L1  H    11    27       P1  7948  0.27
      P1  H  7989  7998       L1    16  0.08

> <Gold.Chemscore.Hbond.Weighted>
-5.1198

> <Gold.Chemscore.Metal.Weighted>
-0.0000

> <Gold.Chemscore.Lipo.Weighted>
-7.8349

> <Gold.Chemscore.Internal_Hbond.Weighted>
0.0000

> <Gold.Chemscore.DEClash.Weighted>
0.0186

> <Gold.Chemscore.DEInternal.Weighted>
1.7365

> <Gold.Chemscore.Rot.Weighted>
3.7019

> <Gold.Chemscore.Internal.Correction.Weighted>
   9.000000E+99

> <Gold.Protein.RotatedTorsions>
[ 6907 6896 6895 6894 ] final  118.13 input  -60.11 | X-H torsion
[ 7974 7965 7964 7962 ] final -135.83 input  175.53 | X-H torsion
[ 8008 7997 7996 7995 ] final   61.74 input   59.86 | X-H torsion
[ 10167 10162 10161 10158 ] final   97.55 input  -65.29 | X-H torsion
[ 10718 10713 10712 10709 ] final  113.38 input   66.30 | X-H torsion
[ 10763 10752 10751 10750 ] final  -54.98 input  -60.55 | X-H torsion
[ 11005 11000 10999 10996 ] final -157.73 input  -57.11 | X-H torsion

> <Gold.Protein.ActiveResidues>
 VAL166  LYS551  ARG553  GLY616  TRP617  ASP618  TYR619  PRO620  LYS621  CYS622 
 ASP623  PHE694  ASN695  SER759  ASP760  ASP761  ALA762  ILE779  LEU786  VAL792 
 PHE793  MET794  SER795  GLU796  ALA797  LYS798  CYS799  TRP800  GLU811  SER814 

> <Gold.Protein.RotatedAtoms>
  152.4564  133.7732  159.6810 H   0  0  0  0  0  0  0  0  0  0  0  0  # atno 6907 bound_to 6896
  150.8492  133.7803  159.3038 H   0  0  0  0  0  0  0  0  0  0  0  0  # atno 6908 bound_to 6896
  151.5404  135.1071  159.9977 H   0  0  0  0  0  0  0  0  0  0  0  0  # atno 6909 bound_to 6896
  144.8980  140.6732  143.5103 H   0  0  0  0  0  0  0  0  0  0  0  0  # atno 7974 bound_to 7965
  155.6032  140.3494  155.4600 H   0  0  0  0  0  0  0  0  0  0  0  0  # atno 8008 bound_to 7997
  156.0212  140.1254  157.0380 H   0  0  0  0  0  0  0  0  0  0  0  0  # atno 8009 bound_to 7997
  154.4316  140.1062  156.5952 H   0  0  0  0  0  0  0  0  0  0  0  0  # atno 8010 bound_to 7997
  139.7791  144.6895  151.0048 H   0  0  0  0  0  0  0  0  0  0  0  0  # atno 10167 bound_to 10162
  157.6341  131.0982  150.7032 H   0  0  0  0  0  0  0  0  0  0  0  0  # atno 10718 bound_to 10713
  154.1835  135.6439  153.5040 H   0  0  0  0  0  0  0  0  0  0  0  0  # atno 10763 bound_to 10752
  153.0053  135.5412  154.6489 H   0  0  0  0  0  0  0  0  0  0  0  0  # atno 10764 bound_to 10752
  154.5859  135.2929  155.0657 H   0  0  0  0  0  0  0  0  0  0  0  0  # atno 10765 bound_to 10752
  140.6614  134.4345  157.5234 H   0  0  0  0  0  0  0  0  0  0  0  0  # atno 11005 bound_to 11000
  145.3667  139.1668  143.4354 LP  0  0  0  0  0  0  0  0  0  0  0  0  # atno 17320 bound_to 7965
  146.3092  140.3734  142.8676 LP  0  0  0  0  0  0  0  0  0  0  0  0  # atno 17321 bound_to 7965
  140.7817  143.4503  151.0422 LP  0  0  0  0  0  0  0  0  0  0  0  0  # atno 17342 bound_to 10162
  139.8184  143.7853  152.3175 LP  0  0  0  0  0  0  0  0  0  0  0  0  # atno 17343 bound_to 10162
  156.7366  130.4726  149.5487 LP  0  0  0  0  0  0  0  0  0  0  0  0  # atno 17370 bound_to 10713
  156.1567  130.6346  151.0666 LP  0  0  0  0  0  0  0  0  0  0  0  0  # atno 17371 bound_to 10713
  139.9012  134.8552  156.1890 LP  0  0  0  0  0  0  0  0  0  0  0  0  # atno 17394 bound_to 11000
  141.0462  133.6912  156.1688 LP  0  0  0  0  0  0  0  0  0  0  0  0  # atno 17395 bound_to 11000

$$$$
