AV-unprocessed.smi:1696|AV-procd|sdf|6799|dock2
  -GOLD-   22720 7563D 1   1.00000     0.00000
 Structure written by MMmdl.
 39 40  0  0  0  0  0  0  0  0  2 V2000
  145.1279  143.0472  154.0044 C   0  0  0  0  0  0  0  0  0  0  0  0
  146.5801  142.6803  153.6570 C   0  0  0  0  0  0  0  0  0  0  0  0
  147.0198  141.2601  154.1070 C   0  0  2  0  0  0  0  0  0  0  0  0
  148.5625  141.0948  154.1370 C   0  0  0  0  0  0  0  0  0  0  0  0
  149.2204  142.1613  154.8887 N   0  0  0  0  0  0  0  0  0  0  0  0
  149.9272  142.0003  156.0172 C   0  0  0  0  0  0  0  0  0  0  0  0
  150.0902  140.9117  156.5682 O   0  0  0  0  0  0  0  0  0  0  0  0
  150.4273  143.1714  156.4487 N   0  0  0  0  0  0  0  0  0  0  0  0
  151.2437  143.4106  157.5854 C   0  0  0  0  0  0  0  0  0  0  0  0
  151.4820  142.5105  158.5464 N   0  0  0  0  0  0  0  0  0  0  0  0
  152.3217  143.0164  159.5420 C   0  0  0  0  0  0  0  0  0  0  0  0
  152.7163  144.3125  159.3208 C   0  0  0  0  0  0  0  0  0  0  0  0
  152.0446  144.9534  157.8452 S   0  0  0  0  0  0  0  0  0  0  0  0
  146.3763  140.1947  153.2818 N   0  3  0  0  0  0  0  0  0  0  0  0
  146.9641  139.9886  151.9339 C   0  0  0  0  0  0  0  0  0  0  0  0
  146.8609  138.4901  151.6143 C   0  0  0  0  0  0  0  0  0  0  0  0
  146.0348  137.8988  152.7513 C   0  0  0  0  0  0  0  0  0  0  0  0
  146.2943  138.8569  153.9076 C   0  0  0  0  0  0  0  0  0  0  0  0
  144.8972  144.0572  153.6651 H   0  0  0  0  0  0  0  0  0  0  0  0
  144.9502  143.0149  155.0791 H   0  0  0  0  0  0  0  0  0  0  0  0
  144.4151  142.3752  153.5283 H   0  0  0  0  0  0  0  0  0  0  0  0
  146.7162  142.7840  152.5804 H   0  0  0  0  0  0  0  0  0  0  0  0
  147.2450  143.4305  154.0849 H   0  0  0  0  0  0  0  0  0  0  0  0
  146.6604  141.1265  155.1288 H   0  0  0  0  0  0  0  0  0  0  0  0
  148.8417  140.1637  154.6289 H   0  0  0  0  0  0  0  0  0  0  0  0
  148.9539  141.0199  153.1215 H   0  0  0  0  0  0  0  0  0  0  0  0
  149.1373  143.0955  154.5147 H   0  0  0  0  0  0  0  0  0  0  0  0
  150.2085  143.9863  155.8951 H   0  0  0  0  0  0  0  0  0  0  0  0
  152.5887  142.3833  160.3753 H   0  0  0  0  0  0  0  0  0  0  0  0
  153.3589  144.9261  159.9345 H   0  0  0  0  0  0  0  0  0  0  0  0
  146.4244  140.5921  151.2033 H   0  0  0  0  0  0  0  0  0  0  0  0
  148.0120  140.2908  151.9072 H   0  0  0  0  0  0  0  0  0  0  0  0
  146.4115  138.3012  150.6391 H   0  0  0  0  0  0  0  0  0  0  0  0
  147.8566  138.0453  151.6107 H   0  0  0  0  0  0  0  0  0  0  0  0
  144.9763  137.9164  152.4879 H   0  0  0  0  0  0  0  0  0  0  0  0
  146.3069  136.8689  152.9840 H   0  0  0  0  0  0  0  0  0  0  0  0
  147.2455  138.6130  154.3838 H   0  0  0  0  0  0  0  0  0  0  0  0
  145.5095  138.8000  154.6622 H   0  0  0  0  0  0  0  0  0  0  0  0
  145.4204  140.4819  153.1258 H   0  0  0  0  0  0  0  0  0  0  0  0
  1  2  1  0  0  0  0
  1 19  1  0  0  0  0
  1 20  1  0  0  0  0
  1 21  1  0  0  0  0
  2  3  1  0  0  0  0
  2 22  1  0  0  0  0
  2 23  1  0  0  0  0
  3  4  1  0  0  0  0
  3 14  1  0  0  0  0
  3 24  1  0  0  0  0
  4  5  1  0  0  0  0
  4 25  1  0  0  0  0
  4 26  1  0  0  0  0
  5  6  1  0  0  0  0
  5 27  1  0  0  0  0
  6  7  2  0  0  0  0
  6  8  1  0  0  0  0
  8  9  1  0  0  0  0
  8 28  1  0  0  0  0
  9 13  1  0  0  0  0
  9 10  2  0  0  0  0
 10 11  1  0  0  0  0
 11 12  2  0  0  0  0
 11 29  1  0  0  0  0
 12 13  1  0  0  0  0
 12 30  1  0  0  0  0
 14 18  1  0  0  0  0
 14 15  1  0  0  0  0
 14 39  1  0  0  0  0
 15 16  1  0  0  0  0
 15 31  1  0  0  0  0
 15 32  1  0  0  0  0
 16 17  1  0  0  0  0
 16 33  1  0  0  0  0
 16 34  1  0  0  0  0
 17 18  1  0  0  0  0
 17 35  1  0  0  0  0
 17 36  1  0  0  0  0
 18 37  1  0  0  0  0
 18 38  1  0  0  0  0
M  CHG  1  14   1
M  END
> <s_m_source_file>
AV-unprocessed.smi

> <i_m_source_file_index>
1696

> <i_lp_mmshare_version>
43012

> <i_f3d_flags>
0

> <s_epik_input>
W0NIMl0xW0NIMl1bQ0gyXVtDSDJdTjFbQ0BIXShbQ0gyXVtDSDNdKVtDSDJdW05IXUMoPU8pW05IXWMybltjSF1bY0hdczI=

> <s_epik_cmdline>
J2VwaWtfcHl0aG9uJywgJy1waCcsICc3LjAnLCAnLXRuJywgJzgnLCAnLW1hJywgJzIwMCcsICctbWV0YWxfYmluZGluZycsICctaW1hZScsICc8aW5maWxlLm1hZT4nLCAnLW9tYWUnLCAnPG91dGZpbGUubWFlPic=

> <r_lp_tautomer_probability>
1

> <r_epik_Ionization_Penalty>
0.0013883

> <r_epik_Ionization_Penalty_Charging>
0.00115997

> <r_epik_Ionization_Penalty_Neutral>
0.000228323

> <r_epik_State_Penalty>
-0

> <r_epik_Charging_Adjusted_Penalty>
0.00115997

> <i_epik_Tot_Q>
1

> <i_epik_Tot_abs_Q>
1

> <r_epik_Metal_State_Penalty>
0.0131845

> <b_epik_Metal_Only>
0

> <s_lp_Force_Field>
OPLS_2005

> <r_lp_Energy>
31.4712

> <b_lp_Chiralities_Consistent>
1

> <s_lp_Variant>
AV-unprocessed.smi:1696-1

> <Gold.Version>
5.8.1

> <Gold.Id.Protein>
6NUR|6NUR_protein|mol2

> <Gold.PLP.Fitness>
51.6519

> <Gold.PLP.PLP>
-40.6546

> <Gold.PLP.part.hbond>
-3.0000

> <Gold.PLP.part.metal>
0.0000

> <Gold.PLP.part.buried>
-0.5630

> <Gold.PLP.part.nonpolar>
-38.1676

> <Gold.PLP.part.repulsive>
0.2925

> <Gold.PLP.ligand.clash>
0.0000

> <Gold.PLP.ligand.torsion>
0.4399

> <Gold.PLP.Chemscore.Hbond>
3.9120

> <Gold.PLP.Chemscore.CHOScore>
0.0000

> <Gold.PLP.Chemscore.Metal>
0.0000

> <Gold.Chemscore.Hbonds>
donor molecule, donor type, donor heavy atom, donor atom, acceptor molecule, acceptor atom, score
      L1  H     5    27       P1  8028  0.50
      L1  H     8    28       P1  8028  0.63
      L1  H    14    39       P1 10175  2.00

> <Gold.PLP.Chemscore.Internal.Correction>
0.1410

> <Gold.Rescore>
     Score         DG    S(hbond)    S(metal)    S(lipo)     H(rot)  DE(clash)    DE(int)     intcor
     17.89     -20.76       2.90        0.00      86.53       1.77       1.03       1.84       ----

> <Gold.Chemscore.Fitness>
17.8920

> <Gold.Chemscore.DG>
-20.7619

> <Gold.Chemscore.ZeroCoef>
-5.4800

> <Gold.Chemscore.Hbond>
2.9013

> <Gold.Chemscore.Metal>
0.0000

> <Gold.Chemscore.Lipo>
86.5287

> <Gold.Chemscore.Internal_Hbond>
0.0000

> <Gold.Chemscore.DEClash>
1.0283

> <Gold.Chemscore.DEInternal>
1.8416

> <Gold.Chemscore.Rot>
1.7705

> <Gold.Chemscore.Internal.Correction>
   9.000000E+99

> <Gold.Chemscore.Hbonds>
donor molecule, donor type, donor heavy atom, donor atom, acceptor molecule, acceptor atom, score
      L1  H     5    27       P1  8028  0.49
      L1  H     8    28       P1  8028  0.60
      L1  H    14    39       P1 10175  0.92

> <Gold.Chemscore.Hbond.Weighted>
-9.6905

> <Gold.Chemscore.Metal.Weighted>
-0.0000

> <Gold.Chemscore.Lipo.Weighted>
-10.1239

> <Gold.Chemscore.Internal_Hbond.Weighted>
0.0000

> <Gold.Chemscore.DEClash.Weighted>
1.0283

> <Gold.Chemscore.DEInternal.Weighted>
1.8416

> <Gold.Chemscore.Rot.Weighted>
4.5324

> <Gold.Chemscore.Internal.Correction.Weighted>
   9.000000E+99

> <Gold.Protein.RotatedTorsions>
[ 6907 6896 6895 6894 ] final -146.36 input  -60.11 | X-H torsion
[ 7974 7965 7964 7962 ] final  111.71 input  175.53 | X-H torsion
[ 8008 7997 7996 7995 ] final    4.36 input   59.86 | X-H torsion
[ 10167 10162 10161 10158 ] final   44.01 input  -65.29 | X-H torsion
[ 10718 10713 10712 10709 ] final  -37.66 input   66.30 | X-H torsion
[ 10763 10752 10751 10750 ] final   37.22 input  -60.55 | X-H torsion
[ 11005 11000 10999 10996 ] final   58.66 input  -57.11 | X-H torsion

> <Gold.Protein.ActiveResidues>
 VAL166  LYS551  ARG553  GLY616  TRP617  ASP618  TYR619  PRO620  LYS621  CYS622 
 ASP623  PHE694  ASN695  SER759  ASP760  ASP761  ALA762  ILE779  LEU786  VAL792 
 PHE793  MET794  SER795  GLU796  ALA797  LYS798  CYS799  TRP800  GLU811  SER814 

> <Gold.Protein.RotatedAtoms>
  151.1406  133.4974  159.2596 H   0  0  0  0  0  0  0  0  0  0  0  0  # atno 6907 bound_to 6896
  151.1659  135.0295  159.8740 H   0  0  0  0  0  0  0  0  0  0  0  0  # atno 6908 bound_to 6896
  152.5462  134.1274  159.8478 H   0  0  0  0  0  0  0  0  0  0  0  0  # atno 6909 bound_to 6896
  145.2388  139.2787  143.4129 H   0  0  0  0  0  0  0  0  0  0  0  0  # atno 7974 bound_to 7965
  154.7150  140.2700  155.6594 H   0  0  0  0  0  0  0  0  0  0  0  0  # atno 8008 bound_to 7997
  156.2807  140.2746  156.1728 H   0  0  0  0  0  0  0  0  0  0  0  0  # atno 8009 bound_to 7997
  155.0584  140.0371  157.2558 H   0  0  0  0  0  0  0  0  0  0  0  0  # atno 8010 bound_to 7997
  140.3386  144.2499  150.6158 H   0  0  0  0  0  0  0  0  0  0  0  0  # atno 10167 bound_to 10162
  156.3126  130.4254  149.8035 H   0  0  0  0  0  0  0  0  0  0  0  0  # atno 10718 bound_to 10713
  153.0046  135.6284  154.2110 H   0  0  0  0  0  0  0  0  0  0  0  0  # atno 10763 bound_to 10752
  154.1853  135.2811  155.3041 H   0  0  0  0  0  0  0  0  0  0  0  0  # atno 10764 bound_to 10752
  154.5802  135.5649  153.7238 H   0  0  0  0  0  0  0  0  0  0  0  0  # atno 10765 bound_to 10752
  140.0361  134.5941  155.9442 H   0  0  0  0  0  0  0  0  0  0  0  0  # atno 11005 bound_to 11000
  146.3334  140.2745  142.8607 LP  0  0  0  0  0  0  0  0  0  0  0  0  # atno 17320 bound_to 7965
  144.9608  140.8273  143.5515 LP  0  0  0  0  0  0  0  0  0  0  0  0  # atno 17321 bound_to 7965
  140.5330  143.2239  151.8207 LP  0  0  0  0  0  0  0  0  0  0  0  0  # atno 17342 bound_to 10162
  139.4844  144.4696  151.9442 LP  0  0  0  0  0  0  0  0  0  0  0  0  # atno 17343 bound_to 10162
  156.5373  130.8284  151.3257 LP  0  0  0  0  0  0  0  0  0  0  0  0  # atno 17370 bound_to 10713
  157.7394  130.9832  150.2314 LP  0  0  0  0  0  0  0  0  0  0  0  0  # atno 17371 bound_to 10713
  141.1858  133.6556  156.5212 LP  0  0  0  0  0  0  0  0  0  0  0  0  # atno 17394 bound_to 11000
  140.4145  134.7242  157.4855 LP  0  0  0  0  0  0  0  0  0  0  0  0  # atno 17395 bound_to 11000

$$$$
