AV-unprocessed.smi:2365|AV-procd|sdf|9421|dock2
  -GOLD-   2272013 53D 1   1.00000     0.00000
 Structure written by MMmdl.
 29 30  0  0  0  0  0  0  0  0  1 V2000
  148.7880  141.6490  154.4008 C   0  0  0  0  0  0  0  0  0  0  0  0
  149.5024  140.2966  154.4899 C   0  0  2  0  0  0  0  0  0  0  0  0
  148.9573  139.3731  155.5734 C   0  0  0  0  0  0  0  0  0  0  0  0
  150.1107  138.4088  155.7644 C   0  0  0  0  0  0  0  0  0  0  0  0
  151.3519  139.2630  155.4474 C   0  0  2  0  0  0  0  0  0  0  0  0
  152.1889  139.6291  156.6790 C   0  0  0  0  0  0  0  0  0  0  0  0
  153.1868  138.9658  156.9614 O   0  0  0  0  0  0  0  0  0  0  0  0
  151.7568  140.6926  157.3805 N   0  0  0  0  0  0  0  0  0  0  0  0
  152.3193  141.2667  158.5546 C   0  0  0  0  0  0  0  0  0  0  0  0
  153.2251  140.5793  159.4001 C   0  0  0  0  0  0  0  0  0  0  0  0
  153.7451  141.1124  160.5260 N   0  0  0  0  0  0  0  0  0  0  0  0
  153.3743  142.3643  160.8639 C   0  0  0  0  0  0  0  0  0  0  0  0
  152.4687  143.1340  160.1083 C   0  0  0  0  0  0  0  0  0  0  0  0
  152.0454  144.7266  160.6286 Cl  0  0  0  0  0  0  0  0  0  0  0  0
  151.9258  142.5717  158.9325 C   0  0  0  0  0  0  0  0  0  0  0  0
  150.8026  143.4711  157.9691 Cl  0  0  0  0  0  0  0  0  0  0  0  0
  150.8583  140.4724  154.8734 O   0  0  0  0  0  0  0  0  0  0  0  0
  147.7382  141.5206  154.1360 H   0  0  0  0  0  0  0  0  0  0  0  0
  149.2486  142.2820  153.6420 H   0  0  0  0  0  0  0  0  0  0  0  0
  148.8322  142.1825  155.3508 H   0  0  0  0  0  0  0  0  0  0  0  0
  149.4760  139.7910  153.5229 H   0  0  0  0  0  0  0  0  0  0  0  0
  148.7801  139.9286  156.4954 H   0  0  0  0  0  0  0  0  0  0  0  0
  148.0292  138.8778  155.2868 H   0  0  0  0  0  0  0  0  0  0  0  0
  150.1148  137.9656  156.7613 H   0  0  0  0  0  0  0  0  0  0  0  0
  150.0351  137.5915  155.0462 H   0  0  0  0  0  0  0  0  0  0  0  0
  151.9715  138.7475  154.7115 H   0  0  0  0  0  0  0  0  0  0  0  0
  150.9749  141.1938  156.9837 H   0  0  0  0  0  0  0  0  0  0  0  0
  153.5361  139.5659  159.1979 H   0  0  0  0  0  0  0  0  0  0  0  0
  153.8091  142.7622  161.7691 H   0  0  0  0  0  0  0  0  0  0  0  0
  1  2  1  0  0  0  0
  1 18  1  0  0  0  0
  1 19  1  0  0  0  0
  1 20  1  0  0  0  0
  2 17  1  0  0  0  0
  2  3  1  0  0  0  0
  2 21  1  0  0  0  0
  3  4  1  0  0  0  0
  3 22  1  0  0  0  0
  3 23  1  0  0  0  0
  4  5  1  0  0  0  0
  4 24  1  0  0  0  0
  4 25  1  0  0  0  0
  5  6  1  0  0  0  0
  5 17  1  0  0  0  0
  5 26  1  0  0  0  0
  6  7  2  0  0  0  0
  6  8  1  0  0  0  0
  8  9  1  0  0  0  0
  8 27  1  0  0  0  0
  9 15  1  0  0  0  0
  9 10  2  0  0  0  0
 10 11  1  0  0  0  0
 10 28  1  0  0  0  0
 11 12  2  0  0  0  0
 12 13  1  0  0  0  0
 12 29  1  0  0  0  0
 13 14  1  0  0  0  0
 13 15  2  0  0  0  0
 15 16  1  0  0  0  0
M  END
> <s_m_source_file>
AV-unprocessed.smi

> <i_m_source_file_index>
2365

> <i_lp_mmshare_version>
43012

> <i_f3d_flags>
0

> <s_epik_input>
W0NIM11bQ0BASF0xW0NIMl1bQ0gyXVtDQEhdKE8xKUMoPU8pW05IXWMyW2NIXW5bY0hdYyhDbCljMkNs

> <s_epik_cmdline>
J2VwaWtfcHl0aG9uJywgJy1waCcsICc3LjAnLCAnLXRuJywgJzgnLCAnLW1hJywgJzIwMCcsICctbWV0YWxfYmluZGluZycsICctaW1hZScsICc8aW5maWxlLm1hZT4nLCAnLW9tYWUnLCAnPG91dGZpbGUubWFlPic=

> <r_lp_tautomer_probability>
1

> <r_epik_Ionization_Penalty>
7.32461e-06

> <r_epik_Ionization_Penalty_Charging>
0

> <r_epik_Ionization_Penalty_Neutral>
7.32461e-06

> <r_epik_State_Penalty>
-0

> <r_epik_Charging_Adjusted_Penalty>
0

> <i_epik_Tot_Q>
0

> <i_epik_Tot_abs_Q>
0

> <r_epik_Metal_State_Penalty>
-0

> <b_epik_Metal_Only>
0

> <s_lp_Force_Field>
OPLS_2005

> <r_lp_Energy>
23.8837

> <b_lp_Chiralities_Consistent>
1

> <s_lp_Variant>
AV-unprocessed.smi:2365-3

> <Gold.Version>
5.8.1

> <Gold.Id.Protein>
6NUR|6NUR_protein|mol2

> <Gold.PLP.Fitness>
38.7707

> <Gold.PLP.PLP>
-34.2492

> <Gold.PLP.part.hbond>
-2.0000

> <Gold.PLP.part.metal>
0.0000

> <Gold.PLP.part.buried>
-2.2085

> <Gold.PLP.part.nonpolar>
-29.1557

> <Gold.PLP.part.repulsive>
0.1614

> <Gold.PLP.ligand.clash>
0.0000

> <Gold.PLP.ligand.torsion>
0.7432

> <Gold.PLP.Chemscore.Hbond>
2.0000

> <Gold.PLP.Chemscore.CHOScore>
0.0000

> <Gold.PLP.Chemscore.Metal>
0.0000

> <Gold.Chemscore.Hbonds>
donor molecule, donor type, donor heavy atom, donor atom, acceptor molecule, acceptor atom, score
      P1  H  7989  7998       L1    17  1.00
      P1  H  7997  8008       L1     7  0.99

> <Gold.PLP.Chemscore.Internal.Correction>
0.0078

> <Gold.Rescore>
     Score         DG    S(hbond)    S(metal)    S(lipo)     H(rot)  DE(clash)    DE(int)     intcor
     17.93     -19.84       1.63        0.00      98.14       1.00       0.02       1.89       ----

> <Gold.Chemscore.Fitness>
17.9257

> <Gold.Chemscore.DG>
-19.8355

> <Gold.Chemscore.ZeroCoef>
-5.4800

> <Gold.Chemscore.Hbond>
1.6266

> <Gold.Chemscore.Metal>
0.0000

> <Gold.Chemscore.Lipo>
98.1436

> <Gold.Chemscore.Internal_Hbond>
0.0000

> <Gold.Chemscore.DEClash>
0.0217

> <Gold.Chemscore.DEInternal>
1.8881

> <Gold.Chemscore.Rot>
1.0000

> <Gold.Chemscore.Internal.Correction>
   9.000000E+99

> <Gold.Chemscore.Hbonds>
donor molecule, donor type, donor heavy atom, donor atom, acceptor molecule, acceptor atom, score
      P1  H  7989  7998       L1    17  0.41
      P1  H  7997  8008       L1     7  0.61

> <Gold.Chemscore.Hbond.Weighted>
-5.4327

> <Gold.Chemscore.Metal.Weighted>
-0.0000

> <Gold.Chemscore.Lipo.Weighted>
-11.4828

> <Gold.Chemscore.Internal_Hbond.Weighted>
0.0000

> <Gold.Chemscore.DEClash.Weighted>
0.0217

> <Gold.Chemscore.DEInternal.Weighted>
1.8881

> <Gold.Chemscore.Rot.Weighted>
2.5600

> <Gold.Chemscore.Internal.Correction.Weighted>
   9.000000E+99

> <Gold.Protein.RotatedTorsions>
[ 6907 6896 6895 6894 ] final   53.77 input  -60.11 | X-H torsion
[ 7974 7965 7964 7962 ] final   21.48 input  175.53 | X-H torsion
[ 8008 7997 7996 7995 ] final  -81.61 input   59.86 | X-H torsion
[ 10167 10162 10161 10158 ] final -145.76 input  -65.29 | X-H torsion
[ 10718 10713 10712 10709 ] final  159.64 input   66.30 | X-H torsion
[ 10763 10752 10751 10750 ] final  -47.55 input  -60.55 | X-H torsion
[ 11005 11000 10999 10996 ] final  -53.13 input  -57.11 | X-H torsion

> <Gold.Protein.ActiveResidues>
 VAL166  LYS551  ARG553  GLY616  TRP617  ASP618  TYR619  PRO620  LYS621  CYS622 
 ASP623  PHE694  ASN695  SER759  ASP760  ASP761  ALA762  ILE779  LEU786  VAL792 
 PHE793  MET794  SER795  GLU796  ALA797  LYS798  CYS799  TRP800  GLU811  SER814 

> <Gold.Protein.RotatedAtoms>
  152.3371  134.7184  160.0273 H   0  0  0  0  0  0  0  0  0  0  0  0  # atno 6907 bound_to 6896
  151.7581  133.3326  159.3418 H   0  0  0  0  0  0  0  0  0  0  0  0  # atno 6908 bound_to 6896
  150.7457  134.6063  159.6107 H   0  0  0  0  0  0  0  0  0  0  0  0  # atno 6909 bound_to 6896
  146.2069  139.8021  142.8719 H   0  0  0  0  0  0  0  0  0  0  0  0  # atno 7974 bound_to 7965
  154.6001  140.0645  156.9356 H   0  0  0  0  0  0  0  0  0  0  0  0  # atno 8008 bound_to 7997
  155.2147  140.3325  155.4305 H   0  0  0  0  0  0  0  0  0  0  0  0  # atno 8009 bound_to 7997
  156.2312  140.1842  156.7220 H   0  0  0  0  0  0  0  0  0  0  0  0  # atno 8010 bound_to 7997
  139.7775  143.8148  152.2634 H   0  0  0  0  0  0  0  0  0  0  0  0  # atno 10167 bound_to 10162
  157.1613  131.0588  151.2230 H   0  0  0  0  0  0  0  0  0  0  0  0  # atno 10718 bound_to 10713
  154.0633  135.6615  153.4814 H   0  0  0  0  0  0  0  0  0  0  0  0  # atno 10763 bound_to 10752
  153.0418  135.5140  154.7638 H   0  0  0  0  0  0  0  0  0  0  0  0  # atno 10764 bound_to 10752
  154.6681  135.3025  154.9745 H   0  0  0  0  0  0  0  0  0  0  0  0  # atno 10765 bound_to 10752
  141.0960  133.6624  156.4127 H   0  0  0  0  0  0  0  0  0  0  0  0  # atno 11005 bound_to 11000
  145.3285  141.0261  143.3460 LP  0  0  0  0  0  0  0  0  0  0  0  0  # atno 17320 bound_to 7965
  144.8815  139.4897  143.6720 LP  0  0  0  0  0  0  0  0  0  0  0  0  # atno 17321 bound_to 7965
  139.8201  144.7299  150.9584 LP  0  0  0  0  0  0  0  0  0  0  0  0  # atno 17342 bound_to 10162
  140.7817  143.4167  151.0905 LP  0  0  0  0  0  0  0  0  0  0  0  0  # atno 17343 bound_to 10162
  157.4129  130.7395  149.6853 LP  0  0  0  0  0  0  0  0  0  0  0  0  # atno 17370 bound_to 10713
  155.9753  130.4090  150.3858 LP  0  0  0  0  0  0  0  0  0  0  0  0  # atno 17371 bound_to 10713
  140.5138  134.6370  157.5294 LP  0  0  0  0  0  0  0  0  0  0  0  0  # atno 17394 bound_to 11000
  139.9797  134.7157  155.9882 LP  0  0  0  0  0  0  0  0  0  0  0  0  # atno 17395 bound_to 11000

$$$$
