AV-unprocessed.smi:134|AV-procd|sdf|1168|dock10
  -GOLD-   2262018313D 1   1.00000     0.00000
 Structure written by MMmdl.
 51 54  0  0  0  0  0  0  0  0  1 V2000
  147.2371  137.2650  157.3633 O   0  0  0  0  0  0  0  0  0  0  0  0
  148.4271  137.4515  157.6115 C   0  0  0  0  0  0  0  0  0  0  0  0
  149.1024  136.5714  158.6804 C   0  0  0  0  0  0  0  0  0  0  0  0
  148.2078  135.5998  159.3540 N   0  0  0  0  0  0  0  0  0  0  0  0
  148.1928  134.2592  158.8937 C   0  0  0  0  0  0  0  0  0  0  0  0
  148.9095  133.8984  157.9593 O   0  0  0  0  0  0  0  0  0  0  0  0
  147.2722  133.3646  159.5856 C   0  0  0  0  0  0  0  0  0  0  0  0
  147.1867  132.0772  159.2100 F   0  0  0  0  0  0  0  0  0  0  0  0
  146.4980  133.8106  160.5957 C   0  0  0  0  0  0  0  0  0  0  0  0
  146.5255  135.1209  161.0387 N   0  0  0  0  0  0  0  0  0  0  0  0
  145.6494  135.5912  162.1815 C   0  0  1  0  0  0  0  0  0  0  0  0
  144.6668  136.6596  161.6942 C   0  0  0  0  0  0  0  0  0  0  0  0
  143.4800  135.8194  161.2798 C   0  0  0  0  0  0  0  0  0  0  0  0
  143.5095  134.7100  162.3259 C   0  0  0  0  0  0  0  0  0  0  0  0
  144.8857  134.5178  162.6520 O   0  0  0  0  0  0  0  0  0  0  0  0
  147.3834  136.0511  160.4125 C   0  0  0  0  0  0  0  0  0  0  0  0
  147.4040  137.2290  160.7756 O   0  0  0  0  0  0  0  0  0  0  0  0
  149.1916  138.3681  156.9872 N   0  0  0  0  0  0  0  0  0  0  0  0
  148.8279  139.3079  155.9842 C   0  0  0  0  0  0  0  0  0  0  0  0
  147.5037  139.4273  155.4968 C   0  0  0  0  0  0  0  0  0  0  0  0
  147.1864  140.3981  154.5273 C   0  0  0  0  0  0  0  0  0  0  0  0
  148.1826  141.2656  154.0431 C   0  0  0  0  0  0  0  0  0  0  0  0
  149.4978  141.1663  154.5331 C   0  0  0  0  0  0  0  0  0  0  0  0
  149.8209  140.1947  155.5015 C   0  0  0  0  0  0  0  0  0  0  0  0
  151.4864  140.0945  156.0889 S   0  0  0  0  0  0  0  0  0  0  0  0
  151.5841  141.6010  156.9977 C   0  0  0  0  0  0  0  0  0  0  0  0
  151.3460  142.8311  156.3529 C   0  0  0  0  0  0  0  0  0  0  0  0
  151.4418  144.0342  157.0780 C   0  0  0  0  0  0  0  0  0  0  0  0
  151.7708  144.0068  158.4478 C   0  0  0  0  0  0  0  0  0  0  0  0
  151.8921  145.4812  159.3354 Cl  0  0  0  0  0  0  0  0  0  0  0  0
  152.0017  142.7754  159.0931 C   0  0  0  0  0  0  0  0  0  0  0  0
  151.9078  141.5712  158.3684 C   0  0  0  0  0  0  0  0  0  0  0  0
  149.9393  136.0543  158.2088 H   0  0  0  0  0  0  0  0  0  0  0  0
  149.5827  137.2302  159.4054 H   0  0  0  0  0  0  0  0  0  0  0  0
  145.8315  133.1021  161.0639 H   0  0  0  0  0  0  0  0  0  0  0  0
  146.3331  135.9334  162.9602 H   0  0  0  0  0  0  0  0  0  0  0  0
  144.4071  137.3057  162.5336 H   0  0  0  0  0  0  0  0  0  0  0  0
  145.0794  137.2688  160.8925 H   0  0  0  0  0  0  0  0  0  0  0  0
  142.5425  136.3756  161.2724 H   0  0  0  0  0  0  0  0  0  0  0  0
  143.6406  135.4074  160.2827 H   0  0  0  0  0  0  0  0  0  0  0  0
  142.9816  135.0256  163.2265 H   0  0  0  0  0  0  0  0  0  0  0  0
  143.0505  133.7875  161.9700 H   0  0  0  0  0  0  0  0  0  0  0  0
  150.1758  138.3415  157.2113 H   0  0  0  0  0  0  0  0  0  0  0  0
  146.7111  138.7949  155.8662 H   0  0  0  0  0  0  0  0  0  0  0  0
  146.1738  140.4818  154.1608 H   0  0  0  0  0  0  0  0  0  0  0  0
  147.9368  142.0107  153.3007 H   0  0  0  0  0  0  0  0  0  0  0  0
  150.2595  141.8363  154.1620 H   0  0  0  0  0  0  0  0  0  0  0  0
  151.0927  142.8565  155.3040 H   0  0  0  0  0  0  0  0  0  0  0  0
  151.2630  144.9768  156.5818 H   0  0  0  0  0  0  0  0  0  0  0  0
  152.2530  142.7529  160.1433 H   0  0  0  0  0  0  0  0  0  0  0  0
  152.0884  140.6288  158.8644 H   0  0  0  0  0  0  0  0  0  0  0  0
  1  2  2  0  0  0  0
  2  3  1  0  0  0  0
  2 18  1  0  0  0  0
  3  4  1  0  0  0  0
  3 33  1  0  0  0  0
  3 34  1  0  0  0  0
  4 16  1  0  0  0  0
  4  5  1  0  0  0  0
  5  6  2  0  0  0  0
  5  7  1  0  0  0  0
  7  8  1  0  0  0  0
  7  9  2  0  0  0  0
  9 10  1  0  0  0  0
  9 35  1  0  0  0  0
 10 11  1  0  0  0  0
 10 16  1  0  0  0  0
 11 15  1  0  0  0  0
 11 12  1  0  0  0  0
 11 36  1  0  0  0  0
 12 13  1  0  0  0  0
 12 37  1  0  0  0  0
 12 38  1  0  0  0  0
 13 14  1  0  0  0  0
 13 39  1  0  0  0  0
 13 40  1  0  0  0  0
 14 15  1  0  0  0  0
 14 41  1  0  0  0  0
 14 42  1  0  0  0  0
 16 17  2  0  0  0  0
 18 19  1  0  0  0  0
 18 43  1  0  0  0  0
 19 24  1  0  0  0  0
 19 20  2  0  0  0  0
 20 21  1  0  0  0  0
 20 44  1  0  0  0  0
 21 22  2  0  0  0  0
 21 45  1  0  0  0  0
 22 23  1  0  0  0  0
 22 46  1  0  0  0  0
 23 24  2  0  0  0  0
 23 47  1  0  0  0  0
 24 25  1  0  0  0  0
 25 26  1  0  0  0  0
 26 32  1  0  0  0  0
 26 27  2  0  0  0  0
 27 28  1  0  0  0  0
 27 48  1  0  0  0  0
 28 29  2  0  0  0  0
 28 49  1  0  0  0  0
 29 30  1  0  0  0  0
 29 31  1  0  0  0  0
 31 32  2  0  0  0  0
 31 50  1  0  0  0  0
 32 51  1  0  0  0  0
M  END
> <s_m_source_file>
AV-unprocessed.smi

> <i_m_source_file_index>
134

> <i_lp_mmshare_version>
43012

> <i_f3d_flags>
0

> <s_epik_input>
TzFbQ0gyXVtDSDJdW0NIMl1bQ0BIXTFuKGMyPU8pW2NIXWMoRiljKD1PKW4yW0NIMl1DKD1PKVtOSF1jM1tjSF1bY0hdW2NIXVtjSF1jM1NjNFtjSF1bY0hdYyhDbClbY0hdW2NIXTQ=

> <s_epik_cmdline>
J2VwaWtfcHl0aG9uJywgJy1waCcsICc3LjAnLCAnLXRuJywgJzgnLCAnLW1hJywgJzIwMCcsICctbWV0YWxfYmluZGluZycsICctaW1hZScsICc8aW5maWxlLm1hZT4nLCAnLW9tYWUnLCAnPG91dGZpbGUubWFlPic=

> <r_lp_tautomer_probability>
1

> <r_epik_Ionization_Penalty>
2.01717e-06

> <r_epik_Ionization_Penalty_Charging>
3.88729e-08

> <r_epik_Ionization_Penalty_Neutral>
1.9783e-06

> <r_epik_State_Penalty>
-0

> <r_epik_Charging_Adjusted_Penalty>
3.88729e-08

> <i_epik_Tot_Q>
0

> <i_epik_Tot_abs_Q>
0

> <r_epik_Metal_State_Penalty>
-0

> <b_epik_Metal_Only>
0

> <s_epik_Chemistry_Notes>
This compound contains an acetal/aminal-like group ( X-CH(R)-Y where X, Y are N, S, or O) that may be acid/base labile, releasing an aldehyde.

> <s_lp_Force_Field>
OPLS_2005

> <r_lp_Energy>
34.7756

> <b_lp_Chiralities_Consistent>
1

> <s_lp_Variant>
AV-unprocessed.smi:134-2

> <Gold.Version>
5.8.1

> <Gold.Id.Protein>
6NUR|6NUR_protein|mol2

> <Gold.PLP.Fitness>
62.5888

> <Gold.PLP.PLP>
-55.1368

> <Gold.PLP.part.hbond>
-3.7831

> <Gold.PLP.part.metal>
0.0000

> <Gold.PLP.part.buried>
-6.9614

> <Gold.PLP.part.nonpolar>
-45.5575

> <Gold.PLP.part.repulsive>
0.1133

> <Gold.PLP.ligand.clash>
0.0000

> <Gold.PLP.ligand.torsion>
0.3972

> <Gold.PLP.Chemscore.Hbond>
2.7184

> <Gold.PLP.Chemscore.CHOScore>
0.0000

> <Gold.PLP.Chemscore.Metal>
0.0000

> <Gold.Chemscore.Hbonds>
donor molecule, donor type, donor heavy atom, donor atom, acceptor molecule, acceptor atom, score
      P1  H  6896  6909       L1     6  0.20
      P1  H  6931  6943       L1    17  0.40
      P1  H  6934  6947       L1    17  1.00

> <Gold.PLP.Chemscore.Internal.Correction>
0.0912

> <Gold.Rescore>
     Score         DG    S(hbond)    S(metal)    S(lipo)     H(rot)  DE(clash)    DE(int)     intcor
     19.73     -23.00       2.41        0.00     123.60       1.95       0.29       2.97       ----

> <Gold.Chemscore.Fitness>
19.7345

> <Gold.Chemscore.DG>
-22.9964

> <Gold.Chemscore.ZeroCoef>
-5.4800

> <Gold.Chemscore.Hbond>
2.4131

> <Gold.Chemscore.Metal>
0.0000

> <Gold.Chemscore.Lipo>
123.5995

> <Gold.Chemscore.Internal_Hbond>
0.0000

> <Gold.Chemscore.DEClash>
0.2879

> <Gold.Chemscore.DEInternal>
2.9739

> <Gold.Chemscore.Rot>
1.9549

> <Gold.Chemscore.Internal.Correction>
   9.000000E+99

> <Gold.Chemscore.Hbonds>
donor molecule, donor type, donor heavy atom, donor atom, acceptor molecule, acceptor atom, score
      P1  H  6896  6909       L1     6  0.02
      P1  H  6931  6943       L1    17  0.40
      P1  H  6934  6947       L1    17  0.98

> <Gold.Chemscore.Hbond.Weighted>
-8.0599

> <Gold.Chemscore.Metal.Weighted>
-0.0000

> <Gold.Chemscore.Lipo.Weighted>
-14.4611

> <Gold.Chemscore.Internal_Hbond.Weighted>
0.0000

> <Gold.Chemscore.DEClash.Weighted>
0.2879

> <Gold.Chemscore.DEInternal.Weighted>
2.9739

> <Gold.Chemscore.Rot.Weighted>
5.0046

> <Gold.Chemscore.Internal.Correction.Weighted>
   9.000000E+99

> <Gold.Protein.RotatedTorsions>
[ 6907 6896 6895 6894 ] final   -4.43 input  -60.11 | X-H torsion
[ 7974 7965 7964 7962 ] final  -68.10 input  175.53 | X-H torsion
[ 8008 7997 7996 7995 ] final   79.22 input   59.86 | X-H torsion
[ 10167 10162 10161 10158 ] final  -60.56 input  -65.29 | X-H torsion
[ 10718 10713 10712 10709 ] final   -4.98 input   66.30 | X-H torsion
[ 10763 10752 10751 10750 ] final   53.27 input  -60.55 | X-H torsion
[ 11005 11000 10999 10996 ] final   33.58 input  -57.11 | X-H torsion

> <Gold.Protein.ActiveResidues>
 VAL166  LYS551  ARG553  GLY616  TRP617  ASP618  TYR619  PRO620  LYS621  CYS622 
 ASP623  PHE694  ASN695  SER759  ASP760  ASP761  ALA762  ILE779  LEU786  VAL792 
 PHE793  MET794  SER795  GLU796  ALA797  LYS798  CYS799  TRP800  GLU811  SER814 

> <Gold.Protein.RotatedAtoms>
  151.4979  135.1060  159.9820 H   0  0  0  0  0  0  0  0  0  0  0  0  # atno 6907 bound_to 6896
  152.4714  133.8034  159.6976 H   0  0  0  0  0  0  0  0  0  0  0  0  # atno 6908 bound_to 6896
  150.8725  133.7422  159.2982 H   0  0  0  0  0  0  0  0  0  0  0  0  # atno 6909 bound_to 6896
  145.7207  140.9039  143.0631 H   0  0  0  0  0  0  0  0  0  0  0  0  # atno 7974 bound_to 7965
  155.8667  140.3451  155.5793 H   0  0  0  0  0  0  0  0  0  0  0  0  # atno 8008 bound_to 7997
  155.7873  140.0867  157.2047 H   0  0  0  0  0  0  0  0  0  0  0  0  # atno 8009 bound_to 7997
  154.4015  140.1489  156.3109 H   0  0  0  0  0  0  0  0  0  0  0  0  # atno 8010 bound_to 7997
  140.6063  143.2374  151.5812 H   0  0  0  0  0  0  0  0  0  0  0  0  # atno 10167 bound_to 10162
  156.7533  130.5246  149.5799 H   0  0  0  0  0  0  0  0  0  0  0  0  # atno 10718 bound_to 10713
  152.9794  135.5784  154.4714 H   0  0  0  0  0  0  0  0  0  0  0  0  # atno 10763 bound_to 10752
  154.4276  135.2773  155.1936 H   0  0  0  0  0  0  0  0  0  0  0  0  # atno 10764 bound_to 10752
  154.3658  135.6178  153.5768 H   0  0  0  0  0  0  0  0  0  0  0  0  # atno 10765 bound_to 10752
  140.2617  134.3185  155.7856 H   0  0  0  0  0  0  0  0  0  0  0  0  # atno 11005 bound_to 11000
  144.6917  139.9199  143.7467 LP  0  0  0  0  0  0  0  0  0  0  0  0  # atno 17320 bound_to 7965
  146.0628  139.3620  143.0571 LP  0  0  0  0  0  0  0  0  0  0  0  0  # atno 17321 bound_to 7965
  139.5328  144.2868  152.1185 LP  0  0  0  0  0  0  0  0  0  0  0  0  # atno 17342 bound_to 10162
  140.2058  144.4612  150.6409 LP  0  0  0  0  0  0  0  0  0  0  0  0  # atno 17343 bound_to 10162
  156.1387  130.6229  151.0436 LP  0  0  0  0  0  0  0  0  0  0  0  0  # atno 17370 bound_to 10713
  157.6767  131.0848  150.7476 LP  0  0  0  0  0  0  0  0  0  0  0  0  # atno 17371 bound_to 10713
  141.2189  133.7413  156.9197 LP  0  0  0  0  0  0  0  0  0  0  0  0  # atno 17394 bound_to 11000
  140.1458  134.9263  157.2528 LP  0  0  0  0  0  0  0  0  0  0  0  0  # atno 17395 bound_to 11000

$$$$
