AV-unprocessed.smi:3311|AV-procd|sdf|12720|dock8
  -GOLD-   2272019 63D 1   1.00000     0.00000
 Structure written by MMmdl.
 44 45  0  0  0  0  0  0  0  0  2 V2000
  144.1730  136.2340  151.9129 C   0  0  0  0  0  0  0  0  0  0  0  0
  145.6383  135.7730  151.8105 C   0  0  1  0  0  0  0  0  0  0  0  0
  146.4810  136.6779  152.6229 N   0  3  0  0  0  0  0  0  0  0  0  0
  146.3322  138.1163  152.3121 C   0  0  0  0  0  0  0  0  0  0  0  0
  147.0265  139.0174  153.3568 C   0  0  0  0  0  0  0  0  0  0  0  0
  148.4000  138.6688  153.3618 O   0  0  0  0  0  0  0  0  0  0  0  0
  146.9123  140.4998  152.9290 C   0  0  0  0  0  0  0  0  0  0  0  0
  147.4959  141.4734  153.9690 C   0  0  0  0  0  0  0  0  0  0  0  0
  146.8614  141.2598  155.3502 C   0  0  0  0  0  0  0  0  0  0  0  0
  147.0194  139.8033  155.8084 C   0  0  0  0  0  0  0  0  0  0  0  0
  146.4374  138.8208  154.7759 C   0  0  0  0  0  0  0  0  0  0  0  0
  145.8528  134.3019  152.2529 C   0  0  2  0  0  0  0  0  0  0  0  0
  147.3354  133.9601  152.4914 C   0  0  0  0  0  0  0  0  0  0  0  0
  145.2735  133.3603  151.3030 N   0  0  0  0  0  0  0  0  0  0  0  0
  145.8990  132.3592  150.5858 C   0  0  0  0  0  0  0  0  0  0  0  0
  144.9478  131.7516  149.8175 C   0  0  0  0  0  0  0  0  0  0  0  0
  143.7555  132.4604  150.1328 C   0  0  0  0  0  0  0  0  0  0  0  0
  143.9541  133.4231  151.0187 N   0  0  0  0  0  0  0  0  0  0  0  0
  143.5209  135.6674  151.2479 H   0  0  0  0  0  0  0  0  0  0  0  0
  144.0736  137.2844  151.6372 H   0  0  0  0  0  0  0  0  0  0  0  0
  143.7926  136.1199  152.9284 H   0  0  0  0  0  0  0  0  0  0  0  0
  145.9264  135.8601  150.7612 H   0  0  0  0  0  0  0  0  0  0  0  0
  146.2553  136.5391  153.5972 H   0  0  0  0  0  0  0  0  0  0  0  0
  146.7468  138.3092  151.3213 H   0  0  0  0  0  0  0  0  0  0  0  0
  145.2687  138.3539  152.2605 H   0  0  0  0  0  0  0  0  0  0  0  0
  148.4933  137.8143  152.9677 H   0  0  0  0  0  0  0  0  0  0  0  0
  147.4024  140.6558  151.9668 H   0  0  0  0  0  0  0  0  0  0  0  0
  145.8616  140.7489  152.7740 H   0  0  0  0  0  0  0  0  0  0  0  0
  148.5764  141.3416  154.0370 H   0  0  0  0  0  0  0  0  0  0  0  0
  147.3345  142.5016  153.6438 H   0  0  0  0  0  0  0  0  0  0  0  0
  147.3199  141.9305  156.0778 H   0  0  0  0  0  0  0  0  0  0  0  0
  145.8030  141.5206  155.3124 H   0  0  0  0  0  0  0  0  0  0  0  0
  148.0748  139.5840  155.9735 H   0  0  0  0  0  0  0  0  0  0  0  0
  146.5246  139.6640  156.7701 H   0  0  0  0  0  0  0  0  0  0  0  0
  145.3558  138.9578  154.7368 H   0  0  0  0  0  0  0  0  0  0  0  0
  146.6003  137.7995  155.1226 H   0  0  0  0  0  0  0  0  0  0  0  0
  145.3332  134.1620  153.2030 H   0  0  0  0  0  0  0  0  0  0  0  0
  147.7615  134.5644  153.2923 H   0  0  0  0  0  0  0  0  0  0  0  0
  147.9353  134.1272  151.5961 H   0  0  0  0  0  0  0  0  0  0  0  0
  147.4537  132.9150  152.7801 H   0  0  0  0  0  0  0  0  0  0  0  0
  146.9572  132.1641  150.6798 H   0  0  0  0  0  0  0  0  0  0  0  0
  145.0831  130.9267  149.1337 H   0  0  0  0  0  0  0  0  0  0  0  0
  142.7588  132.3063  149.7463 H   0  0  0  0  0  0  0  0  0  0  0  0
  147.4489  136.4240  152.4818 H   0  0  0  0  0  0  0  0  0  0  0  0
  1  2  1  0  0  0  0
  1 19  1  0  0  0  0
  1 20  1  0  0  0  0
  1 21  1  0  0  0  0
  2  3  1  0  0  0  0
  2 12  1  0  0  0  0
  2 22  1  0  0  0  0
  3  4  1  0  0  0  0
  3 23  1  0  0  0  0
  3 44  1  0  0  0  0
  4  5  1  0  0  0  0
  4 24  1  0  0  0  0
  4 25  1  0  0  0  0
  5 11  1  0  0  0  0
  5  6  1  0  0  0  0
  5  7  1  0  0  0  0
  6 26  1  0  0  0  0
  7  8  1  0  0  0  0
  7 27  1  0  0  0  0
  7 28  1  0  0  0  0
  8  9  1  0  0  0  0
  8 29  1  0  0  0  0
  8 30  1  0  0  0  0
  9 10  1  0  0  0  0
  9 31  1  0  0  0  0
  9 32  1  0  0  0  0
 10 11  1  0  0  0  0
 10 33  1  0  0  0  0
 10 34  1  0  0  0  0
 11 35  1  0  0  0  0
 11 36  1  0  0  0  0
 12 13  1  0  0  0  0
 12 14  1  0  0  0  0
 12 37  1  0  0  0  0
 13 38  1  0  0  0  0
 13 39  1  0  0  0  0
 13 40  1  0  0  0  0
 14 18  1  0  0  0  0
 14 15  1  0  0  0  0
 15 16  2  0  0  0  0
 15 41  1  0  0  0  0
 16 17  1  0  0  0  0
 16 42  1  0  0  0  0
 17 18  2  0  0  0  0
 17 43  1  0  0  0  0
M  CHG  1   3   1
M  END
> <s_m_source_file>
AV-unprocessed.smi

> <i_m_source_file_index>
3311

> <i_lp_mmshare_version>
43012

> <i_f3d_flags>
0

> <s_epik_input>
bjFbY0hdW2NIXVtjSF1uMVtDQEBIXShbQ0gzXSlbQ0BIXShbQ0gzXSlbTkhdW0NIMl1DMihbT0hdKVtDSDJdW0NIMl1bQ0gyXVtDSDJdW0NIMl0y

> <s_epik_cmdline>
J2VwaWtfcHl0aG9uJywgJy1waCcsICc3LjAnLCAnLXRuJywgJzgnLCAnLW1hJywgJzIwMCcsICctbWV0YWxfYmluZGluZycsICctaW1hZScsICc8aW5maWxlLm1hZT4nLCAnLW9tYWUnLCAnPG91dGZpbGUubWFlPic=

> <r_lp_tautomer_probability>
1

> <r_epik_Ionization_Penalty>
0.0141403

> <r_epik_Ionization_Penalty_Charging>
0.0141276

> <r_epik_Ionization_Penalty_Neutral>
1.27139e-05

> <r_epik_State_Penalty>
0.0110334

> <r_epik_Charging_Adjusted_Penalty>
0.025161

> <i_epik_Tot_Q>
1

> <i_epik_Tot_abs_Q>
1

> <r_epik_Metal_State_Penalty>
0.0110573

> <b_epik_Metal_Only>
0

> <s_lp_Force_Field>
OPLS_2005

> <r_lp_Energy>
23.6471

> <b_lp_Chiralities_Consistent>
1

> <s_lp_Variant>
AV-unprocessed.smi:3311-2

> <Gold.Version>
5.8.1

> <Gold.Id.Protein>
6NUR|6NUR_protein|mol2

> <Gold.PLP.Fitness>
46.5390

> <Gold.PLP.PLP>
-31.0854

> <Gold.PLP.part.hbond>
-3.0000

> <Gold.PLP.part.metal>
0.0000

> <Gold.PLP.part.buried>
-0.0341

> <Gold.PLP.part.nonpolar>
-28.0544

> <Gold.PLP.part.repulsive>
0.2157

> <Gold.PLP.ligand.clash>
0.0000

> <Gold.PLP.ligand.torsion>
0.2536

> <Gold.PLP.Chemscore.Hbond>
3.0000

> <Gold.PLP.Chemscore.CHOScore>
2.2980

> <Gold.PLP.Chemscore.Metal>
0.0000

> <Gold.Chemscore.Hbonds>
donor molecule, donor type, donor heavy atom, donor atom, acceptor molecule, acceptor atom, score
      L1  H     3    44       P1  7948  2.00
      L1  H     6    26       P1  7948  1.00
      L1  C    15    41       P1 10747  1.00
      L1  C    17    43       P1 10186  0.38
      L1  C    17    43       P1 10952  0.44

> <Gold.PLP.Chemscore.Internal.Correction>
0.0667

> <Gold.Rescore>
     Score         DG    S(hbond)    S(metal)    S(lipo)     H(rot)  DE(clash)    DE(int)     intcor
     15.41     -16.92       2.00        0.00      87.65       2.14       0.85       0.65       ----

> <Gold.Chemscore.Fitness>
15.4128

> <Gold.Chemscore.DG>
-16.9158

> <Gold.Chemscore.ZeroCoef>
-5.4800

> <Gold.Chemscore.Hbond>
1.9957

> <Gold.Chemscore.Metal>
0.0000

> <Gold.Chemscore.Lipo>
87.6482

> <Gold.Chemscore.Internal_Hbond>
0.0000

> <Gold.Chemscore.DEClash>
0.8527

> <Gold.Chemscore.DEInternal>
0.6503

> <Gold.Chemscore.Rot>
2.1424

> <Gold.Chemscore.Internal.Correction>
   9.000000E+99

> <Gold.Chemscore.Hbonds>
donor molecule, donor type, donor heavy atom, donor atom, acceptor molecule, acceptor atom, score
      L1  H     3    44       P1  7948  0.99
      L1  H     6    26       P1  7948  0.98

> <Gold.Chemscore.Hbond.Weighted>
-6.6656

> <Gold.Chemscore.Metal.Weighted>
-0.0000

> <Gold.Chemscore.Lipo.Weighted>
-10.2548

> <Gold.Chemscore.Internal_Hbond.Weighted>
0.0000

> <Gold.Chemscore.DEClash.Weighted>
0.8527

> <Gold.Chemscore.DEInternal.Weighted>
0.6503

> <Gold.Chemscore.Rot.Weighted>
5.4846

> <Gold.Chemscore.Internal.Correction.Weighted>
   9.000000E+99

> <Gold.Protein.RotatedTorsions>
[ 6907 6896 6895 6894 ] final  167.33 input  -60.11 | X-H torsion
[ 7974 7965 7964 7962 ] final    2.23 input  175.53 | X-H torsion
[ 8008 7997 7996 7995 ] final  -76.70 input   59.86 | X-H torsion
[ 10167 10162 10161 10158 ] final    8.80 input  -65.29 | X-H torsion
[ 10718 10713 10712 10709 ] final  -78.62 input   66.30 | X-H torsion
[ 10763 10752 10751 10750 ] final  159.84 input  -60.55 | X-H torsion
[ 11005 11000 10999 10996 ] final   71.40 input  -57.11 | X-H torsion

> <Gold.Protein.ActiveResidues>
 VAL166  LYS551  ARG553  GLY616  TRP617  ASP618  TYR619  PRO620  LYS621  CYS622 
 ASP623  PHE694  ASN695  SER759  ASP760  ASP761  ALA762  ILE779  LEU786  VAL792 
 PHE793  MET794  SER795  GLU796  ALA797  LYS798  CYS799  TRP800  GLU811  SER814 

> <Gold.Protein.RotatedAtoms>
  151.8650  133.3464  159.3715 H   0  0  0  0  0  0  0  0  0  0  0  0  # atno 6907 bound_to 6896
  150.7168  134.5169  159.5644 H   0  0  0  0  0  0  0  0  0  0  0  0  # atno 6908 bound_to 6896
  152.2690  134.7954  160.0468 H   0  0  0  0  0  0  0  0  0  0  0  0  # atno 6909 bound_to 6896
  146.2443  140.0867  142.8354 H   0  0  0  0  0  0  0  0  0  0  0  0  # atno 7974 bound_to 7965
  154.5529  140.0723  156.8696 H   0  0  0  0  0  0  0  0  0  0  0  0  # atno 8008 bound_to 7997
  155.2959  140.3381  155.4232 H   0  0  0  0  0  0  0  0  0  0  0  0  # atno 8009 bound_to 7997
  156.1976  140.1709  156.7951 H   0  0  0  0  0  0  0  0  0  0  0  0  # atno 8010 bound_to 7997
  140.6293  143.8031  150.7274 H   0  0  0  0  0  0  0  0  0  0  0  0  # atno 10167 bound_to 10162
  156.0113  130.4523  150.3524 H   0  0  0  0  0  0  0  0  0  0  0  0  # atno 10718 bound_to 10713
  154.2380  135.2776  155.2865 H   0  0  0  0  0  0  0  0  0  0  0  0  # atno 10763 bound_to 10752
  154.5569  135.5658  153.6975 H   0  0  0  0  0  0  0  0  0  0  0  0  # atno 10764 bound_to 10752
  153.0006  135.6288  154.2523 H   0  0  0  0  0  0  0  0  0  0  0  0  # atno 10765 bound_to 10752
  139.9545  134.7168  156.0784 H   0  0  0  0  0  0  0  0  0  0  0  0  # atno 11005 bound_to 11000
  145.0686  140.9139  143.4896 LP  0  0  0  0  0  0  0  0  0  0  0  0  # atno 17320 bound_to 7965
  145.0997  139.2831  143.5693 LP  0  0  0  0  0  0  0  0  0  0  0  0  # atno 17321 bound_to 7965
  140.1638  143.4252  152.2048 LP  0  0  0  0  0  0  0  0  0  0  0  0  # atno 17342 bound_to 10162
  139.5509  144.7336  151.4439 LP  0  0  0  0  0  0  0  0  0  0  0  0  # atno 17343 bound_to 10162
  157.1616  131.0346  151.2838 LP  0  0  0  0  0  0  0  0  0  0  0  0  # atno 17370 bound_to 10713
  157.4306  130.7488  149.6987 LP  0  0  0  0  0  0  0  0  0  0  0  0  # atno 17371 bound_to 10713
  141.1214  133.6611  156.3226 LP  0  0  0  0  0  0  0  0  0  0  0  0  # atno 17394 bound_to 11000
  140.5640  134.5906  157.5441 LP  0  0  0  0  0  0  0  0  0  0  0  0  # atno 17395 bound_to 11000

$$$$
