AV-unprocessed.smi:479|AV-procd|sdf|2673|dock5
  -GOLD-   2262023 93D 1   1.00000     0.00000
 Structure written by MMmdl.
 45 47  0  0  0  0  0  0  0  0  1 V2000
  145.4142  142.3500  158.7631 C   0  0  0  0  0  0  0  0  0  0  0  0
  146.1600  141.8547  157.6606 O   0  0  0  0  0  0  0  0  0  0  0  0
  145.9588  142.4250  156.4198 C   0  0  0  0  0  0  0  0  0  0  0  0
  145.0491  143.4868  156.1812 C   0  0  0  0  0  0  0  0  0  0  0  0
  144.8858  144.0291  154.8854 C   0  0  0  0  0  0  0  0  0  0  0  0
  143.9324  145.1425  154.6109 C   0  0  0  0  0  0  0  0  0  0  0  0
  143.2460  145.8078  155.8031 C   0  0  0  0  0  0  0  0  0  0  0  0
  143.6702  145.5470  153.4787 O   0  0  0  0  0  0  0  0  0  0  0  0
  145.6510  143.4986  153.8256 C   0  0  0  0  0  0  0  0  0  0  0  0
  146.5547  142.4457  154.0518 C   0  0  0  0  0  0  0  0  0  0  0  0
  146.7131  141.8976  155.3478 C   0  0  0  0  0  0  0  0  0  0  0  0
  147.5753  140.8607  155.6400 O   0  0  0  0  0  0  0  0  0  0  0  0
  148.5373  140.4823  154.6642 C   0  0  0  0  0  0  0  0  0  0  0  0
  149.8938  140.2807  155.3575 C   0  0  1  0  0  0  0  0  0  0  0  0
  150.7869  139.7040  154.4246 O   0  0  0  0  0  0  0  0  0  0  0  0
  150.4852  141.6134  155.8579 C   0  0  0  0  0  0  0  0  0  0  0  0
  151.1746  141.4769  157.1291 N   0  0  0  0  0  0  0  0  0  0  0  0
  151.5203  140.3313  157.7476 C   0  0  0  0  0  0  0  0  0  0  0  0
  152.1548  140.4341  158.9120 N   0  0  0  0  0  0  0  0  0  0  0  0
  152.2285  141.8076  159.0689 C   0  0  0  0  0  0  0  0  0  0  0  0
  152.7891  142.5828  160.1091 C   0  0  0  0  0  0  0  0  0  0  0  0
  152.7457  143.9915  160.0530 C   0  0  0  0  0  0  0  0  0  0  0  0
  152.1433  144.6456  158.9585 C   0  0  0  0  0  0  0  0  0  0  0  0
  151.5792  143.8944  157.9092 C   0  0  0  0  0  0  0  0  0  0  0  0
  151.6243  142.4892  157.9694 C   0  0  0  0  0  0  0  0  0  0  0  0
  145.6880  141.7943  159.6598 H   0  0  0  0  0  0  0  0  0  0  0  0
  144.3417  142.2202  158.6113 H   0  0  0  0  0  0  0  0  0  0  0  0
  145.6299  143.4030  158.9490 H   0  0  0  0  0  0  0  0  0  0  0  0
  144.4699  143.8900  156.9964 H   0  0  0  0  0  0  0  0  0  0  0  0
  142.6735  145.0755  156.3728 H   0  0  0  0  0  0  0  0  0  0  0  0
  142.5609  146.5851  155.4638 H   0  0  0  0  0  0  0  0  0  0  0  0
  143.9834  146.2678  156.4611 H   0  0  0  0  0  0  0  0  0  0  0  0
  145.5526  143.8924  152.8240 H   0  0  0  0  0  0  0  0  0  0  0  0
  147.1176  142.0761  153.2084 H   0  0  0  0  0  0  0  0  0  0  0  0
  148.2411  139.5762  154.1323 H   0  0  0  0  0  0  0  0  0  0  0  0
  148.6194  141.2883  153.9332 H   0  0  0  0  0  0  0  0  0  0  0  0
  149.7770  139.6020  156.2036 H   0  0  0  0  0  0  0  0  0  0  0  0
  150.3529  138.9748  154.0083 H   0  0  0  0  0  0  0  0  0  0  0  0
  151.1830  142.0200  155.1242 H   0  0  0  0  0  0  0  0  0  0  0  0
  149.6953  142.3553  155.9799 H   0  0  0  0  0  0  0  0  0  0  0  0
  151.2911  139.3667  157.3188 H   0  0  0  0  0  0  0  0  0  0  0  0
  153.2529  142.0925  160.9521 H   0  0  0  0  0  0  0  0  0  0  0  0
  153.1768  144.5731  160.8547 H   0  0  0  0  0  0  0  0  0  0  0  0
  152.1142  145.7247  158.9254 H   0  0  0  0  0  0  0  0  0  0  0  0
  151.1162  144.3910  157.0696 H   0  0  0  0  0  0  0  0  0  0  0  0
  1  2  1  0  0  0  0
  1 26  1  0  0  0  0
  1 27  1  0  0  0  0
  1 28  1  0  0  0  0
  2  3  1  0  0  0  0
  3 11  1  0  0  0  0
  3  4  2  0  0  0  0
  4  5  1  0  0  0  0
  4 29  1  0  0  0  0
  5  6  1  0  0  0  0
  5  9  2  0  0  0  0
  6  7  1  0  0  0  0
  6  8  2  0  0  0  0
  7 30  1  0  0  0  0
  7 31  1  0  0  0  0
  7 32  1  0  0  0  0
  9 10  1  0  0  0  0
  9 33  1  0  0  0  0
 10 11  2  0  0  0  0
 10 34  1  0  0  0  0
 11 12  1  0  0  0  0
 12 13  1  0  0  0  0
 13 14  1  0  0  0  0
 13 35  1  0  0  0  0
 13 36  1  0  0  0  0
 14 15  1  0  0  0  0
 14 16  1  0  0  0  0
 14 37  1  0  0  0  0
 15 38  1  0  0  0  0
 16 17  1  0  0  0  0
 16 39  1  0  0  0  0
 16 40  1  0  0  0  0
 17 25  1  0  0  0  0
 17 18  1  0  0  0  0
 18 19  2  0  0  0  0
 18 41  1  0  0  0  0
 19 20  1  0  0  0  0
 20 25  2  0  0  0  0
 20 21  1  0  0  0  0
 21 22  2  0  0  0  0
 21 42  1  0  0  0  0
 22 23  1  0  0  0  0
 22 43  1  0  0  0  0
 23 24  2  0  0  0  0
 23 44  1  0  0  0  0
 24 25  1  0  0  0  0
 24 45  1  0  0  0  0
M  END
> <s_m_source_file>
AV-unprocessed.smi

> <i_m_source_file_index>
479

> <i_lp_mmshare_version>
43012

> <i_f3d_flags>
0

> <s_epik_input>
W0NIM11PYzFbY0hdYyhDKD1PKVtDSDNdKVtjSF1bY0hdYzFPW0NIMl1bQ0BIXShbT0hdKVtDSDJdbihbY0hdbjIpYyhjMjMpW2NIXVtjSF1bY0hdW2NIXTM=

> <s_epik_cmdline>
J2VwaWtfcHl0aG9uJywgJy1waCcsICc3LjAnLCAnLXRuJywgJzgnLCAnLW1hJywgJzIwMCcsICctbWV0YWxfYmluZGluZycsICctaW1hZScsICc8aW5maWxlLm1hZT4nLCAnLW9tYWUnLCAnPG91dGZpbGUubWFlPic=

> <r_lp_tautomer_probability>
0.99995

> <r_epik_Ionization_Penalty>
0.061028

> <r_epik_Ionization_Penalty_Charging>
0

> <r_epik_Ionization_Penalty_Neutral>
0.061028

> <r_epik_State_Penalty>
0.052945

> <r_epik_Charging_Adjusted_Penalty>
0.052945

> <i_epik_Tot_Q>
0

> <i_epik_Tot_abs_Q>
0

> <r_epik_Metal_State_Penalty>
5.53801e-05

> <b_epik_Metal_Only>
0

> <s_lp_Force_Field>
OPLS_2005

> <r_lp_Energy>
24.9927

> <b_lp_Chiralities_Consistent>
1

> <s_lp_Variant>
AV-unprocessed.smi:479-2

> <Gold.Version>
5.8.1

> <Gold.Id.Protein>
6NUR|6NUR_protein|mol2

> <Gold.PLP.Fitness>
55.7759

> <Gold.PLP.PLP>
-54.9210

> <Gold.PLP.part.hbond>
-2.0000

> <Gold.PLP.part.metal>
0.0000

> <Gold.PLP.part.buried>
-10.8331

> <Gold.PLP.part.nonpolar>
-43.4359

> <Gold.PLP.part.repulsive>
0.2572

> <Gold.PLP.ligand.clash>
0.0000

> <Gold.PLP.ligand.torsion>
1.1627

> <Gold.PLP.Chemscore.Hbond>
1.0000

> <Gold.PLP.Chemscore.CHOScore>
0.0000

> <Gold.PLP.Chemscore.Metal>
0.0000

> <Gold.Chemscore.Hbonds>
donor molecule, donor type, donor heavy atom, donor atom, acceptor molecule, acceptor atom, score
      P1  H  7989  7998       L1    15  1.00

> <Gold.PLP.Chemscore.Internal.Correction>
0.1804

> <Gold.Rescore>
     Score         DG    S(hbond)    S(metal)    S(lipo)     H(rot)  DE(clash)    DE(int)     intcor
     14.18     -16.78       0.93        0.00     128.13       2.66       1.58       1.02       ----

> <Gold.Chemscore.Fitness>
14.1815

> <Gold.Chemscore.DG>
-16.7805

> <Gold.Chemscore.ZeroCoef>
-5.4800

> <Gold.Chemscore.Hbond>
0.9303

> <Gold.Chemscore.Metal>
0.0000

> <Gold.Chemscore.Lipo>
128.1308

> <Gold.Chemscore.Internal_Hbond>
0.0000

> <Gold.Chemscore.DEClash>
1.5828

> <Gold.Chemscore.DEInternal>
1.0162

> <Gold.Chemscore.Rot>
2.6555

> <Gold.Chemscore.Internal.Correction>
   9.000000E+99

> <Gold.Chemscore.Hbonds>
donor molecule, donor type, donor heavy atom, donor atom, acceptor molecule, acceptor atom, score
      P1  H  7989  7998       L1    15  0.83

> <Gold.Chemscore.Hbond.Weighted>
-3.1071

> <Gold.Chemscore.Metal.Weighted>
-0.0000

> <Gold.Chemscore.Lipo.Weighted>
-14.9913

> <Gold.Chemscore.Internal_Hbond.Weighted>
0.0000

> <Gold.Chemscore.DEClash.Weighted>
1.5828

> <Gold.Chemscore.DEInternal.Weighted>
1.0162

> <Gold.Chemscore.Rot.Weighted>
6.7980

> <Gold.Chemscore.Internal.Correction.Weighted>
   9.000000E+99

> <Gold.Protein.RotatedTorsions>
[ 6907 6896 6895 6894 ] final    8.49 input  -60.11 | X-H torsion
[ 7974 7965 7964 7962 ] final   90.28 input  175.53 | X-H torsion
[ 8008 7997 7996 7995 ] final  173.24 input   59.86 | X-H torsion
[ 10167 10162 10161 10158 ] final   53.35 input  -65.29 | X-H torsion
[ 10718 10713 10712 10709 ] final   42.14 input   66.30 | X-H torsion
[ 10763 10752 10751 10750 ] final -111.27 input  -60.55 | X-H torsion
[ 11005 11000 10999 10996 ] final  -74.94 input  -57.11 | X-H torsion

> <Gold.Protein.ActiveResidues>
 VAL166  LYS551  ARG553  GLY616  TRP617  ASP618  TYR619  PRO620  LYS621  CYS622 
 ASP623  PHE694  ASN695  SER759  ASP760  ASP761  ALA762  ILE779  LEU786  VAL792 
 PHE793  MET794  SER795  GLU796  ALA797  LYS798  CYS799  TRP800  GLU811  SER814 

> <Gold.Protein.RotatedAtoms>
  151.7069  135.0920  160.0260 H   0  0  0  0  0  0  0  0  0  0  0  0  # atno 6907 bound_to 6896
  152.3686  133.6384  159.6078 H   0  0  0  0  0  0  0  0  0  0  0  0  # atno 6908 bound_to 6896
  150.7656  133.9224  159.3443 H   0  0  0  0  0  0  0  0  0  0  0  0  # atno 6909 bound_to 6896
  145.5211  139.2279  143.2671 H   0  0  0  0  0  0  0  0  0  0  0  0  # atno 7974 bound_to 7965
  156.1095  140.1465  156.9358 H   0  0  0  0  0  0  0  0  0  0  0  0  # atno 8008 bound_to 7997
  154.4757  140.0895  156.7299 H   0  0  0  0  0  0  0  0  0  0  0  0  # atno 8009 bound_to 7997
  155.4621  140.3438  155.4316 H   0  0  0  0  0  0  0  0  0  0  0  0  # atno 8010 bound_to 7997
  140.2417  144.3576  150.6378 H   0  0  0  0  0  0  0  0  0  0  0  0  # atno 10167 bound_to 10162
  157.4015  130.7862  149.7352 H   0  0  0  0  0  0  0  0  0  0  0  0  # atno 10718 bound_to 10713
  154.8291  135.4533  154.1013 H   0  0  0  0  0  0  0  0  0  0  0  0  # atno 10763 bound_to 10752
  153.2301  135.6904  153.7906 H   0  0  0  0  0  0  0  0  0  0  0  0  # atno 10764 bound_to 10752
  153.7291  135.3330  155.3258 H   0  0  0  0  0  0  0  0  0  0  0  0  # atno 10765 bound_to 10752
  141.1640  133.6929  156.7441 H   0  0  0  0  0  0  0  0  0  0  0  0  # atno 11005 bound_to 11000
  146.2105  140.6023  142.9061 LP  0  0  0  0  0  0  0  0  0  0  0  0  # atno 17320 bound_to 7965
  144.7676  140.5565  143.6692 LP  0  0  0  0  0  0  0  0  0  0  0  0  # atno 17321 bound_to 7965
  140.6108  143.2169  151.6889 LP  0  0  0  0  0  0  0  0  0  0  0  0  # atno 17342 bound_to 10162
  139.5075  144.3644  152.0531 LP  0  0  0  0  0  0  0  0  0  0  0  0  # atno 17343 bound_to 10162
  155.9824  130.4009  150.3416 LP  0  0  0  0  0  0  0  0  0  0  0  0  # atno 17370 bound_to 10713
  157.1544  131.0329  151.2870 LP  0  0  0  0  0  0  0  0  0  0  0  0  # atno 17371 bound_to 10713
  140.2652  134.8435  157.3796 LP  0  0  0  0  0  0  0  0  0  0  0  0  # atno 17394 bound_to 11000
  140.1573  134.4773  155.7919 LP  0  0  0  0  0  0  0  0  0  0  0  0  # atno 17395 bound_to 11000

$$$$
