AV-unprocessed.smi:184|AV-procd|sdf|1464|dock8
  -GOLD-   2262019273D 1   1.00000     0.00000
 Structure written by MMmdl.
 54 58  0  0  0  0  0  0  0  0  1 V2000
  151.7634  140.8798  155.3979 O   0  0  0  0  0  0  0  0  0  0  0  0
  151.3419  141.1965  156.5076 C   0  0  0  0  0  0  0  0  0  0  0  0
  149.9275  141.7902  156.6389 C   0  0  0  0  0  0  0  0  0  0  0  0
  149.5069  142.0450  158.0269 N   0  0  0  0  0  0  0  0  0  0  0  0
  148.2472  142.5064  158.2409 C   0  0  0  0  0  0  0  0  0  0  0  0
  147.8990  142.9503  159.4779 N   0  0  0  0  0  0  0  0  0  0  0  0
  146.6612  143.3940  159.7143 C   0  0  0  0  0  0  0  0  0  0  0  0
  145.6329  143.4862  158.8697 N   0  0  0  0  0  0  0  0  0  0  0  0
  145.9789  143.0613  157.6212 C   0  0  0  0  0  0  0  0  0  0  0  0
  147.2511  142.5594  157.2238 C   0  0  0  0  0  0  0  0  0  0  0  0
  147.2270  142.2364  155.8716 N   0  0  0  0  0  0  0  0  0  0  0  0
  146.0084  142.5130  155.4970 C   0  0  0  0  0  0  0  0  0  0  0  0
  145.1940  143.0237  156.4819 N   0  0  0  0  0  0  0  0  0  0  0  0
  143.8023  143.4230  156.3387 C   0  0  0  0  0  0  0  0  0  0  0  0
  143.6038  144.7759  155.6104 C   0  0  0  0  0  0  0  0  0  0  0  0
  144.2782  144.7004  154.3667 O   0  0  0  0  0  0  0  0  0  0  0  0
  142.1174  145.0964  155.3385 C   0  0  0  0  0  0  0  0  0  0  0  0
  141.9192  146.5298  154.8140 C   0  0  0  0  0  0  0  0  0  0  0  0
  142.4996  147.4657  155.7139 O   0  0  0  0  0  0  0  0  0  0  0  0
  143.9069  147.3050  155.8408 C   0  0  0  0  0  0  0  0  0  0  0  0
  144.2262  145.9215  156.4340 C   0  0  0  0  0  0  0  0  0  0  0  0
  150.5358  142.4203  158.9985 C   0  0  2  0  0  0  0  0  0  0  0  0
  151.0797  143.8438  158.7253 C   0  0  0  0  0  0  0  0  0  0  0  0
  152.2404  144.1984  159.6656 C   0  0  0  0  0  0  0  0  0  0  0  0
  153.3665  143.1594  159.5635 C   0  0  0  0  0  0  0  0  0  0  0  0
  152.8408  141.7490  159.8749 C   0  0  0  0  0  0  0  0  0  0  0  0
  151.6545  141.3532  158.9740 C   0  0  2  0  0  0  0  0  0  0  0  0
  152.0950  141.0536  157.6117 N   0  0  0  0  0  0  0  0  0  0  0  0
  149.9079  142.7188  156.0667 H   0  0  0  0  0  0  0  0  0  0  0  0
  149.2209  141.1054  156.1681 H   0  0  0  0  0  0  0  0  0  0  0  0
  146.4671  143.7216  160.7249 H   0  0  0  0  0  0  0  0  0  0  0  0
  145.6707  142.3613  154.4821 H   0  0  0  0  0  0  0  0  0  0  0  0
  143.2842  142.6306  155.7971 H   0  0  0  0  0  0  0  0  0  0  0  0
  143.3498  143.4554  157.3309 H   0  0  0  0  0  0  0  0  0  0  0  0
  143.6759  144.3728  153.7165 H   0  0  0  0  0  0  0  0  0  0  0  0
  141.6898  144.3880  154.6283 H   0  0  0  0  0  0  0  0  0  0  0  0
  141.5507  144.9842  156.2637 H   0  0  0  0  0  0  0  0  0  0  0  0
  142.3521  146.6479  153.8197 H   0  0  0  0  0  0  0  0  0  0  0  0
  140.8551  146.7477  154.7212 H   0  0  0  0  0  0  0  0  0  0  0  0
  144.3898  147.4400  154.8720 H   0  0  0  0  0  0  0  0  0  0  0  0
  144.2907  148.0877  156.4952 H   0  0  0  0  0  0  0  0  0  0  0  0
  143.8356  145.8869  157.4519 H   0  0  0  0  0  0  0  0  0  0  0  0
  145.3060  145.7905  156.5181 H   0  0  0  0  0  0  0  0  0  0  0  0
  150.1266  142.4246  160.0076 H   0  0  0  0  0  0  0  0  0  0  0  0
  151.4246  143.9309  157.6946 H   0  0  0  0  0  0  0  0  0  0  0  0
  150.2794  144.5755  158.8403 H   0  0  0  0  0  0  0  0  0  0  0  0
  152.6250  145.1892  159.4223 H   0  0  0  0  0  0  0  0  0  0  0  0
  151.8787  144.2496  160.6932 H   0  0  0  0  0  0  0  0  0  0  0  0
  153.8000  143.1819  158.5631 H   0  0  0  0  0  0  0  0  0  0  0  0
  154.1700  143.4155  160.2545 H   0  0  0  0  0  0  0  0  0  0  0  0
  153.6464  141.0198  159.7815 H   0  0  0  0  0  0  0  0  0  0  0  0
  152.5211  141.7135  160.9173 H   0  0  0  0  0  0  0  0  0  0  0  0
  151.2410  140.4201  159.3600 H   0  0  0  0  0  0  0  0  0  0  0  0
  153.0264  140.6792  157.5034 H   0  0  0  0  0  0  0  0  0  0  0  0
  1  2  2  0  0  0  0
  2 28  1  0  0  0  0
  2  3  1  0  0  0  0
  3  4  1  0  0  0  0
  3 29  1  0  0  0  0
  3 30  1  0  0  0  0
  4  5  1  0  0  0  0
  4 22  1  0  0  0  0
  5 10  1  0  0  0  0
  5  6  2  0  0  0  0
  6  7  1  0  0  0  0
  7  8  2  0  0  0  0
  7 31  1  0  0  0  0
  8  9  1  0  0  0  0
  9 13  1  0  0  0  0
  9 10  2  0  0  0  0
 10 11  1  0  0  0  0
 11 12  2  0  0  0  0
 12 13  1  0  0  0  0
 12 32  1  0  0  0  0
 13 14  1  0  0  0  0
 14 15  1  0  0  0  0
 14 33  1  0  0  0  0
 14 34  1  0  0  0  0
 15 21  1  0  0  0  0
 15 16  1  0  0  0  0
 15 17  1  0  0  0  0
 16 35  1  0  0  0  0
 17 18  1  0  0  0  0
 17 36  1  0  0  0  0
 17 37  1  0  0  0  0
 18 19  1  0  0  0  0
 18 38  1  0  0  0  0
 18 39  1  0  0  0  0
 19 20  1  0  0  0  0
 20 21  1  0  0  0  0
 20 40  1  0  0  0  0
 20 41  1  0  0  0  0
 21 42  1  0  0  0  0
 21 43  1  0  0  0  0
 22 27  1  0  0  0  0
 22 23  1  0  0  0  0
 22 44  1  0  0  0  0
 23 24  1  0  0  0  0
 23 45  1  0  0  0  0
 23 46  1  0  0  0  0
 24 25  1  0  0  0  0
 24 47  1  0  0  0  0
 24 48  1  0  0  0  0
 25 26  1  0  0  0  0
 25 49  1  0  0  0  0
 25 50  1  0  0  0  0
 26 27  1  0  0  0  0
 26 51  1  0  0  0  0
 26 52  1  0  0  0  0
 27 28  1  0  0  0  0
 27 53  1  0  0  0  0
 28 54  1  0  0  0  0
M  END
> <s_m_source_file>
AV-unprocessed.smi

> <i_m_source_file_index>
184

> <i_lp_mmshare_version>
43012

> <i_f3d_flags>
0

> <s_epik_input>
W0NIMl0xW0NIMl1bQ0gyXVtDSDJdW0NASF0oW0NASF0xMilbTkhdQyg9TylbQ0gyXU4yYyhuW2NIXW4zKWMoYzM0KW5bY0hdbjRbQ0gyXUM1KFtPSF0pW0NIMl1bQ0gyXU9bQ0gyXVtDSDJdNQ==

> <s_epik_cmdline>
J2VwaWtfcHl0aG9uJywgJy1waCcsICc3LjAnLCAnLXRuJywgJzgnLCAnLW1hJywgJzIwMCcsICctbWV0YWxfYmluZGluZycsICctaW1hZScsICc8aW5maWxlLm1hZT4nLCAnLW9tYWUnLCAnPG91dGZpbGUubWFlPic=

> <r_lp_tautomer_probability>
1

> <r_epik_Ionization_Penalty>
0.000822761

> <r_epik_Ionization_Penalty_Charging>
0

> <r_epik_Ionization_Penalty_Neutral>
0.000822761

> <r_epik_State_Penalty>
0.000403048

> <r_epik_Charging_Adjusted_Penalty>
0.000403048

> <i_epik_Tot_Q>
0

> <i_epik_Tot_abs_Q>
0

> <r_epik_Metal_State_Penalty>
-0

> <b_epik_Metal_Only>
0

> <s_lp_Force_Field>
OPLS_2005

> <r_lp_Energy>
36.9453

> <b_lp_Chiralities_Consistent>
1

> <s_lp_Variant>
AV-unprocessed.smi:184-4

> <Gold.Version>
5.8.1

> <Gold.Id.Protein>
6NUR|6NUR_protein|mol2

> <Gold.PLP.Fitness>
48.0731

> <Gold.PLP.PLP>
-42.1079

> <Gold.PLP.part.hbond>
-3.0000

> <Gold.PLP.part.metal>
0.0000

> <Gold.PLP.part.buried>
-6.6775

> <Gold.PLP.part.nonpolar>
-33.0464

> <Gold.PLP.part.repulsive>
0.4224

> <Gold.PLP.ligand.clash>
0.0000

> <Gold.PLP.ligand.torsion>
0.3189

> <Gold.PLP.Chemscore.Hbond>
2.1386

> <Gold.PLP.Chemscore.CHOScore>
0.0000

> <Gold.PLP.Chemscore.Metal>
0.0000

> <Gold.Chemscore.Hbonds>
donor molecule, donor type, donor heavy atom, donor atom, acceptor molecule, acceptor atom, score
      P1  H  6933  6944       L1     6  0.49
      P1  H  7989  7998       L1     1  0.56

> <Gold.PLP.Chemscore.Internal.Correction>
0.1871

> <Gold.Rescore>
     Score         DG    S(hbond)    S(metal)    S(lipo)     H(rot)  DE(clash)    DE(int)     intcor
     15.35     -18.08       1.85        0.00      94.92       1.83       0.01       2.72       ----

> <Gold.Chemscore.Fitness>
15.3506

> <Gold.Chemscore.DG>
-18.0759

> <Gold.Chemscore.ZeroCoef>
-5.4800

> <Gold.Chemscore.Hbond>
1.8453

> <Gold.Chemscore.Metal>
0.0000

> <Gold.Chemscore.Lipo>
94.9224

> <Gold.Chemscore.Internal_Hbond>
0.0000

> <Gold.Chemscore.DEClash>
0.0050

> <Gold.Chemscore.DEInternal>
2.7202

> <Gold.Chemscore.Rot>
1.8255

> <Gold.Chemscore.Internal.Correction>
   9.000000E+99

> <Gold.Chemscore.Hbonds>
donor molecule, donor type, donor heavy atom, donor atom, acceptor molecule, acceptor atom, score
      P1  H  6933  6944       L1     6  0.17
      P1  H  7989  7998       L1     1  0.56

> <Gold.Chemscore.Hbond.Weighted>
-6.1631

> <Gold.Chemscore.Metal.Weighted>
-0.0000

> <Gold.Chemscore.Lipo.Weighted>
-11.1059

> <Gold.Chemscore.Internal_Hbond.Weighted>
0.0000

> <Gold.Chemscore.DEClash.Weighted>
0.0050

> <Gold.Chemscore.DEInternal.Weighted>
2.7202

> <Gold.Chemscore.Rot.Weighted>
4.6732

> <Gold.Chemscore.Internal.Correction.Weighted>
   9.000000E+99

> <Gold.Protein.RotatedTorsions>
[ 6907 6896 6895 6894 ] final -156.08 input  -60.11 | X-H torsion
[ 7974 7965 7964 7962 ] final   13.48 input  175.53 | X-H torsion
[ 8008 7997 7996 7995 ] final   43.51 input   59.86 | X-H torsion
[ 10167 10162 10161 10158 ] final  168.75 input  -65.29 | X-H torsion
[ 10718 10713 10712 10709 ] final  120.84 input   66.30 | X-H torsion
[ 10763 10752 10751 10750 ] final   14.04 input  -60.55 | X-H torsion
[ 11005 11000 10999 10996 ] final  149.72 input  -57.11 | X-H torsion

> <Gold.Protein.ActiveResidues>
 VAL166  LYS551  ARG553  GLY616  TRP617  ASP618  TYR619  PRO620  LYS621  CYS622 
 ASP623  PHE694  ASN695  SER759  ASP760  ASP761  ALA762  ILE779  LEU786  VAL792 
 PHE793  MET794  SER795  GLU796  ALA797  LYS798  CYS799  TRP800  GLU811  SER814 

> <Gold.Protein.RotatedAtoms>
  151.2822  133.4204  159.2627 H   0  0  0  0  0  0  0  0  0  0  0  0  # atno 6907 bound_to 6896
  151.0351  134.9567  159.8142 H   0  0  0  0  0  0  0  0  0  0  0  0  # atno 6908 bound_to 6896
  152.5354  134.2781  159.9050 H   0  0  0  0  0  0  0  0  0  0  0  0  # atno 6909 bound_to 6896
  146.2328  139.9182  142.8514 H   0  0  0  0  0  0  0  0  0  0  0  0  # atno 7974 bound_to 7965
  155.3040  140.3387  155.4246 H   0  0  0  0  0  0  0  0  0  0  0  0  # atno 8008 bound_to 7997
  156.1988  140.1725  156.7982 H   0  0  0  0  0  0  0  0  0  0  0  0  # atno 8009 bound_to 7997
  154.5532  140.0701  156.8686 H   0  0  0  0  0  0  0  0  0  0  0  0  # atno 8010 bound_to 7997
  139.4975  144.3781  151.9652 H   0  0  0  0  0  0  0  0  0  0  0  0  # atno 10167 bound_to 10162
  157.5862  131.1069  150.8090 H   0  0  0  0  0  0  0  0  0  0  0  0  # atno 10718 bound_to 10713
  153.1661  135.6804  153.8673 H   0  0  0  0  0  0  0  0  0  0  0  0  # atno 10763 bound_to 10752
  153.8053  135.3150  155.3396 H   0  0  0  0  0  0  0  0  0  0  0  0  # atno 10764 bound_to 10752
  154.7966  135.4803  154.0267 H   0  0  0  0  0  0  0  0  0  0  0  0  # atno 10765 bound_to 10752
  140.1069  134.8948  157.1879 H   0  0  0  0  0  0  0  0  0  0  0  0  # atno 11005 bound_to 11000
  145.2162  140.9916  143.4072 LP  0  0  0  0  0  0  0  0  0  0  0  0  # atno 17320 bound_to 7965
  144.9649  139.3941  143.6338 LP  0  0  0  0  0  0  0  0  0  0  0  0  # atno 17321 bound_to 7965
  140.3217  144.3420  150.6008 LP  0  0  0  0  0  0  0  0  0  0  0  0  # atno 17342 bound_to 10162
  140.5717  143.2180  151.7587 LP  0  0  0  0  0  0  0  0  0  0  0  0  # atno 17343 bound_to 10162
  156.8524  130.5085  149.5310 LP  0  0  0  0  0  0  0  0  0  0  0  0  # atno 17370 bound_to 10713
  156.0911  130.5896  150.9734 LP  0  0  0  0  0  0  0  0  0  0  0  0  # atno 17371 bound_to 10713
  140.3143  134.2988  155.7260 LP  0  0  0  0  0  0  0  0  0  0  0  0  # atno 17394 bound_to 11000
  141.2120  133.7670  156.9821 LP  0  0  0  0  0  0  0  0  0  0  0  0  # atno 17395 bound_to 11000

$$$$
