AV-unprocessed.smi:72|AV-procd|sdf|730|dock5
  -GOLD-   2262017 63D 1   1.00000     0.00000
 Structure written by MMmdl.
 28 29  0  0  0  0  0  0  0  0  2 V2000
  155.1080  137.5812  156.3790 N   0  0  0  0  0  0  0  0  0  0  0  0
  153.8577  137.7375  156.3266 C   0  0  0  0  0  0  0  0  0  0  0  0
  152.9771  136.6593  156.7200 N   0  0  0  0  0  0  0  0  0  0  0  0
  151.6982  136.8653  156.6439 C   0  0  0  0  0  0  0  0  0  0  0  0
  151.1490  138.1309  156.1775 N   0  0  0  0  0  0  0  0  0  0  0  0
  149.6496  138.3524  156.1052 C   0  0  1  0  0  0  0  0  0  0  0  0
  149.3533  139.6280  156.5931 O   0  0  0  0  0  0  0  0  0  0  0  0
  148.3616  140.2376  155.7732 C   0  0  1  0  0  0  0  0  0  0  0  0
  148.3860  141.7698  155.9146 C   0  0  0  0  0  0  0  0  0  0  0  0
  149.6675  142.2677  155.5931 O   0  0  0  0  0  0  0  0  0  0  0  0
  148.6789  139.6975  154.3722 C   0  0  1  0  0  0  0  0  0  0  0  0
  149.7169  140.4465  153.7609 O   0  0  0  0  0  0  0  0  0  0  0  0
  149.0909  138.2592  154.6683 C   0  0  1  0  0  0  0  0  0  0  0  0
  149.9668  137.7182  153.6938 O   0  0  0  0  0  0  0  0  0  0  0  0
  152.0369  139.1783  155.8126 C   0  0  0  0  0  0  0  0  0  0  0  0
  151.5552  140.2521  155.4513 O   0  0  0  0  0  0  0  0  0  0  0  0
  153.3787  138.9531  155.8900 N   0  5  0  0  0  0  0  0  0  0  0  0
  149.1954  137.6265  156.7809 H   0  0  0  0  0  0  0  0  0  0  0  0
  147.3854  139.8487  156.0699 H   0  0  0  0  0  0  0  0  0  0  0  0
  147.8063  139.7376  153.7195 H   0  0  0  0  0  0  0  0  0  0  0  0
  148.1963  137.6366  154.7122 H   0  0  0  0  0  0  0  0  0  0  0  0
  155.6167  138.4011  156.0819 H   0  0  0  0  0  0  0  0  0  0  0  0
  150.9607  136.1126  156.9245 H   0  0  0  0  0  0  0  0  0  0  0  0
  147.6284  142.2390  155.2859 H   0  0  0  0  0  0  0  0  0  0  0  0
  148.1766  142.0548  156.9459 H   0  0  0  0  0  0  0  0  0  0  0  0
  149.5976  143.1966  155.4344 H   0  0  0  0  0  0  0  0  0  0  0  0
  149.6681  140.3121  152.8265 H   0  0  0  0  0  0  0  0  0  0  0  0
  149.4439  137.3267  153.0103 H   0  0  0  0  0  0  0  0  0  0  0  0
  1  2  2  0  0  0  0
  1 22  1  0  0  0  0
  2 17  1  0  0  0  0
  2  3  1  0  0  0  0
  3  4  2  0  0  0  0
  4  5  1  0  0  0  0
  4 23  1  0  0  0  0
  5  6  1  0  0  0  0
  5 15  1  0  0  0  0
  6 18  1  0  0  0  0
  6 13  1  0  0  0  0
  6  7  1  0  0  0  0
  7  8  1  0  0  0  0
  8 19  1  0  0  0  0
  8  9  1  0  0  0  0
  8 11  1  0  0  0  0
  9 10  1  0  0  0  0
  9 24  1  0  0  0  0
  9 25  1  0  0  0  0
 10 26  1  0  0  0  0
 11 20  1  0  0  0  0
 11 12  1  0  0  0  0
 11 13  1  0  0  0  0
 12 27  1  0  0  0  0
 13 21  1  0  0  0  0
 13 14  1  0  0  0  0
 14 28  1  0  0  0  0
 15 16  2  0  0  0  0
 15 17  1  0  0  0  0
M  CHG  1  17  -1
M  END
> <s_m_source_file>
AV-unprocessed.smi

> <i_m_source_file_index>
72

> <i_lp_mmshare_version>
43012

> <i_f3d_flags>
0

> <s_epik_input>
W05IMl1jMW5bY0hdbihjKD1PKW4xKVtDQEBIXTJPW0NASF0oW0NIMl1bT0hdKVtDQEBIXShbT0hdKVtDQEhdMltPSF0=

> <s_epik_cmdline>
J2VwaWtfcHl0aG9uJywgJy1waCcsICc3LjAnLCAnLXRuJywgJzgnLCAnLW1hJywgJzIwMCcsICctbWV0YWxfYmluZGluZycsICctaW1hZScsICc8aW5maWxlLm1hZT4nLCAnLW9tYWUnLCAnPG91dGZpbGUubWFlPic=

> <r_lp_tautomer_probability>
7.17554e-07

> <r_epik_Ionization_Penalty>
12.8705

> <r_epik_Ionization_Penalty_Charging>
5.64144

> <r_epik_Ionization_Penalty_Neutral>
7.22905

> <r_epik_State_Penalty>
3.30104

> <r_epik_Charging_Adjusted_Penalty>
8.94249

> <i_epik_Tot_Q>
-1

> <i_epik_Tot_abs_Q>
1

> <r_epik_Metal_State_Penalty>
0.529074

> <b_epik_Metal_Only>
1

> <s_epik_Chemistry_Notes>
This compound contains an acetal/aminal-like group ( X-CH(R)-Y where X, Y are N, S, or O) that may be acid/base labile, releasing an aldehyde.

> <s_lp_Force_Field>
OPLS_2005

> <r_lp_Energy>
43.5676

> <b_lp_Chiralities_Consistent>
1

> <s_lp_Variant>
AV-unprocessed.smi:72-68

> <Gold.Version>
5.8.1

> <Gold.Id.Protein>
6NUR|6NUR_protein|mol2

> <Gold.PLP.Fitness>
37.3449

> <Gold.PLP.PLP>
-17.5900

> <Gold.PLP.part.hbond>
-8.8189

> <Gold.PLP.part.metal>
0.0000

> <Gold.PLP.part.buried>
-0.6758

> <Gold.PLP.part.nonpolar>
-9.1178

> <Gold.PLP.part.repulsive>
0.0136

> <Gold.PLP.ligand.clash>
0.0000

> <Gold.PLP.ligand.torsion>
0.4813

> <Gold.PLP.Chemscore.Hbond>
6.9040

> <Gold.PLP.Chemscore.CHOScore>
0.0000

> <Gold.PLP.Chemscore.Metal>
0.0000

> <Gold.Chemscore.Hbonds>
donor molecule, donor type, donor heavy atom, donor atom, acceptor molecule, acceptor atom, score
      L1  H    10    26       P1  8028  1.00
      L1  H    12    27       P1  7957  1.00
      L1  H    14    28       P1  7948  1.00
      P1  H  7989  7998       L1    16  0.89
      P1  H  7997  8010       L1    17  2.00
      P1  H 10752 10764       L1     3  0.90

> <Gold.PLP.Chemscore.Internal.Correction>
0.0055

> <Gold.Rescore>
     Score         DG    S(hbond)    S(metal)    S(lipo)     H(rot)  DE(clash)    DE(int)     intcor
      6.55     -11.94       4.48        0.00      15.81       4.04       0.04       5.35       ----

> <Gold.Chemscore.Fitness>
6.5503

> <Gold.Chemscore.DG>
-11.9444

> <Gold.Chemscore.ZeroCoef>
-5.4800

> <Gold.Chemscore.Hbond>
4.4783

> <Gold.Chemscore.Metal>
0.0000

> <Gold.Chemscore.Lipo>
15.8103

> <Gold.Chemscore.Internal_Hbond>
0.0000

> <Gold.Chemscore.DEClash>
0.0424

> <Gold.Chemscore.DEInternal>
5.3517

> <Gold.Chemscore.Rot>
4.0403

> <Gold.Chemscore.Internal.Correction>
   9.000000E+99

> <Gold.Chemscore.Hbonds>
donor molecule, donor type, donor heavy atom, donor atom, acceptor molecule, acceptor atom, score
      L1  H    10    26       P1  8028  0.98
      L1  H    12    27       P1  7957  1.00
      L1  H    14    28       P1  7948  0.87
      P1  H  7989  7998       L1    16  0.81
      P1  H  7997  8010       L1    17  0.67
      P1  H 10752 10764       L1     3  0.08

> <Gold.Chemscore.Hbond.Weighted>
-14.9576

> <Gold.Chemscore.Metal.Weighted>
-0.0000

> <Gold.Chemscore.Lipo.Weighted>
-1.8498

> <Gold.Chemscore.Internal_Hbond.Weighted>
0.0000

> <Gold.Chemscore.DEClash.Weighted>
0.0424

> <Gold.Chemscore.DEInternal.Weighted>
5.3517

> <Gold.Chemscore.Rot.Weighted>
10.3431

> <Gold.Chemscore.Internal.Correction.Weighted>
   9.000000E+99

> <Gold.Protein.RotatedTorsions>
[ 6907 6896 6895 6894 ] final   71.36 input  -60.11 | X-H torsion
[ 7974 7965 7964 7962 ] final -155.35 input  175.53 | X-H torsion
[ 8008 7997 7996 7995 ] final   77.65 input   59.86 | X-H torsion
[ 10167 10162 10161 10158 ] final   78.72 input  -65.29 | X-H torsion
[ 10718 10713 10712 10709 ] final   14.86 input   66.30 | X-H torsion
[ 10763 10752 10751 10750 ] final  -11.59 input  -60.55 | X-H torsion
[ 11005 11000 10999 10996 ] final -175.87 input  -57.11 | X-H torsion

> <Gold.Protein.ActiveResidues>
 VAL166  LYS551  ARG553  GLY616  TRP617  ASP618  TYR619  PRO620  LYS621  CYS622 
 ASP623  PHE694  ASN695  SER759  ASP760  ASP761  ALA762  ILE779  LEU786  VAL792 
 PHE793  MET794  SER795  GLU796  ALA797  LYS798  CYS799  TRP800  GLU811  SER814 

> <Gold.Protein.RotatedAtoms>
  152.4805  134.4732  159.9641 H   0  0  0  0  0  0  0  0  0  0  0  0  # atno 6907 bound_to 6896
  151.4739  133.3556  159.2835 H   0  0  0  0  0  0  0  0  0  0  0  0  # atno 6908 bound_to 6896
  150.8874  134.8299  159.7330 H   0  0  0  0  0  0  0  0  0  0  0  0  # atno 6909 bound_to 6896
  144.7644  140.4261  143.5953 H   0  0  0  0  0  0  0  0  0  0  0  0  # atno 7974 bound_to 7965
  155.8447  140.3461  155.5654 H   0  0  0  0  0  0  0  0  0  0  0  0  # atno 8008 bound_to 7997
  155.8103  140.0898  157.1927 H   0  0  0  0  0  0  0  0  0  0  0  0  # atno 8009 bound_to 7997
  154.4006  140.1449  156.3366 H   0  0  0  0  0  0  0  0  0  0  0  0  # atno 8010 bound_to 7997
  139.9680  144.5915  150.8012 H   0  0  0  0  0  0  0  0  0  0  0  0  # atno 10167 bound_to 10162
  157.0451  130.6247  149.5758 H   0  0  0  0  0  0  0  0  0  0  0  0  # atno 10718 bound_to 10713
  153.4860  135.7017  153.5911 H   0  0  0  0  0  0  0  0  0  0  0  0  # atno 10763 bound_to 10752
  153.4104  135.3850  155.2047 H   0  0  0  0  0  0  0  0  0  0  0  0  # atno 10764 bound_to 10752
  154.8719  135.3903  154.4314 H   0  0  0  0  0  0  0  0  0  0  0  0  # atno 10765 bound_to 10752
  140.4584  134.6277  157.4832 H   0  0  0  0  0  0  0  0  0  0  0  0  # atno 11005 bound_to 11000
  145.6516  139.1566  143.2859 LP  0  0  0  0  0  0  0  0  0  0  0  0  # atno 17320 bound_to 7965
  146.1738  140.6604  142.9221 LP  0  0  0  0  0  0  0  0  0  0  0  0  # atno 17321 bound_to 7965
  140.7531  143.3003  151.3097 LP  0  0  0  0  0  0  0  0  0  0  0  0  # atno 17342 bound_to 10162
  139.6503  144.0374  152.2621 LP  0  0  0  0  0  0  0  0  0  0  0  0  # atno 17343 bound_to 10162
  156.0025  130.5107  150.7715 LP  0  0  0  0  0  0  0  0  0  0  0  0  # atno 17370 bound_to 10713
  157.5074  131.0923  151.0241 LP  0  0  0  0  0  0  0  0  0  0  0  0  # atno 17371 bound_to 10713
  139.9961  134.6909  155.9607 LP  0  0  0  0  0  0  0  0  0  0  0  0  # atno 17394 bound_to 11000
  141.1632  133.6538  156.4390 LP  0  0  0  0  0  0  0  0  0  0  0  0  # atno 17395 bound_to 11000

$$$$
