AV-unprocessed.smi:2064|AV-procd|sdf|8416|dock2
  -GOLD-   2272011103D 1   1.00000     0.00000
 Structure written by MMmdl.
 46 48  0  0  0  0  0  0  0  0  1 V2000
  146.1889  141.3163  155.0213 N   0  0  0  0  0  0  0  0  0  0  0  0
  147.3023  141.0241  155.1414 C   0  0  0  0  0  0  0  0  0  0  0  0
  148.6747  140.6804  155.3159 C   0  0  0  0  0  0  0  0  0  0  0  0
  149.5025  141.4240  156.0787 C   0  0  0  0  0  0  0  0  0  0  0  0
  150.8326  141.1101  156.2527 N   0  0  0  0  0  0  0  0  0  0  0  0
  151.6527  141.8232  157.1910 C   0  0  0  0  0  0  0  0  0  0  0  0
  151.2161  141.8983  158.6377 C   0  0  0  0  0  0  0  0  0  0  0  0
  151.1798  143.1388  157.7789 C   0  0  0  0  0  0  0  0  0  0  0  0
  151.3627  139.9295  155.6877 C   0  0  0  0  0  0  0  0  0  0  0  0
  152.5232  139.5776  155.9146 O   0  0  0  0  0  0  0  0  0  0  0  0
  150.5159  139.1531  154.8599 N   0  0  0  0  0  0  0  0  0  0  0  0
  151.0660  137.9290  154.2371 C   0  0  0  0  0  0  0  0  0  0  0  0
  150.9560  136.6819  155.1277 C   0  0  0  0  0  0  0  0  0  0  0  0
  151.7388  136.4951  156.0604 O   0  0  0  0  0  0  0  0  0  0  0  0
  149.9640  135.8327  154.8189 N   0  0  0  0  0  0  0  0  0  0  0  0
  149.6612  134.5858  155.5178 C   0  0  0  0  0  0  0  0  0  0  0  0
  150.9807  133.8619  155.8579 C   0  0  0  0  0  0  0  0  0  0  0  0
  150.8215  132.5010  156.5575 C   0  0  0  0  0  0  0  0  0  0  0  0
  150.3545  131.3911  155.6021 C   0  0  0  0  0  0  0  0  0  0  0  0
  148.8312  131.2736  155.4219 C   0  0  0  0  0  0  0  0  0  0  0  0
  148.0372  132.5916  155.4130 C   0  0  0  0  0  0  0  0  0  0  0  0
  148.6915  133.7560  154.6502 C   0  0  0  0  0  0  0  0  0  0  0  0
  149.1536  139.4788  154.6365 C   0  0  0  0  0  0  0  0  0  0  0  0
  148.4400  138.7719  153.9227 O   0  0  0  0  0  0  0  0  0  0  0  0
  149.1110  142.3033  156.5697 H   0  0  0  0  0  0  0  0  0  0  0  0
  152.7254  141.7389  157.0253 H   0  0  0  0  0  0  0  0  0  0  0  0
  150.2603  141.4542  158.9097 H   0  0  0  0  0  0  0  0  0  0  0  0
  151.9913  141.8359  159.3987 H   0  0  0  0  0  0  0  0  0  0  0  0
  151.9314  143.9028  157.9662 H   0  0  0  0  0  0  0  0  0  0  0  0
  150.1999  143.5116  157.4868 H   0  0  0  0  0  0  0  0  0  0  0  0
  150.5752  137.7155  153.2864 H   0  0  0  0  0  0  0  0  0  0  0  0
  152.1133  138.0730  153.9656 H   0  0  0  0  0  0  0  0  0  0  0  0
  149.3708  136.0668  154.0361 H   0  0  0  0  0  0  0  0  0  0  0  0
  149.1489  134.8324  156.4498 H   0  0  0  0  0  0  0  0  0  0  0  0
  151.5800  133.7382  154.9546 H   0  0  0  0  0  0  0  0  0  0  0  0
  151.5696  134.5074  156.5110 H   0  0  0  0  0  0  0  0  0  0  0  0
  151.7998  132.2164  156.9462 H   0  0  0  0  0  0  0  0  0  0  0  0
  150.1671  132.5767  157.4265 H   0  0  0  0  0  0  0  0  0  0  0  0
  150.8274  131.5287  154.6290 H   0  0  0  0  0  0  0  0  0  0  0  0
  150.7233  130.4313  155.9655 H   0  0  0  0  0  0  0  0  0  0  0  0
  148.6393  130.7330  154.4943 H   0  0  0  0  0  0  0  0  0  0  0  0
  148.4271  130.6428  156.2144 H   0  0  0  0  0  0  0  0  0  0  0  0
  147.0604  132.3869  154.9734 H   0  0  0  0  0  0  0  0  0  0  0  0
  147.8275  132.9005  156.4378 H   0  0  0  0  0  0  0  0  0  0  0  0
  147.8893  134.4153  154.3151 H   0  0  0  0  0  0  0  0  0  0  0  0
  149.1809  133.3996  153.7428 H   0  0  0  0  0  0  0  0  0  0  0  0
  1  2  3  0  0  0  0
  2  3  1  0  0  0  0
  3 23  1  0  0  0  0
  3  4  2  0  0  0  0
  4  5  1  0  0  0  0
  4 25  1  0  0  0  0
  5  6  1  0  0  0  0
  5  9  1  0  0  0  0
  6  8  1  0  0  0  0
  6  7  1  0  0  0  0
  6 26  1  0  0  0  0
  7  8  1  0  0  0  0
  7 27  1  0  0  0  0
  7 28  1  0  0  0  0
  8 29  1  0  0  0  0
  8 30  1  0  0  0  0
  9 10  2  0  0  0  0
  9 11  1  0  0  0  0
 11 12  1  0  0  0  0
 11 23  1  0  0  0  0
 12 13  1  0  0  0  0
 12 31  1  0  0  0  0
 12 32  1  0  0  0  0
 13 14  2  0  0  0  0
 13 15  1  0  0  0  0
 15 16  1  0  0  0  0
 15 33  1  0  0  0  0
 16 22  1  0  0  0  0
 16 17  1  0  0  0  0
 16 34  1  0  0  0  0
 17 18  1  0  0  0  0
 17 35  1  0  0  0  0
 17 36  1  0  0  0  0
 18 19  1  0  0  0  0
 18 37  1  0  0  0  0
 18 38  1  0  0  0  0
 19 20  1  0  0  0  0
 19 39  1  0  0  0  0
 19 40  1  0  0  0  0
 20 21  1  0  0  0  0
 20 41  1  0  0  0  0
 20 42  1  0  0  0  0
 21 22  1  0  0  0  0
 21 43  1  0  0  0  0
 21 44  1  0  0  0  0
 22 45  1  0  0  0  0
 22 46  1  0  0  0  0
 23 24  2  0  0  0  0
M  END
> <s_m_source_file>
AV-unprocessed.smi

> <i_m_source_file_index>
2064

> <i_lp_mmshare_version>
43012

> <i_f3d_flags>
0

> <s_epik_input>
TiNDYzFbY0hdbihbQ0hdMltDSDJdW0NIMl0yKWMoPU8pbihjMT1PKVtDSDJdQyg9TylbTkhdW0NIXTNbQ0gyXVtDSDJdW0NIMl1bQ0gyXVtDSDJdW0NIMl0z

> <s_epik_cmdline>
J2VwaWtfcHl0aG9uJywgJy1waCcsICc3LjAnLCAnLXRuJywgJzgnLCAnLW1hJywgJzIwMCcsICctbWV0YWxfYmluZGluZycsICctaW1hZScsICc8aW5maWxlLm1hZT4nLCAnLW9tYWUnLCAnPG91dGZpbGUubWFlPic=

> <r_lp_tautomer_probability>
1

> <r_epik_Ionization_Penalty>
2.03018e-08

> <r_epik_Ionization_Penalty_Charging>
8.701e-11

> <r_epik_Ionization_Penalty_Neutral>
2.02148e-08

> <r_epik_State_Penalty>
-0

> <r_epik_Charging_Adjusted_Penalty>
8.701e-11

> <i_epik_Tot_Q>
0

> <i_epik_Tot_abs_Q>
0

> <r_epik_Metal_State_Penalty>
-0

> <b_epik_Metal_Only>
0

> <s_lp_Force_Field>
OPLS_2005

> <r_lp_Energy>
40.6124

> <b_lp_Chiralities_Consistent>
1

> <s_lp_Variant>
AV-unprocessed.smi:2064-1

> <Gold.Version>
5.8.1

> <Gold.Id.Protein>
6NUR|6NUR_protein|mol2

> <Gold.PLP.Fitness>
49.5070

> <Gold.PLP.PLP>
-39.2996

> <Gold.PLP.part.hbond>
-3.3626

> <Gold.PLP.part.metal>
0.0000

> <Gold.PLP.part.buried>
-3.8207

> <Gold.PLP.part.nonpolar>
-33.1724

> <Gold.PLP.part.repulsive>
2.4804

> <Gold.PLP.ligand.clash>
0.0868

> <Gold.PLP.ligand.torsion>
0.9518

> <Gold.PLP.Chemscore.Hbond>
2.9920

> <Gold.PLP.Chemscore.CHOScore>
1.0000

> <Gold.PLP.Chemscore.Metal>
0.0000

> <Gold.Chemscore.Hbonds>
donor molecule, donor type, donor heavy atom, donor atom, acceptor molecule, acceptor atom, score
      L1  H    15    33       P1  7948  0.59
      P1  H  7997  8010       L1    10  1.00
      P1  H 10752 10765       L1    14  0.70
      L1  C     4    25       P1  8028  0.84

> <Gold.PLP.Chemscore.Internal.Correction>
0.2217

> <Gold.Rescore>
     Score         DG    S(hbond)    S(metal)    S(lipo)     H(rot)  DE(clash)    DE(int)     intcor
     14.79     -18.46       2.43        0.00      78.91       1.70       1.40       2.27       ----

> <Gold.Chemscore.Fitness>
14.7903

> <Gold.Chemscore.DG>
-18.4600

> <Gold.Chemscore.ZeroCoef>
-5.4800

> <Gold.Chemscore.Hbond>
2.4278

> <Gold.Chemscore.Metal>
0.0000

> <Gold.Chemscore.Lipo>
78.9130

> <Gold.Chemscore.Internal_Hbond>
0.0000

> <Gold.Chemscore.DEClash>
1.4034

> <Gold.Chemscore.DEInternal>
2.2662

> <Gold.Chemscore.Rot>
1.7038

> <Gold.Chemscore.Internal.Correction>
   9.000000E+99

> <Gold.Chemscore.Hbonds>
donor molecule, donor type, donor heavy atom, donor atom, acceptor molecule, acceptor atom, score
      L1  H    15    33       P1  7948  0.44
      P1  H  7997  8010       L1    10  0.99
      P1  H 10752 10765       L1    14  0.07

> <Gold.Chemscore.Hbond.Weighted>
-8.1089

> <Gold.Chemscore.Metal.Weighted>
-0.0000

> <Gold.Chemscore.Lipo.Weighted>
-9.2328

> <Gold.Chemscore.Internal_Hbond.Weighted>
0.0000

> <Gold.Chemscore.DEClash.Weighted>
1.4034

> <Gold.Chemscore.DEInternal.Weighted>
2.2662

> <Gold.Chemscore.Rot.Weighted>
4.3618

> <Gold.Chemscore.Internal.Correction.Weighted>
   9.000000E+99

> <Gold.Protein.RotatedTorsions>
[ 6907 6896 6895 6894 ] final   86.50 input  -60.11 | X-H torsion
[ 7974 7965 7964 7962 ] final  101.70 input  175.53 | X-H torsion
[ 8008 7997 7996 7995 ] final   88.89 input   59.86 | X-H torsion
[ 10167 10162 10161 10158 ] final   52.70 input  -65.29 | X-H torsion
[ 10718 10713 10712 10709 ] final  -60.04 input   66.30 | X-H torsion
[ 10763 10752 10751 10750 ] final -159.41 input  -60.55 | X-H torsion
[ 11005 11000 10999 10996 ] final  102.90 input  -57.11 | X-H torsion

> <Gold.Protein.ActiveResidues>
 VAL166  LYS551  ARG553  GLY616  TRP617  ASP618  TYR619  PRO620  LYS621  CYS622 
 ASP623  PHE694  ASN695  SER759  ASP760  ASP761  ALA762  ILE779  LEU786  VAL792 
 PHE793  MET794  SER795  GLU796  ALA797  LYS798  CYS799  TRP800  GLU811  SER814 

> <Gold.Protein.RotatedAtoms>
  152.5395  134.2422  159.8866 H   0  0  0  0  0  0  0  0  0  0  0  0  # atno 6907 bound_to 6896
  151.2389  133.4403  159.2614 H   0  0  0  0  0  0  0  0  0  0  0  0  # atno 6908 bound_to 6896
  151.0645  134.9772  159.8333 H   0  0  0  0  0  0  0  0  0  0  0  0  # atno 6909 bound_to 6896
  145.3689  139.2402  143.3466 H   0  0  0  0  0  0  0  0  0  0  0  0  # atno 7974 bound_to 7965
  155.9933  140.3366  155.6774 H   0  0  0  0  0  0  0  0  0  0  0  0  # atno 8008 bound_to 7997
  155.6391  140.0693  157.2642 H   0  0  0  0  0  0  0  0  0  0  0  0  # atno 8009 bound_to 7997
  154.4226  140.1746  156.1541 H   0  0  0  0  0  0  0  0  0  0  0  0  # atno 8010 bound_to 7997
  140.2486  144.3504  150.6355 H   0  0  0  0  0  0  0  0  0  0  0  0  # atno 10167 bound_to 10162
  156.1018  130.4185  150.0799 H   0  0  0  0  0  0  0  0  0  0  0  0  # atno 10718 bound_to 10713
  154.7477  135.3084  154.8614 H   0  0  0  0  0  0  0  0  0  0  0  0  # atno 10763 bound_to 10752
  153.9410  135.6774  153.4748 H   0  0  0  0  0  0  0  0  0  0  0  0  # atno 10764 bound_to 10752
  153.1073  135.4883  154.8901 H   0  0  0  0  0  0  0  0  0  0  0  0  # atno 10765 bound_to 10752
  139.8780  134.9242  156.5128 H   0  0  0  0  0  0  0  0  0  0  0  0  # atno 11005 bound_to 11000
  146.2894  140.4337  142.8745 LP  0  0  0  0  0  0  0  0  0  0  0  0  # atno 17320 bound_to 7965
  144.8591  140.7113  143.6119 LP  0  0  0  0  0  0  0  0  0  0  0  0  # atno 17321 bound_to 7965
  140.6058  143.2167  151.6983 LP  0  0  0  0  0  0  0  0  0  0  0  0  # atno 17342 bound_to 10162
  139.5053  144.3721  152.0460 LP  0  0  0  0  0  0  0  0  0  0  0  0  # atno 17343 bound_to 10162
  156.8785  130.9548  151.3602 LP  0  0  0  0  0  0  0  0  0  0  0  0  # atno 17370 bound_to 10713
  157.6189  130.8640  149.9076 LP  0  0  0  0  0  0  0  0  0  0  0  0  # atno 17371 bound_to 10713
  140.8507  133.8134  155.9166 LP  0  0  0  0  0  0  0  0  0  0  0  0  # atno 17394 bound_to 11000
  140.9147  134.2217  157.4964 LP  0  0  0  0  0  0  0  0  0  0  0  0  # atno 17395 bound_to 11000

$$$$
