AV-unprocessed.smi:3133|AV-procd|sdf|11939|dock9
  -GOLD-   2272017333D 1   1.00000     0.00000
 Structure written by MMmdl.
 32 33  0  0  0  0  0  0  0  0  1 V2000
  150.7781  137.6552  154.5173 C   0  0  0  0  0  0  0  0  0  0  0  0
  151.0314  139.1718  154.6393 C   0  0  2  0  0  0  0  0  0  0  0  0
  151.8722  139.5447  155.8726 C   0  0  0  0  0  0  0  0  0  0  0  0
  153.0426  139.1738  155.9733 O   0  0  0  0  0  0  0  0  0  0  0  0
  151.2604  140.2968  156.8018 N   0  0  0  0  0  0  0  0  0  0  0  0
  151.8789  140.7963  158.0242 C   0  0  0  0  0  0  0  0  0  0  0  0
  151.2910  142.1578  158.4281 C   0  0  1  0  0  0  0  0  0  0  0  0
  152.1171  142.8967  159.4786 C   0  0  0  0  0  0  0  0  0  0  0  0
  151.6797  144.3261  159.2546 C   0  0  0  0  0  0  0  0  0  0  0  0
  151.5467  144.3790  157.7348 C   0  0  0  0  0  0  0  0  0  0  0  0
  151.2470  143.0492  157.3168 O   0  0  0  0  0  0  0  0  0  0  0  0
  149.7894  139.9356  154.6120 N   0  0  0  0  0  0  0  0  0  0  0  0
  148.5243  139.5139  154.5514 C   0  0  0  0  0  0  0  0  0  0  0  0
  147.6315  140.4924  154.5029 N   0  0  0  0  0  0  0  0  0  0  0  0
  148.4721  141.5691  154.5294 C   0  0  0  0  0  0  0  0  0  0  0  0
  149.7747  141.2918  154.5846 N   0  0  0  0  0  0  0  0  0  0  0  0
  151.7166  137.1017  154.4699 H   0  0  0  0  0  0  0  0  0  0  0  0
  150.2200  137.4273  153.6090 H   0  0  0  0  0  0  0  0  0  0  0  0
  150.2073  137.2668  155.3619 H   0  0  0  0  0  0  0  0  0  0  0  0
  151.6091  139.4715  153.7634 H   0  0  0  0  0  0  0  0  0  0  0  0
  150.2988  140.5583  156.6406 H   0  0  0  0  0  0  0  0  0  0  0  0
  151.6857  140.0675  158.8118 H   0  0  0  0  0  0  0  0  0  0  0  0
  152.9637  140.8578  157.9225 H   0  0  0  0  0  0  0  0  0  0  0  0
  150.2728  142.0339  158.8014 H   0  0  0  0  0  0  0  0  0  0  0  0
  151.9288  142.5448  160.4932 H   0  0  0  0  0  0  0  0  0  0  0  0
  153.1838  142.7963  159.2725 H   0  0  0  0  0  0  0  0  0  0  0  0
  150.7098  144.4976  159.7237 H   0  0  0  0  0  0  0  0  0  0  0  0
  152.3846  145.0594  159.6474 H   0  0  0  0  0  0  0  0  0  0  0  0
  150.7762  145.0797  157.4118 H   0  0  0  0  0  0  0  0  0  0  0  0
  152.4903  144.6793  157.2778 H   0  0  0  0  0  0  0  0  0  0  0  0
  148.2509  138.4688  154.5397 H   0  0  0  0  0  0  0  0  0  0  0  0
  148.1131  142.5874  154.5018 H   0  0  0  0  0  0  0  0  0  0  0  0
  1  2  1  0  0  0  0
  1 17  1  0  0  0  0
  1 18  1  0  0  0  0
  1 19  1  0  0  0  0
  2  3  1  0  0  0  0
  2 12  1  0  0  0  0
  2 20  1  0  0  0  0
  3  4  2  0  0  0  0
  3  5  1  0  0  0  0
  5  6  1  0  0  0  0
  5 21  1  0  0  0  0
  6  7  1  0  0  0  0
  6 22  1  0  0  0  0
  6 23  1  0  0  0  0
  7 11  1  0  0  0  0
  7  8  1  0  0  0  0
  7 24  1  0  0  0  0
  8  9  1  0  0  0  0
  8 25  1  0  0  0  0
  8 26  1  0  0  0  0
  9 10  1  0  0  0  0
  9 27  1  0  0  0  0
  9 28  1  0  0  0  0
 10 11  1  0  0  0  0
 10 29  1  0  0  0  0
 10 30  1  0  0  0  0
 12 16  1  0  0  0  0
 12 13  1  0  0  0  0
 13 14  2  0  0  0  0
 13 31  1  0  0  0  0
 14 15  1  0  0  0  0
 15 16  2  0  0  0  0
 15 32  1  0  0  0  0
M  END
> <s_m_source_file>
AV-unprocessed.smi

> <i_m_source_file_index>
3133

> <i_lp_mmshare_version>
43012

> <i_f3d_flags>
0

> <s_epik_input>
bjFbY0hdbltjSF1uMVtDQEhdKFtDSDNdKUMoPU8pW05IXVtDSDJdW0NAQEhdMltDSDJdW0NIMl1bQ0gyXU8y

> <s_epik_cmdline>
J2VwaWtfcHl0aG9uJywgJy1waCcsICc3LjAnLCAnLXRuJywgJzgnLCAnLW1hJywgJzIwMCcsICctbWV0YWxfYmluZGluZycsICctaW1hZScsICc8aW5maWxlLm1hZT4nLCAnLW9tYWUnLCAnPG91dGZpbGUubWFlPic=

> <r_lp_tautomer_probability>
1

> <r_epik_Ionization_Penalty>
1.2027e-05

> <r_epik_Ionization_Penalty_Charging>
0

> <r_epik_Ionization_Penalty_Neutral>
1.2027e-05

> <r_epik_State_Penalty>
-0

> <r_epik_Charging_Adjusted_Penalty>
0

> <i_epik_Tot_Q>
0

> <i_epik_Tot_abs_Q>
0

> <r_epik_Metal_State_Penalty>
-0

> <b_epik_Metal_Only>
0

> <s_lp_Force_Field>
OPLS_2005

> <r_lp_Energy>
23.186

> <b_lp_Chiralities_Consistent>
1

> <s_lp_Variant>
AV-unprocessed.smi:3133-3

> <Gold.Version>
5.8.1

> <Gold.Id.Protein>
6NUR|6NUR_protein|mol2

> <Gold.PLP.Fitness>
39.7721

> <Gold.PLP.PLP>
-34.4936

> <Gold.PLP.part.hbond>
-2.4196

> <Gold.PLP.part.metal>
0.0000

> <Gold.PLP.part.buried>
-2.7153

> <Gold.PLP.part.nonpolar>
-29.8672

> <Gold.PLP.part.repulsive>
0.4773

> <Gold.PLP.ligand.clash>
0.0000

> <Gold.PLP.ligand.torsion>
0.4421

> <Gold.PLP.Chemscore.Hbond>
1.0175

> <Gold.PLP.Chemscore.CHOScore>
1.0000

> <Gold.PLP.Chemscore.Metal>
0.0000

> <Gold.Chemscore.Hbonds>
donor molecule, donor type, donor heavy atom, donor atom, acceptor molecule, acceptor atom, score
      P1  H  7997  8008       L1     4  1.00
      L1  C    15    32       P1  8028  1.00

> <Gold.PLP.Chemscore.Internal.Correction>
0.1103

> <Gold.Rescore>
     Score         DG    S(hbond)    S(metal)    S(lipo)     H(rot)  DE(clash)    DE(int)     intcor
      9.39     -11.17       1.00        0.00      69.58       2.26       0.10       1.69       ----

> <Gold.Chemscore.Fitness>
9.3900

> <Gold.Chemscore.DG>
-11.1749

> <Gold.Chemscore.ZeroCoef>
-5.4800

> <Gold.Chemscore.Hbond>
0.9966

> <Gold.Chemscore.Metal>
0.0000

> <Gold.Chemscore.Lipo>
69.5816

> <Gold.Chemscore.Internal_Hbond>
0.0000

> <Gold.Chemscore.DEClash>
0.0959

> <Gold.Chemscore.DEInternal>
1.6890

> <Gold.Chemscore.Rot>
2.2558

> <Gold.Chemscore.Internal.Correction>
   9.000000E+99

> <Gold.Chemscore.Hbonds>
donor molecule, donor type, donor heavy atom, donor atom, acceptor molecule, acceptor atom, score
      P1  H  7997  8008       L1     4  0.99

> <Gold.Chemscore.Hbond.Weighted>
-3.3285

> <Gold.Chemscore.Metal.Weighted>
-0.0000

> <Gold.Chemscore.Lipo.Weighted>
-8.1410

> <Gold.Chemscore.Internal_Hbond.Weighted>
0.0000

> <Gold.Chemscore.DEClash.Weighted>
0.0959

> <Gold.Chemscore.DEInternal.Weighted>
1.6890

> <Gold.Chemscore.Rot.Weighted>
5.7747

> <Gold.Chemscore.Internal.Correction.Weighted>
   9.000000E+99

> <Gold.Protein.RotatedTorsions>
[ 6907 6896 6895 6894 ] final   93.27 input  -60.11 | X-H torsion
[ 7974 7965 7964 7962 ] final   46.14 input  175.53 | X-H torsion
[ 8008 7997 7996 7995 ] final  -42.39 input   59.86 | X-H torsion
[ 10167 10162 10161 10158 ] final   32.42 input  -65.29 | X-H torsion
[ 10718 10713 10712 10709 ] final  -43.90 input   66.30 | X-H torsion
[ 10763 10752 10751 10750 ] final -111.45 input  -60.55 | X-H torsion
[ 11005 11000 10999 10996 ] final   59.44 input  -57.11 | X-H torsion

> <Gold.Protein.ActiveResidues>
 VAL166  LYS551  ARG553  GLY616  TRP617  ASP618  TYR619  PRO620  LYS621  CYS622 
 ASP623  PHE694  ASN695  SER759  ASP760  ASP761  ALA762  ILE779  LEU786  VAL792 
 PHE793  MET794  SER795  GLU796  ALA797  LYS798  CYS799  TRP800  GLU811  SER814 

> <Gold.Protein.RotatedAtoms>
  152.5452  134.1373  159.8463 H   0  0  0  0  0  0  0  0  0  0  0  0  # atno 6907 bound_to 6896
  151.1412  133.4963  159.2604 H   0  0  0  0  0  0  0  0  0  0  0  0  # atno 6908 bound_to 6896
  151.1570  135.0265  159.8748 H   0  0  0  0  0  0  0  0  0  0  0  0  # atno 6909 bound_to 6896
  146.0416  139.4888  142.9774 H   0  0  0  0  0  0  0  0  0  0  0  0  # atno 7974 bound_to 7965
  154.3999  140.1475  156.3346 H   0  0  0  0  0  0  0  0  0  0  0  0  # atno 8008 bound_to 7997
  155.8412  140.3462  155.5612 H   0  0  0  0  0  0  0  0  0  0  0  0  # atno 8009 bound_to 7997
  155.8085  140.0880  157.1908 H   0  0  0  0  0  0  0  0  0  0  0  0  # atno 8010 bound_to 7997
  140.4500  144.1062  150.6190 H   0  0  0  0  0  0  0  0  0  0  0  0  # atno 10167 bound_to 10162
  156.2442  130.4182  149.8725 H   0  0  0  0  0  0  0  0  0  0  0  0  # atno 10718 bound_to 10713
  154.8301  135.4527  154.1041 H   0  0  0  0  0  0  0  0  0  0  0  0  # atno 10763 bound_to 10752
  153.2322  135.6907  153.7883 H   0  0  0  0  0  0  0  0  0  0  0  0  # atno 10764 bound_to 10752
  153.7262  135.3334  155.3253 H   0  0  0  0  0  0  0  0  0  0  0  0  # atno 10765 bound_to 10752
  140.0303  134.6021  155.9515 H   0  0  0  0  0  0  0  0  0  0  0  0  # atno 11005 bound_to 11000
  145.6874  141.0174  143.1573 LP  0  0  0  0  0  0  0  0  0  0  0  0  # atno 17320 bound_to 7965
  144.7077  139.8493  143.7424 LP  0  0  0  0  0  0  0  0  0  0  0  0  # atno 17321 bound_to 7965
  140.4218  143.2608  151.9706 LP  0  0  0  0  0  0  0  0  0  0  0  0  # atno 17342 bound_to 10162
  139.4796  144.5824  151.7910 LP  0  0  0  0  0  0  0  0  0  0  0  0  # atno 17343 bound_to 10162
  156.6296  130.8660  151.3492 LP  0  0  0  0  0  0  0  0  0  0  0  0  # atno 17370 bound_to 10713
  157.7188  130.9531  150.1357 LP  0  0  0  0  0  0  0  0  0  0  0  0  # atno 17371 bound_to 10713
  141.1827  133.6549  156.5088 LP  0  0  0  0  0  0  0  0  0  0  0  0  # atno 17394 bound_to 11000
  140.4236  134.7165  157.4903 LP  0  0  0  0  0  0  0  0  0  0  0  0  # atno 17395 bound_to 11000

$$$$
