AV-unprocessed.smi:260|AV-procd|sdf|1976|dock5
  -GOLD-   2262021143D 1   1.00000     0.00000
 Structure written by MMmdl.
 53 56  0  0  0  0  0  0  0  0  1 V2000
  146.4165  134.8151  153.1277 C   0  0  0  0  0  0  0  0  0  0  0  0
  147.7973  134.6685  153.5613 N   0  0  0  0  0  0  0  0  0  0  0  0
  148.2292  133.7256  154.4141 C   0  0  0  0  0  0  0  0  0  0  0  0
  147.4641  132.8989  154.9129 O   0  0  0  0  0  0  0  0  0  0  0  0
  149.7365  133.6875  154.7798 C   0  0  2  0  0  0  0  0  0  0  0  0
  150.3647  132.4114  154.1856 C   0  0  0  0  0  0  0  0  0  0  0  0
  150.0282  133.8217  156.2923 C   0  0  0  0  0  0  0  0  0  0  0  0
  150.0022  135.3302  156.5709 C   0  0  0  0  0  0  0  0  0  0  0  0
  150.2433  135.9656  155.2839 N   0  0  0  0  0  0  0  0  0  0  0  0
  150.7901  137.2052  155.1852 C   0  0  0  0  0  0  0  0  0  0  0  0
  151.6292  137.4643  154.1475 N   0  0  0  0  0  0  0  0  0  0  0  0
  152.1862  138.6702  154.0081 C   0  0  0  0  0  0  0  0  0  0  0  0
  152.0429  139.7486  154.7793 N   0  0  0  0  0  0  0  0  0  0  0  0
  151.1968  139.5026  155.8197 C   0  0  0  0  0  0  0  0  0  0  0  0
  150.5294  138.2736  156.0941 C   0  0  0  0  0  0  0  0  0  0  0  0
  149.7390  138.4180  157.2295 N   0  0  0  0  0  0  0  0  0  0  0  0
  149.9363  139.6503  157.6086 C   0  0  0  0  0  0  0  0  0  0  0  0
  150.8122  140.3693  156.8283 N   0  0  0  0  0  0  0  0  0  0  0  0
  151.2021  141.7566  157.0153 C   0  0  0  0  0  0  0  0  0  0  0  0
  150.7042  142.3689  158.3450 C   0  0  2  0  0  0  0  0  0  0  0  0
  149.8799  143.4579  157.9816 O   0  0  0  0  0  0  0  0  0  0  0  0
  151.8090  142.9246  159.2731 C   0  0  2  0  0  0  0  0  0  0  0  0
  153.0332  142.0285  159.4775 C   0  0  0  0  0  0  0  0  0  0  0  0
  153.5796  142.4548  160.8304 C   0  0  0  0  0  0  0  0  0  0  0  0
  152.4193  143.2183  161.4697 C   0  0  0  0  0  0  0  0  0  0  0  0
  151.3158  142.9979  160.6034 O   0  0  0  0  0  0  0  0  0  0  0  0
  150.4318  134.9559  154.2493 C   0  0  0  0  0  0  0  0  0  0  0  0
  146.3307  135.6540  152.4374 H   0  0  0  0  0  0  0  0  0  0  0  0
  145.7598  135.0043  153.9777 H   0  0  0  0  0  0  0  0  0  0  0  0
  146.0733  133.9154  152.6158 H   0  0  0  0  0  0  0  0  0  0  0  0
  148.4715  135.3190  153.1847 H   0  0  0  0  0  0  0  0  0  0  0  0
  151.4369  132.3691  154.3799 H   0  0  0  0  0  0  0  0  0  0  0  0
  150.2328  132.3607  153.1039 H   0  0  0  0  0  0  0  0  0  0  0  0
  149.9197  131.5141  154.6174 H   0  0  0  0  0  0  0  0  0  0  0  0
  149.3536  133.2612  156.9402 H   0  0  0  0  0  0  0  0  0  0  0  0
  151.0314  133.4480  156.5021 H   0  0  0  0  0  0  0  0  0  0  0  0
  149.0246  135.6401  156.9413 H   0  0  0  0  0  0  0  0  0  0  0  0
  150.7543  135.6011  157.3126 H   0  0  0  0  0  0  0  0  0  0  0  0
  152.8408  138.7865  153.1570 H   0  0  0  0  0  0  0  0  0  0  0  0
  149.4475  140.0696  158.4762 H   0  0  0  0  0  0  0  0  0  0  0  0
  152.2867  141.8424  156.9395 H   0  0  0  0  0  0  0  0  0  0  0  0
  150.7904  142.3138  156.1723 H   0  0  0  0  0  0  0  0  0  0  0  0
  150.0904  141.6455  158.8828 H   0  0  0  0  0  0  0  0  0  0  0  0
  149.7862  143.4626  157.0413 H   0  0  0  0  0  0  0  0  0  0  0  0
  152.1314  143.9153  158.9458 H   0  0  0  0  0  0  0  0  0  0  0  0
  152.7325  140.9811  159.5248 H   0  0  0  0  0  0  0  0  0  0  0  0
  153.7715  142.1365  158.6838 H   0  0  0  0  0  0  0  0  0  0  0  0
  153.8740  141.5891  161.4242 H   0  0  0  0  0  0  0  0  0  0  0  0
  154.4504  143.1022  160.7226 H   0  0  0  0  0  0  0  0  0  0  0  0
  152.1974  142.8753  162.4804 H   0  0  0  0  0  0  0  0  0  0  0  0
  152.6374  144.2864  161.5113 H   0  0  0  0  0  0  0  0  0  0  0  0
  151.4993  134.7828  154.1046 H   0  0  0  0  0  0  0  0  0  0  0  0
  150.0190  135.2916  153.2967 H   0  0  0  0  0  0  0  0  0  0  0  0
  1  2  1  0  0  0  0
  1 28  1  0  0  0  0
  1 29  1  0  0  0  0
  1 30  1  0  0  0  0
  2  3  1  0  0  0  0
  2 31  1  0  0  0  0
  3  4  2  0  0  0  0
  3  5  1  0  0  0  0
  5 27  1  0  0  0  0
  5  6  1  0  0  0  0
  5  7  1  0  0  0  0
  6 32  1  0  0  0  0
  6 33  1  0  0  0  0
  6 34  1  0  0  0  0
  7  8  1  0  0  0  0
  7 35  1  0  0  0  0
  7 36  1  0  0  0  0
  8  9  1  0  0  0  0
  8 37  1  0  0  0  0
  8 38  1  0  0  0  0
  9 10  1  0  0  0  0
  9 27  1  0  0  0  0
 10 15  1  0  0  0  0
 10 11  2  0  0  0  0
 11 12  1  0  0  0  0
 12 13  2  0  0  0  0
 12 39  1  0  0  0  0
 13 14  1  0  0  0  0
 14 18  1  0  0  0  0
 14 15  2  0  0  0  0
 15 16  1  0  0  0  0
 16 17  2  0  0  0  0
 17 18  1  0  0  0  0
 17 40  1  0  0  0  0
 18 19  1  0  0  0  0
 19 20  1  0  0  0  0
 19 41  1  0  0  0  0
 19 42  1  0  0  0  0
 20 21  1  0  0  0  0
 20 22  1  0  0  0  0
 20 43  1  0  0  0  0
 21 44  1  0  0  0  0
 22 26  1  0  0  0  0
 22 23  1  0  0  0  0
 22 45  1  0  0  0  0
 23 24  1  0  0  0  0
 23 46  1  0  0  0  0
 23 47  1  0  0  0  0
 24 25  1  0  0  0  0
 24 48  1  0  0  0  0
 24 49  1  0  0  0  0
 25 26  1  0  0  0  0
 25 50  1  0  0  0  0
 25 51  1  0  0  0  0
 27 52  1  0  0  0  0
 27 53  1  0  0  0  0
M  END
> <s_m_source_file>
AV-unprocessed.smi

> <i_m_source_file_index>
260

> <i_lp_mmshare_version>
43012

> <i_f3d_flags>
0

> <s_epik_input>
W0NIM11bTkhdQyg9TylbQ0BAXTEoW0NIM10pW0NIMl1bQ0gyXU4oW0NIMl0xKWMobltjSF1uMiljKGMyMyluW2NIXW4zW0NIMl1bQ0BIXShbT0hdKVtDQEBIXTRbQ0gyXVtDSDJdW0NIMl1PNA==

> <s_epik_cmdline>
J2VwaWtfcHl0aG9uJywgJy1waCcsICc3LjAnLCAnLXRuJywgJzgnLCAnLW1hJywgJzIwMCcsICctbWV0YWxfYmluZGluZycsICctaW1hZScsICc8aW5maWxlLm1hZT4nLCAnLW9tYWUnLCAnPG91dGZpbGUubWFlPic=

> <r_lp_tautomer_probability>
1

> <r_epik_Ionization_Penalty>
0.00115068

> <r_epik_Ionization_Penalty_Charging>
0

> <r_epik_Ionization_Penalty_Neutral>
0.00115068

> <r_epik_State_Penalty>
0.000668876

> <r_epik_Charging_Adjusted_Penalty>
0.000668876

> <i_epik_Tot_Q>
0

> <i_epik_Tot_abs_Q>
0

> <r_epik_Metal_State_Penalty>
-0

> <b_epik_Metal_Only>
0

> <s_lp_Force_Field>
OPLS_2005

> <r_lp_Energy>
52.371

> <b_lp_Chiralities_Consistent>
1

> <s_lp_Variant>
AV-unprocessed.smi:260-2

> <Gold.Version>
5.8.1

> <Gold.Id.Protein>
6NUR|6NUR_protein|mol2

> <Gold.PLP.Fitness>
50.3010

> <Gold.PLP.PLP>
-43.8102

> <Gold.PLP.part.hbond>
-5.3840

> <Gold.PLP.part.metal>
0.0000

> <Gold.PLP.part.buried>
-8.2114

> <Gold.PLP.part.nonpolar>
-30.7660

> <Gold.PLP.part.repulsive>
0.2930

> <Gold.PLP.ligand.clash>
0.4360

> <Gold.PLP.ligand.torsion>
1.5806

> <Gold.PLP.Chemscore.Hbond>
3.2414

> <Gold.PLP.Chemscore.CHOScore>
0.0000

> <Gold.PLP.Chemscore.Metal>
0.0000

> <Gold.Chemscore.Hbonds>
donor molecule, donor type, donor heavy atom, donor atom, acceptor molecule, acceptor atom, score
      L1  H     2    31       P1  7948  0.93
      L1  H    21    44       P1  8028  0.63
      P1  H  6933  6945       L1    26  0.01
      P1  H  7989  7998       L1    13  0.73
      P1  H 10752 10763       L1    11  0.50

> <Gold.PLP.Chemscore.Internal.Correction>
0.3639

> <Gold.Rescore>
     Score         DG    S(hbond)    S(metal)    S(lipo)     H(rot)  DE(clash)    DE(int)     intcor
     14.90     -17.08       2.32        0.00      88.17       2.53       0.44       1.74       ----

> <Gold.Chemscore.Fitness>
14.9003

> <Gold.Chemscore.DG>
-17.0772

> <Gold.Chemscore.ZeroCoef>
-5.4800

> <Gold.Chemscore.Hbond>
2.3195

> <Gold.Chemscore.Metal>
0.0000

> <Gold.Chemscore.Lipo>
88.1743

> <Gold.Chemscore.Internal_Hbond>
0.0000

> <Gold.Chemscore.DEClash>
0.4403

> <Gold.Chemscore.DEInternal>
1.7366

> <Gold.Chemscore.Rot>
2.5259

> <Gold.Chemscore.Internal.Correction>
   9.000000E+99

> <Gold.Chemscore.Hbonds>
donor molecule, donor type, donor heavy atom, donor atom, acceptor molecule, acceptor atom, score
      L1  H     2    31       P1  7948  0.86
      L1  H    21    44       P1  8028  0.59
      P1  H  7989  7998       L1    13  0.12
      P1  H 10752 10763       L1    11  0.12

> <Gold.Chemscore.Hbond.Weighted>
-7.7471

> <Gold.Chemscore.Metal.Weighted>
-0.0000

> <Gold.Chemscore.Lipo.Weighted>
-10.3164

> <Gold.Chemscore.Internal_Hbond.Weighted>
0.0000

> <Gold.Chemscore.DEClash.Weighted>
0.4403

> <Gold.Chemscore.DEInternal.Weighted>
1.7366

> <Gold.Chemscore.Rot.Weighted>
6.4663

> <Gold.Chemscore.Internal.Correction.Weighted>
   9.000000E+99

> <Gold.Protein.RotatedTorsions>
[ 6907 6896 6895 6894 ] final   75.99 input  -60.11 | X-H torsion
[ 7974 7965 7964 7962 ] final   70.54 input  175.53 | X-H torsion
[ 8008 7997 7996 7995 ] final   41.43 input   59.86 | X-H torsion
[ 10167 10162 10161 10158 ] final  155.45 input  -65.29 | X-H torsion
[ 10718 10713 10712 10709 ] final -165.22 input   66.30 | X-H torsion
[ 10763 10752 10751 10750 ] final   41.80 input  -60.55 | X-H torsion
[ 11005 11000 10999 10996 ] final -146.77 input  -57.11 | X-H torsion

> <Gold.Protein.ActiveResidues>
 VAL166  LYS551  ARG553  GLY616  TRP617  ASP618  TYR619  PRO620  LYS621  CYS622 
 ASP623  PHE694  ASN695  SER759  ASP760  ASP761  ALA762  ILE779  LEU786  VAL792 
 PHE793  MET794  SER795  GLU796  ALA797  LYS798  CYS799  TRP800  GLU811  SER814 

> <Gold.Protein.RotatedAtoms>
  152.5052  134.4037  159.9424 H   0  0  0  0  0  0  0  0  0  0  0  0  # atno 6907 bound_to 6896
  151.4002  133.3754  159.2739 H   0  0  0  0  0  0  0  0  0  0  0  0  # atno 6908 bound_to 6896
  150.9367  134.8801  159.7645 H   0  0  0  0  0  0  0  0  0  0  0  0  # atno 6909 bound_to 6896
  145.7769  139.2869  143.1288 H   0  0  0  0  0  0  0  0  0  0  0  0  # atno 7974 bound_to 7965
  155.2694  140.3365  155.4266 H   0  0  0  0  0  0  0  0  0  0  0  0  # atno 8008 bound_to 7997
  156.2139  140.1781  156.7675 H   0  0  0  0  0  0  0  0  0  0  0  0  # atno 8009 bound_to 7997
  154.5726  140.0667  156.8971 H   0  0  0  0  0  0  0  0  0  0  0  0  # atno 8010 bound_to 7997
  139.4821  144.5097  151.8043 H   0  0  0  0  0  0  0  0  0  0  0  0  # atno 10167 bound_to 10162
  156.6502  130.9004  151.3012 H   0  0  0  0  0  0  0  0  0  0  0  0  # atno 10718 bound_to 10713
  152.9899  135.6151  154.2846 H   0  0  0  0  0  0  0  0  0  0  0  0  # atno 10763 bound_to 10752
  154.2573  135.2783  155.2794 H   0  0  0  0  0  0  0  0  0  0  0  0  # atno 10764 bound_to 10752
  154.5236  135.5808  153.6758 H   0  0  0  0  0  0  0  0  0  0  0  0  # atno 10765 bound_to 10752
  140.7786  134.3105  157.5053 H   0  0  0  0  0  0  0  0  0  0  0  0  # atno 11005 bound_to 11000
  146.0114  140.8432  142.9969 LP  0  0  0  0  0  0  0  0  0  0  0  0  # atno 17320 bound_to 7965
  144.6803  140.2495  143.7333 LP  0  0  0  0  0  0  0  0  0  0  0  0  # atno 17321 bound_to 7965
  140.4599  144.1737  150.5905 LP  0  0  0  0  0  0  0  0  0  0  0  0  # atno 17342 bound_to 10162
  140.4496  143.2492  151.9365 LP  0  0  0  0  0  0  0  0  0  0  0  0  # atno 17343 bound_to 10162
  157.7143  130.9478  150.1199 LP  0  0  0  0  0  0  0  0  0  0  0  0  # atno 17370 bound_to 10713
  156.2090  130.3665  149.8694 LP  0  0  0  0  0  0  0  0  0  0  0  0  # atno 17371 bound_to 10713
  139.8745  134.9304  156.3503 LP  0  0  0  0  0  0  0  0  0  0  0  0  # atno 17394 bound_to 11000
  140.9504  133.7454  156.0265 LP  0  0  0  0  0  0  0  0  0  0  0  0  # atno 17395 bound_to 11000

$$$$
