AV-unprocessed.smi:3068|AV-procd|sdf|11703|dock3
  -GOLD-   2272017103D 1   1.00000     0.00000
 Structure written by MMmdl.
 40 42  0  0  0  0  0  0  0  0  2 V2000
  150.8691  138.0215  154.1516 N   0  0  0  0  0  0  0  0  0  0  0  0
  149.9253  138.6830  154.0490 C   0  0  0  0  0  0  0  0  0  0  0  0
  148.7356  139.5151  153.9203 C   0  0  0  0  0  0  0  0  0  0  0  0
  148.8956  140.8410  154.1378 N   0  0  0  0  0  0  0  0  0  0  0  0
  147.8013  141.6233  154.0246 C   0  0  0  0  0  0  0  0  0  0  0  0
  146.5421  141.0859  153.6945 C   0  0  0  0  0  0  0  0  0  0  0  0
  146.3728  139.7644  153.4770 N   0  0  0  0  0  0  0  0  0  0  0  0
  147.4647  138.9664  153.5876 C   0  0  0  0  0  0  0  0  0  0  0  0
  147.3043  137.5861  153.3635 N   0  0  0  0  0  0  0  0  0  0  0  0
  146.1593  136.8466  153.8819 C   0  0  0  0  0  0  0  0  0  0  0  0
  145.8463  135.5894  153.0529 C   0  0  1  0  0  0  0  0  0  0  0  0
  145.0371  134.5611  153.8736 C   0  0  0  0  0  0  0  0  0  0  0  0
  144.6261  133.4027  153.0438 N   0  3  2  0  0  0  0  0  0  0  0  0
  145.7266  132.4317  152.7957 C   0  0  0  0  0  0  0  0  0  0  0  0
  145.2313  131.2199  151.9933 C   0  0  0  0  0  0  0  0  0  0  0  0
  144.6046  131.6685  150.6687 C   0  0  0  0  0  0  0  0  0  0  0  0
  143.4712  132.6667  150.9404 C   0  0  0  0  0  0  0  0  0  0  0  0
  143.9266  133.8578  151.8103 C   0  0  2  0  0  0  0  0  0  0  0  0
  144.7785  134.8973  151.0520 C   0  0  0  0  0  0  0  0  0  0  0  0
  145.0739  135.9837  151.9222 O   0  0  0  0  0  0  0  0  0  0  0  0
  147.9312  142.6813  154.1981 H   0  0  0  0  0  0  0  0  0  0  0  0
  145.6698  141.7162  153.6049 H   0  0  0  0  0  0  0  0  0  0  0  0
  148.0492  137.0668  152.9199 H   0  0  0  0  0  0  0  0  0  0  0  0
  146.3426  136.5790  154.9231 H   0  0  0  0  0  0  0  0  0  0  0  0
  145.2943  137.5103  153.8895 H   0  0  0  0  0  0  0  0  0  0  0  0
  146.7803  135.1384  152.7158 H   0  0  0  0  0  0  0  0  0  0  0  0
  145.6076  134.2198  154.7383 H   0  0  0  0  0  0  0  0  0  0  0  0
  144.1365  135.0355  154.2663 H   0  0  0  0  0  0  0  0  0  0  0  0
  146.5486  132.9092  152.2622 H   0  0  0  0  0  0  0  0  0  0  0  0
  146.1294  132.0929  153.7510 H   0  0  0  0  0  0  0  0  0  0  0  0
  146.0587  130.5359  151.8018 H   0  0  0  0  0  0  0  0  0  0  0  0
  144.4985  130.6636  152.5793 H   0  0  0  0  0  0  0  0  0  0  0  0
  145.3638  132.1242  150.0321 H   0  0  0  0  0  0  0  0  0  0  0  0
  144.2203  130.8052  150.1244 H   0  0  0  0  0  0  0  0  0  0  0  0
  143.0510  133.0240  149.9995 H   0  0  0  0  0  0  0  0  0  0  0  0
  142.6614  132.1447  151.4522 H   0  0  0  0  0  0  0  0  0  0  0  0
  143.0211  134.3728  152.1357 H   0  0  0  0  0  0  0  0  0  0  0  0
  145.7011  134.4656  150.6622 H   0  0  0  0  0  0  0  0  0  0  0  0
  144.2255  135.2828  150.1952 H   0  0  0  0  0  0  0  0  0  0  0  0
  143.9414  132.8946  153.5853 H   0  0  0  0  0  0  0  0  0  0  0  0
  1  2  3  0  0  0  0
  2  3  1  0  0  0  0
  3  8  1  0  0  0  0
  3  4  2  0  0  0  0
  4  5  1  0  0  0  0
  5  6  2  0  0  0  0
  5 21  1  0  0  0  0
  6  7  1  0  0  0  0
  6 22  1  0  0  0  0
  7  8  2  0  0  0  0
  8  9  1  0  0  0  0
  9 10  1  0  0  0  0
  9 23  1  0  0  0  0
 10 11  1  0  0  0  0
 10 24  1  0  0  0  0
 10 25  1  0  0  0  0
 11 20  1  0  0  0  0
 11 12  1  0  0  0  0
 11 26  1  0  0  0  0
 12 13  1  0  0  0  0
 12 27  1  0  0  0  0
 12 28  1  0  0  0  0
 13 18  1  0  0  0  0
 13 14  1  0  0  0  0
 13 40  1  0  0  0  0
 14 15  1  0  0  0  0
 14 29  1  0  0  0  0
 14 30  1  0  0  0  0
 15 16  1  0  0  0  0
 15 31  1  0  0  0  0
 15 32  1  0  0  0  0
 16 17  1  0  0  0  0
 16 33  1  0  0  0  0
 16 34  1  0  0  0  0
 17 18  1  0  0  0  0
 17 35  1  0  0  0  0
 17 36  1  0  0  0  0
 18 19  1  0  0  0  0
 18 37  1  0  0  0  0
 19 20  1  0  0  0  0
 19 38  1  0  0  0  0
 19 39  1  0  0  0  0
M  CHG  1  13   1
M  END
> <s_m_source_file>
AV-unprocessed.smi

> <i_m_source_file_index>
3068

> <i_lp_mmshare_version>
43012

> <i_f3d_flags>
0

> <s_epik_input>
TiNDYzFuW2NIXVtjSF1uYzFbTkhdW0NIMl1bQ0BIXShbQ0gyXTIpT1tDSDJdW0NAQEhdKE4yMylbQ0gyXVtDSDJdW0NIMl1bQ0gyXTM=

> <s_epik_cmdline>
J2VwaWtfcHl0aG9uJywgJy1waCcsICc3LjAnLCAnLXRuJywgJzgnLCAnLW1hJywgJzIwMCcsICctbWV0YWxfYmluZGluZycsICctaW1hZScsICc8aW5maWxlLm1hZT4nLCAnLW9tYWUnLCAnPG91dGZpbGUubWFlPic=

> <r_epik_Ionization_Penalty>
0.0804321

> <r_epik_Ionization_Penalty_Charging>
0.0803403

> <r_epik_Ionization_Penalty_Neutral>
9.17277e-05

> <r_epik_State_Penalty>
0.0711481

> <r_epik_Charging_Adjusted_Penalty>
0.151488

> <i_epik_Tot_Q>
1

> <i_epik_Tot_abs_Q>
1

> <r_epik_Metal_State_Penalty>
0.0711481

> <b_epik_Metal_Only>
0

> <s_lp_Force_Field>
OPLS_2005

> <r_lp_Energy>
39.7851

> <b_lp_Chiralities_Consistent>
1

> <s_lp_Variant>
AV-unprocessed.smi:3068-6

> <Gold.Version>
5.8.1

> <Gold.Id.Protein>
6NUR|6NUR_protein|mol2

> <Gold.PLP.Fitness>
40.6070

> <Gold.PLP.PLP>
-29.6041

> <Gold.PLP.part.hbond>
-1.9629

> <Gold.PLP.part.metal>
0.0000

> <Gold.PLP.part.buried>
-7.1883

> <Gold.PLP.part.nonpolar>
-23.7829

> <Gold.PLP.part.repulsive>
0.6772

> <Gold.PLP.ligand.clash>
0.0000

> <Gold.PLP.ligand.torsion>
0.7369

> <Gold.PLP.Chemscore.Hbond>
2.9825

> <Gold.PLP.Chemscore.CHOScore>
1.1737

> <Gold.PLP.Chemscore.Metal>
0.0000

> <Gold.Chemscore.Hbonds>
donor molecule, donor type, donor heavy atom, donor atom, acceptor molecule, acceptor atom, score
      L1  H     9    23       P1  7948  1.00
      L1  H    13    40       P1 10957  1.76
      L1  C     5    21       P1  8028  0.71
      L1  C     6    22       P1 10175  0.43

> <Gold.PLP.Chemscore.Internal.Correction>
0.0083

> <Gold.Rescore>
     Score         DG    S(hbond)    S(metal)    S(lipo)     H(rot)  DE(clash)    DE(int)     intcor
     15.69     -16.53       2.08        0.00      64.11       1.32       0.12       0.72       ----

> <Gold.Chemscore.Fitness>
15.6950

> <Gold.Chemscore.DG>
-16.5348

> <Gold.Chemscore.ZeroCoef>
-5.4800

> <Gold.Chemscore.Hbond>
2.0751

> <Gold.Chemscore.Metal>
0.0000

> <Gold.Chemscore.Lipo>
64.1128

> <Gold.Chemscore.Internal_Hbond>
0.0000

> <Gold.Chemscore.DEClash>
0.1176

> <Gold.Chemscore.DEInternal>
0.7223

> <Gold.Chemscore.Rot>
1.3193

> <Gold.Chemscore.Internal.Correction>
   9.000000E+99

> <Gold.Chemscore.Hbonds>
donor molecule, donor type, donor heavy atom, donor atom, acceptor molecule, acceptor atom, score
      L1  H     9    23       P1  7948  0.99
      L1  H    13    40       P1 10957  0.67

> <Gold.Chemscore.Hbond.Weighted>
-6.9310

> <Gold.Chemscore.Metal.Weighted>
-0.0000

> <Gold.Chemscore.Lipo.Weighted>
-7.5012

> <Gold.Chemscore.Internal_Hbond.Weighted>
0.0000

> <Gold.Chemscore.DEClash.Weighted>
0.1176

> <Gold.Chemscore.DEInternal.Weighted>
0.7223

> <Gold.Chemscore.Rot.Weighted>
3.3774

> <Gold.Chemscore.Internal.Correction.Weighted>
   9.000000E+99

> <Gold.Protein.RotatedTorsions>
[ 6907 6896 6895 6894 ] final  -52.40 input  -60.11 | X-H torsion
[ 7974 7965 7964 7962 ] final  -12.87 input  175.53 | X-H torsion
[ 8008 7997 7996 7995 ] final -145.52 input   59.86 | X-H torsion
[ 10167 10162 10161 10158 ] final   88.96 input  -65.29 | X-H torsion
[ 10718 10713 10712 10709 ] final  -51.67 input   66.30 | X-H torsion
[ 10763 10752 10751 10750 ] final   77.88 input  -60.55 | X-H torsion
[ 11005 11000 10999 10996 ] final -114.02 input  -57.11 | X-H torsion

> <Gold.Protein.ActiveResidues>
 VAL166  LYS551  ARG553  GLY616  TRP617  ASP618  TYR619  PRO620  LYS621  CYS622 
 ASP623  PHE694  ASN695  SER759  ASP760  ASP761  ALA762  ILE779  LEU786  VAL792 
 PHE793  MET794  SER795  GLU796  ALA797  LYS798  CYS799  TRP800  GLU811  SER814 

> <Gold.Protein.RotatedAtoms>
  150.8522  134.7850  159.7017 H   0  0  0  0  0  0  0  0  0  0  0  0  # atno 6907 bound_to 6896
  152.4583  134.5238  159.9800 H   0  0  0  0  0  0  0  0  0  0  0  0  # atno 6908 bound_to 6896
  151.5357  133.3403  159.2962 H   0  0  0  0  0  0  0  0  0  0  0  0  # atno 6909 bound_to 6896
  146.2136  140.3121  142.8383 H   0  0  0  0  0  0  0  0  0  0  0  0  # atno 7974 bound_to 7965
  155.5446  140.0611  157.2863 H   0  0  0  0  0  0  0  0  0  0  0  0  # atno 8008 bound_to 7997
  154.4441  140.1913  156.0669 H   0  0  0  0  0  0  0  0  0  0  0  0  # atno 8009 bound_to 7997
  156.0560  140.3278  155.7410 H   0  0  0  0  0  0  0  0  0  0  0  0  # atno 8010 bound_to 7997
  139.8621  144.6538  150.9047 H   0  0  0  0  0  0  0  0  0  0  0  0  # atno 10167 bound_to 10162
  156.1689  130.4149  149.9677 H   0  0  0  0  0  0  0  0  0  0  0  0  # atno 10718 bound_to 10713
  153.0832  135.4897  154.8544 H   0  0  0  0  0  0  0  0  0  0  0  0  # atno 10763 bound_to 10752
  154.7177  135.3033  154.9099 H   0  0  0  0  0  0  0  0  0  0  0  0  # atno 10764 bound_to 10752
  153.9773  135.6794  153.4802 H   0  0  0  0  0  0  0  0  0  0  0  0  # atno 10765 bound_to 10752
  141.0578  133.9584  157.2722 H   0  0  0  0  0  0  0  0  0  0  0  0  # atno 11005 bound_to 11000
  144.8981  140.7608  143.5884 LP  0  0  0  0  0  0  0  0  0  0  0  0  # atno 17320 bound_to 7965
  145.3046  139.1839  143.4671 LP  0  0  0  0  0  0  0  0  0  0  0  0  # atno 17321 bound_to 7965
  140.7773  143.3736  151.1605 LP  0  0  0  0  0  0  0  0  0  0  0  0  # atno 17342 bound_to 10162
  139.7364  143.8992  152.3036 LP  0  0  0  0  0  0  0  0  0  0  0  0  # atno 17343 bound_to 10162
  156.7483  130.9105  151.3636 LP  0  0  0  0  0  0  0  0  0  0  0  0  # atno 17370 bound_to 10713
  157.6788  130.9120  150.0217 LP  0  0  0  0  0  0  0  0  0  0  0  0  # atno 17371 bound_to 10713
  139.9405  135.0191  156.8694 LP  0  0  0  0  0  0  0  0  0  0  0  0  # atno 17394 bound_to 11000
  140.5929  134.0244  155.7507 LP  0  0  0  0  0  0  0  0  0  0  0  0  # atno 17395 bound_to 11000

$$$$
