AV-unprocessed.smi:1504|AV-procd|sdf|6072|dock2
  -GOLD-   22720 6193D 1   1.00000     0.00000
 Structure written by MMmdl.
 39 40  0  0  0  0  0  0  0  0  1 V2000
  145.8708  138.8243  153.6587 O   0  0  0  0  0  0  0  0  0  0  0  0
  146.7460  138.0580  153.2558 C   0  0  0  0  0  0  0  0  0  0  0  0
  146.5149  137.0058  152.4588 N   0  0  0  0  0  0  0  0  0  0  0  0
  145.2021  136.6132  151.9548 C   0  0  0  0  0  0  0  0  0  0  0  0
  144.7445  135.2392  152.4827 C   0  0  0  0  0  0  0  0  0  0  0  0
  144.9921  134.1015  151.5069 C   0  0  0  0  0  0  0  0  0  0  0  0
  143.9176  133.3458  150.9903 C   0  0  0  0  0  0  0  0  0  0  0  0
  144.2030  132.3028  150.0882 C   0  0  0  0  0  0  0  0  0  0  0  0
  145.5449  132.0563  149.7389 C   0  0  0  0  0  0  0  0  0  0  0  0
  146.5453  132.8690  150.3087 C   0  0  0  0  0  0  0  0  0  0  0  0
  146.2823  133.8726  151.1733 N   0  0  0  0  0  0  0  0  0  0  0  0
  148.0444  138.1778  153.5594 N   0  0  0  0  0  0  0  0  0  0  0  0
  148.5974  139.2225  154.4117 C   0  0  0  0  0  0  0  0  0  0  0  0
  150.1349  139.2047  154.3810 C   0  0  1  0  0  0  0  0  0  0  0  0
  150.7559  139.9738  155.5633 C   0  0  0  0  0  0  0  0  0  0  0  0
  152.2569  139.6715  155.6080 C   0  0  0  0  0  0  0  0  0  0  0  0
  152.4237  137.9325  155.0597 S   0  0  0  0  0  0  0  0  0  0  0  0
  153.4024  137.8666  153.9639 O   0  0  0  0  0  0  0  0  0  0  0  0
  152.5430  137.0574  156.2357 O   0  0  0  0  0  0  0  0  0  0  0  0
  150.7278  137.7841  154.3788 C   0  0  0  0  0  0  0  0  0  0  0  0
  147.3000  136.4371  152.1771 H   0  0  0  0  0  0  0  0  0  0  0  0
  144.4884  137.3782  152.2616 H   0  0  0  0  0  0  0  0  0  0  0  0
  145.2053  136.6160  150.8639 H   0  0  0  0  0  0  0  0  0  0  0  0
  145.2598  135.0193  153.4185 H   0  0  0  0  0  0  0  0  0  0  0  0
  143.6826  135.2715  152.7295 H   0  0  0  0  0  0  0  0  0  0  0  0
  142.8984  133.5607  151.2768 H   0  0  0  0  0  0  0  0  0  0  0  0
  143.4073  131.7029  149.6722 H   0  0  0  0  0  0  0  0  0  0  0  0
  145.8018  131.2641  149.0515 H   0  0  0  0  0  0  0  0  0  0  0  0
  147.5848  132.7086  150.0638 H   0  0  0  0  0  0  0  0  0  0  0  0
  148.6922  137.5028  153.1803 H   0  0  0  0  0  0  0  0  0  0  0  0
  148.2263  140.1891  154.0686 H   0  0  0  0  0  0  0  0  0  0  0  0
  148.2439  139.0903  155.4360 H   0  0  0  0  0  0  0  0  0  0  0  0
  150.4680  139.7003  153.4678 H   0  0  0  0  0  0  0  0  0  0  0  0
  150.5684  141.0455  155.4917 H   0  0  0  0  0  0  0  0  0  0  0  0
  150.3002  139.6324  156.4941 H   0  0  0  0  0  0  0  0  0  0  0  0
  152.7987  140.3015  154.9022 H   0  0  0  0  0  0  0  0  0  0  0  0
  152.6920  139.8004  156.5992 H   0  0  0  0  0  0  0  0  0  0  0  0
  150.1636  137.1212  155.0355 H   0  0  0  0  0  0  0  0  0  0  0  0
  150.7620  137.3381  153.3847 H   0  0  0  0  0  0  0  0  0  0  0  0
  1  2  2  0  0  0  0
  2  3  1  0  0  0  0
  2 12  1  0  0  0  0
  3  4  1  0  0  0  0
  3 21  1  0  0  0  0
  4  5  1  0  0  0  0
  4 22  1  0  0  0  0
  4 23  1  0  0  0  0
  5  6  1  0  0  0  0
  5 24  1  0  0  0  0
  5 25  1  0  0  0  0
  6 11  1  0  0  0  0
  6  7  2  0  0  0  0
  7  8  1  0  0  0  0
  7 26  1  0  0  0  0
  8  9  2  0  0  0  0
  8 27  1  0  0  0  0
  9 10  1  0  0  0  0
  9 28  1  0  0  0  0
 10 11  2  0  0  0  0
 10 29  1  0  0  0  0
 12 13  1  0  0  0  0
 12 30  1  0  0  0  0
 13 14  1  0  0  0  0
 13 31  1  0  0  0  0
 13 32  1  0  0  0  0
 14 20  1  0  0  0  0
 14 15  1  0  0  0  0
 14 33  1  0  0  0  0
 15 16  1  0  0  0  0
 15 34  1  0  0  0  0
 15 35  1  0  0  0  0
 16 17  1  0  0  0  0
 16 36  1  0  0  0  0
 16 37  1  0  0  0  0
 17 18  2  0  0  0  0
 17 19  2  0  0  0  0
 17 20  1  0  0  0  0
 20 38  1  0  0  0  0
 20 39  1  0  0  0  0
M  END
> <s_m_source_file>
AV-unprocessed.smi

> <i_m_source_file_index>
1504

> <i_lp_mmshare_version>
43012

> <i_f3d_flags>
0

> <s_epik_input>
Tz1TMSg9TylbQ0gyXVtDSDJdW0NASF0oW0NIMl0xKVtDSDJdW05IXUMoPU8pW05IXVtDSDJdW0NIMl1jMltjSF1bY0hdW2NIXVtjSF1uMg==

> <s_epik_cmdline>
J2VwaWtfcHl0aG9uJywgJy1waCcsICc3LjAnLCAnLXRuJywgJzgnLCAnLW1hJywgJzIwMCcsICctbWV0YWxfYmluZGluZycsICctaW1hZScsICc8aW5maWxlLm1hZT4nLCAnLW9tYWUnLCAnPG91dGZpbGUubWFlPic=

> <r_epik_Ionization_Penalty>
0.0431785

> <r_epik_Ionization_Penalty_Charging>
0

> <r_epik_Ionization_Penalty_Neutral>
0.0431785

> <r_epik_State_Penalty>
0.0364691

> <r_epik_Charging_Adjusted_Penalty>
0.0364691

> <i_epik_Tot_Q>
0

> <i_epik_Tot_abs_Q>
0

> <r_epik_Metal_State_Penalty>
0.0339827

> <b_epik_Metal_Only>
0

> <s_lp_Force_Field>
OPLS_2005

> <r_lp_Energy>
0.935995

> <b_lp_Chiralities_Consistent>
1

> <s_lp_Variant>
AV-unprocessed.smi:1504-2

> <Gold.Version>
5.8.1

> <Gold.Id.Protein>
6NUR|6NUR_protein|mol2

> <Gold.PLP.Fitness>
44.4633

> <Gold.PLP.PLP>
-33.9086

> <Gold.PLP.part.hbond>
-4.0000

> <Gold.PLP.part.metal>
0.0000

> <Gold.PLP.part.buried>
-0.4860

> <Gold.PLP.part.nonpolar>
-31.0365

> <Gold.PLP.part.repulsive>
1.4980

> <Gold.PLP.ligand.clash>
0.0000

> <Gold.PLP.ligand.torsion>
0.4837

> <Gold.PLP.Chemscore.Hbond>
2.8234

> <Gold.PLP.Chemscore.CHOScore>
1.0000

> <Gold.PLP.Chemscore.Metal>
0.0000

> <Gold.Chemscore.Hbonds>
donor molecule, donor type, donor heavy atom, donor atom, acceptor molecule, acceptor atom, score
      L1  H     3    21       P1  7948  1.00
      L1  H    12    30       P1  7948  0.91
      P1  H 10752 10764       L1    18  0.22
      P1  H 10752 10765       L1    19  0.59
      L1  C    10    29       P1 10747  1.00

> <Gold.PLP.Chemscore.Internal.Correction>
0.0517

> <Gold.Rescore>
     Score         DG    S(hbond)    S(metal)    S(lipo)     H(rot)  DE(clash)    DE(int)     intcor
     15.84     -16.89       2.04        0.00      81.01       1.91       0.47       0.58       ----

> <Gold.Chemscore.Fitness>
15.8418

> <Gold.Chemscore.DG>
-16.8950

> <Gold.Chemscore.ZeroCoef>
-5.4800

> <Gold.Chemscore.Hbond>
2.0443

> <Gold.Chemscore.Metal>
0.0000

> <Gold.Chemscore.Lipo>
81.0060

> <Gold.Chemscore.Internal_Hbond>
0.0000

> <Gold.Chemscore.DEClash>
0.4733

> <Gold.Chemscore.DEInternal>
0.5799

> <Gold.Chemscore.Rot>
1.9105

> <Gold.Chemscore.Internal.Correction>
   9.000000E+99

> <Gold.Chemscore.Hbonds>
donor molecule, donor type, donor heavy atom, donor atom, acceptor molecule, acceptor atom, score
      L1  H     3    21       P1  7948  0.96
      L1  H    12    30       P1  7948  0.90
      P1  H 10752 10764       L1    18  0.07
      P1  H 10752 10765       L1    19  0.08

> <Gold.Chemscore.Hbond.Weighted>
-6.8281

> <Gold.Chemscore.Metal.Weighted>
-0.0000

> <Gold.Chemscore.Lipo.Weighted>
-9.4777

> <Gold.Chemscore.Internal_Hbond.Weighted>
0.0000

> <Gold.Chemscore.DEClash.Weighted>
0.4733

> <Gold.Chemscore.DEInternal.Weighted>
0.5799

> <Gold.Chemscore.Rot.Weighted>
4.8908

> <Gold.Chemscore.Internal.Correction.Weighted>
   9.000000E+99

> <Gold.Protein.RotatedTorsions>
[ 6907 6896 6895 6894 ] final -146.76 input  -60.11 | X-H torsion
[ 7974 7965 7964 7962 ] final   53.70 input  175.53 | X-H torsion
[ 8008 7997 7996 7995 ] final  -18.17 input   59.86 | X-H torsion
[ 10167 10162 10161 10158 ] final -136.14 input  -65.29 | X-H torsion
[ 10718 10713 10712 10709 ] final -126.98 input   66.30 | X-H torsion
[ 10763 10752 10751 10750 ] final -132.74 input  -60.55 | X-H torsion
[ 11005 11000 10999 10996 ] final -121.09 input  -57.11 | X-H torsion

> <Gold.Protein.ActiveResidues>
 VAL166  LYS551  ARG553  GLY616  TRP617  ASP618  TYR619  PRO620  LYS621  CYS622 
 ASP623  PHE694  ASN695  SER759  ASP760  ASP761  ALA762  ILE779  LEU786  VAL792 
 PHE793  MET794  SER795  GLU796  ALA797  LYS798  CYS799  TRP800  GLU811  SER814 

> <Gold.Protein.RotatedAtoms>
  151.1461  133.4938  159.2595 H   0  0  0  0  0  0  0  0  0  0  0  0  # atno 6907 bound_to 6896
  151.1603  135.0270  159.8717 H   0  0  0  0  0  0  0  0  0  0  0  0  # atno 6908 bound_to 6896
  152.5463  134.1336  159.8502 H   0  0  0  0  0  0  0  0  0  0  0  0  # atno 6909 bound_to 6896
  145.9685  139.4126  143.0205 H   0  0  0  0  0  0  0  0  0  0  0  0  # atno 7974 bound_to 7965
  154.4925  140.2123  155.9517 H   0  0  0  0  0  0  0  0  0  0  0  0  # atno 8008 bound_to 7997
  156.1325  140.3194  155.8340 H   0  0  0  0  0  0  0  0  0  0  0  0  # atno 8009 bound_to 7997
  155.4269  140.0501  157.3012 H   0  0  0  0  0  0  0  0  0  0  0  0  # atno 8010 bound_to 7997
  139.8707  143.6960  152.2640 H   0  0  0  0  0  0  0  0  0  0  0  0  # atno 10167 bound_to 10162
  156.1815  130.6735  151.0310 H   0  0  0  0  0  0  0  0  0  0  0  0  # atno 10718 bound_to 10713
  154.8740  135.3788  154.4459 H   0  0  0  0  0  0  0  0  0  0  0  0  # atno 10763 bound_to 10752
  153.5140  135.7029  153.5771 H   0  0  0  0  0  0  0  0  0  0  0  0  # atno 10764 bound_to 10752
  153.4048  135.3939  155.1977 H   0  0  0  0  0  0  0  0  0  0  0  0  # atno 10765 bound_to 10752
  141.0096  134.0284  157.3432 H   0  0  0  0  0  0  0  0  0  0  0  0  # atno 11005 bound_to 11000
  145.7940  140.9801  143.1034 LP  0  0  0  0  0  0  0  0  0  0  0  0  # atno 17320 bound_to 7965
  144.6831  139.9718  143.7482 LP  0  0  0  0  0  0  0  0  0  0  0  0  # atno 17321 bound_to 7965
  139.7286  144.7587  151.0838 LP  0  0  0  0  0  0  0  0  0  0  0  0  # atno 17342 bound_to 10162
  140.7761  143.5116  150.9645 LP  0  0  0  0  0  0  0  0  0  0  0  0  # atno 17343 bound_to 10162
  157.6871  131.0821  150.7213 LP  0  0  0  0  0  0  0  0  0  0  0  0  # atno 17370 bound_to 10713
  156.7270  130.4698  149.5509 LP  0  0  0  0  0  0  0  0  0  0  0  0  # atno 17371 bound_to 10713
  139.9082  135.0184  156.7579 LP  0  0  0  0  0  0  0  0  0  0  0  0  # atno 17394 bound_to 11000
  140.6756  133.9520  155.7881 LP  0  0  0  0  0  0  0  0  0  0  0  0  # atno 17395 bound_to 11000

$$$$
