AV-unprocessed.smi:1767|AV-procd|sdf|7139|dock8
  -GOLD-   22720 8383D 1   1.00000     0.00000
 Structure written by MMmdl.
 32 34  0  0  0  0  0  0  0  0  1 V2000
  149.0304  142.8744  157.2717 O   0  0  0  0  0  0  0  0  0  0  0  0
  150.2345  142.2515  157.6693 C   0  0  2  0  0  0  0  0  0  0  0  0
  151.3221  143.3368  157.7929 C   0  0  0  0  0  0  0  0  0  0  0  0
  151.7780  143.5019  159.1615 N   0  0  0  0  0  0  0  0  0  0  0  0
  151.5735  144.5675  159.9594 C   0  0  0  0  0  0  0  0  0  0  0  0
  152.0660  144.5090  161.1932 N   0  0  0  0  0  0  0  0  0  0  0  0
  152.6616  143.2593  161.1971 C   0  0  0  0  0  0  0  0  0  0  0  0
  153.3634  142.5815  162.2195 C   0  0  0  0  0  0  0  0  0  0  0  0
  153.8876  141.2919  161.9923 C   0  0  0  0  0  0  0  0  0  0  0  0
  153.7198  140.6617  160.7422 C   0  0  0  0  0  0  0  0  0  0  0  0
  153.0255  141.3179  159.7079 C   0  0  0  0  0  0  0  0  0  0  0  0
  152.5026  142.6040  159.9388 C   0  0  0  0  0  0  0  0  0  0  0  0
  150.6419  141.1292  156.7240 C   0  0  0  0  0  0  0  0  0  0  0  0
  149.8594  140.8510  155.5823 C   0  0  0  0  0  0  0  0  0  0  0  0
  150.2118  139.7950  154.7196 C   0  0  0  0  0  0  0  0  0  0  0  0
  151.3495  139.0118  154.9926 C   0  0  0  0  0  0  0  0  0  0  0  0
  151.6871  137.9954  154.1641 F   0  0  0  0  0  0  0  0  0  0  0  0
  152.1350  139.2851  156.1285 C   0  0  0  0  0  0  0  0  0  0  0  0
  151.7824  140.3402  156.9922 C   0  0  0  0  0  0  0  0  0  0  0  0
  149.2444  143.6238  156.7372 H   0  0  0  0  0  0  0  0  0  0  0  0
  150.0472  141.8252  158.6560 H   0  0  0  0  0  0  0  0  0  0  0  0
  152.1787  143.1052  157.1586 H   0  0  0  0  0  0  0  0  0  0  0  0
  150.9340  144.2980  157.4524 H   0  0  0  0  0  0  0  0  0  0  0  0
  151.0265  145.4334  159.6159 H   0  0  0  0  0  0  0  0  0  0  0  0
  153.4975  143.0543  163.1811 H   0  0  0  0  0  0  0  0  0  0  0  0
  154.4212  140.7834  162.7819 H   0  0  0  0  0  0  0  0  0  0  0  0
  154.1241  139.6736  160.5776 H   0  0  0  0  0  0  0  0  0  0  0  0
  152.8926  140.8360  158.7508 H   0  0  0  0  0  0  0  0  0  0  0  0
  148.9793  141.4401  155.3697 H   0  0  0  0  0  0  0  0  0  0  0  0
  149.6072  139.5840  153.8498 H   0  0  0  0  0  0  0  0  0  0  0  0
  153.0063  138.6831  156.3397 H   0  0  0  0  0  0  0  0  0  0  0  0
  152.3856  140.5357  157.8667 H   0  0  0  0  0  0  0  0  0  0  0  0
  1  2  1  0  0  0  0
  1 20  1  0  0  0  0
  2  3  1  0  0  0  0
  2 13  1  0  0  0  0
  2 21  1  0  0  0  0
  3  4  1  0  0  0  0
  3 22  1  0  0  0  0
  3 23  1  0  0  0  0
  4 12  1  0  0  0  0
  4  5  1  0  0  0  0
  5  6  2  0  0  0  0
  5 24  1  0  0  0  0
  6  7  1  0  0  0  0
  7 12  2  0  0  0  0
  7  8  1  0  0  0  0
  8  9  2  0  0  0  0
  8 25  1  0  0  0  0
  9 10  1  0  0  0  0
  9 26  1  0  0  0  0
 10 11  2  0  0  0  0
 10 27  1  0  0  0  0
 11 12  1  0  0  0  0
 11 28  1  0  0  0  0
 13 19  1  0  0  0  0
 13 14  2  0  0  0  0
 14 15  1  0  0  0  0
 14 29  1  0  0  0  0
 15 16  2  0  0  0  0
 15 30  1  0  0  0  0
 16 17  1  0  0  0  0
 16 18  1  0  0  0  0
 18 19  2  0  0  0  0
 18 31  1  0  0  0  0
 19 32  1  0  0  0  0
M  END
> <s_m_source_file>
AV-unprocessed.smi

> <i_m_source_file_index>
1767

> <i_lp_mmshare_version>
43012

> <i_f3d_flags>
0

> <s_epik_input>
W2NIXTFbY0hdYyhGKVtjSF1bY0hdYzFbQ0BIXShbT0hdKVtDSDJdbihbY0hdbjIpYyhjMjMpW2NIXVtjSF1bY0hdW2NIXTM=

> <s_epik_cmdline>
J2VwaWtfcHl0aG9uJywgJy1waCcsICc3LjAnLCAnLXRuJywgJzgnLCAnLW1hJywgJzIwMCcsICctbWV0YWxfYmluZGluZycsICctaW1hZScsICc8aW5maWxlLm1hZT4nLCAnLW9tYWUnLCAnPG91dGZpbGUubWFlPic=

> <r_epik_Ionization_Penalty>
0.0696514

> <r_epik_Ionization_Penalty_Charging>
0

> <r_epik_Ionization_Penalty_Neutral>
0.0696514

> <r_epik_State_Penalty>
0.0610247

> <r_epik_Charging_Adjusted_Penalty>
0.0610247

> <i_epik_Tot_Q>
0

> <i_epik_Tot_abs_Q>
0

> <r_epik_Metal_State_Penalty>
6.42746e-05

> <b_epik_Metal_Only>
0

> <s_lp_Force_Field>
OPLS_2005

> <r_lp_Energy>
11.9132

> <b_lp_Chiralities_Consistent>
1

> <s_lp_Variant>
AV-unprocessed.smi:1767-1

> <Gold.Version>
5.8.1

> <Gold.Id.Protein>
6NUR|6NUR_protein|mol2

> <Gold.PLP.Fitness>
51.4234

> <Gold.PLP.PLP>
-50.0268

> <Gold.PLP.part.hbond>
-1.0234

> <Gold.PLP.part.metal>
0.0000

> <Gold.PLP.part.buried>
-3.8456

> <Gold.PLP.part.nonpolar>
-44.6347

> <Gold.PLP.part.repulsive>
0.1799

> <Gold.PLP.ligand.clash>
0.0000

> <Gold.PLP.ligand.torsion>
0.8146

> <Gold.PLP.Chemscore.Hbond>
1.0000

> <Gold.PLP.Chemscore.CHOScore>
0.0000

> <Gold.PLP.Chemscore.Metal>
0.0000

> <Gold.Chemscore.Hbonds>
donor molecule, donor type, donor heavy atom, donor atom, acceptor molecule, acceptor atom, score
      L1  H     1    20       P1  8028  1.00

> <Gold.PLP.Chemscore.Internal.Correction>
0.0258

> <Gold.Rescore>
     Score         DG    S(hbond)    S(metal)    S(lipo)     H(rot)  DE(clash)    DE(int)     intcor
     17.15     -17.99       0.98        0.00     120.89       1.91       0.05       0.79       ----

> <Gold.Chemscore.Fitness>
17.1512

> <Gold.Chemscore.DG>
-17.9936

> <Gold.Chemscore.ZeroCoef>
-5.4800

> <Gold.Chemscore.Hbond>
0.9771

> <Gold.Chemscore.Metal>
0.0000

> <Gold.Chemscore.Lipo>
120.8868

> <Gold.Chemscore.Internal_Hbond>
0.0000

> <Gold.Chemscore.DEClash>
0.0499

> <Gold.Chemscore.DEInternal>
0.7924

> <Gold.Chemscore.Rot>
1.9116

> <Gold.Chemscore.Internal.Correction>
   9.000000E+99

> <Gold.Chemscore.Hbonds>
donor molecule, donor type, donor heavy atom, donor atom, acceptor molecule, acceptor atom, score
      L1  H     1    20       P1  8028  0.86

> <Gold.Chemscore.Hbond.Weighted>
-3.2635

> <Gold.Chemscore.Metal.Weighted>
-0.0000

> <Gold.Chemscore.Lipo.Weighted>
-14.1438

> <Gold.Chemscore.Internal_Hbond.Weighted>
0.0000

> <Gold.Chemscore.DEClash.Weighted>
0.0499

> <Gold.Chemscore.DEInternal.Weighted>
0.7924

> <Gold.Chemscore.Rot.Weighted>
4.8937

> <Gold.Chemscore.Internal.Correction.Weighted>
   9.000000E+99

> <Gold.Protein.RotatedTorsions>
[ 6907 6896 6895 6894 ] final  162.81 input  -60.11 | X-H torsion
[ 7974 7965 7964 7962 ] final -131.94 input  175.53 | X-H torsion
[ 8008 7997 7996 7995 ] final  -87.02 input   59.86 | X-H torsion
[ 10167 10162 10161 10158 ] final -164.87 input  -65.29 | X-H torsion
[ 10718 10713 10712 10709 ] final   60.99 input   66.30 | X-H torsion
[ 10763 10752 10751 10750 ] final -160.86 input  -60.55 | X-H torsion
[ 11005 11000 10999 10996 ] final  -58.79 input  -57.11 | X-H torsion

> <Gold.Protein.ActiveResidues>
 VAL166  LYS551  ARG553  GLY616  TRP617  ASP618  TYR619  PRO620  LYS621  CYS622 
 ASP623  PHE694  ASN695  SER759  ASP760  ASP761  ALA762  ILE779  LEU786  VAL792 
 PHE793  MET794  SER795  GLU796  ALA797  LYS798  CYS799  TRP800  GLU811  SER814 

> <Gold.Protein.RotatedAtoms>
  151.9348  133.3621  159.3943 H   0  0  0  0  0  0  0  0  0  0  0  0  # atno 6907 bound_to 6896
  150.7010  134.4501  159.5341 H   0  0  0  0  0  0  0  0  0  0  0  0  # atno 6908 bound_to 6896
  152.2147  134.8469  160.0544 H   0  0  0  0  0  0  0  0  0  0  0  0  # atno 6909 bound_to 6896
  144.9332  140.7152  143.4893 H   0  0  0  0  0  0  0  0  0  0  0  0  # atno 7974 bound_to 7965
  154.6585  140.0571  157.0035 H   0  0  0  0  0  0  0  0  0  0  0  0  # atno 8008 bound_to 7997
  155.1264  140.3252  155.4466 H   0  0  0  0  0  0  0  0  0  0  0  0  # atno 8009 bound_to 7997
  156.2607  140.1988  156.6385 H   0  0  0  0  0  0  0  0  0  0  0  0  # atno 8010 bound_to 7997
  139.6221  144.0604  152.1942 H   0  0  0  0  0  0  0  0  0  0  0  0  # atno 10167 bound_to 10162
  157.5795  130.8970  149.9405 H   0  0  0  0  0  0  0  0  0  0  0  0  # atno 10718 bound_to 10713
  154.7354  135.3056  154.8820 H   0  0  0  0  0  0  0  0  0  0  0  0  # atno 10763 bound_to 10752
  153.9651  135.6748  153.4750 H   0  0  0  0  0  0  0  0  0  0  0  0  # atno 10764 bound_to 10752
  153.0957  135.4937  154.8697 H   0  0  0  0  0  0  0  0  0  0  0  0  # atno 10765 bound_to 10752
  141.1222  133.6613  156.4973 H   0  0  0  0  0  0  0  0  0  0  0  0  # atno 11005 bound_to 11000
  145.3109  139.1819  143.4639 LP  0  0  0  0  0  0  0  0  0  0  0  0  # atno 17320 bound_to 7965
  146.3255  140.3113  142.8627 LP  0  0  0  0  0  0  0  0  0  0  0  0  # atno 17321 bound_to 7965
  140.0249  144.6125  150.7536 LP  0  0  0  0  0  0  0  0  0  0  0  0  # atno 17342 bound_to 10162
  140.7388  143.2783  151.3674 LP  0  0  0  0  0  0  0  0  0  0  0  0  # atno 17343 bound_to 10162
  156.0840  130.3670  150.0524 LP  0  0  0  0  0  0  0  0  0  0  0  0  # atno 17370 bound_to 10713
  156.8665  130.9510  151.3613 LP  0  0  0  0  0  0  0  0  0  0  0  0  # atno 17371 bound_to 10713
  140.4474  134.6960  157.5022 LP  0  0  0  0  0  0  0  0  0  0  0  0  # atno 17394 bound_to 11000
  140.0188  134.6578  155.9270 LP  0  0  0  0  0  0  0  0  0  0  0  0  # atno 17395 bound_to 11000

$$$$
