AV-unprocessed.smi:501|AV-procd|sdf|2743|dock4
  -GOLD-   2262023203D 1   1.00000     0.00000
 Structure written by MMmdl.
 46 48  0  0  0  0  0  0  0  0  2 V2000
  146.9818  137.3913  163.3458 C   0  0  0  0  0  0  0  0  0  0  0  0
  147.2846  136.2294  162.4218 C   0  0  0  0  0  0  0  0  0  0  0  0
  146.8569  134.9273  162.7497 C   0  0  0  0  0  0  0  0  0  0  0  0
  147.1449  133.8552  161.8855 C   0  0  0  0  0  0  0  0  0  0  0  0
  147.8591  134.0827  160.6938 C   0  0  0  0  0  0  0  0  0  0  0  0
  148.2936  135.3790  160.3494 C   0  0  0  0  0  0  0  0  0  0  0  0
  148.9864  135.5127  159.1650 O   0  0  0  0  0  0  0  0  0  0  0  0
  149.5177  136.7894  158.8441 C   0  0  0  0  0  0  0  0  0  0  0  0
  150.7037  136.6128  157.8907 C   0  0  0  0  0  0  0  0  0  0  0  0
  150.3479  136.9872  156.5150 N   0  0  0  0  0  0  0  0  0  0  0  0
  150.2026  136.2193  155.3951 C   0  0  0  0  0  0  0  0  0  0  0  0
  150.3659  134.7328  155.2886 C   0  0  0  0  0  0  0  0  0  0  0  0
  149.0492  133.9958  154.9686 C   0  0  0  0  0  0  0  0  0  0  0  0
  148.7726  133.9105  153.5367 N   0  0  0  0  0  0  0  0  0  0  0  0
  148.5297  132.7739  152.8685 C   0  0  0  0  0  0  0  0  0  0  0  0
  148.5377  131.6542  153.3769 O   0  0  0  0  0  0  0  0  0  0  0  0
  149.8511  137.0577  154.3782 N   0  3  0  0  0  0  0  0  0  0  0  0
  149.8039  138.3726  154.8418 C   0  0  0  0  0  0  0  0  0  0  0  0
  149.5120  139.5620  154.1811 C   0  0  0  0  0  0  0  0  0  0  0  0
  149.5575  140.7420  154.9523 C   0  0  0  0  0  0  0  0  0  0  0  0
  149.8840  140.7104  156.3237 C   0  0  0  0  0  0  0  0  0  0  0  0
  150.1768  139.4983  156.9828 C   0  0  0  0  0  0  0  0  0  0  0  0
  150.1267  138.3358  156.2135 C   0  0  0  0  0  0  0  0  0  0  0  0
  147.9988  136.4538  161.2270 C   0  0  0  0  0  0  0  0  0  0  0  0
  146.4362  137.0652  164.2318 H   0  0  0  0  0  0  0  0  0  0  0  0
  146.3770  138.1366  162.8290 H   0  0  0  0  0  0  0  0  0  0  0  0
  147.9076  137.8656  163.6720 H   0  0  0  0  0  0  0  0  0  0  0  0
  146.3087  134.7457  163.6625 H   0  0  0  0  0  0  0  0  0  0  0  0
  146.8185  132.8568  162.1367 H   0  0  0  0  0  0  0  0  0  0  0  0
  148.0765  133.2529  160.0374 H   0  0  0  0  0  0  0  0  0  0  0  0
  148.7511  137.4091  158.3760 H   0  0  0  0  0  0  0  0  0  0  0  0
  149.8567  137.2921  159.7494 H   0  0  0  0  0  0  0  0  0  0  0  0
  151.5404  137.2367  158.2053 H   0  0  0  0  0  0  0  0  0  0  0  0
  151.0701  135.5860  157.9018 H   0  0  0  0  0  0  0  0  0  0  0  0
  151.1035  134.5011  154.5206 H   0  0  0  0  0  0  0  0  0  0  0  0
  150.7770  134.3611  156.2272 H   0  0  0  0  0  0  0  0  0  0  0  0
  149.0645  132.9955  155.4042 H   0  0  0  0  0  0  0  0  0  0  0  0
  148.2137  134.5175  155.4362 H   0  0  0  0  0  0  0  0  0  0  0  0
  148.7372  134.7791  153.0228 H   0  0  0  0  0  0  0  0  0  0  0  0
  148.3260  132.9779  151.8060 H   0  0  0  0  0  0  0  0  0  0  0  0
  149.2639  139.5884  153.1300 H   0  0  0  0  0  0  0  0  0  0  0  0
  149.3393  141.6905  154.4830 H   0  0  0  0  0  0  0  0  0  0  0  0
  149.9107  141.6350  156.8825 H   0  0  0  0  0  0  0  0  0  0  0  0
  150.4283  139.4869  158.0330 H   0  0  0  0  0  0  0  0  0  0  0  0
  148.3115  137.4626  161.0049 H   0  0  0  0  0  0  0  0  0  0  0  0
  149.6645  136.7495  153.4328 H   0  0  0  0  0  0  0  0  0  0  0  0
  1  2  1  0  0  0  0
  1 25  1  0  0  0  0
  1 26  1  0  0  0  0
  1 27  1  0  0  0  0
  2 24  1  0  0  0  0
  2  3  2  0  0  0  0
  3  4  1  0  0  0  0
  3 28  1  0  0  0  0
  4  5  2  0  0  0  0
  4 29  1  0  0  0  0
  5  6  1  0  0  0  0
  5 30  1  0  0  0  0
  6  7  1  0  0  0  0
  6 24  2  0  0  0  0
  7  8  1  0  0  0  0
  8  9  1  0  0  0  0
  8 31  1  0  0  0  0
  8 32  1  0  0  0  0
  9 10  1  0  0  0  0
  9 33  1  0  0  0  0
  9 34  1  0  0  0  0
 10 23  1  0  0  0  0
 10 11  1  0  0  0  0
 11 12  1  0  0  0  0
 11 17  2  0  0  0  0
 12 13  1  0  0  0  0
 12 35  1  0  0  0  0
 12 36  1  0  0  0  0
 13 14  1  0  0  0  0
 13 37  1  0  0  0  0
 13 38  1  0  0  0  0
 14 15  1  0  0  0  0
 14 39  1  0  0  0  0
 15 16  2  0  0  0  0
 15 40  1  0  0  0  0
 17 18  1  0  0  0  0
 17 46  1  0  0  0  0
 18 23  2  0  0  0  0
 18 19  1  0  0  0  0
 19 20  2  0  0  0  0
 19 41  1  0  0  0  0
 20 21  1  0  0  0  0
 20 42  1  0  0  0  0
 21 22  2  0  0  0  0
 21 43  1  0  0  0  0
 22 23  1  0  0  0  0
 22 44  1  0  0  0  0
 24 45  1  0  0  0  0
M  CHG  1  17   1
M  END
> <s_m_source_file>
AV-unprocessed.smi

> <i_m_source_file_index>
501

> <i_lp_mmshare_version>
43012

> <i_f3d_flags>
0

> <s_epik_input>
W0NIM11jMVtjSF1bY0hdW2NIXWMoW2NIXTEpT1tDSDJdW0NIMl1uKGMobjIpW0NIMl1bQ0gyXVtOSF1bQ0hdPU8pYyhjMjMpW2NIXVtjSF1bY0hdW2NIXTM=

> <s_epik_cmdline>
J2VwaWtfcHl0aG9uJywgJy1waCcsICc3LjAnLCAnLXRuJywgJzgnLCAnLW1hJywgJzIwMCcsICctbWV0YWxfYmluZGluZycsICctaW1hZScsICc8aW5maWxlLm1hZT4nLCAnLW9tYWUnLCAnPG91dGZpbGUubWFlPic=

> <r_lp_tautomer_probability>
1

> <r_epik_Ionization_Penalty>
1.14747

> <r_epik_Ionization_Penalty_Charging>
1.14747

> <r_epik_Ionization_Penalty_Neutral>
1.55554e-08

> <r_epik_State_Penalty>
1.20856

> <r_epik_Charging_Adjusted_Penalty>
2.35603

> <i_epik_Tot_Q>
1

> <i_epik_Tot_abs_Q>
1

> <r_epik_Metal_State_Penalty>
1.28951

> <b_epik_Metal_Only>
0

> <s_lp_Force_Field>
OPLS_2005

> <r_lp_Energy>
21.7567

> <b_lp_Chiralities_Consistent>
1

> <s_lp_Variant>
AV-unprocessed.smi:501-2

> <Gold.Version>
5.8.1

> <Gold.Id.Protein>
6NUR|6NUR_protein|mol2

> <Gold.PLP.Fitness>
52.4982

> <Gold.PLP.PLP>
-41.7998

> <Gold.PLP.part.hbond>
-3.0000

> <Gold.PLP.part.metal>
0.0000

> <Gold.PLP.part.buried>
-2.0627

> <Gold.PLP.part.nonpolar>
-37.4474

> <Gold.PLP.part.repulsive>
0.1292

> <Gold.PLP.ligand.clash>
0.0000

> <Gold.PLP.ligand.torsion>
0.7686

> <Gold.PLP.Chemscore.Hbond>
4.0000

> <Gold.PLP.Chemscore.CHOScore>
0.0000

> <Gold.PLP.Chemscore.Metal>
0.0000

> <Gold.Chemscore.Hbonds>
donor molecule, donor type, donor heavy atom, donor atom, acceptor molecule, acceptor atom, score
      L1  H    14    39       P1  7948  0.95
      L1  H    17    46       P1  7948  2.00
      P1  H  6896  6908       L1     7  1.00

> <Gold.PLP.Chemscore.Internal.Correction>
0.2357

> <Gold.Rescore>
     Score         DG    S(hbond)    S(metal)    S(lipo)     H(rot)  DE(clash)    DE(int)     intcor
     16.73     -18.15       2.06        0.00     108.28       2.68       0.58       0.83       ----

> <Gold.Chemscore.Fitness>
16.7338

> <Gold.Chemscore.DG>
-18.1470

> <Gold.Chemscore.ZeroCoef>
-5.4800

> <Gold.Chemscore.Hbond>
2.0570

> <Gold.Chemscore.Metal>
0.0000

> <Gold.Chemscore.Lipo>
108.2759

> <Gold.Chemscore.Internal_Hbond>
0.0000

> <Gold.Chemscore.DEClash>
0.5810

> <Gold.Chemscore.DEInternal>
0.8322

> <Gold.Chemscore.Rot>
2.6843

> <Gold.Chemscore.Internal.Correction>
   9.000000E+99

> <Gold.Chemscore.Hbonds>
donor molecule, donor type, donor heavy atom, donor atom, acceptor molecule, acceptor atom, score
      L1  H    14    39       P1  7948  0.22
      L1  H    17    46       P1  7948  0.55
      P1  H  6896  6908       L1     7  0.15

> <Gold.Chemscore.Hbond.Weighted>
-6.8705

> <Gold.Chemscore.Metal.Weighted>
-0.0000

> <Gold.Chemscore.Lipo.Weighted>
-12.6683

> <Gold.Chemscore.Internal_Hbond.Weighted>
0.0000

> <Gold.Chemscore.DEClash.Weighted>
0.5810

> <Gold.Chemscore.DEInternal.Weighted>
0.8322

> <Gold.Chemscore.Rot.Weighted>
6.8718

> <Gold.Chemscore.Internal.Correction.Weighted>
   9.000000E+99

> <Gold.Protein.RotatedTorsions>
[ 6907 6896 6895 6894 ] final  158.75 input  -60.11 | X-H torsion
[ 7974 7965 7964 7962 ] final   79.55 input  175.53 | X-H torsion
[ 8008 7997 7996 7995 ] final   16.94 input   59.86 | X-H torsion
[ 10167 10162 10161 10158 ] final  154.62 input  -65.29 | X-H torsion
[ 10718 10713 10712 10709 ] final  130.05 input   66.30 | X-H torsion
[ 10763 10752 10751 10750 ] final -107.66 input  -60.55 | X-H torsion
[ 11005 11000 10999 10996 ] final   40.86 input  -57.11 | X-H torsion

> <Gold.Protein.ActiveResidues>
 VAL166  LYS551  ARG553  GLY616  TRP617  ASP618  TYR619  PRO620  LYS621  CYS622 
 ASP623  PHE694  ASN695  SER759  ASP760  ASP761  ALA762  ILE779  LEU786  VAL792 
 PHE793  MET794  SER795  GLU796  ALA797  LYS798  CYS799  TRP800  GLU811  SER814 

> <Gold.Protein.RotatedAtoms>
  151.9958  133.3807  159.4161 H   0  0  0  0  0  0  0  0  0  0  0  0  # atno 6907 bound_to 6896
  150.6916  134.3887  159.5076 H   0  0  0  0  0  0  0  0  0  0  0  0  # atno 6908 bound_to 6896
  152.1627  134.8898  160.0591 H   0  0  0  0  0  0  0  0  0  0  0  0  # atno 6909 bound_to 6896
  145.6627  139.2475  143.1913 H   0  0  0  0  0  0  0  0  0  0  0  0  # atno 7974 bound_to 7965
  154.8842  140.2977  155.5407 H   0  0  0  0  0  0  0  0  0  0  0  0  # atno 8008 bound_to 7997
  156.3021  140.2436  156.3783 H   0  0  0  0  0  0  0  0  0  0  0  0  # atno 8009 bound_to 7997
  154.8685  140.0402  157.1699 H   0  0  0  0  0  0  0  0  0  0  0  0  # atno 8010 bound_to 7997
  139.4823  144.5171  151.7935 H   0  0  0  0  0  0  0  0  0  0  0  0  # atno 10167 bound_to 10162
  157.5098  131.1096  150.9309 H   0  0  0  0  0  0  0  0  0  0  0  0  # atno 10718 bound_to 10713
  154.8088  135.4667  154.0463 H   0  0  0  0  0  0  0  0  0  0  0  0  # atno 10763 bound_to 10752
  153.1910  135.6855  153.8359 H   0  0  0  0  0  0  0  0  0  0  0  0  # atno 10764 bound_to 10752
  153.7877  135.3247  155.3352 H   0  0  0  0  0  0  0  0  0  0  0  0  # atno 10765 bound_to 10752
  140.1890  134.4010  155.8157 H   0  0  0  0  0  0  0  0  0  0  0  0  # atno 11005 bound_to 11000
  146.1111  140.7426  142.9502 LP  0  0  0  0  0  0  0  0  0  0  0  0  # atno 17320 bound_to 7965
  144.7083  140.3941  143.7100 LP  0  0  0  0  0  0  0  0  0  0  0  0  # atno 17321 bound_to 7965
  140.4680  144.1627  150.5914 LP  0  0  0  0  0  0  0  0  0  0  0  0  # atno 17342 bound_to 10162
  140.4413  143.2525  151.9469 LP  0  0  0  0  0  0  0  0  0  0  0  0  # atno 17343 bound_to 10162
  156.9953  130.5579  149.5306 LP  0  0  0  0  0  0  0  0  0  0  0  0  # atno 17370 bound_to 10713
  156.0282  130.5374  150.8463 LP  0  0  0  0  0  0  0  0  0  0  0  0  # atno 17371 bound_to 10713
  141.2226  133.7037  156.8062 LP  0  0  0  0  0  0  0  0  0  0  0  0  # atno 17394 bound_to 11000
  140.2181  134.8777  157.3348 LP  0  0  0  0  0  0  0  0  0  0  0  0  # atno 17395 bound_to 11000

$$$$
