AV-unprocessed.smi:1861|AV-procd|sdf|7548|dock3
  -GOLD-   22720 9263D 1   1.00000     0.00000
 Structure written by MMmdl.
 30 31  0  0  0  0  0  0  0  0  1 V2000
  147.0969  141.8633  154.0543 C   0  0  0  0  0  0  0  0  0  0  0  0
  148.2352  142.1921  154.8978 N   0  0  0  0  0  0  0  0  0  0  0  0
  149.2477  141.3526  155.1589 C   0  0  0  0  0  0  0  0  0  0  0  0
  149.3085  140.2068  154.7140 O   0  0  0  0  0  0  0  0  0  0  0  0
  150.3660  141.8844  156.0570 C   0  0  0  0  0  0  0  0  0  0  0  0
  151.4141  140.8920  156.2359 N   0  0  0  0  0  0  0  0  0  0  0  0
  151.7591  140.0643  155.2183 N   0  0  0  0  0  0  0  0  0  0  0  0
  152.6926  139.2799  155.6720 N   0  0  0  0  0  0  0  0  0  0  0  0
  152.9876  139.5625  156.9912 N   0  0  0  0  0  0  0  0  0  0  0  0
  152.1806  140.5738  157.2911 C   0  0  0  0  0  0  0  0  0  0  0  0
  152.0855  141.2382  158.6348 C   0  0  0  0  0  0  0  0  0  0  0  0
  152.3024  142.7520  158.6148 C   0  0  0  0  0  0  0  0  0  0  0  0
  152.5919  143.1042  160.0761 C   0  0  0  0  0  0  0  0  0  0  0  0
  153.2289  141.8513  160.6999 C   0  0  0  0  0  0  0  0  0  0  0  0
  153.1016  140.7284  159.6605 C   0  0  0  0  0  0  0  0  0  0  0  0
  146.3998  142.7007  154.0287 H   0  0  0  0  0  0  0  0  0  0  0  0
  146.5674  140.9898  154.4369 H   0  0  0  0  0  0  0  0  0  0  0  0
  147.4186  141.6559  153.0328 H   0  0  0  0  0  0  0  0  0  0  0  0
  148.2606  143.1181  155.3006 H   0  0  0  0  0  0  0  0  0  0  0  0
  150.7914  142.7890  155.6194 H   0  0  0  0  0  0  0  0  0  0  0  0
  149.9702  142.1640  157.0339 H   0  0  0  0  0  0  0  0  0  0  0  0
  151.0902  141.0665  159.0444 H   0  0  0  0  0  0  0  0  0  0  0  0
  153.1771  143.0005  158.0120 H   0  0  0  0  0  0  0  0  0  0  0  0
  151.4512  143.2968  158.2051 H   0  0  0  0  0  0  0  0  0  0  0  0
  153.2315  143.9828  160.1653 H   0  0  0  0  0  0  0  0  0  0  0  0
  151.6559  143.3291  160.5893 H   0  0  0  0  0  0  0  0  0  0  0  0
  154.2757  142.0226  160.9545 H   0  0  0  0  0  0  0  0  0  0  0  0
  152.7101  141.5858  161.6219 H   0  0  0  0  0  0  0  0  0  0  0  0
  152.8091  139.7732  160.0977 H   0  0  0  0  0  0  0  0  0  0  0  0
  154.0719  140.5849  159.1825 H   0  0  0  0  0  0  0  0  0  0  0  0
  1  2  1  0  0  0  0
  1 16  1  0  0  0  0
  1 17  1  0  0  0  0
  1 18  1  0  0  0  0
  2  3  1  0  0  0  0
  2 19  1  0  0  0  0
  3  4  2  0  0  0  0
  3  5  1  0  0  0  0
  5  6  1  0  0  0  0
  5 20  1  0  0  0  0
  5 21  1  0  0  0  0
  6 10  1  0  0  0  0
  6  7  1  0  0  0  0
  7  8  2  0  0  0  0
  8  9  1  0  0  0  0
  9 10  2  0  0  0  0
 10 11  1  0  0  0  0
 11 15  1  0  0  0  0
 11 12  1  0  0  0  0
 11 22  1  0  0  0  0
 12 13  1  0  0  0  0
 12 23  1  0  0  0  0
 12 24  1  0  0  0  0
 13 14  1  0  0  0  0
 13 25  1  0  0  0  0
 13 26  1  0  0  0  0
 14 15  1  0  0  0  0
 14 27  1  0  0  0  0
 14 28  1  0  0  0  0
 15 29  1  0  0  0  0
 15 30  1  0  0  0  0
M  END
> <s_m_source_file>
AV-unprocessed.smi

> <i_m_source_file_index>
1861

> <i_lp_mmshare_version>
43012

> <i_f3d_flags>
0

> <s_epik_input>
W0NIM11bTkhdQyg9TylbQ0gyXW4xbm5uYzFbQ0hdMltDSDJdW0NIMl1bQ0gyXVtDSDJdMg==

> <s_epik_cmdline>
J2VwaWtfcHl0aG9uJywgJy1waCcsICc3LjAnLCAnLXRuJywgJzgnLCAnLW1hJywgJzIwMCcsICctbWV0YWxfYmluZGluZycsICctaW1hZScsICc8aW5maWxlLm1hZT4nLCAnLW9tYWUnLCAnPG91dGZpbGUubWFlPic=

> <r_lp_tautomer_probability>
1

> <r_epik_Ionization_Penalty>
8.43634e-07

> <r_epik_Ionization_Penalty_Charging>
0

> <r_epik_Ionization_Penalty_Neutral>
8.43634e-07

> <r_epik_State_Penalty>
-0

> <r_epik_Charging_Adjusted_Penalty>
0

> <i_epik_Tot_Q>
0

> <i_epik_Tot_abs_Q>
0

> <r_epik_Metal_State_Penalty>
-0

> <b_epik_Metal_Only>
0

> <s_lp_Force_Field>
OPLS_2005

> <r_lp_Energy>
21.2835

> <b_lp_Chiralities_Consistent>
1

> <s_lp_Variant>
AV-unprocessed.smi:1861-1

> <Gold.Version>
5.8.1

> <Gold.Id.Protein>
6NUR|6NUR_protein|mol2

> <Gold.PLP.Fitness>
41.7538

> <Gold.PLP.PLP>
-33.5860

> <Gold.PLP.part.hbond>
-4.0000

> <Gold.PLP.part.metal>
0.0000

> <Gold.PLP.part.buried>
-5.5973

> <Gold.PLP.part.nonpolar>
-24.5169

> <Gold.PLP.part.repulsive>
0.2998

> <Gold.PLP.ligand.clash>
0.0000

> <Gold.PLP.ligand.torsion>
0.3611

> <Gold.PLP.Chemscore.Hbond>
2.9600

> <Gold.PLP.Chemscore.CHOScore>
0.0000

> <Gold.PLP.Chemscore.Metal>
0.0000

> <Gold.Chemscore.Hbonds>
donor molecule, donor type, donor heavy atom, donor atom, acceptor molecule, acceptor atom, score
      L1  H     2    19       P1  8028  1.00
      P1  H  7989  7998       L1     7  0.93
      P1  H  7997  8009       L1     9  1.00

> <Gold.PLP.Chemscore.Internal.Correction>
0.0099

> <Gold.Rescore>
     Score         DG    S(hbond)    S(metal)    S(lipo)     H(rot)  DE(clash)    DE(int)     intcor
     14.63     -16.99       2.44        0.00      64.47       1.64       0.11       2.26       ----

> <Gold.Chemscore.Fitness>
14.6275

> <Gold.Chemscore.DG>
-16.9902

> <Gold.Chemscore.ZeroCoef>
-5.4800

> <Gold.Chemscore.Hbond>
2.4440

> <Gold.Chemscore.Metal>
0.0000

> <Gold.Chemscore.Lipo>
64.4679

> <Gold.Chemscore.Internal_Hbond>
0.0000

> <Gold.Chemscore.DEClash>
0.1066

> <Gold.Chemscore.DEInternal>
2.2560

> <Gold.Chemscore.Rot>
1.6389

> <Gold.Chemscore.Internal.Correction>
   9.000000E+99

> <Gold.Chemscore.Hbonds>
donor molecule, donor type, donor heavy atom, donor atom, acceptor molecule, acceptor atom, score
      L1  H     2    19       P1  8028  0.96
      P1  H  7989  7998       L1     7  0.79
      P1  H  7997  8009       L1     9  0.29

> <Gold.Chemscore.Hbond.Weighted>
-8.1629

> <Gold.Chemscore.Metal.Weighted>
-0.0000

> <Gold.Chemscore.Lipo.Weighted>
-7.5427

> <Gold.Chemscore.Internal_Hbond.Weighted>
0.0000

> <Gold.Chemscore.DEClash.Weighted>
0.1066

> <Gold.Chemscore.DEInternal.Weighted>
2.2560

> <Gold.Chemscore.Rot.Weighted>
4.1955

> <Gold.Chemscore.Internal.Correction.Weighted>
   9.000000E+99

> <Gold.Protein.RotatedTorsions>
[ 6907 6896 6895 6894 ] final   15.29 input  -60.11 | X-H torsion
[ 7974 7965 7964 7962 ] final -101.98 input  175.53 | X-H torsion
[ 8008 7997 7996 7995 ] final  160.58 input   59.86 | X-H torsion
[ 10167 10162 10161 10158 ] final -101.29 input  -65.29 | X-H torsion
[ 10718 10713 10712 10709 ] final    8.76 input   66.30 | X-H torsion
[ 10763 10752 10751 10750 ] final   62.56 input  -60.55 | X-H torsion
[ 11005 11000 10999 10996 ] final -163.66 input  -57.11 | X-H torsion

> <Gold.Protein.ActiveResidues>
 VAL166  LYS551  ARG553  GLY616  TRP617  ASP618  TYR619  PRO620  LYS621  CYS622 
 ASP623  PHE694  ASN695  SER759  ASP760  ASP761  ALA762  ILE779  LEU786  VAL792 
 PHE793  MET794  SER795  GLU796  ALA797  LYS798  CYS799  TRP800  GLU811  SER814 

> <Gold.Protein.RotatedAtoms>
  151.8157  135.0667  160.0418 H   0  0  0  0  0  0  0  0  0  0  0  0  # atno 6907 bound_to 6896
  152.2988  133.5630  159.5613 H   0  0  0  0  0  0  0  0  0  0  0  0  # atno 6908 bound_to 6896
  150.7263  134.0238  159.3752 H   0  0  0  0  0  0  0  0  0  0  0  0  # atno 6909 bound_to 6896
  145.2746  140.9309  143.2967 H   0  0  0  0  0  0  0  0  0  0  0  0  # atno 7974 bound_to 7965
  156.2162  140.1800  156.7583 H   0  0  0  0  0  0  0  0  0  0  0  0  # atno 8008 bound_to 7997
  154.5795  140.0668  156.9113 H   0  0  0  0  0  0  0  0  0  0  0  0  # atno 8009 bound_to 7997
  155.2527  140.3330  155.4283 H   0  0  0  0  0  0  0  0  0  0  0  0  # atno 8010 bound_to 7997
  140.2429  143.3526  152.0785 H   0  0  0  0  0  0  0  0  0  0  0  0  # atno 10167 bound_to 10162
  156.9564  130.5916  149.5659 H   0  0  0  0  0  0  0  0  0  0  0  0  # atno 10718 bound_to 10713
  152.9987  135.5460  154.6212 H   0  0  0  0  0  0  0  0  0  0  0  0  # atno 10763 bound_to 10752
  154.5511  135.2826  155.1010 H   0  0  0  0  0  0  0  0  0  0  0  0  # atno 10764 bound_to 10752
  154.2249  135.6444  153.5209 H   0  0  0  0  0  0  0  0  0  0  0  0  # atno 10765 bound_to 10752
  140.5956  134.5000  157.5199 H   0  0  0  0  0  0  0  0  0  0  0  0  # atno 11005 bound_to 11000
  144.9305  139.4304  143.6497 LP  0  0  0  0  0  0  0  0  0  0  0  0  # atno 17320 bound_to 7965
  146.3236  139.8214  142.8926 LP  0  0  0  0  0  0  0  0  0  0  0  0  # atno 17321 bound_to 7965
  139.5071  144.6826  151.5969 LP  0  0  0  0  0  0  0  0  0  0  0  0  # atno 17342 bound_to 10162
  140.6100  143.9454  150.6446 LP  0  0  0  0  0  0  0  0  0  0  0  0  # atno 17343 bound_to 10162
  156.0340  130.5429  150.8608 LP  0  0  0  0  0  0  0  0  0  0  0  0  # atno 17370 bound_to 10713
  157.5687  131.0946  150.9450 LP  0  0  0  0  0  0  0  0  0  0  0  0  # atno 17371 bound_to 10713
  139.9255  134.8065  156.1083 LP  0  0  0  0  0  0  0  0  0  0  0  0  # atno 17394 bound_to 11000
  141.0906  133.6716  156.2532 LP  0  0  0  0  0  0  0  0  0  0  0  0  # atno 17395 bound_to 11000

$$$$
