AV-unprocessed.smi:1011|AV-procd|sdf|4420|dock1
  -GOLD-   22720 2373D 1   1.00000     0.00000
 Structure written by MMmdl.
 43 45  0  0  0  0  0  0  0  0  1 V2000
  143.3296  143.0247  161.7855 C   0  0  0  0  0  0  0  0  0  0  0  0
  144.7524  143.3529  161.4357 C   0  0  0  0  0  0  0  0  0  0  0  0
  145.7410  142.4834  160.8934 C   0  0  0  0  0  0  0  0  0  0  0  0
  146.9028  143.0845  160.6966 N   0  0  0  0  0  0  0  0  0  0  0  0
  146.6983  144.3547  161.1041 N   0  0  0  0  0  0  0  0  0  0  0  0
  147.7794  145.3175  161.0266 C   0  0  0  0  0  0  0  0  0  0  0  0
  149.1150  144.6355  160.7008 C   0  0  0  0  0  0  0  0  0  0  0  0
  149.7842  145.3535  159.6288 N   0  0  0  0  0  0  0  0  0  0  0  0
  151.1851  145.5531  159.9704 C   0  0  0  0  0  0  0  0  0  0  0  0
  151.9389  144.2829  160.2480 C   0  0  0  0  0  0  0  0  0  0  0  0
  152.3781  143.9359  161.4609 N   0  0  0  0  0  0  0  0  0  0  0  0
  152.9904  142.7199  161.2291 C   0  0  0  0  0  0  0  0  0  0  0  0
  153.6508  141.8402  162.1162 C   0  0  0  0  0  0  0  0  0  0  0  0
  154.2091  140.6346  161.6424 C   0  0  0  0  0  0  0  0  0  0  0  0
  155.0114  139.5712  162.7391 Cl  0  0  0  0  0  0  0  0  0  0  0  0
  154.1157  140.2937  160.2771 C   0  0  0  0  0  0  0  0  0  0  0  0
  153.4621  141.1565  159.3761 C   0  0  0  0  0  0  0  0  0  0  0  0
  152.9051  142.3570  159.8555 C   0  0  0  0  0  0  0  0  0  0  0  0
  152.2109  143.4014  159.2538 N   0  0  0  0  0  0  0  0  0  0  0  0
  151.8661  143.5053  157.8449 C   0  0  0  0  0  0  0  0  0  0  0  0
  150.9530  142.3533  157.4041 C   0  0  0  0  0  0  0  0  0  0  0  0
  150.5430  142.5553  156.0697 O   0  0  0  0  0  0  0  0  0  0  0  0
  145.4094  144.5449  161.5552 C   0  0  0  0  0  0  0  0  0  0  0  0
  143.2057  141.9675  162.0207 H   0  0  0  0  0  0  0  0  0  0  0  0
  142.6520  143.2526  160.9627 H   0  0  0  0  0  0  0  0  0  0  0  0
  142.9854  143.5883  162.6530 H   0  0  0  0  0  0  0  0  0  0  0  0
  145.6483  141.4381  160.6379 H   0  0  0  0  0  0  0  0  0  0  0  0
  147.5313  146.0567  160.2633 H   0  0  0  0  0  0  0  0  0  0  0  0
  147.8400  145.8494  161.9774 H   0  0  0  0  0  0  0  0  0  0  0  0
  149.7549  144.6198  161.5843 H   0  0  0  0  0  0  0  0  0  0  0  0
  148.9421  143.6007  160.4016 H   0  0  0  0  0  0  0  0  0  0  0  0
  149.7219  144.8150  158.7766 H   0  0  0  0  0  0  0  0  0  0  0  0
  151.6843  146.0698  159.1499 H   0  0  0  0  0  0  0  0  0  0  0  0
  151.2460  146.1979  160.8477 H   0  0  0  0  0  0  0  0  0  0  0  0
  153.7269  142.0947  163.1629 H   0  0  0  0  0  0  0  0  0  0  0  0
  154.5456  139.3694  159.9202 H   0  0  0  0  0  0  0  0  0  0  0  0
  153.3893  140.8978  158.3302 H   0  0  0  0  0  0  0  0  0  0  0  0
  151.3718  144.4634  157.6793 H   0  0  0  0  0  0  0  0  0  0  0  0
  152.7793  143.5250  157.2491 H   0  0  0  0  0  0  0  0  0  0  0  0
  151.4717  141.3969  157.4750 H   0  0  0  0  0  0  0  0  0  0  0  0
  150.0704  142.2947  158.0422 H   0  0  0  0  0  0  0  0  0  0  0  0
  150.1369  143.4064  156.0057 H   0  0  0  0  0  0  0  0  0  0  0  0
  145.0693  145.5034  161.9187 H   0  0  0  0  0  0  0  0  0  0  0  0
  1  2  1  0  0  0  0
  1 24  1  0  0  0  0
  1 25  1  0  0  0  0
  1 26  1  0  0  0  0
  2 23  2  0  0  0  0
  2  3  1  0  0  0  0
  3  4  2  0  0  0  0
  3 27  1  0  0  0  0
  4  5  1  0  0  0  0
  5  6  1  0  0  0  0
  5 23  1  0  0  0  0
  6  7  1  0  0  0  0
  6 28  1  0  0  0  0
  6 29  1  0  0  0  0
  7  8  1  0  0  0  0
  7 30  1  0  0  0  0
  7 31  1  0  0  0  0
  8  9  1  0  0  0  0
  8 32  1  0  0  0  0
  9 10  1  0  0  0  0
  9 33  1  0  0  0  0
  9 34  1  0  0  0  0
 10 19  1  0  0  0  0
 10 11  2  0  0  0  0
 11 12  1  0  0  0  0
 12 18  2  0  0  0  0
 12 13  1  0  0  0  0
 13 14  2  0  0  0  0
 13 35  1  0  0  0  0
 14 15  1  0  0  0  0
 14 16  1  0  0  0  0
 16 17  2  0  0  0  0
 16 36  1  0  0  0  0
 17 18  1  0  0  0  0
 17 37  1  0  0  0  0
 18 19  1  0  0  0  0
 19 20  1  0  0  0  0
 20 21  1  0  0  0  0
 20 38  1  0  0  0  0
 20 39  1  0  0  0  0
 21 22  1  0  0  0  0
 21 40  1  0  0  0  0
 21 41  1  0  0  0  0
 22 42  1  0  0  0  0
 23 43  1  0  0  0  0
M  END
> <s_m_source_file>
AV-unprocessed.smi

> <i_m_source_file_index>
1011

> <i_lp_mmshare_version>
43012

> <i_f3d_flags>
0

> <s_epik_input>
W0NIM11jMVtjSF1ubihbY0hdMSlbQ0gyXVtDSDJdW05IXVtDSDJdYyhuMiluKFtDSDJdW0NIMl1bT0hdKWMoYzIzKVtjSF1bY0hdYyhDbClbY0hdMw==

> <s_epik_cmdline>
J2VwaWtfcHl0aG9uJywgJy1waCcsICc3LjAnLCAnLXRuJywgJzgnLCAnLW1hJywgJzIwMCcsICctbWV0YWxfYmluZGluZycsICctaW1hZScsICc8aW5maWxlLm1hZT4nLCAnLW9tYWUnLCAnPG91dGZpbGUubWFlPic=

> <r_lp_tautomer_probability>
1

> <r_epik_Ionization_Penalty>
0.714951

> <r_epik_Ionization_Penalty_Charging>
0

> <r_epik_Ionization_Penalty_Neutral>
0.714951

> <r_epik_State_Penalty>
0.695393

> <r_epik_Charging_Adjusted_Penalty>
0.695393

> <i_epik_Tot_Q>
0

> <i_epik_Tot_abs_Q>
0

> <r_epik_Metal_State_Penalty>
0.662708

> <b_epik_Metal_Only>
0

> <s_lp_Force_Field>
OPLS_2005

> <r_lp_Energy>
11.4797

> <b_lp_Chiralities_Consistent>
1

> <s_lp_Variant>
AV-unprocessed.smi:1011-2

> <Gold.Version>
5.8.1

> <Gold.Id.Protein>
6NUR|6NUR_protein|mol2

> <Gold.PLP.Fitness>
63.5400

> <Gold.PLP.PLP>
-59.0327

> <Gold.PLP.part.hbond>
-4.1156

> <Gold.PLP.part.metal>
0.0000

> <Gold.PLP.part.buried>
-2.8995

> <Gold.PLP.part.nonpolar>
-53.0555

> <Gold.PLP.part.repulsive>
0.1709

> <Gold.PLP.ligand.clash>
0.0000

> <Gold.PLP.ligand.torsion>
0.8537

> <Gold.PLP.Chemscore.Hbond>
2.0000

> <Gold.PLP.Chemscore.CHOScore>
0.0000

> <Gold.PLP.Chemscore.Metal>
0.0000

> <Gold.Chemscore.Hbonds>
donor molecule, donor type, donor heavy atom, donor atom, acceptor molecule, acceptor atom, score
      L1  H    22    42       P1  8028  1.00
      P1  H  6933  6944       L1     4  1.00

> <Gold.PLP.Chemscore.Internal.Correction>
0.2148

> <Gold.Rescore>
     Score         DG    S(hbond)    S(metal)    S(lipo)     H(rot)  DE(clash)    DE(int)     intcor
     18.47     -19.83       1.93        0.00     129.75       2.84       0.56       0.80       ----

> <Gold.Chemscore.Fitness>
18.4678

> <Gold.Chemscore.DG>
-19.8253

> <Gold.Chemscore.ZeroCoef>
-5.4800

> <Gold.Chemscore.Hbond>
1.9300

> <Gold.Chemscore.Metal>
0.0000

> <Gold.Chemscore.Lipo>
129.7459

> <Gold.Chemscore.Internal_Hbond>
0.0000

> <Gold.Chemscore.DEClash>
0.5591

> <Gold.Chemscore.DEInternal>
0.7984

> <Gold.Chemscore.Rot>
2.8442

> <Gold.Chemscore.Internal.Correction>
   9.000000E+99

> <Gold.Chemscore.Hbonds>
donor molecule, donor type, donor heavy atom, donor atom, acceptor molecule, acceptor atom, score
      L1  H    22    42       P1  8028  1.00
      P1  H  6933  6944       L1     4  0.78

> <Gold.Chemscore.Hbond.Weighted>
-6.4463

> <Gold.Chemscore.Metal.Weighted>
-0.0000

> <Gold.Chemscore.Lipo.Weighted>
-15.1803

> <Gold.Chemscore.Internal_Hbond.Weighted>
0.0000

> <Gold.Chemscore.DEClash.Weighted>
0.5591

> <Gold.Chemscore.DEInternal.Weighted>
0.7984

> <Gold.Chemscore.Rot.Weighted>
7.2812

> <Gold.Chemscore.Internal.Correction.Weighted>
   9.000000E+99

> <Gold.Protein.RotatedTorsions>
[ 6907 6896 6895 6894 ] final   51.19 input  -60.11 | X-H torsion
[ 7974 7965 7964 7962 ] final  149.12 input  175.53 | X-H torsion
[ 8008 7997 7996 7995 ] final   62.15 input   59.86 | X-H torsion
[ 10167 10162 10161 10158 ] final  177.02 input  -65.29 | X-H torsion
[ 10718 10713 10712 10709 ] final   16.31 input   66.30 | X-H torsion
[ 10763 10752 10751 10750 ] final  -17.72 input  -60.55 | X-H torsion
[ 11005 11000 10999 10996 ] final   72.57 input  -57.11 | X-H torsion

> <Gold.Protein.ActiveResidues>
 VAL166  LYS551  ARG553  GLY616  TRP617  ASP618  TYR619  PRO620  LYS621  CYS622 
 ASP623  PHE694  ASN695  SER759  ASP760  ASP761  ALA762  ILE779  LEU786  VAL792 
 PHE793  MET794  SER795  GLU796  ALA797  LYS798  CYS799  TRP800  GLU811  SER814 

> <Gold.Protein.RotatedAtoms>
  152.3100  134.7509  160.0338 H   0  0  0  0  0  0  0  0  0  0  0  0  # atno 6907 bound_to 6896
  151.7993  133.3363  159.3530 H   0  0  0  0  0  0  0  0  0  0  0  0  # atno 6908 bound_to 6896
  150.7315  134.5699  159.5929 H   0  0  0  0  0  0  0  0  0  0  0  0  # atno 6909 bound_to 6896
  144.8462  139.6241  143.5994 H   0  0  0  0  0  0  0  0  0  0  0  0  # atno 7974 bound_to 7965
  155.6098  140.3495  155.4619 H   0  0  0  0  0  0  0  0  0  0  0  0  # atno 8008 bound_to 7997
  156.0163  140.1244  157.0427 H   0  0  0  0  0  0  0  0  0  0  0  0  # atno 8009 bound_to 7997
  154.4299  140.1071  156.5887 H   0  0  0  0  0  0  0  0  0  0  0  0  # atno 8010 bound_to 7997
  139.5237  144.2847  152.0516 H   0  0  0  0  0  0  0  0  0  0  0  0  # atno 10167 bound_to 10162
  157.0661  130.6329  149.5796 H   0  0  0  0  0  0  0  0  0  0  0  0  # atno 10718 bound_to 10713
  153.5783  135.7006  153.5474 H   0  0  0  0  0  0  0  0  0  0  0  0  # atno 10763 bound_to 10752
  153.3283  135.4054  155.1474 H   0  0  0  0  0  0  0  0  0  0  0  0  # atno 10764 bound_to 10752
  154.8622  135.3712  154.5309 H   0  0  0  0  0  0  0  0  0  0  0  0  # atno 10765 bound_to 10752
  139.9484  134.7271  156.0922 H   0  0  0  0  0  0  0  0  0  0  0  0  # atno 11005 bound_to 11000
  146.2746  139.6719  142.9272 LP  0  0  0  0  0  0  0  0  0  0  0  0  # atno 17320 bound_to 7965
  145.4593  141.0432  143.2760 LP  0  0  0  0  0  0  0  0  0  0  0  0  # atno 17321 bound_to 7965
  140.2301  144.4377  150.6304 LP  0  0  0  0  0  0  0  0  0  0  0  0  # atno 17342 bound_to 10162
  140.6361  143.2195  151.6392 LP  0  0  0  0  0  0  0  0  0  0  0  0  # atno 17343 bound_to 10162
  155.9964  130.5033  150.7495 LP  0  0  0  0  0  0  0  0  0  0  0  0  # atno 17370 bound_to 10713
  157.4916  131.0911  151.0420 LP  0  0  0  0  0  0  0  0  0  0  0  0  # atno 17371 bound_to 10713
  141.1141  133.6633  156.3050 LP  0  0  0  0  0  0  0  0  0  0  0  0  # atno 17394 bound_to 11000
  140.5778  134.5776  157.5472 LP  0  0  0  0  0  0  0  0  0  0  0  0  # atno 17395 bound_to 11000

$$$$
