AV-unprocessed.smi:838|AV-procd|sdf|3909|dock10
  -GOLD-   22720 1373D 1   1.00000     0.00000
 Structure written by MMmdl.
 46 47  0  0  0  0  0  0  0  0  2 V2000
  150.1516  141.4229  157.9590 C   0  0  0  0  0  0  0  0  0  0  0  0
  150.4238  140.2611  157.0007 C   0  0  0  0  0  0  0  0  0  0  0  0
  150.8427  139.2056  157.4754 O   0  0  0  0  0  0  0  0  0  0  0  0
  150.1985  140.4270  155.6752 N   0  0  0  0  0  0  0  0  0  0  0  0
  149.6217  141.6218  155.0516 C   0  0  0  0  0  0  0  0  0  0  0  0
  148.2376  141.2694  154.4766 C   0  0  0  0  0  0  0  0  0  0  0  0
  148.3140  140.1232  153.5310 N   0  3  0  0  0  0  0  0  0  0  0  0
  146.9884  139.7829  152.9567 C   0  0  0  0  0  0  0  0  0  0  0  0
  146.3265  138.5876  153.6693 C   0  0  0  0  0  0  0  0  0  0  0  0
  146.6405  137.3282  153.0043 N   0  0  0  0  0  0  0  0  0  0  0  0
  145.7297  136.4606  152.5398 C   0  0  0  0  0  0  0  0  0  0  0  0
  144.5156  136.6467  152.6279 O   0  0  0  0  0  0  0  0  0  0  0  0
  146.3181  135.3917  151.9743 N   0  0  0  0  0  0  0  0  0  0  0  0
  145.7031  134.2577  151.3721 C   0  0  0  0  0  0  0  0  0  0  0  0
  144.5436  134.3403  150.6723 N   0  0  0  0  0  0  0  0  0  0  0  0
  144.0123  133.2252  150.1310 C   0  0  0  0  0  0  0  0  0  0  0  0
  144.6040  131.9562  150.2520 C   0  0  0  0  0  0  0  0  0  0  0  0
  145.8061  131.8530  150.9726 C   0  0  0  0  0  0  0  0  0  0  0  0
  146.3692  133.0145  151.5431 C   0  0  0  0  0  0  0  0  0  0  0  0
  147.6696  132.9038  152.3229 C   0  0  0  0  0  0  0  0  0  0  0  0
  149.0261  138.9499  154.1100 C   0  0  0  0  0  0  0  0  0  0  0  0
  150.3917  139.3538  154.6957 C   0  0  0  0  0  0  0  0  0  0  0  0
  149.1014  141.7140  157.9268 H   0  0  0  0  0  0  0  0  0  0  0  0
  150.7682  142.2858  157.7065 H   0  0  0  0  0  0  0  0  0  0  0  0
  150.3856  141.1370  158.9850 H   0  0  0  0  0  0  0  0  0  0  0  0
  149.5305  142.4701  155.7283 H   0  0  0  0  0  0  0  0  0  0  0  0
  150.2829  141.9574  154.2513 H   0  0  0  0  0  0  0  0  0  0  0  0
  147.5511  141.0227  155.2885 H   0  0  0  0  0  0  0  0  0  0  0  0
  147.8252  142.1396  153.9647 H   0  0  0  0  0  0  0  0  0  0  0  0
  146.3446  140.6635  152.9806 H   0  0  0  0  0  0  0  0  0  0  0  0
  147.1108  139.5210  151.9045 H   0  0  0  0  0  0  0  0  0  0  0  0
  146.6817  138.5248  154.6982 H   0  0  0  0  0  0  0  0  0  0  0  0
  145.2433  138.7019  153.7209 H   0  0  0  0  0  0  0  0  0  0  0  0
  147.6179  137.0988  152.8951 H   0  0  0  0  0  0  0  0  0  0  0  0
  147.3273  135.3850  151.9720 H   0  0  0  0  0  0  0  0  0  0  0  0
  143.0881  133.3492  149.5862 H   0  0  0  0  0  0  0  0  0  0  0  0
  144.1476  131.0860  149.8041 H   0  0  0  0  0  0  0  0  0  0  0  0
  146.2869  130.8924  151.0848 H   0  0  0  0  0  0  0  0  0  0  0  0
  148.0426  131.8792  152.3301 H   0  0  0  0  0  0  0  0  0  0  0  0
  147.5213  133.2139  153.3577 H   0  0  0  0  0  0  0  0  0  0  0  0
  148.4379  133.5360  151.8768 H   0  0  0  0  0  0  0  0  0  0  0  0
  148.4099  138.5012  154.8910 H   0  0  0  0  0  0  0  0  0  0  0  0
  149.1780  138.1851  153.3494 H   0  0  0  0  0  0  0  0  0  0  0  0
  151.0498  139.7099  153.9016 H   0  0  0  0  0  0  0  0  0  0  0  0
  150.8849  138.4770  155.1176 H   0  0  0  0  0  0  0  0  0  0  0  0
  148.8812  140.4467  152.7605 H   0  0  0  0  0  0  0  0  0  0  0  0
  1  2  1  0  0  0  0
  1 23  1  0  0  0  0
  1 24  1  0  0  0  0
  1 25  1  0  0  0  0
  2  3  2  0  0  0  0
  2  4  1  0  0  0  0
  4 22  1  0  0  0  0
  4  5  1  0  0  0  0
  5  6  1  0  0  0  0
  5 26  1  0  0  0  0
  5 27  1  0  0  0  0
  6  7  1  0  0  0  0
  6 28  1  0  0  0  0
  6 29  1  0  0  0  0
  7  8  1  0  0  0  0
  7 21  1  0  0  0  0
  7 46  1  0  0  0  0
  8  9  1  0  0  0  0
  8 30  1  0  0  0  0
  8 31  1  0  0  0  0
  9 10  1  0  0  0  0
  9 32  1  0  0  0  0
  9 33  1  0  0  0  0
 10 11  1  0  0  0  0
 10 34  1  0  0  0  0
 11 12  2  0  0  0  0
 11 13  1  0  0  0  0
 13 14  1  0  0  0  0
 13 35  1  0  0  0  0
 14 19  1  0  0  0  0
 14 15  2  0  0  0  0
 15 16  1  0  0  0  0
 16 17  2  0  0  0  0
 16 36  1  0  0  0  0
 17 18  1  0  0  0  0
 17 37  1  0  0  0  0
 18 19  2  0  0  0  0
 18 38  1  0  0  0  0
 19 20  1  0  0  0  0
 20 39  1  0  0  0  0
 20 40  1  0  0  0  0
 20 41  1  0  0  0  0
 21 22  1  0  0  0  0
 21 42  1  0  0  0  0
 21 43  1  0  0  0  0
 22 44  1  0  0  0  0
 22 45  1  0  0  0  0
M  CHG  1   7   1
M  END
> <s_m_source_file>
AV-unprocessed.smi

> <i_m_source_file_index>
838

> <i_lp_mmshare_version>
43012

> <i_f3d_flags>
0

> <s_epik_input>
W0NIM11DKD1PKU4xW0NIMl1bQ0gyXU4oW0NIMl1bQ0gyXTEpW0NIMl1bQ0gyXVtOSF1DKD1PKVtOSF1jMm5bY0hdW2NIXVtjSF1jMltDSDNd

> <s_epik_cmdline>
J2VwaWtfcHl0aG9uJywgJy1waCcsICc3LjAnLCAnLXRuJywgJzgnLCAnLW1hJywgJzIwMCcsICctbWV0YWxfYmluZGluZycsICctaW1hZScsICc8aW5maWxlLm1hZT4nLCAnLW9tYWUnLCAnPG91dGZpbGUubWFlPic=

> <r_epik_Ionization_Penalty>
0.630076

> <r_epik_Ionization_Penalty_Charging>
0.630034

> <r_epik_Ionization_Penalty_Neutral>
4.2229e-05

> <r_epik_State_Penalty>
0.646805

> <r_epik_Charging_Adjusted_Penalty>
1.27684

> <i_epik_Tot_Q>
1

> <i_epik_Tot_abs_Q>
1

> <r_epik_Metal_State_Penalty>
0.64681

> <b_epik_Metal_Only>
0

> <s_lp_Force_Field>
OPLS_2005

> <r_lp_Energy>
41.2384

> <b_lp_Chiralities_Consistent>
1

> <s_lp_Variant>
AV-unprocessed.smi:838-2

> <Gold.Version>
5.8.1

> <Gold.Id.Protein>
6NUR|6NUR_protein|mol2

> <Gold.PLP.Fitness>
48.6686

> <Gold.PLP.PLP>
-38.8371

> <Gold.PLP.part.hbond>
-3.0000

> <Gold.PLP.part.metal>
0.0000

> <Gold.PLP.part.buried>
-3.7075

> <Gold.PLP.part.nonpolar>
-32.6186

> <Gold.PLP.part.repulsive>
0.4626

> <Gold.PLP.ligand.clash>
0.0000

> <Gold.PLP.ligand.torsion>
0.9385

> <Gold.PLP.Chemscore.Hbond>
2.8880

> <Gold.PLP.Chemscore.CHOScore>
1.0000

> <Gold.PLP.Chemscore.Metal>
0.0000

> <Gold.Chemscore.Hbonds>
donor molecule, donor type, donor heavy atom, donor atom, acceptor molecule, acceptor atom, score
      L1  H     7    46       P1  7957  0.93
      L1  H    10    34       P1  7948  0.94
      L1  H    13    35       P1  7948  1.00
      L1  C    16    36       P1 10186  1.00

> <Gold.PLP.Chemscore.Internal.Correction>
0.0445

> <Gold.Rescore>
     Score         DG    S(hbond)    S(metal)    S(lipo)     H(rot)  DE(clash)    DE(int)     intcor
     19.84     -20.99       2.84        0.00      86.18       1.58       0.04       1.12       ----

> <Gold.Chemscore.Fitness>
19.8388

> <Gold.Chemscore.DG>
-20.9933

> <Gold.Chemscore.ZeroCoef>
-5.4800

> <Gold.Chemscore.Hbond>
2.8359

> <Gold.Chemscore.Metal>
0.0000

> <Gold.Chemscore.Lipo>
86.1808

> <Gold.Chemscore.Internal_Hbond>
0.0000

> <Gold.Chemscore.DEClash>
0.0363

> <Gold.Chemscore.DEInternal>
1.1182

> <Gold.Chemscore.Rot>
1.5788

> <Gold.Chemscore.Internal.Correction>
   9.000000E+99

> <Gold.Chemscore.Hbonds>
donor molecule, donor type, donor heavy atom, donor atom, acceptor molecule, acceptor atom, score
      L1  H     7    46       P1  7957  0.90
      L1  H    10    34       P1  7948  0.91
      L1  H    13    35       P1  7948  0.97

> <Gold.Chemscore.Hbond.Weighted>
-9.4718

> <Gold.Chemscore.Metal.Weighted>
-0.0000

> <Gold.Chemscore.Lipo.Weighted>
-10.0832

> <Gold.Chemscore.Internal_Hbond.Weighted>
0.0000

> <Gold.Chemscore.DEClash.Weighted>
0.0363

> <Gold.Chemscore.DEInternal.Weighted>
1.1182

> <Gold.Chemscore.Rot.Weighted>
4.0416

> <Gold.Chemscore.Internal.Correction.Weighted>
   9.000000E+99

> <Gold.Protein.RotatedTorsions>
[ 6907 6896 6895 6894 ] final -115.10 input  -60.11 | X-H torsion
[ 7974 7965 7964 7962 ] final -144.69 input  175.53 | X-H torsion
[ 8008 7997 7996 7995 ] final  146.37 input   59.86 | X-H torsion
[ 10167 10162 10161 10158 ] final   71.95 input  -65.29 | X-H torsion
[ 10718 10713 10712 10709 ] final  -18.59 input   66.30 | X-H torsion
[ 10763 10752 10751 10750 ] final  -81.87 input  -60.55 | X-H torsion
[ 11005 11000 10999 10996 ] final   34.55 input  -57.11 | X-H torsion

> <Gold.Protein.ActiveResidues>
 VAL166  LYS551  ARG553  GLY616  TRP617  ASP618  TYR619  PRO620  LYS621  CYS622 
 ASP623  PHE694  ASN695  SER759  ASP760  ASP761  ALA762  ILE779  LEU786  VAL792 
 PHE793  MET794  SER795  GLU796  ALA797  LYS798  CYS799  TRP800  GLU811  SER814 

> <Gold.Protein.RotatedAtoms>
  150.7952  133.8707  159.3257 H   0  0  0  0  0  0  0  0  0  0  0  0  # atno 6907 bound_to 6896
  151.6534  135.0997  160.0175 H   0  0  0  0  0  0  0  0  0  0  0  0  # atno 6908 bound_to 6896
  152.4032  133.6810  159.6369 H   0  0  0  0  0  0  0  0  0  0  0  0  # atno 6909 bound_to 6896
  144.8279  140.5677  143.5534 H   0  0  0  0  0  0  0  0  0  0  0  0  # atno 7974 bound_to 7965
  156.2857  140.2184  156.5366 H   0  0  0  0  0  0  0  0  0  0  0  0  # atno 8008 bound_to 7997
  154.7404  140.0488  157.0828 H   0  0  0  0  0  0  0  0  0  0  0  0  # atno 8009 bound_to 7997
  155.0238  140.3127  155.4786 H   0  0  0  0  0  0  0  0  0  0  0  0  # atno 8010 bound_to 7997
  140.0405  144.5393  150.7438 H   0  0  0  0  0  0  0  0  0  0  0  0  # atno 10167 bound_to 10162
  156.5575  130.4717  149.6422 H   0  0  0  0  0  0  0  0  0  0  0  0  # atno 10718 bound_to 10713
  154.5689  135.5611  153.7076 H   0  0  0  0  0  0  0  0  0  0  0  0  # atno 10763 bound_to 10752
  153.0042  135.6292  154.2142 H   0  0  0  0  0  0  0  0  0  0  0  0  # atno 10764 bound_to 10752
  154.2081  135.2875  155.2947 H   0  0  0  0  0  0  0  0  0  0  0  0  # atno 10765 bound_to 10752
  140.2517  134.3296  155.7888 H   0  0  0  0  0  0  0  0  0  0  0  0  # atno 11005 bound_to 11000
  145.4959  139.1486  143.3684 LP  0  0  0  0  0  0  0  0  0  0  0  0  # atno 17320 bound_to 7965
  146.2584  140.5098  142.8864 LP  0  0  0  0  0  0  0  0  0  0  0  0  # atno 17321 bound_to 7965
  140.7262  143.2639  151.4112 LP  0  0  0  0  0  0  0  0  0  0  0  0  # atno 17342 bound_to 10162
  139.6017  144.1282  152.2205 LP  0  0  0  0  0  0  0  0  0  0  0  0  # atno 17343 bound_to 10162
  156.2829  130.7081  151.1910 LP  0  0  0  0  0  0  0  0  0  0  0  0  # atno 17370 bound_to 10713
  157.7375  131.0551  150.5350 LP  0  0  0  0  0  0  0  0  0  0  0  0  # atno 17371 bound_to 10713
  141.2200  133.7357  156.9047 LP  0  0  0  0  0  0  0  0  0  0  0  0  # atno 17394 bound_to 11000
  140.1552  134.9203  157.2644 LP  0  0  0  0  0  0  0  0  0  0  0  0  # atno 17395 bound_to 11000

$$$$
