AV-unprocessed.smi:722|AV-procd|sdf|3504|dock6
  -GOLD-   22720 0503D 1   1.00000     0.00000
 Structure written by MMmdl.
 38 39  0  0  0  0  0  0  0  0  1 V2000
  147.6808  137.9075  155.7654 C   0  0  0  0  0  0  0  0  0  0  0  0
  148.6037  138.2495  156.8901 C   0  0  0  0  0  0  0  0  0  0  0  0
  148.1842  138.5685  158.1167 N   0  0  0  0  0  0  0  0  0  0  0  0
  149.3290  138.8161  158.8418 N   0  0  0  0  0  0  0  0  0  0  0  0
  150.3388  138.6231  157.9904 C   0  0  0  0  0  0  0  0  0  0  0  0
  152.0305  138.8316  158.4290 S   0  0  0  0  0  0  0  0  0  0  0  0
  151.9234  140.5720  158.9243 C   0  0  0  0  0  0  0  0  0  0  0  0
  153.3150  141.1954  159.0921 C   0  0  0  0  0  0  0  0  0  0  0  0
  153.2806  142.5721  159.7779 C   0  0  0  0  0  0  0  0  0  0  0  0
  152.6587  142.5675  161.1791 C   0  0  0  0  0  0  0  0  0  0  0  0
  152.2213  144.0148  161.4369 C   0  0  0  0  0  0  0  0  0  0  0  0
  152.1476  144.6972  160.0627 C   0  0  0  0  0  0  0  0  0  0  0  0
  152.4352  143.6045  159.0293 C   0  0  0  0  0  0  0  0  0  0  0  0
  149.9455  138.2643  156.7509 N   0  0  0  0  0  0  0  0  0  0  0  0
  150.7570  137.9837  155.5732 C   0  0  0  0  0  0  0  0  0  0  0  0
  150.4438  138.9604  154.4369 C   0  0  0  0  0  0  0  0  0  0  0  0
  149.8396  138.4633  153.3547 N   0  0  0  0  0  0  0  0  0  0  0  0
  150.7499  140.1471  154.5306 O   0  0  0  0  0  0  0  0  0  0  0  0
  146.6423  138.0344  156.0722 H   0  0  0  0  0  0  0  0  0  0  0  0
  147.8275  136.8708  155.4616 H   0  0  0  0  0  0  0  0  0  0  0  0
  147.8690  138.5570  154.9104 H   0  0  0  0  0  0  0  0  0  0  0  0
  151.3577  141.1129  158.1657 H   0  0  0  0  0  0  0  0  0  0  0  0
  151.3582  140.6414  159.8541 H   0  0  0  0  0  0  0  0  0  0  0  0
  153.9367  140.5189  159.6797 H   0  0  0  0  0  0  0  0  0  0  0  0
  153.7962  141.2830  158.1171 H   0  0  0  0  0  0  0  0  0  0  0  0
  154.2981  142.9600  159.8515 H   0  0  0  0  0  0  0  0  0  0  0  0
  151.7825  141.9178  161.1946 H   0  0  0  0  0  0  0  0  0  0  0  0
  153.3489  142.2044  161.9412 H   0  0  0  0  0  0  0  0  0  0  0  0
  151.2623  144.0466  161.9554 H   0  0  0  0  0  0  0  0  0  0  0  0
  152.9493  144.5269  162.0674 H   0  0  0  0  0  0  0  0  0  0  0  0
  151.1816  145.1722  159.8895 H   0  0  0  0  0  0  0  0  0  0  0  0
  152.9095  145.4752  160.0003 H   0  0  0  0  0  0  0  0  0  0  0  0
  152.9365  143.9922  158.1419 H   0  0  0  0  0  0  0  0  0  0  0  0
  151.4956  143.1528  158.7074 H   0  0  0  0  0  0  0  0  0  0  0  0
  151.8117  138.0307  155.8479 H   0  0  0  0  0  0  0  0  0  0  0  0
  150.5702  136.9643  155.2356 H   0  0  0  0  0  0  0  0  0  0  0  0
  149.6094  139.0699  152.5806 H   0  0  0  0  0  0  0  0  0  0  0  0
  149.6112  137.4804  153.3159 H   0  0  0  0  0  0  0  0  0  0  0  0
  1  2  1  0  0  0  0
  1 19  1  0  0  0  0
  1 20  1  0  0  0  0
  1 21  1  0  0  0  0
  2 14  1  0  0  0  0
  2  3  2  0  0  0  0
  3  4  1  0  0  0  0
  4  5  2  0  0  0  0
  5  6  1  0  0  0  0
  5 14  1  0  0  0  0
  6  7  1  0  0  0  0
  7  8  1  0  0  0  0
  7 22  1  0  0  0  0
  7 23  1  0  0  0  0
  8  9  1  0  0  0  0
  8 24  1  0  0  0  0
  8 25  1  0  0  0  0
  9 13  1  0  0  0  0
  9 10  1  0  0  0  0
  9 26  1  0  0  0  0
 10 11  1  0  0  0  0
 10 27  1  0  0  0  0
 10 28  1  0  0  0  0
 11 12  1  0  0  0  0
 11 29  1  0  0  0  0
 11 30  1  0  0  0  0
 12 13  1  0  0  0  0
 12 31  1  0  0  0  0
 12 32  1  0  0  0  0
 13 33  1  0  0  0  0
 13 34  1  0  0  0  0
 14 15  1  0  0  0  0
 15 16  1  0  0  0  0
 15 35  1  0  0  0  0
 15 36  1  0  0  0  0
 16 17  1  0  0  0  0
 16 18  2  0  0  0  0
 17 37  1  0  0  0  0
 17 38  1  0  0  0  0
M  END
> <s_m_source_file>
AV-unprocessed.smi

> <i_m_source_file_index>
722

> <i_lp_mmshare_version>
43012

> <i_f3d_flags>
0

> <s_epik_input>
W0NIM11jMW5uYyhuMVtDSDJdQyg9TylbTkgyXSlTW0NIMl1bQ0gyXVtDSF0yW0NIMl1bQ0gyXVtDSDJdW0NIMl0y

> <s_epik_cmdline>
J2VwaWtfcHl0aG9uJywgJy1waCcsICc3LjAnLCAnLXRuJywgJzgnLCAnLW1hJywgJzIwMCcsICctbWV0YWxfYmluZGluZycsICctaW1hZScsICc8aW5maWxlLm1hZT4nLCAnLW9tYWUnLCAnPG91dGZpbGUubWFlPic=

> <r_lp_tautomer_probability>
1

> <r_epik_Ionization_Penalty>
8.38536e-06

> <r_epik_Ionization_Penalty_Charging>
0

> <r_epik_Ionization_Penalty_Neutral>
8.38536e-06

> <r_epik_State_Penalty>
-0

> <r_epik_Charging_Adjusted_Penalty>
0

> <i_epik_Tot_Q>
0

> <i_epik_Tot_abs_Q>
0

> <r_epik_Metal_State_Penalty>
-0

> <b_epik_Metal_Only>
0

> <s_lp_Force_Field>
OPLS_2005

> <r_lp_Energy>
19.4661

> <b_lp_Chiralities_Consistent>
1

> <s_lp_Variant>
AV-unprocessed.smi:722-1

> <Gold.Version>
5.8.1

> <Gold.Id.Protein>
6NUR|6NUR_protein|mol2

> <Gold.PLP.Fitness>
44.1283

> <Gold.PLP.PLP>
-36.2753

> <Gold.PLP.part.hbond>
-4.5442

> <Gold.PLP.part.metal>
0.0000

> <Gold.PLP.part.buried>
-4.7801

> <Gold.PLP.part.nonpolar>
-26.6273

> <Gold.PLP.part.repulsive>
0.1784

> <Gold.PLP.ligand.clash>
0.0000

> <Gold.PLP.ligand.torsion>
0.1396

> <Gold.PLP.Chemscore.Hbond>
2.7020

> <Gold.PLP.Chemscore.CHOScore>
0.0000

> <Gold.PLP.Chemscore.Metal>
0.0000

> <Gold.Chemscore.Hbonds>
donor molecule, donor type, donor heavy atom, donor atom, acceptor molecule, acceptor atom, score
      L1  H    17    37       P1  7957  1.00
      L1  H    17    38       P1  7948  0.67
      P1  H  7989  7998       L1    18  1.00

> <Gold.PLP.Chemscore.Internal.Correction>
0.0262

> <Gold.Rescore>
     Score         DG    S(hbond)    S(metal)    S(lipo)     H(rot)  DE(clash)    DE(int)     intcor
     17.38     -17.55       2.73        0.00      83.38       2.66       0.00       0.17       ----

> <Gold.Chemscore.Fitness>
17.3798

> <Gold.Chemscore.DG>
-17.5452

> <Gold.Chemscore.ZeroCoef>
-5.4800

> <Gold.Chemscore.Hbond>
2.7290

> <Gold.Chemscore.Metal>
0.0000

> <Gold.Chemscore.Lipo>
83.3814

> <Gold.Chemscore.Internal_Hbond>
0.0000

> <Gold.Chemscore.DEClash>
0.0000

> <Gold.Chemscore.DEInternal>
0.1654

> <Gold.Chemscore.Rot>
2.6583

> <Gold.Chemscore.Internal.Correction>
   9.000000E+99

> <Gold.Chemscore.Hbonds>
donor molecule, donor type, donor heavy atom, donor atom, acceptor molecule, acceptor atom, score
      L1  H    17    37       P1  7957  0.93
      L1  H    17    38       P1  7948  0.54
      P1  H  7989  7998       L1    18  0.93

> <Gold.Chemscore.Hbond.Weighted>
-9.1147

> <Gold.Chemscore.Metal.Weighted>
-0.0000

> <Gold.Chemscore.Lipo.Weighted>
-9.7556

> <Gold.Chemscore.Internal_Hbond.Weighted>
0.0000

> <Gold.Chemscore.DEClash.Weighted>
0.0000

> <Gold.Chemscore.DEInternal.Weighted>
0.1654

> <Gold.Chemscore.Rot.Weighted>
6.8052

> <Gold.Chemscore.Internal.Correction.Weighted>
   9.000000E+99

> <Gold.Protein.RotatedTorsions>
[ 6907 6896 6895 6894 ] final -177.81 input  -60.11 | X-H torsion
[ 7974 7965 7964 7962 ] final -165.25 input  175.53 | X-H torsion
[ 8008 7997 7996 7995 ] final  133.47 input   59.86 | X-H torsion
[ 10167 10162 10161 10158 ] final   68.57 input  -65.29 | X-H torsion
[ 10718 10713 10712 10709 ] final -129.51 input   66.30 | X-H torsion
[ 10763 10752 10751 10750 ] final  -61.43 input  -60.55 | X-H torsion
[ 11005 11000 10999 10996 ] final  -94.58 input  -57.11 | X-H torsion

> <Gold.Protein.ActiveResidues>
 VAL166  LYS551  ARG553  GLY616  TRP617  ASP618  TYR619  PRO620  LYS621  CYS622 
 ASP623  PHE694  ASN695  SER759  ASP760  ASP761  ALA762  ILE779  LEU786  VAL792 
 PHE793  MET794  SER795  GLU796  ALA797  LYS798  CYS799  TRP800  GLU811  SER814 

> <Gold.Protein.RotatedAtoms>
  151.6270  133.3335  159.3100 H   0  0  0  0  0  0  0  0  0  0  0  0  # atno 6907 bound_to 6896
  150.8076  134.7215  159.6670 H   0  0  0  0  0  0  0  0  0  0  0  0  # atno 6908 bound_to 6896
  152.4172  134.6025  160.0055 H   0  0  0  0  0  0  0  0  0  0  0  0  # atno 6909 bound_to 6896
  144.7275  140.2842  143.6231 H   0  0  0  0  0  0  0  0  0  0  0  0  # atno 7974 bound_to 7965
  156.2992  140.2520  156.3259 H   0  0  0  0  0  0  0  0  0  0  0  0  # atno 8008 bound_to 7997
  154.9191  140.0401  157.2007 H   0  0  0  0  0  0  0  0  0  0  0  0  # atno 8009 bound_to 7997
  154.8329  140.2878  155.5714 H   0  0  0  0  0  0  0  0  0  0  0  0  # atno 8010 bound_to 7997
  140.0773  144.5101  150.7186 H   0  0  0  0  0  0  0  0  0  0  0  0  # atno 10167 bound_to 10162
  156.2054  130.6884  151.0588 H   0  0  0  0  0  0  0  0  0  0  0  0  # atno 10718 bound_to 10713
  154.2845  135.6265  153.5360 H   0  0  0  0  0  0  0  0  0  0  0  0  # atno 10763 bound_to 10752
  152.9861  135.5641  154.5459 H   0  0  0  0  0  0  0  0  0  0  0  0  # atno 10764 bound_to 10752
  154.5056  135.2874  155.1360 H   0  0  0  0  0  0  0  0  0  0  0  0  # atno 10765 bound_to 10752
  141.1466  133.7966  157.0317 H   0  0  0  0  0  0  0  0  0  0  0  0  # atno 11005 bound_to 11000
  145.7920  139.1930  143.2098 LP  0  0  0  0  0  0  0  0  0  0  0  0  # atno 17320 bound_to 7965
  146.0748  140.7829  142.9670 LP  0  0  0  0  0  0  0  0  0  0  0  0  # atno 17321 bound_to 7965
  140.7096  143.2494  151.4623 LP  0  0  0  0  0  0  0  0  0  0  0  0  # atno 17342 bound_to 10162
  139.5800  144.1730  152.1956 LP  0  0  0  0  0  0  0  0  0  0  0  0  # atno 17343 bound_to 10162
  157.7009  131.0776  150.6822 LP  0  0  0  0  0  0  0  0  0  0  0  0  # atno 17370 bound_to 10713
  156.6881  130.4587  149.5608 LP  0  0  0  0  0  0  0  0  0  0  0  0  # atno 17371 bound_to 10713
  140.0750  134.9681  157.1530 LP  0  0  0  0  0  0  0  0  0  0  0  0  # atno 17394 bound_to 11000
  140.3657  134.2445  155.7182 LP  0  0  0  0  0  0  0  0  0  0  0  0  # atno 17395 bound_to 11000

$$$$
