AV-unprocessed.smi:2114|AV-procd|sdf|8620|dock10
  -GOLD-   2272011363D 1   1.00000     0.00000
 Structure written by MMmdl.
 47 48  0  0  0  0  0  0  0  0  1 V2000
  153.7989  132.8896  164.8741 C   0  0  0  0  0  0  0  0  0  0  0  0
  154.8165  133.5385  164.1321 O   0  0  0  0  0  0  0  0  0  0  0  0
  154.3993  134.7938  163.6195 C   0  0  0  0  0  0  0  0  0  0  0  0
  155.3317  135.2145  162.4732 C   0  0  1  0  0  0  0  0  0  0  0  0
  155.4665  134.1013  161.4214 C   0  0  0  0  0  0  0  0  0  0  0  0
  154.8240  136.4353  161.8528 N   0  0  0  0  0  0  0  0  0  0  0  0
  155.1526  137.6862  162.2156 C   0  0  0  0  0  0  0  0  0  0  0  0
  155.9204  137.9463  163.1422 O   0  0  0  0  0  0  0  0  0  0  0  0
  154.4718  138.7846  161.4510 C   0  0  0  0  0  0  0  0  0  0  0  0
  154.4133  140.1075  161.9416 C   0  0  0  0  0  0  0  0  0  0  0  0
  153.7335  141.0872  161.1931 C   0  0  0  0  0  0  0  0  0  0  0  0
  153.1192  140.7210  159.9726 C   0  0  0  0  0  0  0  0  0  0  0  0
  152.4278  141.6868  159.2108 N   0  0  0  0  0  0  0  0  0  0  0  0
  151.1307  141.2696  158.6863 C   0  0  0  0  0  0  0  0  0  0  0  0
  150.6300  142.2506  157.6077 C   0  0  2  0  0  0  0  0  0  0  0  0
  151.3555  142.0984  156.2587 C   0  0  0  0  0  0  0  0  0  0  0  0
  150.6776  143.5922  158.0991 O   0  0  0  0  0  0  0  0  0  0  0  0
  151.9603  144.0147  158.5604 C   0  0  1  0  0  0  0  0  0  0  0  0
  151.8368  145.4613  159.0500 C   0  0  0  0  0  0  0  0  0  0  0  0
  152.4434  143.0709  159.6756 C   0  0  0  0  0  0  0  0  0  0  0  0
  153.1643  139.4477  159.5098 N   0  0  0  0  0  0  0  0  0  0  0  0
  153.8184  138.5121  160.2301 C   0  0  0  0  0  0  0  0  0  0  0  0
  154.1709  131.9370  165.2508 H   0  0  0  0  0  0  0  0  0  0  0  0
  152.9256  132.6875  164.2526 H   0  0  0  0  0  0  0  0  0  0  0  0
  153.4888  133.4918  165.7292 H   0  0  0  0  0  0  0  0  0  0  0  0
  153.3753  134.7112  163.2515 H   0  0  0  0  0  0  0  0  0  0  0  0
  154.4019  135.5465  164.4100 H   0  0  0  0  0  0  0  0  0  0  0  0
  156.3185  135.4099  162.8970 H   0  0  0  0  0  0  0  0  0  0  0  0
  155.8540  133.1853  161.8680 H   0  0  0  0  0  0  0  0  0  0  0  0
  156.1517  134.3894  160.6237 H   0  0  0  0  0  0  0  0  0  0  0  0
  154.5039  133.8674  160.9655 H   0  0  0  0  0  0  0  0  0  0  0  0
  154.1616  136.3193  161.0999 H   0  0  0  0  0  0  0  0  0  0  0  0
  154.8720  140.3782  162.8816 H   0  0  0  0  0  0  0  0  0  0  0  0
  153.6738  142.0972  161.5705 H   0  0  0  0  0  0  0  0  0  0  0  0
  151.1598  140.2617  158.2744 H   0  0  0  0  0  0  0  0  0  0  0  0
  150.4220  141.2464  159.5152 H   0  0  0  0  0  0  0  0  0  0  0  0
  149.5774  142.0327  157.4247 H   0  0  0  0  0  0  0  0  0  0  0  0
  151.1829  141.1076  155.8382 H   0  0  0  0  0  0  0  0  0  0  0  0
  152.4340  142.2251  156.3517 H   0  0  0  0  0  0  0  0  0  0  0  0
  150.9926  142.8304  155.5371 H   0  0  0  0  0  0  0  0  0  0  0  0
  152.6716  143.9987  157.7342 H   0  0  0  0  0  0  0  0  0  0  0  0
  152.7962  145.8388  159.4047 H   0  0  0  0  0  0  0  0  0  0  0  0
  151.1215  145.5411  159.8691 H   0  0  0  0  0  0  0  0  0  0  0  0
  151.4983  146.1165  158.2471 H   0  0  0  0  0  0  0  0  0  0  0  0
  151.8013  143.1619  160.5532 H   0  0  0  0  0  0  0  0  0  0  0  0
  153.4520  143.3569  159.9774 H   0  0  0  0  0  0  0  0  0  0  0  0
  153.8174  137.5163  159.8108 H   0  0  0  0  0  0  0  0  0  0  0  0
  1  2  1  0  0  0  0
  1 23  1  0  0  0  0
  1 24  1  0  0  0  0
  1 25  1  0  0  0  0
  2  3  1  0  0  0  0
  3  4  1  0  0  0  0
  3 26  1  0  0  0  0
  3 27  1  0  0  0  0
  4  5  1  0  0  0  0
  4  6  1  0  0  0  0
  4 28  1  0  0  0  0
  5 29  1  0  0  0  0
  5 30  1  0  0  0  0
  5 31  1  0  0  0  0
  6  7  1  0  0  0  0
  6 32  1  0  0  0  0
  7  8  2  0  0  0  0
  7  9  1  0  0  0  0
  9 22  1  0  0  0  0
  9 10  2  0  0  0  0
 10 11  1  0  0  0  0
 10 33  1  0  0  0  0
 11 12  2  0  0  0  0
 11 34  1  0  0  0  0
 12 13  1  0  0  0  0
 12 21  1  0  0  0  0
 13 20  1  0  0  0  0
 13 14  1  0  0  0  0
 14 15  1  0  0  0  0
 14 35  1  0  0  0  0
 14 36  1  0  0  0  0
 15 16  1  0  0  0  0
 15 17  1  0  0  0  0
 15 37  1  0  0  0  0
 16 38  1  0  0  0  0
 16 39  1  0  0  0  0
 16 40  1  0  0  0  0
 17 18  1  0  0  0  0
 18 19  1  0  0  0  0
 18 20  1  0  0  0  0
 18 41  1  0  0  0  0
 19 42  1  0  0  0  0
 19 43  1  0  0  0  0
 19 44  1  0  0  0  0
 20 45  1  0  0  0  0
 20 46  1  0  0  0  0
 21 22  2  0  0  0  0
 22 47  1  0  0  0  0
M  END
> <s_m_source_file>
AV-unprocessed.smi

> <i_m_source_file_index>
2114

> <i_lp_mmshare_version>
43012

> <i_f3d_flags>
0

> <s_epik_input>
W0NIM11PW0NIMl1bQ0BIXShbQ0gzXSlbTkhdQyg9TyljMVtjSF1bY0hdYyhuW2NIXTEpTjJbQ0gyXVtDQEBIXShbQ0gzXSlPW0NAQEhdKFtDSDNdKVtDSDJdMg==

> <s_epik_cmdline>
J2VwaWtfcHl0aG9uJywgJy1waCcsICc3LjAnLCAnLXRuJywgJzgnLCAnLW1hJywgJzIwMCcsICctbWV0YWxfYmluZGluZycsICctaW1hZScsICc8aW5maWxlLm1hZT4nLCAnLW9tYWUnLCAnPG91dGZpbGUubWFlPic=

> <r_lp_tautomer_probability>
1

> <r_epik_Ionization_Penalty>
1.92915e-05

> <r_epik_Ionization_Penalty_Charging>
0

> <r_epik_Ionization_Penalty_Neutral>
1.92915e-05

> <r_epik_State_Penalty>
-0

> <r_epik_Charging_Adjusted_Penalty>
0

> <i_epik_Tot_Q>
0

> <i_epik_Tot_abs_Q>
0

> <r_epik_Metal_State_Penalty>
-0

> <b_epik_Metal_Only>
0

> <s_lp_Force_Field>
OPLS_2005

> <r_lp_Energy>
21.8338

> <b_lp_Chiralities_Consistent>
1

> <s_lp_Variant>
AV-unprocessed.smi:2114-4

> <Gold.Version>
5.8.1

> <Gold.Id.Protein>
6NUR|6NUR_protein|mol2

> <Gold.PLP.Fitness>
40.4521

> <Gold.PLP.PLP>
-41.6858

> <Gold.PLP.part.hbond>
0.0000

> <Gold.PLP.part.metal>
0.0000

> <Gold.PLP.part.buried>
-5.8752

> <Gold.PLP.part.nonpolar>
-35.0603

> <Gold.PLP.part.repulsive>
0.2615

> <Gold.PLP.ligand.clash>
0.0000

> <Gold.PLP.ligand.torsion>
0.7949

> <Gold.PLP.Chemscore.Hbond>
0.0000

> <Gold.PLP.Chemscore.CHOScore>
0.0000

> <Gold.PLP.Chemscore.Metal>
0.0000

> <Gold.PLP.Chemscore.Internal.Correction>
0.3561

> <Gold.Rescore>
     Score         DG    S(hbond)    S(metal)    S(lipo)     H(rot)  DE(clash)    DE(int)     intcor
     14.42     -15.63       0.00        0.00     120.05       1.52       0.35       0.86       ----

> <Gold.Chemscore.Fitness>
14.4197

> <Gold.Chemscore.DG>
-15.6279

> <Gold.Chemscore.ZeroCoef>
-5.4800

> <Gold.Chemscore.Hbond>
0.0000

> <Gold.Chemscore.Metal>
0.0000

> <Gold.Chemscore.Lipo>
120.0501

> <Gold.Chemscore.Internal_Hbond>
0.0000

> <Gold.Chemscore.DEClash>
0.3473

> <Gold.Chemscore.DEInternal>
0.8608

> <Gold.Chemscore.Rot>
1.5226

> <Gold.Chemscore.Internal.Correction>
   9.000000E+99

> <Gold.Chemscore.Hbond.Weighted>
-0.0000

> <Gold.Chemscore.Metal.Weighted>
-0.0000

> <Gold.Chemscore.Lipo.Weighted>
-14.0459

> <Gold.Chemscore.Internal_Hbond.Weighted>
0.0000

> <Gold.Chemscore.DEClash.Weighted>
0.3473

> <Gold.Chemscore.DEInternal.Weighted>
0.8608

> <Gold.Chemscore.Rot.Weighted>
3.8980

> <Gold.Chemscore.Internal.Correction.Weighted>
   9.000000E+99

> <Gold.Protein.RotatedTorsions>
[ 6907 6896 6895 6894 ] final -165.56 input  -60.11 | X-H torsion
[ 7974 7965 7964 7962 ] final  -53.17 input  175.53 | X-H torsion
[ 8008 7997 7996 7995 ] final -167.95 input   59.86 | X-H torsion
[ 10167 10162 10161 10158 ] final   62.49 input  -65.29 | X-H torsion
[ 10718 10713 10712 10709 ] final   77.95 input   66.30 | X-H torsion
[ 10763 10752 10751 10750 ] final  -95.74 input  -60.55 | X-H torsion
[ 11005 11000 10999 10996 ] final  179.61 input  -57.11 | X-H torsion

> <Gold.Protein.ActiveResidues>
 VAL166  LYS551  ARG553  GLY616  TRP617  ASP618  TYR619  PRO620  LYS621  CYS622 
 ASP623  PHE694  ASN695  SER759  ASP760  ASP761  ALA762  ILE779  LEU786  VAL792 
 PHE793  MET794  SER795  GLU796  ALA797  LYS798  CYS799  TRP800  GLU811  SER814 

> <Gold.Protein.RotatedAtoms>
  151.4296  133.3674  159.2766 H   0  0  0  0  0  0  0  0  0  0  0  0  # atno 6907 bound_to 6896
  150.9234  134.8653  159.7515 H   0  0  0  0  0  0  0  0  0  0  0  0  # atno 6908 bound_to 6896
  152.4993  134.4236  159.9540 H   0  0  0  0  0  0  0  0  0  0  0  0  # atno 6909 bound_to 6896
  145.8998  140.8003  142.9749 H   0  0  0  0  0  0  0  0  0  0  0  0  # atno 7974 bound_to 7965
  155.8847  140.1015  157.1461 H   0  0  0  0  0  0  0  0  0  0  0  0  # atno 8008 bound_to 7997
  154.4008  140.1322  156.4304 H   0  0  0  0  0  0  0  0  0  0  0  0  # atno 8009 bound_to 7997
  155.7602  140.3463  155.5197 H   0  0  0  0  0  0  0  0  0  0  0  0  # atno 8010 bound_to 7997
  140.1433  144.4532  150.6799 H   0  0  0  0  0  0  0  0  0  0  0  0  # atno 10167 bound_to 10162
  157.6728  130.9845  150.1715 H   0  0  0  0  0  0  0  0  0  0  0  0  # atno 10718 bound_to 10713
  154.7176  135.5109  153.8762 H   0  0  0  0  0  0  0  0  0  0  0  0  # atno 10763 bound_to 10752
  153.0834  135.6638  154.0007 H   0  0  0  0  0  0  0  0  0  0  0  0  # atno 10764 bound_to 10752
  153.9837  135.3026  155.3397 H   0  0  0  0  0  0  0  0  0  0  0  0  # atno 10765 bound_to 10752
  140.4080  134.6717  157.4598 H   0  0  0  0  0  0  0  0  0  0  0  0  # atno 11005 bound_to 11000
  144.6735  140.1659  143.7418 LP  0  0  0  0  0  0  0  0  0  0  0  0  # atno 17320 bound_to 7965
  145.8805  139.2320  143.1608 LP  0  0  0  0  0  0  0  0  0  0  0  0  # atno 17321 bound_to 7965
  140.6747  143.2300  151.5537 LP  0  0  0  0  0  0  0  0  0  0  0  0  # atno 17342 bound_to 10162
  139.5461  144.2517  152.1444 LP  0  0  0  0  0  0  0  0  0  0  0  0  # atno 17343 bound_to 10162
  156.2468  130.3696  149.8276 LP  0  0  0  0  0  0  0  0  0  0  0  0  # atno 17370 bound_to 10713
  156.6060  130.8567  151.3443 LP  0  0  0  0  0  0  0  0  0  0  0  0  # atno 17371 bound_to 10713
  140.0288  134.6437  155.9135 LP  0  0  0  0  0  0  0  0  0  0  0  0  # atno 17394 bound_to 11000
  141.1832  133.6550  156.5106 LP  0  0  0  0  0  0  0  0  0  0  0  0  # atno 17395 bound_to 11000

$$$$
