AV-unprocessed.smi:1295|AV-procd|sdf|5411|dock9
  -GOLD-   22720 4573D 1   1.00000     0.00000
 Structure written by MMmdl.
 42 43  0  0  0  0  0  0  0  0  2 V2000
  150.7993  135.3347  154.3426 C   0  0  0  0  0  0  0  0  0  0  0  0
  150.7092  136.5405  155.2530 C   0  0  0  0  0  0  0  0  0  0  0  0
  150.1706  136.4148  156.4056 N   0  0  0  0  0  0  0  0  0  0  0  0
  150.0831  137.5314  157.2538 C   0  0  0  0  0  0  0  0  0  0  0  0
  149.4491  137.2861  158.6115 C   0  0  0  0  0  0  0  0  0  0  0  0
  150.5555  138.7506  156.8662 C   0  0  0  0  0  0  0  0  0  0  0  0
  150.5030  139.9917  157.7602 C   0  0  0  0  0  0  0  0  0  0  0  0
  151.8582  140.5687  158.1778 C   0  0  0  0  0  0  0  0  0  0  0  0
  152.8986  139.9987  157.8503 O   0  0  0  0  0  0  0  0  0  0  0  0
  151.8261  141.6997  158.8979 N   0  0  0  0  0  0  0  0  0  0  0  0
  152.9745  142.4807  159.3496 C   0  0  2  0  0  0  0  0  0  0  0  0
  153.7522  141.7119  160.4375 C   0  0  0  0  0  0  0  0  0  0  0  0
  152.9586  141.6071  161.7516 C   0  0  0  0  0  0  0  0  0  0  0  0
  152.5262  142.9932  162.2521 C   0  0  0  0  0  0  0  0  0  0  0  0
  151.7289  143.7527  161.1796 C   0  0  0  0  0  0  0  0  0  0  0  0
  152.5206  143.8711  159.8600 C   0  0  2  0  0  0  0  0  0  0  0  0
  151.7343  144.6654  158.8014 C   0  0  0  0  0  0  0  0  0  0  0  0
  151.1754  138.8515  155.5328 C   0  0  0  0  0  0  0  0  0  0  0  0
  151.6423  139.9220  155.1453 O   0  0  0  0  0  0  0  0  0  0  0  0
  151.2228  137.7229  154.7697 N   0  5  0  0  0  0  0  0  0  0  0  0
  150.5038  134.4243  154.8658 H   0  0  0  0  0  0  0  0  0  0  0  0
  151.8205  135.2041  153.9831 H   0  0  0  0  0  0  0  0  0  0  0  0
  150.1426  135.4633  153.4816 H   0  0  0  0  0  0  0  0  0  0  0  0
  148.5376  137.8741  158.7197 H   0  0  0  0  0  0  0  0  0  0  0  0
  150.1377  137.5603  159.4110 H   0  0  0  0  0  0  0  0  0  0  0  0
  149.1883  136.2353  158.7418 H   0  0  0  0  0  0  0  0  0  0  0  0
  149.9225  140.7845  157.2876 H   0  0  0  0  0  0  0  0  0  0  0  0
  149.9468  139.7436  158.6644 H   0  0  0  0  0  0  0  0  0  0  0  0
  150.9159  142.0765  159.1223 H   0  0  0  0  0  0  0  0  0  0  0  0
  153.6459  142.6413  158.5042 H   0  0  0  0  0  0  0  0  0  0  0  0
  154.0166  140.7159  160.0804 H   0  0  0  0  0  0  0  0  0  0  0  0
  154.6956  142.2234  160.6314 H   0  0  0  0  0  0  0  0  0  0  0  0
  152.0781  140.9807  161.6030 H   0  0  0  0  0  0  0  0  0  0  0  0
  153.5634  141.1108  162.5109 H   0  0  0  0  0  0  0  0  0  0  0  0
  151.9264  142.8905  163.1568 H   0  0  0  0  0  0  0  0  0  0  0  0
  153.4080  143.5722  162.5292 H   0  0  0  0  0  0  0  0  0  0  0  0
  150.7798  143.2442  161.0020 H   0  0  0  0  0  0  0  0  0  0  0  0
  151.4769  144.7461  161.5517 H   0  0  0  0  0  0  0  0  0  0  0  0
  153.4241  144.4435  160.0756 H   0  0  0  0  0  0  0  0  0  0  0  0
  150.7798  144.1930  158.5657 H   0  0  0  0  0  0  0  0  0  0  0  0
  152.3013  144.7500  157.8741 H   0  0  0  0  0  0  0  0  0  0  0  0
  151.5211  145.6758  159.1508 H   0  0  0  0  0  0  0  0  0  0  0  0
  1  2  1  0  0  0  0
  1 21  1  0  0  0  0
  1 22  1  0  0  0  0
  1 23  1  0  0  0  0
  2 20  1  0  0  0  0
  2  3  2  0  0  0  0
  3  4  1  0  0  0  0
  4  5  1  0  0  0  0
  4  6  2  0  0  0  0
  5 24  1  0  0  0  0
  5 25  1  0  0  0  0
  5 26  1  0  0  0  0
  6  7  1  0  0  0  0
  6 18  1  0  0  0  0
  7  8  1  0  0  0  0
  7 27  1  0  0  0  0
  7 28  1  0  0  0  0
  8  9  2  0  0  0  0
  8 10  1  0  0  0  0
 10 11  1  0  0  0  0
 10 29  1  0  0  0  0
 11 16  1  0  0  0  0
 11 12  1  0  0  0  0
 11 30  1  0  0  0  0
 12 13  1  0  0  0  0
 12 31  1  0  0  0  0
 12 32  1  0  0  0  0
 13 14  1  0  0  0  0
 13 33  1  0  0  0  0
 13 34  1  0  0  0  0
 14 15  1  0  0  0  0
 14 35  1  0  0  0  0
 14 36  1  0  0  0  0
 15 16  1  0  0  0  0
 15 37  1  0  0  0  0
 15 38  1  0  0  0  0
 16 17  1  0  0  0  0
 16 39  1  0  0  0  0
 17 40  1  0  0  0  0
 17 41  1  0  0  0  0
 17 42  1  0  0  0  0
 18 19  2  0  0  0  0
 18 20  1  0  0  0  0
M  CHG  1  20  -1
M  END
> <s_m_source_file>
AV-unprocessed.smi

> <i_m_source_file_index>
1295

> <i_lp_mmshare_version>
43012

> <i_f3d_flags>
0

> <s_epik_input>
W0NIM11jMW5jKFtDSDNdKWMoYyg9TylbbkhdMSlbQ0gyXUMoPU8pW05IXVtDQEBIXTJbQ0gyXVtDSDJdW0NIMl1bQ0gyXVtDQEhdMltDSDNd

> <s_epik_cmdline>
J2VwaWtfcHl0aG9uJywgJy1waCcsICc3LjAnLCAnLXRuJywgJzgnLCAnLW1hJywgJzIwMCcsICctbWV0YWxfYmluZGluZycsICctaW1hZScsICc8aW5maWxlLm1hZT4nLCAnLW9tYWUnLCAnPG91dGZpbGUubWFlPic=

> <r_lp_tautomer_probability>
0.839158

> <r_epik_Ionization_Penalty>
6.67742

> <r_epik_Ionization_Penalty_Charging>
7.78154e-08

> <r_epik_Ionization_Penalty_Neutral>
6.67742

> <r_epik_State_Penalty>
4.51991

> <r_epik_Charging_Adjusted_Penalty>
4.51991

> <i_epik_Tot_Q>
-1

> <i_epik_Tot_abs_Q>
1

> <r_epik_Metal_State_Penalty>
0.853272

> <b_epik_Metal_Only>
1

> <s_lp_Force_Field>
OPLS_2005

> <r_lp_Energy>
12.2009

> <b_lp_Chiralities_Consistent>
1

> <s_lp_Variant>
AV-unprocessed.smi:1295-11

> <Gold.Version>
5.8.1

> <Gold.Id.Protein>
6NUR|6NUR_protein|mol2

> <Gold.PLP.Fitness>
46.6805

> <Gold.PLP.PLP>
-40.9618

> <Gold.PLP.part.hbond>
-2.0000

> <Gold.PLP.part.metal>
0.0000

> <Gold.PLP.part.buried>
-5.8051

> <Gold.PLP.part.nonpolar>
-32.8369

> <Gold.PLP.part.repulsive>
0.2530

> <Gold.PLP.ligand.clash>
0.0000

> <Gold.PLP.ligand.torsion>
0.1451

> <Gold.PLP.Chemscore.Hbond>
2.0000

> <Gold.PLP.Chemscore.CHOScore>
0.0000

> <Gold.PLP.Chemscore.Metal>
0.0000

> <Gold.Chemscore.Hbonds>
donor molecule, donor type, donor heavy atom, donor atom, acceptor molecule, acceptor atom, score
      P1  H  7989  7998       L1    19  1.00
      P1  H  7997  8008       L1     9  1.00

> <Gold.PLP.Chemscore.Internal.Correction>
0.0089

> <Gold.Rescore>
     Score         DG    S(hbond)    S(metal)    S(lipo)     H(rot)  DE(clash)    DE(int)     intcor
     16.70     -20.15       1.86        0.00     103.78       1.45       0.00       3.44       ----

> <Gold.Chemscore.Fitness>
16.7030

> <Gold.Chemscore.DG>
-20.1465

> <Gold.Chemscore.ZeroCoef>
-5.4800

> <Gold.Chemscore.Hbond>
1.8634

> <Gold.Chemscore.Metal>
0.0000

> <Gold.Chemscore.Lipo>
103.7769

> <Gold.Chemscore.Internal_Hbond>
0.0000

> <Gold.Chemscore.DEClash>
0.0040

> <Gold.Chemscore.DEInternal>
3.4394

> <Gold.Chemscore.Rot>
1.4450

> <Gold.Chemscore.Internal.Correction>
   9.000000E+99

> <Gold.Chemscore.Hbonds>
donor molecule, donor type, donor heavy atom, donor atom, acceptor molecule, acceptor atom, score
      P1  H  7989  7998       L1    19  0.96
      P1  H  7997  8008       L1     9  0.98

> <Gold.Chemscore.Hbond.Weighted>
-6.2238

> <Gold.Chemscore.Metal.Weighted>
-0.0000

> <Gold.Chemscore.Lipo.Weighted>
-12.1419

> <Gold.Chemscore.Internal_Hbond.Weighted>
0.0000

> <Gold.Chemscore.DEClash.Weighted>
0.0040

> <Gold.Chemscore.DEInternal.Weighted>
3.4394

> <Gold.Chemscore.Rot.Weighted>
3.6992

> <Gold.Chemscore.Internal.Correction.Weighted>
   9.000000E+99

> <Gold.Protein.RotatedTorsions>
[ 6907 6896 6895 6894 ] final  -71.56 input  -60.11 | X-H torsion
[ 7974 7965 7964 7962 ] final   19.18 input  175.53 | X-H torsion
[ 8008 7997 7996 7995 ] final  -77.94 input   59.86 | X-H torsion
[ 10167 10162 10161 10158 ] final  -81.76 input  -65.29 | X-H torsion
[ 10718 10713 10712 10709 ] final -121.90 input   66.30 | X-H torsion
[ 10763 10752 10751 10750 ] final   -7.76 input  -60.55 | X-H torsion
[ 11005 11000 10999 10996 ] final -126.43 input  -57.11 | X-H torsion

> <Gold.Protein.ActiveResidues>
 VAL166  LYS551  ARG553  GLY616  TRP617  ASP618  TYR619  PRO620  LYS621  CYS622 
 ASP623  PHE694  ASN695  SER759  ASP760  ASP761  ALA762  ILE779  LEU786  VAL792 
 PHE793  MET794  SER795  GLU796  ALA797  LYS798  CYS799  TRP800  GLU811  SER814 

> <Gold.Protein.RotatedAtoms>
  150.7207  134.5291  159.5690 H   0  0  0  0  0  0  0  0  0  0  0  0  # atno 6907 bound_to 6896
  152.2828  134.7806  160.0402 H   0  0  0  0  0  0  0  0  0  0  0  0  # atno 6908 bound_to 6896
  151.8447  133.3394  159.3691 H   0  0  0  0  0  0  0  0  0  0  0  0  # atno 6909 bound_to 6896
  146.2159  139.8350  142.8652 H   0  0  0  0  0  0  0  0  0  0  0  0  # atno 7974 bound_to 7965
  154.5643  140.0702  156.8867 H   0  0  0  0  0  0  0  0  0  0  0  0  # atno 8008 bound_to 7997
  155.2753  140.3368  155.4244 H   0  0  0  0  0  0  0  0  0  0  0  0  # atno 8009 bound_to 7997
  156.2067  140.1743  156.7769 H   0  0  0  0  0  0  0  0  0  0  0  0  # atno 8010 bound_to 7997
  140.4382  143.2524  151.8663 H   0  0  0  0  0  0  0  0  0  0  0  0  # atno 10167 bound_to 10162
  156.1374  130.6441  150.9718 H   0  0  0  0  0  0  0  0  0  0  0  0  # atno 10718 bound_to 10713
  153.4309  135.7012  153.6231 H   0  0  0  0  0  0  0  0  0  0  0  0  # atno 10763 bound_to 10752
  153.4646  135.3728  155.2357 H   0  0  0  0  0  0  0  0  0  0  0  0  # atno 10764 bound_to 10752
  154.8725  135.4028  154.3693 H   0  0  0  0  0  0  0  0  0  0  0  0  # atno 10765 bound_to 10752
  140.9682  134.0843  157.3898 H   0  0  0  0  0  0  0  0  0  0  0  0  # atno 11005 bound_to 11000
  145.2957  141.0180  143.3637 LP  0  0  0  0  0  0  0  0  0  0  0  0  # atno 17320 bound_to 7965
  144.9043  139.4609  143.6617 LP  0  0  0  0  0  0  0  0  0  0  0  0  # atno 17321 bound_to 7965
  139.4788  144.5258  151.8737 LP  0  0  0  0  0  0  0  0  0  0  0  0  # atno 17342 bound_to 10162
  140.4348  144.2066  150.5889 LP  0  0  0  0  0  0  0  0  0  0  0  0  # atno 17343 bound_to 10162
  157.6545  131.0891  150.7978 LP  0  0  0  0  0  0  0  0  0  0  0  0  # atno 17370 bound_to 10713
  156.8057  130.4935  149.5363 LP  0  0  0  0  0  0  0  0  0  0  0  0  # atno 17371 bound_to 10713
  139.8902  135.0110  156.6723 LP  0  0  0  0  0  0  0  0  0  0  0  0  # atno 17394 bound_to 11000
  140.7368  133.9011  155.8250 LP  0  0  0  0  0  0  0  0  0  0  0  0  # atno 17395 bound_to 11000

$$$$
