AV-unprocessed.smi:1247|AV-procd|sdf|5246|dock3
  -GOLD-   22720 4353D 1   1.00000     0.00000
 Structure written by MMmdl.
 47 48  0  0  0  0  0  0  0  0  2 V2000
  143.7963  131.5413  150.7446 C   0  0  0  0  0  0  0  0  0  0  0  0
  144.8645  132.5063  151.1666 C   0  0  0  0  0  0  0  0  0  0  0  0
  144.8833  133.9220  151.0046 C   0  0  0  0  0  0  0  0  0  0  0  0
  146.0806  134.2741  151.5656 C   0  0  0  0  0  0  0  0  0  0  0  0
  146.6236  135.5130  151.7032 N   0  0  0  0  0  0  0  0  0  0  0  0
  145.9967  136.6936  151.8464 C   0  0  0  0  0  0  0  0  0  0  0  0
  144.7769  136.8614  151.8455 O   0  0  0  0  0  0  0  0  0  0  0  0
  146.8761  137.6969  151.9814 N   0  0  0  0  0  0  0  0  0  0  0  0
  146.5190  139.1008  152.1487 C   0  0  0  0  0  0  0  0  0  0  0  0
  146.8520  139.6001  153.5674 C   0  0  0  0  0  0  0  0  0  0  0  0
  148.3090  139.7973  153.7682 N   0  3  1  0  0  0  0  0  0  0  0  0
  148.6054  140.7743  154.8425 C   0  0  0  0  0  0  0  0  0  0  0  0
  150.1248  140.9951  154.9680 C   0  0  1  0  0  0  0  0  0  0  0  0
  150.4790  141.9433  156.1187 C   0  0  0  0  0  0  0  0  0  0  0  0
  150.7563  139.7434  155.2129 O   0  0  0  0  0  0  0  0  0  0  0  0
  150.5583  138.8136  154.1535 C   0  0  1  0  0  0  0  0  0  0  0  0
  151.3525  137.5439  154.4783 C   0  0  0  0  0  0  0  0  0  0  0  0
  149.0506  138.5341  154.0035 C   0  0  0  0  0  0  0  0  0  0  0  0
  146.7074  133.1361  152.0270 N   0  0  0  0  0  0  0  0  0  0  0  0
  147.9843  132.9747  152.6956 C   0  0  0  0  0  0  0  0  0  0  0  0
  145.9527  132.0459  151.7731 N   0  0  0  0  0  0  0  0  0  0  0  0
  142.9177  132.0653  150.3680 H   0  0  0  0  0  0  0  0  0  0  0  0
  143.4771  130.9175  151.5800 H   0  0  0  0  0  0  0  0  0  0  0  0
  144.1547  130.8823  149.9535 H   0  0  0  0  0  0  0  0  0  0  0  0
  144.1324  134.5529  150.5537 H   0  0  0  0  0  0  0  0  0  0  0  0
  147.6324  135.5429  151.6865 H   0  0  0  0  0  0  0  0  0  0  0  0
  147.8608  137.4733  151.9717 H   0  0  0  0  0  0  0  0  0  0  0  0
  147.0254  139.6934  151.3862 H   0  0  0  0  0  0  0  0  0  0  0  0
  145.4500  139.2031  151.9606 H   0  0  0  0  0  0  0  0  0  0  0  0
  146.3374  140.5502  153.7194 H   0  0  0  0  0  0  0  0  0  0  0  0
  146.4668  138.9174  154.3266 H   0  0  0  0  0  0  0  0  0  0  0  0
  148.1142  141.7232  154.6228 H   0  0  0  0  0  0  0  0  0  0  0  0
  148.1959  140.4119  155.7871 H   0  0  0  0  0  0  0  0  0  0  0  0
  150.5136  141.4180  154.0396 H   0  0  0  0  0  0  0  0  0  0  0  0
  150.0336  142.9271  155.9686 H   0  0  0  0  0  0  0  0  0  0  0  0
  151.5585  142.0765  156.1952 H   0  0  0  0  0  0  0  0  0  0  0  0
  150.1233  141.5565  157.0741 H   0  0  0  0  0  0  0  0  0  0  0  0
  150.9476  139.2378  153.2260 H   0  0  0  0  0  0  0  0  0  0  0  0
  151.2415  136.7991  153.6898 H   0  0  0  0  0  0  0  0  0  0  0  0
  151.0154  137.0950  155.4133 H   0  0  0  0  0  0  0  0  0  0  0  0
  152.4155  137.7646  154.5794 H   0  0  0  0  0  0  0  0  0  0  0  0
  148.6672  138.0491  154.9030 H   0  0  0  0  0  0  0  0  0  0  0  0
  148.8927  137.8419  153.1772 H   0  0  0  0  0  0  0  0  0  0  0  0
  148.4162  133.9444  152.9428 H   0  0  0  0  0  0  0  0  0  0  0  0
  148.6734  132.4370  152.0436 H   0  0  0  0  0  0  0  0  0  0  0  0
  147.8491  132.4069  153.6167 H   0  0  0  0  0  0  0  0  0  0  0  0
  148.6682  140.1989  152.9139 H   0  0  0  0  0  0  0  0  0  0  0  0
  1  2  1  0  0  0  0
  1 22  1  0  0  0  0
  1 23  1  0  0  0  0
  1 24  1  0  0  0  0
  2 21  2  0  0  0  0
  2  3  1  0  0  0  0
  3  4  2  0  0  0  0
  3 25  1  0  0  0  0
  4  5  1  0  0  0  0
  4 19  1  0  0  0  0
  5  6  1  0  0  0  0
  5 26  1  0  0  0  0
  6  7  2  0  0  0  0
  6  8  1  0  0  0  0
  8  9  1  0  0  0  0
  8 27  1  0  0  0  0
  9 10  1  0  0  0  0
  9 28  1  0  0  0  0
  9 29  1  0  0  0  0
 10 11  1  0  0  0  0
 10 30  1  0  0  0  0
 10 31  1  0  0  0  0
 11 18  1  0  0  0  0
 11 12  1  0  0  0  0
 11 47  1  0  0  0  0
 12 13  1  0  0  0  0
 12 32  1  0  0  0  0
 12 33  1  0  0  0  0
 13 14  1  0  0  0  0
 13 15  1  0  0  0  0
 13 34  1  0  0  0  0
 14 35  1  0  0  0  0
 14 36  1  0  0  0  0
 14 37  1  0  0  0  0
 15 16  1  0  0  0  0
 16 17  1  0  0  0  0
 16 18  1  0  0  0  0
 16 38  1  0  0  0  0
 17 39  1  0  0  0  0
 17 40  1  0  0  0  0
 17 41  1  0  0  0  0
 18 42  1  0  0  0  0
 18 43  1  0  0  0  0
 19 20  1  0  0  0  0
 19 21  1  0  0  0  0
 20 44  1  0  0  0  0
 20 45  1  0  0  0  0
 20 46  1  0  0  0  0
M  CHG  1  11   1
M  END
> <s_m_source_file>
AV-unprocessed.smi

> <i_m_source_file_index>
1247

> <i_lp_mmshare_version>
43012

> <i_f3d_flags>
0

> <s_epik_input>
W0NIM11jMVtjSF1jKG4objEpW0NIM10pW05IXUMoPU8pW05IXVtDSDJdW0NIMl1OMltDSDJdW0NAQEhdKFtDSDNdKU9bQ0BASF0oW0NIM10pW0NIMl0y

> <s_epik_cmdline>
J2VwaWtfcHl0aG9uJywgJy1waCcsICc3LjAnLCAnLXRuJywgJzgnLCAnLW1hJywgJzIwMCcsICctbWV0YWxfYmluZGluZycsICctaW1hZScsICc8aW5maWxlLm1hZT4nLCAnLW9tYWUnLCAnPG91dGZpbGUubWFlPic=

> <r_lp_tautomer_probability>
1

> <r_epik_Ionization_Penalty>
0.663902

> <r_epik_Ionization_Penalty_Charging>
0.663826

> <r_epik_Ionization_Penalty_Neutral>
7.65444e-05

> <r_epik_State_Penalty>
0.683414

> <r_epik_Charging_Adjusted_Penalty>
1.34724

> <i_epik_Tot_Q>
1

> <i_epik_Tot_abs_Q>
1

> <r_epik_Metal_State_Penalty>
0.683419

> <b_epik_Metal_Only>
0

> <s_lp_Force_Field>
OPLS_2005

> <r_lp_Energy>
16.001

> <b_lp_Chiralities_Consistent>
1

> <s_lp_Variant>
AV-unprocessed.smi:1247-4

> <Gold.Version>
5.8.1

> <Gold.Id.Protein>
6NUR|6NUR_protein|mol2

> <Gold.PLP.Fitness>
41.9719

> <Gold.PLP.PLP>
-34.8056

> <Gold.PLP.part.hbond>
-2.5229

> <Gold.PLP.part.metal>
0.0000

> <Gold.PLP.part.buried>
-2.0940

> <Gold.PLP.part.nonpolar>
-34.8165

> <Gold.PLP.part.repulsive>
2.8237

> <Gold.PLP.ligand.clash>
0.0000

> <Gold.PLP.ligand.torsion>
0.4924

> <Gold.PLP.Chemscore.Hbond>
2.7085

> <Gold.PLP.Chemscore.CHOScore>
0.0000

> <Gold.PLP.Chemscore.Metal>
0.0000

> <Gold.Chemscore.Hbonds>
donor molecule, donor type, donor heavy atom, donor atom, acceptor molecule, acceptor atom, score
      L1  H     5    26       P1  7948  0.81
      L1  H     8    27       P1  7948  0.90
      L1  H    11    47       P1  7957  1.00

> <Gold.PLP.Chemscore.Internal.Correction>
0.0257

> <Gold.Rescore>
     Score         DG    S(hbond)    S(metal)    S(lipo)     H(rot)  DE(clash)    DE(int)     intcor
     18.31     -20.56       2.57        0.00      88.69       1.52       1.64       0.61       ----

> <Gold.Chemscore.Fitness>
18.3081

> <Gold.Chemscore.DG>
-20.5599

> <Gold.Chemscore.ZeroCoef>
-5.4800

> <Gold.Chemscore.Hbond>
2.5749

> <Gold.Chemscore.Metal>
0.0000

> <Gold.Chemscore.Lipo>
88.6861

> <Gold.Chemscore.Internal_Hbond>
0.0000

> <Gold.Chemscore.DEClash>
1.6423

> <Gold.Chemscore.DEInternal>
0.6095

> <Gold.Chemscore.Rot>
1.5221

> <Gold.Chemscore.Internal.Correction>
   9.000000E+99

> <Gold.Chemscore.Hbonds>
donor molecule, donor type, donor heavy atom, donor atom, acceptor molecule, acceptor atom, score
      L1  H     5    26       P1  7948  0.76
      L1  H     8    27       P1  7948  0.88
      L1  H    11    47       P1  7957  0.93

> <Gold.Chemscore.Hbond.Weighted>
-8.6003

> <Gold.Chemscore.Metal.Weighted>
-0.0000

> <Gold.Chemscore.Lipo.Weighted>
-10.3763

> <Gold.Chemscore.Internal_Hbond.Weighted>
0.0000

> <Gold.Chemscore.DEClash.Weighted>
1.6423

> <Gold.Chemscore.DEInternal.Weighted>
0.6095

> <Gold.Chemscore.Rot.Weighted>
3.8967

> <Gold.Chemscore.Internal.Correction.Weighted>
   9.000000E+99

> <Gold.Protein.RotatedTorsions>
[ 6907 6896 6895 6894 ] final   44.89 input  -60.11 | X-H torsion
[ 7974 7965 7964 7962 ] final -151.74 input  175.53 | X-H torsion
[ 8008 7997 7996 7995 ] final   54.89 input   59.86 | X-H torsion
[ 10167 10162 10161 10158 ] final  141.29 input  -65.29 | X-H torsion
[ 10718 10713 10712 10709 ] final   95.57 input   66.30 | X-H torsion
[ 10763 10752 10751 10750 ] final  -85.41 input  -60.55 | X-H torsion
[ 11005 11000 10999 10996 ] final -132.38 input  -57.11 | X-H torsion

> <Gold.Protein.ActiveResidues>
 VAL166  LYS551  ARG553  GLY616  TRP617  ASP618  TYR619  PRO620  LYS621  CYS622 
 ASP623  PHE694  ASN695  SER759  ASP760  ASP761  ALA762  ILE779  LEU786  VAL792 
 PHE793  MET794  SER795  GLU796  ALA797  LYS798  CYS799  TRP800  GLU811  SER814 

> <Gold.Protein.RotatedAtoms>
  152.2380  134.8256  160.0464 H   0  0  0  0  0  0  0  0  0  0  0  0  # atno 6907 bound_to 6896
  151.8981  133.3526  159.3829 H   0  0  0  0  0  0  0  0  0  0  0  0  # atno 6908 bound_to 6896
  150.7045  134.4782  159.5502 H   0  0  0  0  0  0  0  0  0  0  0  0  # atno 6909 bound_to 6896
  144.7833  140.4757  143.5824 H   0  0  0  0  0  0  0  0  0  0  0  0  # atno 7974 bound_to 7965
  155.4921  140.3472  155.4356 H   0  0  0  0  0  0  0  0  0  0  0  0  # atno 8008 bound_to 7997
  156.0970  140.1425  156.9546 H   0  0  0  0  0  0  0  0  0  0  0  0  # atno 8009 bound_to 7997
  154.4670  140.0914  156.7023 H   0  0  0  0  0  0  0  0  0  0  0  0  # atno 8010 bound_to 7997
  139.5025  144.6181  151.6116 H   0  0  0  0  0  0  0  0  0  0  0  0  # atno 10167 bound_to 10162
  157.6937  131.0550  150.4360 H   0  0  0  0  0  0  0  0  0  0  0  0  # atno 10718 bound_to 10713
  154.6107  135.5486  153.7471 H   0  0  0  0  0  0  0  0  0  0  0  0  # atno 10763 bound_to 10752
  153.0194  135.6389  154.1582 H   0  0  0  0  0  0  0  0  0  0  0  0  # atno 10764 bound_to 10752
  154.1519  135.2902  155.3113 H   0  0  0  0  0  0  0  0  0  0  0  0  # atno 10765 bound_to 10752
  140.9175  134.1488  157.4341 H   0  0  0  0  0  0  0  0  0  0  0  0  # atno 11005 bound_to 11000
  145.5991  139.1502  143.3139 LP  0  0  0  0  0  0  0  0  0  0  0  0  # atno 17320 bound_to 7965
  146.2052  140.6113  142.9084 LP  0  0  0  0  0  0  0  0  0  0  0  0  # atno 17321 bound_to 7965
  140.5875  143.9838  150.6304 LP  0  0  0  0  0  0  0  0  0  0  0  0  # atno 17342 bound_to 10162
  140.3008  143.3262  152.0974 LP  0  0  0  0  0  0  0  0  0  0  0  0  # atno 17343 bound_to 10162
  156.4722  130.4055  149.6511 LP  0  0  0  0  0  0  0  0  0  0  0  0  # atno 17370 bound_to 10713
  156.3587  130.7470  151.2439 LP  0  0  0  0  0  0  0  0  0  0  0  0  # atno 17371 bound_to 10713
  139.8769  134.9959  156.5767 LP  0  0  0  0  0  0  0  0  0  0  0  0  # atno 17394 bound_to 11000
  140.8031  133.8489  155.8744 LP  0  0  0  0  0  0  0  0  0  0  0  0  # atno 17395 bound_to 11000

$$$$
