AV-unprocessed.smi:980|AV-procd|sdf|4311|dock2
  -GOLD-   22720 2213D 1   1.00000     0.00000
 Structure written by MMmdl.
 44 45  0  0  0  0  0  0  0  0  1 V2000
  145.6845  132.4932  149.5053 C   0  0  0  0  0  0  0  0  0  0  0  0
  144.9745  133.0813  150.7435 C   0  0  0  0  0  0  0  0  0  0  0  0
  144.3706  134.4421  150.3437 C   0  0  0  0  0  0  0  0  0  0  0  0
  143.8505  132.1095  151.1532 C   0  0  0  0  0  0  0  0  0  0  0  0
  145.9436  133.2638  151.8949 C   0  0  0  0  0  0  0  0  0  0  0  0
  147.3113  133.1069  151.8876 C   0  0  0  0  0  0  0  0  0  0  0  0
  148.0238  133.4276  153.4446 S   0  0  0  0  0  0  0  0  0  0  0  0
  146.4173  133.7544  154.0757 C   0  0  0  0  0  0  0  0  0  0  0  0
  146.1587  134.1789  155.4821 C   0  0  0  0  0  0  0  0  0  0  0  0
  147.4273  134.1467  156.3434 C   0  0  0  0  0  0  0  0  0  0  0  0
  147.1077  134.4035  157.7406 N   0  0  0  0  0  0  0  0  0  0  0  0
  148.0148  134.4566  158.7264 C   0  0  0  0  0  0  0  0  0  0  0  0
  149.2176  134.2658  158.5444 O   0  0  0  0  0  0  0  0  0  0  0  0
  147.4850  134.7776  160.1303 C   0  0  2  0  0  0  0  0  0  0  0  0
  148.1171  136.0779  160.6779 C   0  0  0  0  0  0  0  0  0  0  0  0
  147.8132  136.2869  162.1509 C   0  0  0  0  0  0  0  0  0  0  0  0
  147.3558  135.3132  162.9566 C   0  0  0  0  0  0  0  0  0  0  0  0
  147.0958  133.8928  162.4869 C   0  0  0  0  0  0  0  0  0  0  0  0
  147.7233  133.6096  161.1086 C   0  0  0  0  0  0  0  0  0  0  0  0
  145.4582  133.6392  153.1548 N   0  0  0  0  0  0  0  0  0  0  0  0
  144.9891  132.3575  148.6762 H   0  0  0  0  0  0  0  0  0  0  0  0
  146.1239  131.5184  149.7207 H   0  0  0  0  0  0  0  0  0  0  0  0
  146.4829  133.1474  149.1530 H   0  0  0  0  0  0  0  0  0  0  0  0
  145.1475  135.1491  150.0506 H   0  0  0  0  0  0  0  0  0  0  0  0
  143.8110  134.8914  151.1647 H   0  0  0  0  0  0  0  0  0  0  0  0
  143.6842  134.3403  149.5026 H   0  0  0  0  0  0  0  0  0  0  0  0
  143.1493  131.9449  150.3346 H   0  0  0  0  0  0  0  0  0  0  0  0
  143.2770  132.4914  151.9986 H   0  0  0  0  0  0  0  0  0  0  0  0
  144.2532  131.1379  151.4418 H   0  0  0  0  0  0  0  0  0  0  0  0
  147.9483  132.8258  151.0623 H   0  0  0  0  0  0  0  0  0  0  0  0
  145.7362  135.1846  155.4708 H   0  0  0  0  0  0  0  0  0  0  0  0
  145.3978  133.5239  155.9080 H   0  0  0  0  0  0  0  0  0  0  0  0
  147.9172  133.1755  156.2555 H   0  0  0  0  0  0  0  0  0  0  0  0
  148.1349  134.8992  155.9912 H   0  0  0  0  0  0  0  0  0  0  0  0
  146.1384  134.5677  157.9710 H   0  0  0  0  0  0  0  0  0  0  0  0
  146.4064  134.9310  160.0595 H   0  0  0  0  0  0  0  0  0  0  0  0
  149.2014  136.0746  160.5567 H   0  0  0  0  0  0  0  0  0  0  0  0
  147.7383  136.9347  160.1195 H   0  0  0  0  0  0  0  0  0  0  0  0
  147.9944  137.2741  162.5504 H   0  0  0  0  0  0  0  0  0  0  0  0
  147.1462  135.5296  163.9939 H   0  0  0  0  0  0  0  0  0  0  0  0
  147.4878  133.1922  163.2243 H   0  0  0  0  0  0  0  0  0  0  0  0
  146.0166  133.7426  162.4478 H   0  0  0  0  0  0  0  0  0  0  0  0
  147.3204  132.6790  160.7070 H   0  0  0  0  0  0  0  0  0  0  0  0
  148.7960  133.4514  161.2326 H   0  0  0  0  0  0  0  0  0  0  0  0
  1  2  1  0  0  0  0
  1 21  1  0  0  0  0
  1 22  1  0  0  0  0
  1 23  1  0  0  0  0
  2  3  1  0  0  0  0
  2  4  1  0  0  0  0
  2  5  1  0  0  0  0
  3 24  1  0  0  0  0
  3 25  1  0  0  0  0
  3 26  1  0  0  0  0
  4 27  1  0  0  0  0
  4 28  1  0  0  0  0
  4 29  1  0  0  0  0
  5 20  1  0  0  0  0
  5  6  2  0  0  0  0
  6  7  1  0  0  0  0
  6 30  1  0  0  0  0
  7  8  1  0  0  0  0
  8  9  1  0  0  0  0
  8 20  2  0  0  0  0
  9 10  1  0  0  0  0
  9 31  1  0  0  0  0
  9 32  1  0  0  0  0
 10 11  1  0  0  0  0
 10 33  1  0  0  0  0
 10 34  1  0  0  0  0
 11 12  1  0  0  0  0
 11 35  1  0  0  0  0
 12 13  2  0  0  0  0
 12 14  1  0  0  0  0
 14 19  1  0  0  0  0
 14 15  1  0  0  0  0
 14 36  1  0  0  0  0
 15 16  1  0  0  0  0
 15 37  1  0  0  0  0
 15 38  1  0  0  0  0
 16 17  2  0  0  0  0
 16 39  1  0  0  0  0
 17 18  1  0  0  0  0
 17 40  1  0  0  0  0
 18 19  1  0  0  0  0
 18 41  1  0  0  0  0
 18 42  1  0  0  0  0
 19 43  1  0  0  0  0
 19 44  1  0  0  0  0
M  END
> <s_m_source_file>
AV-unprocessed.smi

> <i_m_source_file_index>
980

> <i_lp_mmshare_version>
43012

> <i_f3d_flags>
0

> <s_epik_input>
W0NIM11DKFtDSDNdKShbQ0gzXSljMVtjSF1zYyhuMSlbQ0gyXVtDSDJdW05IXUMoPU8pW0NAQEhdMltDSDJdW0NIXT1bQ0hdW0NIMl1bQ0gyXTI=

> <s_epik_cmdline>
J2VwaWtfcHl0aG9uJywgJy1waCcsICc3LjAnLCAnLXRuJywgJzgnLCAnLW1hJywgJzIwMCcsICctbWV0YWxfYmluZGluZycsICctaW1hZScsICc8aW5maWxlLm1hZT4nLCAnLW9tYWUnLCAnPG91dGZpbGUubWFlPic=

> <r_epik_Ionization_Penalty>
0.000809238

> <r_epik_Ionization_Penalty_Charging>
0

> <r_epik_Ionization_Penalty_Neutral>
0.000809238

> <r_epik_State_Penalty>
0.000520038

> <r_epik_Charging_Adjusted_Penalty>
0.000520038

> <i_epik_Tot_Q>
0

> <i_epik_Tot_abs_Q>
0

> <r_epik_Metal_State_Penalty>
-0

> <b_epik_Metal_Only>
0

> <s_lp_Force_Field>
OPLS_2005

> <r_lp_Energy>
0.0985756

> <b_lp_Chiralities_Consistent>
1

> <s_lp_Variant>
AV-unprocessed.smi:980-1

> <Gold.Version>
5.8.1

> <Gold.Id.Protein>
6NUR|6NUR_protein|mol2

> <Gold.PLP.Fitness>
43.6391

> <Gold.PLP.PLP>
-37.9983

> <Gold.PLP.part.hbond>
-1.0000

> <Gold.PLP.part.metal>
0.0000

> <Gold.PLP.part.buried>
-2.3556

> <Gold.PLP.part.nonpolar>
-34.2701

> <Gold.PLP.part.repulsive>
0.0973

> <Gold.PLP.ligand.clash>
0.0000

> <Gold.PLP.ligand.torsion>
0.2125

> <Gold.PLP.Chemscore.Hbond>
1.0000

> <Gold.PLP.Chemscore.CHOScore>
1.0000

> <Gold.PLP.Chemscore.Metal>
0.0000

> <Gold.Chemscore.Hbonds>
donor molecule, donor type, donor heavy atom, donor atom, acceptor molecule, acceptor atom, score
      P1  H  6896  6907       L1    13  1.00
      L1  C     6    30       P1 10747  1.00

> <Gold.PLP.Chemscore.Internal.Correction>
0.0658

> <Gold.Rescore>
     Score         DG    S(hbond)    S(metal)    S(lipo)     H(rot)  DE(clash)    DE(int)     intcor
     17.26     -17.38       1.00        0.00     103.99       1.41       0.02       0.09       ----

> <Gold.Chemscore.Fitness>
17.2603

> <Gold.Chemscore.DG>
-17.3780

> <Gold.Chemscore.ZeroCoef>
-5.4800

> <Gold.Chemscore.Hbond>
0.9999

> <Gold.Chemscore.Metal>
0.0000

> <Gold.Chemscore.Lipo>
103.9932

> <Gold.Chemscore.Internal_Hbond>
0.0000

> <Gold.Chemscore.DEClash>
0.0234

> <Gold.Chemscore.DEInternal>
0.0943

> <Gold.Chemscore.Rot>
1.4097

> <Gold.Chemscore.Internal.Correction>
   9.000000E+99

> <Gold.Chemscore.Hbonds>
donor molecule, donor type, donor heavy atom, donor atom, acceptor molecule, acceptor atom, score
      P1  H  6896  6907       L1    13  1.00

> <Gold.Chemscore.Hbond.Weighted>
-3.3395

> <Gold.Chemscore.Metal.Weighted>
-0.0000

> <Gold.Chemscore.Lipo.Weighted>
-12.1672

> <Gold.Chemscore.Internal_Hbond.Weighted>
0.0000

> <Gold.Chemscore.DEClash.Weighted>
0.0234

> <Gold.Chemscore.DEInternal.Weighted>
0.0943

> <Gold.Chemscore.Rot.Weighted>
3.6087

> <Gold.Chemscore.Internal.Correction.Weighted>
   9.000000E+99

> <Gold.Protein.RotatedTorsions>
[ 6907 6896 6895 6894 ] final -100.72 input  -60.11 | X-H torsion
[ 7974 7965 7964 7962 ] final -132.23 input  175.53 | X-H torsion
[ 8008 7997 7996 7995 ] final   10.18 input   59.86 | X-H torsion
[ 10167 10162 10161 10158 ] final -177.23 input  -65.29 | X-H torsion
[ 10718 10713 10712 10709 ] final -159.08 input   66.30 | X-H torsion
[ 10763 10752 10751 10750 ] final -167.50 input  -60.55 | X-H torsion
[ 11005 11000 10999 10996 ] final  139.59 input  -57.11 | X-H torsion

> <Gold.Protein.ActiveResidues>
 VAL166  LYS551  ARG553  GLY616  TRP617  ASP618  TYR619  PRO620  LYS621  CYS622 
 ASP623  PHE694  ASN695  SER759  ASP760  ASP761  ALA762  ILE779  LEU786  VAL792 
 PHE793  MET794  SER795  GLU796  ALA797  LYS798  CYS799  TRP800  GLU811  SER814 

> <Gold.Protein.RotatedAtoms>
  150.7127  134.0844  159.3908 H   0  0  0  0  0  0  0  0  0  0  0  0  # atno 6907 bound_to 6896
  151.8828  135.0444  160.0500 H   0  0  0  0  0  0  0  0  0  0  0  0  # atno 6908 bound_to 6896
  152.2554  133.5215  159.5386 H   0  0  0  0  0  0  0  0  0  0  0  0  # atno 6909 bound_to 6896
  144.9305  140.7123  143.4909 H   0  0  0  0  0  0  0  0  0  0  0  0  # atno 7974 bound_to 7965
  154.7899  140.2834  155.5999 H   0  0  0  0  0  0  0  0  0  0  0  0  # atno 8008 bound_to 7997
  156.2963  140.2606  156.2673 H   0  0  0  0  0  0  0  0  0  0  0  0  # atno 8009 bound_to 7997
  154.9682  140.0376  157.2212 H   0  0  0  0  0  0  0  0  0  0  0  0  # atno 8010 bound_to 7997
  139.5490  144.2159  152.1042 H   0  0  0  0  0  0  0  0  0  0  0  0  # atno 10167 bound_to 10162
  156.5630  130.8655  151.2815 H   0  0  0  0  0  0  0  0  0  0  0  0  # atno 10718 bound_to 10713
  154.6725  135.2941  154.9722 H   0  0  0  0  0  0  0  0  0  0  0  0  # atno 10763 bound_to 10752
  154.0744  135.6613  153.4833 H   0  0  0  0  0  0  0  0  0  0  0  0  # atno 10764 bound_to 10752
  153.0496  135.5182  154.7728 H   0  0  0  0  0  0  0  0  0  0  0  0  # atno 10765 bound_to 10752
  140.0266  134.9372  157.0580 H   0  0  0  0  0  0  0  0  0  0  0  0  # atno 11005 bound_to 11000
  145.3149  139.1806  143.4619 LP  0  0  0  0  0  0  0  0  0  0  0  0  # atno 17320 bound_to 7965
  146.3245  140.3159  142.8630 LP  0  0  0  0  0  0  0  0  0  0  0  0  # atno 17321 bound_to 7965
  140.1651  144.4989  150.6611 LP  0  0  0  0  0  0  0  0  0  0  0  0  # atno 17342 bound_to 10162
  140.6747  143.2300  151.5537 LP  0  0  0  0  0  0  0  0  0  0  0  0  # atno 17343 bound_to 10162
  157.7364  130.9779  150.2136 LP  0  0  0  0  0  0  0  0  0  0  0  0  # atno 17370 bound_to 10713
  156.2782  130.3730  149.7962 LP  0  0  0  0  0  0  0  0  0  0  0  0  # atno 17371 bound_to 10713
  140.4297  134.1794  155.7167 LP  0  0  0  0  0  0  0  0  0  0  0  0  # atno 17394 bound_to 11000
  141.1806  133.8422  157.1271 LP  0  0  0  0  0  0  0  0  0  0  0  0  # atno 17395 bound_to 11000

$$$$
