AV-unprocessed.smi:3337|AV-procd|sdf|12861|dock5
  -GOLD-   2272019253D 1   1.00000     0.00000
 Structure written by MMmdl.
 46 47  0  0  0  0  0  0  0  0  2 V2000
  153.3950  142.5880  162.5206 C   0  0  0  0  0  0  0  0  0  0  0  0
  152.9197  143.0197  161.1261 C   0  0  2  0  0  0  0  0  0  0  0  0
  151.7706  144.0396  161.2177 C   0  0  0  0  0  0  0  0  0  0  0  0
  151.2452  144.4318  159.8247 C   0  0  1  0  0  0  0  0  0  0  0  0
  152.1996  145.3704  159.0657 C   0  0  0  0  0  0  0  0  0  0  0  0
  150.8905  143.1742  159.0066 C   0  0  0  0  0  0  0  0  0  0  0  0
  152.0329  142.2266  158.9253 N   0  3  2  0  0  0  0  0  0  0  0  0
  151.7444  141.0815  158.0255 C   0  0  0  0  0  0  0  0  0  0  0  0
  151.1917  141.5292  156.6579 C   0  0  0  0  0  0  0  0  0  0  0  0
  150.7082  140.3950  155.8795 N   0  0  0  0  0  0  0  0  0  0  0  0
  151.4825  139.4123  155.3926 C   0  0  0  0  0  0  0  0  0  0  0  0
  152.7012  139.3731  155.5656 O   0  0  0  0  0  0  0  0  0  0  0  0
  150.7704  138.3119  154.5915 C   0  0  2  0  0  0  0  0  0  0  0  0
  149.3835  138.7607  154.0884 C   0  0  0  0  0  0  0  0  0  0  0  0
  150.7056  137.0828  155.3724 N   0  0  0  0  0  0  0  0  0  0  0  0
  150.1080  136.8401  156.5414 C   0  0  0  0  0  0  0  0  0  0  0  0
  150.2110  135.5831  156.9490 N   0  0  0  0  0  0  0  0  0  0  0  0
  150.9251  135.0633  155.9071 C   0  0  0  0  0  0  0  0  0  0  0  0
  151.2365  135.9153  154.9305 N   0  0  0  0  0  0  0  0  0  0  0  0
  152.4909  141.8074  160.2769 C   0  0  0  0  0  0  0  0  0  0  0  0
  152.5976  142.0941  163.0769 H   0  0  0  0  0  0  0  0  0  0  0  0
  153.7259  143.4466  163.1054 H   0  0  0  0  0  0  0  0  0  0  0  0
  154.2330  141.8937  162.4535 H   0  0  0  0  0  0  0  0  0  0  0  0
  153.7665  143.4971  160.6316 H   0  0  0  0  0  0  0  0  0  0  0  0
  150.9529  143.6072  161.7963 H   0  0  0  0  0  0  0  0  0  0  0  0
  152.0916  144.9275  161.7638 H   0  0  0  0  0  0  0  0  0  0  0  0
  150.3221  144.9933  159.9750 H   0  0  0  0  0  0  0  0  0  0  0  0
  153.1492  144.8886  158.8333 H   0  0  0  0  0  0  0  0  0  0  0  0
  152.4156  146.2650  159.6503 H   0  0  0  0  0  0  0  0  0  0  0  0
  151.7579  145.6956  158.1235 H   0  0  0  0  0  0  0  0  0  0  0  0
  150.0386  142.6647  159.4604 H   0  0  0  0  0  0  0  0  0  0  0  0
  150.5774  143.4710  158.0045 H   0  0  0  0  0  0  0  0  0  0  0  0
  152.6441  140.4752  157.9104 H   0  0  0  0  0  0  0  0  0  0  0  0
  150.9982  140.4358  158.4912 H   0  0  0  0  0  0  0  0  0  0  0  0
  150.3602  142.2197  156.8018 H   0  0  0  0  0  0  0  0  0  0  0  0
  151.9419  142.0645  156.0755 H   0  0  0  0  0  0  0  0  0  0  0  0
  149.7167  140.3565  155.6912 H   0  0  0  0  0  0  0  0  0  0  0  0
  151.3765  138.0970  153.7096 H   0  0  0  0  0  0  0  0  0  0  0  0
  149.4626  139.6508  153.4634 H   0  0  0  0  0  0  0  0  0  0  0  0
  148.7024  138.9936  154.9082 H   0  0  0  0  0  0  0  0  0  0  0  0
  148.9189  137.9798  153.4856 H   0  0  0  0  0  0  0  0  0  0  0  0
  149.5838  137.5979  157.1051 H   0  0  0  0  0  0  0  0  0  0  0  0
  151.2186  134.0247  155.8637 H   0  0  0  0  0  0  0  0  0  0  0  0
  153.3331  141.1218  160.1922 H   0  0  0  0  0  0  0  0  0  0  0  0
  151.6906  141.2591  160.7773 H   0  0  0  0  0  0  0  0  0  0  0  0
  152.7925  142.7396  158.5012 H   0  0  0  0  0  0  0  0  0  0  0  0
  1  2  1  0  0  0  0
  1 21  1  0  0  0  0
  1 22  1  0  0  0  0
  1 23  1  0  0  0  0
  2 20  1  0  0  0  0
  2  3  1  0  0  0  0
  2 24  1  0  0  0  0
  3  4  1  0  0  0  0
  3 25  1  0  0  0  0
  3 26  1  0  0  0  0
  4  5  1  0  0  0  0
  4  6  1  0  0  0  0
  4 27  1  0  0  0  0
  5 28  1  0  0  0  0
  5 29  1  0  0  0  0
  5 30  1  0  0  0  0
  6  7  1  0  0  0  0
  6 31  1  0  0  0  0
  6 32  1  0  0  0  0
  7  8  1  0  0  0  0
  7 20  1  0  0  0  0
  7 46  1  0  0  0  0
  8  9  1  0  0  0  0
  8 33  1  0  0  0  0
  8 34  1  0  0  0  0
  9 10  1  0  0  0  0
  9 35  1  0  0  0  0
  9 36  1  0  0  0  0
 10 11  1  0  0  0  0
 10 37  1  0  0  0  0
 11 12  2  0  0  0  0
 11 13  1  0  0  0  0
 13 14  1  0  0  0  0
 13 15  1  0  0  0  0
 13 38  1  0  0  0  0
 14 39  1  0  0  0  0
 14 40  1  0  0  0  0
 14 41  1  0  0  0  0
 15 19  1  0  0  0  0
 15 16  1  0  0  0  0
 16 17  2  0  0  0  0
 16 42  1  0  0  0  0
 17 18  1  0  0  0  0
 18 19  2  0  0  0  0
 18 43  1  0  0  0  0
 20 44  1  0  0  0  0
 20 45  1  0  0  0  0
M  CHG  1   7   1
M  END
> <s_m_source_file>
AV-unprocessed.smi

> <i_m_source_file_index>
3337

> <i_lp_mmshare_version>
43012

> <i_f3d_flags>
0

> <s_epik_input>
W0NIM11bQ0BASF0xW0NIMl1bQ0BASF0oW0NIM10pW0NIMl1OKFtDSDJdMSlbQ0gyXVtDSDJdW05IXUMoPU8pW0NASF0oW0NIM10pbjJbY0hdbltjSF1uMg==

> <s_epik_cmdline>
J2VwaWtfcHl0aG9uJywgJy1waCcsICc3LjAnLCAnLXRuJywgJzgnLCAnLW1hJywgJzIwMCcsICctbWV0YWxfYmluZGluZycsICctaW1hZScsICc8aW5maWxlLm1hZT4nLCAnLW9tYWUnLCAnPG91dGZpbGUubWFlPic=

> <r_lp_tautomer_probability>
1

> <r_epik_Ionization_Penalty>
0.00175613

> <r_epik_Ionization_Penalty_Charging>
0.00174812

> <r_epik_Ionization_Penalty_Neutral>
8.01354e-06

> <r_epik_State_Penalty>
0.00118332

> <r_epik_Charging_Adjusted_Penalty>
0.00293143

> <i_epik_Tot_Q>
1

> <i_epik_Tot_abs_Q>
1

> <r_epik_Metal_State_Penalty>
-0

> <b_epik_Metal_Only>
0

> <s_lp_Force_Field>
OPLS_2005

> <r_lp_Energy>
24.9418

> <b_lp_Chiralities_Consistent>
1

> <s_lp_Variant>
AV-unprocessed.smi:3337-1

> <Gold.Version>
5.8.1

> <Gold.Id.Protein>
6NUR|6NUR_protein|mol2

> <Gold.PLP.Fitness>
48.5211

> <Gold.PLP.PLP>
-43.4603

> <Gold.PLP.part.hbond>
-2.0000

> <Gold.PLP.part.metal>
0.0000

> <Gold.PLP.part.buried>
-6.7806

> <Gold.PLP.part.nonpolar>
-34.3723

> <Gold.PLP.part.repulsive>
0.3196

> <Gold.PLP.ligand.clash>
0.0000

> <Gold.PLP.ligand.torsion>
0.5336

> <Gold.PLP.Chemscore.Hbond>
2.0000

> <Gold.PLP.Chemscore.CHOScore>
0.0000

> <Gold.PLP.Chemscore.Metal>
0.0000

> <Gold.Chemscore.Hbonds>
donor molecule, donor type, donor heavy atom, donor atom, acceptor molecule, acceptor atom, score
      P1  H  7997  8010       L1    12  1.00
      P1  H 10752 10763       L1    19  1.00

> <Gold.PLP.Chemscore.Internal.Correction>
0.1280

> <Gold.Rescore>
     Score         DG    S(hbond)    S(metal)    S(lipo)     H(rot)  DE(clash)    DE(int)     intcor
     17.55     -18.23       1.99        0.00     107.07       2.51       0.04       0.64       ----

> <Gold.Chemscore.Fitness>
17.5549

> <Gold.Chemscore.DG>
-18.2316

> <Gold.Chemscore.ZeroCoef>
-5.4800

> <Gold.Chemscore.Hbond>
1.9934

> <Gold.Chemscore.Metal>
0.0000

> <Gold.Chemscore.Lipo>
107.0668

> <Gold.Chemscore.Internal_Hbond>
0.0000

> <Gold.Chemscore.DEClash>
0.0396

> <Gold.Chemscore.DEInternal>
0.6371

> <Gold.Chemscore.Rot>
2.5129

> <Gold.Chemscore.Internal.Correction>
   9.000000E+99

> <Gold.Chemscore.Hbonds>
donor molecule, donor type, donor heavy atom, donor atom, acceptor molecule, acceptor atom, score
      P1  H  7997  8010       L1    12  1.00
      P1  H 10752 10763       L1    19  0.35

> <Gold.Chemscore.Hbond.Weighted>
-6.6579

> <Gold.Chemscore.Metal.Weighted>
-0.0000

> <Gold.Chemscore.Lipo.Weighted>
-12.5268

> <Gold.Chemscore.Internal_Hbond.Weighted>
0.0000

> <Gold.Chemscore.DEClash.Weighted>
0.0396

> <Gold.Chemscore.DEInternal.Weighted>
0.6371

> <Gold.Chemscore.Rot.Weighted>
6.4331

> <Gold.Chemscore.Internal.Correction.Weighted>
   9.000000E+99

> <Gold.Protein.RotatedTorsions>
[ 6907 6896 6895 6894 ] final  -11.03 input  -60.11 | X-H torsion
[ 7974 7965 7964 7962 ] final -115.32 input  175.53 | X-H torsion
[ 8008 7997 7996 7995 ] final   91.22 input   59.86 | X-H torsion
[ 10167 10162 10161 10158 ] final  -72.59 input  -65.29 | X-H torsion
[ 10718 10713 10712 10709 ] final   73.16 input   66.30 | X-H torsion
[ 10763 10752 10751 10750 ] final   63.82 input  -60.55 | X-H torsion
[ 11005 11000 10999 10996 ] final  120.11 input  -57.11 | X-H torsion

> <Gold.Protein.ActiveResidues>
 VAL166  LYS551  ARG553  GLY616  TRP617  ASP618  TYR619  PRO620  LYS621  CYS622 
 ASP623  PHE694  ASN695  SER759  ASP760  ASP761  ALA762  ILE779  LEU786  VAL792 
 PHE793  MET794  SER795  GLU796  ALA797  LYS798  CYS799  TRP800  GLU811  SER814 

> <Gold.Protein.RotatedAtoms>
  151.3926  135.0958  159.9530 H   0  0  0  0  0  0  0  0  0  0  0  0  # atno 6907 bound_to 6896
  152.5075  133.8965  159.7430 H   0  0  0  0  0  0  0  0  0  0  0  0  # atno 6908 bound_to 6896
  150.9422  133.6587  159.2817 H   0  0  0  0  0  0  0  0  0  0  0  0  # atno 6909 bound_to 6896
  145.1097  140.8604  143.3877 H   0  0  0  0  0  0  0  0  0  0  0  0  # atno 7974 bound_to 7965
  156.0212  140.3340  155.7041 H   0  0  0  0  0  0  0  0  0  0  0  0  # atno 8008 bound_to 7997
  155.6019  140.0656  157.2748 H   0  0  0  0  0  0  0  0  0  0  0  0  # atno 8009 bound_to 7997
  154.4317  140.1809  156.1170 H   0  0  0  0  0  0  0  0  0  0  0  0  # atno 8010 bound_to 7997
  140.5179  143.2335  151.7480 H   0  0  0  0  0  0  0  0  0  0  0  0  # atno 10167 bound_to 10162
  157.6535  130.9615  150.1031 H   0  0  0  0  0  0  0  0  0  0  0  0  # atno 10718 bound_to 10713
  153.0032  135.5415  154.6412 H   0  0  0  0  0  0  0  0  0  0  0  0  # atno 10763 bound_to 10752
  154.5666  135.2838  155.0870 H   0  0  0  0  0  0  0  0  0  0  0  0  # atno 10764 bound_to 10752
  154.2051  135.6477  153.5151 H   0  0  0  0  0  0  0  0  0  0  0  0  # atno 10765 bound_to 10752
  139.9172  134.9633  156.7758 H   0  0  0  0  0  0  0  0  0  0  0  0  # atno 11005 bound_to 11000
  145.0861  139.2924  143.5759 LP  0  0  0  0  0  0  0  0  0  0  0  0  # atno 17320 bound_to 7965
  146.3527  140.0383  142.8645 LP  0  0  0  0  0  0  0  0  0  0  0  0  # atno 17321 bound_to 7965
  139.4915  144.4297  151.9886 LP  0  0  0  0  0  0  0  0  0  0  0  0  # atno 17342 bound_to 10162
  140.3392  144.3224  150.5971 LP  0  0  0  0  0  0  0  0  0  0  0  0  # atno 17343 bound_to 10162
  156.1948  130.3656  149.8863 LP  0  0  0  0  0  0  0  0  0  0  0  0  # atno 17370 bound_to 10713
  156.6783  130.8848  151.3572 LP  0  0  0  0  0  0  0  0  0  0  0  0  # atno 17371 bound_to 10713
  140.6584  133.9667  155.7792 LP  0  0  0  0  0  0  0  0  0  0  0  0  # atno 17394 bound_to 11000
  141.0660  134.0276  157.3593 LP  0  0  0  0  0  0  0  0  0  0  0  0  # atno 17395 bound_to 11000

$$$$
