AV-unprocessed.smi:249|AV-procd|sdf|1911|dock3
  -GOLD-   2262021 03D 1   1.00000     0.00000
 Structure written by MMmdl.
 64 67  0  0  0  0  0  0  0  0  2 V2000
  146.5611  129.5270  152.1408 C   0  0  0  0  0  0  0  0  0  0  0  0
  145.8255  130.8212  151.7606 C   0  0  0  0  0  0  0  0  0  0  0  0
  146.7485  131.9379  151.4003 N   0  3  1  0  0  0  0  0  0  0  0  0
  146.1724  132.9190  150.4371 C   0  0  0  0  0  0  0  0  0  0  0  0
  145.1111  133.8207  151.0971 C   0  0  0  0  0  0  0  0  0  0  0  0
  145.6912  134.5383  152.3311 C   0  0  1  0  0  0  0  0  0  0  0  0
  144.6976  135.3852  152.9974 N   0  0  0  0  0  0  0  0  0  0  0  0
  143.2744  135.2534  152.6927 C   0  0  0  0  0  0  0  0  0  0  0  0
  145.1165  136.5254  153.6054 C   0  0  0  0  0  0  0  0  0  0  0  0
  144.2791  137.5957  153.6449 N   0  0  0  0  0  0  0  0  0  0  0  0
  144.6628  138.7348  154.2284 C   0  0  0  0  0  0  0  0  0  0  0  0
  145.8201  139.0152  154.8294 N   0  0  0  0  0  0  0  0  0  0  0  0
  146.6600  137.9416  154.8081 C   0  0  0  0  0  0  0  0  0  0  0  0
  146.3925  136.6710  154.2234 C   0  0  0  0  0  0  0  0  0  0  0  0
  147.4833  135.8285  154.4128 N   0  0  0  0  0  0  0  0  0  0  0  0
  148.3500  136.5632  155.0545 C   0  0  0  0  0  0  0  0  0  0  0  0
  147.9396  137.8479  155.3262 N   0  0  0  0  0  0  0  0  0  0  0  0
  148.7023  138.8706  156.0199 C   0  0  0  0  0  0  0  0  0  0  0  0
  149.3070  139.9477  155.0805 C   0  0  1  0  0  0  0  0  0  0  0  0
  148.2950  141.0734  154.7439 C   0  0  0  0  0  0  0  0  0  0  0  0
  148.9207  142.1762  154.1206 O   0  0  0  0  0  0  0  0  0  0  0  0
  150.6057  140.5340  155.6940 C   0  0  1  0  0  0  0  0  0  0  0  0
  150.4539  141.1012  157.0963 C   0  0  0  0  0  0  0  0  0  0  0  0
  151.8957  141.1405  157.5840 C   0  0  0  0  0  0  0  0  0  0  0  0
  152.5067  139.9880  157.0208 O   0  0  0  0  0  0  0  0  0  0  0  0
  151.7294  139.5126  155.9252 C   0  0  0  0  0  0  0  0  0  0  0  0
  146.3345  133.5260  153.2978 C   0  0  0  0  0  0  0  0  0  0  0  0
  147.3680  132.6489  152.5611 C   0  0  1  0  0  0  0  0  0  0  0  0
  148.1401  131.7194  153.5148 C   0  0  0  0  0  0  0  0  0  0  0  0
  145.8589  128.7945  152.5396 H   0  0  0  0  0  0  0  0  0  0  0  0
  147.3151  129.7100  152.9069 H   0  0  0  0  0  0  0  0  0  0  0  0
  147.0493  129.0629  151.2846 H   0  0  0  0  0  0  0  0  0  0  0  0
  145.1152  130.6264  150.9575 H   0  0  0  0  0  0  0  0  0  0  0  0
  145.2319  131.1008  152.6287 H   0  0  0  0  0  0  0  0  0  0  0  0
  146.9838  133.5414  150.0574 H   0  0  0  0  0  0  0  0  0  0  0  0
  145.7593  132.4218  149.5612 H   0  0  0  0  0  0  0  0  0  0  0  0
  144.7592  134.5582  150.3746 H   0  0  0  0  0  0  0  0  0  0  0  0
  144.2401  133.2252  151.3698 H   0  0  0  0  0  0  0  0  0  0  0  0
  146.4942  135.1674  151.9494 H   0  0  0  0  0  0  0  0  0  0  0  0
  142.6683  135.5481  153.5500 H   0  0  0  0  0  0  0  0  0  0  0  0
  143.0139  134.2260  152.4417 H   0  0  0  0  0  0  0  0  0  0  0  0
  143.0037  135.8851  151.8461 H   0  0  0  0  0  0  0  0  0  0  0  0
  143.9392  139.5366  154.2093 H   0  0  0  0  0  0  0  0  0  0  0  0
  149.3205  136.1884  155.3463 H   0  0  0  0  0  0  0  0  0  0  0  0
  148.0585  139.3407  156.7643 H   0  0  0  0  0  0  0  0  0  0  0  0
  149.4880  138.3590  156.5756 H   0  0  0  0  0  0  0  0  0  0  0  0
  149.5873  139.4595  154.1457 H   0  0  0  0  0  0  0  0  0  0  0  0
  147.4942  140.6980  154.1063 H   0  0  0  0  0  0  0  0  0  0  0  0
  147.8208  141.4631  155.6430 H   0  0  0  0  0  0  0  0  0  0  0  0
  148.7099  142.9549  154.6128 H   0  0  0  0  0  0  0  0  0  0  0  0
  150.9860  141.3257  155.0458 H   0  0  0  0  0  0  0  0  0  0  0  0
  149.9859  142.0857  157.1171 H   0  0  0  0  0  0  0  0  0  0  0  0
  149.8657  140.4274  157.7212 H   0  0  0  0  0  0  0  0  0  0  0  0
  152.4020  142.0281  157.2025 H   0  0  0  0  0  0  0  0  0  0  0  0
  151.9726  141.1454  158.6713 H   0  0  0  0  0  0  0  0  0  0  0  0
  151.3218  138.5382  156.1977 H   0  0  0  0  0  0  0  0  0  0  0  0
  152.3551  139.3794  155.0425 H   0  0  0  0  0  0  0  0  0  0  0  0
  146.8232  134.0653  154.1100 H   0  0  0  0  0  0  0  0  0  0  0  0
  145.5775  132.8953  153.7637 H   0  0  0  0  0  0  0  0  0  0  0  0
  148.1169  133.3191  152.1356 H   0  0  0  0  0  0  0  0  0  0  0  0
  148.7426  132.3027  154.2117 H   0  0  0  0  0  0  0  0  0  0  0  0
  148.8178  131.0637  152.9672 H   0  0  0  0  0  0  0  0  0  0  0  0
  147.4757  131.0995  154.1169 H   0  0  0  0  0  0  0  0  0  0  0  0
  147.5165  131.4956  150.9155 H   0  0  0  0  0  0  0  0  0  0  0  0
  1  2  1  0  0  0  0
  1 30  1  0  0  0  0
  1 31  1  0  0  0  0
  1 32  1  0  0  0  0
  2  3  1  0  0  0  0
  2 33  1  0  0  0  0
  2 34  1  0  0  0  0
  3 28  1  0  0  0  0
  3  4  1  0  0  0  0
  3 64  1  0  0  0  0
  4  5  1  0  0  0  0
  4 35  1  0  0  0  0
  4 36  1  0  0  0  0
  5  6  1  0  0  0  0
  5 37  1  0  0  0  0
  5 38  1  0  0  0  0
  6  7  1  0  0  0  0
  6 27  1  0  0  0  0
  6 39  1  0  0  0  0
  7  8  1  0  0  0  0
  7  9  1  0  0  0  0
  8 40  1  0  0  0  0
  8 41  1  0  0  0  0
  8 42  1  0  0  0  0
  9 14  1  0  0  0  0
  9 10  2  0  0  0  0
 10 11  1  0  0  0  0
 11 12  2  0  0  0  0
 11 43  1  0  0  0  0
 12 13  1  0  0  0  0
 13 17  1  0  0  0  0
 13 14  2  0  0  0  0
 14 15  1  0  0  0  0
 15 16  2  0  0  0  0
 16 17  1  0  0  0  0
 16 44  1  0  0  0  0
 17 18  1  0  0  0  0
 18 19  1  0  0  0  0
 18 45  1  0  0  0  0
 18 46  1  0  0  0  0
 19 20  1  0  0  0  0
 19 22  1  0  0  0  0
 19 47  1  0  0  0  0
 20 21  1  0  0  0  0
 20 48  1  0  0  0  0
 20 49  1  0  0  0  0
 21 50  1  0  0  0  0
 22 26  1  0  0  0  0
 22 23  1  0  0  0  0
 22 51  1  0  0  0  0
 23 24  1  0  0  0  0
 23 52  1  0  0  0  0
 23 53  1  0  0  0  0
 24 25  1  0  0  0  0
 24 54  1  0  0  0  0
 24 55  1  0  0  0  0
 25 26  1  0  0  0  0
 26 56  1  0  0  0  0
 26 57  1  0  0  0  0
 27 28  1  0  0  0  0
 27 58  1  0  0  0  0
 27 59  1  0  0  0  0
 28 29  1  0  0  0  0
 28 60  1  0  0  0  0
 29 61  1  0  0  0  0
 29 62  1  0  0  0  0
 29 63  1  0  0  0  0
M  CHG  1   3   1
M  END
> <s_m_source_file>
AV-unprocessed.smi

> <i_m_source_file_index>
249

> <i_lp_mmshare_version>
43012

> <i_f3d_flags>
0

> <s_epik_input>
W0NIM11bQ0gyXU4xW0NIMl1bQ0gyXVtDQEhdKFtDSDJdW0NASF0xW0NIM10pTihbQ0gzXSljKG5bY0hdbjIpYyhjMjMpbltjSF1uM1tDSDJdW0NASF0oW0NIMl1bT0hdKVtDQEBIXTRbQ0gyXVtDSDJdT1tDSDJdNA==

> <s_epik_cmdline>
J2VwaWtfcHl0aG9uJywgJy1waCcsICc3LjAnLCAnLXRuJywgJzgnLCAnLW1hJywgJzIwMCcsICctbWV0YWxfYmluZGluZycsICctaW1hZScsICc8aW5maWxlLm1hZT4nLCAnLW9tYWUnLCAnPG91dGZpbGUubWFlPic=

> <r_lp_tautomer_probability>
1

> <r_epik_Ionization_Penalty>
0.00294688

> <r_epik_Ionization_Penalty_Charging>
0.00169971

> <r_epik_Ionization_Penalty_Neutral>
0.00124717

> <r_epik_State_Penalty>
-0

> <r_epik_Charging_Adjusted_Penalty>
0.00169971

> <i_epik_Tot_Q>
1

> <i_epik_Tot_abs_Q>
1

> <r_epik_Metal_State_Penalty>
-0

> <b_epik_Metal_Only>
0

> <s_lp_Force_Field>
OPLS_2005

> <r_lp_Energy>
53.8972

> <b_lp_Chiralities_Consistent>
1

> <s_lp_Variant>
AV-unprocessed.smi:249-14

> <Gold.Version>
5.8.1

> <Gold.Id.Protein>
6NUR|6NUR_protein|mol2

> <Gold.PLP.Fitness>
45.1027

> <Gold.PLP.PLP>
-35.6946

> <Gold.PLP.part.hbond>
-4.0000

> <Gold.PLP.part.metal>
0.0000

> <Gold.PLP.part.buried>
-3.1477

> <Gold.PLP.part.nonpolar>
-29.2357

> <Gold.PLP.part.repulsive>
1.3828

> <Gold.PLP.ligand.clash>
0.0000

> <Gold.PLP.ligand.torsion>
1.6701

> <Gold.PLP.Chemscore.Hbond>
3.3040

> <Gold.PLP.Chemscore.CHOScore>
0.7362

> <Gold.PLP.Chemscore.Metal>
0.0000

> <Gold.Chemscore.Hbonds>
donor molecule, donor type, donor heavy atom, donor atom, acceptor molecule, acceptor atom, score
      L1  H     3    64       P1 10747  1.00
      L1  H    21    50       P1  8028  0.99
      P1  H  7997  8009       L1    25  1.00
      P1  H  8011  8017       L1    21  0.30
      L1  C    11    43       P1 10175  0.64

> <Gold.PLP.Chemscore.Internal.Correction>
0.6276

> <Gold.Rescore>
     Score         DG    S(hbond)    S(metal)    S(lipo)     H(rot)  DE(clash)    DE(int)     intcor
     16.03     -20.14       3.06        0.00      95.89       2.65       1.54       2.56       ----

> <Gold.Chemscore.Fitness>
16.0311

> <Gold.Chemscore.DG>
-20.1365

> <Gold.Chemscore.ZeroCoef>
-5.4800

> <Gold.Chemscore.Hbond>
3.0614

> <Gold.Chemscore.Metal>
0.0000

> <Gold.Chemscore.Lipo>
95.8921

> <Gold.Chemscore.Internal_Hbond>
0.0000

> <Gold.Chemscore.DEClash>
1.5442

> <Gold.Chemscore.DEInternal>
2.5612

> <Gold.Chemscore.Rot>
2.6515

> <Gold.Chemscore.Internal.Correction>
   9.000000E+99

> <Gold.Chemscore.Hbonds>
donor molecule, donor type, donor heavy atom, donor atom, acceptor molecule, acceptor atom, score
      L1  H     3    64       P1 10747  1.00
      L1  H    21    50       P1  8028  0.92
      P1  H  7997  8009       L1    25  0.74
      P1  H  8011  8017       L1    21  0.27

> <Gold.Chemscore.Hbond.Weighted>
-10.2251

> <Gold.Chemscore.Metal.Weighted>
-0.0000

> <Gold.Chemscore.Lipo.Weighted>
-11.2194

> <Gold.Chemscore.Internal_Hbond.Weighted>
0.0000

> <Gold.Chemscore.DEClash.Weighted>
1.5442

> <Gold.Chemscore.DEInternal.Weighted>
2.5612

> <Gold.Chemscore.Rot.Weighted>
6.7880

> <Gold.Chemscore.Internal.Correction.Weighted>
   9.000000E+99

> <Gold.Protein.RotatedTorsions>
[ 6907 6896 6895 6894 ] final -112.70 input  -60.11 | X-H torsion
[ 7974 7965 7964 7962 ] final -112.64 input  175.53 | X-H torsion
[ 8008 7997 7996 7995 ] final -173.45 input   59.86 | X-H torsion
[ 10167 10162 10161 10158 ] final   99.43 input  -65.29 | X-H torsion
[ 10718 10713 10712 10709 ] final -158.42 input   66.30 | X-H torsion
[ 10763 10752 10751 10750 ] final  111.72 input  -60.55 | X-H torsion
[ 11005 11000 10999 10996 ] final  -12.90 input  -57.11 | X-H torsion

> <Gold.Protein.ActiveResidues>
 VAL166  LYS551  ARG553  GLY616  TRP617  ASP618  TYR619  PRO620  LYS621  CYS622 
 ASP623  PHE694  ASN695  SER759  ASP760  ASP761  ALA762  ILE779  LEU786  VAL792 
 PHE793  MET794  SER795  GLU796  ALA797  LYS798  CYS799  TRP800  GLU811  SER814 

> <Gold.Protein.RotatedAtoms>
  150.7777  133.9051  159.3352 H   0  0  0  0  0  0  0  0  0  0  0  0  # atno 6907 bound_to 6896
  151.6922  135.0942  160.0245 H   0  0  0  0  0  0  0  0  0  0  0  0  # atno 6908 bound_to 6896
  152.3818  133.6518  159.6203 H   0  0  0  0  0  0  0  0  0  0  0  0  # atno 6909 bound_to 6896
  145.1416  140.8781  143.3699 H   0  0  0  0  0  0  0  0  0  0  0  0  # atno 7974 bound_to 7965
  155.9575  140.1138  157.0924 H   0  0  0  0  0  0  0  0  0  0  0  0  # atno 8008 bound_to 7997
  154.4124  140.1188  156.5202 H   0  0  0  0  0  0  0  0  0  0  0  0  # atno 8009 bound_to 7997
  155.6763  140.3473  155.4840 H   0  0  0  0  0  0  0  0  0  0  0  0  # atno 8010 bound_to 7997
  139.7618  144.6952  151.0281 H   0  0  0  0  0  0  0  0  0  0  0  0  # atno 10167 bound_to 10162
  156.5539  130.8617  151.2789 H   0  0  0  0  0  0  0  0  0  0  0  0  # atno 10718 bound_to 10713
  153.4674  135.3708  155.2372 H   0  0  0  0  0  0  0  0  0  0  0  0  # atno 10763 bound_to 10752
  154.8757  135.3923  154.3853 H   0  0  0  0  0  0  0  0  0  0  0  0  # atno 10764 bound_to 10752
  153.4436  135.7084  153.6218 H   0  0  0  0  0  0  0  0  0  0  0  0  # atno 10765 bound_to 10752
  140.7705  133.8442  155.9203 H   0  0  0  0  0  0  0  0  0  0  0  0  # atno 11005 bound_to 11000
  145.0526  139.3169  143.5921 LP  0  0  0  0  0  0  0  0  0  0  0  0  # atno 17320 bound_to 7965
  146.3504  139.9940  142.8683 LP  0  0  0  0  0  0  0  0  0  0  0  0  # atno 17321 bound_to 7965
  140.7808  143.4688  151.0175 LP  0  0  0  0  0  0  0  0  0  0  0  0  # atno 17342 bound_to 10162
  139.8374  143.7609  152.3180 LP  0  0  0  0  0  0  0  0  0  0  0  0  # atno 17343 bound_to 10162
  157.7382  130.9809  150.2238 LP  0  0  0  0  0  0  0  0  0  0  0  0  # atno 17370 bound_to 10713
  156.2859  130.3739  149.7889 LP  0  0  0  0  0  0  0  0  0  0  0  0  # atno 17371 bound_to 10713
  140.9578  134.1695  157.4678 LP  0  0  0  0  0  0  0  0  0  0  0  0  # atno 17394 bound_to 11000
  139.8756  134.9933  156.5640 LP  0  0  0  0  0  0  0  0  0  0  0  0  # atno 17395 bound_to 11000

$$$$
