AV-unprocessed.smi:907|AV-procd|sdf|4113|dock1
  -GOLD-   22720 2 13D 1   1.00000     0.00000
 Structure written by MMmdl.
 54 57  0  0  0  0  0  0  0  0  3 V2000
  150.0484  139.8744  154.1398 O   0  0  0  0  0  0  0  0  0  0  0  0
  149.1479  140.6833  154.3670 C   0  0  0  0  0  0  0  0  0  0  0  0
  149.2995  141.6939  155.2406 N   0  0  0  0  0  0  0  0  0  0  0  0
  150.5259  141.9875  155.9747 C   0  0  0  0  0  0  0  0  0  0  0  0
  150.3404  141.8062  157.4910 C   0  0  0  0  0  0  0  0  0  0  0  0
  151.0363  142.8925  158.2879 C   0  0  0  0  0  0  0  0  0  0  0  0
  152.0114  142.5954  159.2648 C   0  0  0  0  0  0  0  0  0  0  0  0
  152.6276  143.6517  159.9677 C   0  0  0  0  0  0  0  0  0  0  0  0
  152.2576  144.9816  159.6784 C   0  0  0  0  0  0  0  0  0  0  0  0
  151.2794  145.2214  158.6916 C   0  0  0  0  0  0  0  0  0  0  0  0
  150.7119  144.1824  158.0400 N   0  3  0  0  0  0  0  0  0  0  0  0
  147.9114  140.5884  153.8180 N   0  0  0  0  0  0  0  0  0  0  0  0
  147.4989  139.6351  152.7793 C   0  0  0  0  0  0  0  0  0  0  0  0
  146.6457  138.5241  153.4218 C   0  0  0  0  0  0  0  0  0  0  0  0
  145.4822  139.0782  154.1735 N   0  3  0  0  0  0  0  0  0  0  0  0
  144.6451  138.0269  154.8209 C   0  0  1  0  0  0  0  0  0  0  0  0
  143.2482  138.5135  155.2802 C   0  0  0  0  0  0  0  0  0  0  0  0
  142.2974  137.4525  154.6950 C   0  0  1  0  0  0  0  0  0  0  0  0
  142.1542  137.6973  153.1832 C   0  0  0  0  0  0  0  0  0  0  0  0
  143.5317  137.2722  152.6449 C   0  0  0  0  0  0  0  0  0  0  0  0
  144.2791  136.8209  153.9192 C   0  0  2  0  0  0  0  0  0  0  0  0
  143.1493  136.1894  154.7260 C   0  0  0  0  0  0  0  0  0  0  0  0
  145.8897  140.1525  155.1240 C   0  0  0  0  0  0  0  0  0  0  0  0
  146.7432  141.2267  154.4279 C   0  0  0  0  0  0  0  0  0  0  0  0
  148.5109  142.3028  155.4045 H   0  0  0  0  0  0  0  0  0  0  0  0
  151.3351  141.3516  155.6113 H   0  0  0  0  0  0  0  0  0  0  0  0
  150.8167  143.0148  155.7536 H   0  0  0  0  0  0  0  0  0  0  0  0
  149.2790  141.8054  157.7419 H   0  0  0  0  0  0  0  0  0  0  0  0
  150.7303  140.8378  157.8077 H   0  0  0  0  0  0  0  0  0  0  0  0
  152.2865  141.5714  159.4731 H   0  0  0  0  0  0  0  0  0  0  0  0
  153.3760  143.4439  160.7186 H   0  0  0  0  0  0  0  0  0  0  0  0
  152.7183  145.8048  160.2049 H   0  0  0  0  0  0  0  0  0  0  0  0
  150.9369  146.2052  158.4056 H   0  0  0  0  0  0  0  0  0  0  0  0
  146.9133  140.1634  152.0253 H   0  0  0  0  0  0  0  0  0  0  0  0
  148.3317  139.1860  152.2384 H   0  0  0  0  0  0  0  0  0  0  0  0
  146.3041  137.8530  152.6345 H   0  0  0  0  0  0  0  0  0  0  0  0
  147.2620  137.9311  154.0996 H   0  0  0  0  0  0  0  0  0  0  0  0
  145.1915  137.6513  155.6885 H   0  0  0  0  0  0  0  0  0  0  0  0
  143.1912  138.5351  156.3691 H   0  0  0  0  0  0  0  0  0  0  0  0
  142.9887  139.5076  154.9147 H   0  0  0  0  0  0  0  0  0  0  0  0
  141.3431  137.3810  155.2177 H   0  0  0  0  0  0  0  0  0  0  0  0
  141.3671  137.0708  152.7609 H   0  0  0  0  0  0  0  0  0  0  0  0
  141.9156  138.7355  152.9488 H   0  0  0  0  0  0  0  0  0  0  0  0
  143.4254  136.4409  151.9469 H   0  0  0  0  0  0  0  0  0  0  0  0
  144.0382  138.0804  152.1171 H   0  0  0  0  0  0  0  0  0  0  0  0
  145.1122  136.1452  153.7238 H   0  0  0  0  0  0  0  0  0  0  0  0
  143.4458  135.8917  155.7335 H   0  0  0  0  0  0  0  0  0  0  0  0
  142.6815  135.3392  154.2260 H   0  0  0  0  0  0  0  0  0  0  0  0
  145.0156  140.6306  155.5642 H   0  0  0  0  0  0  0  0  0  0  0  0
  146.4536  139.7116  155.9479 H   0  0  0  0  0  0  0  0  0  0  0  0
  147.0160  142.0087  155.1384 H   0  0  0  0  0  0  0  0  0  0  0  0
  146.1590  141.7257  153.6530 H   0  0  0  0  0  0  0  0  0  0  0  0
  144.8936  139.5224  153.4834 H   0  0  0  0  0  0  0  0  0  0  0  0
  150.0065  144.3802  157.3298 H   0  0  0  0  0  0  0  0  0  0  0  0
  1  2  2  0  0  0  0
  2  3  1  0  0  0  0
  2 12  1  0  0  0  0
  3  4  1  0  0  0  0
  3 25  1  0  0  0  0
  4  5  1  0  0  0  0
  4 26  1  0  0  0  0
  4 27  1  0  0  0  0
  5  6  1  0  0  0  0
  5 28  1  0  0  0  0
  5 29  1  0  0  0  0
  6 11  1  0  0  0  0
  6  7  2  0  0  0  0
  7  8  1  0  0  0  0
  7 30  1  0  0  0  0
  8  9  2  0  0  0  0
  8 31  1  0  0  0  0
  9 10  1  0  0  0  0
  9 32  1  0  0  0  0
 10 11  2  0  0  0  0
 10 33  1  0  0  0  0
 11 54  1  0  0  0  0
 12 24  1  0  0  0  0
 12 13  1  0  0  0  0
 13 14  1  0  0  0  0
 13 34  1  0  0  0  0
 13 35  1  0  0  0  0
 14 15  1  0  0  0  0
 14 36  1  0  0  0  0
 14 37  1  0  0  0  0
 15 16  1  0  0  0  0
 15 23  1  0  0  0  0
 15 53  1  0  0  0  0
 16 21  1  0  0  0  0
 16 17  1  0  0  0  0
 16 38  1  0  0  0  0
 17 18  1  0  0  0  0
 17 39  1  0  0  0  0
 17 40  1  0  0  0  0
 18 22  1  0  0  0  0
 18 19  1  0  0  0  0
 18 41  1  0  0  0  0
 19 20  1  0  0  0  0
 19 42  1  0  0  0  0
 19 43  1  0  0  0  0
 20 21  1  0  0  0  0
 20 44  1  0  0  0  0
 20 45  1  0  0  0  0
 21 22  1  0  0  0  0
 21 46  1  0  0  0  0
 22 47  1  0  0  0  0
 22 48  1  0  0  0  0
 23 24  1  0  0  0  0
 23 49  1  0  0  0  0
 23 50  1  0  0  0  0
 24 51  1  0  0  0  0
 24 52  1  0  0  0  0
M  CHG  1  11   1
M  CHG  1  15   1
M  END
> <s_m_source_file>
AV-unprocessed.smi

> <i_m_source_file_index>
907

> <i_lp_mmshare_version>
43012

> <i_f3d_flags>
0

> <s_epik_input>
W0NIMl0xW0NIMl1bQ0BASF0oW0NIMl0yKVtDQEBIXShbQ0gyXVtDQEhdMTIpTihbQ0gyXVtDSDJdMylbQ0gyXVtDSDJdTjNDKD1PKVtOSF1bQ0gyXVtDSDJdYzRbY0hdW2NIXVtjSF1bY0hdbjQ=

> <s_epik_cmdline>
J2VwaWtfcHl0aG9uJywgJy1waCcsICc3LjAnLCAnLXRuJywgJzgnLCAnLW1hJywgJzIwMCcsICctbWV0YWxfYmluZGluZycsICctaW1hZScsICc8aW5maWxlLm1hZT4nLCAnLW9tYWUnLCAnPG91dGZpbGUubWFlPic=

> <r_epik_Ionization_Penalty>
1.63018

> <r_epik_Ionization_Penalty_Charging>
1.63015

> <r_epik_Ionization_Penalty_Neutral>
2.64641e-05

> <r_epik_State_Penalty>
1.72761

> <r_epik_Charging_Adjusted_Penalty>
3.35777

> <i_epik_Tot_Q>
2

> <i_epik_Tot_abs_Q>
2

> <r_epik_Metal_State_Penalty>
1.76501

> <b_epik_Metal_Only>
0

> <s_lp_Force_Field>
OPLS_2005

> <r_lp_Energy>
102.542

> <b_lp_Chiralities_Consistent>
1

> <s_lp_Variant>
AV-unprocessed.smi:907-8

> <Gold.Version>
5.8.1

> <Gold.Id.Protein>
6NUR|6NUR_protein|mol2

> <Gold.PLP.Fitness>
54.1374

> <Gold.PLP.PLP>
-40.9742

> <Gold.PLP.part.hbond>
-3.8757

> <Gold.PLP.part.metal>
0.0000

> <Gold.PLP.part.buried>
-1.3146

> <Gold.PLP.part.nonpolar>
-35.2275

> <Gold.PLP.part.repulsive>
1.1527

> <Gold.PLP.ligand.clash>
0.9867

> <Gold.PLP.ligand.torsion>
0.5233

> <Gold.PLP.Chemscore.Hbond>
5.0000

> <Gold.PLP.Chemscore.CHOScore>
0.0000

> <Gold.PLP.Chemscore.Metal>
0.0000

> <Gold.Chemscore.Hbonds>
donor molecule, donor type, donor heavy atom, donor atom, acceptor molecule, acceptor atom, score
      L1  H    11    54       P1  8028  2.00
      L1  H    15    53       P1 10175  2.00
      P1  H  7989  7998       L1     1  1.00

> <Gold.PLP.Chemscore.Internal.Correction>
0.1965

> <Gold.Rescore>
     Score         DG    S(hbond)    S(metal)    S(lipo)     H(rot)  DE(clash)    DE(int)     intcor
     20.24     -22.69       2.49        0.00     107.83       1.46       1.86       0.60       ----

> <Gold.Chemscore.Fitness>
20.2354

> <Gold.Chemscore.DG>
-22.6912

> <Gold.Chemscore.ZeroCoef>
-5.4800

> <Gold.Chemscore.Hbond>
2.4927

> <Gold.Chemscore.Metal>
0.0000

> <Gold.Chemscore.Lipo>
107.8315

> <Gold.Chemscore.Internal_Hbond>
0.0000

> <Gold.Chemscore.DEClash>
1.8561

> <Gold.Chemscore.DEInternal>
0.5997

> <Gold.Chemscore.Rot>
1.4572

> <Gold.Chemscore.Internal.Correction>
   9.000000E+99

> <Gold.Chemscore.Hbonds>
donor molecule, donor type, donor heavy atom, donor atom, acceptor molecule, acceptor atom, score
      L1  H     3    25       P1  8028  0.02
      L1  H    11    54       P1  8028  0.43
      L1  H    15    53       P1 10175  1.00
      P1  H  7989  7998       L1     1  0.61

> <Gold.Chemscore.Hbond.Weighted>
-8.3255

> <Gold.Chemscore.Metal.Weighted>
-0.0000

> <Gold.Chemscore.Lipo.Weighted>
-12.6163

> <Gold.Chemscore.Internal_Hbond.Weighted>
0.0000

> <Gold.Chemscore.DEClash.Weighted>
1.8561

> <Gold.Chemscore.DEInternal.Weighted>
0.5997

> <Gold.Chemscore.Rot.Weighted>
3.7305

> <Gold.Chemscore.Internal.Correction.Weighted>
   9.000000E+99

> <Gold.Protein.RotatedTorsions>
[ 6907 6896 6895 6894 ] final  172.75 input  -60.11 | X-H torsion
[ 7974 7965 7964 7962 ] final   52.50 input  175.53 | X-H torsion
[ 8008 7997 7996 7995 ] final   68.90 input   59.86 | X-H torsion
[ 10167 10162 10161 10158 ] final    0.76 input  -65.29 | X-H torsion
[ 10718 10713 10712 10709 ] final   38.10 input   66.30 | X-H torsion
[ 10763 10752 10751 10750 ] final  161.72 input  -60.55 | X-H torsion
[ 11005 11000 10999 10996 ] final   89.56 input  -57.11 | X-H torsion

> <Gold.Protein.ActiveResidues>
 VAL166  LYS551  ARG553  GLY616  TRP617  ASP618  TYR619  PRO620  LYS621  CYS622 
 ASP623  PHE694  ASN695  SER759  ASP760  ASP761  ALA762  ILE779  LEU786  VAL792 
 PHE793  MET794  SER795  GLU796  ALA797  LYS798  CYS799  TRP800  GLU811  SER814 

> <Gold.Protein.RotatedAtoms>
  151.7793  133.3348  159.3466 H   0  0  0  0  0  0  0  0  0  0  0  0  # atno 6907 bound_to 6896
  150.7432  134.5946  159.6014 H   0  0  0  0  0  0  0  0  0  0  0  0  # atno 6908 bound_to 6896
  152.3287  134.7288  160.0346 H   0  0  0  0  0  0  0  0  0  0  0  0  # atno 6909 bound_to 6896
  145.9807  139.4239  143.0134 H   0  0  0  0  0  0  0  0  0  0  0  0  # atno 7974 bound_to 7965
  155.7154  140.3494  155.4992 H   0  0  0  0  0  0  0  0  0  0  0  0  # atno 8008 bound_to 7997
  155.9318  140.1085  157.1148 H   0  0  0  0  0  0  0  0  0  0  0  0  # atno 8009 bound_to 7997
  154.4086  140.1229  156.4799 H   0  0  0  0  0  0  0  0  0  0  0  0  # atno 8010 bound_to 7997
  140.6714  143.7038  150.7931 H   0  0  0  0  0  0  0  0  0  0  0  0  # atno 10167 bound_to 10162
  157.3548  130.7618  149.7004 H   0  0  0  0  0  0  0  0  0  0  0  0  # atno 10718 bound_to 10713
  154.2674  135.2766  155.2753 H   0  0  0  0  0  0  0  0  0  0  0  0  # atno 10763 bound_to 10752
  154.5332  135.5724  153.6779 H   0  0  0  0  0  0  0  0  0  0  0  0  # atno 10764 bound_to 10752
  152.9951  135.6233  154.2827 H   0  0  0  0  0  0  0  0  0  0  0  0  # atno 10765 bound_to 10752
  139.8873  134.8559  156.3159 H   0  0  0  0  0  0  0  0  0  0  0  0  # atno 11005 bound_to 11000
  145.7774  140.9871  143.1117 LP  0  0  0  0  0  0  0  0  0  0  0  0  # atno 17320 bound_to 7965
  144.6861  139.9522  143.7478 LP  0  0  0  0  0  0  0  0  0  0  0  0  # atno 17321 bound_to 7965
  140.0724  143.5048  152.2573 LP  0  0  0  0  0  0  0  0  0  0  0  0  # atno 17342 bound_to 10162
  139.5984  144.7575  151.3230 LP  0  0  0  0  0  0  0  0  0  0  0  0  # atno 17343 bound_to 10162
  155.9727  130.4130  150.4062 LP  0  0  0  0  0  0  0  0  0  0  0  0  # atno 17370 bound_to 10713
  157.2130  131.0465  151.2589 LP  0  0  0  0  0  0  0  0  0  0  0  0  # atno 17371 bound_to 10713
  140.9819  133.7262  156.0684 LP  0  0  0  0  0  0  0  0  0  0  0  0  # atno 17394 bound_to 11000
  140.7738  134.3802  157.5502 LP  0  0  0  0  0  0  0  0  0  0  0  0  # atno 17395 bound_to 11000

$$$$
