AV-unprocessed.smi:104|AV-procd|sdf|1002|dock2
  -GOLD-   2262017593D 1   1.00000     0.00000
 Structure written by MMmdl.
 47 49  0  0  0  0  0  0  0  0  1 V2000
  156.6522  140.1528  160.1692 C   0  0  0  0  0  0  0  0  0  0  0  0
  155.2208  140.5370  159.8196 C   0  0  0  0  0  0  0  0  0  0  0  0
  154.6447  141.4639  160.3891 O   0  0  0  0  0  0  0  0  0  0  0  0
  154.7073  139.7634  158.8540 O   0  0  0  0  0  0  0  0  0  0  0  0
  153.3123  139.5089  158.8217 C   0  0  0  0  0  0  0  0  0  0  0  0
  152.5845  140.6232  158.0571 C   0  0  1  0  0  0  0  0  0  0  0  0
  152.3439  140.2440  156.7122 O   0  0  0  0  0  0  0  0  0  0  0  0
  151.3165  141.0320  156.1983 C   0  0  1  0  0  0  0  0  0  0  0  0
  150.4705  140.1586  155.3214 N   0  0  0  0  0  0  0  0  0  0  0  0
  150.6206  138.8243  155.0185 C   0  0  0  0  0  0  0  0  0  0  0  0
  152.0548  137.7763  155.7054 Br  0  0  0  0  0  0  0  0  0  0  0  0
  149.7410  138.2928  154.2162 N   0  0  0  0  0  0  0  0  0  0  0  0
  148.9023  139.3627  153.9298 C   0  0  0  0  0  0  0  0  0  0  0  0
  147.7458  139.5203  153.1249 C   0  0  0  0  0  0  0  0  0  0  0  0
  147.2031  138.5176  152.4204 N   0  0  0  0  0  0  0  0  0  0  0  0
  147.1629  140.7403  153.0607 N   0  0  0  0  0  0  0  0  0  0  0  0
  147.6863  141.7581  153.7515 C   0  0  0  0  0  0  0  0  0  0  0  0
  148.7590  141.7638  154.5469 N   0  0  0  0  0  0  0  0  0  0  0  0
  149.3454  140.5326  154.6129 C   0  0  0  0  0  0  0  0  0  0  0  0
  150.5304  141.6334  157.3869 C   0  0  1  0  0  0  0  0  0  0  0  0
  149.1433  141.3110  157.3421 O   0  0  0  0  0  0  0  0  0  0  0  0
  148.2697  141.9449  158.1393 C   0  0  0  0  0  0  0  0  0  0  0  0
  146.8361  141.4941  157.8963 C   0  0  0  0  0  0  0  0  0  0  0  0
  148.5436  142.7967  158.9846 O   0  0  0  0  0  0  0  0  0  0  0  0
  151.2049  141.0031  158.5986 C   0  0  2  0  0  0  0  0  0  0  0  0
  151.3009  141.9621  159.6433 O   0  0  0  0  0  0  0  0  0  0  0  0
  151.8370  143.1710  159.4054 C   0  0  0  0  0  0  0  0  0  0  0  0
  151.9030  144.0314  160.6598 C   0  0  0  0  0  0  0  0  0  0  0  0
  152.2396  143.5863  158.3186 O   0  0  0  0  0  0  0  0  0  0  0  0
  156.7014  139.1055  160.4676 H   0  0  0  0  0  0  0  0  0  0  0  0
  157.0240  140.7647  160.9910 H   0  0  0  0  0  0  0  0  0  0  0  0
  157.3029  140.2997  159.3073 H   0  0  0  0  0  0  0  0  0  0  0  0
  153.1278  138.5516  158.3321 H   0  0  0  0  0  0  0  0  0  0  0  0
  152.9258  139.4342  159.8390 H   0  0  0  0  0  0  0  0  0  0  0  0
  153.2192  141.5108  158.0281 H   0  0  0  0  0  0  0  0  0  0  0  0
  151.7288  141.7955  155.5398 H   0  0  0  0  0  0  0  0  0  0  0  0
  147.6208  137.5984  152.4495 H   0  0  0  0  0  0  0  0  0  0  0  0
  146.3769  138.6817  151.8635 H   0  0  0  0  0  0  0  0  0  0  0  0
  147.1741  142.7034  153.6509 H   0  0  0  0  0  0  0  0  0  0  0  0
  150.6932  142.7123  157.3647 H   0  0  0  0  0  0  0  0  0  0  0  0
  146.5006  141.8166  156.9106 H   0  0  0  0  0  0  0  0  0  0  0  0
  146.1680  141.9186  158.6459 H   0  0  0  0  0  0  0  0  0  0  0  0
  146.7667  140.4072  157.9478 H   0  0  0  0  0  0  0  0  0  0  0  0
  150.6463  140.1135  158.8941 H   0  0  0  0  0  0  0  0  0  0  0  0
  150.8985  144.2917  160.9932 H   0  0  0  0  0  0  0  0  0  0  0  0
  152.4521  144.9526  160.4640 H   0  0  0  0  0  0  0  0  0  0  0  0
  152.4068  143.4931  161.4629 H   0  0  0  0  0  0  0  0  0  0  0  0
  1  2  1  0  0  0  0
  1 30  1  0  0  0  0
  1 31  1  0  0  0  0
  1 32  1  0  0  0  0
  2  3  2  0  0  0  0
  2  4  1  0  0  0  0
  4  5  1  0  0  0  0
  5  6  1  0  0  0  0
  5 33  1  0  0  0  0
  5 34  1  0  0  0  0
  6 25  1  0  0  0  0
  6  7  1  0  0  0  0
  6 35  1  0  0  0  0
  7  8  1  0  0  0  0
  8  9  1  0  0  0  0
  8 20  1  0  0  0  0
  8 36  1  0  0  0  0
  9 19  1  0  0  0  0
  9 10  1  0  0  0  0
 10 11  1  0  0  0  0
 10 12  2  0  0  0  0
 12 13  1  0  0  0  0
 13 19  2  0  0  0  0
 13 14  1  0  0  0  0
 14 15  1  0  0  0  0
 14 16  2  0  0  0  0
 15 37  1  0  0  0  0
 15 38  1  0  0  0  0
 16 17  1  0  0  0  0
 17 18  2  0  0  0  0
 17 39  1  0  0  0  0
 18 19  1  0  0  0  0
 20 21  1  0  0  0  0
 20 25  1  0  0  0  0
 20 40  1  0  0  0  0
 21 22  1  0  0  0  0
 22 23  1  0  0  0  0
 22 24  2  0  0  0  0
 23 41  1  0  0  0  0
 23 42  1  0  0  0  0
 23 43  1  0  0  0  0
 25 26  1  0  0  0  0
 25 44  1  0  0  0  0
 26 27  1  0  0  0  0
 27 28  1  0  0  0  0
 27 29  2  0  0  0  0
 28 45  1  0  0  0  0
 28 46  1  0  0  0  0
 28 47  1  0  0  0  0
M  END
> <s_m_source_file>
AV-unprocessed.smi

> <i_m_source_file_index>
104

> <i_lp_mmshare_version>
43012

> <i_f3d_flags>
0

> <s_epik_input>
W0NIM11DKD1PKU9bQ0gyXVtDQEBIXTFPW0NASF0oW0NAQEhdKE9DKD1PKVtDSDNdKVtDQEhdMU9DKD1PKVtDSDNdKW4oYyhCciluMiljKGMyMyluW2NIXW5jM1tOSDJd

> <s_epik_cmdline>
J2VwaWtfcHl0aG9uJywgJy1waCcsICc3LjAnLCAnLXRuJywgJzgnLCAnLW1hJywgJzIwMCcsICctbWV0YWxfYmluZGluZycsICctaW1hZScsICc8aW5maWxlLm1hZT4nLCAnLW9tYWUnLCAnPG91dGZpbGUubWFlPic=

> <r_lp_tautomer_probability>
1

> <r_epik_Ionization_Penalty>
7.36622e-05

> <r_epik_Ionization_Penalty_Charging>
0

> <r_epik_Ionization_Penalty_Neutral>
7.36622e-05

> <r_epik_State_Penalty>
-0

> <r_epik_Charging_Adjusted_Penalty>
0

> <i_epik_Tot_Q>
0

> <i_epik_Tot_abs_Q>
0

> <r_epik_Metal_State_Penalty>
-0

> <b_epik_Metal_Only>
0

> <s_epik_Chemistry_Notes>
This compound has an ester and may undergo hydrolysis at high or low pH. This compound contains an acetal/aminal-like group ( X-CH(R)-Y where X, Y are N, S, or O) that may be acid/base labile, releasing an aldehyde.

> <s_lp_Force_Field>
OPLS_2005

> <r_lp_Energy>
14.3188

> <b_lp_Chiralities_Consistent>
1

> <s_lp_Variant>
AV-unprocessed.smi:104-10

> <Gold.Version>
5.8.1

> <Gold.Id.Protein>
6NUR|6NUR_protein|mol2

> <Gold.PLP.Fitness>
44.5852

> <Gold.PLP.PLP>
-42.0153

> <Gold.PLP.part.hbond>
-6.4660

> <Gold.PLP.part.metal>
0.0000

> <Gold.PLP.part.buried>
-2.0244

> <Gold.PLP.part.nonpolar>
-33.7952

> <Gold.PLP.part.repulsive>
0.8803

> <Gold.PLP.ligand.clash>
0.0000

> <Gold.PLP.ligand.torsion>
1.1727

> <Gold.PLP.Chemscore.Hbond>
1.6013

> <Gold.PLP.Chemscore.CHOScore>
0.0000

> <Gold.PLP.Chemscore.Metal>
0.0000

> <Gold.Chemscore.Hbonds>
donor molecule, donor type, donor heavy atom, donor atom, acceptor molecule, acceptor atom, score
      L1  H    15    37       P1  7948  1.00
      P1  H  7997  8009       L1     7  0.60

> <Gold.PLP.Chemscore.Internal.Correction>
0.1112

> <Gold.Rescore>
     Score         DG    S(hbond)    S(metal)    S(lipo)     H(rot)  DE(clash)    DE(int)     intcor
     -8.66      -2.66       0.61        0.00      52.68       4.31       1.25      10.06       ----

> <Gold.Chemscore.Fitness>
-8.6599

> <Gold.Chemscore.DG>
-2.6554

> <Gold.Chemscore.ZeroCoef>
-5.4800

> <Gold.Chemscore.Hbond>
0.6103

> <Gold.Chemscore.Metal>
0.0000

> <Gold.Chemscore.Lipo>
52.6751

> <Gold.Chemscore.Internal_Hbond>
0.0000

> <Gold.Chemscore.DEClash>
1.2541

> <Gold.Chemscore.DEInternal>
10.0612

> <Gold.Chemscore.Rot>
4.3070

> <Gold.Chemscore.Internal.Correction>
   9.000000E+99

> <Gold.Chemscore.Hbonds>
donor molecule, donor type, donor heavy atom, donor atom, acceptor molecule, acceptor atom, score
      L1  H    15    37       P1  7948  0.94
      P1  H  6933  6944       L1    24  0.01
      P1  H  7997  8009       L1     7  0.04

> <Gold.Chemscore.Hbond.Weighted>
-2.0383

> <Gold.Chemscore.Metal.Weighted>
-0.0000

> <Gold.Chemscore.Lipo.Weighted>
-6.1630

> <Gold.Chemscore.Internal_Hbond.Weighted>
0.0000

> <Gold.Chemscore.DEClash.Weighted>
1.2541

> <Gold.Chemscore.DEInternal.Weighted>
10.0612

> <Gold.Chemscore.Rot.Weighted>
11.0259

> <Gold.Chemscore.Internal.Correction.Weighted>
   9.000000E+99

> <Gold.Protein.RotatedTorsions>
[ 6907 6896 6895 6894 ] final  -10.31 input  -60.11 | X-H torsion
[ 7974 7965 7964 7962 ] final -166.85 input  175.53 | X-H torsion
[ 8008 7997 7996 7995 ] final -160.59 input   59.86 | X-H torsion
[ 10167 10162 10161 10158 ] final -108.10 input  -65.29 | X-H torsion
[ 10718 10713 10712 10709 ] final   67.18 input   66.30 | X-H torsion
[ 10763 10752 10751 10750 ] final  -66.46 input  -60.55 | X-H torsion
[ 11005 11000 10999 10996 ] final  129.77 input  -57.11 | X-H torsion

> <Gold.Protein.ActiveResidues>
 VAL166  LYS551  ARG553  GLY616  TRP617  ASP618  TYR619  PRO620  LYS621  CYS622 
 ASP623  PHE694  ASN695  SER759  ASP760  ASP761  ALA762  ILE779  LEU786  VAL792 
 PHE793  MET794  SER795  GLU796  ALA797  LYS798  CYS799  TRP800  GLU811  SER814 

> <Gold.Protein.RotatedAtoms>
  151.4040  135.0975  159.9564 H   0  0  0  0  0  0  0  0  0  0  0  0  # atno 6907 bound_to 6896
  152.5041  133.8861  159.7381 H   0  0  0  0  0  0  0  0  0  0  0  0  # atno 6908 bound_to 6896
  150.9341  133.6675  159.2833 H   0  0  0  0  0  0  0  0  0  0  0  0  # atno 6909 bound_to 6896
  144.7236  140.2605  143.6265 H   0  0  0  0  0  0  0  0  0  0  0  0  # atno 7974 bound_to 7965
  155.7797  140.0863  157.2065 H   0  0  0  0  0  0  0  0  0  0  0  0  # atno 8008 bound_to 7997
  154.3991  140.1510  156.3096 H   0  0  0  0  0  0  0  0  0  0  0  0  # atno 8009 bound_to 7997
  155.8665  140.3427  155.5795 H   0  0  0  0  0  0  0  0  0  0  0  0  # atno 8010 bound_to 7997
  140.1698  143.4052  152.1363 H   0  0  0  0  0  0  0  0  0  0  0  0  # atno 10167 bound_to 10162
  157.6215  130.9307  150.0208 H   0  0  0  0  0  0  0  0  0  0  0  0  # atno 10718 bound_to 10713
  154.3601  135.6118  153.5686 H   0  0  0  0  0  0  0  0  0  0  0  0  # atno 10763 bound_to 10752
  152.9794  135.5813  154.4643 H   0  0  0  0  0  0  0  0  0  0  0  0  # atno 10764 bound_to 10752
  154.4379  135.2849  155.1845 H   0  0  0  0  0  0  0  0  0  0  0  0  # atno 10765 bound_to 10752
  139.9634  134.9596  156.9197 H   0  0  0  0  0  0  0  0  0  0  0  0  # atno 11005 bound_to 11000
  145.8140  139.2015  143.1976 LP  0  0  0  0  0  0  0  0  0  0  0  0  # atno 17320 bound_to 7965
  146.0571  140.8009  142.9753 LP  0  0  0  0  0  0  0  0  0  0  0  0  # atno 17321 bound_to 7965
  139.5343  144.7193  151.4948 LP  0  0  0  0  0  0  0  0  0  0  0  0  # atno 17342 bound_to 10162
  140.6589  143.8540  150.6866 LP  0  0  0  0  0  0  0  0  0  0  0  0  # atno 17343 bound_to 10162
  156.1363  130.3642  149.9653 LP  0  0  0  0  0  0  0  0  0  0  0  0  # atno 17370 bound_to 10713
  156.7703  130.9184  151.3644 LP  0  0  0  0  0  0  0  0  0  0  0  0  # atno 17371 bound_to 10713
  140.5449  134.0683  155.7352 LP  0  0  0  0  0  0  0  0  0  0  0  0  # atno 17394 bound_to 11000
  141.1313  133.9298  157.2530 LP  0  0  0  0  0  0  0  0  0  0  0  0  # atno 17395 bound_to 11000

$$$$
