AV-unprocessed.smi:85|AV-procd|sdf|811|dock8
  -GOLD-   2262017213D 1   1.00000     0.00000
 Structure written by MMmdl.
 62 65  0  0  0  0  0  0  0  0  1 V2000
  152.9505  138.3724  154.6612 C   0  0  0  0  0  0  0  0  0  0  0  0
  151.9647  139.4048  155.2338 C   0  0  0  0  0  0  0  0  0  0  0  0
  150.7070  138.8151  155.7061 N   0  0  0  0  0  0  0  0  0  0  0  0
  150.7172  138.2540  156.9400 C   0  0  0  0  0  0  0  0  0  0  0  0
  151.9284  138.0459  157.5151 N   0  0  0  0  0  0  0  0  0  0  0  0
  152.0077  137.5024  158.7329 C   0  0  0  0  0  0  0  0  0  0  0  0
  151.0186  137.1009  159.5333 N   0  0  0  0  0  0  0  0  0  0  0  0
  149.7990  137.2984  158.9558 C   0  0  0  0  0  0  0  0  0  0  0  0
  149.5588  137.8570  157.6684 C   0  0  0  0  0  0  0  0  0  0  0  0
  148.1934  137.8748  157.4105 N   0  0  0  0  0  0  0  0  0  0  0  0
  147.6582  137.3661  158.4854 C   0  0  0  0  0  0  0  0  0  0  0  0
  148.5474  137.0138  159.4759 N   0  0  0  0  0  0  0  0  0  0  0  0
  148.2222  136.4358  160.7729 C   0  0  0  0  0  0  0  0  0  0  0  0
  146.7595  135.9161  160.9102 C   0  0  0  0  0  0  0  0  0  0  0  0
  145.7469  137.0905  160.7843 C   0  0  0  0  0  0  0  0  0  0  0  0
  145.9595  138.0868  161.7641 O   0  0  0  0  0  0  0  0  0  0  0  0
  146.4669  134.8615  159.8116 C   0  0  0  0  0  0  0  0  0  0  0  0
  145.1769  134.0596  160.0670 C   0  0  0  0  0  0  0  0  0  0  0  0
  145.2229  133.4495  161.3496 O   0  0  0  0  0  0  0  0  0  0  0  0
  145.3145  134.3968  162.4051 C   0  0  0  0  0  0  0  0  0  0  0  0
  146.6237  135.1949  162.2752 C   0  0  0  0  0  0  0  0  0  0  0  0
  149.4248  139.4510  155.3769 C   0  0  1  0  0  0  0  0  0  0  0  0
  149.5753  140.9229  154.9599 C   0  0  0  0  0  0  0  0  0  0  0  0
  148.2008  141.5270  154.6428 C   0  0  0  0  0  0  0  0  0  0  0  0
  147.5364  140.7624  153.6378 O   0  0  0  0  0  0  0  0  0  0  0  0
  147.3027  139.3818  153.9386 C   0  0  0  0  0  0  0  0  0  0  0  0
  146.2533  139.2352  155.0617 C   0  0  0  0  0  0  0  0  0  0  0  0
  146.7318  138.7806  152.6431 C   0  0  0  0  0  0  0  0  0  0  0  0
  148.6460  138.6945  154.2846 C   0  0  0  0  0  0  0  0  0  0  0  0
  153.8355  138.8694  154.2642 H   0  0  0  0  0  0  0  0  0  0  0  0
  152.4962  137.8058  153.8479 H   0  0  0  0  0  0  0  0  0  0  0  0
  153.2890  137.6640  155.4171 H   0  0  0  0  0  0  0  0  0  0  0  0
  152.4390  139.9681  156.0364 H   0  0  0  0  0  0  0  0  0  0  0  0
  151.7518  140.1295  154.4504 H   0  0  0  0  0  0  0  0  0  0  0  0
  153.0063  137.3730  159.1235 H   0  0  0  0  0  0  0  0  0  0  0  0
  146.5901  137.2424  158.5893 H   0  0  0  0  0  0  0  0  0  0  0  0
  148.9264  135.6224  160.9537 H   0  0  0  0  0  0  0  0  0  0  0  0
  148.4345  137.1806  161.5411 H   0  0  0  0  0  0  0  0  0  0  0  0
  145.8110  137.5551  159.8004 H   0  0  0  0  0  0  0  0  0  0  0  0
  144.7182  136.7490  160.8861 H   0  0  0  0  0  0  0  0  0  0  0  0
  145.2230  138.0887  162.3562 H   0  0  0  0  0  0  0  0  0  0  0  0
  146.4038  135.3335  158.8309 H   0  0  0  0  0  0  0  0  0  0  0  0
  147.2973  134.1561  159.7574 H   0  0  0  0  0  0  0  0  0  0  0  0
  144.2893  134.6865  159.9801 H   0  0  0  0  0  0  0  0  0  0  0  0
  145.0760  133.2760  159.3158 H   0  0  0  0  0  0  0  0  0  0  0  0
  144.4421  135.0510  162.4067 H   0  0  0  0  0  0  0  0  0  0  0  0
  145.3022  133.8596  163.3536 H   0  0  0  0  0  0  0  0  0  0  0  0
  147.4531  134.4973  162.3995 H   0  0  0  0  0  0  0  0  0  0  0  0
  146.7090  135.9029  163.1000 H   0  0  0  0  0  0  0  0  0  0  0  0
  148.8101  139.4306  156.2775 H   0  0  0  0  0  0  0  0  0  0  0  0
  150.0539  141.5002  155.7511 H   0  0  0  0  0  0  0  0  0  0  0  0
  150.2141  141.0050  154.0801 H   0  0  0  0  0  0  0  0  0  0  0  0
  147.5901  141.5994  155.5425 H   0  0  0  0  0  0  0  0  0  0  0  0
  148.3229  142.5457  154.2745 H   0  0  0  0  0  0  0  0  0  0  0  0
  146.0022  138.1867  155.2255 H   0  0  0  0  0  0  0  0  0  0  0  0
  145.3310  139.7566  154.8044 H   0  0  0  0  0  0  0  0  0  0  0  0
  146.5950  139.6324  156.0162 H   0  0  0  0  0  0  0  0  0  0  0  0
  146.5370  137.7133  152.7531 H   0  0  0  0  0  0  0  0  0  0  0  0
  147.4229  138.9056  151.8087 H   0  0  0  0  0  0  0  0  0  0  0  0
  145.7938  139.2615  152.3634 H   0  0  0  0  0  0  0  0  0  0  0  0
  149.2456  138.6438  153.3763 H   0  0  0  0  0  0  0  0  0  0  0  0
  148.4725  137.6628  154.5936 H   0  0  0  0  0  0  0  0  0  0  0  0
  1  2  1  0  0  0  0
  1 30  1  0  0  0  0
  1 31  1  0  0  0  0
  1 32  1  0  0  0  0
  2  3  1  0  0  0  0
  2 33  1  0  0  0  0
  2 34  1  0  0  0  0
  3  4  1  0  0  0  0
  3 22  1  0  0  0  0
  4  9  1  0  0  0  0
  4  5  2  0  0  0  0
  5  6  1  0  0  0  0
  6  7  2  0  0  0  0
  6 35  1  0  0  0  0
  7  8  1  0  0  0  0
  8 12  1  0  0  0  0
  8  9  2  0  0  0  0
  9 10  1  0  0  0  0
 10 11  2  0  0  0  0
 11 12  1  0  0  0  0
 11 36  1  0  0  0  0
 12 13  1  0  0  0  0
 13 14  1  0  0  0  0
 13 37  1  0  0  0  0
 13 38  1  0  0  0  0
 14 21  1  0  0  0  0
 14 15  1  0  0  0  0
 14 17  1  0  0  0  0
 15 16  1  0  0  0  0
 15 39  1  0  0  0  0
 15 40  1  0  0  0  0
 16 41  1  0  0  0  0
 17 18  1  0  0  0  0
 17 42  1  0  0  0  0
 17 43  1  0  0  0  0
 18 19  1  0  0  0  0
 18 44  1  0  0  0  0
 18 45  1  0  0  0  0
 19 20  1  0  0  0  0
 20 21  1  0  0  0  0
 20 46  1  0  0  0  0
 20 47  1  0  0  0  0
 21 48  1  0  0  0  0
 21 49  1  0  0  0  0
 22 29  1  0  0  0  0
 22 23  1  0  0  0  0
 22 50  1  0  0  0  0
 23 24  1  0  0  0  0
 23 51  1  0  0  0  0
 23 52  1  0  0  0  0
 24 25  1  0  0  0  0
 24 53  1  0  0  0  0
 24 54  1  0  0  0  0
 25 26  1  0  0  0  0
 26 27  1  0  0  0  0
 26 28  1  0  0  0  0
 26 29  1  0  0  0  0
 27 55  1  0  0  0  0
 27 56  1  0  0  0  0
 27 57  1  0  0  0  0
 28 58  1  0  0  0  0
 28 59  1  0  0  0  0
 28 60  1  0  0  0  0
 29 61  1  0  0  0  0
 29 62  1  0  0  0  0
M  END
> <s_m_source_file>
AV-unprocessed.smi

> <i_m_source_file_index>
85

> <i_lp_mmshare_version>
43012

> <i_f3d_flags>
0

> <s_epik_input>
W0NIM11DMShbQ0gzXSlPW0NIMl1bQ0gyXVtDQEhdKFtDSDJdMSlOKFtDSDJdW0NIM10pYyhuW2NIXW4yKWMoYzIzKW5bY0hdbjNbQ0gyXUM0KFtDSDJdW09IXSlbQ0gyXVtDSDJdT1tDSDJdW0NIMl00

> <s_epik_cmdline>
J2VwaWtfcHl0aG9uJywgJy1waCcsICc3LjAnLCAnLXRuJywgJzgnLCAnLW1hJywgJzIwMCcsICctbWV0YWxfYmluZGluZycsICctaW1hZScsICc8aW5maWxlLm1hZT4nLCAnLW9tYWUnLCAnPG91dGZpbGUubWFlPic=

> <r_lp_tautomer_probability>
1

> <r_epik_Ionization_Penalty>
0.00336056

> <r_epik_Ionization_Penalty_Charging>
0

> <r_epik_Ionization_Penalty_Neutral>
0.00336056

> <r_epik_State_Penalty>
0.00222191

> <r_epik_Charging_Adjusted_Penalty>
0.00222191

> <i_epik_Tot_Q>
0

> <i_epik_Tot_abs_Q>
0

> <r_epik_Metal_State_Penalty>
-0

> <b_epik_Metal_Only>
0

> <s_lp_Force_Field>
OPLS_2005

> <r_lp_Energy>
36.9586

> <b_lp_Chiralities_Consistent>
1

> <s_lp_Variant>
AV-unprocessed.smi:85-2

> <Gold.Version>
5.8.1

> <Gold.Id.Protein>
6NUR|6NUR_protein|mol2

> <Gold.PLP.Fitness>
46.1368

> <Gold.PLP.PLP>
-41.1950

> <Gold.PLP.part.hbond>
-2.0000

> <Gold.PLP.part.metal>
0.0000

> <Gold.PLP.part.buried>
-6.0319

> <Gold.PLP.part.nonpolar>
-34.4821

> <Gold.PLP.part.repulsive>
0.1832

> <Gold.PLP.ligand.clash>
0.0000

> <Gold.PLP.ligand.torsion>
0.8544

> <Gold.PLP.Chemscore.Hbond>
1.8320

> <Gold.PLP.Chemscore.CHOScore>
0.0000

> <Gold.PLP.Chemscore.Metal>
0.0000

> <Gold.Chemscore.Hbonds>
donor molecule, donor type, donor heavy atom, donor atom, acceptor molecule, acceptor atom, score
      P1  H  6896  6907       L1     7  1.00
      P1  H  6934  6947       L1    16  0.67

> <Gold.PLP.Chemscore.Internal.Correction>
1.1546

> <Gold.Rescore>
     Score         DG    S(hbond)    S(metal)    S(lipo)     H(rot)  DE(clash)    DE(int)     intcor
     12.70     -16.49       1.81        0.00      94.99       2.41       0.04       3.76       ----

> <Gold.Chemscore.Fitness>
12.6980

> <Gold.Chemscore.DG>
-16.4891

> <Gold.Chemscore.ZeroCoef>
-5.4800

> <Gold.Chemscore.Hbond>
1.8147

> <Gold.Chemscore.Metal>
0.0000

> <Gold.Chemscore.Lipo>
94.9856

> <Gold.Chemscore.Internal_Hbond>
0.0000

> <Gold.Chemscore.DEClash>
0.0358

> <Gold.Chemscore.DEInternal>
3.7553

> <Gold.Chemscore.Rot>
2.4083

> <Gold.Chemscore.Internal.Correction>
   9.000000E+99

> <Gold.Chemscore.Hbonds>
donor molecule, donor type, donor heavy atom, donor atom, acceptor molecule, acceptor atom, score
      P1  H  6896  6907       L1     7  0.45
      P1  H  6934  6947       L1    16  0.17

> <Gold.Chemscore.Hbond.Weighted>
-6.0610

> <Gold.Chemscore.Metal.Weighted>
-0.0000

> <Gold.Chemscore.Lipo.Weighted>
-11.1133

> <Gold.Chemscore.Internal_Hbond.Weighted>
0.0000

> <Gold.Chemscore.DEClash.Weighted>
0.0358

> <Gold.Chemscore.DEInternal.Weighted>
3.7553

> <Gold.Chemscore.Rot.Weighted>
6.1652

> <Gold.Chemscore.Internal.Correction.Weighted>
   9.000000E+99

> <Gold.Protein.RotatedTorsions>
[ 6907 6896 6895 6894 ] final  -10.79 input  -60.11 | X-H torsion
[ 7974 7965 7964 7962 ] final   87.40 input  175.53 | X-H torsion
[ 8008 7997 7996 7995 ] final  -25.04 input   59.86 | X-H torsion
[ 10167 10162 10161 10158 ] final   50.89 input  -65.29 | X-H torsion
[ 10718 10713 10712 10709 ] final  122.40 input   66.30 | X-H torsion
[ 10763 10752 10751 10750 ] final  127.16 input  -60.55 | X-H torsion
[ 11005 11000 10999 10996 ] final  108.73 input  -57.11 | X-H torsion

> <Gold.Protein.ActiveResidues>
 VAL166  LYS551  ARG553  GLY616  TRP617  ASP618  TYR619  PRO620  LYS621  CYS622 
 ASP623  PHE694  ASN695  SER759  ASP760  ASP761  ALA762  ILE779  LEU786  VAL792 
 PHE793  MET794  SER795  GLU796  ALA797  LYS798  CYS799  TRP800  GLU811  SER814 

> <Gold.Protein.RotatedAtoms>
  151.3965  135.0964  159.9542 H   0  0  0  0  0  0  0  0  0  0  0  0  # atno 6907 bound_to 6896
  152.5064  133.8930  159.7413 H   0  0  0  0  0  0  0  0  0  0  0  0  # atno 6908 bound_to 6896
  150.9394  133.6617  159.2822 H   0  0  0  0  0  0  0  0  0  0  0  0  # atno 6909 bound_to 6896
  145.5595  139.2302  143.2467 H   0  0  0  0  0  0  0  0  0  0  0  0  # atno 7974 bound_to 7965
  154.4496  140.1937  156.0558 H   0  0  0  0  0  0  0  0  0  0  0  0  # atno 8008 bound_to 7997
  156.0620  140.3295  155.7445 H   0  0  0  0  0  0  0  0  0  0  0  0  # atno 8009 bound_to 7997
  155.5397  140.0585  157.2863 H   0  0  0  0  0  0  0  0  0  0  0  0  # atno 8010 bound_to 7997
  140.2677  144.3301  150.6299 H   0  0  0  0  0  0  0  0  0  0  0  0  # atno 10167 bound_to 10162
  157.5745  131.1080  150.8305 H   0  0  0  0  0  0  0  0  0  0  0  0  # atno 10718 bound_to 10713
  153.7049  135.3277  155.3233 H   0  0  0  0  0  0  0  0  0  0  0  0  # atno 10763 bound_to 10752
  154.8402  135.4463  154.1373 H   0  0  0  0  0  0  0  0  0  0  0  0  # atno 10764 bound_to 10752
  153.2451  135.6975  153.7819 H   0  0  0  0  0  0  0  0  0  0  0  0  # atno 10765 bound_to 10752
  139.8849  134.9438  156.6017 H   0  0  0  0  0  0  0  0  0  0  0  0  # atno 11005 bound_to 11000
  146.1861  140.6419  142.9167 LP  0  0  0  0  0  0  0  0  0  0  0  0  # atno 17320 bound_to 7965
  144.7490  140.5142  143.6815 LP  0  0  0  0  0  0  0  0  0  0  0  0  # atno 17321 bound_to 7965
  140.5915  143.2168  151.7244 LP  0  0  0  0  0  0  0  0  0  0  0  0  # atno 17342 bound_to 10162
  139.4998  144.3932  152.0258 LP  0  0  0  0  0  0  0  0  0  0  0  0  # atno 17343 bound_to 10162
  156.8767  130.5165  149.5293 LP  0  0  0  0  0  0  0  0  0  0  0  0  # atno 17370 bound_to 10713
  156.0790  130.5805  150.9527 LP  0  0  0  0  0  0  0  0  0  0  0  0  # atno 17371 bound_to 10713
  140.7879  133.8607  155.8621 LP  0  0  0  0  0  0  0  0  0  0  0  0  # atno 17394 bound_to 11000
  140.9703  134.1539  157.4581 LP  0  0  0  0  0  0  0  0  0  0  0  0  # atno 17395 bound_to 11000

$$$$
