AV-unprocessed.smi:2552|AV-procd|sdf|10016|dock8
  -GOLD-   2272014 63D 1   1.00000     0.00000
 Structure written by MMmdl.
 34 36  0  0  0  0  0  0  0  0  1 V2000
  149.5140  135.8546  158.5867 C   0  0  0  0  0  0  0  0  0  0  0  0
  149.6947  136.5951  157.3403 N   0  0  0  0  0  0  0  0  0  0  0  0
  149.6426  135.8127  156.1806 N   0  0  0  0  0  0  0  0  0  0  0  0
  149.7824  136.3404  155.0045 C   0  0  0  0  0  0  0  0  0  0  0  0
  149.9976  137.7815  154.9153 C   0  0  0  0  0  0  0  0  0  0  0  0
  150.1872  138.7112  153.8560 C   0  0  0  0  0  0  0  0  0  0  0  0
  150.3456  139.9548  154.3055 N   0  0  0  0  0  0  0  0  0  0  0  0
  150.2693  139.8705  155.6592 N   0  0  0  0  0  0  0  0  0  0  0  0
  150.4090  141.0688  156.4721 C   0  0  0  0  0  0  0  0  0  0  0  0
  151.4540  140.9108  157.5951 C   0  0  1  0  0  0  0  0  0  0  0  0
  152.6648  140.4069  157.0623 O   0  0  0  0  0  0  0  0  0  0  0  0
  151.6514  142.2198  158.3480 C   0  0  0  0  0  0  0  0  0  0  0  0
  150.9697  143.3886  157.9400 C   0  0  0  0  0  0  0  0  0  0  0  0
  151.1448  144.5972  158.6410 C   0  0  0  0  0  0  0  0  0  0  0  0
  151.9996  144.6455  159.7583 C   0  0  0  0  0  0  0  0  0  0  0  0
  152.6765  143.4837  160.1749 C   0  0  0  0  0  0  0  0  0  0  0  0
  152.5030  142.2734  159.4752 C   0  0  0  0  0  0  0  0  0  0  0  0
  153.1572  141.1640  159.8957 F   0  0  0  0  0  0  0  0  0  0  0  0
  150.0546  138.5578  156.0252 C   0  0  0  0  0  0  0  0  0  0  0  0
  149.8938  137.9475  157.3658 C   0  0  0  0  0  0  0  0  0  0  0  0
  149.9382  138.6209  158.3955 O   0  0  0  0  0  0  0  0  0  0  0  0
  148.6489  136.2304  159.1348 H   0  0  0  0  0  0  0  0  0  0  0  0
  150.3931  135.9554  159.2247 H   0  0  0  0  0  0  0  0  0  0  0  0
  149.3540  134.7896  158.4100 H   0  0  0  0  0  0  0  0  0  0  0  0
  149.7417  135.7294  154.1030 H   0  0  0  0  0  0  0  0  0  0  0  0
  150.2145  138.5299  152.7917 H   0  0  0  0  0  0  0  0  0  0  0  0
  150.6734  141.9066  155.8246 H   0  0  0  0  0  0  0  0  0  0  0  0
  149.4326  141.3073  156.8953 H   0  0  0  0  0  0  0  0  0  0  0  0
  151.1032  140.1575  158.3008 H   0  0  0  0  0  0  0  0  0  0  0  0
  152.4909  139.5669  156.6662 H   0  0  0  0  0  0  0  0  0  0  0  0
  150.3062  143.3628  157.0879 H   0  0  0  0  0  0  0  0  0  0  0  0
  150.6213  145.4866  158.3224 H   0  0  0  0  0  0  0  0  0  0  0  0
  152.1340  145.5720  160.2970 H   0  0  0  0  0  0  0  0  0  0  0  0
  153.3289  143.5194  161.0348 H   0  0  0  0  0  0  0  0  0  0  0  0
  1  2  1  0  0  0  0
  1 22  1  0  0  0  0
  1 23  1  0  0  0  0
  1 24  1  0  0  0  0
  2 20  1  0  0  0  0
  2  3  1  0  0  0  0
  3  4  2  0  0  0  0
  4  5  1  0  0  0  0
  4 25  1  0  0  0  0
  5 19  2  0  0  0  0
  5  6  1  0  0  0  0
  6  7  2  0  0  0  0
  6 26  1  0  0  0  0
  7  8  1  0  0  0  0
  8  9  1  0  0  0  0
  8 19  1  0  0  0  0
  9 10  1  0  0  0  0
  9 27  1  0  0  0  0
  9 28  1  0  0  0  0
 10 11  1  0  0  0  0
 10 12  1  0  0  0  0
 10 29  1  0  0  0  0
 11 30  1  0  0  0  0
 12 17  1  0  0  0  0
 12 13  2  0  0  0  0
 13 14  1  0  0  0  0
 13 31  1  0  0  0  0
 14 15  2  0  0  0  0
 14 32  1  0  0  0  0
 15 16  1  0  0  0  0
 15 33  1  0  0  0  0
 16 17  2  0  0  0  0
 16 34  1  0  0  0  0
 17 18  1  0  0  0  0
 19 20  1  0  0  0  0
 20 21  2  0  0  0  0
M  END
> <s_m_source_file>
AV-unprocessed.smi

> <i_m_source_file_index>
2552

> <i_lp_mmshare_version>
43012

> <i_f3d_flags>
0

> <s_epik_input>
W2NIXTFubihbQ0gzXSljKD1PKWMoYzEyKW4obltjSF0yKVtDSDJdW0NASF0oW09IXSljM1tjSF1bY0hdW2NIXVtjSF1jM0Y=

> <s_epik_cmdline>
J2VwaWtfcHl0aG9uJywgJy1waCcsICc3LjAnLCAnLXRuJywgJzgnLCAnLW1hJywgJzIwMCcsICctbWV0YWxfYmluZGluZycsICctaW1hZScsICc8aW5maWxlLm1hZT4nLCAnLW9tYWUnLCAnPG91dGZpbGUubWFlPic=

> <r_lp_tautomer_probability>
1

> <r_epik_Ionization_Penalty>
6.28011e-06

> <r_epik_Ionization_Penalty_Charging>
1.65421e-10

> <r_epik_Ionization_Penalty_Neutral>
6.27995e-06

> <r_epik_State_Penalty>
-0

> <r_epik_Charging_Adjusted_Penalty>
1.65421e-10

> <i_epik_Tot_Q>
0

> <i_epik_Tot_abs_Q>
0

> <r_epik_Metal_State_Penalty>
-0

> <b_epik_Metal_Only>
0

> <s_lp_Force_Field>
OPLS_2005

> <r_lp_Energy>
28.1215

> <b_lp_Chiralities_Consistent>
1

> <s_lp_Variant>
AV-unprocessed.smi:2552-2

> <Gold.Version>
5.8.1

> <Gold.Id.Protein>
6NUR|6NUR_protein|mol2

> <Gold.PLP.Fitness>
51.0346

> <Gold.PLP.PLP>
-37.4105

> <Gold.PLP.part.hbond>
-2.0000

> <Gold.PLP.part.metal>
0.0000

> <Gold.PLP.part.buried>
-4.1061

> <Gold.PLP.part.nonpolar>
-31.6528

> <Gold.PLP.part.repulsive>
0.1478

> <Gold.PLP.ligand.clash>
0.0000

> <Gold.PLP.ligand.torsion>
0.1168

> <Gold.PLP.Chemscore.Hbond>
1.9920

> <Gold.PLP.Chemscore.CHOScore>
2.6196

> <Gold.PLP.Chemscore.Metal>
0.0000

> <Gold.Chemscore.Hbonds>
donor molecule, donor type, donor heavy atom, donor atom, acceptor molecule, acceptor atom, score
      P1  H  7989  7998       L1     7  1.00
      P1  H  7997  8008       L1    11  0.33
      L1  C     4    25       P1  7948  1.00
      L1  C     6    26       P1  7948  0.36
      L1  C     6    26       P1  7957  0.94

> <Gold.PLP.Chemscore.Internal.Correction>
0.0230

> <Gold.Rescore>
     Score         DG    S(hbond)    S(metal)    S(lipo)     H(rot)  DE(clash)    DE(int)     intcor
     15.59     -18.42       1.92        0.00      99.94       2.02       0.11       2.72       ----

> <Gold.Chemscore.Fitness>
15.5895

> <Gold.Chemscore.DG>
-18.4208

> <Gold.Chemscore.ZeroCoef>
-5.4800

> <Gold.Chemscore.Hbond>
1.9205

> <Gold.Chemscore.Metal>
0.0000

> <Gold.Chemscore.Lipo>
99.9380

> <Gold.Chemscore.Internal_Hbond>
0.0000

> <Gold.Chemscore.DEClash>
0.1103

> <Gold.Chemscore.DEInternal>
2.7210

> <Gold.Chemscore.Rot>
2.0181

> <Gold.Chemscore.Internal.Correction>
   9.000000E+99

> <Gold.Chemscore.Hbonds>
donor molecule, donor type, donor heavy atom, donor atom, acceptor molecule, acceptor atom, score
      P1  H  7989  7998       L1     7  0.87
      P1  H  7997  8008       L1    11  0.01

> <Gold.Chemscore.Hbond.Weighted>
-6.4144

> <Gold.Chemscore.Metal.Weighted>
-0.0000

> <Gold.Chemscore.Lipo.Weighted>
-11.6927

> <Gold.Chemscore.Internal_Hbond.Weighted>
0.0000

> <Gold.Chemscore.DEClash.Weighted>
0.1103

> <Gold.Chemscore.DEInternal.Weighted>
2.7210

> <Gold.Chemscore.Rot.Weighted>
5.1663

> <Gold.Chemscore.Internal.Correction.Weighted>
   9.000000E+99

> <Gold.Protein.RotatedTorsions>
[ 6907 6896 6895 6894 ] final -150.25 input  -60.11 | X-H torsion
[ 7974 7965 7964 7962 ] final  143.05 input  175.53 | X-H torsion
[ 8008 7997 7996 7995 ] final  -69.66 input   59.86 | X-H torsion
[ 10167 10162 10161 10158 ] final  -86.54 input  -65.29 | X-H torsion
[ 10718 10713 10712 10709 ] final   22.88 input   66.30 | X-H torsion
[ 10763 10752 10751 10750 ] final  -44.56 input  -60.55 | X-H torsion
[ 11005 11000 10999 10996 ] final   65.28 input  -57.11 | X-H torsion

> <Gold.Protein.ActiveResidues>
 VAL166  LYS551  ARG553  GLY616  TRP617  ASP618  TYR619  PRO620  LYS621  CYS622 
 ASP623  PHE694  ASN695  SER759  ASP760  ASP761  ALA762  ILE779  LEU786  VAL792 
 PHE793  MET794  SER795  GLU796  ALA797  LYS798  CYS799  TRP800  GLU811  SER814 

> <Gold.Protein.RotatedAtoms>
  151.1958  133.4640  159.2595 H   0  0  0  0  0  0  0  0  0  0  0  0  # atno 6907 bound_to 6896
  151.1118  135.0031  159.8507 H   0  0  0  0  0  0  0  0  0  0  0  0  # atno 6908 bound_to 6896
  152.5451  134.1877  159.8714 H   0  0  0  0  0  0  0  0  0  0  0  0  # atno 6909 bound_to 6896
  144.8954  139.5498  143.5779 H   0  0  0  0  0  0  0  0  0  0  0  0  # atno 7974 bound_to 7965
  154.4955  140.0849  156.7687 H   0  0  0  0  0  0  0  0  0  0  0  0  # atno 8008 bound_to 7997
  155.4127  140.3442  155.4247 H   0  0  0  0  0  0  0  0  0  0  0  0  # atno 8009 bound_to 7997
  156.1388  140.1523  156.8941 H   0  0  0  0  0  0  0  0  0  0  0  0  # atno 8010 bound_to 7997
  140.3932  143.2695  151.9238 H   0  0  0  0  0  0  0  0  0  0  0  0  # atno 10167 bound_to 10162
  157.1584  130.6706  149.6036 H   0  0  0  0  0  0  0  0  0  0  0  0  # atno 10718 bound_to 10713
  154.0140  135.6678  153.4767 H   0  0  0  0  0  0  0  0  0  0  0  0  # atno 10763 bound_to 10752
  153.0608  135.5029  154.8086 H   0  0  0  0  0  0  0  0  0  0  0  0  # atno 10764 bound_to 10752
  154.6978  135.3073  154.9350 H   0  0  0  0  0  0  0  0  0  0  0  0  # atno 10765 bound_to 10752
  139.9904  134.6600  156.0101 H   0  0  0  0  0  0  0  0  0  0  0  0  # atno 11005 bound_to 11000
  146.3078  139.7640  142.9043 LP  0  0  0  0  0  0  0  0  0  0  0  0  # atno 17320 bound_to 7965
  145.3709  141.0342  143.3231 LP  0  0  0  0  0  0  0  0  0  0  0  0  # atno 17321 bound_to 7965
  139.4788  144.5707  151.8092 LP  0  0  0  0  0  0  0  0  0  0  0  0  # atno 17342 bound_to 10162
  140.4818  144.1438  150.5934 LP  0  0  0  0  0  0  0  0  0  0  0  0  # atno 17343 bound_to 10162
  155.9758  130.4720  150.6484 LP  0  0  0  0  0  0  0  0  0  0  0  0  # atno 17370 bound_to 10713
  157.4155  131.0829  151.1181 LP  0  0  0  0  0  0  0  0  0  0  0  0  # atno 17371 bound_to 10713
  141.1561  133.6543  156.4166 LP  0  0  0  0  0  0  0  0  0  0  0  0  # atno 17394 bound_to 11000
  140.4919  134.6567  157.5214 LP  0  0  0  0  0  0  0  0  0  0  0  0  # atno 17395 bound_to 11000

$$$$
