AV-unprocessed.smi:2882|AV-procd|sdf|11073|dock1
  -GOLD-   2272015543D 1   1.00000     0.00000
 Structure written by MMmdl.
 28 30  0  0  0  0  0  0  0  0  1 V2000
  153.3041  138.7322  156.0057 N   0  0  0  0  0  0  0  0  0  0  0  0
  152.3641  139.3869  155.8411 C   0  0  0  0  0  0  0  0  0  0  0  0
  151.1796  140.2103  155.6340 C   0  0  0  0  0  0  0  0  0  0  0  0
  150.4485  139.9561  154.5241 N   0  0  0  0  0  0  0  0  0  0  0  0
  149.3456  140.7087  154.3246 C   0  0  0  0  0  0  0  0  0  0  0  0
  148.9681  141.7186  155.2305 C   0  0  0  0  0  0  0  0  0  0  0  0
  149.6917  141.9793  156.3397 N   0  0  0  0  0  0  0  0  0  0  0  0
  150.8008  141.2284  156.5539 C   0  0  0  0  0  0  0  0  0  0  0  0
  151.5658  141.4888  157.7056 N   0  0  0  0  0  0  0  0  0  0  0  0
  150.9862  142.1764  158.8555 C   0  0  2  0  0  0  0  0  0  0  0  0
  150.3897  143.5397  158.4977 C   0  0  0  0  0  0  0  0  0  0  0  0
  151.0966  144.4661  159.4976 C   0  0  2  0  0  0  0  0  0  0  0  0
  152.5569  144.7162  159.0994 C   0  0  0  0  0  0  0  0  0  0  0  0
  153.2021  143.3713  159.4278 C   0  0  0  0  0  0  0  0  0  0  0  0
  152.0027  142.5614  159.9497 C   0  0  1  0  0  0  0  0  0  0  0  0
  151.2752  143.5908  160.5985 O   0  0  0  0  0  0  0  0  0  0  0  0
  148.7625  140.5052  153.4387 H   0  0  0  0  0  0  0  0  0  0  0  0
  148.0852  142.3180  155.0652 H   0  0  0  0  0  0  0  0  0  0  0  0
  152.4084  140.9529  157.8563 H   0  0  0  0  0  0  0  0  0  0  0  0
  150.1987  141.5586  159.2891 H   0  0  0  0  0  0  0  0  0  0  0  0
  150.5671  143.8418  157.4644 H   0  0  0  0  0  0  0  0  0  0  0  0
  149.3124  143.5349  158.6671 H   0  0  0  0  0  0  0  0  0  0  0  0
  150.5403  145.3748  159.7293 H   0  0  0  0  0  0  0  0  0  0  0  0
  152.6603  144.9917  158.0494 H   0  0  0  0  0  0  0  0  0  0  0  0
  152.9958  145.5092  159.7059 H   0  0  0  0  0  0  0  0  0  0  0  0
  153.6904  142.9111  158.5685 H   0  0  0  0  0  0  0  0  0  0  0  0
  153.9499  143.4935  160.2122 H   0  0  0  0  0  0  0  0  0  0  0  0
  152.2821  141.7362  160.6052 H   0  0  0  0  0  0  0  0  0  0  0  0
  1  2  3  0  0  0  0
  2  3  1  0  0  0  0
  3  8  1  0  0  0  0
  3  4  2  0  0  0  0
  4  5  1  0  0  0  0
  5  6  2  0  0  0  0
  5 17  1  0  0  0  0
  6  7  1  0  0  0  0
  6 18  1  0  0  0  0
  7  8  2  0  0  0  0
  8  9  1  0  0  0  0
  9 10  1  0  0  0  0
  9 19  1  0  0  0  0
 10 15  1  0  0  0  0
 10 11  1  0  0  0  0
 10 20  1  0  0  0  0
 11 12  1  0  0  0  0
 11 21  1  0  0  0  0
 11 22  1  0  0  0  0
 12 16  1  0  0  0  0
 12 13  1  0  0  0  0
 12 23  1  0  0  0  0
 13 14  1  0  0  0  0
 13 24  1  0  0  0  0
 13 25  1  0  0  0  0
 14 15  1  0  0  0  0
 14 26  1  0  0  0  0
 14 27  1  0  0  0  0
 15 16  1  0  0  0  0
 15 28  1  0  0  0  0
M  END
> <s_m_source_file>
AV-unprocessed.smi

> <i_m_source_file_index>
2882

> <i_lp_mmshare_version>
43012

> <i_f3d_flags>
0

> <s_epik_input>
TiNDYzFuW2NIXVtjSF1uYzFbTkhdW0NASF0oW0NIMl1bQ0BASF0yMylbQ0BASF0oTzMpW0NIMl1bQ0gyXTI=

> <s_epik_cmdline>
J2VwaWtfcHl0aG9uJywgJy1waCcsICc3LjAnLCAnLXRuJywgJzgnLCAnLW1hJywgJzIwMCcsICctbWV0YWxfYmluZGluZycsICctaW1hZScsICc8aW5maWxlLm1hZT4nLCAnLW9tYWUnLCAnPG91dGZpbGUubWFlPic=

> <r_lp_tautomer_probability>
1

> <r_epik_Ionization_Penalty>
4.95445e-05

> <r_epik_Ionization_Penalty_Charging>
0

> <r_epik_Ionization_Penalty_Neutral>
4.95445e-05

> <r_epik_State_Penalty>
-0

> <r_epik_Charging_Adjusted_Penalty>
0

> <i_epik_Tot_Q>
0

> <i_epik_Tot_abs_Q>
0

> <r_epik_Metal_State_Penalty>
-0

> <b_epik_Metal_Only>
0

> <s_lp_Force_Field>
OPLS_2005

> <r_lp_Energy>
50.4858

> <b_lp_Chiralities_Consistent>
1

> <s_lp_Variant>
AV-unprocessed.smi:2882-3

> <Gold.Version>
5.8.1

> <Gold.Id.Protein>
6NUR|6NUR_protein|mol2

> <Gold.PLP.Fitness>
40.8365

> <Gold.PLP.PLP>
-33.5513

> <Gold.PLP.part.hbond>
-2.7022

> <Gold.PLP.part.metal>
0.0000

> <Gold.PLP.part.buried>
-1.9659

> <Gold.PLP.part.nonpolar>
-29.8951

> <Gold.PLP.part.repulsive>
1.3909

> <Gold.PLP.ligand.clash>
0.0000

> <Gold.PLP.ligand.torsion>
0.1383

> <Gold.PLP.Chemscore.Hbond>
1.3160

> <Gold.PLP.Chemscore.CHOScore>
1.2009

> <Gold.PLP.Chemscore.Metal>
0.0000

> <Gold.Chemscore.Hbonds>
donor molecule, donor type, donor heavy atom, donor atom, acceptor molecule, acceptor atom, score
      P1  H  7989  7998       L1     4  0.52
      P1  H  7997  8009       L1     1  0.73
      L1  C     5    17       P1  7957  0.95
      L1  C     6    18       P1  8028  0.42

> <Gold.PLP.Chemscore.Internal.Correction>
0.0112

> <Gold.Rescore>
     Score         DG    S(hbond)    S(metal)    S(lipo)     H(rot)  DE(clash)    DE(int)     intcor
     11.77     -13.31       0.08        0.00      86.52       1.00       0.03       1.52       ----

> <Gold.Chemscore.Fitness>
11.7730

> <Gold.Chemscore.DG>
-13.3141

> <Gold.Chemscore.ZeroCoef>
-5.4800

> <Gold.Chemscore.Hbond>
0.0811

> <Gold.Chemscore.Metal>
0.0000

> <Gold.Chemscore.Lipo>
86.5241

> <Gold.Chemscore.Internal_Hbond>
0.0000

> <Gold.Chemscore.DEClash>
0.0255

> <Gold.Chemscore.DEInternal>
1.5156

> <Gold.Chemscore.Rot>
1.0000

> <Gold.Chemscore.Internal.Correction>
   9.000000E+99

> <Gold.Chemscore.Hbonds>
donor molecule, donor type, donor heavy atom, donor atom, acceptor molecule, acceptor atom, score
      P1  H  7989  7998       L1     4  0.01
      P1  H  7997  8009       L1     1  0.09

> <Gold.Chemscore.Hbond.Weighted>
-0.2708

> <Gold.Chemscore.Metal.Weighted>
-0.0000

> <Gold.Chemscore.Lipo.Weighted>
-10.1233

> <Gold.Chemscore.Internal_Hbond.Weighted>
0.0000

> <Gold.Chemscore.DEClash.Weighted>
0.0255

> <Gold.Chemscore.DEInternal.Weighted>
1.5156

> <Gold.Chemscore.Rot.Weighted>
2.5600

> <Gold.Chemscore.Internal.Correction.Weighted>
   9.000000E+99

> <Gold.Protein.RotatedTorsions>
[ 6907 6896 6895 6894 ] final  -91.07 input  -60.11 | X-H torsion
[ 7974 7965 7964 7962 ] final -136.19 input  175.53 | X-H torsion
[ 8008 7997 7996 7995 ] final -165.65 input   59.86 | X-H torsion
[ 10167 10162 10161 10158 ] final  140.90 input  -65.29 | X-H torsion
[ 10718 10713 10712 10709 ] final -158.81 input   66.30 | X-H torsion
[ 10763 10752 10751 10750 ] final -147.18 input  -60.55 | X-H torsion
[ 11005 11000 10999 10996 ] final   50.26 input  -57.11 | X-H torsion

> <Gold.Protein.ActiveResidues>
 VAL166  LYS551  ARG553  GLY616  TRP617  ASP618  TYR619  PRO620  LYS621  CYS622 
 ASP623  PHE694  ASN695  SER759  ASP760  ASP761  ALA762  ILE779  LEU786  VAL792 
 PHE793  MET794  SER795  GLU796  ALA797  LYS798  CYS799  TRP800  GLU811  SER814 

> <Gold.Protein.RotatedAtoms>
  150.6888  134.2333  159.4443 H   0  0  0  0  0  0  0  0  0  0  0  0  # atno 6907 bound_to 6896
  152.0282  134.9780  160.0581 H   0  0  0  0  0  0  0  0  0  0  0  0  # atno 6908 bound_to 6896
  152.1330  133.4384  159.4767 H   0  0  0  0  0  0  0  0  0  0  0  0  # atno 6909 bound_to 6896
  144.8949  140.6692  143.5122 H   0  0  0  0  0  0  0  0  0  0  0  0  # atno 7974 bound_to 7965
  155.8527  140.0965  157.1664 H   0  0  0  0  0  0  0  0  0  0  0  0  # atno 8008 bound_to 7997
  154.3986  140.1380  156.3926 H   0  0  0  0  0  0  0  0  0  0  0  0  # atno 8009 bound_to 7997
  155.7943  140.3455  155.5369 H   0  0  0  0  0  0  0  0  0  0  0  0  # atno 8010 bound_to 7997
  139.5035  144.6205  151.6062 H   0  0  0  0  0  0  0  0  0  0  0  0  # atno 10167 bound_to 10162
  156.5593  130.8640  151.2804 H   0  0  0  0  0  0  0  0  0  0  0  0  # atno 10718 bound_to 10713
  154.8299  135.3367  154.6778 H   0  0  0  0  0  0  0  0  0  0  0  0  # atno 10763 bound_to 10752
  153.7400  135.6946  153.4974 H   0  0  0  0  0  0  0  0  0  0  0  0  # atno 10764 bound_to 10752
  153.2251  135.4435  155.0484 H   0  0  0  0  0  0  0  0  0  0  0  0  # atno 10765 bound_to 10752
  140.1033  134.5052  155.8743 H   0  0  0  0  0  0  0  0  0  0  0  0  # atno 11005 bound_to 11000
  145.3718  139.1657  143.4328 LP  0  0  0  0  0  0  0  0  0  0  0  0  # atno 17320 bound_to 7965
  146.3075  140.3791  142.8682 LP  0  0  0  0  0  0  0  0  0  0  0  0  # atno 17321 bound_to 7965
  140.5906  143.9787  150.6322 LP  0  0  0  0  0  0  0  0  0  0  0  0  # atno 17342 bound_to 10162
  140.2966  143.3288  152.1012 LP  0  0  0  0  0  0  0  0  0  0  0  0  # atno 17343 bound_to 10162
  157.7372  130.9791  150.2178 LP  0  0  0  0  0  0  0  0  0  0  0  0  # atno 17370 bound_to 10713
  156.2813  130.3734  149.7932 LP  0  0  0  0  0  0  0  0  0  0  0  0  # atno 17371 bound_to 10713
  141.2111  133.6703  156.6561 LP  0  0  0  0  0  0  0  0  0  0  0  0  # atno 17394 bound_to 11000
  140.3190  134.8023  157.4237 LP  0  0  0  0  0  0  0  0  0  0  0  0  # atno 17395 bound_to 11000

$$$$
