AV-unprocessed.smi:2869|AV-procd|sdf|11028|dock9
  -GOLD-   2272015493D 1   1.00000     0.00000
 Structure written by MMmdl.
 49 51  0  0  0  0  0  0  0  0  1 V2000
  144.8289  145.0787  152.1226 N   0  0  0  0  0  0  0  0  0  0  0  0
  145.1431  144.4510  153.0429 C   0  0  0  0  0  0  0  0  0  0  0  0
  145.5213  143.7004  154.1944 C   0  0  0  0  0  0  0  0  0  0  0  0
  145.0863  144.0249  155.4292 C   0  0  0  0  0  0  0  0  0  0  0  0
  145.4331  143.3032  156.5505 N   0  0  0  0  0  0  0  0  0  0  0  0
  145.0732  143.7492  157.8671 C   0  0  0  0  0  0  0  0  0  0  0  0
  143.6229  143.7491  158.3104 C   0  0  0  0  0  0  0  0  0  0  0  0
  144.3222  145.0540  158.0177 C   0  0  0  0  0  0  0  0  0  0  0  0
  146.3423  142.2273  156.4497 C   0  0  0  0  0  0  0  0  0  0  0  0
  146.7269  141.6206  157.4526 O   0  0  0  0  0  0  0  0  0  0  0  0
  146.8021  141.8674  155.1597 N   0  0  0  0  0  0  0  0  0  0  0  0
  147.7106  140.7070  155.0268 C   0  0  0  0  0  0  0  0  0  0  0  0
  149.1560  141.0053  155.4536 C   0  0  0  0  0  0  0  0  0  0  0  0
  150.1069  140.7237  154.7226 O   0  0  0  0  0  0  0  0  0  0  0  0
  149.2976  141.5857  156.6553 N   0  0  0  0  0  0  0  0  0  0  0  0
  150.5641  141.9768  157.2749 C   0  0  0  0  0  0  0  0  0  0  0  0
  150.7309  141.1256  158.5549 C   0  0  0  0  0  0  0  0  0  0  0  0
  152.1703  140.7894  159.0019 C   0  0  0  0  0  0  0  0  0  0  0  0
  153.1440  141.9537  159.2593 C   0  0  0  0  0  0  0  0  0  0  0  0
  152.5285  143.1688  159.9759 C   0  0  0  0  0  0  0  0  0  0  0  0
  152.3989  144.4227  159.0945 C   0  0  0  0  0  0  0  0  0  0  0  0
  151.8768  144.2130  157.6590 C   0  0  0  0  0  0  0  0  0  0  0  0
  150.5165  143.5083  157.5245 C   0  0  0  0  0  0  0  0  0  0  0  0
  146.4110  142.5603  153.9854 C   0  0  0  0  0  0  0  0  0  0  0  0
  146.8106  142.2047  152.8752 O   0  0  0  0  0  0  0  0  0  0  0  0
  144.4342  144.8786  155.5463 H   0  0  0  0  0  0  0  0  0  0  0  0
  145.8042  143.5323  158.6443 H   0  0  0  0  0  0  0  0  0  0  0  0
  142.8660  143.4217  157.5999 H   0  0  0  0  0  0  0  0  0  0  0  0
  143.4178  143.5097  159.3518 H   0  0  0  0  0  0  0  0  0  0  0  0
  144.5810  145.6868  158.8640 H   0  0  0  0  0  0  0  0  0  0  0  0
  144.0260  145.5837  157.1141 H   0  0  0  0  0  0  0  0  0  0  0  0
  147.3438  139.8608  155.6102 H   0  0  0  0  0  0  0  0  0  0  0  0
  147.7259  140.3311  154.0027 H   0  0  0  0  0  0  0  0  0  0  0  0
  148.4594  141.7785  157.1840 H   0  0  0  0  0  0  0  0  0  0  0  0
  151.3747  141.7354  156.5848 H   0  0  0  0  0  0  0  0  0  0  0  0
  150.1650  141.5721  159.3721 H   0  0  0  0  0  0  0  0  0  0  0  0
  150.2482  140.1597  158.3946 H   0  0  0  0  0  0  0  0  0  0  0  0
  152.0956  140.2050  159.9197 H   0  0  0  0  0  0  0  0  0  0  0  0
  152.6227  140.1184  158.2708 H   0  0  0  0  0  0  0  0  0  0  0  0
  153.9626  141.5694  159.8692 H   0  0  0  0  0  0  0  0  0  0  0  0
  153.6245  142.2495  158.3279 H   0  0  0  0  0  0  0  0  0  0  0  0
  151.5643  142.9198  160.4163 H   0  0  0  0  0  0  0  0  0  0  0  0
  153.1561  143.4269  160.8298 H   0  0  0  0  0  0  0  0  0  0  0  0
  151.7613  145.1437  159.6075 H   0  0  0  0  0  0  0  0  0  0  0  0
  153.3780  144.8975  159.0247 H   0  0  0  0  0  0  0  0  0  0  0  0
  151.7780  145.2069  157.2206 H   0  0  0  0  0  0  0  0  0  0  0  0
  152.6196  143.7176  157.0347 H   0  0  0  0  0  0  0  0  0  0  0  0
  150.0284  143.9712  156.6650 H   0  0  0  0  0  0  0  0  0  0  0  0
  149.8735  143.7467  158.3725 H   0  0  0  0  0  0  0  0  0  0  0  0
  1  2  3  0  0  0  0
  2  3  1  0  0  0  0
  3 24  1  0  0  0  0
  3  4  2  0  0  0  0
  4  5  1  0  0  0  0
  4 26  1  0  0  0  0
  5  6  1  0  0  0  0
  5  9  1  0  0  0  0
  6  8  1  0  0  0  0
  6  7  1  0  0  0  0
  6 27  1  0  0  0  0
  7  8  1  0  0  0  0
  7 28  1  0  0  0  0
  7 29  1  0  0  0  0
  8 30  1  0  0  0  0
  8 31  1  0  0  0  0
  9 10  2  0  0  0  0
  9 11  1  0  0  0  0
 11 12  1  0  0  0  0
 11 24  1  0  0  0  0
 12 13  1  0  0  0  0
 12 32  1  0  0  0  0
 12 33  1  0  0  0  0
 13 14  2  0  0  0  0
 13 15  1  0  0  0  0
 15 16  1  0  0  0  0
 15 34  1  0  0  0  0
 16 23  1  0  0  0  0
 16 17  1  0  0  0  0
 16 35  1  0  0  0  0
 17 18  1  0  0  0  0
 17 36  1  0  0  0  0
 17 37  1  0  0  0  0
 18 19  1  0  0  0  0
 18 38  1  0  0  0  0
 18 39  1  0  0  0  0
 19 20  1  0  0  0  0
 19 40  1  0  0  0  0
 19 41  1  0  0  0  0
 20 21  1  0  0  0  0
 20 42  1  0  0  0  0
 20 43  1  0  0  0  0
 21 22  1  0  0  0  0
 21 44  1  0  0  0  0
 21 45  1  0  0  0  0
 22 23  1  0  0  0  0
 22 46  1  0  0  0  0
 22 47  1  0  0  0  0
 23 48  1  0  0  0  0
 23 49  1  0  0  0  0
 24 25  2  0  0  0  0
M  END
> <s_m_source_file>
AV-unprocessed.smi

> <i_m_source_file_index>
2869

> <i_lp_mmshare_version>
43012

> <i_f3d_flags>
0

> <s_epik_input>
TiNDYzFbY0hdbihbQ0hdMltDSDJdW0NIMl0yKWMoPU8pbihjMT1PKVtDSDJdQyg9TylbTkhdW0NIXTNbQ0gyXVtDSDJdW0NIMl1bQ0gyXVtDSDJdW0NIMl1bQ0gyXTM=

> <s_epik_cmdline>
J2VwaWtfcHl0aG9uJywgJy1waCcsICc3LjAnLCAnLXRuJywgJzgnLCAnLW1hJywgJzIwMCcsICctbWV0YWxfYmluZGluZycsICctaW1hZScsICc8aW5maWxlLm1hZT4nLCAnLW9tYWUnLCAnPG91dGZpbGUubWFlPic=

> <r_lp_tautomer_probability>
1

> <r_epik_Ionization_Penalty>
2.03018e-08

> <r_epik_Ionization_Penalty_Charging>
8.701e-11

> <r_epik_Ionization_Penalty_Neutral>
2.02148e-08

> <r_epik_State_Penalty>
-0

> <r_epik_Charging_Adjusted_Penalty>
8.701e-11

> <i_epik_Tot_Q>
0

> <i_epik_Tot_abs_Q>
0

> <r_epik_Metal_State_Penalty>
-0

> <b_epik_Metal_Only>
0

> <s_lp_Force_Field>
OPLS_2005

> <r_lp_Energy>
47.5685

> <b_lp_Chiralities_Consistent>
1

> <s_lp_Variant>
AV-unprocessed.smi:2869-1

> <Gold.Version>
5.8.1

> <Gold.Id.Protein>
6NUR|6NUR_protein|mol2

> <Gold.PLP.Fitness>
42.6491

> <Gold.PLP.PLP>
-40.8844

> <Gold.PLP.part.hbond>
-2.0605

> <Gold.PLP.part.metal>
0.0000

> <Gold.PLP.part.buried>
-0.7157

> <Gold.PLP.part.nonpolar>
-39.3090

> <Gold.PLP.part.repulsive>
0.6005

> <Gold.PLP.ligand.clash>
0.0000

> <Gold.PLP.ligand.torsion>
0.3976

> <Gold.PLP.Chemscore.Hbond>
0.7840

> <Gold.PLP.Chemscore.CHOScore>
0.0000

> <Gold.PLP.Chemscore.Metal>
0.0000

> <Gold.Chemscore.Hbonds>
donor molecule, donor type, donor heavy atom, donor atom, acceptor molecule, acceptor atom, score
      P1  H  7989  7998       L1    14  0.82

> <Gold.PLP.Chemscore.Internal.Correction>
0.2078

> <Gold.Rescore>
     Score         DG    S(hbond)    S(metal)    S(lipo)     H(rot)  DE(clash)    DE(int)     intcor
     11.80     -15.84       0.86        0.00     100.66       1.68       3.47       0.57       ----

> <Gold.Chemscore.Fitness>
11.7995

> <Gold.Chemscore.DG>
-15.8379

> <Gold.Chemscore.ZeroCoef>
-5.4800

> <Gold.Chemscore.Hbond>
0.8649

> <Gold.Chemscore.Metal>
0.0000

> <Gold.Chemscore.Lipo>
100.6553

> <Gold.Chemscore.Internal_Hbond>
0.0000

> <Gold.Chemscore.DEClash>
3.4709

> <Gold.Chemscore.DEInternal>
0.5675

> <Gold.Chemscore.Rot>
1.6826

> <Gold.Chemscore.Internal.Correction>
   9.000000E+99

> <Gold.Chemscore.Hbonds>
donor molecule, donor type, donor heavy atom, donor atom, acceptor molecule, acceptor atom, score
      P1  H  7989  7998       L1    14  0.81

> <Gold.Chemscore.Hbond.Weighted>
-2.8888

> <Gold.Chemscore.Metal.Weighted>
-0.0000

> <Gold.Chemscore.Lipo.Weighted>
-11.7767

> <Gold.Chemscore.Internal_Hbond.Weighted>
0.0000

> <Gold.Chemscore.DEClash.Weighted>
3.4709

> <Gold.Chemscore.DEInternal.Weighted>
0.5675

> <Gold.Chemscore.Rot.Weighted>
4.3076

> <Gold.Chemscore.Internal.Correction.Weighted>
   9.000000E+99

> <Gold.Protein.RotatedTorsions>
[ 6907 6896 6895 6894 ] final -105.80 input  -60.11 | X-H torsion
[ 7974 7965 7964 7962 ] final   15.47 input  175.53 | X-H torsion
[ 8008 7997 7996 7995 ] final  -25.29 input   59.86 | X-H torsion
[ 10167 10162 10161 10158 ] final  175.95 input  -65.29 | X-H torsion
[ 10718 10713 10712 10709 ] final  144.96 input   66.30 | X-H torsion
[ 10763 10752 10751 10750 ] final -164.48 input  -60.55 | X-H torsion
[ 11005 11000 10999 10996 ] final   30.01 input  -57.11 | X-H torsion

> <Gold.Protein.ActiveResidues>
 VAL166  LYS551  ARG553  GLY616  TRP617  ASP618  TYR619  PRO620  LYS621  CYS622 
 ASP623  PHE694  ASN695  SER759  ASP760  ASP761  ALA762  ILE779  LEU786  VAL792 
 PHE793  MET794  SER795  GLU796  ALA797  LYS798  CYS799  TRP800  GLU811  SER814 

> <Gold.Protein.RotatedAtoms>
  150.7356  134.0071  159.3657 H   0  0  0  0  0  0  0  0  0  0  0  0  # atno 6907 bound_to 6896
  151.8029  135.0701  160.0412 H   0  0  0  0  0  0  0  0  0  0  0  0  # atno 6908 bound_to 6896
  152.3128  133.5734  159.5728 H   0  0  0  0  0  0  0  0  0  0  0  0  # atno 6909 bound_to 6896
  146.2277  139.8889  142.8558 H   0  0  0  0  0  0  0  0  0  0  0  0  # atno 7974 bound_to 7965
  154.4483  140.1930  156.0597 H   0  0  0  0  0  0  0  0  0  0  0  0  # atno 8008 bound_to 7997
  156.0592  140.3299  155.7414 H   0  0  0  0  0  0  0  0  0  0  0  0  # atno 8009 bound_to 7997
  155.5438  140.0589  157.2855 H   0  0  0  0  0  0  0  0  0  0  0  0  # atno 8010 bound_to 7997
  139.5196  144.2972  152.0411 H   0  0  0  0  0  0  0  0  0  0  0  0  # atno 10167 bound_to 10162
  157.3510  131.0950  151.1000 H   0  0  0  0  0  0  0  0  0  0  0  0  # atno 10718 bound_to 10713
  154.7024  135.2990  154.9321 H   0  0  0  0  0  0  0  0  0  0  0  0  # atno 10763 bound_to 10752
  154.0249  135.6677  153.4779 H   0  0  0  0  0  0  0  0  0  0  0  0  # atno 10764 bound_to 10752
  153.0691  135.5071  154.8175 H   0  0  0  0  0  0  0  0  0  0  0  0  # atno 10765 bound_to 10752
  140.2989  134.2779  155.7758 H   0  0  0  0  0  0  0  0  0  0  0  0  # atno 11005 bound_to 11000
  145.2437  141.0019  143.3921 LP  0  0  0  0  0  0  0  0  0  0  0  0  # atno 17320 bound_to 7965
  144.9431  139.4167  143.6439 LP  0  0  0  0  0  0  0  0  0  0  0  0  # atno 17321 bound_to 7965
  140.2421  144.4258  150.6256 LP  0  0  0  0  0  0  0  0  0  0  0  0  # atno 17342 bound_to 10162
  140.6283  143.2184  151.6549 LP  0  0  0  0  0  0  0  0  0  0  0  0  # atno 17343 bound_to 10162
  157.2176  130.6466  149.5798 LP  0  0  0  0  0  0  0  0  0  0  0  0  # atno 17370 bound_to 10713
  155.9721  130.4640  150.6201 LP  0  0  0  0  0  0  0  0  0  0  0  0  # atno 17371 bound_to 10713
  141.2132  133.7633  156.9737 LP  0  0  0  0  0  0  0  0  0  0  0  0  # atno 17394 bound_to 11000
  140.1127  134.9467  157.2089 LP  0  0  0  0  0  0  0  0  0  0  0  0  # atno 17395 bound_to 11000

$$$$
