AV-unprocessed.smi:112|AV-procd|sdf|1087|dock8
  -GOLD-   2262018183D 1   1.00000     0.00000
 Structure written by MMmdl.
 54 57  0  0  0  0  0  0  0  0  3 V2000
  143.9177  137.1745  155.7848 C   0  0  0  0  0  0  0  0  0  0  0  0
  144.7247  137.3656  154.5105 C   0  0  0  0  0  0  0  0  0  0  0  0
  144.5815  136.5521  153.4396 C   0  0  0  0  0  0  0  0  0  0  0  0
  145.2957  136.7011  152.2661 N   0  0  0  0  0  0  0  0  0  0  0  0
  145.0792  135.7484  151.1163 C   0  0  2  0  0  0  0  0  0  0  0  0
  143.8250  134.9101  151.3180 C   0  0  0  0  0  0  0  0  0  0  0  0
  144.1713  133.6661  150.5223 C   0  0  1  0  0  0  0  0  0  0  0  0
  143.7348  133.8038  149.1835 O   0  0  0  0  0  0  0  0  0  0  0  0
  145.7122  133.5927  150.5767 C   0  0  2  0  0  0  0  0  0  0  0  0
  146.2184  132.5178  151.5530 C   0  0  0  0  0  0  0  0  0  0  0  0
  147.5968  132.6982  151.7971 O   0  0  0  0  0  0  0  0  0  0  0  0
  146.1486  134.8613  151.0686 O   0  0  0  0  0  0  0  0  0  0  0  0
  146.2227  137.7548  152.1391 C   0  0  0  0  0  0  0  0  0  0  0  0
  146.8460  137.9298  151.0897 O   0  0  0  0  0  0  0  0  0  0  0  0
  146.4056  138.6161  153.2449 N   0  0  0  0  0  0  0  0  0  0  0  0
  147.3663  139.7362  153.1198 C   0  0  0  0  0  0  0  0  0  0  0  0
  148.6138  139.5879  154.0188 C   0  0  0  0  0  0  0  0  0  0  0  0
  149.4066  138.6737  153.7892 O   0  0  0  0  0  0  0  0  0  0  0  0
  148.7773  140.4784  155.0289 N   0  0  0  0  0  0  0  0  0  0  0  0
  147.8253  141.5653  155.3163 C   0  0  0  0  0  0  0  0  0  0  0  0
  148.3873  142.3224  156.5395 C   0  0  0  0  0  0  0  0  0  0  0  0
  149.6545  141.5803  156.8450 C   0  0  0  0  0  0  0  0  0  0  0  0
  150.5661  141.8652  157.8759 C   0  0  0  0  0  0  0  0  0  0  0  0
  151.7187  141.0527  158.0143 C   0  0  0  0  0  0  0  0  0  0  0  0
  152.6988  141.3222  159.0850 N   0  3  0  0  0  0  0  0  0  0  0  0
  152.4325  142.1870  159.9134 O   0  0  0  0  0  0  0  0  0  0  0  0
  153.7372  140.6692  159.0996 O   0  5  0  0  0  0  0  0  0  0  0  0
  151.9176  139.9768  157.1087 C   0  0  0  0  0  0  0  0  0  0  0  0
  150.9910  139.7046  156.0785 C   0  0  0  0  0  0  0  0  0  0  0  0
  149.8495  140.5268  155.9593 C   0  0  0  0  0  0  0  0  0  0  0  0
  145.6805  138.4745  154.4543 C   0  0  0  0  0  0  0  0  0  0  0  0
  145.8562  139.2606  155.3874 O   0  0  0  0  0  0  0  0  0  0  0  0
  143.2491  136.3158  155.7163 H   0  0  0  0  0  0  0  0  0  0  0  0
  143.3083  138.0563  155.9862 H   0  0  0  0  0  0  0  0  0  0  0  0
  144.5804  137.0135  156.6357 H   0  0  0  0  0  0  0  0  0  0  0  0
  143.8652  135.7452  153.5019 H   0  0  0  0  0  0  0  0  0  0  0  0
  145.0694  136.3197  150.1873 H   0  0  0  0  0  0  0  0  0  0  0  0
  143.7165  134.6593  152.3739 H   0  0  0  0  0  0  0  0  0  0  0  0
  142.9307  135.4369  150.9826 H   0  0  0  0  0  0  0  0  0  0  0  0
  143.6914  132.7812  150.9420 H   0  0  0  0  0  0  0  0  0  0  0  0
  142.7904  133.7708  149.1677 H   0  0  0  0  0  0  0  0  0  0  0  0
  146.1225  133.4162  149.5803 H   0  0  0  0  0  0  0  0  0  0  0  0
  145.6609  132.5342  152.4900 H   0  0  0  0  0  0  0  0  0  0  0  0
  146.0957  131.5245  151.1203 H   0  0  0  0  0  0  0  0  0  0  0  0
  148.0806  132.2173  151.1427 H   0  0  0  0  0  0  0  0  0  0  0  0
  147.6869  139.8456  152.0829 H   0  0  0  0  0  0  0  0  0  0  0  0
  146.8759  140.6836  153.3481 H   0  0  0  0  0  0  0  0  0  0  0  0
  147.7379  142.2381  154.4621 H   0  0  0  0  0  0  0  0  0  0  0  0
  146.8356  141.1653  155.5410 H   0  0  0  0  0  0  0  0  0  0  0  0
  148.6015  143.3663  156.3086 H   0  0  0  0  0  0  0  0  0  0  0  0
  147.7068  142.2808  157.3904 H   0  0  0  0  0  0  0  0  0  0  0  0
  150.3779  142.6933  158.5433 H   0  0  0  0  0  0  0  0  0  0  0  0
  152.7893  139.3450  157.1952 H   0  0  0  0  0  0  0  0  0  0  0  0
  151.1812  138.8789  155.4115 H   0  0  0  0  0  0  0  0  0  0  0  0
  1  2  1  0  0  0  0
  1 33  1  0  0  0  0
  1 34  1  0  0  0  0
  1 35  1  0  0  0  0
  2 31  1  0  0  0  0
  2  3  2  0  0  0  0
  3  4  1  0  0  0  0
  3 36  1  0  0  0  0
  4  5  1  0  0  0  0
  4 13  1  0  0  0  0
  5 12  1  0  0  0  0
  5  6  1  0  0  0  0
  5 37  1  0  0  0  0
  6  7  1  0  0  0  0
  6 38  1  0  0  0  0
  6 39  1  0  0  0  0
  7  8  1  0  0  0  0
  7  9  1  0  0  0  0
  7 40  1  0  0  0  0
  8 41  1  0  0  0  0
  9 10  1  0  0  0  0
  9 12  1  0  0  0  0
  9 42  1  0  0  0  0
 10 11  1  0  0  0  0
 10 43  1  0  0  0  0
 10 44  1  0  0  0  0
 11 45  1  0  0  0  0
 13 14  2  0  0  0  0
 13 15  1  0  0  0  0
 15 16  1  0  0  0  0
 15 31  1  0  0  0  0
 16 17  1  0  0  0  0
 16 46  1  0  0  0  0
 16 47  1  0  0  0  0
 17 18  2  0  0  0  0
 17 19  1  0  0  0  0
 19 30  1  0  0  0  0
 19 20  1  0  0  0  0
 20 21  1  0  0  0  0
 20 48  1  0  0  0  0
 20 49  1  0  0  0  0
 21 22  1  0  0  0  0
 21 50  1  0  0  0  0
 21 51  1  0  0  0  0
 22 30  2  0  0  0  0
 22 23  1  0  0  0  0
 23 24  2  0  0  0  0
 23 52  1  0  0  0  0
 24 25  1  0  0  0  0
 24 28  1  0  0  0  0
 25 26  2  0  0  0  0
 25 27  1  0  0  0  0
 28 29  2  0  0  0  0
 28 53  1  0  0  0  0
 29 30  1  0  0  0  0
 29 54  1  0  0  0  0
 31 32  2  0  0  0  0
M  CHG  1  25   1
M  CHG  1  27  -1
M  END
> <s_m_source_file>
AV-unprocessed.smi

> <i_m_source_file_index>
112

> <i_lp_mmshare_version>
43012

> <i_f3d_flags>
0

> <s_epik_input>
W09IXVtDSDJdW0NAQEhdKE8xKVtDQEhdKFtPSF0pW0NIMl1bQ0BIXTFuKFtjSF1jMltDSDNdKWMoPU8pbihjMj1PKVtDSDJdQyg9TylOKFtDSDJdW0NIMl0zKWMoYzM0KVtjSF1bY0hdYyhbY0hdNClbTitdKD1PKVtPLV0=

> <s_epik_cmdline>
J2VwaWtfcHl0aG9uJywgJy1waCcsICc3LjAnLCAnLXRuJywgJzgnLCAnLW1hJywgJzIwMCcsICctbWV0YWxfYmluZGluZycsICctaW1hZScsICc8aW5maWxlLm1hZT4nLCAnLW9tYWUnLCAnPG91dGZpbGUubWFlPic=

> <r_lp_tautomer_probability>
1

> <r_epik_Ionization_Penalty>
2.5696e-07

> <r_epik_Ionization_Penalty_Charging>
1.04886e-08

> <r_epik_Ionization_Penalty_Neutral>
2.46472e-07

> <r_epik_State_Penalty>
-0

> <r_epik_Charging_Adjusted_Penalty>
1.04886e-08

> <i_epik_Tot_Q>
0

> <i_epik_Tot_abs_Q>
2

> <r_epik_Metal_State_Penalty>
-0

> <b_epik_Metal_Only>
0

> <s_epik_Chemistry_Notes>
This compound contains an acetal/aminal-like group ( X-CH(R)-Y where X, Y are N, S, or O) that may be acid/base labile, releasing an aldehyde.

> <s_lp_Force_Field>
OPLS_2005

> <r_lp_Energy>
58.3709

> <b_lp_Chiralities_Consistent>
1

> <s_lp_Variant>
AV-unprocessed.smi:112-5

> <Gold.Version>
5.8.1

> <Gold.Id.Protein>
6NUR|6NUR_protein|mol2

> <Gold.PLP.Fitness>
48.3202

> <Gold.PLP.PLP>
-37.9851

> <Gold.PLP.part.hbond>
-4.8841

> <Gold.PLP.part.metal>
0.0000

> <Gold.PLP.part.buried>
-2.6651

> <Gold.PLP.part.nonpolar>
-34.3219

> <Gold.PLP.part.repulsive>
4.2179

> <Gold.PLP.ligand.clash>
0.0000

> <Gold.PLP.ligand.torsion>
0.5604

> <Gold.PLP.Chemscore.Hbond>
3.8089

> <Gold.PLP.Chemscore.CHOScore>
0.0000

> <Gold.PLP.Chemscore.Metal>
0.0000

> <Gold.Chemscore.Hbonds>
donor molecule, donor type, donor heavy atom, donor atom, acceptor molecule, acceptor atom, score
      L1  H     8    41       P1 10186  1.00
      L1  H    11    45       P1 10747  1.00
      P1  H  7954  7966       L1    14  1.00
      P1  H  7997  8008       L1    27  0.32

> <Gold.PLP.Chemscore.Internal.Correction>
0.0293

> <Gold.Rescore>
     Score         DG    S(hbond)    S(metal)    S(lipo)     H(rot)  DE(clash)    DE(int)     intcor
     13.61     -18.67       3.74        0.00      77.99       3.29       3.09       1.98       ----

> <Gold.Chemscore.Fitness>
13.6075

> <Gold.Chemscore.DG>
-18.6699

> <Gold.Chemscore.ZeroCoef>
-5.4800

> <Gold.Chemscore.Hbond>
3.7402

> <Gold.Chemscore.Metal>
0.0000

> <Gold.Chemscore.Lipo>
77.9858

> <Gold.Chemscore.Internal_Hbond>
0.0000

> <Gold.Chemscore.DEClash>
3.0858

> <Gold.Chemscore.DEInternal>
1.9767

> <Gold.Chemscore.Rot>
3.2916

> <Gold.Chemscore.Internal.Correction>
   9.000000E+99

> <Gold.Chemscore.Hbonds>
donor molecule, donor type, donor heavy atom, donor atom, acceptor molecule, acceptor atom, score
      L1  H     8    41       P1 10186  0.97
      L1  H    11    45       P1 10747  1.00
      P1  H  7954  7966       L1    14  1.00
      P1  H  7997  8008       L1    27  0.31

> <Gold.Chemscore.Hbond.Weighted>
-12.4921

> <Gold.Chemscore.Metal.Weighted>
-0.0000

> <Gold.Chemscore.Lipo.Weighted>
-9.1243

> <Gold.Chemscore.Internal_Hbond.Weighted>
0.0000

> <Gold.Chemscore.DEClash.Weighted>
3.0858

> <Gold.Chemscore.DEInternal.Weighted>
1.9767

> <Gold.Chemscore.Rot.Weighted>
8.4265

> <Gold.Chemscore.Internal.Correction.Weighted>
   9.000000E+99

> <Gold.Protein.RotatedTorsions>
[ 6907 6896 6895 6894 ] final   22.22 input  -60.11 | X-H torsion
[ 7974 7965 7964 7962 ] final -155.45 input  175.53 | X-H torsion
[ 8008 7997 7996 7995 ] final -102.97 input   59.86 | X-H torsion
[ 10167 10162 10161 10158 ] final  -27.06 input  -65.29 | X-H torsion
[ 10718 10713 10712 10709 ] final   81.78 input   66.30 | X-H torsion
[ 10763 10752 10751 10750 ] final   85.86 input  -60.55 | X-H torsion
[ 11005 11000 10999 10996 ] final   45.90 input  -57.11 | X-H torsion

> <Gold.Protein.ActiveResidues>
 VAL166  LYS551  ARG553  GLY616  TRP617  ASP618  TYR619  PRO620  LYS621  CYS622 
 ASP623  PHE694  ASN695  SER759  ASP760  ASP761  ALA762  ILE779  LEU786  VAL792 
 PHE793  MET794  SER795  GLU796  ALA797  LYS798  CYS799  TRP800  GLU811  SER814 

> <Gold.Protein.RotatedAtoms>
  151.9238  135.0287  160.0523 H   0  0  0  0  0  0  0  0  0  0  0  0  # atno 6907 bound_to 6896
  152.2177  133.4955  159.5153 H   0  0  0  0  0  0  0  0  0  0  0  0  # atno 6908 bound_to 6896
  150.6992  134.1301  159.4109 H   0  0  0  0  0  0  0  0  0  0  0  0  # atno 6909 bound_to 6896
  144.7640  140.4248  143.5956 H   0  0  0  0  0  0  0  0  0  0  0  0  # atno 7974 bound_to 7965
  154.8643  140.0425  157.1685 H   0  0  0  0  0  0  0  0  0  0  0  0  # atno 8008 bound_to 7997
  154.8806  140.2972  155.5406 H   0  0  0  0  0  0  0  0  0  0  0  0  # atno 8009 bound_to 7997
  156.2999  140.2412  156.3808 H   0  0  0  0  0  0  0  0  0  0  0  0  # atno 8010 bound_to 7997
  140.7279  143.4125  151.1082 H   0  0  0  0  0  0  0  0  0  0  0  0  # atno 10167 bound_to 10162
  157.6841  131.0019  150.2277 H   0  0  0  0  0  0  0  0  0  0  0  0  # atno 10718 bound_to 10713
  153.1515  135.4601  154.9644 H   0  0  0  0  0  0  0  0  0  0  0  0  # atno 10763 bound_to 10752
  154.7828  135.3194  154.7954 H   0  0  0  0  0  0  0  0  0  0  0  0  # atno 10764 bound_to 10752
  153.8458  135.6926  153.4852 H   0  0  0  0  0  0  0  0  0  0  0  0  # atno 10765 bound_to 10752
  140.1418  134.4574  155.8444 H   0  0  0  0  0  0  0  0  0  0  0  0  # atno 11005 bound_to 11000
  145.6530  139.1568  143.2851 LP  0  0  0  0  0  0  0  0  0  0  0  0  # atno 17320 bound_to 7965
  146.1730  140.6617  142.9224 LP  0  0  0  0  0  0  0  0  0  0  0  0  # atno 17321 bound_to 7965
  139.7760  143.8425  152.3129 LP  0  0  0  0  0  0  0  0  0  0  0  0  # atno 17342 bound_to 10162
  139.8359  144.7232  150.9391 LP  0  0  0  0  0  0  0  0  0  0  0  0  # atno 17343 bound_to 10162
  156.2916  130.3746  149.7836 LP  0  0  0  0  0  0  0  0  0  0  0  0  # atno 17370 bound_to 10713
  156.5494  130.8335  151.3295 LP  0  0  0  0  0  0  0  0  0  0  0  0  # atno 17371 bound_to 10713
  141.2187  133.6836  156.7260 LP  0  0  0  0  0  0  0  0  0  0  0  0  # atno 17394 bound_to 11000
  140.2713  134.8390  157.3850 LP  0  0  0  0  0  0  0  0  0  0  0  0  # atno 17395 bound_to 11000

$$$$
