AV-unprocessed.smi:3308|AV-procd|sdf|12712|dock2
  -GOLD-   2272019 43D 1   1.00000     0.00000
 Structure written by MMmdl.
 40 41  0  0  0  0  0  0  0  0  1 V2000
  147.2371  142.0158  155.0974 C   0  0  0  0  0  0  0  0  0  0  0  0
  148.5169  141.1781  155.3048 C   0  0  2  0  0  0  0  0  0  0  0  0
  149.6592  142.0329  155.6177 N   0  0  0  0  0  0  0  0  0  0  0  0
  150.3103  141.7047  156.8921 C   0  0  0  0  0  0  0  0  0  0  0  0
  151.2105  142.8509  157.3648 C   0  0  0  0  0  0  0  0  0  0  0  0
  151.2631  143.8772  156.6870 O   0  0  0  0  0  0  0  0  0  0  0  0
  151.9200  142.7013  158.5036 N   0  0  0  0  0  0  0  0  0  0  0  0
  152.8148  143.6955  159.0963 C   0  0  0  0  0  0  0  0  0  0  0  0
  153.1744  143.1554  160.4807 C   0  0  0  0  0  0  0  0  0  0  0  0
  153.0028  141.6488  160.3494 C   0  0  0  0  0  0  0  0  0  0  0  0
  151.8833  141.4897  159.3207 C   0  0  0  0  0  0  0  0  0  0  0  0
  148.8893  140.2772  154.0961 C   0  0  2  0  0  0  0  0  0  0  0  0
  147.7270  139.4049  153.5750 C   0  0  0  0  0  0  0  0  0  0  0  0
  150.0706  139.4683  154.3805 N   0  0  0  0  0  0  0  0  0  0  0  0
  150.2307  138.0959  154.3300 C   0  0  0  0  0  0  0  0  0  0  0  0
  151.5081  137.8161  154.7215 C   0  0  0  0  0  0  0  0  0  0  0  0
  152.0601  139.0944  155.0098 C   0  0  0  0  0  0  0  0  0  0  0  0
  151.1972  140.0774  154.8134 N   0  0  0  0  0  0  0  0  0  0  0  0
  146.3889  141.3872  154.8285 H   0  0  0  0  0  0  0  0  0  0  0  0
  147.3633  142.7586  154.3098 H   0  0  0  0  0  0  0  0  0  0  0  0
  146.9493  142.5454  156.0050 H   0  0  0  0  0  0  0  0  0  0  0  0
  148.3535  140.5142  156.1555 H   0  0  0  0  0  0  0  0  0  0  0  0
  149.3790  143.0026  155.5794 H   0  0  0  0  0  0  0  0  0  0  0  0
  149.5568  141.5208  157.6577 H   0  0  0  0  0  0  0  0  0  0  0  0
  150.8924  140.7872  156.7998 H   0  0  0  0  0  0  0  0  0  0  0  0
  153.7095  143.7828  158.4785 H   0  0  0  0  0  0  0  0  0  0  0  0
  152.3533  144.6810  159.1705 H   0  0  0  0  0  0  0  0  0  0  0  0
  154.1771  143.4413  160.7994 H   0  0  0  0  0  0  0  0  0  0  0  0
  152.4676  143.5393  161.2172 H   0  0  0  0  0  0  0  0  0  0  0  0
  153.9224  141.2101  159.9595 H   0  0  0  0  0  0  0  0  0  0  0  0
  152.7774  141.1634  161.2994 H   0  0  0  0  0  0  0  0  0  0  0  0
  150.9134  141.4264  159.8161 H   0  0  0  0  0  0  0  0  0  0  0  0
  152.0193  140.5864  158.7241 H   0  0  0  0  0  0  0  0  0  0  0  0
  149.1653  140.9390  153.2725 H   0  0  0  0  0  0  0  0  0  0  0  0
  146.8934  140.0166  153.2299 H   0  0  0  0  0  0  0  0  0  0  0  0
  147.3441  138.7297  154.3397 H   0  0  0  0  0  0  0  0  0  0  0  0
  148.0473  138.7967  152.7285 H   0  0  0  0  0  0  0  0  0  0  0  0
  149.4331  137.4347  154.0257 H   0  0  0  0  0  0  0  0  0  0  0  0
  151.9751  136.8453  154.7961 H   0  0  0  0  0  0  0  0  0  0  0  0
  153.0536  139.3352  155.3581 H   0  0  0  0  0  0  0  0  0  0  0  0
  1  2  1  0  0  0  0
  1 19  1  0  0  0  0
  1 20  1  0  0  0  0
  1 21  1  0  0  0  0
  2  3  1  0  0  0  0
  2 12  1  0  0  0  0
  2 22  1  0  0  0  0
  3  4  1  0  0  0  0
  3 23  1  0  0  0  0
  4  5  1  0  0  0  0
  4 24  1  0  0  0  0
  4 25  1  0  0  0  0
  5  6  2  0  0  0  0
  5  7  1  0  0  0  0
  7 11  1  0  0  0  0
  7  8  1  0  0  0  0
  8  9  1  0  0  0  0
  8 26  1  0  0  0  0
  8 27  1  0  0  0  0
  9 10  1  0  0  0  0
  9 28  1  0  0  0  0
  9 29  1  0  0  0  0
 10 11  1  0  0  0  0
 10 30  1  0  0  0  0
 10 31  1  0  0  0  0
 11 32  1  0  0  0  0
 11 33  1  0  0  0  0
 12 13  1  0  0  0  0
 12 14  1  0  0  0  0
 12 34  1  0  0  0  0
 13 35  1  0  0  0  0
 13 36  1  0  0  0  0
 13 37  1  0  0  0  0
 14 18  1  0  0  0  0
 14 15  1  0  0  0  0
 15 16  2  0  0  0  0
 15 38  1  0  0  0  0
 16 17  1  0  0  0  0
 16 39  1  0  0  0  0
 17 18  2  0  0  0  0
 17 40  1  0  0  0  0
M  END
> <s_m_source_file>
AV-unprocessed.smi

> <i_m_source_file_index>
3308

> <i_lp_mmshare_version>
43012

> <i_f3d_flags>
0

> <s_epik_input>
bjFbY0hdW2NIXVtjSF1uMVtDQEBIXShbQ0gzXSlbQ0BIXShbQ0gzXSlbTkhdW0NIMl1DKD1PKU4yW0NIMl1bQ0gyXVtDSDJdW0NIMl0y

> <s_epik_cmdline>
J2VwaWtfcHl0aG9uJywgJy1waCcsICc3LjAnLCAnLXRuJywgJzgnLCAnLW1hJywgJzIwMCcsICctbWV0YWxfYmluZGluZycsICctaW1hZScsICc8aW5maWxlLm1hZT4nLCAnLW9tYWUnLCAnPG91dGZpbGUubWFlPic=

> <r_lp_tautomer_probability>
1

> <r_epik_Ionization_Penalty>
0.918676

> <r_epik_Ionization_Penalty_Charging>
0

> <r_epik_Ionization_Penalty_Neutral>
0.918676

> <r_epik_State_Penalty>
0.958258

> <r_epik_Charging_Adjusted_Penalty>
0.958258

> <i_epik_Tot_Q>
0

> <i_epik_Tot_abs_Q>
0

> <r_epik_Metal_State_Penalty>
0.956879

> <b_epik_Metal_Only>
0

> <s_lp_Force_Field>
OPLS_2005

> <r_lp_Energy>
37.0374

> <b_lp_Chiralities_Consistent>
1

> <s_lp_Variant>
AV-unprocessed.smi:3308-5

> <Gold.Version>
5.8.1

> <Gold.Id.Protein>
6NUR|6NUR_protein|mol2

> <Gold.PLP.Fitness>
46.9337

> <Gold.PLP.PLP>
-39.4839

> <Gold.PLP.part.hbond>
-2.0000

> <Gold.PLP.part.metal>
0.0000

> <Gold.PLP.part.buried>
-2.6793

> <Gold.PLP.part.nonpolar>
-37.5294

> <Gold.PLP.part.repulsive>
3.1076

> <Gold.PLP.ligand.clash>
0.0000

> <Gold.PLP.ligand.torsion>
0.8732

> <Gold.PLP.Chemscore.Hbond>
2.0000

> <Gold.PLP.Chemscore.CHOScore>
1.0000

> <Gold.PLP.Chemscore.Metal>
0.0000

> <Gold.Chemscore.Hbonds>
donor molecule, donor type, donor heavy atom, donor atom, acceptor molecule, acceptor atom, score
      L1  H     3    23       P1  8028  1.00
      P1  H  7989  7998       L1    18  1.00
      L1  C    15    38       P1  7948  1.00

> <Gold.PLP.Chemscore.Internal.Correction>
0.1961

> <Gold.Rescore>
     Score         DG    S(hbond)    S(metal)    S(lipo)     H(rot)  DE(clash)    DE(int)     intcor
     14.32     -18.65       1.97        0.00      93.89       1.72       1.63       2.70       ----

> <Gold.Chemscore.Fitness>
14.3207

> <Gold.Chemscore.DG>
-18.6516

> <Gold.Chemscore.ZeroCoef>
-5.4800

> <Gold.Chemscore.Hbond>
1.9729

> <Gold.Chemscore.Metal>
0.0000

> <Gold.Chemscore.Lipo>
93.8912

> <Gold.Chemscore.Internal_Hbond>
0.0000

> <Gold.Chemscore.DEClash>
1.6348

> <Gold.Chemscore.DEInternal>
2.6960

> <Gold.Chemscore.Rot>
1.7200

> <Gold.Chemscore.Internal.Correction>
   9.000000E+99

> <Gold.Chemscore.Hbonds>
donor molecule, donor type, donor heavy atom, donor atom, acceptor molecule, acceptor atom, score
      L1  H     3    23       P1  8028  1.00
      P1  H  7989  7998       L1    18  0.19

> <Gold.Chemscore.Hbond.Weighted>
-6.5894

> <Gold.Chemscore.Metal.Weighted>
-0.0000

> <Gold.Chemscore.Lipo.Weighted>
-10.9853

> <Gold.Chemscore.Internal_Hbond.Weighted>
0.0000

> <Gold.Chemscore.DEClash.Weighted>
1.6348

> <Gold.Chemscore.DEInternal.Weighted>
2.6960

> <Gold.Chemscore.Rot.Weighted>
4.4031

> <Gold.Chemscore.Internal.Correction.Weighted>
   9.000000E+99

> <Gold.Protein.RotatedTorsions>
[ 6907 6896 6895 6894 ] final  100.99 input  -60.11 | X-H torsion
[ 7974 7965 7964 7962 ] final -115.20 input  175.53 | X-H torsion
[ 8008 7997 7996 7995 ] final  -58.79 input   59.86 | X-H torsion
[ 10167 10162 10161 10158 ] final -177.74 input  -65.29 | X-H torsion
[ 10718 10713 10712 10709 ] final  -96.95 input   66.30 | X-H torsion
[ 10763 10752 10751 10750 ] final   40.24 input  -60.55 | X-H torsion
[ 11005 11000 10999 10996 ] final   -3.95 input  -57.11 | X-H torsion

> <Gold.Protein.ActiveResidues>
 VAL166  LYS551  ARG553  GLY616  TRP617  ASP618  TYR619  PRO620  LYS621  CYS622 
 ASP623  PHE694  ASN695  SER759  ASP760  ASP761  ALA762  ILE779  LEU786  VAL792 
 PHE793  MET794  SER795  GLU796  ALA797  LYS798  CYS799  TRP800  GLU811  SER814 

> <Gold.Protein.RotatedAtoms>
  152.5360  134.0194  159.7974 H   0  0  0  0  0  0  0  0  0  0  0  0  # atno 6907 bound_to 6896
  151.0383  133.5721  159.2661 H   0  0  0  0  0  0  0  0  0  0  0  0  # atno 6908 bound_to 6896
  151.2700  135.0689  159.9184 H   0  0  0  0  0  0  0  0  0  0  0  0  # atno 6909 bound_to 6896
  145.1112  140.8613  143.3868 H   0  0  0  0  0  0  0  0  0  0  0  0  # atno 7974 bound_to 7965
  154.4324  140.1076  156.6013 H   0  0  0  0  0  0  0  0  0  0  0  0  # atno 8008 bound_to 7997
  155.5908  140.3492  155.4547 H   0  0  0  0  0  0  0  0  0  0  0  0  # atno 8009 bound_to 7997
  156.0248  140.1247  157.0309 H   0  0  0  0  0  0  0  0  0  0  0  0  # atno 8010 bound_to 7997
  139.5466  144.2220  152.0999 H   0  0  0  0  0  0  0  0  0  0  0  0  # atno 10167 bound_to 10162
  156.0073  130.5173  150.6302 H   0  0  0  0  0  0  0  0  0  0  0  0  # atno 10718 bound_to 10713
  152.9942  135.6197  154.2595 H   0  0  0  0  0  0  0  0  0  0  0  0  # atno 10763 bound_to 10752
  154.2331  135.2791  155.2884 H   0  0  0  0  0  0  0  0  0  0  0  0  # atno 10764 bound_to 10752
  154.5432  135.5755  153.6916 H   0  0  0  0  0  0  0  0  0  0  0  0  # atno 10765 bound_to 10752
  140.6749  133.9204  155.8518 H   0  0  0  0  0  0  0  0  0  0  0  0  # atno 11005 bound_to 11000
  145.0844  139.2935  143.5767 LP  0  0  0  0  0  0  0  0  0  0  0  0  # atno 17320 bound_to 7965
  146.3526  140.0361  142.8646 LP  0  0  0  0  0  0  0  0  0  0  0  0  # atno 17321 bound_to 7965
  140.1708  144.4938  150.6581 LP  0  0  0  0  0  0  0  0  0  0  0  0  # atno 17342 bound_to 10162
  140.6716  143.2288  151.5612 LP  0  0  0  0  0  0  0  0  0  0  0  0  # atno 17343 bound_to 10162
  157.4101  131.0822  151.1228 LP  0  0  0  0  0  0  0  0  0  0  0  0  # atno 17370 bound_to 10713
  157.1863  130.6332  149.5689 LP  0  0  0  0  0  0  0  0  0  0  0  0  # atno 17371 bound_to 10713
  141.0363  134.0685  157.3955 LP  0  0  0  0  0  0  0  0  0  0  0  0  # atno 17394 bound_to 11000
  139.8970  135.0148  156.7078 LP  0  0  0  0  0  0  0  0  0  0  0  0  # atno 17395 bound_to 11000

$$$$
