AV-unprocessed.smi:90|AV-procd|sdf|831|dock10
  -GOLD-   2262017253D 1   1.00000     0.00000
 Structure written by MMmdl.
 64 67  0  0  0  0  0  0  0  0  2 V2000
  142.1615  136.2312  153.6080 C   0  0  0  0  0  0  0  0  0  0  0  0
  143.2600  136.8684  152.8871 N   0  0  0  0  0  0  0  0  0  0  0  0
  143.8901  136.1837  151.7602 C   0  0  0  0  0  0  0  0  0  0  0  0
  144.1868  134.7007  152.0540 C   0  0  0  0  0  0  0  0  0  0  0  0
  145.2487  134.0785  151.1070 C   0  0  2  0  0  0  0  0  0  0  0  0
  144.6416  133.3784  149.8682 C   0  0  0  0  0  0  0  0  0  0  0  0
  143.9266  132.0692  150.2392 C   0  0  0  0  0  0  0  0  0  0  0  0
  144.8809  131.1453  151.0084 C   0  0  0  0  0  0  0  0  0  0  0  0
  145.5070  131.8633  152.2158 C   0  0  0  0  0  0  0  0  0  0  0  0
  146.1692  133.1248  151.7955 N   0  3  2  0  0  0  0  0  0  0  0  0
  146.9997  133.7264  152.8638 C   0  0  0  0  0  0  0  0  0  0  0  0
  143.9528  137.8156  153.5713 C   0  0  0  0  0  0  0  0  0  0  0  0
  143.4150  138.2641  154.7356 N   0  0  0  0  0  0  0  0  0  0  0  0
  144.0423  139.1969  155.4568 C   0  0  0  0  0  0  0  0  0  0  0  0
  145.2041  139.8015  155.2070 N   0  0  0  0  0  0  0  0  0  0  0  0
  145.7612  139.3478  154.0485 C   0  0  0  0  0  0  0  0  0  0  0  0
  145.2068  138.3696  153.1726 C   0  0  0  0  0  0  0  0  0  0  0  0
  146.0664  138.1684  152.0976 N   0  0  0  0  0  0  0  0  0  0  0  0
  147.0577  138.9867  152.3176 C   0  0  0  0  0  0  0  0  0  0  0  0
  146.9678  139.7198  153.4789 N   0  0  0  0  0  0  0  0  0  0  0  0
  147.9325  140.6955  153.9695 C   0  0  0  0  0  0  0  0  0  0  0  0
  148.9835  140.1338  154.9741 C   0  0  0  0  0  0  0  0  0  0  0  0
  148.2785  139.4749  156.1942 C   0  0  0  0  0  0  0  0  0  0  0  0
  147.5096  140.4022  156.9337 O   0  0  0  0  0  0  0  0  0  0  0  0
  149.8828  139.0858  154.2691 C   0  0  0  0  0  0  0  0  0  0  0  0
  151.1442  138.7261  155.0765 C   0  0  0  0  0  0  0  0  0  0  0  0
  151.8848  139.9004  155.3802 O   0  0  0  0  0  0  0  0  0  0  0  0
  151.1531  140.8190  156.1807 C   0  0  0  0  0  0  0  0  0  0  0  0
  149.9072  141.2979  155.4153 C   0  0  0  0  0  0  0  0  0  0  0  0
  142.3017  136.2882  154.6884 H   0  0  0  0  0  0  0  0  0  0  0  0
  142.0813  135.1760  153.3482 H   0  0  0  0  0  0  0  0  0  0  0  0
  141.2181  136.7174  153.3590 H   0  0  0  0  0  0  0  0  0  0  0  0
  143.2237  136.2361  150.9011 H   0  0  0  0  0  0  0  0  0  0  0  0
  144.8071  136.7095  151.4922 H   0  0  0  0  0  0  0  0  0  0  0  0
  144.5349  134.6256  153.0823 H   0  0  0  0  0  0  0  0  0  0  0  0
  143.2556  134.1363  152.0138 H   0  0  0  0  0  0  0  0  0  0  0  0
  145.8699  134.8965  150.7388 H   0  0  0  0  0  0  0  0  0  0  0  0
  143.9635  134.0379  149.3285 H   0  0  0  0  0  0  0  0  0  0  0  0
  145.4435  133.1506  149.1646 H   0  0  0  0  0  0  0  0  0  0  0  0
  143.0428  132.2787  150.8424 H   0  0  0  0  0  0  0  0  0  0  0  0
  143.5708  131.5695  149.3376 H   0  0  0  0  0  0  0  0  0  0  0  0
  144.3506  130.2513  151.3383 H   0  0  0  0  0  0  0  0  0  0  0  0
  145.6721  130.8048  150.3392 H   0  0  0  0  0  0  0  0  0  0  0  0
  144.7515  132.0684  152.9749 H   0  0  0  0  0  0  0  0  0  0  0  0
  146.2429  131.2057  152.6804 H   0  0  0  0  0  0  0  0  0  0  0  0
  146.4167  133.9352  153.7608 H   0  0  0  0  0  0  0  0  0  0  0  0
  147.4605  134.6544  152.5241 H   0  0  0  0  0  0  0  0  0  0  0  0
  147.8020  133.0429  153.1434 H   0  0  0  0  0  0  0  0  0  0  0  0
  143.5428  139.5013  156.3648 H   0  0  0  0  0  0  0  0  0  0  0  0
  147.8942  139.0695  151.6391 H   0  0  0  0  0  0  0  0  0  0  0  0
  148.4372  141.1193  153.1000 H   0  0  0  0  0  0  0  0  0  0  0  0
  147.3824  141.5235  154.4178 H   0  0  0  0  0  0  0  0  0  0  0  0
  147.6258  138.6629  155.8733 H   0  0  0  0  0  0  0  0  0  0  0  0
  148.9953  139.0276  156.8806 H   0  0  0  0  0  0  0  0  0  0  0  0
  146.6081  140.3320  156.6594 H   0  0  0  0  0  0  0  0  0  0  0  0
  149.3218  138.1744  154.0606 H   0  0  0  0  0  0  0  0  0  0  0  0
  150.2017  139.4755  153.3016 H   0  0  0  0  0  0  0  0  0  0  0  0
  150.8968  138.1898  155.9928 H   0  0  0  0  0  0  0  0  0  0  0  0
  151.7780  138.0597  154.4913 H   0  0  0  0  0  0  0  0  0  0  0  0
  150.8889  140.3649  157.1362 H   0  0  0  0  0  0  0  0  0  0  0  0
  151.7966  141.6692  156.4076 H   0  0  0  0  0  0  0  0  0  0  0  0
  150.2464  141.8445  154.5343 H   0  0  0  0  0  0  0  0  0  0  0  0
  149.3586  142.0228  156.0175 H   0  0  0  0  0  0  0  0  0  0  0  0
  146.8298  132.8488  151.0829 H   0  0  0  0  0  0  0  0  0  0  0  0
  1  2  1  0  0  0  0
  1 30  1  0  0  0  0
  1 31  1  0  0  0  0
  1 32  1  0  0  0  0
  2  3  1  0  0  0  0
  2 12  1  0  0  0  0
  3  4  1  0  0  0  0
  3 33  1  0  0  0  0
  3 34  1  0  0  0  0
  4  5  1  0  0  0  0
  4 35  1  0  0  0  0
  4 36  1  0  0  0  0
  5 10  1  0  0  0  0
  5  6  1  0  0  0  0
  5 37  1  0  0  0  0
  6  7  1  0  0  0  0
  6 38  1  0  0  0  0
  6 39  1  0  0  0  0
  7  8  1  0  0  0  0
  7 40  1  0  0  0  0
  7 41  1  0  0  0  0
  8  9  1  0  0  0  0
  8 42  1  0  0  0  0
  8 43  1  0  0  0  0
  9 10  1  0  0  0  0
  9 44  1  0  0  0  0
  9 45  1  0  0  0  0
 10 11  1  0  0  0  0
 10 64  1  0  0  0  0
 11 46  1  0  0  0  0
 11 47  1  0  0  0  0
 11 48  1  0  0  0  0
 12 17  1  0  0  0  0
 12 13  2  0  0  0  0
 13 14  1  0  0  0  0
 14 15  2  0  0  0  0
 14 49  1  0  0  0  0
 15 16  1  0  0  0  0
 16 20  1  0  0  0  0
 16 17  2  0  0  0  0
 17 18  1  0  0  0  0
 18 19  2  0  0  0  0
 19 20  1  0  0  0  0
 19 50  1  0  0  0  0
 20 21  1  0  0  0  0
 21 22  1  0  0  0  0
 21 51  1  0  0  0  0
 21 52  1  0  0  0  0
 22 29  1  0  0  0  0
 22 23  1  0  0  0  0
 22 25  1  0  0  0  0
 23 24  1  0  0  0  0
 23 53  1  0  0  0  0
 23 54  1  0  0  0  0
 24 55  1  0  0  0  0
 25 26  1  0  0  0  0
 25 56  1  0  0  0  0
 25 57  1  0  0  0  0
 26 27  1  0  0  0  0
 26 58  1  0  0  0  0
 26 59  1  0  0  0  0
 27 28  1  0  0  0  0
 28 29  1  0  0  0  0
 28 60  1  0  0  0  0
 28 61  1  0  0  0  0
 29 62  1  0  0  0  0
 29 63  1  0  0  0  0
M  CHG  1  10   1
M  END
> <s_m_source_file>
AV-unprocessed.smi

> <i_m_source_file_index>
90

> <i_lp_mmshare_version>
43012

> <i_f3d_flags>
0

> <s_epik_input>
W0NIM11OMVtDSDJdW0NIMl1bQ0gyXVtDSDJdW0NASF0xW0NIMl1bQ0gyXU4oW0NIM10pYyhuW2NIXW4yKWMoYzIzKW5bY0hdbjNbQ0gyXUM0KFtDSDJdW09IXSlbQ0gyXVtDSDJdT1tDSDJdW0NIMl00

> <s_epik_cmdline>
J2VwaWtfcHl0aG9uJywgJy1waCcsICc3LjAnLCAnLXRuJywgJzgnLCAnLW1hJywgJzIwMCcsICctbWV0YWxfYmluZGluZycsICctaW1hZScsICc8aW5maWxlLm1hZT4nLCAnLW9tYWUnLCAnPG91dGZpbGUubWFlPic=

> <r_lp_tautomer_probability>
1

> <r_epik_Ionization_Penalty>
0.00234895

> <r_epik_Ionization_Penalty_Charging>
0.00106647

> <r_epik_Ionization_Penalty_Neutral>
0.00128248

> <r_epik_State_Penalty>
-0

> <r_epik_Charging_Adjusted_Penalty>
0.00106647

> <i_epik_Tot_Q>
1

> <i_epik_Tot_abs_Q>
1

> <r_epik_Metal_State_Penalty>
-0

> <b_epik_Metal_Only>
0

> <s_lp_Force_Field>
OPLS_2005

> <r_lp_Energy>
45.3808

> <b_lp_Chiralities_Consistent>
1

> <s_lp_Variant>
AV-unprocessed.smi:90-3

> <Gold.Version>
5.8.1

> <Gold.Id.Protein>
6NUR|6NUR_protein|mol2

> <Gold.PLP.Fitness>
46.6370

> <Gold.PLP.PLP>
-42.6870

> <Gold.PLP.part.hbond>
-1.0000

> <Gold.PLP.part.metal>
0.0000

> <Gold.PLP.part.buried>
-3.9464

> <Gold.PLP.part.nonpolar>
-38.0021

> <Gold.PLP.part.repulsive>
0.4738

> <Gold.PLP.ligand.clash>
0.0000

> <Gold.PLP.ligand.torsion>
1.1398

> <Gold.PLP.Chemscore.Hbond>
0.8800

> <Gold.PLP.Chemscore.CHOScore>
1.0000

> <Gold.PLP.Chemscore.Metal>
0.0000

> <Gold.Chemscore.Hbonds>
donor molecule, donor type, donor heavy atom, donor atom, acceptor molecule, acceptor atom, score
      P1  H  7989  7998       L1    27  0.60
      L1  C    19    50       P1  7957  0.89

> <Gold.PLP.Chemscore.Internal.Correction>
0.5897

> <Gold.Rescore>
     Score         DG    S(hbond)    S(metal)    S(lipo)     H(rot)  DE(clash)    DE(int)     intcor
      8.31     -10.95       0.27        0.00      98.77       2.73       0.38       2.26       ----

> <Gold.Chemscore.Fitness>
8.3087

> <Gold.Chemscore.DG>
-10.9510

> <Gold.Chemscore.ZeroCoef>
-5.4800

> <Gold.Chemscore.Hbond>
0.2744

> <Gold.Chemscore.Metal>
0.0000

> <Gold.Chemscore.Lipo>
98.7654

> <Gold.Chemscore.Internal_Hbond>
0.0000

> <Gold.Chemscore.DEClash>
0.3836

> <Gold.Chemscore.DEInternal>
2.2587

> <Gold.Chemscore.Rot>
2.7347

> <Gold.Chemscore.Internal.Correction>
   9.000000E+99

> <Gold.Chemscore.Hbonds>
donor molecule, donor type, donor heavy atom, donor atom, acceptor molecule, acceptor atom, score
      P1  H  7989  7998       L1    27  0.03

> <Gold.Chemscore.Hbond.Weighted>
-0.9164

> <Gold.Chemscore.Metal.Weighted>
-0.0000

> <Gold.Chemscore.Lipo.Weighted>
-11.5556

> <Gold.Chemscore.Internal_Hbond.Weighted>
0.0000

> <Gold.Chemscore.DEClash.Weighted>
0.3836

> <Gold.Chemscore.DEInternal.Weighted>
2.2587

> <Gold.Chemscore.Rot.Weighted>
7.0009

> <Gold.Chemscore.Internal.Correction.Weighted>
   9.000000E+99

> <Gold.Protein.RotatedTorsions>
[ 6907 6896 6895 6894 ] final  147.52 input  -60.11 | X-H torsion
[ 7974 7965 7964 7962 ] final  -35.74 input  175.53 | X-H torsion
[ 8008 7997 7996 7995 ] final   51.77 input   59.86 | X-H torsion
[ 10167 10162 10161 10158 ] final -111.39 input  -65.29 | X-H torsion
[ 10718 10713 10712 10709 ] final  -33.84 input   66.30 | X-H torsion
[ 10763 10752 10751 10750 ] final  -75.19 input  -60.55 | X-H torsion
[ 11005 11000 10999 10996 ] final  -66.95 input  -57.11 | X-H torsion

> <Gold.Protein.ActiveResidues>
 VAL166  LYS551  ARG553  GLY616  TRP617  ASP618  TYR619  PRO620  LYS621  CYS622 
 ASP623  PHE694  ASN695  SER759  ASP760  ASP761  ALA762  ILE779  LEU786  VAL792 
 PHE793  MET794  SER795  GLU796  ALA797  LYS798  CYS799  TRP800  GLU811  SER814 

> <Gold.Protein.RotatedAtoms>
  152.1537  133.4538  159.4825 H   0  0  0  0  0  0  0  0  0  0  0  0  # atno 6907 bound_to 6896
  150.6898  134.2158  159.4386 H   0  0  0  0  0  0  0  0  0  0  0  0  # atno 6908 bound_to 6896
  152.0056  134.9904  160.0617 H   0  0  0  0  0  0  0  0  0  0  0  0  # atno 6909 bound_to 6896
  146.0721  140.6195  142.8947 H   0  0  0  0  0  0  0  0  0  0  0  0  # atno 7974 bound_to 7965
  155.4408  140.3454  155.4290 H   0  0  0  0  0  0  0  0  0  0  0  0  # atno 8008 bound_to 7997
  156.1279  140.1506  156.9138 H   0  0  0  0  0  0  0  0  0  0  0  0  # atno 8009 bound_to 7997
  154.4872  140.0851  156.7494 H   0  0  0  0  0  0  0  0  0  0  0  0  # atno 8010 bound_to 7997
  140.1341  143.4335  152.1607 H   0  0  0  0  0  0  0  0  0  0  0  0  # atno 10167 bound_to 10162
  156.3578  130.4319  149.7649 H   0  0  0  0  0  0  0  0  0  0  0  0  # atno 10718 bound_to 10713
  154.4833  135.5839  153.6405 H   0  0  0  0  0  0  0  0  0  0  0  0  # atno 10763 bound_to 10752
  152.9851  135.6095  154.3219 H   0  0  0  0  0  0  0  0  0  0  0  0  # atno 10764 bound_to 10752
  154.3112  135.2845  155.2544 H   0  0  0  0  0  0  0  0  0  0  0  0  # atno 10765 bound_to 10752
  141.1496  133.6709  156.6219 H   0  0  0  0  0  0  0  0  0  0  0  0  # atno 11005 bound_to 11000
  144.7238  140.4460  143.6988 LP  0  0  0  0  0  0  0  0  0  0  0  0  # atno 17320 bound_to 7965
  145.6372  139.1544  143.2936 LP  0  0  0  0  0  0  0  0  0  0  0  0  # atno 17321 bound_to 7965
  139.5505  144.7333  151.4451 LP  0  0  0  0  0  0  0  0  0  0  0  0  # atno 17342 bound_to 10162
  140.6799  143.8104  150.7108 LP  0  0  0  0  0  0  0  0  0  0  0  0  # atno 17343 bound_to 10162
  156.4825  130.8047  151.3061 LP  0  0  0  0  0  0  0  0  0  0  0  0  # atno 17370 bound_to 10713
  157.7470  131.0001  150.2914 LP  0  0  0  0  0  0  0  0  0  0  0  0  # atno 17371 bound_to 10713
  140.3534  134.7749  157.4483 LP  0  0  0  0  0  0  0  0  0  0  0  0  # atno 17394 bound_to 11000
  140.0842  134.5689  155.8509 LP  0  0  0  0  0  0  0  0  0  0  0  0  # atno 17395 bound_to 11000

$$$$
