AV-unprocessed.smi:6|AV-procd|sdf|42|dock4
  -GOLD-   2262015153D 1   1.00000     0.00000
 Structure written by MMmdl.
 37 38  0  0  0  0  0  0  0  0  3 V2000
  148.0942  142.3086  157.8270 C   0  0  0  0  0  0  0  0  0  0  0  0
  149.4947  141.7063  157.6371 C   0  0  0  0  0  0  0  0  0  0  0  0
  149.5812  140.2371  158.0776 C   0  0  0  0  0  0  0  0  0  0  0  0
  150.5754  142.5596  158.2857 C   0  0  0  0  0  0  0  0  0  0  0  0
  150.7045  143.8423  157.9088 N   0  3  0  0  0  0  0  0  0  0  0  0
  151.6638  144.6153  158.4741 C   0  0  0  0  0  0  0  0  0  0  0  0
  152.5239  144.0818  159.4515 C   0  0  0  0  0  0  0  0  0  0  0  0
  152.3321  142.7345  159.8027 C   0  0  0  0  0  0  0  0  0  0  0  0
  153.1611  142.1484  160.7673 N   0  0  0  0  0  0  0  0  0  0  0  0
  154.3502  141.4251  160.3327 C   0  0  0  0  0  0  0  0  0  0  0  0
  154.2201  139.9176  160.4908 C   0  0  0  0  0  0  0  0  0  0  0  0
  154.4464  139.2947  161.6663 C   0  0  0  0  0  0  0  0  0  0  0  0
  154.3485  137.9011  161.8101 N   0  0  0  0  0  0  0  0  0  0  0  0
  154.6056  137.3191  163.1296 C   0  0  0  0  0  0  0  0  0  0  0  0
  154.0184  137.1223  160.7410 C   0  0  0  0  0  0  0  0  0  0  0  0
  153.9329  135.9038  160.8980 O   0  0  0  0  0  0  0  0  0  0  0  0
  153.7952  137.7260  159.5339 N   0  5  0  0  0  0  0  0  0  0  0  0
  153.8825  139.0741  159.3379 C   0  0  0  0  0  0  0  0  0  0  0  0
  153.6872  139.5924  158.2387 O   0  0  0  0  0  0  0  0  0  0  0  0
  151.3651  141.9973  159.2122 N   0  0  0  0  0  0  0  0  0  0  0  0
  148.0501  143.3282  157.4433 H   0  0  0  0  0  0  0  0  0  0  0  0
  147.8115  142.3359  158.8799 H   0  0  0  0  0  0  0  0  0  0  0  0
  147.3411  141.7241  157.2978 H   0  0  0  0  0  0  0  0  0  0  0  0
  149.6873  141.7153  156.5628 H   0  0  0  0  0  0  0  0  0  0  0  0
  150.5648  139.8196  157.8611 H   0  0  0  0  0  0  0  0  0  0  0  0
  148.8425  139.6273  157.5569 H   0  0  0  0  0  0  0  0  0  0  0  0
  149.4020  140.1305  159.1482 H   0  0  0  0  0  0  0  0  0  0  0  0
  151.7120  145.6364  158.1252 H   0  0  0  0  0  0  0  0  0  0  0  0
  153.2937  144.6840  159.9120 H   0  0  0  0  0  0  0  0  0  0  0  0
  152.7163  141.8116  161.6098 H   0  0  0  0  0  0  0  0  0  0  0  0
  154.5554  141.6553  159.2863 H   0  0  0  0  0  0  0  0  0  0  0  0
  155.2102  141.7670  160.9101 H   0  0  0  0  0  0  0  0  0  0  0  0
  154.7150  139.8274  162.5668 H   0  0  0  0  0  0  0  0  0  0  0  0
  155.3970  136.5702  163.0725 H   0  0  0  0  0  0  0  0  0  0  0  0
  153.7061  136.8350  163.5124 H   0  0  0  0  0  0  0  0  0  0  0  0
  154.9157  138.0638  163.8632 H   0  0  0  0  0  0  0  0  0  0  0  0
  150.0881  144.2414  157.2004 H   0  0  0  0  0  0  0  0  0  0  0  0
  1  2  1  0  0  0  0
  1 21  1  0  0  0  0
  1 22  1  0  0  0  0
  1 23  1  0  0  0  0
  2  3  1  0  0  0  0
  2  4  1  0  0  0  0
  2 24  1  0  0  0  0
  3 25  1  0  0  0  0
  3 26  1  0  0  0  0
  3 27  1  0  0  0  0
  4 20  1  0  0  0  0
  4  5  2  0  0  0  0
  5  6  1  0  0  0  0
  5 37  1  0  0  0  0
  6  7  2  0  0  0  0
  6 28  1  0  0  0  0
  7  8  1  0  0  0  0
  7 29  1  0  0  0  0
  8  9  1  0  0  0  0
  8 20  2  0  0  0  0
  9 10  1  0  0  0  0
  9 30  1  0  0  0  0
 10 11  1  0  0  0  0
 10 31  1  0  0  0  0
 10 32  1  0  0  0  0
 11 18  1  0  0  0  0
 11 12  2  0  0  0  0
 12 13  1  0  0  0  0
 12 33  1  0  0  0  0
 13 14  1  0  0  0  0
 13 15  1  0  0  0  0
 14 34  1  0  0  0  0
 14 35  1  0  0  0  0
 14 36  1  0  0  0  0
 15 16  2  0  0  0  0
 15 17  1  0  0  0  0
 17 18  1  0  0  0  0
 18 19  2  0  0  0  0
M  CHG  1   5   1
M  CHG  1  17  -1
M  END
> <s_m_source_file>
AV-unprocessed.smi

> <i_m_source_file_index>
6

> <i_lp_mmshare_version>
43012

> <i_f3d_flags>
0

> <s_epik_input>
W0NIM11bQ0hdKFtDSDNdKWMxbltjSF1bY0hdYyhuMSlbTkhdW0NIMl1jMltjSF1uKFtDSDNdKWMoPU8pW25IXWMyPU8=

> <s_epik_cmdline>
J2VwaWtfcHl0aG9uJywgJy1waCcsICc3LjAnLCAnLXRuJywgJzgnLCAnLW1hJywgJzIwMCcsICctbWV0YWxfYmluZGluZycsICctaW1hZScsICc8aW5maWxlLm1hZT4nLCAnLW9tYWUnLCAnPG91dGZpbGUubWFlPic=

> <r_lp_tautomer_probability>
0.998874

> <r_epik_Ionization_Penalty>
4.8157

> <r_epik_Ionization_Penalty_Charging>
0.866709

> <r_epik_Ionization_Penalty_Neutral>
3.94899

> <r_epik_State_Penalty>
4.49389

> <r_epik_Charging_Adjusted_Penalty>
5.3606

> <i_epik_Tot_Q>
0

> <i_epik_Tot_abs_Q>
2

> <r_epik_Metal_State_Penalty>
1.28929

> <b_epik_Metal_Only>
1

> <s_lp_Force_Field>
OPLS_2005

> <r_lp_Energy>
16.1184

> <b_lp_Chiralities_Consistent>
1

> <s_lp_Variant>
AV-unprocessed.smi:6-4

> <Gold.Version>
5.8.1

> <Gold.Id.Protein>
6NUR|6NUR_protein|mol2

> <Gold.PLP.Fitness>
46.4251

> <Gold.PLP.PLP>
-36.6535

> <Gold.PLP.part.hbond>
-2.9415

> <Gold.PLP.part.metal>
0.0000

> <Gold.PLP.part.buried>
-4.8779

> <Gold.PLP.part.nonpolar>
-28.8820

> <Gold.PLP.part.repulsive>
0.0828

> <Gold.PLP.ligand.clash>
0.0000

> <Gold.PLP.ligand.torsion>
1.1545

> <Gold.PLP.Chemscore.Hbond>
4.0000

> <Gold.PLP.Chemscore.CHOScore>
0.0000

> <Gold.PLP.Chemscore.Metal>
0.0000

> <Gold.Chemscore.Hbonds>
donor molecule, donor type, donor heavy atom, donor atom, acceptor molecule, acceptor atom, score
      L1  H     5    37       P1  8028  2.00
      P1  H  6896  6909       L1    16  0.83
      P1  H  7997  8009       L1    19  1.00

> <Gold.PLP.Chemscore.Internal.Correction>
0.0806

> <Gold.Rescore>
     Score         DG    S(hbond)    S(metal)    S(lipo)     H(rot)  DE(clash)    DE(int)     intcor
     17.75     -18.91       2.96        0.00      66.34       1.65       0.00       1.16       ----

> <Gold.Chemscore.Fitness>
17.7493

> <Gold.Chemscore.DG>
-18.9059

> <Gold.Chemscore.ZeroCoef>
-5.4800

> <Gold.Chemscore.Hbond>
2.9586

> <Gold.Chemscore.Metal>
0.0000

> <Gold.Chemscore.Lipo>
66.3438

> <Gold.Chemscore.Internal_Hbond>
0.0000

> <Gold.Chemscore.DEClash>
0.0000

> <Gold.Chemscore.DEInternal>
1.1566

> <Gold.Chemscore.Rot>
1.6477

> <Gold.Chemscore.Internal.Correction>
   9.000000E+99

> <Gold.Chemscore.Hbonds>
donor molecule, donor type, donor heavy atom, donor atom, acceptor molecule, acceptor atom, score
      L1  H     5    37       P1  8028  0.68
      P1  H  6896  6909       L1    16  0.81
      P1  H  7997  8009       L1    19  0.95

> <Gold.Chemscore.Hbond.Weighted>
-9.8817

> <Gold.Chemscore.Metal.Weighted>
-0.0000

> <Gold.Chemscore.Lipo.Weighted>
-7.7622

> <Gold.Chemscore.Internal_Hbond.Weighted>
0.0000

> <Gold.Chemscore.DEClash.Weighted>
0.0000

> <Gold.Chemscore.DEInternal.Weighted>
1.1566

> <Gold.Chemscore.Rot.Weighted>
4.2180

> <Gold.Chemscore.Internal.Correction.Weighted>
   9.000000E+99

> <Gold.Protein.RotatedTorsions>
[ 6907 6896 6895 6894 ] final  170.14 input  -60.11 | X-H torsion
[ 7974 7965 7964 7962 ] final  -24.38 input  175.53 | X-H torsion
[ 8008 7997 7996 7995 ] final  164.11 input   59.86 | X-H torsion
[ 10167 10162 10161 10158 ] final  -77.90 input  -65.29 | X-H torsion
[ 10718 10713 10712 10709 ] final   -7.05 input   66.30 | X-H torsion
[ 10763 10752 10751 10750 ] final  174.35 input  -60.55 | X-H torsion
[ 11005 11000 10999 10996 ] final  -53.01 input  -57.11 | X-H torsion

> <Gold.Protein.ActiveResidues>
 VAL166  LYS551  ARG553  GLY616  TRP617  ASP618  TYR619  PRO620  LYS621  CYS622 
 ASP623  PHE694  ASN695  SER759  ASP760  ASP761  ALA762  ILE779  LEU786  VAL792 
 PHE793  MET794  SER795  GLU796  ALA797  LYS798  CYS799  TRP800  GLU811  SER814 

> <Gold.Protein.RotatedAtoms>
  151.8208  133.3394  159.3583 H   0  0  0  0  0  0  0  0  0  0  0  0  # atno 6907 bound_to 6896
  150.7295  134.5576  159.5835 H   0  0  0  0  0  0  0  0  0  0  0  0  # atno 6908 bound_to 6896
  152.3007  134.7615  160.0409 H   0  0  0  0  0  0  0  0  0  0  0  0  # atno 6909 bound_to 6896
  146.1558  140.4744  142.8592 H   0  0  0  0  0  0  0  0  0  0  0  0  # atno 7974 bound_to 7965
  156.1905  140.1705  156.8101 H   0  0  0  0  0  0  0  0  0  0  0  0  # atno 8008 bound_to 7997
  154.5465  140.0726  156.8630 H   0  0  0  0  0  0  0  0  0  0  0  0  # atno 8009 bound_to 7997
  155.3111  140.3367  155.4246 H   0  0  0  0  0  0  0  0  0  0  0  0  # atno 8010 bound_to 7997
  140.4730  143.2422  151.8176 H   0  0  0  0  0  0  0  0  0  0  0  0  # atno 10167 bound_to 10162
  156.7229  130.5156  149.5864 H   0  0  0  0  0  0  0  0  0  0  0  0  # atno 10718 bound_to 10713
  154.4527  135.2765  155.1769 H   0  0  0  0  0  0  0  0  0  0  0  0  # atno 10763 bound_to 10752
  154.3589  135.6133  153.5684 H   0  0  0  0  0  0  0  0  0  0  0  0  # atno 10764 bound_to 10752
  152.9848  135.5829  154.4875 H   0  0  0  0  0  0  0  0  0  0  0  0  # atno 10765 bound_to 10752
  141.0954  133.6625  156.4109 H   0  0  0  0  0  0  0  0  0  0  0  0  # atno 11005 bound_to 11000
  144.7961  140.6126  143.6509 LP  0  0  0  0  0  0  0  0  0  0  0  0  # atno 17320 bound_to 7965
  145.4712  139.1503  143.3813 LP  0  0  0  0  0  0  0  0  0  0  0  0  # atno 17321 bound_to 7965
  139.4821  144.4868  151.9236 LP  0  0  0  0  0  0  0  0  0  0  0  0  # atno 17342 bound_to 10162
  140.3954  144.2562  150.5896 LP  0  0  0  0  0  0  0  0  0  0  0  0  # atno 17343 bound_to 10162
  156.1582  130.6356  151.0684 LP  0  0  0  0  0  0  0  0  0  0  0  0  # atno 17370 bound_to 10713
  157.6890  131.0816  150.7160 LP  0  0  0  0  0  0  0  0  0  0  0  0  # atno 17371 bound_to 10713
  140.5152  134.6357  157.5299 LP  0  0  0  0  0  0  0  0  0  0  0  0  # atno 17394 bound_to 11000
  139.9790  134.7169  155.9896 LP  0  0  0  0  0  0  0  0  0  0  0  0  # atno 17395 bound_to 11000

$$$$
