AV-unprocessed.smi:109|AV-procd|sdf|1053|dock6
  -GOLD-   2262018113D 1   1.00000     0.00000
 Structure written by MMmdl.
 58 61  0  0  0  0  0  0  0  0  1 V2000
  152.1488  136.9402  159.1302 O   0  0  0  0  0  0  0  0  0  0  0  0
  151.5815  137.9895  158.3759 C   0  0  0  0  0  0  0  0  0  0  0  0
  152.4391  139.2588  158.5171 C   0  0  0  0  0  0  0  0  0  0  0  0
  151.6939  140.5730  158.1744 C   0  0  2  0  0  0  0  0  0  0  0  0
  151.6317  140.7364  156.7204 N   0  0  0  0  0  0  0  0  0  0  0  0
  150.4676  140.6888  156.0346 C   0  0  0  0  0  0  0  0  0  0  0  0
  150.3943  140.1457  154.7913 N   0  0  0  0  0  0  0  0  0  0  0  0
  149.2292  140.1241  154.1366 C   0  0  0  0  0  0  0  0  0  0  0  0
  148.0397  140.5815  154.5346 N   0  0  0  0  0  0  0  0  0  0  0  0
  148.1098  141.1245  155.7840 C   0  0  0  0  0  0  0  0  0  0  0  0
  149.2752  141.2160  156.5932 C   0  0  0  0  0  0  0  0  0  0  0  0
  148.9634  141.8327  157.7982 N   0  0  0  0  0  0  0  0  0  0  0  0
  147.6861  142.0889  157.7009 C   0  0  0  0  0  0  0  0  0  0  0  0
  147.0958  141.6985  156.5171 N   0  0  0  0  0  0  0  0  0  0  0  0
  145.6776  141.8462  156.0719 C   0  0  1  0  0  0  0  0  0  0  0  0
  144.8631  141.3042  157.0695 O   0  0  0  0  0  0  0  0  0  0  0  0
  143.9431  142.2769  157.5525 C   0  0  1  0  0  0  0  0  0  0  0  0
  143.5737  142.0093  159.0223 C   0  0  0  0  0  0  0  0  0  0  0  0
  144.7272  142.0615  159.8343 O   0  0  0  0  0  0  0  0  0  0  0  0
  144.5819  143.6338  157.2254 C   0  0  1  0  0  0  0  0  0  0  0  0
  145.4795  144.0529  158.2371 O   0  0  0  0  0  0  0  0  0  0  0  0
  145.3359  143.3394  155.9370 C   0  0  2  0  0  0  0  0  0  0  0  0
  144.5217  143.5762  154.8063 O   0  0  0  0  0  0  0  0  0  0  0  0
  152.3413  141.8405  158.8030 C   0  0  0  0  0  0  0  0  0  0  0  0
  152.3378  141.8290  160.3523 C   0  0  0  0  0  0  0  0  0  0  0  0
  152.9416  143.1099  160.9512 C   0  0  0  0  0  0  0  0  0  0  0  0
  152.2239  144.3630  160.4362 C   0  0  0  0  0  0  0  0  0  0  0  0
  152.2477  144.4046  158.9039 C   0  0  0  0  0  0  0  0  0  0  0  0
  151.6357  143.1286  158.3055 C   0  0  0  0  0  0  0  0  0  0  0  0
  145.6198  141.2793  155.1415 H   0  0  0  0  0  0  0  0  0  0  0  0
  143.0465  142.1685  156.9392 H   0  0  0  0  0  0  0  0  0  0  0  0
  143.8314  144.4159  157.1020 H   0  0  0  0  0  0  0  0  0  0  0  0
  146.2375  143.9452  155.8281 H   0  0  0  0  0  0  0  0  0  0  0  0
  153.0897  136.9957  159.0625 H   0  0  0  0  0  0  0  0  0  0  0  0
  151.5151  137.6699  157.3359 H   0  0  0  0  0  0  0  0  0  0  0  0
  150.5662  138.1697  158.7302 H   0  0  0  0  0  0  0  0  0  0  0  0
  152.7819  139.2888  159.5501 H   0  0  0  0  0  0  0  0  0  0  0  0
  153.3327  139.1700  157.8976 H   0  0  0  0  0  0  0  0  0  0  0  0
  150.6909  140.4995  158.5944 H   0  0  0  0  0  0  0  0  0  0  0  0
  152.5211  140.8832  156.2648 H   0  0  0  0  0  0  0  0  0  0  0  0
  149.2541  139.6784  153.1530 H   0  0  0  0  0  0  0  0  0  0  0  0
  147.1413  142.5774  158.4956 H   0  0  0  0  0  0  0  0  0  0  0  0
  142.8781  142.7719  159.3731 H   0  0  0  0  0  0  0  0  0  0  0  0
  143.0756  141.0476  159.1452 H   0  0  0  0  0  0  0  0  0  0  0  0
  144.5776  142.6835  160.5299 H   0  0  0  0  0  0  0  0  0  0  0  0
  145.9702  144.7932  157.9144 H   0  0  0  0  0  0  0  0  0  0  0  0
  143.6345  143.7189  155.0991 H   0  0  0  0  0  0  0  0  0  0  0  0
  153.3825  141.8822  158.4787 H   0  0  0  0  0  0  0  0  0  0  0  0
  151.3183  141.6993  160.7179 H   0  0  0  0  0  0  0  0  0  0  0  0
  152.9162  140.9897  160.7350 H   0  0  0  0  0  0  0  0  0  0  0  0
  152.8863  143.0721  162.0396 H   0  0  0  0  0  0  0  0  0  0  0  0
  154.0011  143.1666  160.6984 H   0  0  0  0  0  0  0  0  0  0  0  0
  151.1919  144.3675  160.7893 H   0  0  0  0  0  0  0  0  0  0  0  0
  152.6961  145.2579  160.8424 H   0  0  0  0  0  0  0  0  0  0  0  0
  151.7031  145.2797  158.5484 H   0  0  0  0  0  0  0  0  0  0  0  0
  153.2749  144.5167  158.5551 H   0  0  0  0  0  0  0  0  0  0  0  0
  151.6857  143.2031  157.2191 H   0  0  0  0  0  0  0  0  0  0  0  0
  150.5751  143.0846  158.5576 H   0  0  0  0  0  0  0  0  0  0  0  0
  1  2  1  0  0  0  0
  1 34  1  0  0  0  0
  2  3  1  0  0  0  0
  2 35  1  0  0  0  0
  2 36  1  0  0  0  0
  3  4  1  0  0  0  0
  3 37  1  0  0  0  0
  3 38  1  0  0  0  0
  4  5  1  0  0  0  0
  4 24  1  0  0  0  0
  4 39  1  0  0  0  0
  5  6  1  0  0  0  0
  5 40  1  0  0  0  0
  6 11  1  0  0  0  0
  6  7  2  0  0  0  0
  7  8  1  0  0  0  0
  8  9  2  0  0  0  0
  8 41  1  0  0  0  0
  9 10  1  0  0  0  0
 10 14  1  0  0  0  0
 10 11  2  0  0  0  0
 11 12  1  0  0  0  0
 12 13  2  0  0  0  0
 13 14  1  0  0  0  0
 13 42  1  0  0  0  0
 14 15  1  0  0  0  0
 15 30  1  0  0  0  0
 15 22  1  0  0  0  0
 15 16  1  0  0  0  0
 16 17  1  0  0  0  0
 17 31  1  0  0  0  0
 17 18  1  0  0  0  0
 17 20  1  0  0  0  0
 18 19  1  0  0  0  0
 18 43  1  0  0  0  0
 18 44  1  0  0  0  0
 19 45  1  0  0  0  0
 20 32  1  0  0  0  0
 20 21  1  0  0  0  0
 20 22  1  0  0  0  0
 21 46  1  0  0  0  0
 22 33  1  0  0  0  0
 22 23  1  0  0  0  0
 23 47  1  0  0  0  0
 24 29  1  0  0  0  0
 24 25  1  0  0  0  0
 24 48  1  0  0  0  0
 25 26  1  0  0  0  0
 25 49  1  0  0  0  0
 25 50  1  0  0  0  0
 26 27  1  0  0  0  0
 26 51  1  0  0  0  0
 26 52  1  0  0  0  0
 27 28  1  0  0  0  0
 27 53  1  0  0  0  0
 27 54  1  0  0  0  0
 28 29  1  0  0  0  0
 28 55  1  0  0  0  0
 28 56  1  0  0  0  0
 29 57  1  0  0  0  0
 29 58  1  0  0  0  0
M  END
> <s_m_source_file>
AV-unprocessed.smi

> <i_m_source_file_index>
109

> <i_lp_mmshare_version>
43012

> <i_f3d_flags>
0

> <s_epik_input>
W0NIMl0xW0NIMl1bQ0gyXVtDSDJdW0NIMl1bQ0hdMVtDQEhdKFtDSDJdW0NIMl1bT0hdKVtOSF1jKG5bY0hdbjIpYyhjMjMpbltjSF1uM1tDQEBIXTRPW0NASF0oW0NIMl1bT0hdKVtDQEBIXShbT0hdKVtDQEhdNFtPSF0=

> <s_epik_cmdline>
J2VwaWtfcHl0aG9uJywgJy1waCcsICc3LjAnLCAnLXRuJywgJzgnLCAnLW1hJywgJzIwMCcsICctbWV0YWxfYmluZGluZycsICctaW1hZScsICc8aW5maWxlLm1hZT4nLCAnLW9tYWUnLCAnPG91dGZpbGUubWFlPic=

> <r_lp_tautomer_probability>
1

> <r_epik_Ionization_Penalty>
0.000793976

> <r_epik_Ionization_Penalty_Charging>
0

> <r_epik_Ionization_Penalty_Neutral>
0.000793976

> <r_epik_State_Penalty>
-0

> <r_epik_Charging_Adjusted_Penalty>
0

> <i_epik_Tot_Q>
0

> <i_epik_Tot_abs_Q>
0

> <r_epik_Metal_State_Penalty>
-0

> <b_epik_Metal_Only>
0

> <s_epik_Chemistry_Notes>
This compound contains an acetal/aminal-like group ( X-CH(R)-Y where X, Y are N, S, or O) that may be acid/base labile, releasing an aldehyde.

> <s_lp_Force_Field>
OPLS_2005

> <r_lp_Energy>
46.6527

> <b_lp_Chiralities_Consistent>
1

> <s_lp_Variant>
AV-unprocessed.smi:109-23

> <Gold.Version>
5.8.1

> <Gold.Id.Protein>
6NUR|6NUR_protein|mol2

> <Gold.PLP.Fitness>
51.9291

> <Gold.PLP.PLP>
-41.4390

> <Gold.PLP.part.hbond>
-3.2468

> <Gold.PLP.part.metal>
0.0000

> <Gold.PLP.part.buried>
-6.3144

> <Gold.PLP.part.nonpolar>
-33.3308

> <Gold.PLP.part.repulsive>
0.4579

> <Gold.PLP.ligand.clash>
0.0000

> <Gold.PLP.ligand.torsion>
0.6786

> <Gold.PLP.Chemscore.Hbond>
2.8925

> <Gold.PLP.Chemscore.CHOScore>
1.0000

> <Gold.PLP.Chemscore.Metal>
0.0000

> <Gold.Chemscore.Hbonds>
donor molecule, donor type, donor heavy atom, donor atom, acceptor molecule, acceptor atom, score
      L1  H    21    46       P1  8029  0.37
      P1  H  6896  6907       L1     1  0.86
      P1  H  7989  7998       L1     7  1.00
      L1  C     8    41       P1  7957  1.00

> <Gold.PLP.Chemscore.Internal.Correction>
0.1698

> <Gold.Rescore>
     Score         DG    S(hbond)    S(metal)    S(lipo)     H(rot)  DE(clash)    DE(int)     intcor
      5.15      -8.93       1.98        0.00      92.59       5.47       0.10       3.68       ----

> <Gold.Chemscore.Fitness>
5.1474

> <Gold.Chemscore.DG>
-8.9278

> <Gold.Chemscore.ZeroCoef>
-5.4800

> <Gold.Chemscore.Hbond>
1.9786

> <Gold.Chemscore.Metal>
0.0000

> <Gold.Chemscore.Lipo>
92.5872

> <Gold.Chemscore.Internal_Hbond>
0.0000

> <Gold.Chemscore.DEClash>
0.0970

> <Gold.Chemscore.DEInternal>
3.6835

> <Gold.Chemscore.Rot>
5.4662

> <Gold.Chemscore.Internal.Correction>
   9.000000E+99

> <Gold.Chemscore.Hbonds>
donor molecule, donor type, donor heavy atom, donor atom, acceptor molecule, acceptor atom, score
      L1  H    21    46       P1  8029  0.20
      P1  H  6896  6907       L1     1  0.69
      P1  H  7989  7998       L1     7  0.36

> <Gold.Chemscore.Hbond.Weighted>
-6.6086

> <Gold.Chemscore.Metal.Weighted>
-0.0000

> <Gold.Chemscore.Lipo.Weighted>
-10.8327

> <Gold.Chemscore.Internal_Hbond.Weighted>
0.0000

> <Gold.Chemscore.DEClash.Weighted>
0.0970

> <Gold.Chemscore.DEInternal.Weighted>
3.6835

> <Gold.Chemscore.Rot.Weighted>
13.9935

> <Gold.Chemscore.Internal.Correction.Weighted>
   9.000000E+99

> <Gold.Protein.RotatedTorsions>
[ 6907 6896 6895 6894 ] final   -5.64 input  -60.11 | X-H torsion
[ 7974 7965 7964 7962 ] final   68.15 input  175.53 | X-H torsion
[ 8008 7997 7996 7995 ] final   78.77 input   59.86 | X-H torsion
[ 10167 10162 10161 10158 ] final  -42.10 input  -65.29 | X-H torsion
[ 10718 10713 10712 10709 ] final -146.91 input   66.30 | X-H torsion
[ 10763 10752 10751 10750 ] final  -46.39 input  -60.55 | X-H torsion
[ 11005 11000 10999 10996 ] final   25.69 input  -57.11 | X-H torsion

> <Gold.Protein.ActiveResidues>
 VAL166  LYS551  ARG553  GLY616  TRP617  ASP618  TYR619  PRO620  LYS621  CYS622 
 ASP623  PHE694  ASN695  SER759  ASP760  ASP761  ALA762  ILE779  LEU786  VAL792 
 PHE793  MET794  SER795  GLU796  ALA797  LYS798  CYS799  TRP800  GLU811  SER814 

> <Gold.Protein.RotatedAtoms>
  151.4784  135.1050  159.9770 H   0  0  0  0  0  0  0  0  0  0  0  0  # atno 6907 bound_to 6896
  152.4789  133.8202  159.7060 H   0  0  0  0  0  0  0  0  0  0  0  0  # atno 6908 bound_to 6896
  150.8846  133.7263  159.2948 H   0  0  0  0  0  0  0  0  0  0  0  0  # atno 6909 bound_to 6896
  145.8060  139.3007  143.1127 H   0  0  0  0  0  0  0  0  0  0  0  0  # atno 7974 bound_to 7965
  155.8604  140.3454  155.5753 H   0  0  0  0  0  0  0  0  0  0  0  0  # atno 8008 bound_to 7997
  155.7939  140.0875  157.2013 H   0  0  0  0  0  0  0  0  0  0  0  0  # atno 8009 bound_to 7997
  154.4011  140.1478  156.3183 H   0  0  0  0  0  0  0  0  0  0  0  0  # atno 8010 bound_to 7997
  140.6981  143.3057  151.3160 H   0  0  0  0  0  0  0  0  0  0  0  0  # atno 10167 bound_to 10162
  156.4009  130.7933  151.2144 H   0  0  0  0  0  0  0  0  0  0  0  0  # atno 10718 bound_to 10713
  154.0443  135.6640  153.4793 H   0  0  0  0  0  0  0  0  0  0  0  0  # atno 10763 bound_to 10752
  153.0489  135.5097  154.7812 H   0  0  0  0  0  0  0  0  0  0  0  0  # atno 10764 bound_to 10752
  154.6798  135.3043  154.9594 H   0  0  0  0  0  0  0  0  0  0  0  0  # atno 10765 bound_to 10752
  140.3451  134.2290  155.7685 H   0  0  0  0  0  0  0  0  0  0  0  0  # atno 11005 bound_to 11000
  145.9827  140.8669  143.0106 LP  0  0  0  0  0  0  0  0  0  0  0  0  # atno 17320 bound_to 7965
  144.6763  140.2103  143.7377 LP  0  0  0  0  0  0  0  0  0  0  0  0  # atno 17321 bound_to 7965
  139.6462  144.0447  152.2592 LP  0  0  0  0  0  0  0  0  0  0  0  0  # atno 17342 bound_to 10162
  139.9969  144.6321  150.7764 LP  0  0  0  0  0  0  0  0  0  0  0  0  # atno 17343 bound_to 10162
  157.7504  131.0287  150.4060 LP  0  0  0  0  0  0  0  0  0  0  0  0  # atno 17370 bound_to 10713
  156.4340  130.3978  149.6741 LP  0  0  0  0  0  0  0  0  0  0  0  0  # atno 17371 bound_to 10713
  141.2028  133.7929  157.0374 LP  0  0  0  0  0  0  0  0  0  0  0  0  # atno 17394 bound_to 11000
  140.0749  134.9681  157.1528 LP  0  0  0  0  0  0  0  0  0  0  0  0  # atno 17395 bound_to 11000

$$$$
