AV-unprocessed.smi:1755|AV-procd|sdf|7070|dock5
  -GOLD-   22720 8293D 1   1.00000     0.00000
 Structure written by MMmdl.
 46 47  0  0  0  0  0  0  0  0  2 V2000
  150.4596  142.1098  156.2422 C   0  0  0  0  0  0  0  0  0  0  0  0
  150.4877  140.7411  155.6286 C   0  0  0  0  0  0  0  0  0  0  0  0
  149.3916  139.8591  155.4008 C   0  0  0  0  0  0  0  0  0  0  0  0
  149.9934  138.7738  154.8245 C   0  0  0  0  0  0  0  0  0  0  0  0
  149.4304  137.6172  154.3840 N   0  0  0  0  0  0  0  0  0  0  0  0
  148.3889  136.9417  154.9000 C   0  0  0  0  0  0  0  0  0  0  0  0
  147.7801  137.2433  155.9263 O   0  0  0  0  0  0  0  0  0  0  0  0
  148.0826  135.8752  154.1471 N   0  0  0  0  0  0  0  0  0  0  0  0
  147.0066  134.9229  154.4226 C   0  0  0  0  0  0  0  0  0  0  0  0
  146.6830  133.9838  153.2171 C   0  0  0  0  0  0  0  0  0  0  0  0
  146.2595  134.8180  152.0351 N   0  3  0  0  0  0  0  0  0  0  0  0
  145.2342  135.8615  152.2886 C   0  0  0  0  0  0  0  0  0  0  0  0
  145.9155  134.0300  150.8241 C   0  0  0  0  0  0  0  0  0  0  0  0
  147.8991  133.0821  152.9147 C   0  0  0  0  0  0  0  0  0  0  0  0
  147.8632  131.9503  153.9530 C   0  0  0  0  0  0  0  0  0  0  0  0
  146.4208  131.8898  154.4745 C   0  0  0  0  0  0  0  0  0  0  0  0
  145.6424  132.9153  153.6441 C   0  0  0  0  0  0  0  0  0  0  0  0
  151.3455  139.0154  154.7250 N   0  0  0  0  0  0  0  0  0  0  0  0
  152.3949  138.1720  154.1870 C   0  0  0  0  0  0  0  0  0  0  0  0
  151.6468  140.2329  155.2250 N   0  0  0  0  0  0  0  0  0  0  0  0
  149.4442  142.3989  156.5141 H   0  0  0  0  0  0  0  0  0  0  0  0
  150.8426  142.8587  155.5486 H   0  0  0  0  0  0  0  0  0  0  0  0
  151.0682  142.1479  157.1460 H   0  0  0  0  0  0  0  0  0  0  0  0
  148.3484  140.0183  155.6281 H   0  0  0  0  0  0  0  0  0  0  0  0
  149.8463  137.2296  153.5502 H   0  0  0  0  0  0  0  0  0  0  0  0
  148.6509  135.6953  153.3323 H   0  0  0  0  0  0  0  0  0  0  0  0
  147.3234  134.3351  155.2834 H   0  0  0  0  0  0  0  0  0  0  0  0
  146.1177  135.4489  154.7722 H   0  0  0  0  0  0  0  0  0  0  0  0
  144.3287  135.4389  152.7247 H   0  0  0  0  0  0  0  0  0  0  0  0
  144.9535  136.3611  151.3609 H   0  0  0  0  0  0  0  0  0  0  0  0
  145.6163  136.6415  152.9468 H   0  0  0  0  0  0  0  0  0  0  0  0
  144.9852  133.4778  150.9597 H   0  0  0  0  0  0  0  0  0  0  0  0
  146.6980  133.3217  150.5568 H   0  0  0  0  0  0  0  0  0  0  0  0
  145.7852  134.6908  149.9665 H   0  0  0  0  0  0  0  0  0  0  0  0
  147.8048  132.6413  151.9217 H   0  0  0  0  0  0  0  0  0  0  0  0
  148.8469  133.6214  152.9339 H   0  0  0  0  0  0  0  0  0  0  0  0
  148.1732  131.0027  153.5110 H   0  0  0  0  0  0  0  0  0  0  0  0
  148.5469  132.1637  154.7754 H   0  0  0  0  0  0  0  0  0  0  0  0
  145.9938  130.8905  154.3834 H   0  0  0  0  0  0  0  0  0  0  0  0
  146.3923  132.1572  155.5316 H   0  0  0  0  0  0  0  0  0  0  0  0
  144.7828  133.3223  154.1747 H   0  0  0  0  0  0  0  0  0  0  0  0
  145.2505  132.3622  152.7922 H   0  0  0  0  0  0  0  0  0  0  0  0
  152.1475  137.8858  153.1642 H   0  0  0  0  0  0  0  0  0  0  0  0
  152.4891  137.2728  154.7966 H   0  0  0  0  0  0  0  0  0  0  0  0
  153.3496  138.7003  154.1847 H   0  0  0  0  0  0  0  0  0  0  0  0
  147.0873  135.3398  151.7858 H   0  0  0  0  0  0  0  0  0  0  0  0
  1  2  1  0  0  0  0
  1 21  1  0  0  0  0
  1 22  1  0  0  0  0
  1 23  1  0  0  0  0
  2 20  2  0  0  0  0
  2  3  1  0  0  0  0
  3  4  2  0  0  0  0
  3 24  1  0  0  0  0
  4  5  1  0  0  0  0
  4 18  1  0  0  0  0
  5  6  1  0  0  0  0
  5 25  1  0  0  0  0
  6  7  2  0  0  0  0
  6  8  1  0  0  0  0
  8  9  1  0  0  0  0
  8 26  1  0  0  0  0
  9 10  1  0  0  0  0
  9 27  1  0  0  0  0
  9 28  1  0  0  0  0
 10 17  1  0  0  0  0
 10 11  1  0  0  0  0
 10 14  1  0  0  0  0
 11 12  1  0  0  0  0
 11 13  1  0  0  0  0
 11 46  1  0  0  0  0
 12 29  1  0  0  0  0
 12 30  1  0  0  0  0
 12 31  1  0  0  0  0
 13 32  1  0  0  0  0
 13 33  1  0  0  0  0
 13 34  1  0  0  0  0
 14 15  1  0  0  0  0
 14 35  1  0  0  0  0
 14 36  1  0  0  0  0
 15 16  1  0  0  0  0
 15 37  1  0  0  0  0
 15 38  1  0  0  0  0
 16 17  1  0  0  0  0
 16 39  1  0  0  0  0
 16 40  1  0  0  0  0
 17 41  1  0  0  0  0
 17 42  1  0  0  0  0
 18 19  1  0  0  0  0
 18 20  1  0  0  0  0
 19 43  1  0  0  0  0
 19 44  1  0  0  0  0
 19 45  1  0  0  0  0
M  CHG  1  11   1
M  END
> <s_m_source_file>
AV-unprocessed.smi

> <i_m_source_file_index>
1755

> <i_lp_mmshare_version>
43012

> <i_f3d_flags>
0

> <s_epik_input>
W0NIM11jMVtjSF1jKG4objEpW0NIM10pW05IXUMoPU8pW05IXVtDSDJdQzIoTihbQ0gzXSlbQ0gzXSlbQ0gyXVtDSDJdW0NIMl1bQ0gyXTI=

> <s_epik_cmdline>
J2VwaWtfcHl0aG9uJywgJy1waCcsICc3LjAnLCAnLXRuJywgJzgnLCAnLW1hJywgJzIwMCcsICctbWV0YWxfYmluZGluZycsICctaW1hZScsICc8aW5maWxlLm1hZT4nLCAnLW9tYWUnLCAnPG91dGZpbGUubWFlPic=

> <r_lp_tautomer_probability>
1

> <r_epik_Ionization_Penalty>
0.00248705

> <r_epik_Ionization_Penalty_Charging>
0.00240703

> <r_epik_Ionization_Penalty_Neutral>
8.00151e-05

> <r_epik_State_Penalty>
0.00166499

> <r_epik_Charging_Adjusted_Penalty>
0.00407202

> <i_epik_Tot_Q>
1

> <i_epik_Tot_abs_Q>
1

> <r_epik_Metal_State_Penalty>
-0

> <b_epik_Metal_Only>
0

> <s_lp_Force_Field>
OPLS_2005

> <r_lp_Energy>
45.253

> <b_lp_Chiralities_Consistent>
1

> <s_lp_Variant>
AV-unprocessed.smi:1755-1

> <Gold.Version>
5.8.1

> <Gold.Id.Protein>
6NUR|6NUR_protein|mol2

> <Gold.PLP.Fitness>
40.0530

> <Gold.PLP.PLP>
-29.5888

> <Gold.PLP.part.hbond>
-3.6770

> <Gold.PLP.part.metal>
0.0000

> <Gold.PLP.part.buried>
-3.4912

> <Gold.PLP.part.nonpolar>
-22.8868

> <Gold.PLP.part.repulsive>
0.0704

> <Gold.PLP.ligand.clash>
0.0000

> <Gold.PLP.ligand.torsion>
0.4485

> <Gold.PLP.Chemscore.Hbond>
3.7314

> <Gold.PLP.Chemscore.CHOScore>
0.0000

> <Gold.PLP.Chemscore.Metal>
0.0000

> <Gold.Chemscore.Hbonds>
donor molecule, donor type, donor heavy atom, donor atom, acceptor molecule, acceptor atom, score
      L1  H     5    25       P1  7948  0.51
      L1  H     8    26       P1  7948  0.88
      L1  H    11    46       P1  7948  1.98
      P1  H  7989  7998       L1    20  0.39

> <Gold.PLP.Chemscore.Internal.Correction>
0.1671

> <Gold.Rescore>
     Score         DG    S(hbond)    S(metal)    S(lipo)     H(rot)  DE(clash)    DE(int)     intcor
     15.08     -15.61       2.12        0.00      58.66       1.49       0.01       0.53       ----

> <Gold.Chemscore.Fitness>
15.0776

> <Gold.Chemscore.DG>
-15.6122

> <Gold.Chemscore.ZeroCoef>
-5.4800

> <Gold.Chemscore.Hbond>
2.1169

> <Gold.Chemscore.Metal>
0.0000

> <Gold.Chemscore.Lipo>
58.6625

> <Gold.Chemscore.Internal_Hbond>
0.0000

> <Gold.Chemscore.DEClash>
0.0063

> <Gold.Chemscore.DEInternal>
0.5284

> <Gold.Chemscore.Rot>
1.4851

> <Gold.Chemscore.Internal.Correction>
   9.000000E+99

> <Gold.Chemscore.Hbonds>
donor molecule, donor type, donor heavy atom, donor atom, acceptor molecule, acceptor atom, score
      L1  H     5    25       P1  7948  0.28
      L1  H     8    26       P1  7948  0.83
      L1  H    11    46       P1  7948  0.93

> <Gold.Chemscore.Hbond.Weighted>
-7.0705

> <Gold.Chemscore.Metal.Weighted>
-0.0000

> <Gold.Chemscore.Lipo.Weighted>
-6.8635

> <Gold.Chemscore.Internal_Hbond.Weighted>
0.0000

> <Gold.Chemscore.DEClash.Weighted>
0.0063

> <Gold.Chemscore.DEInternal.Weighted>
0.5284

> <Gold.Chemscore.Rot.Weighted>
3.8018

> <Gold.Chemscore.Internal.Correction.Weighted>
   9.000000E+99

> <Gold.Protein.RotatedTorsions>
[ 6907 6896 6895 6894 ] final  -44.27 input  -60.11 | X-H torsion
[ 7974 7965 7964 7962 ] final  -96.61 input  175.53 | X-H torsion
[ 8008 7997 7996 7995 ] final   65.69 input   59.86 | X-H torsion
[ 10167 10162 10161 10158 ] final   70.74 input  -65.29 | X-H torsion
[ 10718 10713 10712 10709 ] final  179.41 input   66.30 | X-H torsion
[ 10763 10752 10751 10750 ] final  -90.14 input  -60.55 | X-H torsion
[ 11005 11000 10999 10996 ] final   33.16 input  -57.11 | X-H torsion

> <Gold.Protein.ActiveResidues>
 VAL166  LYS551  ARG553  GLY616  TRP617  ASP618  TYR619  PRO620  LYS621  CYS622 
 ASP623  PHE694  ASN695  SER759  ASP760  ASP761  ALA762  ILE779  LEU786  VAL792 
 PHE793  MET794  SER795  GLU796  ALA797  LYS798  CYS799  TRP800  GLU811  SER814 

> <Gold.Protein.RotatedAtoms>
  150.9347  134.8760  159.7573 H   0  0  0  0  0  0  0  0  0  0  0  0  # atno 6907 bound_to 6896
  152.5054  134.4028  159.9432 H   0  0  0  0  0  0  0  0  0  0  0  0  # atno 6908 bound_to 6896
  151.4053  133.3704  159.2772 H   0  0  0  0  0  0  0  0  0  0  0  0  # atno 6909 bound_to 6896
  145.3446  140.9466  143.2588 H   0  0  0  0  0  0  0  0  0  0  0  0  # atno 7974 bound_to 7965
  155.6656  140.3497  155.4799 H   0  0  0  0  0  0  0  0  0  0  0  0  # atno 8008 bound_to 7997
  155.9731  140.1159  157.0817 H   0  0  0  0  0  0  0  0  0  0  0  0  # atno 8009 bound_to 7997
  154.4171  140.1153  156.5320 H   0  0  0  0  0  0  0  0  0  0  0  0  # atno 8010 bound_to 7997
  140.0537  144.5291  150.7345 H   0  0  0  0  0  0  0  0  0  0  0  0  # atno 10167 bound_to 10162
  156.8762  130.9800  151.3067 H   0  0  0  0  0  0  0  0  0  0  0  0  # atno 10718 bound_to 10713
  154.6626  135.5315  153.8037 H   0  0  0  0  0  0  0  0  0  0  0  0  # atno 10763 bound_to 10752
  153.0451  135.6509  154.0848 H   0  0  0  0  0  0  0  0  0  0  0  0  # atno 10764 bound_to 10752
  154.0755  135.2951  155.3280 H   0  0  0  0  0  0  0  0  0  0  0  0  # atno 10765 bound_to 10752
  140.2659  134.3138  155.7843 H   0  0  0  0  0  0  0  0  0  0  0  0  # atno 11005 bound_to 11000
  144.8764  139.4965  143.6744 LP  0  0  0  0  0  0  0  0  0  0  0  0  # atno 17320 bound_to 7965
  146.2993  139.7376  142.9103 LP  0  0  0  0  0  0  0  0  0  0  0  0  # atno 17321 bound_to 7965
  140.7205  143.2584  151.4295 LP  0  0  0  0  0  0  0  0  0  0  0  0  # atno 17342 bound_to 10162
  139.5937  144.1443  152.2119 LP  0  0  0  0  0  0  0  0  0  0  0  0  # atno 17343 bound_to 10162
  157.6167  130.8624  149.9040 LP  0  0  0  0  0  0  0  0  0  0  0  0  # atno 17370 bound_to 10713
  156.0701  130.3686  150.0794 LP  0  0  0  0  0  0  0  0  0  0  0  0  # atno 17371 bound_to 10713
  141.2184  133.7438  156.9260 LP  0  0  0  0  0  0  0  0  0  0  0  0  # atno 17394 bound_to 11000
  140.1419  134.9288  157.2478 LP  0  0  0  0  0  0  0  0  0  0  0  0  # atno 17395 bound_to 11000

$$$$
