AV-unprocessed.smi:342|AV-procd|sdf|2387|dock4
  -GOLD-   2262022313D 1   1.00000     0.00000
 Structure written by MMmdl.
 42 44  0  0  0  0  0  0  0  0  2 V2000
  148.7048  142.3222  156.7258 O   0  0  0  0  0  0  0  0  0  0  0  0
  149.2038  141.3354  155.8441 C   0  0  1  0  0  0  0  0  0  0  0  0
  148.5737  141.5572  154.4551 C   0  0  0  0  0  0  0  0  0  0  0  0
  147.0983  141.3860  154.4623 N   0  3  0  0  0  0  0  0  0  0  0  0
  146.6624  140.2501  155.3094 C   0  0  0  0  0  0  0  0  0  0  0  0
  145.1363  140.0764  155.2330 C   0  0  0  0  0  0  0  0  0  0  0  0
  144.4997  141.2857  155.6267 O   0  0  0  0  0  0  0  0  0  0  0  0
  144.8396  142.3691  154.7703 C   0  0  0  0  0  0  0  0  0  0  0  0
  146.3563  142.6184  154.8279 C   0  0  0  0  0  0  0  0  0  0  0  0
  150.7438  141.4168  155.7873 C   0  0  0  0  0  0  0  0  0  0  0  0
  151.3645  141.4158  157.1063 N   0  0  0  0  0  0  0  0  0  0  0  0
  151.8618  140.3599  157.8033 C   0  0  0  0  0  0  0  0  0  0  0  0
  151.8616  138.9588  157.2550 C   0  0  0  0  0  0  0  0  0  0  0  0
  152.4973  138.9049  156.0837 F   0  0  0  0  0  0  0  0  0  0  0  0
  152.4760  138.1178  158.0862 F   0  0  0  0  0  0  0  0  0  0  0  0
  150.6129  138.5339  157.0629 F   0  0  0  0  0  0  0  0  0  0  0  0
  152.3836  140.6540  158.9963 N   0  0  0  0  0  0  0  0  0  0  0  0
  152.2162  142.0215  159.0791 C   0  0  0  0  0  0  0  0  0  0  0  0
  152.5677  142.9293  160.1035 C   0  0  0  0  0  0  0  0  0  0  0  0
  152.2977  144.3060  159.9607 C   0  0  0  0  0  0  0  0  0  0  0  0
  151.6748  144.7935  158.7937 C   0  0  0  0  0  0  0  0  0  0  0  0
  151.3165  143.9055  157.7613 C   0  0  0  0  0  0  0  0  0  0  0  0
  151.5857  142.5313  157.9097 C   0  0  0  0  0  0  0  0  0  0  0  0
  148.7981  143.1687  156.3140 H   0  0  0  0  0  0  0  0  0  0  0  0
  148.9169  140.3622  156.2379 H   0  0  0  0  0  0  0  0  0  0  0  0
  148.8248  142.5648  154.1190 H   0  0  0  0  0  0  0  0  0  0  0  0
  149.0091  140.8762  153.7221 H   0  0  0  0  0  0  0  0  0  0  0  0
  147.1508  139.3321  154.9800 H   0  0  0  0  0  0  0  0  0  0  0  0
  146.9681  140.4246  156.3425 H   0  0  0  0  0  0  0  0  0  0  0  0
  144.8249  139.7977  154.2249 H   0  0  0  0  0  0  0  0  0  0  0  0
  144.8152  139.2747  155.8983 H   0  0  0  0  0  0  0  0  0  0  0  0
  144.5175  142.1573  153.7493 H   0  0  0  0  0  0  0  0  0  0  0  0
  144.3006  143.2589  155.0961 H   0  0  0  0  0  0  0  0  0  0  0  0
  146.6417  142.9338  155.8329 H   0  0  0  0  0  0  0  0  0  0  0  0
  146.6112  143.4351  154.1534 H   0  0  0  0  0  0  0  0  0  0  0  0
  151.1423  140.5840  155.2087 H   0  0  0  0  0  0  0  0  0  0  0  0
  151.0553  142.3197  155.2603 H   0  0  0  0  0  0  0  0  0  0  0  0
  153.0477  142.5663  161.0004 H   0  0  0  0  0  0  0  0  0  0  0  0
  152.5715  144.9913  160.7495 H   0  0  0  0  0  0  0  0  0  0  0  0
  151.4729  145.8498  158.6913 H   0  0  0  0  0  0  0  0  0  0  0  0
  150.8399  144.2779  156.8669 H   0  0  0  0  0  0  0  0  0  0  0  0
  146.8361  141.1487  153.5156 H   0  0  0  0  0  0  0  0  0  0  0  0
  1  2  1  0  0  0  0
  1 24  1  0  0  0  0
  2  3  1  0  0  0  0
  2 10  1  0  0  0  0
  2 25  1  0  0  0  0
  3  4  1  0  0  0  0
  3 26  1  0  0  0  0
  3 27  1  0  0  0  0
  4  9  1  0  0  0  0
  4  5  1  0  0  0  0
  4 42  1  0  0  0  0
  5  6  1  0  0  0  0
  5 28  1  0  0  0  0
  5 29  1  0  0  0  0
  6  7  1  0  0  0  0
  6 30  1  0  0  0  0
  6 31  1  0  0  0  0
  7  8  1  0  0  0  0
  8  9  1  0  0  0  0
  8 32  1  0  0  0  0
  8 33  1  0  0  0  0
  9 34  1  0  0  0  0
  9 35  1  0  0  0  0
 10 11  1  0  0  0  0
 10 36  1  0  0  0  0
 10 37  1  0  0  0  0
 11 23  1  0  0  0  0
 11 12  1  0  0  0  0
 12 13  1  0  0  0  0
 12 17  2  0  0  0  0
 13 14  1  0  0  0  0
 13 15  1  0  0  0  0
 13 16  1  0  0  0  0
 17 18  1  0  0  0  0
 18 23  2  0  0  0  0
 18 19  1  0  0  0  0
 19 20  2  0  0  0  0
 19 38  1  0  0  0  0
 20 21  1  0  0  0  0
 20 39  1  0  0  0  0
 21 22  2  0  0  0  0
 21 40  1  0  0  0  0
 22 23  1  0  0  0  0
 22 41  1  0  0  0  0
M  CHG  1   4   1
M  END
> <s_m_source_file>
AV-unprocessed.smi

> <i_m_source_file_index>
342

> <i_lp_mmshare_version>
43012

> <i_f3d_flags>
0

> <s_epik_input>
W2NIXTFbY0hdW2NIXVtjSF1jKGMxMiluKGMobjIpQyhGKShGKUYpW0NIMl1bQ0BIXShbT0hdKVtDSDJdTjNbQ0gyXVtDSDJdT1tDSDJdW0NIMl0z

> <s_epik_cmdline>
J2VwaWtfcHl0aG9uJywgJy1waCcsICc3LjAnLCAnLXRuJywgJzgnLCAnLW1hJywgJzIwMCcsICctbWV0YWxfYmluZGluZycsICctaW1hZScsICc8aW5maWxlLm1hZT4nLCAnLW9tYWUnLCAnPG91dGZpbGUubWFlPic=

> <r_epik_Ionization_Penalty>
0.608409

> <r_epik_Ionization_Penalty_Charging>
0.608065

> <r_epik_Ionization_Penalty_Neutral>
0.000344684

> <r_epik_State_Penalty>
0.623026

> <r_epik_Charging_Adjusted_Penalty>
1.23109

> <i_epik_Tot_Q>
1

> <i_epik_Tot_abs_Q>
1

> <r_epik_Metal_State_Penalty>
0.623013

> <b_epik_Metal_Only>
0

> <s_lp_Force_Field>
OPLS_2005

> <r_lp_Energy>
25.6933

> <b_lp_Chiralities_Consistent>
1

> <s_lp_Variant>
AV-unprocessed.smi:342-4

> <Gold.Version>
5.8.1

> <Gold.Id.Protein>
6NUR|6NUR_protein|mol2

> <Gold.PLP.Fitness>
43.8856

> <Gold.PLP.PLP>
-42.1688

> <Gold.PLP.part.hbond>
-1.0000

> <Gold.PLP.part.metal>
0.0000

> <Gold.PLP.part.buried>
-6.0255

> <Gold.PLP.part.nonpolar>
-35.8618

> <Gold.PLP.part.repulsive>
0.1526

> <Gold.PLP.ligand.clash>
0.0000

> <Gold.PLP.ligand.torsion>
0.6741

> <Gold.PLP.Chemscore.Hbond>
1.0000

> <Gold.PLP.Chemscore.CHOScore>
0.0000

> <Gold.PLP.Chemscore.Metal>
0.0000

> <Gold.Chemscore.Hbonds>
donor molecule, donor type, donor heavy atom, donor atom, acceptor molecule, acceptor atom, score
      L1  H     1    24       P1  8028  1.00

> <Gold.PLP.Chemscore.Internal.Correction>
0.0650

> <Gold.Rescore>
     Score         DG    S(hbond)    S(metal)    S(lipo)     H(rot)  DE(clash)    DE(int)     intcor
     14.57     -15.32       0.98        0.00     106.98       2.32       0.02       0.73       ----

> <Gold.Chemscore.Fitness>
14.5683

> <Gold.Chemscore.DG>
-15.3184

> <Gold.Chemscore.ZeroCoef>
-5.4800

> <Gold.Chemscore.Hbond>
0.9768

> <Gold.Chemscore.Metal>
0.0000

> <Gold.Chemscore.Lipo>
106.9803

> <Gold.Chemscore.Internal_Hbond>
0.0000

> <Gold.Chemscore.DEClash>
0.0217

> <Gold.Chemscore.DEInternal>
0.7284

> <Gold.Chemscore.Rot>
2.3206

> <Gold.Chemscore.Internal.Correction>
   9.000000E+99

> <Gold.Chemscore.Hbonds>
donor molecule, donor type, donor heavy atom, donor atom, acceptor molecule, acceptor atom, score
      L1  H     1    24       P1  8028  0.98

> <Gold.Chemscore.Hbond.Weighted>
-3.2625

> <Gold.Chemscore.Metal.Weighted>
-0.0000

> <Gold.Chemscore.Lipo.Weighted>
-12.5167

> <Gold.Chemscore.Internal_Hbond.Weighted>
0.0000

> <Gold.Chemscore.DEClash.Weighted>
0.0217

> <Gold.Chemscore.DEInternal.Weighted>
0.7284

> <Gold.Chemscore.Rot.Weighted>
5.9407

> <Gold.Chemscore.Internal.Correction.Weighted>
   9.000000E+99

> <Gold.Protein.RotatedTorsions>
[ 6907 6896 6895 6894 ] final  173.65 input  -60.11 | X-H torsion
[ 7974 7965 7964 7962 ] final  -41.72 input  175.53 | X-H torsion
[ 8008 7997 7996 7995 ] final   40.15 input   59.86 | X-H torsion
[ 10167 10162 10161 10158 ] final  -66.32 input  -65.29 | X-H torsion
[ 10718 10713 10712 10709 ] final  -82.87 input   66.30 | X-H torsion
[ 10763 10752 10751 10750 ] final  -54.63 input  -60.55 | X-H torsion
[ 11005 11000 10999 10996 ] final   19.38 input  -57.11 | X-H torsion

> <Gold.Protein.ActiveResidues>
 VAL166  LYS551  ARG553  GLY616  TRP617  ASP618  TYR619  PRO620  LYS621  CYS622 
 ASP623  PHE694  ASN695  SER759  ASP760  ASP761  ALA762  ILE779  LEU786  VAL792 
 PHE793  MET794  SER795  GLU796  ALA797  LYS798  CYS799  TRP800  GLU811  SER814 

> <Gold.Protein.RotatedAtoms>
  151.7650  133.3336  159.3428 H   0  0  0  0  0  0  0  0  0  0  0  0  # atno 6907 bound_to 6896
  150.7483  134.6071  159.6076 H   0  0  0  0  0  0  0  0  0  0  0  0  # atno 6908 bound_to 6896
  152.3380  134.7174  160.0323 H   0  0  0  0  0  0  0  0  0  0  0  0  # atno 6909 bound_to 6896
  146.0184  140.6879  142.9190 H   0  0  0  0  0  0  0  0  0  0  0  0  # atno 7974 bound_to 7965
  155.2483  140.3350  155.4285 H   0  0  0  0  0  0  0  0  0  0  0  0  # atno 8008 bound_to 7997
  156.2226  140.1815  156.7483 H   0  0  0  0  0  0  0  0  0  0  0  0  # atno 8009 bound_to 7997
  154.5849  140.0647  156.9142 H   0  0  0  0  0  0  0  0  0  0  0  0  # atno 8010 bound_to 7997
  140.5665  143.2315  151.6624 H   0  0  0  0  0  0  0  0  0  0  0  0  # atno 10167 bound_to 10162
  156.0026  130.4647  150.4170 H   0  0  0  0  0  0  0  0  0  0  0  0  # atno 10718 bound_to 10713
  154.1779  135.6448  153.5026 H   0  0  0  0  0  0  0  0  0  0  0  0  # atno 10763 bound_to 10752
  153.0067  135.5399  154.6544 H   0  0  0  0  0  0  0  0  0  0  0  0  # atno 10764 bound_to 10752
  154.5901  135.2933  155.0617 H   0  0  0  0  0  0  0  0  0  0  0  0  # atno 10765 bound_to 10752
  140.4143  134.1585  155.7669 H   0  0  0  0  0  0  0  0  0  0  0  0  # atno 11005 bound_to 11000
  144.6980  140.3523  143.7179 LP  0  0  0  0  0  0  0  0  0  0  0  0  # atno 17320 bound_to 7965
  145.7232  139.1715  143.2473 LP  0  0  0  0  0  0  0  0  0  0  0  0  # atno 17321 bound_to 7965
  139.5096  144.3572  152.0596 LP  0  0  0  0  0  0  0  0  0  0  0  0  # atno 17342 bound_to 10162
  140.2705  144.3969  150.6153 LP  0  0  0  0  0  0  0  0  0  0  0  0  # atno 17343 bound_to 10162
  157.2229  131.0486  151.2536 LP  0  0  0  0  0  0  0  0  0  0  0  0  # atno 17370 bound_to 10713
  157.3783  130.7218  149.6612 LP  0  0  0  0  0  0  0  0  0  0  0  0  # atno 17371 bound_to 10713
  141.1809  133.8416  157.1261 LP  0  0  0  0  0  0  0  0  0  0  0  0  # atno 17394 bound_to 11000
  140.0245  134.9930  157.0658 LP  0  0  0  0  0  0  0  0  0  0  0  0  # atno 17395 bound_to 11000

$$$$
