AV-unprocessed.smi:232|AV-procd|sdf|1773|dock2
  -GOLD-   2262020313D 1   1.00000     0.00000
 Structure written by MMmdl.
 52 55  0  0  0  0  0  0  0  0  1 V2000
  151.7916  139.1814  156.8808 C   0  0  0  0  0  0  0  0  0  0  0  0
  152.5186  140.3634  157.5334 C   0  0  0  0  0  0  0  0  0  0  0  0
  151.6069  141.5875  157.7572 C   0  0  2  0  0  0  0  0  0  0  0  0
  151.0085  142.1655  156.4670 C   0  0  0  0  0  0  0  0  0  0  0  0
  150.8756  143.6694  156.7365 C   0  0  0  0  0  0  0  0  0  0  0  0
  151.4418  143.8650  158.1487 C   0  0  2  0  0  0  0  0  0  0  0  0
  152.1615  145.2112  158.3384 C   0  0  0  0  0  0  0  0  0  0  0  0
  152.3087  142.7133  158.3640 N   0  0  0  0  0  0  0  0  0  0  0  0
  152.7227  142.5436  159.6417 C   0  0  0  0  0  0  0  0  0  0  0  0
  152.1000  143.1898  160.6634 N   0  0  0  0  0  0  0  0  0  0  0  0
  152.5199  143.0109  161.9199 C   0  0  0  0  0  0  0  0  0  0  0  0
  153.5205  142.2475  162.3660 N   0  0  0  0  0  0  0  0  0  0  0  0
  154.1466  141.6027  161.3396 C   0  0  0  0  0  0  0  0  0  0  0  0
  153.8155  141.6965  159.9596 C   0  0  0  0  0  0  0  0  0  0  0  0
  154.6713  140.9036  159.2059 N   0  0  0  0  0  0  0  0  0  0  0  0
  155.4663  140.3687  160.0925 C   0  0  0  0  0  0  0  0  0  0  0  0
  155.2198  140.7316  161.3974 N   0  0  0  0  0  0  0  0  0  0  0  0
  155.9460  140.2840  162.5724 C   0  0  0  0  0  0  0  0  0  0  0  0
  156.6879  138.9539  162.3362 C   0  0  1  0  0  0  0  0  0  0  0  0
  157.6908  138.7977  163.3221 O   0  0  0  0  0  0  0  0  0  0  0  0
  155.7411  137.7403  162.3908 C   0  0  2  0  0  0  0  0  0  0  0  0
  155.4030  137.2659  163.8055 C   0  0  0  0  0  0  0  0  0  0  0  0
  155.0271  135.8227  163.5624 C   0  0  0  0  0  0  0  0  0  0  0  0
  156.0370  135.4162  162.4946 C   0  0  0  0  0  0  0  0  0  0  0  0
  156.3468  136.6060  161.7728 O   0  0  0  0  0  0  0  0  0  0  0  0
  152.4629  138.3296  156.7698 H   0  0  0  0  0  0  0  0  0  0  0  0
  151.4195  139.4391  155.8892 H   0  0  0  0  0  0  0  0  0  0  0  0
  150.9431  138.8601  157.4856 H   0  0  0  0  0  0  0  0  0  0  0  0
  152.9242  140.0276  158.4884 H   0  0  0  0  0  0  0  0  0  0  0  0
  153.3768  140.6475  156.9229 H   0  0  0  0  0  0  0  0  0  0  0  0
  150.7820  141.2990  158.4112 H   0  0  0  0  0  0  0  0  0  0  0  0
  151.6794  142.0063  155.6216 H   0  0  0  0  0  0  0  0  0  0  0  0
  150.0526  141.7013  156.2227 H   0  0  0  0  0  0  0  0  0  0  0  0
  151.4565  144.2249  155.9989 H   0  0  0  0  0  0  0  0  0  0  0  0
  149.8425  144.0119  156.6704 H   0  0  0  0  0  0  0  0  0  0  0  0
  150.6139  143.8086  158.8578 H   0  0  0  0  0  0  0  0  0  0  0  0
  151.4910  146.0434  158.1239 H   0  0  0  0  0  0  0  0  0  0  0  0
  153.0229  145.2970  157.6752 H   0  0  0  0  0  0  0  0  0  0  0  0
  152.5162  145.3333  159.3622 H   0  0  0  0  0  0  0  0  0  0  0  0
  151.9762  143.5573  162.6764 H   0  0  0  0  0  0  0  0  0  0  0  0
  156.2605  139.6898  159.8182 H   0  0  0  0  0  0  0  0  0  0  0  0
  156.6453  141.0654  162.8727 H   0  0  0  0  0  0  0  0  0  0  0  0
  155.2310  140.1785  163.3891 H   0  0  0  0  0  0  0  0  0  0  0  0
  157.1776  138.9835  161.3619 H   0  0  0  0  0  0  0  0  0  0  0  0
  157.4006  138.1489  163.9450 H   0  0  0  0  0  0  0  0  0  0  0  0
  154.8154  137.9558  161.8538 H   0  0  0  0  0  0  0  0  0  0  0  0
  156.2812  137.3182  164.4509 H   0  0  0  0  0  0  0  0  0  0  0  0
  154.6025  137.8433  164.2689 H   0  0  0  0  0  0  0  0  0  0  0  0
  155.0817  135.2058  164.4596 H   0  0  0  0  0  0  0  0  0  0  0  0
  154.0130  135.7623  163.1649 H   0  0  0  0  0  0  0  0  0  0  0  0
  156.9526  135.0460  162.9568 H   0  0  0  0  0  0  0  0  0  0  0  0
  155.6521  134.6386  161.8346 H   0  0  0  0  0  0  0  0  0  0  0  0
  1  2  1  0  0  0  0
  1 26  1  0  0  0  0
  1 27  1  0  0  0  0
  1 28  1  0  0  0  0
  2  3  1  0  0  0  0
  2 29  1  0  0  0  0
  2 30  1  0  0  0  0
  3  8  1  0  0  0  0
  3  4  1  0  0  0  0
  3 31  1  0  0  0  0
  4  5  1  0  0  0  0
  4 32  1  0  0  0  0
  4 33  1  0  0  0  0
  5  6  1  0  0  0  0
  5 34  1  0  0  0  0
  5 35  1  0  0  0  0
  6  7  1  0  0  0  0
  6  8  1  0  0  0  0
  6 36  1  0  0  0  0
  7 37  1  0  0  0  0
  7 38  1  0  0  0  0
  7 39  1  0  0  0  0
  8  9  1  0  0  0  0
  9 14  1  0  0  0  0
  9 10  2  0  0  0  0
 10 11  1  0  0  0  0
 11 12  2  0  0  0  0
 11 40  1  0  0  0  0
 12 13  1  0  0  0  0
 13 17  1  0  0  0  0
 13 14  2  0  0  0  0
 14 15  1  0  0  0  0
 15 16  2  0  0  0  0
 16 17  1  0  0  0  0
 16 41  1  0  0  0  0
 17 18  1  0  0  0  0
 18 19  1  0  0  0  0
 18 42  1  0  0  0  0
 18 43  1  0  0  0  0
 19 20  1  0  0  0  0
 19 21  1  0  0  0  0
 19 44  1  0  0  0  0
 20 45  1  0  0  0  0
 21 25  1  0  0  0  0
 21 22  1  0  0  0  0
 21 46  1  0  0  0  0
 22 23  1  0  0  0  0
 22 47  1  0  0  0  0
 22 48  1  0  0  0  0
 23 24  1  0  0  0  0
 23 49  1  0  0  0  0
 23 50  1  0  0  0  0
 24 25  1  0  0  0  0
 24 51  1  0  0  0  0
 24 52  1  0  0  0  0
M  END
> <s_m_source_file>
AV-unprocessed.smi

> <i_m_source_file_index>
232

> <i_lp_mmshare_version>
43012

> <i_f3d_flags>
0

> <s_epik_input>
W0NIM11bQ0gyXVtDQEBIXTFbQ0gyXVtDSDJdW0NAQEhdKFtDSDNdKU4xYyhuW2NIXW4yKWMoYzIzKW5bY0hdbjNbQ0gyXVtDQEhdKFtPSF0pW0NAQEhdNFtDSDJdW0NIMl1bQ0gyXU80

> <s_epik_cmdline>
J2VwaWtfcHl0aG9uJywgJy1waCcsICc3LjAnLCAnLXRuJywgJzgnLCAnLW1hJywgJzIwMCcsICctbWV0YWxfYmluZGluZycsICctaW1hZScsICc8aW5maWxlLm1hZT4nLCAnLW9tYWUnLCAnPG91dGZpbGUubWFlPic=

> <r_lp_tautomer_probability>
1

> <r_epik_Ionization_Penalty>
0.00258048

> <r_epik_Ionization_Penalty_Charging>
0

> <r_epik_Ionization_Penalty_Neutral>
0.00258048

> <r_epik_State_Penalty>
0.00168551

> <r_epik_Charging_Adjusted_Penalty>
0.00168551

> <i_epik_Tot_Q>
0

> <i_epik_Tot_abs_Q>
0

> <r_epik_Metal_State_Penalty>
-0

> <b_epik_Metal_Only>
0

> <s_lp_Force_Field>
OPLS_2005

> <r_lp_Energy>
51.2688

> <b_lp_Chiralities_Consistent>
1

> <s_lp_Variant>
AV-unprocessed.smi:232-7

> <Gold.Version>
5.8.1

> <Gold.Id.Protein>
6NUR|6NUR_protein|mol2

> <Gold.PLP.Fitness>
49.4969

> <Gold.PLP.PLP>
-51.7127

> <Gold.PLP.part.hbond>
-0.5715

> <Gold.PLP.part.metal>
0.0000

> <Gold.PLP.part.buried>
-1.9671

> <Gold.PLP.part.nonpolar>
-47.6648

> <Gold.PLP.part.repulsive>
0.1225

> <Gold.PLP.ligand.clash>
0.0000

> <Gold.PLP.ligand.torsion>
1.1590

> <Gold.PLP.Chemscore.Hbond>
0.0000

> <Gold.PLP.Chemscore.CHOScore>
0.0000

> <Gold.PLP.Chemscore.Metal>
0.0000

> <Gold.PLP.Chemscore.Internal.Correction>
0.1021

> <Gold.Rescore>
     Score         DG    S(hbond)    S(metal)    S(lipo)     H(rot)  DE(clash)    DE(int)     intcor
      8.10     -12.40       0.00        0.00     112.22       2.43       1.31       2.98       ----

> <Gold.Chemscore.Fitness>
8.1033

> <Gold.Chemscore.DG>
-12.3991

> <Gold.Chemscore.ZeroCoef>
-5.4800

> <Gold.Chemscore.Hbond>
0.0000

> <Gold.Chemscore.Metal>
0.0000

> <Gold.Chemscore.Lipo>
112.2205

> <Gold.Chemscore.Internal_Hbond>
0.0000

> <Gold.Chemscore.DEClash>
1.3119

> <Gold.Chemscore.DEInternal>
2.9839

> <Gold.Chemscore.Rot>
2.4260

> <Gold.Chemscore.Internal.Correction>
   9.000000E+99

> <Gold.Chemscore.Hbond.Weighted>
-0.0000

> <Gold.Chemscore.Metal.Weighted>
-0.0000

> <Gold.Chemscore.Lipo.Weighted>
-13.1298

> <Gold.Chemscore.Internal_Hbond.Weighted>
0.0000

> <Gold.Chemscore.DEClash.Weighted>
1.3119

> <Gold.Chemscore.DEInternal.Weighted>
2.9839

> <Gold.Chemscore.Rot.Weighted>
6.2107

> <Gold.Chemscore.Internal.Correction.Weighted>
   9.000000E+99

> <Gold.Protein.RotatedTorsions>
[ 6907 6896 6895 6894 ] final  109.53 input  -60.11 | X-H torsion
[ 7974 7965 7964 7962 ] final  -89.32 input  175.53 | X-H torsion
[ 8008 7997 7996 7995 ] final  -58.81 input   59.86 | X-H torsion
[ 10167 10162 10161 10158 ] final -147.47 input  -65.29 | X-H torsion
[ 10718 10713 10712 10709 ] final -117.09 input   66.30 | X-H torsion
[ 10763 10752 10751 10750 ] final  112.33 input  -60.55 | X-H torsion
[ 11005 11000 10999 10996 ] final -162.88 input  -57.11 | X-H torsion

> <Gold.Protein.ActiveResidues>
 VAL166  LYS551  ARG553  GLY616  TRP617  ASP618  TYR619  PRO620  LYS621  CYS622 
 ASP623  PHE694  ASN695  SER759  ASP760  ASP761  ALA762  ILE779  LEU786  VAL792 
 PHE793  MET794  SER795  GLU796  ALA797  LYS798  CYS799  TRP800  GLU811  SER814 

> <Gold.Protein.RotatedAtoms>
  152.5063  133.8930  159.7403 H   0  0  0  0  0  0  0  0  0  0  0  0  # atno 6907 bound_to 6896
  150.9364  133.6698  159.2806 H   0  0  0  0  0  0  0  0  0  0  0  0  # atno 6908 bound_to 6896
  151.4025  135.0978  159.9613 H   0  0  0  0  0  0  0  0  0  0  0  0  # atno 6909 bound_to 6896
  145.4413  140.9559  143.2073 H   0  0  0  0  0  0  0  0  0  0  0  0  # atno 7974 bound_to 7965
  154.4325  140.1075  156.6017 H   0  0  0  0  0  0  0  0  0  0  0  0  # atno 8008 bound_to 7997
  155.5904  140.3492  155.4546 H   0  0  0  0  0  0  0  0  0  0  0  0  # atno 8009 bound_to 7997
  156.0250  140.1248  157.0307 H   0  0  0  0  0  0  0  0  0  0  0  0  # atno 8010 bound_to 7997
  139.7619  143.8364  152.2608 H   0  0  0  0  0  0  0  0  0  0  0  0  # atno 10167 bound_to 10162
  156.1009  130.6171  150.9119 H   0  0  0  0  0  0  0  0  0  0  0  0  # atno 10718 bound_to 10713
  153.4763  135.3689  155.2418 H   0  0  0  0  0  0  0  0  0  0  0  0  # atno 10763 bound_to 10752
  154.8756  135.3943  154.3752 H   0  0  0  0  0  0  0  0  0  0  0  0  # atno 10764 bound_to 10752
  153.4348  135.7083  153.6272 H   0  0  0  0  0  0  0  0  0  0  0  0  # atno 10765 bound_to 10752
  140.6043  134.4915  157.5209 H   0  0  0  0  0  0  0  0  0  0  0  0  # atno 11005 bound_to 11000
  144.8119  139.5946  143.7025 LP  0  0  0  0  0  0  0  0  0  0  0  0  # atno 17320 bound_to 7965
  146.2554  139.6292  142.9398 LP  0  0  0  0  0  0  0  0  0  0  0  0  # atno 17321 bound_to 7965
  139.8373  144.7226  150.9375 LP  0  0  0  0  0  0  0  0  0  0  0  0  # atno 17342 bound_to 10162
  140.7808  143.4015  151.1141 LP  0  0  0  0  0  0  0  0  0  0  0  0  # atno 17343 bound_to 10162
  157.6179  131.0932  150.8677 LP  0  0  0  0  0  0  0  0  0  0  0  0  # atno 17370 bound_to 10713
  156.8805  130.5178  149.5291 LP  0  0  0  0  0  0  0  0  0  0  0  0  # atno 17371 bound_to 10713
  139.9219  134.8132  156.1186 LP  0  0  0  0  0  0  0  0  0  0  0  0  # atno 17394 bound_to 11000
  141.0851  133.6737  156.2419 LP  0  0  0  0  0  0  0  0  0  0  0  0  # atno 17395 bound_to 11000

$$$$
