AV-unprocessed.smi:3258|AV-procd|sdf|12468|dock4
  -GOLD-   2272018363D 1   1.00000     0.00000
 Structure written by MMmdl.
 38 39  0  0  0  0  0  0  0  0  1 V2000
  148.5173  131.6564  153.8339 C   0  0  0  0  0  0  0  0  0  0  0  0
  147.6671  132.8623  153.4014 C   0  0  2  0  0  0  0  0  0  0  0  0
  147.1693  132.7654  151.9426 C   0  0  0  0  0  0  0  0  0  0  0  0
  145.9683  133.5456  151.7065 N   0  0  0  0  0  0  0  0  0  0  0  0
  145.8355  134.9176  151.6764 C   0  0  0  0  0  0  0  0  0  0  0  0
  144.5232  135.1928  151.4185 C   0  0  0  0  0  0  0  0  0  0  0  0
  143.9247  133.9069  151.3026 C   0  0  0  0  0  0  0  0  0  0  0  0
  144.7926  132.9227  151.4736 N   0  0  0  0  0  0  0  0  0  0  0  0
  148.4427  134.0856  153.5870 N   0  0  0  0  0  0  0  0  0  0  0  0
  148.9962  134.4833  154.7414 C   0  0  0  0  0  0  0  0  0  0  0  0
  148.9175  133.8548  155.7970 O   0  0  0  0  0  0  0  0  0  0  0  0
  149.6377  135.6524  154.6070 N   0  0  0  0  0  0  0  0  0  0  0  0
  150.3335  136.3630  155.6751 C   0  0  0  0  0  0  0  0  0  0  0  0
  151.1049  137.5855  155.1431 C   0  0  2  0  0  0  0  0  0  0  0  0
  151.8839  138.3288  156.2091 C   0  0  0  0  0  0  0  0  0  0  0  0
  152.1336  139.6804  155.5438 C   0  0  0  0  0  0  0  0  0  0  0  0
  151.0524  139.8803  154.6371 O   0  0  0  0  0  0  0  0  0  0  0  0
  150.2358  138.7151  154.5886 C   0  0  0  0  0  0  0  0  0  0  0  0
  147.9454  130.7292  153.7964 H   0  0  0  0  0  0  0  0  0  0  0  0
  148.8730  131.7745  154.8580 H   0  0  0  0  0  0  0  0  0  0  0  0
  149.3891  131.5359  153.1899 H   0  0  0  0  0  0  0  0  0  0  0  0
  146.7990  132.9010  154.0625 H   0  0  0  0  0  0  0  0  0  0  0  0
  147.9371  133.1213  151.2543 H   0  0  0  0  0  0  0  0  0  0  0  0
  146.9744  131.7249  151.6767 H   0  0  0  0  0  0  0  0  0  0  0  0
  146.6766  135.5752  151.8405 H   0  0  0  0  0  0  0  0  0  0  0  0
  144.0615  136.1646  151.3261 H   0  0  0  0  0  0  0  0  0  0  0  0
  142.8929  133.6611  151.0995 H   0  0  0  0  0  0  0  0  0  0  0  0
  148.5621  134.6742  152.7755 H   0  0  0  0  0  0  0  0  0  0  0  0
  149.6425  136.0879  153.6962 H   0  0  0  0  0  0  0  0  0  0  0  0
  149.6391  136.6573  156.4641 H   0  0  0  0  0  0  0  0  0  0  0  0
  151.0333  135.6632  156.1326 H   0  0  0  0  0  0  0  0  0  0  0  0
  151.8024  137.2657  154.3668 H   0  0  0  0  0  0  0  0  0  0  0  0
  151.2726  138.4613  157.1031 H   0  0  0  0  0  0  0  0  0  0  0  0
  152.8055  137.8232  156.4989 H   0  0  0  0  0  0  0  0  0  0  0  0
  152.1990  140.4919  156.2691 H   0  0  0  0  0  0  0  0  0  0  0  0
  153.0632  139.6605  154.9743 H   0  0  0  0  0  0  0  0  0  0  0  0
  149.8836  138.5183  153.5757 H   0  0  0  0  0  0  0  0  0  0  0  0
  149.3642  138.8788  155.2240 H   0  0  0  0  0  0  0  0  0  0  0  0
  1  2  1  0  0  0  0
  1 19  1  0  0  0  0
  1 20  1  0  0  0  0
  1 21  1  0  0  0  0
  2  3  1  0  0  0  0
  2  9  1  0  0  0  0
  2 22  1  0  0  0  0
  3  4  1  0  0  0  0
  3 23  1  0  0  0  0
  3 24  1  0  0  0  0
  4  8  1  0  0  0  0
  4  5  1  0  0  0  0
  5  6  2  0  0  0  0
  5 25  1  0  0  0  0
  6  7  1  0  0  0  0
  6 26  1  0  0  0  0
  7  8  2  0  0  0  0
  7 27  1  0  0  0  0
  9 10  1  0  0  0  0
  9 28  1  0  0  0  0
 10 11  2  0  0  0  0
 10 12  1  0  0  0  0
 12 13  1  0  0  0  0
 12 29  1  0  0  0  0
 13 14  1  0  0  0  0
 13 30  1  0  0  0  0
 13 31  1  0  0  0  0
 14 18  1  0  0  0  0
 14 15  1  0  0  0  0
 14 32  1  0  0  0  0
 15 16  1  0  0  0  0
 15 33  1  0  0  0  0
 15 34  1  0  0  0  0
 16 17  1  0  0  0  0
 16 35  1  0  0  0  0
 16 36  1  0  0  0  0
 17 18  1  0  0  0  0
 18 37  1  0  0  0  0
 18 38  1  0  0  0  0
M  END
> <s_m_source_file>
AV-unprocessed.smi

> <i_m_source_file_index>
3258

> <i_lp_mmshare_version>
43012

> <i_f3d_flags>
0

> <s_epik_input>
bjFbY0hdW2NIXVtjSF1uMVtDSDJdW0NAQEhdKFtDSDNdKVtOSF1DKD1PKVtOSF1bQ0gyXVtDQEBIXTJbQ0gyXVtDSDJdT1tDSDJdMg==

> <s_epik_cmdline>
J2VwaWtfcHl0aG9uJywgJy1waCcsICc3LjAnLCAnLXRuJywgJzgnLCAnLW1hJywgJzIwMCcsICctbWV0YWxfYmluZGluZycsICctaW1hZScsICc8aW5maWxlLm1hZT4nLCAnLW9tYWUnLCAnPG91dGZpbGUubWFlPic=

> <r_lp_tautomer_probability>
1

> <r_epik_Ionization_Penalty>
6.85079e-05

> <r_epik_Ionization_Penalty_Charging>
0

> <r_epik_Ionization_Penalty_Neutral>
6.85079e-05

> <r_epik_State_Penalty>
-0

> <r_epik_Charging_Adjusted_Penalty>
0

> <i_epik_Tot_Q>
0

> <i_epik_Tot_abs_Q>
0

> <r_epik_Metal_State_Penalty>
-0

> <b_epik_Metal_Only>
0

> <s_lp_Force_Field>
OPLS_2005

> <r_lp_Energy>
16.0555

> <b_lp_Chiralities_Consistent>
1

> <s_lp_Variant>
AV-unprocessed.smi:3258-1

> <Gold.Version>
5.8.1

> <Gold.Id.Protein>
6NUR|6NUR_protein|mol2

> <Gold.PLP.Fitness>
44.4662

> <Gold.PLP.PLP>
-30.2371

> <Gold.PLP.part.hbond>
-3.0000

> <Gold.PLP.part.metal>
0.0000

> <Gold.PLP.part.buried>
-3.4848

> <Gold.PLP.part.nonpolar>
-24.7929

> <Gold.PLP.part.repulsive>
0.2503

> <Gold.PLP.ligand.clash>
0.0000

> <Gold.PLP.ligand.torsion>
0.3741

> <Gold.PLP.Chemscore.Hbond>
2.9760

> <Gold.PLP.Chemscore.CHOScore>
2.0000

> <Gold.PLP.Chemscore.Metal>
0.0000

> <Gold.Chemscore.Hbonds>
donor molecule, donor type, donor heavy atom, donor atom, acceptor molecule, acceptor atom, score
      L1  H     9    28       P1  7948  0.90
      L1  H    12    29       P1  7948  1.00
      P1  H  7989  7998       L1    17  1.00
      L1  C     5    25       P1  7948  1.00
      L1  C     7    27       P1 10186  0.95

> <Gold.PLP.Chemscore.Internal.Correction>
0.0492

> <Gold.Rescore>
     Score         DG    S(hbond)    S(metal)    S(lipo)     H(rot)  DE(clash)    DE(int)     intcor
     15.41     -15.81       2.51        0.00      57.49       1.87       0.00       0.40       ----

> <Gold.Chemscore.Fitness>
15.4072

> <Gold.Chemscore.DG>
-15.8096

> <Gold.Chemscore.ZeroCoef>
-5.4800

> <Gold.Chemscore.Hbond>
2.5138

> <Gold.Chemscore.Metal>
0.0000

> <Gold.Chemscore.Lipo>
57.4935

> <Gold.Chemscore.Internal_Hbond>
0.0000

> <Gold.Chemscore.DEClash>
0.0000

> <Gold.Chemscore.DEInternal>
0.4024

> <Gold.Chemscore.Rot>
1.8724

> <Gold.Chemscore.Internal.Correction>
   9.000000E+99

> <Gold.Chemscore.Hbonds>
donor molecule, donor type, donor heavy atom, donor atom, acceptor molecule, acceptor atom, score
      L1  H     9    28       P1  7948  0.18
      L1  H    12    29       P1  7948  0.33
      P1  H  7989  7998       L1    17  0.50

> <Gold.Chemscore.Hbond.Weighted>
-8.3962

> <Gold.Chemscore.Metal.Weighted>
-0.0000

> <Gold.Chemscore.Lipo.Weighted>
-6.7267

> <Gold.Chemscore.Internal_Hbond.Weighted>
0.0000

> <Gold.Chemscore.DEClash.Weighted>
0.0000

> <Gold.Chemscore.DEInternal.Weighted>
0.4024

> <Gold.Chemscore.Rot.Weighted>
4.7933

> <Gold.Chemscore.Internal.Correction.Weighted>
   9.000000E+99

> <Gold.Protein.RotatedTorsions>
[ 6907 6896 6895 6894 ] final   95.57 input  -60.11 | X-H torsion
[ 7974 7965 7964 7962 ] final -143.36 input  175.53 | X-H torsion
[ 8008 7997 7996 7995 ] final  -63.94 input   59.86 | X-H torsion
[ 10167 10162 10161 10158 ] final   23.63 input  -65.29 | X-H torsion
[ 10718 10713 10712 10709 ] final  179.29 input   66.30 | X-H torsion
[ 10763 10752 10751 10750 ] final  -63.46 input  -60.55 | X-H torsion
[ 11005 11000 10999 10996 ] final  137.14 input  -57.11 | X-H torsion

> <Gold.Protein.ActiveResidues>
 VAL166  LYS551  ARG553  GLY616  TRP617  ASP618  TYR619  PRO620  LYS621  CYS622 
 ASP623  PHE694  ASN695  SER759  ASP760  ASP761  ALA762  ILE779  LEU786  VAL792 
 PHE793  MET794  SER795  GLU796  ALA797  LYS798  CYS799  TRP800  GLU811  SER814 

> <Gold.Protein.RotatedAtoms>
  152.5442  134.1020  159.8321 H   0  0  0  0  0  0  0  0  0  0  0  0  # atno 6907 bound_to 6896
  151.1096  133.5175  159.2613 H   0  0  0  0  0  0  0  0  0  0  0  0  # atno 6908 bound_to 6896
  151.1899  135.0407  159.8882 H   0  0  0  0  0  0  0  0  0  0  0  0  # atno 6909 bound_to 6896
  144.8375  140.5844  143.5474 H   0  0  0  0  0  0  0  0  0  0  0  0  # atno 7974 bound_to 7965
  154.4583  140.0964  156.6820 H   0  0  0  0  0  0  0  0  0  0  0  0  # atno 8008 bound_to 7997
  155.5071  140.3475  155.4363 H   0  0  0  0  0  0  0  0  0  0  0  0  # atno 8009 bound_to 7997
  156.0821  140.1375  156.9688 H   0  0  0  0  0  0  0  0  0  0  0  0  # atno 8010 bound_to 7997
  140.5254  143.9933  150.6437 H   0  0  0  0  0  0  0  0  0  0  0  0  # atno 10167 bound_to 10162
  156.8780  130.9806  151.3065 H   0  0  0  0  0  0  0  0  0  0  0  0  # atno 10718 bound_to 10713
  154.3154  135.6207  153.5484 H   0  0  0  0  0  0  0  0  0  0  0  0  # atno 10763 bound_to 10752
  152.9825  135.5711  154.5130 H   0  0  0  0  0  0  0  0  0  0  0  0  # atno 10764 bound_to 10752
  154.4788  135.2862  155.1563 H   0  0  0  0  0  0  0  0  0  0  0  0  # atno 10765 bound_to 10752
  140.0094  134.9445  157.0244 H   0  0  0  0  0  0  0  0  0  0  0  0  # atno 11005 bound_to 11000
  145.4763  139.1499  143.3786 LP  0  0  0  0  0  0  0  0  0  0  0  0  # atno 17320 bound_to 7965
  146.2672  140.4898  142.8829 LP  0  0  0  0  0  0  0  0  0  0  0  0  # atno 17321 bound_to 7965
  140.3293  143.3088  152.0704 LP  0  0  0  0  0  0  0  0  0  0  0  0  # atno 17342 bound_to 10162
  139.4936  144.6520  151.6654 LP  0  0  0  0  0  0  0  0  0  0  0  0  # atno 17343 bound_to 10162
  157.6157  130.8616  149.9024 LP  0  0  0  0  0  0  0  0  0  0  0  0  # atno 17370 bound_to 10713
  156.0692  130.3687  150.0813 LP  0  0  0  0  0  0  0  0  0  0  0  0  # atno 17371 bound_to 10713
  140.4582  134.1511  155.7188 LP  0  0  0  0  0  0  0  0  0  0  0  0  # atno 17394 bound_to 11000
  141.1700  133.8628  157.1600 LP  0  0  0  0  0  0  0  0  0  0  0  0  # atno 17395 bound_to 11000

$$$$
