AV-unprocessed.smi:2733|AV-procd|sdf|10536|dock1
  -GOLD-   2272014583D 1   1.00000     0.00000
 Structure written by MMmdl.
 44 45  0  0  0  0  0  0  0  0  1 V2000
  144.3025  135.3438  152.9155 C   0  0  0  0  0  0  0  0  0  0  0  0
  145.1804  136.1600  152.3096 C   0  0  0  0  0  0  0  0  0  0  0  0
  145.8106  135.8096  150.9742 C   0  0  0  0  0  0  0  0  0  0  0  0
  145.5914  137.4923  152.9189 C   0  0  0  0  0  0  0  0  0  0  0  0
  147.0315  137.5841  153.1357 N   0  0  0  0  0  0  0  0  0  0  0  0
  147.6129  138.2337  154.1541 C   0  0  0  0  0  0  0  0  0  0  0  0
  146.9816  138.8388  155.0205 O   0  0  0  0  0  0  0  0  0  0  0  0
  148.9508  138.1144  154.1068 N   0  0  0  0  0  0  0  0  0  0  0  0
  149.9165  138.6385  155.0078 C   0  0  0  0  0  0  0  0  0  0  0  0
  151.2912  138.7848  154.7055 C   0  0  0  0  0  0  0  0  0  0  0  0
  152.1518  139.3062  155.6897 C   0  0  0  0  0  0  0  0  0  0  0  0
  151.6133  139.6664  156.9451 C   0  0  0  0  0  0  0  0  0  0  0  0
  152.5000  140.2133  158.0255 C   0  0  0  0  0  0  0  0  0  0  0  0
  153.6013  139.6907  158.2018 O   0  0  0  0  0  0  0  0  0  0  0  0
  152.0512  141.2644  158.7578 N   0  0  0  0  0  0  0  0  0  0  0  0
  150.6975  141.8400  158.7106 C   0  0  0  0  0  0  0  0  0  0  0  0
  150.7789  143.2906  158.2010 C   0  0  0  0  0  0  0  0  0  0  0  0
  151.7328  144.1264  159.0734 C   0  0  0  0  0  0  0  0  0  0  0  0
  153.0916  143.4260  159.2563 C   0  0  0  0  0  0  0  0  0  0  0  0
  152.9057  141.9703  159.7225 C   0  0  0  0  0  0  0  0  0  0  0  0
  150.3065  139.5011  157.2493 N   0  0  0  0  0  0  0  0  0  0  0  0
  149.4869  139.0000  156.3014 C   0  0  0  0  0  0  0  0  0  0  0  0
  144.0148  134.4010  152.4735 H   0  0  0  0  0  0  0  0  0  0  0  0
  143.8586  135.6052  153.8650 H   0  0  0  0  0  0  0  0  0  0  0  0
  145.5933  136.5850  150.2393 H   0  0  0  0  0  0  0  0  0  0  0  0
  145.4284  134.8631  150.5906 H   0  0  0  0  0  0  0  0  0  0  0  0
  146.8927  135.7196  151.0703 H   0  0  0  0  0  0  0  0  0  0  0  0
  145.2933  138.2928  152.2416 H   0  0  0  0  0  0  0  0  0  0  0  0
  145.0614  137.6664  153.8572 H   0  0  0  0  0  0  0  0  0  0  0  0
  147.6243  137.1114  152.4692 H   0  0  0  0  0  0  0  0  0  0  0  0
  149.3178  137.5201  153.3778 H   0  0  0  0  0  0  0  0  0  0  0  0
  151.7044  138.4957  153.7517 H   0  0  0  0  0  0  0  0  0  0  0  0
  153.2059  139.4204  155.4835 H   0  0  0  0  0  0  0  0  0  0  0  0
  149.9984  141.2670  158.1024 H   0  0  0  0  0  0  0  0  0  0  0  0
  150.2747  141.8271  159.7160 H   0  0  0  0  0  0  0  0  0  0  0  0
  151.1278  143.2997  157.1682 H   0  0  0  0  0  0  0  0  0  0  0  0
  149.7866  143.7425  158.1957 H   0  0  0  0  0  0  0  0  0  0  0  0
  151.8732  145.1160  158.6375 H   0  0  0  0  0  0  0  0  0  0  0  0
  151.2776  144.2819  160.0524 H   0  0  0  0  0  0  0  0  0  0  0  0
  153.6385  143.4378  158.3125 H   0  0  0  0  0  0  0  0  0  0  0  0
  153.7009  143.9756  159.9743 H   0  0  0  0  0  0  0  0  0  0  0  0
  152.4361  141.9462  160.7069 H   0  0  0  0  0  0  0  0  0  0  0  0
  153.8832  141.5028  159.8469 H   0  0  0  0  0  0  0  0  0  0  0  0
  148.4505  138.8896  156.5857 H   0  0  0  0  0  0  0  0  0  0  0  0
  1  2  2  0  0  0  0
  1 23  1  0  0  0  0
  1 24  1  0  0  0  0
  2  3  1  0  0  0  0
  2  4  1  0  0  0  0
  3 25  1  0  0  0  0
  3 26  1  0  0  0  0
  3 27  1  0  0  0  0
  4  5  1  0  0  0  0
  4 28  1  0  0  0  0
  4 29  1  0  0  0  0
  5  6  1  0  0  0  0
  5 30  1  0  0  0  0
  6  7  2  0  0  0  0
  6  8  1  0  0  0  0
  8  9  1  0  0  0  0
  8 31  1  0  0  0  0
  9 22  1  0  0  0  0
  9 10  2  0  0  0  0
 10 11  1  0  0  0  0
 10 32  1  0  0  0  0
 11 12  2  0  0  0  0
 11 33  1  0  0  0  0
 12 13  1  0  0  0  0
 12 21  1  0  0  0  0
 13 14  2  0  0  0  0
 13 15  1  0  0  0  0
 15 20  1  0  0  0  0
 15 16  1  0  0  0  0
 16 17  1  0  0  0  0
 16 34  1  0  0  0  0
 16 35  1  0  0  0  0
 17 18  1  0  0  0  0
 17 36  1  0  0  0  0
 17 37  1  0  0  0  0
 18 19  1  0  0  0  0
 18 38  1  0  0  0  0
 18 39  1  0  0  0  0
 19 20  1  0  0  0  0
 19 40  1  0  0  0  0
 19 41  1  0  0  0  0
 20 42  1  0  0  0  0
 20 43  1  0  0  0  0
 21 22  2  0  0  0  0
 22 44  1  0  0  0  0
M  END
> <s_m_source_file>
AV-unprocessed.smi

> <i_m_source_file_index>
2733

> <i_lp_mmshare_version>
43012

> <i_f3d_flags>
0

> <s_epik_input>
W0NIMl09QyhbQ0gzXSlbQ0gyXVtOSF1DKD1PKVtOSF1jMVtjSF1bY0hdYyhuW2NIXTEpQyg9TylOMltDSDJdW0NIMl1bQ0gyXVtDSDJdW0NIMl0y

> <s_epik_cmdline>
J2VwaWtfcHl0aG9uJywgJy1waCcsICc3LjAnLCAnLXRuJywgJzgnLCAnLW1hJywgJzIwMCcsICctbWV0YWxfYmluZGluZycsICctaW1hZScsICc8aW5maWxlLm1hZT4nLCAnLW9tYWUnLCAnPG91dGZpbGUubWFlPic=

> <r_lp_tautomer_probability>
1

> <r_epik_Ionization_Penalty>
4.66871e-05

> <r_epik_Ionization_Penalty_Charging>
0

> <r_epik_Ionization_Penalty_Neutral>
4.66871e-05

> <r_epik_State_Penalty>
-0

> <r_epik_Charging_Adjusted_Penalty>
0

> <i_epik_Tot_Q>
0

> <i_epik_Tot_abs_Q>
0

> <r_epik_Metal_State_Penalty>
-0

> <b_epik_Metal_Only>
0

> <s_lp_Force_Field>
OPLS_2005

> <r_lp_Energy>
34.8173

> <b_lp_Chiralities_Consistent>
1

> <s_lp_Variant>
AV-unprocessed.smi:2733-1

> <Gold.Version>
5.8.1

> <Gold.Id.Protein>
6NUR|6NUR_protein|mol2

> <Gold.PLP.Fitness>
48.5943

> <Gold.PLP.PLP>
-40.3215

> <Gold.PLP.part.hbond>
-3.0000

> <Gold.PLP.part.metal>
0.0000

> <Gold.PLP.part.buried>
-4.7149

> <Gold.PLP.part.nonpolar>
-33.6222

> <Gold.PLP.part.repulsive>
0.1385

> <Gold.PLP.ligand.clash>
0.0000

> <Gold.PLP.ligand.torsion>
0.9894

> <Gold.PLP.Chemscore.Hbond>
3.0000

> <Gold.PLP.Chemscore.CHOScore>
0.0000

> <Gold.PLP.Chemscore.Metal>
0.0000

> <Gold.Chemscore.Hbonds>
donor molecule, donor type, donor heavy atom, donor atom, acceptor molecule, acceptor atom, score
      L1  H     5    30       P1  7948  1.00
      L1  H     8    31       P1  7948  0.99
      P1  H  7997  8008       L1    14  1.00

> <Gold.PLP.Chemscore.Internal.Correction>
1.2517

> <Gold.Rescore>
     Score         DG    S(hbond)    S(metal)    S(lipo)     H(rot)  DE(clash)    DE(int)     intcor
     20.22     -23.92       2.91        0.00      99.67       1.15       0.01       3.69       ----

> <Gold.Chemscore.Fitness>
20.2197

> <Gold.Chemscore.DG>
-23.9152

> <Gold.Chemscore.ZeroCoef>
-5.4800

> <Gold.Chemscore.Hbond>
2.9057

> <Gold.Chemscore.Metal>
0.0000

> <Gold.Chemscore.Lipo>
99.6726

> <Gold.Chemscore.Internal_Hbond>
0.0000

> <Gold.Chemscore.DEClash>
0.0085

> <Gold.Chemscore.DEInternal>
3.6870

> <Gold.Chemscore.Rot>
1.1452

> <Gold.Chemscore.Internal.Correction>
   9.000000E+99

> <Gold.Chemscore.Hbonds>
donor molecule, donor type, donor heavy atom, donor atom, acceptor molecule, acceptor atom, score
      L1  H     5    30       P1  7948  1.00
      L1  H     8    31       P1  7948  0.89
      P1  H  7997  8008       L1    14  0.93

> <Gold.Chemscore.Hbond.Weighted>
-9.7052

> <Gold.Chemscore.Metal.Weighted>
-0.0000

> <Gold.Chemscore.Lipo.Weighted>
-11.6617

> <Gold.Chemscore.Internal_Hbond.Weighted>
0.0000

> <Gold.Chemscore.DEClash.Weighted>
0.0085

> <Gold.Chemscore.DEInternal.Weighted>
3.6870

> <Gold.Chemscore.Rot.Weighted>
2.9317

> <Gold.Chemscore.Internal.Correction.Weighted>
   9.000000E+99

> <Gold.Protein.RotatedTorsions>
[ 6907 6896 6895 6894 ] final   47.02 input  -60.11 | X-H torsion
[ 7974 7965 7964 7962 ] final  -26.96 input  175.53 | X-H torsion
[ 8008 7997 7996 7995 ] final  -99.42 input   59.86 | X-H torsion
[ 10167 10162 10161 10158 ] final   61.40 input  -65.29 | X-H torsion
[ 10718 10713 10712 10709 ] final  106.75 input   66.30 | X-H torsion
[ 10763 10752 10751 10750 ] final -126.25 input  -60.55 | X-H torsion
[ 11005 11000 10999 10996 ] final  132.01 input  -57.11 | X-H torsion

> <Gold.Protein.ActiveResidues>
 VAL166  LYS551  ARG553  GLY616  TRP617  ASP618  TYR619  PRO620  LYS621  CYS622 
 ASP623  PHE694  ASN695  SER759  ASP760  ASP761  ALA762  ILE779  LEU786  VAL792 
 PHE793  MET794  SER795  GLU796  ALA797  LYS798  CYS799  TRP800  GLU811  SER814 

> <Gold.Protein.RotatedAtoms>
  152.2632  134.8012  160.0426 H   0  0  0  0  0  0  0  0  0  0  0  0  # atno 6907 bound_to 6896
  151.8651  133.3459  159.3725 H   0  0  0  0  0  0  0  0  0  0  0  0  # atno 6908 bound_to 6896
  150.7124  134.5095  159.5644 H   0  0  0  0  0  0  0  0  0  0  0  0  # atno 6909 bound_to 6896
  146.1390  140.5089  142.8660 H   0  0  0  0  0  0  0  0  0  0  0  0  # atno 7974 bound_to 7965
  154.8146  140.0448  157.1367 H   0  0  0  0  0  0  0  0  0  0  0  0  # atno 8008 bound_to 7997
  154.9329  140.3042  155.5138 H   0  0  0  0  0  0  0  0  0  0  0  0  # atno 8009 bound_to 7997
  156.2975  140.2319  156.4391 H   0  0  0  0  0  0  0  0  0  0  0  0  # atno 8010 bound_to 7997
  140.1552  144.4424  150.6738 H   0  0  0  0  0  0  0  0  0  0  0  0  # atno 10167 bound_to 10162
  157.6656  131.0857  150.6054 H   0  0  0  0  0  0  0  0  0  0  0  0  # atno 10718 bound_to 10713
  154.8744  135.4002  154.3400 H   0  0  0  0  0  0  0  0  0  0  0  0  # atno 10763 bound_to 10752
  153.4201  135.7023  153.6305 H   0  0  0  0  0  0  0  0  0  0  0  0  # atno 10764 bound_to 10752
  153.4971  135.3735  155.2491 H   0  0  0  0  0  0  0  0  0  0  0  0  # atno 10765 bound_to 10752
  139.9764  134.9562  156.9521 H   0  0  0  0  0  0  0  0  0  0  0  0  # atno 11005 bound_to 11000
  144.7771  140.5763  143.6630 LP  0  0  0  0  0  0  0  0  0  0  0  0  # atno 17320 bound_to 7965
  145.5090  139.1480  143.3615 LP  0  0  0  0  0  0  0  0  0  0  0  0  # atno 17321 bound_to 7965
  140.6678  143.2274  151.5701 LP  0  0  0  0  0  0  0  0  0  0  0  0  # atno 17342 bound_to 10162
  139.5407  144.2656  152.1344 LP  0  0  0  0  0  0  0  0  0  0  0  0  # atno 17343 bound_to 10162
  156.6355  130.4444  149.5771 LP  0  0  0  0  0  0  0  0  0  0  0  0  # atno 17370 bound_to 10713
  156.2249  130.6760  151.1406 LP  0  0  0  0  0  0  0  0  0  0  0  0  # atno 17371 bound_to 10713
  140.5185  134.0931  155.7286 LP  0  0  0  0  0  0  0  0  0  0  0  0  # atno 17394 bound_to 11000
  141.1441  133.9086  157.2257 LP  0  0  0  0  0  0  0  0  0  0  0  0  # atno 17395 bound_to 11000

$$$$
