AV-unprocessed.smi:2061|AV-procd|sdf|8362|dock8
  -GOLD-   2272011 33D 1   1.00000     0.00000
 Structure written by MMmdl.
 45 46  0  0  0  0  0  0  0  0  1 V2000
  143.5848  132.4814  149.0824 C   0  0  0  0  0  0  0  0  0  0  0  0
  144.6533  133.1670  149.8637 C   0  0  0  0  0  0  0  0  0  0  0  0
  144.7105  134.3752  150.5000 C   0  0  0  0  0  0  0  0  0  0  0  0
  146.0266  134.3938  151.0339 C   0  0  0  0  0  0  0  0  0  0  0  0
  146.4950  135.5053  151.7803 N   0  0  0  0  0  0  0  0  0  0  0  0
  145.7603  136.4101  152.4492 C   0  0  0  0  0  0  0  0  0  0  0  0
  144.5306  136.4158  152.5142 O   0  0  0  0  0  0  0  0  0  0  0  0
  146.5393  137.3237  153.0458 N   0  0  0  0  0  0  0  0  0  0  0  0
  146.0688  138.4535  153.8453 C   0  0  0  0  0  0  0  0  0  0  0  0
  147.0084  139.6846  153.7471 C   0  0  2  0  0  0  0  0  0  0  0  0
  147.1822  140.0501  152.2554 C   0  0  0  0  0  0  0  0  0  0  0  0
  148.2902  139.5247  154.4691 N   0  0  0  0  0  0  0  0  0  0  0  0
  148.8075  140.7941  154.9843 C   0  0  0  0  0  0  0  0  0  0  0  0
  150.1246  140.6235  155.7626 C   0  0  2  0  0  0  0  0  0  0  0  0
  150.6980  141.9665  156.2264 C   0  0  0  0  0  0  0  0  0  0  0  0
  151.0925  139.9960  154.9273 O   0  0  0  0  0  0  0  0  0  0  0  0
  150.6812  138.7529  154.3617 C   0  0  1  0  0  0  0  0  0  0  0  0
  150.6830  137.6206  155.4031 C   0  0  0  0  0  0  0  0  0  0  0  0
  149.3304  138.9140  153.6362 C   0  0  0  0  0  0  0  0  0  0  0  0
  146.7097  133.2950  150.7514 N   0  0  0  0  0  0  0  0  0  0  0  0
  145.8334  132.5037  149.9995 O   0  0  0  0  0  0  0  0  0  0  0  0
  142.5994  132.8585  149.3565 H   0  0  0  0  0  0  0  0  0  0  0  0
  143.5968  131.4068  149.2654 H   0  0  0  0  0  0  0  0  0  0  0  0
  143.7250  132.6446  148.0138 H   0  0  0  0  0  0  0  0  0  0  0  0
  143.9353  135.1237  150.5679 H   0  0  0  0  0  0  0  0  0  0  0  0
  147.4970  135.6210  151.8121 H   0  0  0  0  0  0  0  0  0  0  0  0
  147.5386  137.2437  152.9276 H   0  0  0  0  0  0  0  0  0  0  0  0
  145.0531  138.7318  153.5595 H   0  0  0  0  0  0  0  0  0  0  0  0
  145.9740  138.1207  154.8783 H   0  0  0  0  0  0  0  0  0  0  0  0
  146.4689  140.5159  154.2038 H   0  0  0  0  0  0  0  0  0  0  0  0
  146.2273  140.0324  151.7296 H   0  0  0  0  0  0  0  0  0  0  0  0
  147.8502  139.3538  151.7474 H   0  0  0  0  0  0  0  0  0  0  0  0
  147.5808  141.0554  152.1235 H   0  0  0  0  0  0  0  0  0  0  0  0
  148.9557  141.4936  154.1602 H   0  0  0  0  0  0  0  0  0  0  0  0
  148.0888  141.2529  155.6609 H   0  0  0  0  0  0  0  0  0  0  0  0
  149.9491  140.0054  156.6434 H   0  0  0  0  0  0  0  0  0  0  0  0
  150.0017  142.4841  156.8863 H   0  0  0  0  0  0  0  0  0  0  0  0
  150.9066  142.6207  155.3795 H   0  0  0  0  0  0  0  0  0  0  0  0
  151.6301  141.8233  156.7737 H   0  0  0  0  0  0  0  0  0  0  0  0
  151.4322  138.4960  153.6142 H   0  0  0  0  0  0  0  0  0  0  0  0
  150.4830  136.6592  154.9295 H   0  0  0  0  0  0  0  0  0  0  0  0
  149.9240  137.7676  156.1712 H   0  0  0  0  0  0  0  0  0  0  0  0
  151.6516  137.5494  155.8980 H   0  0  0  0  0  0  0  0  0  0  0  0
  149.0204  137.9293  153.2904 H   0  0  0  0  0  0  0  0  0  0  0  0
  149.4804  139.5232  152.7435 H   0  0  0  0  0  0  0  0  0  0  0  0
  1  2  1  0  0  0  0
  1 22  1  0  0  0  0
  1 23  1  0  0  0  0
  1 24  1  0  0  0  0
  2 21  1  0  0  0  0
  2  3  2  0  0  0  0
  3  4  1  0  0  0  0
  3 25  1  0  0  0  0
  4  5  1  0  0  0  0
  4 20  2  0  0  0  0
  5  6  1  0  0  0  0
  5 26  1  0  0  0  0
  6  7  2  0  0  0  0
  6  8  1  0  0  0  0
  8  9  1  0  0  0  0
  8 27  1  0  0  0  0
  9 10  1  0  0  0  0
  9 28  1  0  0  0  0
  9 29  1  0  0  0  0
 10 11  1  0  0  0  0
 10 12  1  0  0  0  0
 10 30  1  0  0  0  0
 11 31  1  0  0  0  0
 11 32  1  0  0  0  0
 11 33  1  0  0  0  0
 12 19  1  0  0  0  0
 12 13  1  0  0  0  0
 13 14  1  0  0  0  0
 13 34  1  0  0  0  0
 13 35  1  0  0  0  0
 14 15  1  0  0  0  0
 14 16  1  0  0  0  0
 14 36  1  0  0  0  0
 15 37  1  0  0  0  0
 15 38  1  0  0  0  0
 15 39  1  0  0  0  0
 16 17  1  0  0  0  0
 17 18  1  0  0  0  0
 17 19  1  0  0  0  0
 17 40  1  0  0  0  0
 18 41  1  0  0  0  0
 18 42  1  0  0  0  0
 18 43  1  0  0  0  0
 19 44  1  0  0  0  0
 19 45  1  0  0  0  0
 20 21  1  0  0  0  0
M  END
> <s_m_source_file>
AV-unprocessed.smi

> <i_m_source_file_index>
2061

> <i_lp_mmshare_version>
43012

> <i_f3d_flags>
0

> <s_epik_input>
W0NIM11jMVtjSF1jKG5vMSlbTkhdQyg9TylbTkhdW0NIMl1bQ0BIXShbQ0gzXSlOMltDSDJdW0NAQEhdKFtDSDNdKU9bQ0BASF0oW0NIM10pW0NIMl0y

> <s_epik_cmdline>
J2VwaWtfcHl0aG9uJywgJy1waCcsICc3LjAnLCAnLXRuJywgJzgnLCAnLW1hJywgJzIwMCcsICctbWV0YWxfYmluZGluZycsICctaW1hZScsICc8aW5maWxlLm1hZT4nLCAnLW9tYWUnLCAnPG91dGZpbGUubWFlPic=

> <r_epik_Ionization_Penalty>
0.214073

> <r_epik_Ionization_Penalty_Charging>
0

> <r_epik_Ionization_Penalty_Neutral>
0.214073

> <r_epik_State_Penalty>
0.204211

> <r_epik_Charging_Adjusted_Penalty>
0.204211

> <i_epik_Tot_Q>
0

> <i_epik_Tot_abs_Q>
0

> <r_epik_Metal_State_Penalty>
0.217067

> <b_epik_Metal_Only>
0

> <s_lp_Force_Field>
OPLS_2005

> <r_lp_Energy>
31.3151

> <b_lp_Chiralities_Consistent>
1

> <s_lp_Variant>
AV-unprocessed.smi:2061-3

> <Gold.Version>
5.8.1

> <Gold.Id.Protein>
6NUR|6NUR_protein|mol2

> <Gold.PLP.Fitness>
36.9741

> <Gold.PLP.PLP>
-30.4092

> <Gold.PLP.part.hbond>
-3.0000

> <Gold.PLP.part.metal>
0.0000

> <Gold.PLP.part.buried>
1.9153

> <Gold.PLP.part.nonpolar>
-30.2903

> <Gold.PLP.part.repulsive>
0.7987

> <Gold.PLP.ligand.clash>
0.0000

> <Gold.PLP.ligand.torsion>
0.9969

> <Gold.PLP.Chemscore.Hbond>
2.8406

> <Gold.PLP.Chemscore.CHOScore>
0.0000

> <Gold.PLP.Chemscore.Metal>
0.0000

> <Gold.Chemscore.Hbonds>
donor molecule, donor type, donor heavy atom, donor atom, acceptor molecule, acceptor atom, score
      L1  H     5    26       P1  7948  1.00
      L1  H     8    27       P1  7948  0.82
      P1  H  7989  7998       L1    16  1.00

> <Gold.PLP.Chemscore.Internal.Correction>
0.0369

> <Gold.Rescore>
     Score         DG    S(hbond)    S(metal)    S(lipo)     H(rot)  DE(clash)    DE(int)     intcor
     15.25     -20.44       2.47        0.00      91.33       1.55       2.94       2.26       ----

> <Gold.Chemscore.Fitness>
15.2469

> <Gold.Chemscore.DG>
-20.4417

> <Gold.Chemscore.ZeroCoef>
-5.4800

> <Gold.Chemscore.Hbond>
2.4662

> <Gold.Chemscore.Metal>
0.0000

> <Gold.Chemscore.Lipo>
91.3317

> <Gold.Chemscore.Internal_Hbond>
0.0000

> <Gold.Chemscore.DEClash>
2.9395

> <Gold.Chemscore.DEInternal>
2.2554

> <Gold.Chemscore.Rot>
1.5474

> <Gold.Chemscore.Internal.Correction>
   9.000000E+99

> <Gold.Chemscore.Hbonds>
donor molecule, donor type, donor heavy atom, donor atom, acceptor molecule, acceptor atom, score
      L1  H     5    26       P1  7948  0.94
      L1  H     8    27       P1  7948  0.77
      P1  H  7989  7998       L1    16  0.33

> <Gold.Chemscore.Hbond.Weighted>
-8.2372

> <Gold.Chemscore.Metal.Weighted>
-0.0000

> <Gold.Chemscore.Lipo.Weighted>
-10.6858

> <Gold.Chemscore.Internal_Hbond.Weighted>
0.0000

> <Gold.Chemscore.DEClash.Weighted>
2.9395

> <Gold.Chemscore.DEInternal.Weighted>
2.2554

> <Gold.Chemscore.Rot.Weighted>
3.9612

> <Gold.Chemscore.Internal.Correction.Weighted>
   9.000000E+99

> <Gold.Protein.RotatedTorsions>
[ 6907 6896 6895 6894 ] final   84.95 input  -60.11 | X-H torsion
[ 7974 7965 7964 7962 ] final  -92.37 input  175.53 | X-H torsion
[ 8008 7997 7996 7995 ] final   -8.83 input   59.86 | X-H torsion
[ 10167 10162 10161 10158 ] final  139.95 input  -65.29 | X-H torsion
[ 10718 10713 10712 10709 ] final   67.47 input   66.30 | X-H torsion
[ 10763 10752 10751 10750 ] final   -7.07 input  -60.55 | X-H torsion
[ 11005 11000 10999 10996 ] final  -20.71 input  -57.11 | X-H torsion

> <Gold.Protein.ActiveResidues>
 VAL166  LYS551  ARG553  GLY616  TRP617  ASP618  TYR619  PRO620  LYS621  CYS622 
 ASP623  PHE694  ASN695  SER759  ASP760  ASP761  ALA762  ILE779  LEU786  VAL792 
 PHE793  MET794  SER795  GLU796  ALA797  LYS798  CYS799  TRP800  GLU811  SER814 

> <Gold.Protein.RotatedAtoms>
  152.5364  134.2662  159.8953 H   0  0  0  0  0  0  0  0  0  0  0  0  # atno 6907 bound_to 6896
  151.2620  133.4290  159.2624 H   0  0  0  0  0  0  0  0  0  0  0  0  # atno 6908 bound_to 6896
  151.0444  134.9644  159.8235 H   0  0  0  0  0  0  0  0  0  0  0  0  # atno 6909 bound_to 6896
  145.4007  140.9537  143.2289 H   0  0  0  0  0  0  0  0  0  0  0  0  # atno 7974 bound_to 7965
  154.5704  140.2371  155.8200 H   0  0  0  0  0  0  0  0  0  0  0  0  # atno 8008 bound_to 7997
  156.2102  140.3028  155.9674 H   0  0  0  0  0  0  0  0  0  0  0  0  # atno 8009 bound_to 7997
  155.2722  140.0419  157.2998 H   0  0  0  0  0  0  0  0  0  0  0  0  # atno 8010 bound_to 7997
  139.5063  144.6264  151.5927 H   0  0  0  0  0  0  0  0  0  0  0  0  # atno 10167 bound_to 10162
  157.6232  130.9322  150.0247 H   0  0  0  0  0  0  0  0  0  0  0  0  # atno 10718 bound_to 10713
  153.4212  135.7010  153.6293 H   0  0  0  0  0  0  0  0  0  0  0  0  # atno 10763 bound_to 10752
  153.4746  135.3707  155.2410 H   0  0  0  0  0  0  0  0  0  0  0  0  # atno 10764 bound_to 10752
  154.8722  135.4051  154.3581 H   0  0  0  0  0  0  0  0  0  0  0  0  # atno 10765 bound_to 10752
  140.8490  133.7870  155.9945 H   0  0  0  0  0  0  0  0  0  0  0  0  # atno 11005 bound_to 11000
  144.8376  139.5524  143.6915 LP  0  0  0  0  0  0  0  0  0  0  0  0  # atno 17320 bound_to 7965
  146.2753  139.6738  142.9267 LP  0  0  0  0  0  0  0  0  0  0  0  0  # atno 17321 bound_to 7965
  140.5982  143.9658  150.6368 LP  0  0  0  0  0  0  0  0  0  0  0  0  # atno 17342 bound_to 10162
  140.2861  143.3356  152.1106 LP  0  0  0  0  0  0  0  0  0  0  0  0  # atno 17343 bound_to 10162
  156.1389  130.3642  149.9613 LP  0  0  0  0  0  0  0  0  0  0  0  0  # atno 17370 bound_to 10713
  156.7658  130.9168  151.3643 LP  0  0  0  0  0  0  0  0  0  0  0  0  # atno 17371 bound_to 10713
  140.8811  134.2610  157.5144 LP  0  0  0  0  0  0  0  0  0  0  0  0  # atno 17394 bound_to 11000
  139.8704  134.9615  156.4399 LP  0  0  0  0  0  0  0  0  0  0  0  0  # atno 17395 bound_to 11000

$$$$
