AV-unprocessed.smi:912|AV-procd|sdf|4147|dock4
  -GOLD-   22720 2 53D 1   1.00000     0.00000
 Structure written by MMmdl.
 26 26  0  0  0  0  0  0  0  0  3 V2000
  146.1688  137.8208  151.5682 C   0  0  0  0  0  0  0  0  0  0  0  0
  146.1528  136.3871  151.1968 N   0  3  0  0  0  0  0  0  0  0  0  0
  145.3063  135.4641  152.0102 C   0  0  2  0  0  0  0  0  0  0  0  0
  143.9220  136.1014  152.2873 C   0  0  0  0  0  0  0  0  0  0  0  0
  146.0695  135.1695  153.3376 C   0  0  0  0  0  0  0  0  0  0  0  0
  147.3164  134.6813  153.1472 N   0  5  0  0  0  0  0  0  0  0  0  0
  145.5292  135.3877  154.4211 O   0  0  0  0  0  0  0  0  0  0  0  0
  145.0629  134.1618  151.2141 C   0  0  0  0  0  0  0  0  0  0  0  0
  143.7569  133.7032  150.9061 C   0  0  0  0  0  0  0  0  0  0  0  0
  143.5993  132.5254  150.1498 C   0  0  0  0  0  0  0  0  0  0  0  0
  144.6353  131.8027  149.6776 N   0  0  0  0  0  0  0  0  0  0  0  0
  145.8800  132.2458  149.9454 C   0  0  0  0  0  0  0  0  0  0  0  0
  146.1463  133.4099  150.6934 C   0  0  0  0  0  0  0  0  0  0  0  0
  146.9034  138.3428  150.9557 H   0  0  0  0  0  0  0  0  0  0  0  0
  146.4442  137.9676  152.6127 H   0  0  0  0  0  0  0  0  0  0  0  0
  145.2013  138.2898  151.3903 H   0  0  0  0  0  0  0  0  0  0  0  0
  145.8506  136.3182  150.2365 H   0  0  0  0  0  0  0  0  0  0  0  0
  143.2625  135.4021  152.8038 H   0  0  0  0  0  0  0  0  0  0  0  0
  143.4257  136.3853  151.3587 H   0  0  0  0  0  0  0  0  0  0  0  0
  143.9881  136.9933  152.9111 H   0  0  0  0  0  0  0  0  0  0  0  0
  148.0126  135.2616  152.6647 H   0  0  0  0  0  0  0  0  0  0  0  0
  142.8780  134.2377  151.2352 H   0  0  0  0  0  0  0  0  0  0  0  0
  142.6119  132.1590  149.9106 H   0  0  0  0  0  0  0  0  0  0  0  0
  146.6928  131.6579  149.5448 H   0  0  0  0  0  0  0  0  0  0  0  0
  147.1724  133.7069  150.8484 H   0  0  0  0  0  0  0  0  0  0  0  0
  147.0990  136.0380  151.2609 H   0  0  0  0  0  0  0  0  0  0  0  0
  1  2  1  0  0  0  0
  1 14  1  0  0  0  0
  1 15  1  0  0  0  0
  1 16  1  0  0  0  0
  2  3  1  0  0  0  0
  2 17  1  0  0  0  0
  2 26  1  0  0  0  0
  3  4  1  0  0  0  0
  3  5  1  0  0  0  0
  3  8  1  0  0  0  0
  4 18  1  0  0  0  0
  4 19  1  0  0  0  0
  4 20  1  0  0  0  0
  5  6  1  0  0  0  0
  5  7  2  0  0  0  0
  6 21  1  0  0  0  0
  8 13  1  0  0  0  0
  8  9  2  0  0  0  0
  9 10  1  0  0  0  0
  9 22  1  0  0  0  0
 10 11  2  0  0  0  0
 10 23  1  0  0  0  0
 11 12  1  0  0  0  0
 12 13  2  0  0  0  0
 12 24  1  0  0  0  0
 13 25  1  0  0  0  0
M  CHG  1   2   1
M  CHG  1   6  -1
M  END
> <s_m_source_file>
AV-unprocessed.smi

> <i_m_source_file_index>
912

> <i_lp_mmshare_version>
43012

> <i_f3d_flags>
0

> <s_epik_input>
W0NIM11bTkhdW0NAQF0oW0NIM10pKEMoPU8pW05IMl0pYzFbY0hdW2NIXW5bY0hdW2NIXTE=

> <s_epik_cmdline>
J2VwaWtfcHl0aG9uJywgJy1waCcsICc3LjAnLCAnLXRuJywgJzgnLCAnLW1hJywgJzIwMCcsICctbWV0YWxfYmluZGluZycsICctaW1hZScsICc8aW5maWxlLm1hZT4nLCAnLW9tYWUnLCAnPG91dGZpbGUubWFlPic=

> <r_epik_Ionization_Penalty>
6.88213

> <r_epik_Ionization_Penalty_Charging>
6.88153

> <r_epik_Ionization_Penalty_Neutral>
0.000601258

> <r_epik_State_Penalty>
7.02604

> <r_epik_Charging_Adjusted_Penalty>
13.9076

> <i_epik_Tot_Q>
0

> <i_epik_Tot_abs_Q>
2

> <r_epik_Metal_State_Penalty>
3.10652

> <b_epik_Metal_Only>
1

> <s_lp_Force_Field>
OPLS_2005

> <r_lp_Energy>
7.66147

> <b_lp_Chiralities_Consistent>
1

> <s_lp_Variant>
AV-unprocessed.smi:912-8

> <Gold.Version>
5.8.1

> <Gold.Id.Protein>
6NUR|6NUR_protein|mol2

> <Gold.PLP.Fitness>
37.6292

> <Gold.PLP.PLP>
-22.5536

> <Gold.PLP.part.hbond>
-3.0000

> <Gold.PLP.part.metal>
0.0000

> <Gold.PLP.part.buried>
-0.7278

> <Gold.PLP.part.nonpolar>
-20.4501

> <Gold.PLP.part.repulsive>
0.3053

> <Gold.PLP.ligand.clash>
0.0000

> <Gold.PLP.ligand.torsion>
0.3191

> <Gold.PLP.Chemscore.Hbond>
3.0760

> <Gold.PLP.Chemscore.CHOScore>
2.1505

> <Gold.PLP.Chemscore.Metal>
0.0000

> <Gold.Chemscore.Hbonds>
donor molecule, donor type, donor heavy atom, donor atom, acceptor molecule, acceptor atom, score
      L1  H     2    26       P1  7948  2.00
      L1  H     6    21       P1  7948  1.00
      P1  H 10785 10796       L1    11  0.05
      L1  C    10    23       P1 10186  0.19
      L1  C    10    23       P1 10952  0.91
      L1  C    12    24       P1 10747  1.00

> <Gold.PLP.Chemscore.Internal.Correction>
0.0341

> <Gold.Rescore>
     Score         DG    S(hbond)    S(metal)    S(lipo)     H(rot)  DE(clash)    DE(int)     intcor
     13.19     -13.82       1.96        0.00      54.93       1.80       0.05       0.58       ----

> <Gold.Chemscore.Fitness>
13.1919

> <Gold.Chemscore.DG>
-13.8241

> <Gold.Chemscore.ZeroCoef>
-5.4800

> <Gold.Chemscore.Hbond>
1.9563

> <Gold.Chemscore.Metal>
0.0000

> <Gold.Chemscore.Lipo>
54.9346

> <Gold.Chemscore.Internal_Hbond>
0.0000

> <Gold.Chemscore.DEClash>
0.0480

> <Gold.Chemscore.DEInternal>
0.5842

> <Gold.Chemscore.Rot>
1.8037

> <Gold.Chemscore.Internal.Correction>
   9.000000E+99

> <Gold.Chemscore.Hbonds>
donor molecule, donor type, donor heavy atom, donor atom, acceptor molecule, acceptor atom, score
      L1  H     2    26       P1  7948  0.95
      L1  H     6    21       P1  7948  0.93
      P1  H 10785 10796       L1    11  0.01

> <Gold.Chemscore.Hbond.Weighted>
-6.5341

> <Gold.Chemscore.Metal.Weighted>
-0.0000

> <Gold.Chemscore.Lipo.Weighted>
-6.4273

> <Gold.Chemscore.Internal_Hbond.Weighted>
0.0000

> <Gold.Chemscore.DEClash.Weighted>
0.0480

> <Gold.Chemscore.DEInternal.Weighted>
0.5842

> <Gold.Chemscore.Rot.Weighted>
4.6174

> <Gold.Chemscore.Internal.Correction.Weighted>
   9.000000E+99

> <Gold.Protein.RotatedTorsions>
[ 6907 6896 6895 6894 ] final   24.56 input  -60.11 | X-H torsion
[ 7974 7965 7964 7962 ] final -145.48 input  175.53 | X-H torsion
[ 8008 7997 7996 7995 ] final -112.34 input   59.86 | X-H torsion
[ 10167 10162 10161 10158 ] final   45.10 input  -65.29 | X-H torsion
[ 10718 10713 10712 10709 ] final   80.83 input   66.30 | X-H torsion
[ 10763 10752 10751 10750 ] final  -14.95 input  -60.55 | X-H torsion
[ 11005 11000 10999 10996 ] final -152.81 input  -57.11 | X-H torsion

> <Gold.Protein.ActiveResidues>
 VAL166  LYS551  ARG553  GLY616  TRP617  ASP618  TYR619  PRO620  LYS621  CYS622 
 ASP623  PHE694  ASN695  SER759  ASP760  ASP761  ALA762  ILE779  LEU786  VAL792 
 PHE793  MET794  SER795  GLU796  ALA797  LYS798  CYS799  TRP800  GLU811  SER814 

> <Gold.Protein.RotatedAtoms>
  151.9593  135.0131  160.0546 H   0  0  0  0  0  0  0  0  0  0  0  0  # atno 6907 bound_to 6896
  152.1883  133.4750  159.5003 H   0  0  0  0  0  0  0  0  0  0  0  0  # atno 6908 bound_to 6896
  150.6930  134.1662  159.4238 H   0  0  0  0  0  0  0  0  0  0  0  0  # atno 6909 bound_to 6896
  144.8224  140.5578  143.5569 H   0  0  0  0  0  0  0  0  0  0  0  0  # atno 7974 bound_to 7965
  155.0038  140.0394  157.2371 H   0  0  0  0  0  0  0  0  0  0  0  0  # atno 8008 bound_to 7997
  154.7521  140.2768  155.6261 H   0  0  0  0  0  0  0  0  0  0  0  0  # atno 8009 bound_to 7997
  156.2887  140.2645  156.2277 H   0  0  0  0  0  0  0  0  0  0  0  0  # atno 8010 bound_to 7997
  140.3275  144.2629  150.6173 H   0  0  0  0  0  0  0  0  0  0  0  0  # atno 10167 bound_to 10162
  157.6817  130.9977  150.2137 H   0  0  0  0  0  0  0  0  0  0  0  0  # atno 10718 bound_to 10713
  153.5361  135.7014  153.5659 H   0  0  0  0  0  0  0  0  0  0  0  0  # atno 10763 bound_to 10752
  153.3646  135.3961  155.1743 H   0  0  0  0  0  0  0  0  0  0  0  0  # atno 10764 bound_to 10752
  154.8679  135.3797  154.4861 H   0  0  0  0  0  0  0  0  0  0  0  0  # atno 10765 bound_to 10752
  140.7149  134.3791  157.5192 H   0  0  0  0  0  0  0  0  0  0  0  0  # atno 11005 bound_to 11000
  145.5075  139.1480  143.3623 LP  0  0  0  0  0  0  0  0  0  0  0  0  # atno 17320 bound_to 7965
  146.2530  140.5215  142.8885 LP  0  0  0  0  0  0  0  0  0  0  0  0  # atno 17321 bound_to 7965
  140.5427  143.2220  151.8058 LP  0  0  0  0  0  0  0  0  0  0  0  0  # atno 17342 bound_to 10162
  139.4862  144.4579  151.9576 LP  0  0  0  0  0  0  0  0  0  0  0  0  # atno 17343 bound_to 10162
  156.2803  130.3732  149.7942 LP  0  0  0  0  0  0  0  0  0  0  0  0  # atno 17370 bound_to 10713
  156.5633  130.8393  151.3335 LP  0  0  0  0  0  0  0  0  0  0  0  0  # atno 17371 bound_to 10713
  139.8862  134.8915  156.2597 LP  0  0  0  0  0  0  0  0  0  0  0  0  # atno 17394 bound_to 11000
  141.0053  133.7127  156.1024 LP  0  0  0  0  0  0  0  0  0  0  0  0  # atno 17395 bound_to 11000

$$$$
