AV-unprocessed.smi:72|AV-procd|sdf|725|dock1
  -GOLD-   2262017 53D 1   1.00000     0.00000
 Structure written by MMmdl.
 28 29  0  0  0  0  0  0  0  0  2 V2000
  154.3772  138.2609  154.8050 N   0  0  0  0  0  0  0  0  0  0  0  0
  153.1382  138.4901  154.8478 C   0  0  0  0  0  0  0  0  0  0  0  0
  152.2115  137.6038  154.1779 N   0  0  0  0  0  0  0  0  0  0  0  0
  150.9457  137.8796  154.2557 C   0  0  0  0  0  0  0  0  0  0  0  0
  150.4558  139.0393  154.9903 N   0  0  0  0  0  0  0  0  0  0  0  0
  148.9761  139.3721  155.0868 C   0  0  2  0  0  0  0  0  0  0  0  0
  148.2143  138.3586  154.4917 O   0  0  0  0  0  0  0  0  0  0  0  0
  147.6342  138.8255  153.2765 C   0  0  1  0  0  0  0  0  0  0  0  0
  146.3699  138.0128  152.9578 C   0  0  0  0  0  0  0  0  0  0  0  0
  145.7173  138.5507  151.8275 O   0  0  0  0  0  0  0  0  0  0  0  0
  147.3533  140.2899  153.6108 C   0  0  2  0  0  0  0  0  0  0  0  0
  147.1101  141.0865  152.4660 O   0  0  0  0  0  0  0  0  0  0  0  0
  148.6014  140.6997  154.3855 C   0  0  2  0  0  0  0  0  0  0  0  0
  149.6183  141.2002  153.5298 O   0  0  0  0  0  0  0  0  0  0  0  0
  151.3901  139.8958  155.6312 C   0  0  0  0  0  0  0  0  0  0  0  0
  150.9562  140.8800  156.2306 O   0  0  0  0  0  0  0  0  0  0  0  0
  152.7171  139.5998  155.5465 N   0  5  0  0  0  0  0  0  0  0  0  0
  148.7434  139.3659  156.1529 H   0  0  0  0  0  0  0  0  0  0  0  0
  148.3614  138.7656  152.4643 H   0  0  0  0  0  0  0  0  0  0  0  0
  146.4887  140.3526  154.2736 H   0  0  0  0  0  0  0  0  0  0  0  0
  148.3784  141.4585  155.1362 H   0  0  0  0  0  0  0  0  0  0  0  0
  154.9128  138.9517  155.3104 H   0  0  0  0  0  0  0  0  0  0  0  0
  150.1824  137.2656  153.7785 H   0  0  0  0  0  0  0  0  0  0  0  0
  146.6046  136.9604  152.7963 H   0  0  0  0  0  0  0  0  0  0  0  0
  145.6706  138.0639  153.7926 H   0  0  0  0  0  0  0  0  0  0  0  0
  144.9632  139.0391  152.1200 H   0  0  0  0  0  0  0  0  0  0  0  0
  147.8780  141.0607  151.9163 H   0  0  0  0  0  0  0  0  0  0  0  0
  149.7418  140.5846  152.8228 H   0  0  0  0  0  0  0  0  0  0  0  0
  1  2  2  0  0  0  0
  1 22  1  0  0  0  0
  2 17  1  0  0  0  0
  2  3  1  0  0  0  0
  3  4  2  0  0  0  0
  4  5  1  0  0  0  0
  4 23  1  0  0  0  0
  5  6  1  0  0  0  0
  5 15  1  0  0  0  0
  6 18  1  0  0  0  0
  6 13  1  0  0  0  0
  6  7  1  0  0  0  0
  7  8  1  0  0  0  0
  8 19  1  0  0  0  0
  8  9  1  0  0  0  0
  8 11  1  0  0  0  0
  9 10  1  0  0  0  0
  9 24  1  0  0  0  0
  9 25  1  0  0  0  0
 10 26  1  0  0  0  0
 11 20  1  0  0  0  0
 11 12  1  0  0  0  0
 11 13  1  0  0  0  0
 12 27  1  0  0  0  0
 13 21  1  0  0  0  0
 13 14  1  0  0  0  0
 14 28  1  0  0  0  0
 15 16  2  0  0  0  0
 15 17  1  0  0  0  0
M  CHG  1  17  -1
M  END
> <s_m_source_file>
AV-unprocessed.smi

> <i_m_source_file_index>
72

> <i_lp_mmshare_version>
43012

> <i_f3d_flags>
0

> <s_epik_input>
W05IMl1jMW5bY0hdbihjKD1PKW4xKVtDQEBIXTJPW0NASF0oW0NIMl1bT0hdKVtDQEBIXShbT0hdKVtDQEhdMltPSF0=

> <s_epik_cmdline>
J2VwaWtfcHl0aG9uJywgJy1waCcsICc3LjAnLCAnLXRuJywgJzgnLCAnLW1hJywgJzIwMCcsICctbWV0YWxfYmluZGluZycsICctaW1hZScsICc8aW5maWxlLm1hZT4nLCAnLW9tYWUnLCAnPG91dGZpbGUubWFlPic=

> <r_lp_tautomer_probability>
7.17554e-07

> <r_epik_Ionization_Penalty>
12.8705

> <r_epik_Ionization_Penalty_Charging>
5.64144

> <r_epik_Ionization_Penalty_Neutral>
7.22905

> <r_epik_State_Penalty>
3.30104

> <r_epik_Charging_Adjusted_Penalty>
8.94249

> <i_epik_Tot_Q>
-1

> <i_epik_Tot_abs_Q>
1

> <r_epik_Metal_State_Penalty>
0.529074

> <b_epik_Metal_Only>
1

> <s_epik_Chemistry_Notes>
This compound contains an acetal/aminal-like group ( X-CH(R)-Y where X, Y are N, S, or O) that may be acid/base labile, releasing an aldehyde.

> <s_lp_Force_Field>
OPLS_2005

> <r_lp_Energy>
42.3386

> <b_lp_Chiralities_Consistent>
1

> <s_lp_Variant>
AV-unprocessed.smi:72-63

> <Gold.Version>
5.8.1

> <Gold.Id.Protein>
6NUR|6NUR_protein|mol2

> <Gold.PLP.Fitness>
52.6891

> <Gold.PLP.PLP>
-29.4507

> <Gold.PLP.part.hbond>
-10.0288

> <Gold.PLP.part.metal>
0.0000

> <Gold.PLP.part.buried>
0.2396

> <Gold.PLP.part.nonpolar>
-20.5101

> <Gold.PLP.part.repulsive>
0.3263

> <Gold.PLP.ligand.clash>
0.0000

> <Gold.PLP.ligand.torsion>
0.0615

> <Gold.PLP.Chemscore.Hbond>
6.7573

> <Gold.PLP.Chemscore.CHOScore>
1.0142

> <Gold.PLP.Chemscore.Metal>
0.0000

> <Gold.Chemscore.Hbonds>
donor molecule, donor type, donor heavy atom, donor atom, acceptor molecule, acceptor atom, score
      L1  H    10    26       P1 10175  1.00
      L1  H    12    27       P1  7957  0.80
      L1  H    14    28       P1  7957  1.00
      P1  H  7997  8008       L1    17  1.80
      P1  H  8011  8017       L1    14  0.29
      P1  H 10752 10765       L1     3  0.75
      L1  C     4    23       P1  7948  1.00
      L1  C     4    23       P1  7949  0.06

> <Gold.PLP.Chemscore.Internal.Correction>
0.0471

> <Gold.Rescore>
     Score         DG    S(hbond)    S(metal)    S(lipo)     H(rot)  DE(clash)    DE(int)     intcor
     10.98     -12.61       4.33        0.00      25.70       4.04       1.31       0.33       ----

> <Gold.Chemscore.Fitness>
10.9773

> <Gold.Chemscore.DG>
-12.6147

> <Gold.Chemscore.ZeroCoef>
-5.4800

> <Gold.Chemscore.Hbond>
4.3327

> <Gold.Chemscore.Metal>
0.0000

> <Gold.Chemscore.Lipo>
25.6965

> <Gold.Chemscore.Internal_Hbond>
0.0000

> <Gold.Chemscore.DEClash>
1.3059

> <Gold.Chemscore.DEInternal>
0.3316

> <Gold.Chemscore.Rot>
4.0403

> <Gold.Chemscore.Internal.Correction>
   9.000000E+99

> <Gold.Chemscore.Hbonds>
donor molecule, donor type, donor heavy atom, donor atom, acceptor molecule, acceptor atom, score
      L1  H    10    26       P1 10175  0.99
      L1  H    12    27       P1  7957  0.76
      L1  H    14    28       P1  7957  0.98
      P1  H  7997  8008       L1    17  0.18
      P1  H 10752 10765       L1     3  0.50

> <Gold.Chemscore.Hbond.Weighted>
-14.4713

> <Gold.Chemscore.Metal.Weighted>
-0.0000

> <Gold.Chemscore.Lipo.Weighted>
-3.0065

> <Gold.Chemscore.Internal_Hbond.Weighted>
0.0000

> <Gold.Chemscore.DEClash.Weighted>
1.3059

> <Gold.Chemscore.DEInternal.Weighted>
0.3316

> <Gold.Chemscore.Rot.Weighted>
10.3431

> <Gold.Chemscore.Internal.Correction.Weighted>
   9.000000E+99

> <Gold.Protein.RotatedTorsions>
[ 6907 6896 6895 6894 ] final -175.49 input  -60.11 | X-H torsion
[ 7974 7965 7964 7962 ] final  -48.68 input  175.53 | X-H torsion
[ 8008 7997 7996 7995 ] final  -32.64 input   59.86 | X-H torsion
[ 10167 10162 10161 10158 ] final  -59.33 input  -65.29 | X-H torsion
[ 10718 10713 10712 10709 ] final  175.56 input   66.30 | X-H torsion
[ 10763 10752 10751 10750 ] final  151.56 input  -60.55 | X-H torsion
[ 11005 11000 10999 10996 ] final  -42.10 input  -57.11 | X-H torsion

> <Gold.Protein.ActiveResidues>
 VAL166  LYS551  ARG553  GLY616  TRP617  ASP618  TYR619  PRO620  LYS621  CYS622 
 ASP623  PHE694  ASN695  SER759  ASP760  ASP761  ALA762  ILE779  LEU786  VAL792 
 PHE793  MET794  SER795  GLU796  ALA797  LYS798  CYS799  TRP800  GLU811  SER814 

> <Gold.Protein.RotatedAtoms>
  151.5893  133.3368  159.3024 H   0  0  0  0  0  0  0  0  0  0  0  0  # atno 6907 bound_to 6896
  150.8269  134.7507  159.6832 H   0  0  0  0  0  0  0  0  0  0  0  0  # atno 6908 bound_to 6896
  152.4357  134.5697  159.9969 H   0  0  0  0  0  0  0  0  0  0  0  0  # atno 6909 bound_to 6896
  145.9485  140.7594  142.9516 H   0  0  0  0  0  0  0  0  0  0  0  0  # atno 7974 bound_to 7965
  154.4173  140.1732  156.1760 H   0  0  0  0  0  0  0  0  0  0  0  0  # atno 8008 bound_to 7997
  155.9721  140.3385  155.6561 H   0  0  0  0  0  0  0  0  0  0  0  0  # atno 8009 bound_to 7997
  155.6611  140.0701  157.2544 H   0  0  0  0  0  0  0  0  0  0  0  0  # atno 8010 bound_to 7997
  140.6142  143.2397  151.5637 H   0  0  0  0  0  0  0  0  0  0  0  0  # atno 10167 bound_to 10162
  156.9331  130.9977  151.2983 H   0  0  0  0  0  0  0  0  0  0  0  0  # atno 10718 bound_to 10713
  154.1058  135.2842  155.3241 H   0  0  0  0  0  0  0  0  0  0  0  0  # atno 10763 bound_to 10752
  154.6524  135.5364  153.7921 H   0  0  0  0  0  0  0  0  0  0  0  0  # atno 10764 bound_to 10752
  153.0363  135.6513  154.1219 H   0  0  0  0  0  0  0  0  0  0  0  0  # atno 10765 bound_to 10752
  141.0292  133.6827  156.2548 H   0  0  0  0  0  0  0  0  0  0  0  0  # atno 11005 bound_to 11000
  144.6791  140.2397  143.7345 LP  0  0  0  0  0  0  0  0  0  0  0  0  # atno 17320 bound_to 7965
  145.8203  139.2041  143.1942 LP  0  0  0  0  0  0  0  0  0  0  0  0  # atno 17321 bound_to 7965
  139.5385  144.2713  152.1302 LP  0  0  0  0  0  0  0  0  0  0  0  0  # atno 17342 bound_to 10162
  140.1919  144.4743  150.6475 LP  0  0  0  0  0  0  0  0  0  0  0  0  # atno 17343 bound_to 10162
  157.5834  130.8392  149.8555 LP  0  0  0  0  0  0  0  0  0  0  0  0  # atno 17370 bound_to 10713
  156.0438  130.3732  150.1368 LP  0  0  0  0  0  0  0  0  0  0  0  0  # atno 17371 bound_to 10713
  140.6437  134.5139  157.5572 LP  0  0  0  0  0  0  0  0  0  0  0  0  # atno 17394 bound_to 11000
  139.9196  134.8175  156.1253 LP  0  0  0  0  0  0  0  0  0  0  0  0  # atno 17395 bound_to 11000

$$$$
