AV-unprocessed.smi:685|AV-procd|sdf|3335|dock5
  -GOLD-   22720 0303D 1   1.00000     0.00000
 Structure written by MMmdl.
 51 52  0  0  0  0  0  0  0  0  2 V2000
  146.8272  137.9907  152.4823 C   0  0  0  0  0  0  0  0  0  0  0  0
  147.3189  139.2197  153.1710 C   0  0  0  0  0  0  0  0  0  0  0  0
  146.7486  140.4482  153.0503 N   0  3  0  0  0  0  0  0  0  0  0  0
  147.4194  141.3452  153.7878 N   0  0  0  0  0  0  0  0  0  0  0  0
  146.9664  142.7364  153.7972 C   0  0  0  0  0  0  0  0  0  0  0  0
  148.4598  140.7427  154.4312 C   0  0  0  0  0  0  0  0  0  0  0  0
  149.4188  141.4412  155.3395 C   0  0  0  0  0  0  0  0  0  0  0  0
  148.3988  139.3979  154.0434 C   0  0  0  0  0  0  0  0  0  0  0  0
  149.3370  138.3094  154.4836 C   0  0  0  0  0  0  0  0  0  0  0  0
  148.6497  137.2311  155.3492 C   0  0  2  0  0  0  0  0  0  0  0  0
  149.5863  136.6315  156.4095 C   0  0  0  0  0  0  0  0  0  0  0  0
  148.1338  136.1570  154.5055 N   0  0  0  0  0  0  0  0  0  0  0  0
  147.4022  135.1176  154.9379 C   0  0  0  0  0  0  0  0  0  0  0  0
  147.0676  134.9735  156.1146 O   0  0  0  0  0  0  0  0  0  0  0  0
  146.9832  134.0977  153.8744 C   0  0  0  0  0  0  0  0  0  0  0  0
  146.2146  134.7297  152.6977 C   0  0  0  0  0  0  0  0  0  0  0  0
  145.6532  133.6893  151.7122 C   0  0  0  0  0  0  0  0  0  0  0  0
  146.7369  132.8483  151.0335 C   0  0  0  0  0  0  0  0  0  0  0  0
  146.0606  132.2527  149.7946 C   0  0  0  0  0  0  0  0  0  0  0  0
  144.8871  133.1846  149.4565 C   0  0  0  0  0  0  0  0  0  0  0  0
  144.8871  134.2833  150.5257 C   0  0  0  0  0  0  0  0  0  0  0  0
  147.6614  137.4440  152.0423 H   0  0  0  0  0  0  0  0  0  0  0  0
  146.1266  138.2496  151.6880 H   0  0  0  0  0  0  0  0  0  0  0  0
  146.3207  137.3384  153.1937 H   0  0  0  0  0  0  0  0  0  0  0  0
  147.8332  143.3970  153.7643 H   0  0  0  0  0  0  0  0  0  0  0  0
  146.4016  142.9194  154.7117 H   0  0  0  0  0  0  0  0  0  0  0  0
  146.3337  142.9311  152.9303 H   0  0  0  0  0  0  0  0  0  0  0  0
  149.7665  140.7671  156.1217 H   0  0  0  0  0  0  0  0  0  0  0  0
  148.9436  142.2975  155.8180 H   0  0  0  0  0  0  0  0  0  0  0  0
  150.2817  141.7918  154.7737 H   0  0  0  0  0  0  0  0  0  0  0  0
  149.7731  137.8430  153.5993 H   0  0  0  0  0  0  0  0  0  0  0  0
  150.1825  138.7306  155.0284 H   0  0  0  0  0  0  0  0  0  0  0  0
  147.8065  137.6829  155.8748 H   0  0  0  0  0  0  0  0  0  0  0  0
  149.9348  137.3913  157.1093 H   0  0  0  0  0  0  0  0  0  0  0  0
  150.4628  136.1722  155.9514 H   0  0  0  0  0  0  0  0  0  0  0  0
  149.0764  135.8643  156.9932 H   0  0  0  0  0  0  0  0  0  0  0  0
  148.3590  136.2002  153.5219 H   0  0  0  0  0  0  0  0  0  0  0  0
  147.8804  133.5982  153.5075 H   0  0  0  0  0  0  0  0  0  0  0  0
  146.3678  133.3308  154.3463 H   0  0  0  0  0  0  0  0  0  0  0  0
  145.4024  135.3518  153.0769 H   0  0  0  0  0  0  0  0  0  0  0  0
  146.8801  135.3985  152.1499 H   0  0  0  0  0  0  0  0  0  0  0  0
  144.9878  133.0112  152.2496 H   0  0  0  0  0  0  0  0  0  0  0  0
  147.5630  133.4892  150.7214 H   0  0  0  0  0  0  0  0  0  0  0  0
  147.1459  132.0819  151.6926 H   0  0  0  0  0  0  0  0  0  0  0  0
  146.7613  132.1590  148.9643 H   0  0  0  0  0  0  0  0  0  0  0  0
  145.6843  131.2535  150.0180 H   0  0  0  0  0  0  0  0  0  0  0  0
  144.9782  133.6068  148.4552 H   0  0  0  0  0  0  0  0  0  0  0  0
  143.9508  132.6259  149.4902 H   0  0  0  0  0  0  0  0  0  0  0  0
  143.8776  134.5972  150.7930 H   0  0  0  0  0  0  0  0  0  0  0  0
  145.4139  135.1591  150.1442 H   0  0  0  0  0  0  0  0  0  0  0  0
  145.9410  140.7191  152.5034 H   0  0  0  0  0  0  0  0  0  0  0  0
  1  2  1  0  0  0  0
  1 22  1  0  0  0  0
  1 23  1  0  0  0  0
  1 24  1  0  0  0  0
  2  8  1  0  0  0  0
  2  3  2  0  0  0  0
  3  4  1  0  0  0  0
  3 51  1  0  0  0  0
  4  5  1  0  0  0  0
  4  6  1  0  0  0  0
  5 25  1  0  0  0  0
  5 26  1  0  0  0  0
  5 27  1  0  0  0  0
  6  7  1  0  0  0  0
  6  8  2  0  0  0  0
  7 28  1  0  0  0  0
  7 29  1  0  0  0  0
  7 30  1  0  0  0  0
  8  9  1  0  0  0  0
  9 10  1  0  0  0  0
  9 31  1  0  0  0  0
  9 32  1  0  0  0  0
 10 11  1  0  0  0  0
 10 12  1  0  0  0  0
 10 33  1  0  0  0  0
 11 34  1  0  0  0  0
 11 35  1  0  0  0  0
 11 36  1  0  0  0  0
 12 13  1  0  0  0  0
 12 37  1  0  0  0  0
 13 14  2  0  0  0  0
 13 15  1  0  0  0  0
 15 16  1  0  0  0  0
 15 38  1  0  0  0  0
 15 39  1  0  0  0  0
 16 17  1  0  0  0  0
 16 40  1  0  0  0  0
 16 41  1  0  0  0  0
 17 21  1  0  0  0  0
 17 18  1  0  0  0  0
 17 42  1  0  0  0  0
 18 19  1  0  0  0  0
 18 43  1  0  0  0  0
 18 44  1  0  0  0  0
 19 20  1  0  0  0  0
 19 45  1  0  0  0  0
 19 46  1  0  0  0  0
 20 21  1  0  0  0  0
 20 47  1  0  0  0  0
 20 48  1  0  0  0  0
 21 49  1  0  0  0  0
 21 50  1  0  0  0  0
M  CHG  1   3   1
M  END
> <s_m_source_file>
AV-unprocessed.smi

> <i_m_source_file_index>
685

> <i_lp_mmshare_version>
43012

> <i_f3d_flags>
0

> <s_epik_input>
W0NIM11jMW5uKFtDSDNdKWMoW0NIM10pYzFbQ0gyXVtDQEhdKFtDSDNdKVtOSF1DKD1PKVtDSDJdW0NIMl1bQ0hdMltDSDJdW0NIMl1bQ0gyXVtDSDJdMg==

> <s_epik_cmdline>
J2VwaWtfcHl0aG9uJywgJy1waCcsICc3LjAnLCAnLXRuJywgJzgnLCAnLW1hJywgJzIwMCcsICctbWV0YWxfYmluZGluZycsICctaW1hZScsICc8aW5maWxlLm1hZT4nLCAnLW9tYWUnLCAnPG91dGZpbGUubWFlPic=

> <r_lp_tautomer_probability>
1

> <r_epik_Ionization_Penalty>
2.26429

> <r_epik_Ionization_Penalty_Charging>
2.26429

> <r_epik_Ionization_Penalty_Neutral>
2.3289e-07

> <r_epik_State_Penalty>
2.41237

> <r_epik_Charging_Adjusted_Penalty>
4.67666

> <i_epik_Tot_Q>
1

> <i_epik_Tot_abs_Q>
1

> <r_epik_Metal_State_Penalty>
2.42525

> <b_epik_Metal_Only>
0

> <s_lp_Force_Field>
OPLS_2005

> <r_lp_Energy>
28.552

> <b_lp_Chiralities_Consistent>
1

> <s_lp_Variant>
AV-unprocessed.smi:685-3

> <Gold.Version>
5.8.1

> <Gold.Id.Protein>
6NUR|6NUR_protein|mol2

> <Gold.PLP.Fitness>
45.2237

> <Gold.PLP.PLP>
-37.1357

> <Gold.PLP.part.hbond>
-1.8356

> <Gold.PLP.part.metal>
0.0000

> <Gold.PLP.part.buried>
-1.1995

> <Gold.PLP.part.nonpolar>
-34.2118

> <Gold.PLP.part.repulsive>
0.0337

> <Gold.PLP.ligand.clash>
0.0000

> <Gold.PLP.ligand.torsion>
0.4826

> <Gold.PLP.Chemscore.Hbond>
3.0000

> <Gold.PLP.Chemscore.CHOScore>
0.0000

> <Gold.PLP.Chemscore.Metal>
0.0000

> <Gold.Chemscore.Hbonds>
donor molecule, donor type, donor heavy atom, donor atom, acceptor molecule, acceptor atom, score
      L1  H     3    51       P1 10175  0.73
      L1  H    12    37       P1  7948  1.00

> <Gold.PLP.Chemscore.Internal.Correction>
0.0532

> <Gold.Rescore>
     Score         DG    S(hbond)    S(metal)    S(lipo)     H(rot)  DE(clash)    DE(int)     intcor
     17.77     -18.73       1.90        0.00      94.13       1.61       0.07       0.89       ----

> <Gold.Chemscore.Fitness>
17.7726

> <Gold.Chemscore.DG>
-18.7309

> <Gold.Chemscore.ZeroCoef>
-5.4800

> <Gold.Chemscore.Hbond>
1.9035

> <Gold.Chemscore.Metal>
0.0000

> <Gold.Chemscore.Lipo>
94.1321

> <Gold.Chemscore.Internal_Hbond>
0.0000

> <Gold.Chemscore.DEClash>
0.0676

> <Gold.Chemscore.DEInternal>
0.8906

> <Gold.Chemscore.Rot>
1.6095

> <Gold.Chemscore.Internal.Correction>
   9.000000E+99

> <Gold.Chemscore.Hbonds>
donor molecule, donor type, donor heavy atom, donor atom, acceptor molecule, acceptor atom, score
      L1  H     3    51       P1 10175  0.09
      L1  H    12    37       P1  7948  1.00

> <Gold.Chemscore.Hbond.Weighted>
-6.3577

> <Gold.Chemscore.Metal.Weighted>
-0.0000

> <Gold.Chemscore.Lipo.Weighted>
-11.0135

> <Gold.Chemscore.Internal_Hbond.Weighted>
0.0000

> <Gold.Chemscore.DEClash.Weighted>
0.0676

> <Gold.Chemscore.DEInternal.Weighted>
0.8906

> <Gold.Chemscore.Rot.Weighted>
4.1202

> <Gold.Chemscore.Internal.Correction.Weighted>
   9.000000E+99

> <Gold.Protein.RotatedTorsions>
[ 6907 6896 6895 6894 ] final   96.33 input  -60.11 | X-H torsion
[ 7974 7965 7964 7962 ] final   67.05 input  175.53 | X-H torsion
[ 8008 7997 7996 7995 ] final  -33.94 input   59.86 | X-H torsion
[ 10167 10162 10161 10158 ] final  122.15 input  -65.29 | X-H torsion
[ 10718 10713 10712 10709 ] final  174.72 input   66.30 | X-H torsion
[ 10763 10752 10751 10750 ] final   97.18 input  -60.55 | X-H torsion
[ 11005 11000 10999 10996 ] final  126.99 input  -57.11 | X-H torsion

> <Gold.Protein.ActiveResidues>
 VAL166  LYS551  ARG553  GLY616  TRP617  ASP618  TYR619  PRO620  LYS621  CYS622 
 ASP623  PHE694  ASN695  SER759  ASP760  ASP761  ALA762  ILE779  LEU786  VAL792 
 PHE793  MET794  SER795  GLU796  ALA797  LYS798  CYS799  TRP800  GLU811  SER814 

> <Gold.Protein.RotatedAtoms>
  152.5436  134.0903  159.8273 H   0  0  0  0  0  0  0  0  0  0  0  0  # atno 6907 bound_to 6896
  151.0993  133.5248  159.2618 H   0  0  0  0  0  0  0  0  0  0  0  0  # atno 6908 bound_to 6896
  151.2009  135.0451  159.8926 H   0  0  0  0  0  0  0  0  0  0  0  0  # atno 6909 bound_to 6896
  145.8193  139.3075  143.1053 H   0  0  0  0  0  0  0  0  0  0  0  0  # atno 7974 bound_to 7965
  154.4134  140.1697  156.1969 H   0  0  0  0  0  0  0  0  0  0  0  0  # atno 8008 bound_to 7997
  155.9557  140.3397  155.6423 H   0  0  0  0  0  0  0  0  0  0  0  0  # atno 8009 bound_to 7997
  155.6813  140.0723  157.2474 H   0  0  0  0  0  0  0  0  0  0  0  0  # atno 8010 bound_to 7997
  139.5876  144.7013  151.3369 H   0  0  0  0  0  0  0  0  0  0  0  0  # atno 10167 bound_to 10162
  156.9455  131.0015  151.2959 H   0  0  0  0  0  0  0  0  0  0  0  0  # atno 10718 bound_to 10713
  153.2738  135.4192  155.1013 H   0  0  0  0  0  0  0  0  0  0  0  0  # atno 10763 bound_to 10752
  154.8465  135.3478  154.6207 H   0  0  0  0  0  0  0  0  0  0  0  0  # atno 10764 bound_to 10752
  153.6627  135.7047  153.5230 H   0  0  0  0  0  0  0  0  0  0  0  0  # atno 10765 bound_to 10752
  139.9484  134.9626  156.8789 H   0  0  0  0  0  0  0  0  0  0  0  0  # atno 11005 bound_to 11000
  145.9692  140.8773  143.0171 LP  0  0  0  0  0  0  0  0  0  0  0  0  # atno 17320 bound_to 7965
  144.6749  140.1922  143.7395 LP  0  0  0  0  0  0  0  0  0  0  0  0  # atno 17321 bound_to 7965
  140.7145  143.7302  150.7629 LP  0  0  0  0  0  0  0  0  0  0  0  0  # atno 17342 bound_to 10162
  140.0850  143.4932  152.2509 LP  0  0  0  0  0  0  0  0  0  0  0  0  # atno 17343 bound_to 10162
  157.5757  130.8341  149.8452 LP  0  0  0  0  0  0  0  0  0  0  0  0  # atno 17370 bound_to 10713
  156.0385  130.3745  150.1496 LP  0  0  0  0  0  0  0  0  0  0  0  0  # atno 17371 bound_to 10713
  140.5778  134.0382  155.7453 LP  0  0  0  0  0  0  0  0  0  0  0  0  # atno 17394 bound_to 11000
  141.1141  133.9569  157.2855 LP  0  0  0  0  0  0  0  0  0  0  0  0  # atno 17395 bound_to 11000

$$$$
