AV-unprocessed.smi:1202|AV-procd|sdf|5030|dock1
  -GOLD-   22720 4 53D 1   1.00000     0.00000
 Structure written by MMmdl.
 45 46  0  0  0  0  0  0  0  0  2 V2000
  145.6992  135.1781  151.8596 C   0  0  0  0  0  0  0  0  0  0  0  0
  146.7748  135.3538  152.8237 N   0  0  0  0  0  0  0  0  0  0  0  0
  146.5921  135.4459  154.1484 C   0  0  0  0  0  0  0  0  0  0  0  0
  145.4831  135.3988  154.6820 O   0  0  0  0  0  0  0  0  0  0  0  0
  147.8552  135.6368  154.9947 C   0  0  0  0  0  0  0  0  0  0  0  0
  148.7285  136.7324  154.5002 N   0  3  2  0  0  0  0  0  0  0  0  0
  150.0962  136.6687  155.0762 C   0  0  0  0  0  0  0  0  0  0  0  0
  151.0201  137.7251  154.4423 C   0  0  0  0  0  0  0  0  0  0  0  0
  150.4425  139.1462  154.5603 C   0  0  2  0  0  0  0  0  0  0  0  0
  150.5095  139.6123  155.9448 N   0  0  0  0  0  0  0  0  0  0  0  0
  151.6370  139.9037  156.6115 C   0  0  0  0  0  0  0  0  0  0  0  0
  152.7572  139.8264  156.1056 O   0  0  0  0  0  0  0  0  0  0  0  0
  151.4587  140.3755  158.0615 C   0  0  0  0  0  0  0  0  0  0  0  0
  151.8632  141.7759  158.2699 N   0  0  0  0  0  0  0  0  0  0  0  0
  151.2792  142.7451  157.4301 C   0  0  0  0  0  0  0  0  0  0  0  0
  151.5820  144.0488  157.5329 C   0  0  0  0  0  0  0  0  0  0  0  0
  152.5357  144.4510  158.5396 C   0  0  0  0  0  0  0  0  0  0  0  0
  153.1019  143.5315  159.3466 C   0  0  0  0  0  0  0  0  0  0  0  0
  152.7755  142.1050  159.2361 C   0  0  0  0  0  0  0  0  0  0  0  0
  153.2899  141.2571  159.9663 O   0  0  0  0  0  0  0  0  0  0  0  0
  148.9996  139.1661  154.0180 C   0  0  0  0  0  0  0  0  0  0  0  0
  148.1253  138.0814  154.6708 C   0  0  0  0  0  0  0  0  0  0  0  0
  146.1024  135.1905  150.8470 H   0  0  0  0  0  0  0  0  0  0  0  0
  144.9646  135.9801  151.9426 H   0  0  0  0  0  0  0  0  0  0  0  0
  145.1931  134.2242  152.0128 H   0  0  0  0  0  0  0  0  0  0  0  0
  147.7151  135.4094  152.4588 H   0  0  0  0  0  0  0  0  0  0  0  0
  147.5942  135.8097  156.0403 H   0  0  0  0  0  0  0  0  0  0  0  0
  148.3974  134.6908  154.9594 H   0  0  0  0  0  0  0  0  0  0  0  0
  150.0438  136.8067  156.1572 H   0  0  0  0  0  0  0  0  0  0  0  0
  150.5207  135.6787  154.9051 H   0  0  0  0  0  0  0  0  0  0  0  0
  152.0103  137.6797  154.8979 H   0  0  0  0  0  0  0  0  0  0  0  0
  151.1617  137.4847  153.3876 H   0  0  0  0  0  0  0  0  0  0  0  0
  151.0573  139.8119  153.9516 H   0  0  0  0  0  0  0  0  0  0  0  0
  149.6345  139.7015  156.4409 H   0  0  0  0  0  0  0  0  0  0  0  0
  150.4131  140.2336  158.3373 H   0  0  0  0  0  0  0  0  0  0  0  0
  152.0208  139.7203  158.7301 H   0  0  0  0  0  0  0  0  0  0  0  0
  150.5817  142.3621  156.6993 H   0  0  0  0  0  0  0  0  0  0  0  0
  151.1273  144.7768  156.8774 H   0  0  0  0  0  0  0  0  0  0  0  0
  152.7971  145.4936  158.6457 H   0  0  0  0  0  0  0  0  0  0  0  0
  153.8139  143.8510  160.0933 H   0  0  0  0  0  0  0  0  0  0  0  0
  148.5469  140.1479  154.1609 H   0  0  0  0  0  0  0  0  0  0  0  0
  149.0220  139.0016  152.9398 H   0  0  0  0  0  0  0  0  0  0  0  0
  147.1326  138.1092  154.2210 H   0  0  0  0  0  0  0  0  0  0  0  0
  147.9923  138.2917  155.7331 H   0  0  0  0  0  0  0  0  0  0  0  0
  148.8310  136.5796  153.5066 H   0  0  0  0  0  0  0  0  0  0  0  0
  1  2  1  0  0  0  0
  1 23  1  0  0  0  0
  1 24  1  0  0  0  0
  1 25  1  0  0  0  0
  2  3  1  0  0  0  0
  2 26  1  0  0  0  0
  3  4  2  0  0  0  0
  3  5  1  0  0  0  0
  5  6  1  0  0  0  0
  5 27  1  0  0  0  0
  5 28  1  0  0  0  0
  6 22  1  0  0  0  0
  6  7  1  0  0  0  0
  6 45  1  0  0  0  0
  7  8  1  0  0  0  0
  7 29  1  0  0  0  0
  7 30  1  0  0  0  0
  8  9  1  0  0  0  0
  8 31  1  0  0  0  0
  8 32  1  0  0  0  0
  9 10  1  0  0  0  0
  9 21  1  0  0  0  0
  9 33  1  0  0  0  0
 10 11  1  0  0  0  0
 10 34  1  0  0  0  0
 11 12  2  0  0  0  0
 11 13  1  0  0  0  0
 13 14  1  0  0  0  0
 13 35  1  0  0  0  0
 13 36  1  0  0  0  0
 14 19  1  0  0  0  0
 14 15  1  0  0  0  0
 15 16  2  0  0  0  0
 15 37  1  0  0  0  0
 16 17  1  0  0  0  0
 16 38  1  0  0  0  0
 17 18  2  0  0  0  0
 17 39  1  0  0  0  0
 18 19  1  0  0  0  0
 18 40  1  0  0  0  0
 19 20  2  0  0  0  0
 21 22  1  0  0  0  0
 21 41  1  0  0  0  0
 21 42  1  0  0  0  0
 22 43  1  0  0  0  0
 22 44  1  0  0  0  0
M  CHG  1   6   1
M  END
> <s_m_source_file>
AV-unprocessed.smi

> <i_m_source_file_index>
1202

> <i_lp_mmshare_version>
43012

> <i_f3d_flags>
0

> <s_epik_input>
W0NIM11bTkhdQyg9TylbQ0gyXU4xW0NIMl1bQ0gyXVtDSF0oW0NIMl1bQ0gyXTEpW05IXUMoPU8pW0NIMl1uMltjSF1bY0hdW2NIXVtjSF1jMj1P

> <s_epik_cmdline>
J2VwaWtfcHl0aG9uJywgJy1waCcsICc3LjAnLCAnLXRuJywgJzgnLCAnLW1hJywgJzIwMCcsICctbWV0YWxfYmluZGluZycsICctaW1hZScsICc8aW5maWxlLm1hZT4nLCAnLW9tYWUnLCAnPG91dGZpbGUubWFlPic=

> <r_lp_tautomer_probability>
1

> <r_epik_Ionization_Penalty>
0.983979

> <r_epik_Ionization_Penalty_Charging>
0.983957

> <r_epik_Ionization_Penalty_Neutral>
2.18432e-05

> <r_epik_State_Penalty>
1.03106

> <r_epik_Charging_Adjusted_Penalty>
2.01502

> <i_epik_Tot_Q>
1

> <i_epik_Tot_abs_Q>
1

> <r_epik_Metal_State_Penalty>
1.03477

> <b_epik_Metal_Only>
0

> <s_lp_Force_Field>
OPLS_2005

> <r_lp_Energy>
22.4374

> <b_lp_Chiralities_Consistent>
1

> <s_lp_Variant>
AV-unprocessed.smi:1202-3

> <Gold.Version>
5.8.1

> <Gold.Id.Protein>
6NUR|6NUR_protein|mol2

> <Gold.PLP.Fitness>
52.1036

> <Gold.PLP.PLP>
-40.6906

> <Gold.PLP.part.hbond>
-2.9876

> <Gold.PLP.part.metal>
0.0000

> <Gold.PLP.part.buried>
-3.1803

> <Gold.PLP.part.nonpolar>
-34.7807

> <Gold.PLP.part.repulsive>
0.1005

> <Gold.PLP.ligand.clash>
0.0000

> <Gold.PLP.ligand.torsion>
0.3243

> <Gold.PLP.Chemscore.Hbond>
4.0000

> <Gold.PLP.Chemscore.CHOScore>
0.0000

> <Gold.PLP.Chemscore.Metal>
0.0000

> <Gold.Chemscore.Hbonds>
donor molecule, donor type, donor heavy atom, donor atom, acceptor molecule, acceptor atom, score
      L1  H     2    26       P1  7948  1.00
      L1  H     6    45       P1  7948  2.00
      P1  H  7997  8010       L1    12  1.00

> <Gold.PLP.Chemscore.Internal.Correction>
0.0615

> <Gold.Rescore>
     Score         DG    S(hbond)    S(metal)    S(lipo)     H(rot)  DE(clash)    DE(int)     intcor
     19.94     -20.34       2.99        0.00      90.62       2.23       0.14       0.25       ----

> <Gold.Chemscore.Fitness>
19.9403

> <Gold.Chemscore.DG>
-20.3382

> <Gold.Chemscore.ZeroCoef>
-5.4800

> <Gold.Chemscore.Hbond>
2.9867

> <Gold.Chemscore.Metal>
0.0000

> <Gold.Chemscore.Lipo>
90.6245

> <Gold.Chemscore.Internal_Hbond>
0.0000

> <Gold.Chemscore.DEClash>
0.1434

> <Gold.Chemscore.DEInternal>
0.2544

> <Gold.Chemscore.Rot>
2.2346

> <Gold.Chemscore.Internal.Correction>
   9.000000E+99

> <Gold.Chemscore.Hbonds>
donor molecule, donor type, donor heavy atom, donor atom, acceptor molecule, acceptor atom, score
      L1  H     2    26       P1  7948  0.94
      L1  H     6    45       P1  7948  1.00
      P1  H  7997  8010       L1    12  0.99

> <Gold.Chemscore.Hbond.Weighted>
-9.9756

> <Gold.Chemscore.Metal.Weighted>
-0.0000

> <Gold.Chemscore.Lipo.Weighted>
-10.6031

> <Gold.Chemscore.Internal_Hbond.Weighted>
0.0000

> <Gold.Chemscore.DEClash.Weighted>
0.1434

> <Gold.Chemscore.DEInternal.Weighted>
0.2544

> <Gold.Chemscore.Rot.Weighted>
5.7205

> <Gold.Chemscore.Internal.Correction.Weighted>
   9.000000E+99

> <Gold.Protein.RotatedTorsions>
[ 6907 6896 6895 6894 ] final  -57.19 input  -60.11 | X-H torsion
[ 7974 7965 7964 7962 ] final   42.04 input  175.53 | X-H torsion
[ 8008 7997 7996 7995 ] final   81.31 input   59.86 | X-H torsion
[ 10167 10162 10161 10158 ] final  118.63 input  -65.29 | X-H torsion
[ 10718 10713 10712 10709 ] final  125.82 input   66.30 | X-H torsion
[ 10763 10752 10751 10750 ] final   -9.73 input  -60.55 | X-H torsion
[ 11005 11000 10999 10996 ] final -100.49 input  -57.11 | X-H torsion

> <Gold.Protein.ActiveResidues>
 VAL166  LYS551  ARG553  GLY616  TRP617  ASP618  TYR619  PRO620  LYS621  CYS622 
 ASP623  PHE694  ASN695  SER759  ASP760  ASP761  ALA762  ILE779  LEU786  VAL792 
 PHE793  MET794  SER795  GLU796  ALA797  LYS798  CYS799  TRP800  GLU811  SER814 

> <Gold.Protein.RotatedAtoms>
  150.8106  134.7258  159.6683 H   0  0  0  0  0  0  0  0  0  0  0  0  # atno 6907 bound_to 6896
  152.4226  134.5924  159.9987 H   0  0  0  0  0  0  0  0  0  0  0  0  # atno 6908 bound_to 6896
  151.6135  133.3308  159.3108 H   0  0  0  0  0  0  0  0  0  0  0  0  # atno 6909 bound_to 6896
  146.0773  139.5346  142.9559 H   0  0  0  0  0  0  0  0  0  0  0  0  # atno 7974 bound_to 7965
  155.8954  140.3436  155.5987 H   0  0  0  0  0  0  0  0  0  0  0  0  # atno 8008 bound_to 7997
  155.7562  140.0826  157.2196 H   0  0  0  0  0  0  0  0  0  0  0  0  # atno 8009 bound_to 7997
  154.4038  140.1544  156.2767 H   0  0  0  0  0  0  0  0  0  0  0  0  # atno 8010 bound_to 7997
  139.6098  144.7079  151.2869 H   0  0  0  0  0  0  0  0  0  0  0  0  # atno 10167 bound_to 10162
  157.5471  131.1095  150.8763 H   0  0  0  0  0  0  0  0  0  0  0  0  # atno 10718 bound_to 10713
  153.4590  135.7016  153.6062 H   0  0  0  0  0  0  0  0  0  0  0  0  # atno 10763 bound_to 10752
  153.4364  135.3790  155.2202 H   0  0  0  0  0  0  0  0  0  0  0  0  # atno 10764 bound_to 10752
  154.8727  135.3963  154.4013 H   0  0  0  0  0  0  0  0  0  0  0  0  # atno 10765 bound_to 10752
  141.1268  133.8403  157.1109 H   0  0  0  0  0  0  0  0  0  0  0  0  # atno 11005 bound_to 11000
  145.6282  141.0309  143.1878 LP  0  0  0  0  0  0  0  0  0  0  0  0  # atno 17320 bound_to 7965
  144.7270  139.7844  143.7361 LP  0  0  0  0  0  0  0  0  0  0  0  0  # atno 17321 bound_to 7965
  140.7311  143.6861  150.7961 LP  0  0  0  0  0  0  0  0  0  0  0  0  # atno 17342 bound_to 10162
  140.0453  143.5304  152.2699 LP  0  0  0  0  0  0  0  0  0  0  0  0  # atno 17343 bound_to 10162
  156.9299  130.5346  149.5279 LP  0  0  0  0  0  0  0  0  0  0  0  0  # atno 17370 bound_to 10713
  156.0545  130.5609  150.9062 LP  0  0  0  0  0  0  0  0  0  0  0  0  # atno 17371 bound_to 10713
  140.0275  134.9917  157.0716 LP  0  0  0  0  0  0  0  0  0  0  0  0  # atno 17394 bound_to 11000
  140.4338  134.1752  155.7169 LP  0  0  0  0  0  0  0  0  0  0  0  0  # atno 17395 bound_to 11000

$$$$
