AV-unprocessed.smi:104|AV-procd|sdf|1001|dock6
  -GOLD-   2262017593D 1   1.00000     0.00000
 Structure written by MMmdl.
 47 49  0  0  0  0  0  0  0  0  1 V2000
  145.6949  143.5140  161.8426 C   0  0  0  0  0  0  0  0  0  0  0  0
  146.3990  143.8602  160.5375 C   0  0  0  0  0  0  0  0  0  0  0  0
  146.4383  145.0161  160.1161 O   0  0  0  0  0  0  0  0  0  0  0  0
  146.9352  142.7796  159.9437 O   0  0  0  0  0  0  0  0  0  0  0  0
  147.2328  142.7836  158.5515 C   0  0  0  0  0  0  0  0  0  0  0  0
  148.2108  141.6631  158.1366 C   0  0  2  0  0  0  0  0  0  0  0  0
  149.5620  142.0714  158.2938 O   0  0  0  0  0  0  0  0  0  0  0  0
  150.3784  141.3474  157.4326 C   0  0  1  0  0  0  0  0  0  0  0  0
  150.9721  140.1822  158.1938 N   0  0  0  0  0  0  0  0  0  0  0  0
  150.4255  138.9246  158.3449 C   0  0  0  0  0  0  0  0  0  0  0  0
  148.7379  138.4391  157.6053 Br  0  0  0  0  0  0  0  0  0  0  0  0
  151.1065  138.0469  159.0241 N   0  0  0  0  0  0  0  0  0  0  0  0
  152.2517  138.7486  159.3662 C   0  0  0  0  0  0  0  0  0  0  0  0
  153.4201  138.4143  160.0966 C   0  0  0  0  0  0  0  0  0  0  0  0
  153.6204  137.2068  160.6428 N   0  0  0  0  0  0  0  0  0  0  0  0
  154.3796  139.3548  160.2504 N   0  0  0  0  0  0  0  0  0  0  0  0
  154.2043  140.5648  159.7131 C   0  0  0  0  0  0  0  0  0  0  0  0
  153.1680  141.0206  159.0058 N   0  0  0  0  0  0  0  0  0  0  0  0
  152.1925  140.0772  158.8482 C   0  0  0  0  0  0  0  0  0  0  0  0
  149.5229  140.9739  156.2058 C   0  0  1  0  0  0  0  0  0  0  0  0
  149.8013  139.6779  155.6879 O   0  0  0  0  0  0  0  0  0  0  0  0
  150.9629  139.4344  155.0594 C   0  0  0  0  0  0  0  0  0  0  0  0
  150.9961  138.0525  154.4217 C   0  0  0  0  0  0  0  0  0  0  0  0
  151.9246  140.1998  154.9920 O   0  0  0  0  0  0  0  0  0  0  0  0
  148.0828  141.0796  156.7118 C   0  0  2  0  0  0  0  0  0  0  0  0
  147.3244  141.9049  155.8342 O   0  0  0  0  0  0  0  0  0  0  0  0
  147.2982  141.6560  154.5133 C   0  0  0  0  0  0  0  0  0  0  0  0
  146.3187  142.5577  153.7739 C   0  0  0  0  0  0  0  0  0  0  0  0
  147.9713  140.8135  153.9196 O   0  0  0  0  0  0  0  0  0  0  0  0
  146.2481  142.7473  162.3858 H   0  0  0  0  0  0  0  0  0  0  0  0
  144.6916  143.1394  161.6395 H   0  0  0  0  0  0  0  0  0  0  0  0
  145.6133  144.3959  162.4784 H   0  0  0  0  0  0  0  0  0  0  0  0
  146.3153  142.7204  157.9646 H   0  0  0  0  0  0  0  0  0  0  0  0
  147.6778  143.7494  158.3117 H   0  0  0  0  0  0  0  0  0  0  0  0
  148.0576  140.8493  158.8433 H   0  0  0  0  0  0  0  0  0  0  0  0
  151.2388  141.9480  157.1441 H   0  0  0  0  0  0  0  0  0  0  0  0
  152.9200  136.4861  160.5421 H   0  0  0  0  0  0  0  0  0  0  0  0
  154.4702  137.0197  161.1551 H   0  0  0  0  0  0  0  0  0  0  0  0
  155.0081  141.2685  159.8722 H   0  0  0  0  0  0  0  0  0  0  0  0
  149.6888  141.7395  155.4459 H   0  0  0  0  0  0  0  0  0  0  0  0
  150.1371  137.9171  153.7639 H   0  0  0  0  0  0  0  0  0  0  0  0
  150.9675  137.2819  155.1925 H   0  0  0  0  0  0  0  0  0  0  0  0
  151.9058  137.9222  153.8350 H   0  0  0  0  0  0  0  0  0  0  0  0
  147.6165  140.0956  156.7831 H   0  0  0  0  0  0  0  0  0  0  0  0
  145.3721  142.6143  154.3115 H   0  0  0  0  0  0  0  0  0  0  0  0
  146.1241  142.1715  152.7729 H   0  0  0  0  0  0  0  0  0  0  0  0
  146.7271  143.5642  153.6835 H   0  0  0  0  0  0  0  0  0  0  0  0
  1  2  1  0  0  0  0
  1 30  1  0  0  0  0
  1 31  1  0  0  0  0
  1 32  1  0  0  0  0
  2  3  2  0  0  0  0
  2  4  1  0  0  0  0
  4  5  1  0  0  0  0
  5  6  1  0  0  0  0
  5 33  1  0  0  0  0
  5 34  1  0  0  0  0
  6 25  1  0  0  0  0
  6  7  1  0  0  0  0
  6 35  1  0  0  0  0
  7  8  1  0  0  0  0
  8  9  1  0  0  0  0
  8 20  1  0  0  0  0
  8 36  1  0  0  0  0
  9 19  1  0  0  0  0
  9 10  1  0  0  0  0
 10 11  1  0  0  0  0
 10 12  2  0  0  0  0
 12 13  1  0  0  0  0
 13 19  2  0  0  0  0
 13 14  1  0  0  0  0
 14 15  1  0  0  0  0
 14 16  2  0  0  0  0
 15 37  1  0  0  0  0
 15 38  1  0  0  0  0
 16 17  1  0  0  0  0
 17 18  2  0  0  0  0
 17 39  1  0  0  0  0
 18 19  1  0  0  0  0
 20 21  1  0  0  0  0
 20 25  1  0  0  0  0
 20 40  1  0  0  0  0
 21 22  1  0  0  0  0
 22 23  1  0  0  0  0
 22 24  2  0  0  0  0
 23 41  1  0  0  0  0
 23 42  1  0  0  0  0
 23 43  1  0  0  0  0
 25 26  1  0  0  0  0
 25 44  1  0  0  0  0
 26 27  1  0  0  0  0
 27 28  1  0  0  0  0
 27 29  2  0  0  0  0
 28 45  1  0  0  0  0
 28 46  1  0  0  0  0
 28 47  1  0  0  0  0
M  END
> <s_m_source_file>
AV-unprocessed.smi

> <i_m_source_file_index>
104

> <i_lp_mmshare_version>
43012

> <i_f3d_flags>
0

> <s_epik_input>
W0NIM11DKD1PKU9bQ0gyXVtDQEBIXTFPW0NASF0oW0NAQEhdKE9DKD1PKVtDSDNdKVtDQEhdMU9DKD1PKVtDSDNdKW4oYyhCciluMiljKGMyMyluW2NIXW5jM1tOSDJd

> <s_epik_cmdline>
J2VwaWtfcHl0aG9uJywgJy1waCcsICc3LjAnLCAnLXRuJywgJzgnLCAnLW1hJywgJzIwMCcsICctbWV0YWxfYmluZGluZycsICctaW1hZScsICc8aW5maWxlLm1hZT4nLCAnLW9tYWUnLCAnPG91dGZpbGUubWFlPic=

> <r_lp_tautomer_probability>
1

> <r_epik_Ionization_Penalty>
7.36622e-05

> <r_epik_Ionization_Penalty_Charging>
0

> <r_epik_Ionization_Penalty_Neutral>
7.36622e-05

> <r_epik_State_Penalty>
-0

> <r_epik_Charging_Adjusted_Penalty>
0

> <i_epik_Tot_Q>
0

> <i_epik_Tot_abs_Q>
0

> <r_epik_Metal_State_Penalty>
-0

> <b_epik_Metal_Only>
0

> <s_epik_Chemistry_Notes>
This compound has an ester and may undergo hydrolysis at high or low pH. This compound contains an acetal/aminal-like group ( X-CH(R)-Y where X, Y are N, S, or O) that may be acid/base labile, releasing an aldehyde.

> <s_lp_Force_Field>
OPLS_2005

> <r_lp_Energy>
20.7491

> <b_lp_Chiralities_Consistent>
1

> <s_lp_Variant>
AV-unprocessed.smi:104-9

> <Gold.Version>
5.8.1

> <Gold.Id.Protein>
6NUR|6NUR_protein|mol2

> <Gold.PLP.Fitness>
35.2311

> <Gold.PLP.PLP>
-40.3412

> <Gold.PLP.part.hbond>
-2.9939

> <Gold.PLP.part.metal>
0.0000

> <Gold.PLP.part.buried>
-9.1944

> <Gold.PLP.part.nonpolar>
-29.3277

> <Gold.PLP.part.repulsive>
0.9389

> <Gold.PLP.ligand.clash>
4.4483

> <Gold.PLP.ligand.torsion>
1.6220

> <Gold.PLP.Chemscore.Hbond>
0.8320

> <Gold.PLP.Chemscore.CHOScore>
0.0000

> <Gold.PLP.Chemscore.Metal>
0.0000

> <Gold.Chemscore.Hbonds>
donor molecule, donor type, donor heavy atom, donor atom, acceptor molecule, acceptor atom, score
      P1  H  7989  7998       L1    24  0.82

> <Gold.PLP.Chemscore.Internal.Correction>
0.0862

> <Gold.Rescore>
     Score         DG    S(hbond)    S(metal)    S(lipo)     H(rot)  DE(clash)    DE(int)     intcor
     -7.48      -2.01       0.92        0.00      38.39       4.31       0.25       9.24       ----

> <Gold.Chemscore.Fitness>
-7.4764

> <Gold.Chemscore.DG>
-2.0123

> <Gold.Chemscore.ZeroCoef>
-5.4800

> <Gold.Chemscore.Hbond>
0.9181

> <Gold.Chemscore.Metal>
0.0000

> <Gold.Chemscore.Lipo>
38.3915

> <Gold.Chemscore.Internal_Hbond>
0.0000

> <Gold.Chemscore.DEClash>
0.2533

> <Gold.Chemscore.DEInternal>
9.2354

> <Gold.Chemscore.Rot>
4.3070

> <Gold.Chemscore.Internal.Correction>
   9.000000E+99

> <Gold.Chemscore.Hbonds>
donor molecule, donor type, donor heavy atom, donor atom, acceptor molecule, acceptor atom, score
      P1  H  7989  7998       L1    24  0.24

> <Gold.Chemscore.Hbond.Weighted>
-3.0663

> <Gold.Chemscore.Metal.Weighted>
-0.0000

> <Gold.Chemscore.Lipo.Weighted>
-4.4918

> <Gold.Chemscore.Internal_Hbond.Weighted>
0.0000

> <Gold.Chemscore.DEClash.Weighted>
0.2533

> <Gold.Chemscore.DEInternal.Weighted>
9.2354

> <Gold.Chemscore.Rot.Weighted>
11.0259

> <Gold.Chemscore.Internal.Correction.Weighted>
   9.000000E+99

> <Gold.Protein.RotatedTorsions>
[ 6907 6896 6895 6894 ] final  -39.93 input  -60.11 | X-H torsion
[ 7974 7965 7964 7962 ] final  130.87 input  175.53 | X-H torsion
[ 8008 7997 7996 7995 ] final -103.74 input   59.86 | X-H torsion
[ 10167 10162 10161 10158 ] final  129.61 input  -65.29 | X-H torsion
[ 10718 10713 10712 10709 ] final  143.39 input   66.30 | X-H torsion
[ 10763 10752 10751 10750 ] final -106.40 input  -60.55 | X-H torsion
[ 11005 11000 10999 10996 ] final  107.57 input  -57.11 | X-H torsion

> <Gold.Protein.ActiveResidues>
 VAL166  LYS551  ARG553  GLY616  TRP617  ASP618  TYR619  PRO620  LYS621  CYS622 
 ASP623  PHE694  ASN695  SER759  ASP760  ASP761  ALA762  ILE779  LEU786  VAL792 
 PHE793  MET794  SER795  GLU796  ALA797  LYS798  CYS799  TRP800  GLU811  SER814 

> <Gold.Protein.RotatedAtoms>
  150.9845  134.9193  159.7863 H   0  0  0  0  0  0  0  0  0  0  0  0  # atno 6907 bound_to 6896
  152.5232  134.3365  159.9212 H   0  0  0  0  0  0  0  0  0  0  0  0  # atno 6908 bound_to 6896
  151.3372  133.3936  159.2702 H   0  0  0  0  0  0  0  0  0  0  0  0  # atno 6909 bound_to 6896
  145.0133  139.4200  143.5234 H   0  0  0  0  0  0  0  0  0  0  0  0  # atno 7974 bound_to 7965
  154.8753  140.0421  157.1749 H   0  0  0  0  0  0  0  0  0  0  0  0  # atno 8008 bound_to 7997
  154.8696  140.2956  155.5468 H   0  0  0  0  0  0  0  0  0  0  0  0  # atno 8009 bound_to 7997
  156.2999  140.2431  156.3683 H   0  0  0  0  0  0  0  0  0  0  0  0  # atno 8010 bound_to 7997
  139.5469  144.6781  151.4444 H   0  0  0  0  0  0  0  0  0  0  0  0  # atno 10167 bound_to 10162
  157.3695  131.0977  151.0841 H   0  0  0  0  0  0  0  0  0  0  0  0  # atno 10718 bound_to 10713
  154.8010  135.4713  154.0275 H   0  0  0  0  0  0  0  0  0  0  0  0  # atno 10763 bound_to 10752
  153.1781  135.6836  153.8523 H   0  0  0  0  0  0  0  0  0  0  0  0  # atno 10764 bound_to 10752
  153.8082  135.3220  155.3375 H   0  0  0  0  0  0  0  0  0  0  0  0  # atno 10765 bound_to 10752
  139.8830  134.9404  156.5839 H   0  0  0  0  0  0  0  0  0  0  0  0  # atno 11005 bound_to 11000
  146.3473  139.9589  142.8720 LP  0  0  0  0  0  0  0  0  0  0  0  0  # atno 17320 bound_to 7965
  145.1994  140.9847  143.4164 LP  0  0  0  0  0  0  0  0  0  0  0  0  # atno 17321 bound_to 7965
  140.6720  143.8272  150.7011 LP  0  0  0  0  0  0  0  0  0  0  0  0  # atno 17342 bound_to 10162
  140.1699  143.4203  152.2008 LP  0  0  0  0  0  0  0  0  0  0  0  0  # atno 17343 bound_to 10162
  157.1950  130.6369  149.5718 LP  0  0  0  0  0  0  0  0  0  0  0  0  # atno 17370 bound_to 10713
  155.9753  130.4709  150.6447 LP  0  0  0  0  0  0  0  0  0  0  0  0  # atno 17371 bound_to 10713
  140.8006  133.8508  155.8723 LP  0  0  0  0  0  0  0  0  0  0  0  0  # atno 17394 bound_to 11000
  140.9596  134.1673  157.4665 LP  0  0  0  0  0  0  0  0  0  0  0  0  # atno 17395 bound_to 11000

$$$$
