AV-unprocessed.smi:1236|AV-procd|sdf|5180|dock6
  -GOLD-   22720 4263D 1   1.00000     0.00000
 Structure written by MMmdl.
 39 40  0  0  0  0  0  0  0  0  1 V2000
  147.5732  140.8044  153.4198 C   0  0  0  0  0  0  0  0  0  0  0  0
  148.4493  140.2910  154.5702 C   0  0  1  0  0  0  0  0  0  0  0  0
  149.4894  139.2669  154.0666 C   0  0  0  0  0  0  0  0  0  0  0  0
  150.2805  138.6038  155.1044 N   0  0  0  0  0  0  0  0  0  0  0  0
  150.0436  137.1629  155.1629 C   0  0  0  0  0  0  0  0  0  0  0  0
  150.8924  136.4891  156.2545 C   0  0  0  0  0  0  0  0  0  0  0  0
  152.2705  136.7680  156.0293 O   0  0  0  0  0  0  0  0  0  0  0  0
  152.5517  138.1637  156.0055 C   0  0  0  0  0  0  0  0  0  0  0  0
  151.7068  138.8409  154.9128 C   0  0  0  0  0  0  0  0  0  0  0  0
  149.1223  141.4256  155.2014 N   0  0  0  0  0  0  0  0  0  0  0  0
  149.8002  141.3925  156.3587 C   0  0  0  0  0  0  0  0  0  0  0  0
  149.9109  140.3843  157.0569 O   0  0  0  0  0  0  0  0  0  0  0  0
  150.3371  142.5931  156.6392 N   0  0  0  0  0  0  0  0  0  0  0  0
  151.1300  142.9607  157.7590 C   0  0  0  0  0  0  0  0  0  0  0  0
  151.4433  144.3361  157.8445 C   0  0  0  0  0  0  0  0  0  0  0  0
  152.2260  144.8032  158.9181 C   0  0  0  0  0  0  0  0  0  0  0  0
  152.6751  143.8816  159.8808 C   0  0  0  0  0  0  0  0  0  0  0  0
  152.3176  142.5302  159.7220 C   0  0  0  0  0  0  0  0  0  0  0  0
  151.5682  142.0804  158.6936 N   0  0  0  0  0  0  0  0  0  0  0  0
  147.0416  139.9841  152.9369 H   0  0  0  0  0  0  0  0  0  0  0  0
  148.1696  141.3082  152.6583 H   0  0  0  0  0  0  0  0  0  0  0  0
  146.8263  141.5122  153.7810 H   0  0  0  0  0  0  0  0  0  0  0  0
  147.7784  139.8049  155.2792 H   0  0  0  0  0  0  0  0  0  0  0  0
  148.9880  138.5136  153.4570 H   0  0  0  0  0  0  0  0  0  0  0  0
  150.1673  139.7897  153.3906 H   0  0  0  0  0  0  0  0  0  0  0  0
  148.9938  136.9564  155.3647 H   0  0  0  0  0  0  0  0  0  0  0  0
  150.2712  136.7102  154.1969 H   0  0  0  0  0  0  0  0  0  0  0  0
  150.5985  136.8433  157.2437 H   0  0  0  0  0  0  0  0  0  0  0  0
  150.7397  135.4100  156.2424 H   0  0  0  0  0  0  0  0  0  0  0  0
  152.3410  138.6011  156.9825 H   0  0  0  0  0  0  0  0  0  0  0  0
  153.6140  138.3105  155.8103 H   0  0  0  0  0  0  0  0  0  0  0  0
  152.0164  138.4686  153.9350 H   0  0  0  0  0  0  0  0  0  0  0  0
  151.9082  139.9129  154.9165 H   0  0  0  0  0  0  0  0  0  0  0  0
  149.0900  142.3009  154.7001 H   0  0  0  0  0  0  0  0  0  0  0  0
  150.1655  143.3282  155.9695 H   0  0  0  0  0  0  0  0  0  0  0  0
  151.0897  145.0305  157.0960 H   0  0  0  0  0  0  0  0  0  0  0  0
  152.4769  145.8502  159.0007 H   0  0  0  0  0  0  0  0  0  0  0  0
  153.2767  144.2015  160.7186 H   0  0  0  0  0  0  0  0  0  0  0  0
  152.6412  141.7904  160.4392 H   0  0  0  0  0  0  0  0  0  0  0  0
  1  2  1  0  0  0  0
  1 20  1  0  0  0  0
  1 21  1  0  0  0  0
  1 22  1  0  0  0  0
  2  3  1  0  0  0  0
  2 10  1  0  0  0  0
  2 23  1  0  0  0  0
  3  4  1  0  0  0  0
  3 24  1  0  0  0  0
  3 25  1  0  0  0  0
  4  9  1  0  0  0  0
  4  5  1  0  0  0  0
  5  6  1  0  0  0  0
  5 26  1  0  0  0  0
  5 27  1  0  0  0  0
  6  7  1  0  0  0  0
  6 28  1  0  0  0  0
  6 29  1  0  0  0  0
  7  8  1  0  0  0  0
  8  9  1  0  0  0  0
  8 30  1  0  0  0  0
  8 31  1  0  0  0  0
  9 32  1  0  0  0  0
  9 33  1  0  0  0  0
 10 11  1  0  0  0  0
 10 34  1  0  0  0  0
 11 12  2  0  0  0  0
 11 13  1  0  0  0  0
 13 14  1  0  0  0  0
 13 35  1  0  0  0  0
 14 19  1  0  0  0  0
 14 15  2  0  0  0  0
 15 16  1  0  0  0  0
 15 36  1  0  0  0  0
 16 17  2  0  0  0  0
 16 37  1  0  0  0  0
 17 18  1  0  0  0  0
 17 38  1  0  0  0  0
 18 19  2  0  0  0  0
 18 39  1  0  0  0  0
M  END
> <s_m_source_file>
AV-unprocessed.smi

> <i_m_source_file_index>
1236

> <i_lp_mmshare_version>
43012

> <i_f3d_flags>
0

> <s_epik_input>
W0NIMl0xW0NIMl1PW0NIMl1bQ0gyXU4xW0NIMl1bQ0BASF0oW0NIM10pW05IXUMoPU8pW05IXWMyW2NIXVtjSF1bY0hdW2NIXW4y

> <s_epik_cmdline>
J2VwaWtfcHl0aG9uJywgJy1waCcsICc3LjAnLCAnLXRuJywgJzgnLCAnLW1hJywgJzIwMCcsICctbWV0YWxfYmluZGluZycsICctaW1hZScsICc8aW5maWxlLm1hZT4nLCAnLW9tYWUnLCAnPG91dGZpbGUubWFlPic=

> <r_epik_Ionization_Penalty>
0.26604

> <r_epik_Ionization_Penalty_Charging>
0

> <r_epik_Ionization_Penalty_Neutral>
0.26604

> <r_epik_State_Penalty>
0.257924

> <r_epik_Charging_Adjusted_Penalty>
0.257924

> <i_epik_Tot_Q>
0

> <i_epik_Tot_abs_Q>
0

> <r_epik_Metal_State_Penalty>
0.257923

> <b_epik_Metal_Only>
0

> <s_lp_Force_Field>
OPLS_2005

> <r_lp_Energy>
27.6221

> <b_lp_Chiralities_Consistent>
1

> <s_lp_Variant>
AV-unprocessed.smi:1236-2

> <Gold.Version>
5.8.1

> <Gold.Id.Protein>
6NUR|6NUR_protein|mol2

> <Gold.PLP.Fitness>
41.7463

> <Gold.PLP.PLP>
-38.1595

> <Gold.PLP.part.hbond>
-2.0000

> <Gold.PLP.part.metal>
0.0000

> <Gold.PLP.part.buried>
-4.1106

> <Gold.PLP.part.nonpolar>
-33.5054

> <Gold.PLP.part.repulsive>
0.3660

> <Gold.PLP.ligand.clash>
0.0000

> <Gold.PLP.ligand.torsion>
0.8624

> <Gold.PLP.Chemscore.Hbond>
1.7600

> <Gold.PLP.Chemscore.CHOScore>
0.0000

> <Gold.PLP.Chemscore.Metal>
0.0000

> <Gold.Chemscore.Hbonds>
donor molecule, donor type, donor heavy atom, donor atom, acceptor molecule, acceptor atom, score
      L1  H    13    35       P1  8028  0.78
      P1  H 10752 10763       L1     7  1.00

> <Gold.PLP.Chemscore.Internal.Correction>
0.0317

> <Gold.Rescore>
     Score         DG    S(hbond)    S(metal)    S(lipo)     H(rot)  DE(clash)    DE(int)     intcor
     16.47     -20.17       2.34        0.00      91.72       1.51       0.10       3.59       ----

> <Gold.Chemscore.Fitness>
16.4744

> <Gold.Chemscore.DG>
-20.1724

> <Gold.Chemscore.ZeroCoef>
-5.4800

> <Gold.Chemscore.Hbond>
2.3435

> <Gold.Chemscore.Metal>
0.0000

> <Gold.Chemscore.Lipo>
91.7227

> <Gold.Chemscore.Internal_Hbond>
0.0000

> <Gold.Chemscore.DEClash>
0.1038

> <Gold.Chemscore.DEInternal>
3.5942

> <Gold.Chemscore.Rot>
1.5104

> <Gold.Chemscore.Internal.Correction>
   9.000000E+99

> <Gold.Chemscore.Hbonds>
donor molecule, donor type, donor heavy atom, donor atom, acceptor molecule, acceptor atom, score
      L1  H    13    35       P1  8028  0.77
      P1  H 10752 10763       L1     7  0.85

> <Gold.Chemscore.Hbond.Weighted>
-7.8274

> <Gold.Chemscore.Metal.Weighted>
-0.0000

> <Gold.Chemscore.Lipo.Weighted>
-10.7316

> <Gold.Chemscore.Internal_Hbond.Weighted>
0.0000

> <Gold.Chemscore.DEClash.Weighted>
0.1038

> <Gold.Chemscore.DEInternal.Weighted>
3.5942

> <Gold.Chemscore.Rot.Weighted>
3.8665

> <Gold.Chemscore.Internal.Correction.Weighted>
   9.000000E+99

> <Gold.Protein.RotatedTorsions>
[ 6907 6896 6895 6894 ] final -124.69 input  -60.11 | X-H torsion
[ 7974 7965 7964 7962 ] final    1.57 input  175.53 | X-H torsion
[ 8008 7997 7996 7995 ] final  -48.17 input   59.86 | X-H torsion
[ 10167 10162 10161 10158 ] final   91.66 input  -65.29 | X-H torsion
[ 10718 10713 10712 10709 ] final -107.91 input   66.30 | X-H torsion
[ 10763 10752 10751 10750 ] final   88.63 input  -60.55 | X-H torsion
[ 11005 11000 10999 10996 ] final -119.88 input  -57.11 | X-H torsion

> <Gold.Protein.ActiveResidues>
 VAL166  LYS551  ARG553  GLY616  TRP617  ASP618  TYR619  PRO620  LYS621  CYS622 
 ASP623  PHE694  ASN695  SER759  ASP760  ASP761  ALA762  ILE779  LEU786  VAL792 
 PHE793  MET794  SER795  GLU796  ALA797  LYS798  CYS799  TRP800  GLU811  SER814 

> <Gold.Protein.RotatedAtoms>
  150.8793  133.7394  159.2936 H   0  0  0  0  0  0  0  0  0  0  0  0  # atno 6907 bound_to 6896
  151.4981  135.1059  159.9831 H   0  0  0  0  0  0  0  0  0  0  0  0  # atno 6908 bound_to 6896
  152.4749  133.8069  159.7038 H   0  0  0  0  0  0  0  0  0  0  0  0  # atno 6909 bound_to 6896
  146.2441  140.0968  142.8349 H   0  0  0  0  0  0  0  0  0  0  0  0  # atno 7974 bound_to 7965
  154.4025  140.1328  156.4296 H   0  0  0  0  0  0  0  0  0  0  0  0  # atno 8008 bound_to 7997
  155.7564  140.3487  155.5156 H   0  0  0  0  0  0  0  0  0  0  0  0  # atno 8009 bound_to 7997
  155.8900  140.1001  157.1415 H   0  0  0  0  0  0  0  0  0  0  0  0  # atno 8010 bound_to 7997
  139.8353  144.6668  150.9350 H   0  0  0  0  0  0  0  0  0  0  0  0  # atno 10167 bound_to 10162
  156.0460  130.5686  150.7888 H   0  0  0  0  0  0  0  0  0  0  0  0  # atno 10718 bound_to 10713
  153.1788  135.4500  155.0000 H   0  0  0  0  0  0  0  0  0  0  0  0  # atno 10763 bound_to 10752
  154.8016  135.3258  154.7538 H   0  0  0  0  0  0  0  0  0  0  0  0  # atno 10764 bound_to 10752
  153.8005  135.6963  153.4911 H   0  0  0  0  0  0  0  0  0  0  0  0  # atno 10765 bound_to 10752
  141.0183  134.0162  157.3318 H   0  0  0  0  0  0  0  0  0  0  0  0  # atno 11005 bound_to 11000
  145.0603  140.9083  143.4942 LP  0  0  0  0  0  0  0  0  0  0  0  0  # atno 17320 bound_to 7965
  145.1082  139.2775  143.5651 LP  0  0  0  0  0  0  0  0  0  0  0  0  # atno 17321 bound_to 7965
  140.7803  143.3963  151.1224 LP  0  0  0  0  0  0  0  0  0  0  0  0  # atno 17342 bound_to 10162
  139.7613  143.8630  152.3101 LP  0  0  0  0  0  0  0  0  0  0  0  0  # atno 17343 bound_to 10162
  157.5335  131.0937  150.9924 LP  0  0  0  0  0  0  0  0  0  0  0  0  # atno 17370 bound_to 10713
  157.0224  130.5679  149.5333 LP  0  0  0  0  0  0  0  0  0  0  0  0  # atno 17371 bound_to 10713
  139.9131  135.0193  156.7771 LP  0  0  0  0  0  0  0  0  0  0  0  0  # atno 17394 bound_to 11000
  140.6616  133.9640  155.7808 LP  0  0  0  0  0  0  0  0  0  0  0  0  # atno 17395 bound_to 11000

$$$$
