AV-unprocessed.smi:3331|AV-procd|sdf|12820|dock9
  -GOLD-   2272019193D 1   1.00000     0.00000
 Structure written by MMmdl.
 47 48  0  0  0  0  0  0  0  0  2 V2000
  147.3428  140.7689  157.4779 C   0  0  0  0  0  0  0  0  0  0  0  0
  148.6950  140.0955  157.7726 C   0  0  2  0  0  0  0  0  0  0  0  0
  149.7742  141.1145  158.2025 C   0  0  0  0  0  0  0  0  0  0  0  0
  150.3530  141.9162  157.0148 C   0  0  1  0  0  0  0  0  0  0  0  0
  151.5136  142.8175  157.4589 C   0  0  0  0  0  0  0  0  0  0  0  0
  150.7789  140.9601  155.8815 C   0  0  0  0  0  0  0  0  0  0  0  0
  149.6289  140.1333  155.4892 N   0  0  0  0  0  0  0  0  0  0  0  0
  149.0175  140.2605  154.2832 C   0  0  0  0  0  0  0  0  0  0  0  0
  149.4343  141.0368  153.4222 O   0  0  0  0  0  0  0  0  0  0  0  0
  147.7793  139.4012  153.9568 C   0  0  1  0  0  0  0  0  0  0  0  0
  146.4650  140.1914  154.1288 C   0  0  0  0  0  0  0  0  0  0  0  0
  147.8965  138.8677  152.5812 N   0  3  0  0  0  0  0  0  0  0  0  0
  146.6204  138.4880  151.9422 C   0  0  0  0  0  0  0  0  0  0  0  0
  145.8661  137.4589  152.7958 C   0  0  0  0  0  0  0  0  0  0  0  0
  145.3280  136.3822  151.9875 N   0  0  0  0  0  0  0  0  0  0  0  0
  145.9571  135.6508  151.0020 C   0  0  0  0  0  0  0  0  0  0  0  0
  145.0504  134.7472  150.5269 C   0  0  0  0  0  0  0  0  0  0  0  0
  143.8811  135.0038  151.2963 C   0  0  0  0  0  0  0  0  0  0  0  0
  144.0513  135.9821  152.1712 N   0  0  0  0  0  0  0  0  0  0  0  0
  149.2112  139.2494  156.5884 C   0  0  0  0  0  0  0  0  0  0  0  0
  147.4067  141.4701  156.6462 H   0  0  0  0  0  0  0  0  0  0  0  0
  146.9847  141.3215  158.3469 H   0  0  0  0  0  0  0  0  0  0  0  0
  146.5837  140.0273  157.2284 H   0  0  0  0  0  0  0  0  0  0  0  0
  148.5289  139.4210  158.6135 H   0  0  0  0  0  0  0  0  0  0  0  0
  149.3765  141.7917  158.9593 H   0  0  0  0  0  0  0  0  0  0  0  0
  150.5872  140.5705  158.6853 H   0  0  0  0  0  0  0  0  0  0  0  0
  149.5680  142.5672  156.6276 H   0  0  0  0  0  0  0  0  0  0  0  0
  152.3402  142.2310  157.8615 H   0  0  0  0  0  0  0  0  0  0  0  0
  151.1933  143.5166  158.2319 H   0  0  0  0  0  0  0  0  0  0  0  0
  151.8975  143.4041  156.6238 H   0  0  0  0  0  0  0  0  0  0  0  0
  151.1894  141.5343  155.0499 H   0  0  0  0  0  0  0  0  0  0  0  0
  151.5906  140.3128  156.2174 H   0  0  0  0  0  0  0  0  0  0  0  0
  147.7435  138.5754  154.6669 H   0  0  0  0  0  0  0  0  0  0  0  0
  146.4032  140.6432  155.1200 H   0  0  0  0  0  0  0  0  0  0  0  0
  145.5933  139.5461  154.0230 H   0  0  0  0  0  0  0  0  0  0  0  0
  146.3744  140.9909  153.3922 H   0  0  0  0  0  0  0  0  0  0  0  0
  148.3729  139.5487  152.0071 H   0  0  0  0  0  0  0  0  0  0  0  0
  146.0090  139.3816  151.8082 H   0  0  0  0  0  0  0  0  0  0  0  0
  146.8107  138.0742  150.9517 H   0  0  0  0  0  0  0  0  0  0  0  0
  146.5297  137.0296  153.5477 H   0  0  0  0  0  0  0  0  0  0  0  0
  145.0429  137.9334  153.3324 H   0  0  0  0  0  0  0  0  0  0  0  0
  146.9848  135.8318  150.7227 H   0  0  0  0  0  0  0  0  0  0  0  0
  145.1999  134.0127  149.7492 H   0  0  0  0  0  0  0  0  0  0  0  0
  142.9209  134.5118  151.2456 H   0  0  0  0  0  0  0  0  0  0  0  0
  150.0757  138.6664  156.9100 H   0  0  0  0  0  0  0  0  0  0  0  0
  148.4687  138.5058  156.3064 H   0  0  0  0  0  0  0  0  0  0  0  0
  148.4671  138.0355  152.6276 H   0  0  0  0  0  0  0  0  0  0  0  0
  1  2  1  0  0  0  0
  1 21  1  0  0  0  0
  1 22  1  0  0  0  0
  1 23  1  0  0  0  0
  2 20  1  0  0  0  0
  2  3  1  0  0  0  0
  2 24  1  0  0  0  0
  3  4  1  0  0  0  0
  3 25  1  0  0  0  0
  3 26  1  0  0  0  0
  4  5  1  0  0  0  0
  4  6  1  0  0  0  0
  4 27  1  0  0  0  0
  5 28  1  0  0  0  0
  5 29  1  0  0  0  0
  5 30  1  0  0  0  0
  6  7  1  0  0  0  0
  6 31  1  0  0  0  0
  6 32  1  0  0  0  0
  7  8  1  0  0  0  0
  7 20  1  0  0  0  0
  8  9  2  0  0  0  0
  8 10  1  0  0  0  0
 10 11  1  0  0  0  0
 10 12  1  0  0  0  0
 10 33  1  0  0  0  0
 11 34  1  0  0  0  0
 11 35  1  0  0  0  0
 11 36  1  0  0  0  0
 12 13  1  0  0  0  0
 12 37  1  0  0  0  0
 12 47  1  0  0  0  0
 13 14  1  0  0  0  0
 13 38  1  0  0  0  0
 13 39  1  0  0  0  0
 14 15  1  0  0  0  0
 14 40  1  0  0  0  0
 14 41  1  0  0  0  0
 15 19  1  0  0  0  0
 15 16  1  0  0  0  0
 16 17  2  0  0  0  0
 16 42  1  0  0  0  0
 17 18  1  0  0  0  0
 17 43  1  0  0  0  0
 18 19  2  0  0  0  0
 18 44  1  0  0  0  0
 20 45  1  0  0  0  0
 20 46  1  0  0  0  0
M  CHG  1  12   1
M  END
> <s_m_source_file>
AV-unprocessed.smi

> <i_m_source_file_index>
3331

> <i_lp_mmshare_version>
43012

> <i_f3d_flags>
0

> <s_epik_input>
W0NIM11bQ0BASF0xW0NIMl1bQ0BASF0oW0NIM10pW0NIMl1OKFtDSDJdMSlDKD1PKVtDQEhdKFtDSDNdKVtOSF1bQ0gyXVtDSDJdbjJbY0hdW2NIXVtjSF1uMg==

> <s_epik_cmdline>
J2VwaWtfcHl0aG9uJywgJy1waCcsICc3LjAnLCAnLXRuJywgJzgnLCAnLW1hJywgJzIwMCcsICctbWV0YWxfYmluZGluZycsICctaW1hZScsICc8aW5maWxlLm1hZT4nLCAnLW9tYWUnLCAnPG91dGZpbGUubWFlPic=

> <r_lp_tautomer_probability>
1

> <r_epik_Ionization_Penalty>
0.189706

> <r_epik_Ionization_Penalty_Charging>
0.189703

> <r_epik_Ionization_Penalty_Neutral>
2.45875e-06

> <r_epik_State_Penalty>
0.179341

> <r_epik_Charging_Adjusted_Penalty>
0.369044

> <i_epik_Tot_Q>
1

> <i_epik_Tot_abs_Q>
1

> <r_epik_Metal_State_Penalty>
0.179578

> <b_epik_Metal_Only>
0

> <s_lp_Force_Field>
OPLS_2005

> <r_lp_Energy>
29.8241

> <b_lp_Chiralities_Consistent>
1

> <s_lp_Variant>
AV-unprocessed.smi:3331-4

> <Gold.Version>
5.8.1

> <Gold.Id.Protein>
6NUR|6NUR_protein|mol2

> <Gold.PLP.Fitness>
44.8633

> <Gold.PLP.PLP>
-29.8782

> <Gold.PLP.part.hbond>
-3.9300

> <Gold.PLP.part.metal>
0.0000

> <Gold.PLP.part.buried>
-3.8054

> <Gold.PLP.part.nonpolar>
-27.3686

> <Gold.PLP.part.repulsive>
4.3867

> <Gold.PLP.ligand.clash>
0.0000

> <Gold.PLP.ligand.torsion>
1.2512

> <Gold.PLP.Chemscore.Hbond>
4.1223

> <Gold.PLP.Chemscore.CHOScore>
1.6955

> <Gold.PLP.Chemscore.Metal>
0.0000

> <Gold.Chemscore.Hbonds>
donor molecule, donor type, donor heavy atom, donor atom, acceptor molecule, acceptor atom, score
      L1  H    12    37       P1  7957  1.00
      L1  H    12    47       P1  7948  1.95
      P1  H  7989  7998       L1     9  0.15
      P1  H  8011  8017       L1     9  1.00
      L1  C    16    42       P1  7948  1.00
      L1  C    18    44       P1 10186  0.76

> <Gold.PLP.Chemscore.Internal.Correction>
0.0339

> <Gold.Rescore>
     Score         DG    S(hbond)    S(metal)    S(lipo)     H(rot)  DE(clash)    DE(int)     intcor
     16.46     -19.20       2.99        0.00      69.57       1.73       1.65       1.09       ----

> <Gold.Chemscore.Fitness>
16.4626

> <Gold.Chemscore.DG>
-19.1984

> <Gold.Chemscore.ZeroCoef>
-5.4800

> <Gold.Chemscore.Hbond>
2.9929

> <Gold.Chemscore.Metal>
0.0000

> <Gold.Chemscore.Lipo>
69.5663

> <Gold.Chemscore.Internal_Hbond>
0.0000

> <Gold.Chemscore.DEClash>
1.6507

> <Gold.Chemscore.DEInternal>
1.0851

> <Gold.Chemscore.Rot>
1.7254

> <Gold.Chemscore.Internal.Correction>
   9.000000E+99

> <Gold.Chemscore.Hbonds>
donor molecule, donor type, donor heavy atom, donor atom, acceptor molecule, acceptor atom, score
      L1  H    12    37       P1  7957  0.92
      L1  H    12    47       P1  7948  0.90
      P1  H  7989  7998       L1     9  0.09
      P1  H  8011  8017       L1     9  0.99

> <Gold.Chemscore.Hbond.Weighted>
-9.9962

> <Gold.Chemscore.Metal.Weighted>
-0.0000

> <Gold.Chemscore.Lipo.Weighted>
-8.1393

> <Gold.Chemscore.Internal_Hbond.Weighted>
0.0000

> <Gold.Chemscore.DEClash.Weighted>
1.6507

> <Gold.Chemscore.DEInternal.Weighted>
1.0851

> <Gold.Chemscore.Rot.Weighted>
4.4170

> <Gold.Chemscore.Internal.Correction.Weighted>
   9.000000E+99

> <Gold.Protein.RotatedTorsions>
[ 6907 6896 6895 6894 ] final -129.53 input  -60.11 | X-H torsion
[ 7974 7965 7964 7962 ] final  -69.99 input  175.53 | X-H torsion
[ 8008 7997 7996 7995 ] final  164.36 input   59.86 | X-H torsion
[ 10167 10162 10161 10158 ] final  -45.95 input  -65.29 | X-H torsion
[ 10718 10713 10712 10709 ] final  -64.17 input   66.30 | X-H torsion
[ 10763 10752 10751 10750 ] final  171.17 input  -60.55 | X-H torsion
[ 11005 11000 10999 10996 ] final -102.97 input  -57.11 | X-H torsion

> <Gold.Protein.ActiveResidues>
 VAL166  LYS551  ARG553  GLY616  TRP617  ASP618  TYR619  PRO620  LYS621  CYS622 
 ASP623  PHE694  ASN695  SER759  ASP760  ASP761  ALA762  ILE779  LEU786  VAL792 
 PHE793  MET794  SER795  GLU796  ALA797  LYS798  CYS799  TRP800  GLU811  SER814 

> <Gold.Protein.RotatedAtoms>
  150.9298  133.6781  159.2813 H   0  0  0  0  0  0  0  0  0  0  0  0  # atno 6907 bound_to 6896
  151.4206  135.0996  159.9622 H   0  0  0  0  0  0  0  0  0  0  0  0  # atno 6908 bound_to 6896
  152.5020  133.8750  159.7372 H   0  0  0  0  0  0  0  0  0  0  0  0  # atno 6909 bound_to 6896
  145.6967  140.9132  143.0753 H   0  0  0  0  0  0  0  0  0  0  0  0  # atno 7974 bound_to 7965
  156.1886  140.1699  156.8136 H   0  0  0  0  0  0  0  0  0  0  0  0  # atno 8008 bound_to 7997
  154.5444  140.0730  156.8596 H   0  0  0  0  0  0  0  0  0  0  0  0  # atno 8009 bound_to 7997
  155.3151  140.3370  155.4245 H   0  0  0  0  0  0  0  0  0  0  0  0  # atno 8010 bound_to 7997
  140.6837  143.2854  151.3713 H   0  0  0  0  0  0  0  0  0  0  0  0  # atno 10167 bound_to 10162
  156.0745  130.4230  150.1382 H   0  0  0  0  0  0  0  0  0  0  0  0  # atno 10718 bound_to 10713
  154.4081  135.2756  155.2054 H   0  0  0  0  0  0  0  0  0  0  0  0  # atno 10763 bound_to 10752
  154.4052  135.6035  153.5924 H   0  0  0  0  0  0  0  0  0  0  0  0  # atno 10764 bound_to 10752
  152.9831  135.5936  154.4358 H   0  0  0  0  0  0  0  0  0  0  0  0  # atno 10765 bound_to 10752
  141.1166  133.8602  157.1427 H   0  0  0  0  0  0  0  0  0  0  0  0  # atno 11005 bound_to 11000
  144.6980  139.8894  143.7452 LP  0  0  0  0  0  0  0  0  0  0  0  0  # atno 17320 bound_to 7965
  146.0834  139.3822  143.0450 LP  0  0  0  0  0  0  0  0  0  0  0  0  # atno 17321 bound_to 7965
  139.6179  144.0966  152.2363 LP  0  0  0  0  0  0  0  0  0  0  0  0  # atno 17342 bound_to 10162
  140.0401  144.6014  150.7418 LP  0  0  0  0  0  0  0  0  0  0  0  0  # atno 17343 bound_to 10162
  156.9426  130.9749  151.3513 LP  0  0  0  0  0  0  0  0  0  0  0  0  # atno 17370 bound_to 10713
  157.5834  130.8392  149.8555 LP  0  0  0  0  0  0  0  0  0  0  0  0  # atno 17371 bound_to 10713
  140.0093  134.9995  157.0360 LP  0  0  0  0  0  0  0  0  0  0  0  0  # atno 17394 bound_to 11000
  140.4627  134.1467  155.7193 LP  0  0  0  0  0  0  0  0  0  0  0  0  # atno 17395 bound_to 11000

$$$$
