AV-unprocessed.smi:834|AV-procd|sdf|3884|dock4
  -GOLD-   22720 1343D 1   1.00000     0.00000
 Structure written by MMmdl.
 39 40  0  0  0  0  0  0  0  0  1 V2000
  137.4720  137.4805  154.8133 C   0  0  0  0  0  0  0  0  0  0  0  0
  138.9110  137.3542  154.4450 C   0  0  0  0  0  0  0  0  0  0  0  0
  139.7741  136.6011  155.1376 N   0  0  0  0  0  0  0  0  0  0  0  0
  141.0550  136.6438  154.6049 N   0  0  0  0  0  0  0  0  0  0  0  0
  141.1202  137.4321  153.5231 C   0  0  0  0  0  0  0  0  0  0  0  0
  142.3104  137.6607  152.7833 N   0  0  0  0  0  0  0  0  0  0  0  0
  143.5652  137.2833  153.0850 C   0  0  0  0  0  0  0  0  0  0  0  0
  143.8953  136.6357  154.0788 O   0  0  0  0  0  0  0  0  0  0  0  0
  144.4343  137.7026  152.1541 N   0  0  0  0  0  0  0  0  0  0  0  0
  145.8731  137.4649  152.1844 C   0  0  0  0  0  0  0  0  0  0  0  0
  146.6672  138.7763  152.0248 C   0  0  0  0  0  0  0  0  0  0  0  0
  147.4973  139.1275  153.2634 C   0  0  0  0  0  0  0  0  0  0  0  0
  147.2801  140.1640  153.8918 O   0  0  0  0  0  0  0  0  0  0  0  0
  148.4494  138.2464  153.6070 N   0  0  0  0  0  0  0  0  0  0  0  0
  149.3611  138.3911  154.7393 C   0  0  0  0  0  0  0  0  0  0  0  0
  150.1259  139.7263  154.6594 C   0  0  0  0  0  0  0  0  0  0  0  0
  151.5977  139.3881  154.9023 C   0  0  0  0  0  0  0  0  0  0  0  0
  151.7498  137.9652  154.3749 C   0  0  0  0  0  0  0  0  0  0  0  0
  150.4339  137.2833  154.7518 C   0  0  0  0  0  0  0  0  0  0  0  0
  139.6063  138.1924  153.0632 S   0  0  0  0  0  0  0  0  0  0  0  0
  137.1957  136.7265  155.5510 H   0  0  0  0  0  0  0  0  0  0  0  0
  136.8473  137.3486  153.9297 H   0  0  0  0  0  0  0  0  0  0  0  0
  137.2814  138.4678  155.2336 H   0  0  0  0  0  0  0  0  0  0  0  0
  142.1932  138.1814  151.9266 H   0  0  0  0  0  0  0  0  0  0  0  0
  144.0772  138.2286  151.3698 H   0  0  0  0  0  0  0  0  0  0  0  0
  146.1109  136.9957  153.1399 H   0  0  0  0  0  0  0  0  0  0  0  0
  146.1483  136.7471  151.4092 H   0  0  0  0  0  0  0  0  0  0  0  0
  147.3382  138.7091  151.1675 H   0  0  0  0  0  0  0  0  0  0  0  0
  145.9768  139.5960  151.8191 H   0  0  0  0  0  0  0  0  0  0  0  0
  148.5562  137.4181  153.0396 H   0  0  0  0  0  0  0  0  0  0  0  0
  148.7928  138.3561  155.6709 H   0  0  0  0  0  0  0  0  0  0  0  0
  150.0249  140.1696  153.6670 H   0  0  0  0  0  0  0  0  0  0  0  0
  149.7532  140.4580  155.3769 H   0  0  0  0  0  0  0  0  0  0  0  0
  152.2757  140.0911  154.4172 H   0  0  0  0  0  0  0  0  0  0  0  0
  151.8075  139.4072  155.9725 H   0  0  0  0  0  0  0  0  0  0  0  0
  151.8568  137.9848  153.2894 H   0  0  0  0  0  0  0  0  0  0  0  0
  152.6209  137.4547  154.7871 H   0  0  0  0  0  0  0  0  0  0  0  0
  150.5153  136.8774  155.7611 H   0  0  0  0  0  0  0  0  0  0  0  0
  150.2051  136.4464  154.0902 H   0  0  0  0  0  0  0  0  0  0  0  0
  1  2  1  0  0  0  0
  1 21  1  0  0  0  0
  1 22  1  0  0  0  0
  1 23  1  0  0  0  0
  2 20  1  0  0  0  0
  2  3  2  0  0  0  0
  3  4  1  0  0  0  0
  4  5  2  0  0  0  0
  5  6  1  0  0  0  0
  5 20  1  0  0  0  0
  6  7  1  0  0  0  0
  6 24  1  0  0  0  0
  7  8  2  0  0  0  0
  7  9  1  0  0  0  0
  9 10  1  0  0  0  0
  9 25  1  0  0  0  0
 10 11  1  0  0  0  0
 10 26  1  0  0  0  0
 10 27  1  0  0  0  0
 11 12  1  0  0  0  0
 11 28  1  0  0  0  0
 11 29  1  0  0  0  0
 12 13  2  0  0  0  0
 12 14  1  0  0  0  0
 14 15  1  0  0  0  0
 14 30  1  0  0  0  0
 15 19  1  0  0  0  0
 15 16  1  0  0  0  0
 15 31  1  0  0  0  0
 16 17  1  0  0  0  0
 16 32  1  0  0  0  0
 16 33  1  0  0  0  0
 17 18  1  0  0  0  0
 17 34  1  0  0  0  0
 17 35  1  0  0  0  0
 18 19  1  0  0  0  0
 18 36  1  0  0  0  0
 18 37  1  0  0  0  0
 19 38  1  0  0  0  0
 19 39  1  0  0  0  0
M  END
> <s_m_source_file>
AV-unprocessed.smi

> <i_m_source_file_index>
834

> <i_lp_mmshare_version>
43012

> <i_f3d_flags>
0

> <s_epik_input>
W0NIM11jMW5uYyhzMSlbTkhdQyg9TylbTkhdW0NIMl1bQ0gyXUMoPU8pW05IXVtDSF0yW0NIMl1bQ0gyXVtDSDJdW0NIMl0y

> <s_epik_cmdline>
J2VwaWtfcHl0aG9uJywgJy1waCcsICc3LjAnLCAnLXRuJywgJzgnLCAnLW1hJywgJzIwMCcsICctbWV0YWxfYmluZGluZycsICctaW1hZScsICc8aW5maWxlLm1hZT4nLCAnLW9tYWUnLCAnPG91dGZpbGUubWFlPic=

> <r_lp_tautomer_probability>
1

> <r_epik_Ionization_Penalty>
0.00240541

> <r_epik_Ionization_Penalty_Charging>
0

> <r_epik_Ionization_Penalty_Neutral>
0.00240541

> <r_epik_State_Penalty>
-0

> <r_epik_Charging_Adjusted_Penalty>
0

> <i_epik_Tot_Q>
0

> <i_epik_Tot_abs_Q>
0

> <r_epik_Metal_State_Penalty>
0.349697

> <b_epik_Metal_Only>
0

> <s_lp_Force_Field>
OPLS_2005

> <r_lp_Energy>
16.3225

> <b_lp_Chiralities_Consistent>
1

> <s_lp_Variant>
AV-unprocessed.smi:834-1

> <Gold.Version>
5.8.1

> <Gold.Id.Protein>
6NUR|6NUR_protein|mol2

> <Gold.PLP.Fitness>
46.2118

> <Gold.PLP.PLP>
-38.0805

> <Gold.PLP.part.hbond>
-5.2915

> <Gold.PLP.part.metal>
0.0000

> <Gold.PLP.part.buried>
-2.3183

> <Gold.PLP.part.nonpolar>
-31.6681

> <Gold.PLP.part.repulsive>
0.3856

> <Gold.PLP.ligand.clash>
0.0000

> <Gold.PLP.ligand.torsion>
0.4458

> <Gold.PLP.Chemscore.Hbond>
3.0000

> <Gold.PLP.Chemscore.CHOScore>
0.0000

> <Gold.PLP.Chemscore.Metal>
0.0000

> <Gold.Chemscore.Hbonds>
donor molecule, donor type, donor heavy atom, donor atom, acceptor molecule, acceptor atom, score
      L1  H     9    25       P1 10171  1.00
      L1  H    14    30       P1  7948  1.00
      P1  H 11000 11005       L1     3  0.98

> <Gold.PLP.Chemscore.Internal.Correction>
0.0227

> <Gold.Rescore>
     Score         DG    S(hbond)    S(metal)    S(lipo)     H(rot)  DE(clash)    DE(int)     intcor
     16.18     -18.17       2.79        0.00      72.19       1.99       0.29       1.70       ----

> <Gold.Chemscore.Fitness>
16.1780

> <Gold.Chemscore.DG>
-18.1737

> <Gold.Chemscore.ZeroCoef>
-5.4800

> <Gold.Chemscore.Hbond>
2.7934

> <Gold.Chemscore.Metal>
0.0000

> <Gold.Chemscore.Lipo>
72.1922

> <Gold.Chemscore.Internal_Hbond>
0.0000

> <Gold.Chemscore.DEClash>
0.2915

> <Gold.Chemscore.DEInternal>
1.7042

> <Gold.Chemscore.Rot>
1.9855

> <Gold.Chemscore.Internal.Correction>
   9.000000E+99

> <Gold.Chemscore.Hbonds>
donor molecule, donor type, donor heavy atom, donor atom, acceptor molecule, acceptor atom, score
      L1  H     9    25       P1 10171  0.97
      L1  H    14    30       P1  7948  1.00
      P1  H 11000 11005       L1     3  0.27

> <Gold.Chemscore.Hbond.Weighted>
-9.3300

> <Gold.Chemscore.Metal.Weighted>
-0.0000

> <Gold.Chemscore.Lipo.Weighted>
-8.4465

> <Gold.Chemscore.Internal_Hbond.Weighted>
0.0000

> <Gold.Chemscore.DEClash.Weighted>
0.2915

> <Gold.Chemscore.DEInternal.Weighted>
1.7042

> <Gold.Chemscore.Rot.Weighted>
5.0828

> <Gold.Chemscore.Internal.Correction.Weighted>
   9.000000E+99

> <Gold.Protein.RotatedTorsions>
[ 6907 6896 6895 6894 ] final   60.79 input  -60.11 | X-H torsion
[ 7974 7965 7964 7962 ] final   14.54 input  175.53 | X-H torsion
[ 8008 7997 7996 7995 ] final  -91.22 input   59.86 | X-H torsion
[ 10167 10162 10161 10158 ] final   85.98 input  -65.29 | X-H torsion
[ 10718 10713 10712 10709 ] final  -18.01 input   66.30 | X-H torsion
[ 10763 10752 10751 10750 ] final -149.47 input  -60.55 | X-H torsion
[ 11005 11000 10999 10996 ] final   88.92 input  -57.11 | X-H torsion

> <Gold.Protein.ActiveResidues>
 VAL166  LYS551  ARG553  GLY616  TRP617  ASP618  TYR619  PRO620  LYS621  CYS622 
 ASP623  PHE694  ASN695  SER759  ASP760  ASP761  ALA762  ILE779  LEU786  VAL792 
 PHE793  MET794  SER795  GLU796  ALA797  LYS798  CYS799  TRP800  GLU811  SER814 

> <Gold.Protein.RotatedAtoms>
  152.4033  134.6249  160.0060 H   0  0  0  0  0  0  0  0  0  0  0  0  # atno 6907 bound_to 6896
  151.6448  133.3318  159.3146 H   0  0  0  0  0  0  0  0  0  0  0  0  # atno 6908 bound_to 6896
  150.7931  134.7012  159.6596 H   0  0  0  0  0  0  0  0  0  0  0  0  # atno 6909 bound_to 6896
  146.2302  139.9025  142.8537 H   0  0  0  0  0  0  0  0  0  0  0  0  # atno 7974 bound_to 7965
  154.7080  140.0522  157.0523 H   0  0  0  0  0  0  0  0  0  0  0  0  # atno 8008 bound_to 7997
  155.0593  140.3187  155.4647 H   0  0  0  0  0  0  0  0  0  0  0  0  # atno 8009 bound_to 7997
  156.2781  140.2101  156.5720 H   0  0  0  0  0  0  0  0  0  0  0  0  # atno 8010 bound_to 7997
  139.8922  144.6378  150.8726 H   0  0  0  0  0  0  0  0  0  0  0  0  # atno 10167 bound_to 10162
  156.5655  130.4736  149.6387 H   0  0  0  0  0  0  0  0  0  0  0  0  # atno 10718 bound_to 10713
  154.8175  135.3308  154.7133 H   0  0  0  0  0  0  0  0  0  0  0  0  # atno 10763 bound_to 10752
  153.7772  135.6921  153.4899 H   0  0  0  0  0  0  0  0  0  0  0  0  # atno 10764 bound_to 10752
  153.2005  135.4518  155.0208 H   0  0  0  0  0  0  0  0  0  0  0  0  # atno 10765 bound_to 10752
  139.8886  134.8519  156.3069 H   0  0  0  0  0  0  0  0  0  0  0  0  # atno 11005 bound_to 11000
  145.2309  140.9972  143.3991 LP  0  0  0  0  0  0  0  0  0  0  0  0  # atno 17320 bound_to 7965
  144.9531  139.4061  143.6392 LP  0  0  0  0  0  0  0  0  0  0  0  0  # atno 17321 bound_to 7965
  140.7724  143.3501  151.2032 LP  0  0  0  0  0  0  0  0  0  0  0  0  # atno 17342 bound_to 10162
  139.7099  143.9394  152.2943 LP  0  0  0  0  0  0  0  0  0  0  0  0  # atno 17343 bound_to 10162
  156.2761  130.7044  151.1856 LP  0  0  0  0  0  0  0  0  0  0  0  0  # atno 17370 bound_to 10713
  157.7359  131.0567  150.5441 LP  0  0  0  0  0  0  0  0  0  0  0  0  # atno 17371 bound_to 10713
  140.9876  133.7228  156.0765 LP  0  0  0  0  0  0  0  0  0  0  0  0  # atno 17394 bound_to 11000
  140.7667  134.3878  157.5515 LP  0  0  0  0  0  0  0  0  0  0  0  0  # atno 17395 bound_to 11000

$$$$
