AV-unprocessed.smi:2855|AV-procd|sdf|10978|dock3
  -GOLD-   2272015433D 1   1.00000     0.00000
 Structure written by MMmdl.
 47 48  0  0  0  0  0  0  0  0  1 V2000
  151.7795  140.8844  157.0290 C   0  0  0  0  0  0  0  0  0  0  0  0
  152.3334  142.2748  157.3708 C   0  0  1  0  0  0  0  0  0  0  0  0
  151.1982  143.2923  157.6046 C   0  0  0  0  0  0  0  0  0  0  0  0
  151.7433  144.6715  158.0217 C   0  0  0  0  0  0  0  0  0  0  0  0
  152.6224  144.5914  159.2956 C   0  0  1  0  0  0  0  0  0  0  0  0
  151.8031  144.2552  160.5921 C   0  0  0  0  0  0  0  0  0  0  0  0
  150.6021  145.2022  160.7905 C   0  0  0  0  0  0  0  0  0  0  0  0
  152.6396  144.2719  161.8871 C   0  0  0  0  0  0  0  0  0  0  0  0
  153.7996  143.6310  158.9417 C   0  0  1  0  0  0  0  0  0  0  0  0
  154.8547  143.5622  159.9481 N   0  0  0  0  0  0  0  0  0  0  0  0
  156.0581  142.9921  159.7795 C   0  0  0  0  0  0  0  0  0  0  0  0
  156.4004  142.4384  158.7335 O   0  0  0  0  0  0  0  0  0  0  0  0
  157.0143  143.0875  160.9773 C   0  0  0  0  0  0  0  0  0  0  0  0
  157.6890  141.8183  161.2866 N   0  0  0  0  0  0  0  0  0  0  0  0
  157.4706  141.1925  162.5059 C   0  0  0  0  0  0  0  0  0  0  0  0
  158.0715  140.0344  162.8681 C   0  0  0  0  0  0  0  0  0  0  0  0
  159.0061  139.3729  161.9641 C   0  0  0  0  0  0  0  0  0  0  0  0
  159.5999  138.3234  162.2012 O   0  0  0  0  0  0  0  0  0  0  0  0
  159.2005  140.0338  160.7483 N   0  0  0  0  0  0  0  0  0  0  0  0
  158.5856  141.2282  160.3690 C   0  0  0  0  0  0  0  0  0  0  0  0
  158.8332  141.7297  159.2732 O   0  0  0  0  0  0  0  0  0  0  0  0
  153.2908  142.2227  158.5790 C   0  0  0  0  0  0  0  0  0  0  0  0
  159.8420  139.6146  160.0908 H   0  0  0  0  0  0  0  0  0  0  0  0
  151.1812  140.4840  157.8482 H   0  0  0  0  0  0  0  0  0  0  0  0
  152.5857  140.1783  156.8292 H   0  0  0  0  0  0  0  0  0  0  0  0
  151.1463  140.9220  156.1420 H   0  0  0  0  0  0  0  0  0  0  0  0
  152.9093  142.6169  156.5095 H   0  0  0  0  0  0  0  0  0  0  0  0
  150.6078  143.3978  156.6938 H   0  0  0  0  0  0  0  0  0  0  0  0
  150.5124  142.9189  158.3653 H   0  0  0  0  0  0  0  0  0  0  0  0
  152.3420  145.0706  157.2018 H   0  0  0  0  0  0  0  0  0  0  0  0
  150.9285  145.3845  158.1352 H   0  0  0  0  0  0  0  0  0  0  0  0
  153.0416  145.5878  159.4422 H   0  0  0  0  0  0  0  0  0  0  0  0
  151.3901  143.2514  160.5000 H   0  0  0  0  0  0  0  0  0  0  0  0
  150.9144  146.2470  160.7821 H   0  0  0  0  0  0  0  0  0  0  0  0
  150.1016  145.0156  161.7411 H   0  0  0  0  0  0  0  0  0  0  0  0
  149.8431  145.0671  160.0210 H   0  0  0  0  0  0  0  0  0  0  0  0
  153.2317  145.1839  161.9691 H   0  0  0  0  0  0  0  0  0  0  0  0
  153.3113  143.4178  161.9495 H   0  0  0  0  0  0  0  0  0  0  0  0
  152.0054  144.2126  162.7718 H   0  0  0  0  0  0  0  0  0  0  0  0
  154.2831  144.0208  158.0431 H   0  0  0  0  0  0  0  0  0  0  0  0
  154.6589  143.9950  160.8391 H   0  0  0  0  0  0  0  0  0  0  0  0
  157.7577  143.8569  160.7626 H   0  0  0  0  0  0  0  0  0  0  0  0
  156.4643  143.4555  161.8457 H   0  0  0  0  0  0  0  0  0  0  0  0
  156.7898  141.6504  163.2095 H   0  0  0  0  0  0  0  0  0  0  0  0
  157.8614  139.5961  163.8331 H   0  0  0  0  0  0  0  0  0  0  0  0
  152.7966  141.7651  159.4361 H   0  0  0  0  0  0  0  0  0  0  0  0
  154.1369  141.5780  158.3383 H   0  0  0  0  0  0  0  0  0  0  0  0
  1  2  1  0  0  0  0
  1 24  1  0  0  0  0
  1 25  1  0  0  0  0
  1 26  1  0  0  0  0
  2 22  1  0  0  0  0
  2  3  1  0  0  0  0
  2 27  1  0  0  0  0
  3  4  1  0  0  0  0
  3 28  1  0  0  0  0
  3 29  1  0  0  0  0
  4  5  1  0  0  0  0
  4 30  1  0  0  0  0
  4 31  1  0  0  0  0
  5  6  1  0  0  0  0
  5  9  1  0  0  0  0
  5 32  1  0  0  0  0
  6  7  1  0  0  0  0
  6  8  1  0  0  0  0
  6 33  1  0  0  0  0
  7 34  1  0  0  0  0
  7 35  1  0  0  0  0
  7 36  1  0  0  0  0
  8 37  1  0  0  0  0
  8 38  1  0  0  0  0
  8 39  1  0  0  0  0
  9 10  1  0  0  0  0
  9 22  1  0  0  0  0
  9 40  1  0  0  0  0
 10 11  1  0  0  0  0
 10 41  1  0  0  0  0
 11 12  2  0  0  0  0
 11 13  1  0  0  0  0
 13 14  1  0  0  0  0
 13 42  1  0  0  0  0
 13 43  1  0  0  0  0
 14 20  1  0  0  0  0
 14 15  1  0  0  0  0
 15 16  2  0  0  0  0
 15 44  1  0  0  0  0
 16 17  1  0  0  0  0
 16 45  1  0  0  0  0
 17 18  2  0  0  0  0
 17 19  1  0  0  0  0
 19 23  1  0  0  0  0
 19 20  1  0  0  0  0
 20 21  2  0  0  0  0
 22 46  1  0  0  0  0
 22 47  1  0  0  0  0
M  END
> <s_m_source_file>
AV-unprocessed.smi

> <i_m_source_file_index>
2855

> <i_lp_mmshare_version>
43012

> <i_f3d_flags>
0

> <s_epik_input>
W0NIM11bQ0BASF0xW0NIMl1bQ0gyXVtDQEBIXShbQ0hdKFtDSDNdKVtDSDNdKVtDQEhdKFtDSDJdMSlbTkhdQyg9TylbQ0gyXW4yW2NIXVtjSF1jKD1PKVtuSF1jMj1P

> <s_epik_cmdline>
J2VwaWtfcHl0aG9uJywgJy1waCcsICc3LjAnLCAnLXRuJywgJzgnLCAnLW1hJywgJzIwMCcsICctbWV0YWxfYmluZGluZycsICctaW1hZScsICc8aW5maWxlLm1hZT4nLCAnLW9tYWUnLCAnPG91dGZpbGUubWFlPic=

> <r_lp_tautomer_probability>
0.999537

> <r_epik_Ionization_Penalty>
0.00306256

> <r_epik_Ionization_Penalty_Charging>
0.00306254

> <r_epik_Ionization_Penalty_Neutral>
2.0223e-08

> <r_epik_State_Penalty>
0.0021533

> <r_epik_Charging_Adjusted_Penalty>
0.00521583

> <i_epik_Tot_Q>
0

> <i_epik_Tot_abs_Q>
0

> <r_epik_Metal_State_Penalty>
0.362116

> <b_epik_Metal_Only>
0

> <s_lp_Force_Field>
OPLS_2005

> <r_lp_Energy>
18.9466

> <b_lp_Chiralities_Consistent>
1

> <s_lp_Variant>
AV-unprocessed.smi:2855-2

> <Gold.Version>
5.8.1

> <Gold.Id.Protein>
6NUR|6NUR_protein|mol2

> <Gold.PLP.Fitness>
44.8753

> <Gold.PLP.PLP>
-42.3479

> <Gold.PLP.part.hbond>
-1.0000

> <Gold.PLP.part.metal>
0.0000

> <Gold.PLP.part.buried>
-3.8167

> <Gold.PLP.part.nonpolar>
-37.4888

> <Gold.PLP.part.repulsive>
0.0802

> <Gold.PLP.ligand.clash>
0.0000

> <Gold.PLP.ligand.torsion>
0.2755

> <Gold.PLP.Chemscore.Hbond>
1.0000

> <Gold.PLP.Chemscore.CHOScore>
0.0000

> <Gold.PLP.Chemscore.Metal>
0.0000

> <Gold.PLP.Chemscore.Internal.Correction>
0.0784

> <Gold.Rescore>
     Score         DG    S(hbond)    S(metal)    S(lipo)     H(rot)  DE(clash)    DE(int)     intcor
     17.29     -18.86       0.99        0.00     126.55       1.85       0.11       1.46       ----

> <Gold.Chemscore.Fitness>
17.2936

> <Gold.Chemscore.DG>
-18.8621

> <Gold.Chemscore.ZeroCoef>
-5.4800

> <Gold.Chemscore.Hbond>
0.9944

> <Gold.Chemscore.Metal>
0.0000

> <Gold.Chemscore.Lipo>
126.5541

> <Gold.Chemscore.Internal_Hbond>
0.0000

> <Gold.Chemscore.DEClash>
0.1111

> <Gold.Chemscore.DEInternal>
1.4575

> <Gold.Chemscore.Rot>
1.8539

> <Gold.Chemscore.Internal.Correction>
   9.000000E+99

> <Gold.Chemscore.Hbond.Weighted>
-3.3213

> <Gold.Chemscore.Metal.Weighted>
-0.0000

> <Gold.Chemscore.Lipo.Weighted>
-14.8068

> <Gold.Chemscore.Internal_Hbond.Weighted>
0.0000

> <Gold.Chemscore.DEClash.Weighted>
0.1111

> <Gold.Chemscore.DEInternal.Weighted>
1.4575

> <Gold.Chemscore.Rot.Weighted>
4.7460

> <Gold.Chemscore.Internal.Correction.Weighted>
   9.000000E+99

> <Gold.Protein.RotatedTorsions>
[ 6907 6896 6895 6894 ] final   77.51 input  -60.11 | X-H torsion
[ 7974 7965 7964 7962 ] final   69.04 input  175.53 | X-H torsion
[ 8008 7997 7996 7995 ] final   -7.67 input   59.86 | X-H torsion
[ 10167 10162 10161 10158 ] final  -98.90 input  -65.29 | X-H torsion
[ 10718 10713 10712 10709 ] final   70.13 input   66.30 | X-H torsion
[ 10763 10752 10751 10750 ] final  -37.07 input  -60.55 | X-H torsion
[ 11005 11000 10999 10996 ] final  110.42 input  -57.11 | X-H torsion

> <Gold.Protein.ActiveResidues>
 VAL166  LYS551  ARG553  GLY616  TRP617  ASP618  TYR619  PRO620  LYS621  CYS622 
 ASP623  PHE694  ASN695  SER759  ASP760  ASP761  ALA762  ILE779  LEU786  VAL792 
 PHE793  MET794  SER795  GLU796  ALA797  LYS798  CYS799  TRP800  GLU811  SER814 

> <Gold.Protein.RotatedAtoms>
  152.5121  134.3805  159.9349 H   0  0  0  0  0  0  0  0  0  0  0  0  # atno 6907 bound_to 6896
  151.3762  133.3831  159.2713 H   0  0  0  0  0  0  0  0  0  0  0  0  # atno 6908 bound_to 6896
  150.9539  134.8956  159.7748 H   0  0  0  0  0  0  0  0  0  0  0  0  # atno 6909 bound_to 6896
  145.7952  139.2954  143.1187 H   0  0  0  0  0  0  0  0  0  0  0  0  # atno 7974 bound_to 7965
  154.5816  140.2401  155.8046 H   0  0  0  0  0  0  0  0  0  0  0  0  # atno 8008 bound_to 7997
  156.2183  140.3005  155.9847 H   0  0  0  0  0  0  0  0  0  0  0  0  # atno 8009 bound_to 7997
  155.2532  140.0411  157.2979 H   0  0  0  0  0  0  0  0  0  0  0  0  # atno 8010 bound_to 7997
  140.2681  143.3362  152.0561 H   0  0  0  0  0  0  0  0  0  0  0  0  # atno 10167 bound_to 10162
  157.6383  130.9461  150.0608 H   0  0  0  0  0  0  0  0  0  0  0  0  # atno 10718 bound_to 10713
  153.8903  135.6813  153.4761 H   0  0  0  0  0  0  0  0  0  0  0  0  # atno 10763 bound_to 10752
  153.1185  135.4750  154.9153 H   0  0  0  0  0  0  0  0  0  0  0  0  # atno 10764 bound_to 10752
  154.7626  135.3215  154.8302 H   0  0  0  0  0  0  0  0  0  0  0  0  # atno 10765 bound_to 10752
  139.8881  134.9483  156.6276 H   0  0  0  0  0  0  0  0  0  0  0  0  # atno 11005 bound_to 11000
  145.9935  140.8582  143.0054 LP  0  0  0  0  0  0  0  0  0  0  0  0  # atno 17320 bound_to 7965
  144.6776  140.2250  143.7362 LP  0  0  0  0  0  0  0  0  0  0  0  0  # atno 17321 bound_to 7965
  139.4997  144.6674  151.6323 LP  0  0  0  0  0  0  0  0  0  0  0  0  # atno 17342 bound_to 10162
  140.5912  143.9777  150.6325 LP  0  0  0  0  0  0  0  0  0  0  0  0  # atno 17343 bound_to 10162
  156.1641  130.3644  149.9257 LP  0  0  0  0  0  0  0  0  0  0  0  0  # atno 17370 bound_to 10713
  156.7248  130.9020  151.3621 LP  0  0  0  0  0  0  0  0  0  0  0  0  # atno 17371 bound_to 10713
  140.7691  133.8753  155.8477 LP  0  0  0  0  0  0  0  0  0  0  0  0  # atno 17394 bound_to 11000
  140.9857  134.1346  157.4454 LP  0  0  0  0  0  0  0  0  0  0  0  0  # atno 17395 bound_to 11000

$$$$
