AV-unprocessed.smi:110|AV-procd|sdf|1070|dock7
  -GOLD-   2262018153D 1   1.00000     0.00000
 Structure written by MMmdl.
 46 50  0  0  0  0  0  0  0  0  1 V2000
  147.9355  136.0482  154.7229 O   0  0  0  0  0  0  0  0  0  0  0  0
  147.4135  137.3291  155.0052 C   0  0  0  0  0  0  0  0  0  0  0  0
  148.3523  138.4158  154.4526 C   0  0  2  0  0  0  0  0  0  0  0  0
  149.6054  138.3918  155.1189 O   0  0  0  0  0  0  0  0  0  0  0  0
  150.2570  139.5970  154.8809 C   0  0  2  0  0  0  0  0  0  0  0  0
  151.0929  139.9173  156.0767 N   0  0  0  0  0  0  0  0  0  0  0  0
  152.3171  139.3862  156.4119 C   0  0  0  0  0  0  0  0  0  0  0  0
  152.8408  139.8450  157.5159 N   0  0  0  0  0  0  0  0  0  0  0  0
  151.9029  140.7556  157.9903 C   0  0  0  0  0  0  0  0  0  0  0  0
  151.8295  141.6132  159.1272 C   0  0  0  0  0  0  0  0  0  0  0  0
  152.7883  141.6757  160.0873 N   0  0  0  0  0  0  0  0  0  0  0  0
  153.7710  140.5860  160.1955 C   0  0  0  0  0  0  0  0  0  0  0  0
  154.3622  140.6185  161.6159 C   0  0  0  0  0  0  0  0  0  0  0  0
  153.7148  141.8467  162.1638 C   0  0  0  0  0  0  0  0  0  0  0  0
  153.9307  142.4274  163.4256 C   0  0  0  0  0  0  0  0  0  0  0  0
  153.2238  143.6056  163.7454 C   0  0  0  0  0  0  0  0  0  0  0  0
  152.3316  144.1780  162.8098 C   0  0  0  0  0  0  0  0  0  0  0  0
  152.1314  143.5771  161.5475 C   0  0  0  0  0  0  0  0  0  0  0  0
  152.8292  142.3895  161.2370 C   0  0  0  0  0  0  0  0  0  0  0  0
  150.7172  142.3828  159.2524 N   0  0  0  0  0  0  0  0  0  0  0  0
  149.7490  142.3292  158.3346 C   0  0  0  0  0  0  0  0  0  0  0  0
  149.6891  141.5850  157.2303 N   0  0  0  0  0  0  0  0  0  0  0  0
  150.7988  140.8051  157.0913 C   0  0  0  0  0  0  0  0  0  0  0  0
  149.1817  140.6727  154.6415 C   0  0  1  0  0  0  0  0  0  0  0  0
  149.3485  141.2841  153.3776 O   0  0  0  0  0  0  0  0  0  0  0  0
  147.8827  139.8669  154.6448 C   0  0  2  0  0  0  0  0  0  0  0  0
  147.1967  140.0364  155.8713 O   0  0  0  0  0  0  0  0  0  0  0  0
  148.5262  138.2555  153.3864 H   0  0  0  0  0  0  0  0  0  0  0  0
  150.9637  139.4909  154.0564 H   0  0  0  0  0  0  0  0  0  0  0  0
  149.2005  141.4377  155.4200 H   0  0  0  0  0  0  0  0  0  0  0  0
  147.2000  140.1680  153.8486 H   0  0  0  0  0  0  0  0  0  0  0  0
  148.3439  136.0706  153.8711 H   0  0  0  0  0  0  0  0  0  0  0  0
  146.4373  137.3944  154.5240 H   0  0  0  0  0  0  0  0  0  0  0  0
  147.2581  137.4462  156.0784 H   0  0  0  0  0  0  0  0  0  0  0  0
  152.8168  138.6456  155.8047 H   0  0  0  0  0  0  0  0  0  0  0  0
  153.3100  139.6194  159.9883 H   0  0  0  0  0  0  0  0  0  0  0  0
  154.5614  140.7438  159.4613 H   0  0  0  0  0  0  0  0  0  0  0  0
  154.0731  139.7441  162.1995 H   0  0  0  0  0  0  0  0  0  0  0  0
  155.4486  140.7108  161.6114 H   0  0  0  0  0  0  0  0  0  0  0  0
  154.6208  141.9864  164.1298 H   0  0  0  0  0  0  0  0  0  0  0  0
  153.3697  144.0755  164.7068 H   0  0  0  0  0  0  0  0  0  0  0  0
  151.8022  145.0855  163.0600 H   0  0  0  0  0  0  0  0  0  0  0  0
  151.4593  144.0352  160.8376 H   0  0  0  0  0  0  0  0  0  0  0  0
  148.9003  142.9734  158.5108 H   0  0  0  0  0  0  0  0  0  0  0  0
  149.3336  140.6105  152.7152 H   0  0  0  0  0  0  0  0  0  0  0  0
  147.6726  140.6586  156.3994 H   0  0  0  0  0  0  0  0  0  0  0  0
  1  2  1  0  0  0  0
  1 32  1  0  0  0  0
  2  3  1  0  0  0  0
  2 33  1  0  0  0  0
  2 34  1  0  0  0  0
  3 28  1  0  0  0  0
  3 26  1  0  0  0  0
  3  4  1  0  0  0  0
  4  5  1  0  0  0  0
  5 29  1  0  0  0  0
  5  6  1  0  0  0  0
  5 24  1  0  0  0  0
  6 23  1  0  0  0  0
  6  7  1  0  0  0  0
  7  8  2  0  0  0  0
  7 35  1  0  0  0  0
  8  9  1  0  0  0  0
  9 23  2  0  0  0  0
  9 10  1  0  0  0  0
 10 11  1  0  0  0  0
 10 20  2  0  0  0  0
 11 19  1  0  0  0  0
 11 12  1  0  0  0  0
 12 13  1  0  0  0  0
 12 36  1  0  0  0  0
 12 37  1  0  0  0  0
 13 14  1  0  0  0  0
 13 38  1  0  0  0  0
 13 39  1  0  0  0  0
 14 19  2  0  0  0  0
 14 15  1  0  0  0  0
 15 16  2  0  0  0  0
 15 40  1  0  0  0  0
 16 17  1  0  0  0  0
 16 41  1  0  0  0  0
 17 18  2  0  0  0  0
 17 42  1  0  0  0  0
 18 19  1  0  0  0  0
 18 43  1  0  0  0  0
 20 21  1  0  0  0  0
 21 22  2  0  0  0  0
 21 44  1  0  0  0  0
 22 23  1  0  0  0  0
 24 30  1  0  0  0  0
 24 25  1  0  0  0  0
 24 26  1  0  0  0  0
 25 45  1  0  0  0  0
 26 31  1  0  0  0  0
 26 27  1  0  0  0  0
 27 46  1  0  0  0  0
M  END
> <s_m_source_file>
AV-unprocessed.smi

> <i_m_source_file_index>
110

> <i_lp_mmshare_version>
43012

> <i_f3d_flags>
0

> <s_epik_input>
W09IXVtDSDJdW0NASF0xT1tDQEhdKFtDQEhdKFtPSF0pW0NAQEhdMVtPSF0pbihbY0hdbjIpYyhjMjMpbltjSF1uYzNOKFtDSDJdW0NIMl00KWMoYzQ1KVtjSF1bY0hdW2NIXVtjSF01

> <s_epik_cmdline>
J2VwaWtfcHl0aG9uJywgJy1waCcsICc3LjAnLCAnLXRuJywgJzgnLCAnLW1hJywgJzIwMCcsICctbWV0YWxfYmluZGluZycsICctaW1hZScsICc8aW5maWxlLm1hZT4nLCAnLW9tYWUnLCAnPG91dGZpbGUubWFlPic=

> <r_lp_tautomer_probability>
1

> <r_epik_Ionization_Penalty>
0.00068475

> <r_epik_Ionization_Penalty_Charging>
0

> <r_epik_Ionization_Penalty_Neutral>
0.00068475

> <r_epik_State_Penalty>
0.000417442

> <r_epik_Charging_Adjusted_Penalty>
0.000417442

> <i_epik_Tot_Q>
0

> <i_epik_Tot_abs_Q>
0

> <r_epik_Metal_State_Penalty>
-0

> <b_epik_Metal_Only>
0

> <s_epik_Chemistry_Notes>
This compound contains an acetal/aminal-like group ( X-CH(R)-Y where X, Y are N, S, or O) that may be acid/base labile, releasing an aldehyde.

> <s_lp_Force_Field>
OPLS_2005

> <r_lp_Energy>
57.5739

> <b_lp_Chiralities_Consistent>
1

> <s_lp_Variant>
AV-unprocessed.smi:110-8

> <Gold.Version>
5.8.1

> <Gold.Id.Protein>
6NUR|6NUR_protein|mol2

> <Gold.PLP.Fitness>
63.1040

> <Gold.PLP.PLP>
-52.5942

> <Gold.PLP.part.hbond>
-4.7676

> <Gold.PLP.part.metal>
0.0000

> <Gold.PLP.part.buried>
-0.8535

> <Gold.PLP.part.nonpolar>
-46.5291

> <Gold.PLP.part.repulsive>
0.2605

> <Gold.PLP.ligand.clash>
0.0000

> <Gold.PLP.ligand.torsion>
0.5714

> <Gold.PLP.Chemscore.Hbond>
3.8500

> <Gold.PLP.Chemscore.CHOScore>
0.0000

> <Gold.PLP.Chemscore.Metal>
0.0000

> <Gold.Chemscore.Hbonds>
donor molecule, donor type, donor heavy atom, donor atom, acceptor molecule, acceptor atom, score
      L1  H     1    32       P1  7948  0.83
      L1  H    25    45       P1  7957  1.00
      P1  H  7989  7998       L1    25  0.01
      P1  H  7997  8010       L1     8  0.60
      P1  H  8011  8017       L1    25  0.65

> <Gold.PLP.Chemscore.Internal.Correction>
0.1025

> <Gold.Rescore>
     Score         DG    S(hbond)    S(metal)    S(lipo)     H(rot)  DE(clash)    DE(int)     intcor
     13.13     -18.99       2.88        0.00     107.36       3.38       1.60       4.26       ----

> <Gold.Chemscore.Fitness>
13.1306

> <Gold.Chemscore.DG>
-18.9944

> <Gold.Chemscore.ZeroCoef>
-5.4800

> <Gold.Chemscore.Hbond>
2.8788

> <Gold.Chemscore.Metal>
0.0000

> <Gold.Chemscore.Lipo>
107.3621

> <Gold.Chemscore.Internal_Hbond>
0.0000

> <Gold.Chemscore.DEClash>
1.6009

> <Gold.Chemscore.DEInternal>
4.2629

> <Gold.Chemscore.Rot>
3.3837

> <Gold.Chemscore.Internal.Correction>
   9.000000E+99

> <Gold.Chemscore.Hbonds>
donor molecule, donor type, donor heavy atom, donor atom, acceptor molecule, acceptor atom, score
      L1  H     1    32       P1  7948  0.82
      L1  H    25    45       P1  7957  0.96
      P1  H  7997  8010       L1     8  0.04
      P1  H  8011  8017       L1    25  0.05

> <Gold.Chemscore.Hbond.Weighted>
-9.6152

> <Gold.Chemscore.Metal.Weighted>
-0.0000

> <Gold.Chemscore.Lipo.Weighted>
-12.5614

> <Gold.Chemscore.Internal_Hbond.Weighted>
0.0000

> <Gold.Chemscore.DEClash.Weighted>
1.6009

> <Gold.Chemscore.DEInternal.Weighted>
4.2629

> <Gold.Chemscore.Rot.Weighted>
8.6622

> <Gold.Chemscore.Internal.Correction.Weighted>
   9.000000E+99

> <Gold.Protein.RotatedTorsions>
[ 6907 6896 6895 6894 ] final -132.18 input  -60.11 | X-H torsion
[ 7974 7965 7964 7962 ] final   23.57 input  175.53 | X-H torsion
[ 8008 7997 7996 7995 ] final   53.17 input   59.86 | X-H torsion
[ 10167 10162 10161 10158 ] final  172.08 input  -65.29 | X-H torsion
[ 10718 10713 10712 10709 ] final -140.99 input   66.30 | X-H torsion
[ 10763 10752 10751 10750 ] final -107.51 input  -60.55 | X-H torsion
[ 11005 11000 10999 10996 ] final  175.89 input  -57.11 | X-H torsion

> <Gold.Protein.ActiveResidues>
 VAL166  LYS551  ARG553  GLY616  TRP617  ASP618  TYR619  PRO620  LYS621  CYS622 
 ASP623  PHE694  ASN695  SER759  ASP760  ASP761  ALA762  ILE779  LEU786  VAL792 
 PHE793  MET794  SER795  GLU796  ALA797  LYS798  CYS799  TRP800  GLU811  SER814 

> <Gold.Protein.RotatedAtoms>
  150.9595  133.6461  159.2756 H   0  0  0  0  0  0  0  0  0  0  0  0  # atno 6907 bound_to 6896
  151.3789  135.0935  159.9499 H   0  0  0  0  0  0  0  0  0  0  0  0  # atno 6908 bound_to 6896
  152.5142  133.9133  159.7553 H   0  0  0  0  0  0  0  0  0  0  0  0  # atno 6909 bound_to 6896
  146.1978  139.7726  142.8784 H   0  0  0  0  0  0  0  0  0  0  0  0  # atno 7974 bound_to 7965
  155.4639  140.3463  155.4316 H   0  0  0  0  0  0  0  0  0  0  0  0  # atno 8008 bound_to 7997
  156.1143  140.1469  156.9324 H   0  0  0  0  0  0  0  0  0  0  0  0  # atno 8009 bound_to 7997
  154.4778  140.0879  156.7283 H   0  0  0  0  0  0  0  0  0  0  0  0  # atno 8010 bound_to 7997
  139.5065  144.3414  152.0014 H   0  0  0  0  0  0  0  0  0  0  0  0  # atno 10167 bound_to 10162
  156.3288  130.7575  151.1688 H   0  0  0  0  0  0  0  0  0  0  0  0  # atno 10718 bound_to 10713
  154.8079  135.4672  154.0440 H   0  0  0  0  0  0  0  0  0  0  0  0  # atno 10763 bound_to 10752
  153.1894  135.6853  153.8379 H   0  0  0  0  0  0  0  0  0  0  0  0  # atno 10764 bound_to 10752
  153.7902  135.3244  155.3355 H   0  0  0  0  0  0  0  0  0  0  0  0  # atno 10765 bound_to 10752
  140.3671  134.7062  157.4369 H   0  0  0  0  0  0  0  0  0  0  0  0  # atno 11005 bound_to 11000
  145.3586  141.0321  143.3298 LP  0  0  0  0  0  0  0  0  0  0  0  0  # atno 17320 bound_to 7965
  144.8617  139.5167  143.6809 LP  0  0  0  0  0  0  0  0  0  0  0  0  # atno 17321 bound_to 7965
  140.2852  144.3815  150.6106 LP  0  0  0  0  0  0  0  0  0  0  0  0  # atno 17342 bound_to 10162
  140.5988  143.2167  151.7112 LP  0  0  0  0  0  0  0  0  0  0  0  0  # atno 17343 bound_to 10162
  157.7426  131.0487  150.5009 LP  0  0  0  0  0  0  0  0  0  0  0  0  # atno 17370 bound_to 10713
  156.5172  130.4153  149.6270 LP  0  0  0  0  0  0  0  0  0  0  0  0  # atno 17371 bound_to 10713
  140.0580  134.6035  155.8782 LP  0  0  0  0  0  0  0  0  0  0  0  0  # atno 17394 bound_to 11000
  141.1966  133.6592  156.5700 LP  0  0  0  0  0  0  0  0  0  0  0  0  # atno 17395 bound_to 11000

$$$$
