AV-unprocessed.smi:3181|AV-procd|sdf|12139|dock7
  -GOLD-   2272017573D 1   1.00000     0.00000
 Structure written by MMmdl.
 42 43  0  0  0  0  0  0  0  0  2 V2000
  149.4308  132.1314  154.4982 C   0  0  0  0  0  0  0  0  0  0  0  0
  149.4782  133.6204  154.1127 C   0  0  2  0  0  0  0  0  0  0  0  0
  149.3322  134.5593  155.3267 C   0  0  0  0  0  0  0  0  0  0  0  0
  149.8351  135.8962  155.0697 N   0  0  0  0  0  0  0  0  0  0  0  0
  149.2120  137.0756  155.0889 C   0  0  0  0  0  0  0  0  0  0  0  0
  149.9992  138.1011  154.7968 N   0  0  0  0  0  0  0  0  0  0  0  0
  151.1770  137.4368  154.6001 C   0  0  0  0  0  0  0  0  0  0  0  0
  151.1330  136.1130  154.7526 N   0  0  0  0  0  0  0  0  0  0  0  0
  148.4125  133.9212  153.1299 N   0  3  0  0  0  0  0  0  0  0  0  0
  147.0181  133.7951  153.6174 C   0  0  2  0  0  0  0  0  0  0  0  0
  146.5714  132.3239  153.5961 C   0  0  0  0  0  0  0  0  0  0  0  0
  146.3653  131.8043  152.1646 C   0  0  0  0  0  0  0  0  0  0  0  0
  145.3719  132.6721  151.3658 C   0  0  2  0  0  0  0  0  0  0  0  0
  145.2026  132.0972  149.9482 C   0  0  0  0  0  0  0  0  0  0  0  0
  145.8190  134.1578  151.3665 C   0  0  1  0  0  0  0  0  0  0  0  0
  144.8317  135.0816  150.6312 C   0  0  0  0  0  0  0  0  0  0  0  0
  146.0301  134.6631  152.8109 C   0  0  0  0  0  0  0  0  0  0  0  0
  150.2517  131.8633  155.1636 H   0  0  0  0  0  0  0  0  0  0  0  0
  149.5102  131.4905  153.6200 H   0  0  0  0  0  0  0  0  0  0  0  0
  148.4977  131.8835  155.0051 H   0  0  0  0  0  0  0  0  0  0  0  0
  150.4512  133.8182  153.6601 H   0  0  0  0  0  0  0  0  0  0  0  0
  148.2822  134.6456  155.6100 H   0  0  0  0  0  0  0  0  0  0  0  0
  149.8548  134.1469  156.1918 H   0  0  0  0  0  0  0  0  0  0  0  0
  148.1620  137.1864  155.3179 H   0  0  0  0  0  0  0  0  0  0  0  0
  152.0936  137.9437  154.3359 H   0  0  0  0  0  0  0  0  0  0  0  0
  148.5509  134.8539  152.7678 H   0  0  0  0  0  0  0  0  0  0  0  0
  147.0093  134.1248  154.6575 H   0  0  0  0  0  0  0  0  0  0  0  0
  147.2963  131.6997  154.1208 H   0  0  0  0  0  0  0  0  0  0  0  0
  145.6344  132.2264  154.1460 H   0  0  0  0  0  0  0  0  0  0  0  0
  147.3241  131.7696  151.6452 H   0  0  0  0  0  0  0  0  0  0  0  0
  146.0067  130.7751  152.2067 H   0  0  0  0  0  0  0  0  0  0  0  0
  144.4027  132.6086  151.8634 H   0  0  0  0  0  0  0  0  0  0  0  0
  146.1204  132.1952  149.3677 H   0  0  0  0  0  0  0  0  0  0  0  0
  144.4036  132.5964  149.4008 H   0  0  0  0  0  0  0  0  0  0  0  0
  144.9459  131.0381  149.9843 H   0  0  0  0  0  0  0  0  0  0  0  0
  146.7738  134.2246  150.8433 H   0  0  0  0  0  0  0  0  0  0  0  0
  143.8286  135.0071  151.0524 H   0  0  0  0  0  0  0  0  0  0  0  0
  144.7688  134.8446  149.5694 H   0  0  0  0  0  0  0  0  0  0  0  0
  145.1440  136.1238  150.7024 H   0  0  0  0  0  0  0  0  0  0  0  0
  145.0689  134.6635  153.3272 H   0  0  0  0  0  0  0  0  0  0  0  0
  146.3557  135.7034  152.8035 H   0  0  0  0  0  0  0  0  0  0  0  0
  148.5209  133.2687  152.3665 H   0  0  0  0  0  0  0  0  0  0  0  0
  1  2  1  0  0  0  0
  1 18  1  0  0  0  0
  1 19  1  0  0  0  0
  1 20  1  0  0  0  0
  2  3  1  0  0  0  0
  2  9  1  0  0  0  0
  2 21  1  0  0  0  0
  3  4  1  0  0  0  0
  3 22  1  0  0  0  0
  3 23  1  0  0  0  0
  4  8  1  0  0  0  0
  4  5  1  0  0  0  0
  5  6  2  0  0  0  0
  5 24  1  0  0  0  0
  6  7  1  0  0  0  0
  7  8  2  0  0  0  0
  7 25  1  0  0  0  0
  9 10  1  0  0  0  0
  9 26  1  0  0  0  0
  9 42  1  0  0  0  0
 10 17  1  0  0  0  0
 10 11  1  0  0  0  0
 10 27  1  0  0  0  0
 11 12  1  0  0  0  0
 11 28  1  0  0  0  0
 11 29  1  0  0  0  0
 12 13  1  0  0  0  0
 12 30  1  0  0  0  0
 12 31  1  0  0  0  0
 13 14  1  0  0  0  0
 13 15  1  0  0  0  0
 13 32  1  0  0  0  0
 14 33  1  0  0  0  0
 14 34  1  0  0  0  0
 14 35  1  0  0  0  0
 15 16  1  0  0  0  0
 15 17  1  0  0  0  0
 15 36  1  0  0  0  0
 16 37  1  0  0  0  0
 16 38  1  0  0  0  0
 16 39  1  0  0  0  0
 17 40  1  0  0  0  0
 17 41  1  0  0  0  0
M  CHG  1   9   1
M  END
> <s_m_source_file>
AV-unprocessed.smi

> <i_m_source_file_index>
3181

> <i_lp_mmshare_version>
43012

> <i_f3d_flags>
0

> <s_epik_input>
bjFbY0hdbltjSF1uMVtDSDJdW0NAQEhdKFtDSDNdKVtOSF1bQ0BASF0yW0NIMl1bQ0gyXVtDQEBIXShbQ0gzXSlbQ0BASF0oW0NIM10pW0NIMl0y

> <s_epik_cmdline>
J2VwaWtfcHl0aG9uJywgJy1waCcsICc3LjAnLCAnLXRuJywgJzgnLCAnLW1hJywgJzIwMCcsICctbWV0YWxfYmluZGluZycsICctaW1hZScsICc8aW5maWxlLm1hZT4nLCAnLW9tYWUnLCAnPG91dGZpbGUubWFlPic=

> <r_lp_tautomer_probability>
1

> <r_epik_Ionization_Penalty>
0.000617007

> <r_epik_Ionization_Penalty_Charging>
0.000616215

> <r_epik_Ionization_Penalty_Neutral>
7.92544e-07

> <r_epik_State_Penalty>
0.000388807

> <r_epik_Charging_Adjusted_Penalty>
0.00100502

> <i_epik_Tot_Q>
1

> <i_epik_Tot_abs_Q>
1

> <r_epik_Metal_State_Penalty>
-0

> <b_epik_Metal_Only>
0

> <s_lp_Force_Field>
OPLS_2005

> <r_lp_Energy>
23.3583

> <b_lp_Chiralities_Consistent>
1

> <s_lp_Variant>
AV-unprocessed.smi:3181-5

> <Gold.Version>
5.8.1

> <Gold.Id.Protein>
6NUR|6NUR_protein|mol2

> <Gold.PLP.Fitness>
37.5128

> <Gold.PLP.PLP>
-29.3367

> <Gold.PLP.part.hbond>
-2.0000

> <Gold.PLP.part.metal>
0.0000

> <Gold.PLP.part.buried>
-3.4827

> <Gold.PLP.part.nonpolar>
-24.3383

> <Gold.PLP.part.repulsive>
0.3434

> <Gold.PLP.ligand.clash>
0.0000

> <Gold.PLP.ligand.torsion>
0.4223

> <Gold.PLP.Chemscore.Hbond>
3.0000

> <Gold.PLP.Chemscore.CHOScore>
0.0000

> <Gold.PLP.Chemscore.Metal>
0.0000

> <Gold.Chemscore.Hbonds>
donor molecule, donor type, donor heavy atom, donor atom, acceptor molecule, acceptor atom, score
      L1  H     9    26       P1  7948  2.00
      P1  H 10752 10764       L1     8  1.00

> <Gold.PLP.Chemscore.Internal.Correction>
0.0208

> <Gold.Rescore>
     Score         DG    S(hbond)    S(metal)    S(lipo)     H(rot)  DE(clash)    DE(int)     intcor
      9.83     -11.56       1.41        0.00      57.79       2.11       0.40       1.33       ----

> <Gold.Chemscore.Fitness>
9.8307

> <Gold.Chemscore.DG>
-11.5622

> <Gold.Chemscore.ZeroCoef>
-5.4800

> <Gold.Chemscore.Hbond>
1.4136

> <Gold.Chemscore.Metal>
0.0000

> <Gold.Chemscore.Lipo>
57.7887

> <Gold.Chemscore.Internal_Hbond>
0.0000

> <Gold.Chemscore.DEClash>
0.4000

> <Gold.Chemscore.DEInternal>
1.3316

> <Gold.Chemscore.Rot>
2.1095

> <Gold.Chemscore.Internal.Correction>
   9.000000E+99

> <Gold.Chemscore.Hbonds>
donor molecule, donor type, donor heavy atom, donor atom, acceptor molecule, acceptor atom, score
      L1  H     9    26       P1  7948  0.35
      P1  H 10752 10764       L1     8  0.30

> <Gold.Chemscore.Hbond.Weighted>
-4.7213

> <Gold.Chemscore.Metal.Weighted>
-0.0000

> <Gold.Chemscore.Lipo.Weighted>
-6.7613

> <Gold.Chemscore.Internal_Hbond.Weighted>
0.0000

> <Gold.Chemscore.DEClash.Weighted>
0.4000

> <Gold.Chemscore.DEInternal.Weighted>
1.3316

> <Gold.Chemscore.Rot.Weighted>
5.4003

> <Gold.Chemscore.Internal.Correction.Weighted>
   9.000000E+99

> <Gold.Protein.RotatedTorsions>
[ 6907 6896 6895 6894 ] final  174.21 input  -60.11 | X-H torsion
[ 7974 7965 7964 7962 ] final  -22.92 input  175.53 | X-H torsion
[ 8008 7997 7996 7995 ] final   91.19 input   59.86 | X-H torsion
[ 10167 10162 10161 10158 ] final  -29.21 input  -65.29 | X-H torsion
[ 10718 10713 10712 10709 ] final   87.43 input   66.30 | X-H torsion
[ 10763 10752 10751 10750 ] final  -76.42 input  -60.55 | X-H torsion
[ 11005 11000 10999 10996 ] final -146.20 input  -57.11 | X-H torsion

> <Gold.Protein.ActiveResidues>
 VAL166  LYS551  ARG553  GLY616  TRP617  ASP618  TYR619  PRO620  LYS621  CYS622 
 ASP623  PHE694  ASN695  SER759  ASP760  ASP761  ALA762  ILE779  LEU786  VAL792 
 PHE793  MET794  SER795  GLU796  ALA797  LYS798  CYS799  TRP800  GLU811  SER814 

> <Gold.Protein.RotatedAtoms>
  151.7560  133.3330  159.3404 H   0  0  0  0  0  0  0  0  0  0  0  0  # atno 6907 bound_to 6896
  150.7516  134.6149  159.6115 H   0  0  0  0  0  0  0  0  0  0  0  0  # atno 6908 bound_to 6896
  152.3437  134.7102  160.0308 H   0  0  0  0  0  0  0  0  0  0  0  0  # atno 6909 bound_to 6896
  146.1647  140.4545  142.8557 H   0  0  0  0  0  0  0  0  0  0  0  0  # atno 7974 bound_to 7965
  156.0209  140.3340  155.7038 H   0  0  0  0  0  0  0  0  0  0  0  0  # atno 8008 bound_to 7997
  155.6024  140.0657  157.2747 H   0  0  0  0  0  0  0  0  0  0  0  0  # atno 8009 bound_to 7997
  154.4316  140.1808  156.1174 H   0  0  0  0  0  0  0  0  0  0  0  0  # atno 8010 bound_to 7997
  140.7263  143.3947  151.1368 H   0  0  0  0  0  0  0  0  0  0  0  0  # atno 10167 bound_to 10162
  157.6940  131.0255  150.3122 H   0  0  0  0  0  0  0  0  0  0  0  0  # atno 10718 bound_to 10713
  154.4996  135.5798  153.6521 H   0  0  0  0  0  0  0  0  0  0  0  0  # atno 10763 bound_to 10752
  152.9876  135.6132  154.3019 H   0  0  0  0  0  0  0  0  0  0  0  0  # atno 10764 bound_to 10752
  154.2926  135.2848  155.2627 H   0  0  0  0  0  0  0  0  0  0  0  0  # atno 10765 bound_to 10752
  140.7844  134.3042  157.5035 H   0  0  0  0  0  0  0  0  0  0  0  0  # atno 11005 bound_to 11000
  144.8075  140.6327  143.6437 LP  0  0  0  0  0  0  0  0  0  0  0  0  # atno 17320 bound_to 7965
  145.4498  139.1525  143.3924 LP  0  0  0  0  0  0  0  0  0  0  0  0  # atno 17321 bound_to 7965
  139.7558  143.8710  152.3088 LP  0  0  0  0  0  0  0  0  0  0  0  0  # atno 17342 bound_to 10162
  139.8579  144.7132  150.9135 LP  0  0  0  0  0  0  0  0  0  0  0  0  # atno 17343 bound_to 10162
  156.3621  130.3849  149.7242 LP  0  0  0  0  0  0  0  0  0  0  0  0  # atno 17370 bound_to 10713
  156.4685  130.7985  151.3004 LP  0  0  0  0  0  0  0  0  0  0  0  0  # atno 17371 bound_to 10713
  139.8738  134.9337  156.3588 LP  0  0  0  0  0  0  0  0  0  0  0  0  # atno 17394 bound_to 11000
  140.9451  133.7488  156.0198 LP  0  0  0  0  0  0  0  0  0  0  0  0  # atno 17395 bound_to 11000

$$$$
