AV-unprocessed.smi:3328|AV-procd|sdf|12793|dock6
  -GOLD-   2272019143D 1   1.00000     0.00000
 Structure written by MMmdl.
 40 41  0  0  0  0  0  0  0  0  1 V2000
  155.0793  134.2881  164.1877 C   0  0  0  0  0  0  0  0  0  0  0  0
  154.8167  135.6721  163.6680 C   0  0  0  0  0  0  0  0  0  0  0  0
  154.7288  136.8841  164.4103 C   0  0  0  0  0  0  0  0  0  0  0  0
  154.4887  137.9384  163.6481 N   0  0  0  0  0  0  0  0  0  0  0  0
  154.4088  137.4383  162.3965 N   0  0  0  0  0  0  0  0  0  0  0  0
  154.1481  138.3247  161.2751 C   0  0  0  0  0  0  0  0  0  0  0  0
  155.3318  139.2684  160.9821 C   0  0  2  0  0  0  0  0  0  0  0  0
  155.8824  139.8802  162.2825 C   0  0  0  0  0  0  0  0  0  0  0  0
  154.8831  140.3265  160.0828 N   0  0  0  0  0  0  0  0  0  0  0  0
  153.7076  141.0206  160.5850 C   0  0  0  0  0  0  0  0  0  0  0  0
  152.8274  141.4509  159.4022 C   0  0  0  0  0  0  0  0  0  0  0  0
  152.4072  142.8428  159.5315 N   0  0  0  0  0  0  0  0  0  0  0  0
  152.3249  143.7046  158.3646 C   0  0  0  0  0  0  0  0  0  0  0  0
  152.0539  145.1085  158.9246 C   0  0  0  0  0  0  0  0  0  0  0  0
  151.6449  144.9021  160.3872 C   0  0  0  0  0  0  0  0  0  0  0  0
  152.0249  143.4563  160.6579 C   0  0  0  0  0  0  0  0  0  0  0  0
  151.9740  142.9515  161.7784 O   0  0  0  0  0  0  0  0  0  0  0  0
  154.6069  136.0741  162.3793 C   0  0  0  0  0  0  0  0  0  0  0  0
  155.0108  134.2434  165.2749 H   0  0  0  0  0  0  0  0  0  0  0  0
  156.0750  133.9391  163.9139 H   0  0  0  0  0  0  0  0  0  0  0  0
  154.3643  133.5669  163.7914 H   0  0  0  0  0  0  0  0  0  0  0  0
  154.8338  137.0277  165.4756 H   0  0  0  0  0  0  0  0  0  0  0  0
  153.8945  137.7319  160.3942 H   0  0  0  0  0  0  0  0  0  0  0  0
  153.2598  138.9083  161.5201 H   0  0  0  0  0  0  0  0  0  0  0  0
  156.1191  138.6896  160.4969 H   0  0  0  0  0  0  0  0  0  0  0  0
  156.1802  139.0987  162.9819 H   0  0  0  0  0  0  0  0  0  0  0  0
  155.1343  140.4987  162.7795 H   0  0  0  0  0  0  0  0  0  0  0  0
  156.7619  140.4982  162.1042 H   0  0  0  0  0  0  0  0  0  0  0  0
  154.7098  139.9521  159.1608 H   0  0  0  0  0  0  0  0  0  0  0  0
  153.1430  140.3718  161.2539 H   0  0  0  0  0  0  0  0  0  0  0  0
  154.0163  141.8958  161.1581 H   0  0  0  0  0  0  0  0  0  0  0  0
  153.3718  141.3244  158.4650 H   0  0  0  0  0  0  0  0  0  0  0  0
  151.9439  140.8137  159.3349 H   0  0  0  0  0  0  0  0  0  0  0  0
  153.2455  143.6720  157.7806 H   0  0  0  0  0  0  0  0  0  0  0  0
  151.5036  143.3716  157.7286 H   0  0  0  0  0  0  0  0  0  0  0  0
  152.9612  145.7123  158.8763 H   0  0  0  0  0  0  0  0  0  0  0  0
  151.2833  145.6285  158.3546 H   0  0  0  0  0  0  0  0  0  0  0  0
  152.1642  145.5841  161.0611 H   0  0  0  0  0  0  0  0  0  0  0  0
  150.5699  145.0258  160.5218 H   0  0  0  0  0  0  0  0  0  0  0  0
  154.5803  135.5079  161.4599 H   0  0  0  0  0  0  0  0  0  0  0  0
  1  2  1  0  0  0  0
  1 19  1  0  0  0  0
  1 20  1  0  0  0  0
  1 21  1  0  0  0  0
  2 18  2  0  0  0  0
  2  3  1  0  0  0  0
  3  4  2  0  0  0  0
  3 22  1  0  0  0  0
  4  5  1  0  0  0  0
  5  6  1  0  0  0  0
  5 18  1  0  0  0  0
  6  7  1  0  0  0  0
  6 23  1  0  0  0  0
  6 24  1  0  0  0  0
  7  8  1  0  0  0  0
  7  9  1  0  0  0  0
  7 25  1  0  0  0  0
  8 26  1  0  0  0  0
  8 27  1  0  0  0  0
  8 28  1  0  0  0  0
  9 10  1  0  0  0  0
  9 29  1  0  0  0  0
 10 11  1  0  0  0  0
 10 30  1  0  0  0  0
 10 31  1  0  0  0  0
 11 12  1  0  0  0  0
 11 32  1  0  0  0  0
 11 33  1  0  0  0  0
 12 16  1  0  0  0  0
 12 13  1  0  0  0  0
 13 14  1  0  0  0  0
 13 34  1  0  0  0  0
 13 35  1  0  0  0  0
 14 15  1  0  0  0  0
 14 36  1  0  0  0  0
 14 37  1  0  0  0  0
 15 16  1  0  0  0  0
 15 38  1  0  0  0  0
 15 39  1  0  0  0  0
 16 17  2  0  0  0  0
 18 40  1  0  0  0  0
M  END
> <s_m_source_file>
AV-unprocessed.smi

> <i_m_source_file_index>
3328

> <i_lp_mmshare_version>
43012

> <i_f3d_flags>
0

> <s_epik_input>
W0NIM11jMVtjSF1ubihbY0hdMSlbQ0gyXVtDQEhdKFtDSDNdKVtOSF1bQ0gyXVtDSDJdTjJbQ0gyXVtDSDJdW0NIMl1DMj1P

> <s_epik_cmdline>
J2VwaWtfcHl0aG9uJywgJy1waCcsICc3LjAnLCAnLXRuJywgJzgnLCAnLW1hJywgJzIwMCcsICctbWV0YWxfYmluZGluZycsICctaW1hZScsICc8aW5maWxlLm1hZT4nLCAnLW9tYWUnLCAnPG91dGZpbGUubWFlPic=

> <r_lp_tautomer_probability>
1

> <r_epik_Ionization_Penalty>
2.53591

> <r_epik_Ionization_Penalty_Charging>
0

> <r_epik_Ionization_Penalty_Neutral>
2.53591

> <r_epik_State_Penalty>
2.70334

> <r_epik_Charging_Adjusted_Penalty>
2.70334

> <i_epik_Tot_Q>
0

> <i_epik_Tot_abs_Q>
0

> <r_epik_Metal_State_Penalty>
2.70327

> <b_epik_Metal_Only>
0

> <s_lp_Force_Field>
OPLS_2005

> <r_lp_Energy>
20.4488

> <b_lp_Chiralities_Consistent>
1

> <s_lp_Variant>
AV-unprocessed.smi:3328-3

> <Gold.Version>
5.8.1

> <Gold.Id.Protein>
6NUR|6NUR_protein|mol2

> <Gold.PLP.Fitness>
44.2940

> <Gold.PLP.PLP>
-44.3848

> <Gold.PLP.part.hbond>
-1.0000

> <Gold.PLP.part.metal>
0.0000

> <Gold.PLP.part.buried>
-3.6900

> <Gold.PLP.part.nonpolar>
-41.1449

> <Gold.PLP.part.repulsive>
0.1577

> <Gold.PLP.ligand.clash>
0.0000

> <Gold.PLP.ligand.torsion>
1.0596

> <Gold.PLP.Chemscore.Hbond>
0.6552

> <Gold.PLP.Chemscore.CHOScore>
0.0000

> <Gold.PLP.Chemscore.Metal>
0.0000

> <Gold.Chemscore.Hbonds>
donor molecule, donor type, donor heavy atom, donor atom, acceptor molecule, acceptor atom, score
      P1  H  6933  6945       L1    17  0.23

> <Gold.PLP.Chemscore.Internal.Correction>
0.0627

> <Gold.Rescore>
     Score         DG    S(hbond)    S(metal)    S(lipo)     H(rot)  DE(clash)    DE(int)     intcor
     11.78     -15.57       0.75        0.00     106.22       1.89       0.13       3.67       ----

> <Gold.Chemscore.Fitness>
11.7813

> <Gold.Chemscore.DG>
-15.5740

> <Gold.Chemscore.ZeroCoef>
-5.4800

> <Gold.Chemscore.Hbond>
0.7514

> <Gold.Chemscore.Metal>
0.0000

> <Gold.Chemscore.Lipo>
106.2213

> <Gold.Chemscore.Internal_Hbond>
0.0000

> <Gold.Chemscore.DEClash>
0.1276

> <Gold.Chemscore.DEInternal>
3.6651

> <Gold.Chemscore.Rot>
1.8920

> <Gold.Chemscore.Internal.Correction>
   9.000000E+99

> <Gold.Chemscore.Hbonds>
donor molecule, donor type, donor heavy atom, donor atom, acceptor molecule, acceptor atom, score
      P1  H  6933  6945       L1    17  0.21

> <Gold.Chemscore.Hbond.Weighted>
-2.5095

> <Gold.Chemscore.Metal.Weighted>
-0.0000

> <Gold.Chemscore.Lipo.Weighted>
-12.4279

> <Gold.Chemscore.Internal_Hbond.Weighted>
0.0000

> <Gold.Chemscore.DEClash.Weighted>
0.1276

> <Gold.Chemscore.DEInternal.Weighted>
3.6651

> <Gold.Chemscore.Rot.Weighted>
4.8435

> <Gold.Chemscore.Internal.Correction.Weighted>
   9.000000E+99

> <Gold.Protein.RotatedTorsions>
[ 6907 6896 6895 6894 ] final   57.74 input  -60.11 | X-H torsion
[ 7974 7965 7964 7962 ] final  156.77 input  175.53 | X-H torsion
[ 8008 7997 7996 7995 ] final  119.48 input   59.86 | X-H torsion
[ 10167 10162 10161 10158 ] final -119.34 input  -65.29 | X-H torsion
[ 10718 10713 10712 10709 ] final  -66.12 input   66.30 | X-H torsion
[ 10763 10752 10751 10750 ] final   -5.10 input  -60.55 | X-H torsion
[ 11005 11000 10999 10996 ] final   65.01 input  -57.11 | X-H torsion

> <Gold.Protein.ActiveResidues>
 VAL166  LYS551  ARG553  GLY616  TRP617  ASP618  TYR619  PRO620  LYS621  CYS622 
 ASP623  PHE694  ASN695  SER759  ASP760  ASP761  ALA762  ILE779  LEU786  VAL792 
 PHE793  MET794  SER795  GLU796  ALA797  LYS798  CYS799  TRP800  GLU811  SER814 

> <Gold.Protein.RotatedAtoms>
  152.3760  134.6663  160.0159 H   0  0  0  0  0  0  0  0  0  0  0  0  # atno 6907 bound_to 6896
  151.6941  133.3305  159.3258 H   0  0  0  0  0  0  0  0  0  0  0  0  # atno 6908 bound_to 6896
  150.7710  134.6608  159.6383 H   0  0  0  0  0  0  0  0  0  0  0  0  # atno 6909 bound_to 6896
  144.7943  139.7249  143.6208 H   0  0  0  0  0  0  0  0  0  0  0  0  # atno 7974 bound_to 7965
  156.2598  140.2852  156.0998 H   0  0  0  0  0  0  0  0  0  0  0  0  # atno 8008 bound_to 7997
  155.1372  140.0395  157.2807 H   0  0  0  0  0  0  0  0  0  0  0  0  # atno 8009 bound_to 7997
  154.6556  140.2555  155.7171 H   0  0  0  0  0  0  0  0  0  0  0  0  # atno 8010 bound_to 7997
  140.0477  143.5091  152.2098 H   0  0  0  0  0  0  0  0  0  0  0  0  # atno 10167 bound_to 10162
  156.0630  130.4257  150.1663 H   0  0  0  0  0  0  0  0  0  0  0  0  # atno 10718 bound_to 10713
  153.3939  135.7003  153.6475 H   0  0  0  0  0  0  0  0  0  0  0  0  # atno 10763 bound_to 10752
  153.5036  135.3647  155.2552 H   0  0  0  0  0  0  0  0  0  0  0  0  # atno 10764 bound_to 10752
  154.8705  135.4118  154.3261 H   0  0  0  0  0  0  0  0  0  0  0  0  # atno 10765 bound_to 10752
  139.9922  134.6573  156.0071 H   0  0  0  0  0  0  0  0  0  0  0  0  # atno 11005 bound_to 11000
  146.2206  139.5628  142.9621 LP  0  0  0  0  0  0  0  0  0  0  0  0  # atno 17320 bound_to 7965
  145.5714  141.0393  143.2172 LP  0  0  0  0  0  0  0  0  0  0  0  0  # atno 17321 bound_to 7965
  139.5973  144.7571  151.3256 LP  0  0  0  0  0  0  0  0  0  0  0  0  # atno 17342 bound_to 10162
  140.7231  143.7080  150.7792 LP  0  0  0  0  0  0  0  0  0  0  0  0  # atno 17343 bound_to 10162
  156.9728  130.9840  151.3455 LP  0  0  0  0  0  0  0  0  0  0  0  0  # atno 17370 bound_to 10713
  157.5653  130.8273  149.8319 LP  0  0  0  0  0  0  0  0  0  0  0  0  # atno 17371 bound_to 10713
  141.1575  133.6541  156.4210 LP  0  0  0  0  0  0  0  0  0  0  0  0  # atno 17394 bound_to 11000
  140.4886  134.6596  157.5201 LP  0  0  0  0  0  0  0  0  0  0  0  0  # atno 17395 bound_to 11000

$$$$
