AV-unprocessed.smi:2204|AV-procd|sdf|8938|dock3
  -GOLD-   2272012153D 1   1.00000     0.00000
 Structure written by MMmdl.
 39 40  0  0  0  0  0  0  0  0  1 V2000
  151.5569  144.6440  158.3606 C   0  0  0  0  0  0  0  0  0  0  0  0
  152.0843  143.7583  159.4504 C   0  0  0  0  0  0  0  0  0  0  0  0
  152.2220  144.0515  160.8357 C   0  0  0  0  0  0  0  0  0  0  0  0
  152.7472  142.9098  161.3721 C   0  0  0  0  0  0  0  0  0  0  0  0
  153.1178  142.5936  162.7840 C   0  0  0  0  0  0  0  0  0  0  0  0
  152.9016  142.0109  160.3307 N   0  0  0  0  0  0  0  0  0  0  0  0
  153.4266  140.6522  160.3554 C   0  0  0  0  0  0  0  0  0  0  0  0
  153.3509  139.9726  158.9840 C   0  0  0  0  0  0  0  0  0  0  0  0
  154.3089  139.3175  158.5744 O   0  0  0  0  0  0  0  0  0  0  0  0
  152.2218  140.1520  158.2781 N   0  0  0  0  0  0  0  0  0  0  0  0
  151.9449  139.6112  156.9506 C   0  0  1  0  0  0  0  0  0  0  0  0
  151.2739  138.2389  157.1168 C   0  0  0  0  0  0  0  0  0  0  0  0
  151.0715  140.6033  156.1539 C   0  0  2  0  0  0  0  0  0  0  0  0
  149.7215  140.9227  156.8018 C   0  0  0  0  0  0  0  0  0  0  0  0
  148.8775  141.2916  155.6039 C   0  0  0  0  0  0  0  0  0  0  0  0
  149.3678  140.2846  154.5711 C   0  0  0  0  0  0  0  0  0  0  0  0
  150.7436  140.0698  154.8702 O   0  0  0  0  0  0  0  0  0  0  0  0
  152.4926  142.5355  159.1548 N   0  0  0  0  0  0  0  0  0  0  0  0
  151.1220  145.5561  158.7696 H   0  0  0  0  0  0  0  0  0  0  0  0
  150.7833  144.1392  157.7815 H   0  0  0  0  0  0  0  0  0  0  0  0
  152.3522  144.9350  157.6741 H   0  0  0  0  0  0  0  0  0  0  0  0
  151.9723  144.9636  161.3574 H   0  0  0  0  0  0  0  0  0  0  0  0
  152.9558  143.4554  163.4315 H   0  0  0  0  0  0  0  0  0  0  0  0
  154.1681  142.3124  162.8589 H   0  0  0  0  0  0  0  0  0  0  0  0
  152.5166  141.7694  163.1682 H   0  0  0  0  0  0  0  0  0  0  0  0
  154.4626  140.6683  160.6940 H   0  0  0  0  0  0  0  0  0  0  0  0
  152.8653  140.0710  161.0889 H   0  0  0  0  0  0  0  0  0  0  0  0
  151.4921  140.7086  158.6987 H   0  0  0  0  0  0  0  0  0  0  0  0
  152.8814  139.4579  156.4114 H   0  0  0  0  0  0  0  0  0  0  0  0
  151.0961  137.7621  156.1529 H   0  0  0  0  0  0  0  0  0  0  0  0
  150.3147  138.3244  157.6285 H   0  0  0  0  0  0  0  0  0  0  0  0
  151.9028  137.5650  157.6998 H   0  0  0  0  0  0  0  0  0  0  0  0
  151.6151  141.5353  155.9894 H   0  0  0  0  0  0  0  0  0  0  0  0
  149.3075  140.0373  157.2868 H   0  0  0  0  0  0  0  0  0  0  0  0
  149.7825  141.7212  157.5420 H   0  0  0  0  0  0  0  0  0  0  0  0
  147.8060  141.2223  155.7932 H   0  0  0  0  0  0  0  0  0  0  0  0
  149.1059  142.3079  155.2804 H   0  0  0  0  0  0  0  0  0  0  0  0
  148.8381  139.3377  154.6826 H   0  0  0  0  0  0  0  0  0  0  0  0
  149.2291  140.6324  153.5473 H   0  0  0  0  0  0  0  0  0  0  0  0
  1  2  1  0  0  0  0
  1 19  1  0  0  0  0
  1 20  1  0  0  0  0
  1 21  1  0  0  0  0
  2 18  2  0  0  0  0
  2  3  1  0  0  0  0
  3  4  2  0  0  0  0
  3 22  1  0  0  0  0
  4  5  1  0  0  0  0
  4  6  1  0  0  0  0
  5 23  1  0  0  0  0
  5 24  1  0  0  0  0
  5 25  1  0  0  0  0
  6  7  1  0  0  0  0
  6 18  1  0  0  0  0
  7  8  1  0  0  0  0
  7 26  1  0  0  0  0
  7 27  1  0  0  0  0
  8  9  2  0  0  0  0
  8 10  1  0  0  0  0
 10 11  1  0  0  0  0
 10 28  1  0  0  0  0
 11 12  1  0  0  0  0
 11 13  1  0  0  0  0
 11 29  1  0  0  0  0
 12 30  1  0  0  0  0
 12 31  1  0  0  0  0
 12 32  1  0  0  0  0
 13 17  1  0  0  0  0
 13 14  1  0  0  0  0
 13 33  1  0  0  0  0
 14 15  1  0  0  0  0
 14 34  1  0  0  0  0
 14 35  1  0  0  0  0
 15 16  1  0  0  0  0
 15 36  1  0  0  0  0
 15 37  1  0  0  0  0
 16 17  1  0  0  0  0
 16 38  1  0  0  0  0
 16 39  1  0  0  0  0
M  END
> <s_m_source_file>
AV-unprocessed.smi

> <i_m_source_file_index>
2204

> <i_lp_mmshare_version>
43012

> <i_f3d_flags>
0

> <s_epik_input>
W0NIM11jMVtjSF1jKFtDSDNdKW4objEpW0NIMl1DKD1PKVtOSF1bQ0BIXShbQ0gzXSlbQ0BASF0yW0NIMl1bQ0gyXVtDSDJdTzI=

> <s_epik_cmdline>
J2VwaWtfcHl0aG9uJywgJy1waCcsICc3LjAnLCAnLXRuJywgJzgnLCAnLW1hJywgJzIwMCcsICctbWV0YWxfYmluZGluZycsICctaW1hZScsICc8aW5maWxlLm1hZT4nLCAnLW9tYWUnLCAnPG91dGZpbGUubWFlPic=

> <r_lp_tautomer_probability>
1

> <r_epik_Ionization_Penalty>
0.000433354

> <r_epik_Ionization_Penalty_Charging>
0

> <r_epik_Ionization_Penalty_Neutral>
0.000433354

> <r_epik_State_Penalty>
-0

> <r_epik_Charging_Adjusted_Penalty>
0

> <i_epik_Tot_Q>
0

> <i_epik_Tot_abs_Q>
0

> <r_epik_Metal_State_Penalty>
-0

> <b_epik_Metal_Only>
0

> <s_lp_Force_Field>
OPLS_2005

> <r_lp_Energy>
17.6032

> <b_lp_Chiralities_Consistent>
1

> <s_lp_Variant>
AV-unprocessed.smi:2204-2

> <Gold.Version>
5.8.1

> <Gold.Id.Protein>
6NUR|6NUR_protein|mol2

> <Gold.PLP.Fitness>
48.1348

> <Gold.PLP.PLP>
-43.3318

> <Gold.PLP.part.hbond>
-2.0000

> <Gold.PLP.part.metal>
0.0000

> <Gold.PLP.part.buried>
-5.1888

> <Gold.PLP.part.nonpolar>
-36.3980

> <Gold.PLP.part.repulsive>
0.1608

> <Gold.PLP.ligand.clash>
0.0000

> <Gold.PLP.ligand.torsion>
0.6107

> <Gold.PLP.Chemscore.Hbond>
2.0000

> <Gold.PLP.Chemscore.CHOScore>
0.0000

> <Gold.PLP.Chemscore.Metal>
0.0000

> <Gold.Chemscore.Hbonds>
donor molecule, donor type, donor heavy atom, donor atom, acceptor molecule, acceptor atom, score
      P1  H  7989  7998       L1    17  1.00
      P1  H  7997  8008       L1     9  1.00

> <Gold.PLP.Chemscore.Internal.Correction>
0.0244

> <Gold.Rescore>
     Score         DG    S(hbond)    S(metal)    S(lipo)     H(rot)  DE(clash)    DE(int)     intcor
     17.15     -19.26       1.70        0.00     102.17       1.50       0.01       2.10       ----

> <Gold.Chemscore.Fitness>
17.1530

> <Gold.Chemscore.DG>
-19.2595

> <Gold.Chemscore.ZeroCoef>
-5.4800

> <Gold.Chemscore.Hbond>
1.6968

> <Gold.Chemscore.Metal>
0.0000

> <Gold.Chemscore.Lipo>
102.1661

> <Gold.Chemscore.Internal_Hbond>
0.0000

> <Gold.Chemscore.DEClash>
0.0060

> <Gold.Chemscore.DEInternal>
2.1006

> <Gold.Chemscore.Rot>
1.5005

> <Gold.Chemscore.Internal.Correction>
   9.000000E+99

> <Gold.Chemscore.Hbonds>
donor molecule, donor type, donor heavy atom, donor atom, acceptor molecule, acceptor atom, score
      P1  H  7989  7998       L1    17  0.39
      P1  H  7997  8008       L1     9  0.60

> <Gold.Chemscore.Hbond.Weighted>
-5.6673

> <Gold.Chemscore.Metal.Weighted>
-0.0000

> <Gold.Chemscore.Lipo.Weighted>
-11.9534

> <Gold.Chemscore.Internal_Hbond.Weighted>
0.0000

> <Gold.Chemscore.DEClash.Weighted>
0.0060

> <Gold.Chemscore.DEInternal.Weighted>
2.1006

> <Gold.Chemscore.Rot.Weighted>
3.8412

> <Gold.Chemscore.Internal.Correction.Weighted>
   9.000000E+99

> <Gold.Protein.RotatedTorsions>
[ 6907 6896 6895 6894 ] final   30.46 input  -60.11 | X-H torsion
[ 7974 7965 7964 7962 ] final  -34.47 input  175.53 | X-H torsion
[ 8008 7997 7996 7995 ] final -100.72 input   59.86 | X-H torsion
[ 10167 10162 10161 10158 ] final  131.84 input  -65.29 | X-H torsion
[ 10718 10713 10712 10709 ] final -121.38 input   66.30 | X-H torsion
[ 10763 10752 10751 10750 ] final   93.84 input  -60.55 | X-H torsion
[ 11005 11000 10999 10996 ] final  -81.92 input  -57.11 | X-H torsion

> <Gold.Protein.ActiveResidues>
 VAL166  LYS551  ARG553  GLY616  TRP617  ASP618  TYR619  PRO620  LYS621  CYS622 
 ASP623  PHE694  ASN695  SER759  ASP760  ASP761  ALA762  ILE779  LEU786  VAL792 
 PHE793  MET794  SER795  GLU796  ALA797  LYS798  CYS799  TRP800  GLU811  SER814 

> <Gold.Protein.RotatedAtoms>
  152.0463  134.9681  160.0574 H   0  0  0  0  0  0  0  0  0  0  0  0  # atno 6907 bound_to 6896
  152.1100  133.4290  159.4634 H   0  0  0  0  0  0  0  0  0  0  0  0  # atno 6908 bound_to 6896
  150.6843  134.2579  159.4580 H   0  0  0  0  0  0  0  0  0  0  0  0  # atno 6909 bound_to 6896
  146.0826  140.6043  142.8901 H   0  0  0  0  0  0  0  0  0  0  0  0  # atno 7974 bound_to 7965
  154.8326  140.0439  157.1487 H   0  0  0  0  0  0  0  0  0  0  0  0  # atno 8008 bound_to 7997
  154.9136  140.3017  155.5233 H   0  0  0  0  0  0  0  0  0  0  0  0  # atno 8009 bound_to 7997
  156.2988  140.2353  156.4178 H   0  0  0  0  0  0  0  0  0  0  0  0  # atno 8010 bound_to 7997
  139.5366  144.6688  151.4765 H   0  0  0  0  0  0  0  0  0  0  0  0  # atno 10167 bound_to 10162
  156.1333  130.6411  150.9656 H   0  0  0  0  0  0  0  0  0  0  0  0  # atno 10718 bound_to 10713
  153.2348  135.4311  155.0635 H   0  0  0  0  0  0  0  0  0  0  0  0  # atno 10763 bound_to 10752
  154.8314  135.3388  154.6734 H   0  0  0  0  0  0  0  0  0  0  0  0  # atno 10764 bound_to 10752
  153.7160  135.7020  153.5081 H   0  0  0  0  0  0  0  0  0  0  0  0  # atno 10765 bound_to 10752
  141.1665  133.7219  156.8494 H   0  0  0  0  0  0  0  0  0  0  0  0  # atno 11005 bound_to 11000
  144.7304  140.4653  143.6942 LP  0  0  0  0  0  0  0  0  0  0  0  0  # atno 17320 bound_to 7965
  145.6189  139.1522  143.3034 LP  0  0  0  0  0  0  0  0  0  0  0  0  # atno 17321 bound_to 7965
  140.6575  143.8568  150.6851 LP  0  0  0  0  0  0  0  0  0  0  0  0  # atno 17342 bound_to 10162
  140.1952  143.4004  152.1833 LP  0  0  0  0  0  0  0  0  0  0  0  0  # atno 17343 bound_to 10162
  157.6508  131.0897  150.8054 LP  0  0  0  0  0  0  0  0  0  0  0  0  # atno 17370 bound_to 10713
  156.8136  130.4960  149.5352 LP  0  0  0  0  0  0  0  0  0  0  0  0  # atno 17371 bound_to 10713
  140.1926  134.8954  157.3078 LP  0  0  0  0  0  0  0  0  0  0  0  0  # atno 17394 bound_to 11000
  140.2273  134.3951  155.7537 LP  0  0  0  0  0  0  0  0  0  0  0  0  # atno 17395 bound_to 11000

$$$$
