AV-unprocessed.smi:1475|AV-procd|sdf|5978|dock6
  -GOLD-   22720 6 73D 1   1.00000     0.00000
 Structure written by MMmdl.
 50 51  0  0  0  0  0  0  0  0  2 V2000
  154.3437  140.8234  160.5654 C   0  0  0  0  0  0  0  0  0  0  0  0
  153.4254  141.6801  159.7448 C   0  0  0  0  0  0  0  0  0  0  0  0
  153.2164  143.0847  159.8347 C   0  0  0  0  0  0  0  0  0  0  0  0
  152.2863  143.3503  158.8697 C   0  0  0  0  0  0  0  0  0  0  0  0
  151.6552  144.6443  158.4724 C   0  0  0  0  0  0  0  0  0  0  0  0
  151.9856  142.1452  158.2596 N   0  0  0  0  0  0  0  0  0  0  0  0
  151.0669  141.8738  157.1655 C   0  0  0  0  0  0  0  0  0  0  0  0
  151.1730  140.4181  156.7091 C   0  0  0  0  0  0  0  0  0  0  0  0
  150.6692  139.5207  157.3844 O   0  0  0  0  0  0  0  0  0  0  0  0
  151.8283  140.1971  155.5588 N   0  0  0  0  0  0  0  0  0  0  0  0
  152.0101  138.8920  154.9352 C   0  0  0  0  0  0  0  0  0  0  0  0
  150.8365  138.5363  154.0001 C   0  0  0  0  0  0  0  0  0  0  0  0
  150.1587  137.2740  154.3891 N   0  3  1  0  0  0  0  0  0  0  0  0
  151.1287  136.1880  154.6858 C   0  0  0  0  0  0  0  0  0  0  0  0
  150.4163  134.8420  154.9224 C   0  0  1  0  0  0  0  0  0  0  0  0
  151.4203  133.7241  155.2387 C   0  0  0  0  0  0  0  0  0  0  0  0
  149.3669  134.9815  156.0397 C   0  0  0  0  0  0  0  0  0  0  0  0
  148.3980  136.1472  155.7697 C   0  0  2  0  0  0  0  0  0  0  0  0
  147.3806  135.8361  154.6576 C   0  0  0  0  0  0  0  0  0  0  0  0
  149.1810  137.4467  155.4972 C   0  0  0  0  0  0  0  0  0  0  0  0
  152.6868  141.1234  158.7986 N   0  0  0  0  0  0  0  0  0  0  0  0
  154.8613  141.4133  161.3220 H   0  0  0  0  0  0  0  0  0  0  0  0
  155.1000  140.3480  159.9406 H   0  0  0  0  0  0  0  0  0  0  0  0
  153.7916  140.0365  161.0796 H   0  0  0  0  0  0  0  0  0  0  0  0
  153.6796  143.7913  160.5074 H   0  0  0  0  0  0  0  0  0  0  0  0
  152.0628  145.4709  159.0544 H   0  0  0  0  0  0  0  0  0  0  0  0
  150.5781  144.6181  158.6378 H   0  0  0  0  0  0  0  0  0  0  0  0
  151.8334  144.8586  157.4187 H   0  0  0  0  0  0  0  0  0  0  0  0
  150.0474  142.0993  157.4838 H   0  0  0  0  0  0  0  0  0  0  0  0
  151.2911  142.5415  156.3333 H   0  0  0  0  0  0  0  0  0  0  0  0
  152.2006  140.9971  155.0669 H   0  0  0  0  0  0  0  0  0  0  0  0
  152.9630  138.8891  154.4058 H   0  0  0  0  0  0  0  0  0  0  0  0
  152.0925  138.1479  155.7277 H   0  0  0  0  0  0  0  0  0  0  0  0
  150.1175  139.3560  154.0386 H   0  0  0  0  0  0  0  0  0  0  0  0
  151.1649  138.4642  152.9622 H   0  0  0  0  0  0  0  0  0  0  0  0
  151.8226  136.0810  153.8508 H   0  0  0  0  0  0  0  0  0  0  0  0
  151.7243  136.4630  155.5583 H   0  0  0  0  0  0  0  0  0  0  0  0
  149.9040  134.5636  154.0007 H   0  0  0  0  0  0  0  0  0  0  0  0
  151.9774  133.9373  156.1516 H   0  0  0  0  0  0  0  0  0  0  0  0
  152.1412  133.6013  154.4301 H   0  0  0  0  0  0  0  0  0  0  0  0
  150.9130  132.7686  155.3749 H   0  0  0  0  0  0  0  0  0  0  0  0
  148.8118  134.0501  156.1595 H   0  0  0  0  0  0  0  0  0  0  0  0
  149.8750  135.1563  156.9894 H   0  0  0  0  0  0  0  0  0  0  0  0
  147.8172  136.3011  156.6801 H   0  0  0  0  0  0  0  0  0  0  0  0
  147.8616  135.6983  153.6893 H   0  0  0  0  0  0  0  0  0  0  0  0
  146.6584  136.6462  154.5521 H   0  0  0  0  0  0  0  0  0  0  0  0
  146.8210  134.9274  154.8816 H   0  0  0  0  0  0  0  0  0  0  0  0
  149.7154  137.7517  156.3985 H   0  0  0  0  0  0  0  0  0  0  0  0
  148.4756  138.2459  155.2736 H   0  0  0  0  0  0  0  0  0  0  0  0
  149.6355  136.9710  153.5800 H   0  0  0  0  0  0  0  0  0  0  0  0
  1  2  1  0  0  0  0
  1 22  1  0  0  0  0
  1 23  1  0  0  0  0
  1 24  1  0  0  0  0
  2 21  2  0  0  0  0
  2  3  1  0  0  0  0
  3  4  2  0  0  0  0
  3 25  1  0  0  0  0
  4  5  1  0  0  0  0
  4  6  1  0  0  0  0
  5 26  1  0  0  0  0
  5 27  1  0  0  0  0
  5 28  1  0  0  0  0
  6  7  1  0  0  0  0
  6 21  1  0  0  0  0
  7  8  1  0  0  0  0
  7 29  1  0  0  0  0
  7 30  1  0  0  0  0
  8  9  2  0  0  0  0
  8 10  1  0  0  0  0
 10 11  1  0  0  0  0
 10 31  1  0  0  0  0
 11 12  1  0  0  0  0
 11 32  1  0  0  0  0
 11 33  1  0  0  0  0
 12 13  1  0  0  0  0
 12 34  1  0  0  0  0
 12 35  1  0  0  0  0
 13 20  1  0  0  0  0
 13 14  1  0  0  0  0
 13 50  1  0  0  0  0
 14 15  1  0  0  0  0
 14 36  1  0  0  0  0
 14 37  1  0  0  0  0
 15 16  1  0  0  0  0
 15 17  1  0  0  0  0
 15 38  1  0  0  0  0
 16 39  1  0  0  0  0
 16 40  1  0  0  0  0
 16 41  1  0  0  0  0
 17 18  1  0  0  0  0
 17 42  1  0  0  0  0
 17 43  1  0  0  0  0
 18 19  1  0  0  0  0
 18 20  1  0  0  0  0
 18 44  1  0  0  0  0
 19 45  1  0  0  0  0
 19 46  1  0  0  0  0
 19 47  1  0  0  0  0
 20 48  1  0  0  0  0
 20 49  1  0  0  0  0
M  CHG  1  13   1
M  END
> <s_m_source_file>
AV-unprocessed.smi

> <i_m_source_file_index>
1475

> <i_lp_mmshare_version>
43012

> <i_f3d_flags>
0

> <s_epik_input>
W0NIM11jMVtjSF1jKFtDSDNdKW4objEpW0NIMl1DKD1PKVtOSF1bQ0gyXVtDSDJdTjJbQ0gyXVtDQEBIXShbQ0gzXSlbQ0gyXVtDQEBIXShbQ0gzXSlbQ0gyXTI=

> <s_epik_cmdline>
J2VwaWtfcHl0aG9uJywgJy1waCcsICc3LjAnLCAnLXRuJywgJzgnLCAnLW1hJywgJzIwMCcsICctbWV0YWxfYmluZGluZycsICctaW1hZScsICc8aW5maWxlLm1hZT4nLCAnLW9tYWUnLCAnPG91dGZpbGUubWFlPic=

> <r_lp_tautomer_probability>
1

> <r_epik_Ionization_Penalty>
0.00206431

> <r_epik_Ionization_Penalty_Charging>
0.00187095

> <r_epik_Ionization_Penalty_Neutral>
0.000193364

> <r_epik_State_Penalty>
-0

> <r_epik_Charging_Adjusted_Penalty>
0.00187095

> <i_epik_Tot_Q>
1

> <i_epik_Tot_abs_Q>
1

> <r_epik_Metal_State_Penalty>
-0

> <b_epik_Metal_Only>
0

> <s_lp_Force_Field>
OPLS_2005

> <r_lp_Energy>
16.2356

> <b_lp_Chiralities_Consistent>
1

> <s_lp_Variant>
AV-unprocessed.smi:1475-3

> <Gold.Version>
5.8.1

> <Gold.Id.Protein>
6NUR|6NUR_protein|mol2

> <Gold.PLP.Fitness>
44.2392

> <Gold.PLP.PLP>
-40.1128

> <Gold.PLP.part.hbond>
-1.0000

> <Gold.PLP.part.metal>
0.0000

> <Gold.PLP.part.buried>
-6.5049

> <Gold.PLP.part.nonpolar>
-33.2618

> <Gold.PLP.part.repulsive>
0.2027

> <Gold.PLP.ligand.clash>
0.0000

> <Gold.PLP.ligand.torsion>
0.9505

> <Gold.PLP.Chemscore.Hbond>
2.0000

> <Gold.PLP.Chemscore.CHOScore>
0.0000

> <Gold.PLP.Chemscore.Metal>
0.0000

> <Gold.Chemscore.Hbonds>
donor molecule, donor type, donor heavy atom, donor atom, acceptor molecule, acceptor atom, score
      L1  H    13    50       P1  7948  2.00

> <Gold.PLP.Chemscore.Internal.Correction>
0.0273

> <Gold.Rescore>
     Score         DG    S(hbond)    S(metal)    S(lipo)     H(rot)  DE(clash)    DE(int)     intcor
     15.16     -16.46       0.99        0.00     101.46       1.64       0.15       1.15       ----

> <Gold.Chemscore.Fitness>
15.1605

> <Gold.Chemscore.DG>
-16.4603

> <Gold.Chemscore.ZeroCoef>
-5.4800

> <Gold.Chemscore.Hbond>
0.9902

> <Gold.Chemscore.Metal>
0.0000

> <Gold.Chemscore.Lipo>
101.4619

> <Gold.Chemscore.Internal_Hbond>
0.0000

> <Gold.Chemscore.DEClash>
0.1487

> <Gold.Chemscore.DEInternal>
1.1510

> <Gold.Chemscore.Rot>
1.6399

> <Gold.Chemscore.Internal.Correction>
   9.000000E+99

> <Gold.Chemscore.Hbonds>
donor molecule, donor type, donor heavy atom, donor atom, acceptor molecule, acceptor atom, score
      L1  H    13    50       P1  7948  0.73

> <Gold.Chemscore.Hbond.Weighted>
-3.3074

> <Gold.Chemscore.Metal.Weighted>
-0.0000

> <Gold.Chemscore.Lipo.Weighted>
-11.8710

> <Gold.Chemscore.Internal_Hbond.Weighted>
0.0000

> <Gold.Chemscore.DEClash.Weighted>
0.1487

> <Gold.Chemscore.DEInternal.Weighted>
1.1510

> <Gold.Chemscore.Rot.Weighted>
4.1982

> <Gold.Chemscore.Internal.Correction.Weighted>
   9.000000E+99

> <Gold.Protein.RotatedTorsions>
[ 6907 6896 6895 6894 ] final   -4.18 input  -60.11 | X-H torsion
[ 7974 7965 7964 7962 ] final   12.10 input  175.53 | X-H torsion
[ 8008 7997 7996 7995 ] final  -77.90 input   59.86 | X-H torsion
[ 10167 10162 10161 10158 ] final -105.02 input  -65.29 | X-H torsion
[ 10718 10713 10712 10709 ] final  111.96 input   66.30 | X-H torsion
[ 10763 10752 10751 10750 ] final   38.83 input  -60.55 | X-H torsion
[ 11005 11000 10999 10996 ] final   43.93 input  -57.11 | X-H torsion

> <Gold.Protein.ActiveResidues>
 VAL166  LYS551  ARG553  GLY616  TRP617  ASP618  TYR619  PRO620  LYS621  CYS622 
 ASP623  PHE694  ASN695  SER759  ASP760  ASP761  ALA762  ILE779  LEU786  VAL792 
 PHE793  MET794  SER795  GLU796  ALA797  LYS798  CYS799  TRP800  GLU811  SER814 

> <Gold.Protein.RotatedAtoms>
  151.5018  135.1062  159.9830 H   0  0  0  0  0  0  0  0  0  0  0  0  # atno 6907 bound_to 6896
  152.4698  133.8001  159.6959 H   0  0  0  0  0  0  0  0  0  0  0  0  # atno 6908 bound_to 6896
  150.8702  133.7454  159.2989 H   0  0  0  0  0  0  0  0  0  0  0  0  # atno 6909 bound_to 6896
  146.2358  139.9387  142.8486 H   0  0  0  0  0  0  0  0  0  0  0  0  # atno 7974 bound_to 7965
  154.5639  140.0703  156.8861 H   0  0  0  0  0  0  0  0  0  0  0  0  # atno 8008 bound_to 7997
  155.2760  140.3368  155.4243 H   0  0  0  0  0  0  0  0  0  0  0  0  # atno 8009 bound_to 7997
  156.2064  140.1742  156.7775 H   0  0  0  0  0  0  0  0  0  0  0  0  # atno 8010 bound_to 7997
  140.2031  143.3804  152.1113 H   0  0  0  0  0  0  0  0  0  0  0  0  # atno 10167 bound_to 10162
  157.6418  131.0959  150.6825 H   0  0  0  0  0  0  0  0  0  0  0  0  # atno 10718 bound_to 10713
  152.9987  135.6238  154.2368 H   0  0  0  0  0  0  0  0  0  0  0  0  # atno 10763 bound_to 10752
  154.2109  135.2800  155.2960 H   0  0  0  0  0  0  0  0  0  0  0  0  # atno 10764 bound_to 10752
  154.5607  135.5706  153.7063 H   0  0  0  0  0  0  0  0  0  0  0  0  # atno 10765 bound_to 10752
  140.1599  134.4355  155.8325 H   0  0  0  0  0  0  0  0  0  0  0  0  # atno 11005 bound_to 11000
  145.1974  140.9839  143.4176 LP  0  0  0  0  0  0  0  0  0  0  0  0  # atno 17320 bound_to 7965
  144.9804  139.3789  143.6265 LP  0  0  0  0  0  0  0  0  0  0  0  0  # atno 17321 bound_to 7965
  139.5209  144.7039  151.5411 LP  0  0  0  0  0  0  0  0  0  0  0  0  # atno 17342 bound_to 10162
  140.6377  143.8952  150.6662 LP  0  0  0  0  0  0  0  0  0  0  0  0  # atno 17343 bound_to 10162
  156.7148  130.4662  149.5538 LP  0  0  0  0  0  0  0  0  0  0  0  0  # atno 17370 bound_to 10713
  156.1705  130.6434  151.0832 LP  0  0  0  0  0  0  0  0  0  0  0  0  # atno 17371 bound_to 10713
  141.2208  133.6908  156.7574 LP  0  0  0  0  0  0  0  0  0  0  0  0  # atno 17394 bound_to 11000
  140.2503  134.8546  157.3660 LP  0  0  0  0  0  0  0  0  0  0  0  0  # atno 17395 bound_to 11000

$$$$
