AV-unprocessed.smi:2552|AV-procd|sdf|10016|dock10
  -GOLD-   2272014 63D 1   1.00000     0.00000
 Structure written by MMmdl.
 34 36  0  0  0  0  0  0  0  0  1 V2000
  153.2654  136.4340  157.2814 C   0  0  0  0  0  0  0  0  0  0  0  0
  152.3946  137.2711  156.4593 N   0  0  0  0  0  0  0  0  0  0  0  0
  151.7073  136.5876  155.4492 N   0  0  0  0  0  0  0  0  0  0  0  0
  150.8965  137.2058  154.6483 C   0  0  0  0  0  0  0  0  0  0  0  0
  150.7143  138.6435  154.8244 C   0  0  0  0  0  0  0  0  0  0  0  0
  149.9430  139.6505  154.1815 C   0  0  0  0  0  0  0  0  0  0  0  0
  150.1290  140.8491  154.7314 N   0  0  0  0  0  0  0  0  0  0  0  0
  151.0232  140.6595  155.7364 N   0  0  0  0  0  0  0  0  0  0  0  0
  151.4547  141.7863  156.5490 C   0  0  0  0  0  0  0  0  0  0  0  0
  150.3920  142.2230  157.5777 C   0  0  1  0  0  0  0  0  0  0  0  0
  149.7225  141.0875  158.0938 O   0  0  0  0  0  0  0  0  0  0  0  0
  151.0105  143.0802  158.6739 C   0  0  0  0  0  0  0  0  0  0  0  0
  150.6336  144.4344  158.8203 C   0  0  0  0  0  0  0  0  0  0  0  0
  151.1983  145.2253  159.8394 C   0  0  0  0  0  0  0  0  0  0  0  0
  152.1412  144.6670  160.7229 C   0  0  0  0  0  0  0  0  0  0  0  0
  152.5162  143.3170  160.5878 C   0  0  0  0  0  0  0  0  0  0  0  0
  151.9527  142.5237  159.5690 C   0  0  0  0  0  0  0  0  0  0  0  0
  152.3205  141.2244  159.4595 F   0  0  0  0  0  0  0  0  0  0  0  0
  151.3718  139.3259  155.7937 C   0  0  0  0  0  0  0  0  0  0  0  0
  152.2968  138.6125  156.7052 C   0  0  0  0  0  0  0  0  0  0  0  0
  152.9098  139.1985  157.5977 O   0  0  0  0  0  0  0  0  0  0  0  0
  152.9657  136.4810  158.3292 H   0  0  0  0  0  0  0  0  0  0  0  0
  154.3013  136.7674  157.2067 H   0  0  0  0  0  0  0  0  0  0  0  0
  153.2323  135.3867  156.9765 H   0  0  0  0  0  0  0  0  0  0  0  0
  150.3626  136.6718  153.8625 H   0  0  0  0  0  0  0  0  0  0  0  0
  149.2637  139.5551  153.3473 H   0  0  0  0  0  0  0  0  0  0  0  0
  152.3847  141.5217  157.0551 H   0  0  0  0  0  0  0  0  0  0  0  0
  151.6962  142.6135  155.8807 H   0  0  0  0  0  0  0  0  0  0  0  0
  149.6291  142.8125  157.0690 H   0  0  0  0  0  0  0  0  0  0  0  0
  150.2798  140.6784  158.7377 H   0  0  0  0  0  0  0  0  0  0  0  0
  149.9064  144.8726  158.1524 H   0  0  0  0  0  0  0  0  0  0  0  0
  150.9061  146.2598  159.9441 H   0  0  0  0  0  0  0  0  0  0  0  0
  152.5743  145.2728  161.5053 H   0  0  0  0  0  0  0  0  0  0  0  0
  153.2362  142.8872  161.2683 H   0  0  0  0  0  0  0  0  0  0  0  0
  1  2  1  0  0  0  0
  1 22  1  0  0  0  0
  1 23  1  0  0  0  0
  1 24  1  0  0  0  0
  2 20  1  0  0  0  0
  2  3  1  0  0  0  0
  3  4  2  0  0  0  0
  4  5  1  0  0  0  0
  4 25  1  0  0  0  0
  5 19  2  0  0  0  0
  5  6  1  0  0  0  0
  6  7  2  0  0  0  0
  6 26  1  0  0  0  0
  7  8  1  0  0  0  0
  8  9  1  0  0  0  0
  8 19  1  0  0  0  0
  9 10  1  0  0  0  0
  9 27  1  0  0  0  0
  9 28  1  0  0  0  0
 10 11  1  0  0  0  0
 10 12  1  0  0  0  0
 10 29  1  0  0  0  0
 11 30  1  0  0  0  0
 12 17  1  0  0  0  0
 12 13  2  0  0  0  0
 13 14  1  0  0  0  0
 13 31  1  0  0  0  0
 14 15  2  0  0  0  0
 14 32  1  0  0  0  0
 15 16  1  0  0  0  0
 15 33  1  0  0  0  0
 16 17  2  0  0  0  0
 16 34  1  0  0  0  0
 17 18  1  0  0  0  0
 19 20  1  0  0  0  0
 20 21  2  0  0  0  0
M  END
> <s_m_source_file>
AV-unprocessed.smi

> <i_m_source_file_index>
2552

> <i_lp_mmshare_version>
43012

> <i_f3d_flags>
0

> <s_epik_input>
W2NIXTFubihbQ0gzXSljKD1PKWMoYzEyKW4obltjSF0yKVtDSDJdW0NASF0oW09IXSljM1tjSF1bY0hdW2NIXVtjSF1jM0Y=

> <s_epik_cmdline>
J2VwaWtfcHl0aG9uJywgJy1waCcsICc3LjAnLCAnLXRuJywgJzgnLCAnLW1hJywgJzIwMCcsICctbWV0YWxfYmluZGluZycsICctaW1hZScsICc8aW5maWxlLm1hZT4nLCAnLW9tYWUnLCAnPG91dGZpbGUubWFlPic=

> <r_lp_tautomer_probability>
1

> <r_epik_Ionization_Penalty>
6.28011e-06

> <r_epik_Ionization_Penalty_Charging>
1.65421e-10

> <r_epik_Ionization_Penalty_Neutral>
6.27995e-06

> <r_epik_State_Penalty>
-0

> <r_epik_Charging_Adjusted_Penalty>
1.65421e-10

> <i_epik_Tot_Q>
0

> <i_epik_Tot_abs_Q>
0

> <r_epik_Metal_State_Penalty>
-0

> <b_epik_Metal_Only>
0

> <s_lp_Force_Field>
OPLS_2005

> <r_lp_Energy>
28.1215

> <b_lp_Chiralities_Consistent>
1

> <s_lp_Variant>
AV-unprocessed.smi:2552-2

> <Gold.Version>
5.8.1

> <Gold.Id.Protein>
6NUR|6NUR_protein|mol2

> <Gold.PLP.Fitness>
52.2524

> <Gold.PLP.PLP>
-41.0825

> <Gold.PLP.part.hbond>
-3.0000

> <Gold.PLP.part.metal>
0.0000

> <Gold.PLP.part.buried>
-3.9255

> <Gold.PLP.part.nonpolar>
-33.8595

> <Gold.PLP.part.repulsive>
0.1713

> <Gold.PLP.ligand.clash>
0.0000

> <Gold.PLP.ligand.torsion>
0.4335

> <Gold.PLP.Chemscore.Hbond>
2.0882

> <Gold.PLP.Chemscore.CHOScore>
1.9165

> <Gold.PLP.Chemscore.Metal>
0.0000

> <Gold.Chemscore.Hbonds>
donor molecule, donor type, donor heavy atom, donor atom, acceptor molecule, acceptor atom, score
      P1  H  7989  7998       L1     7  0.03
      P1  H  7997  8010       L1    21  1.00
      P1  H 10752 10763       L1     3  1.00
      L1  C     4    25       P1  7948  0.70
      L1  C     4    25       P1  7949  0.29
      L1  C     6    26       P1  7957  0.98

> <Gold.PLP.Chemscore.Internal.Correction>
0.0230

> <Gold.Rescore>
     Score         DG    S(hbond)    S(metal)    S(lipo)     H(rot)  DE(clash)    DE(int)     intcor
     15.56     -18.48       1.65        0.00     108.06       2.02       1.33       1.58       ----

> <Gold.Chemscore.Fitness>
15.5611

> <Gold.Chemscore.DG>
-18.4767

> <Gold.Chemscore.ZeroCoef>
-5.4800

> <Gold.Chemscore.Hbond>
1.6528

> <Gold.Chemscore.Metal>
0.0000

> <Gold.Chemscore.Lipo>
108.0562

> <Gold.Chemscore.Internal_Hbond>
0.0000

> <Gold.Chemscore.DEClash>
1.3327

> <Gold.Chemscore.DEInternal>
1.5828

> <Gold.Chemscore.Rot>
2.0181

> <Gold.Chemscore.Internal.Correction>
   9.000000E+99

> <Gold.Chemscore.Hbonds>
donor molecule, donor type, donor heavy atom, donor atom, acceptor molecule, acceptor atom, score
      P1  H  7997  8010       L1    21  0.85
      P1  H 10752 10763       L1     3  0.42

> <Gold.Chemscore.Hbond.Weighted>
-5.5204

> <Gold.Chemscore.Metal.Weighted>
-0.0000

> <Gold.Chemscore.Lipo.Weighted>
-12.6426

> <Gold.Chemscore.Internal_Hbond.Weighted>
0.0000

> <Gold.Chemscore.DEClash.Weighted>
1.3327

> <Gold.Chemscore.DEInternal.Weighted>
1.5828

> <Gold.Chemscore.Rot.Weighted>
5.1663

> <Gold.Chemscore.Internal.Correction.Weighted>
   9.000000E+99

> <Gold.Protein.RotatedTorsions>
[ 6907 6896 6895 6894 ] final   99.05 input  -60.11 | X-H torsion
[ 7974 7965 7964 7962 ] final -151.34 input  175.53 | X-H torsion
[ 8008 7997 7996 7995 ] final   37.94 input   59.86 | X-H torsion
[ 10167 10162 10161 10158 ] final  159.48 input  -65.29 | X-H torsion
[ 10718 10713 10712 10709 ] final   46.24 input   66.30 | X-H torsion
[ 10763 10752 10751 10750 ] final   65.77 input  -60.55 | X-H torsion
[ 11005 11000 10999 10996 ] final   88.69 input  -57.11 | X-H torsion

> <Gold.Protein.ActiveResidues>
 VAL166  LYS551  ARG553  GLY616  TRP617  ASP618  TYR619  PRO620  LYS621  CYS622 
 ASP623  PHE694  ASN695  SER759  ASP760  ASP761  ALA762  ILE779  LEU786  VAL792 
 PHE793  MET794  SER795  GLU796  ALA797  LYS798  CYS799  TRP800  GLU811  SER814 

> <Gold.Protein.RotatedAtoms>
  152.5399  134.0488  159.8100 H   0  0  0  0  0  0  0  0  0  0  0  0  # atno 6907 bound_to 6896
  151.0632  133.5519  159.2640 H   0  0  0  0  0  0  0  0  0  0  0  0  # atno 6908 bound_to 6896
  151.2409  135.0596  159.9078 H   0  0  0  0  0  0  0  0  0  0  0  0  # atno 6909 bound_to 6896
  144.7855  140.4810  143.5809 H   0  0  0  0  0  0  0  0  0  0  0  0  # atno 7974 bound_to 7965
  155.2120  140.3324  155.4327 H   0  0  0  0  0  0  0  0  0  0  0  0  # atno 8008 bound_to 7997
  156.2367  140.1875  156.7149 H   0  0  0  0  0  0  0  0  0  0  0  0  # atno 8009 bound_to 7997
  154.6072  140.0614  156.9431 H   0  0  0  0  0  0  0  0  0  0  0  0  # atno 8010 bound_to 7997
  139.4833  144.4726  151.8556 H   0  0  0  0  0  0  0  0  0  0  0  0  # atno 10167 bound_to 10162
  157.4460  130.8109  149.7741 H   0  0  0  0  0  0  0  0  0  0  0  0  # atno 10718 bound_to 10713
  153.0110  135.5345  154.6719 H   0  0  0  0  0  0  0  0  0  0  0  0  # atno 10763 bound_to 10752
  154.5901  135.2858  155.0646 H   0  0  0  0  0  0  0  0  0  0  0  0  # atno 10764 bound_to 10752
  154.1742  135.6527  153.5070 H   0  0  0  0  0  0  0  0  0  0  0  0  # atno 10765 bound_to 10752
  139.8891  134.8504  156.3036 H   0  0  0  0  0  0  0  0  0  0  0  0  # atno 11005 bound_to 11000
  145.5933  139.1497  143.3170 LP  0  0  0  0  0  0  0  0  0  0  0  0  # atno 17320 bound_to 7965
  146.2085  140.6058  142.9070 LP  0  0  0  0  0  0  0  0  0  0  0  0  # atno 17321 bound_to 7965
  140.4195  144.2262  150.5887 LP  0  0  0  0  0  0  0  0  0  0  0  0  # atno 17342 bound_to 10162
  140.4887  143.2354  151.8850 LP  0  0  0  0  0  0  0  0  0  0  0  0  # atno 17343 bound_to 10162
  155.9967  130.3904  150.2767 LP  0  0  0  0  0  0  0  0  0  0  0  0  # atno 17370 bound_to 10713
  157.0935  131.0176  151.3112 LP  0  0  0  0  0  0  0  0  0  0  0  0  # atno 17371 bound_to 10713
  140.9897  133.7216  156.0795 LP  0  0  0  0  0  0  0  0  0  0  0  0  # atno 17394 bound_to 11000
  140.7642  134.3905  157.5520 LP  0  0  0  0  0  0  0  0  0  0  0  0  # atno 17395 bound_to 11000

$$$$
