AV-unprocessed.smi:1845|AV-procd|sdf|7513|dock7
  -GOLD-   22720 9223D 1   1.00000     0.00000
 Structure written by MMmdl.
 44 45  0  0  0  0  0  0  0  0  2 V2000
  151.1413  130.8997  155.7035 C   0  0  0  0  0  0  0  0  0  0  0  0
  150.8229  132.1508  157.0204 S   0  0  0  0  0  0  0  0  0  0  0  0
  149.4281  131.9264  157.4290 O   0  0  0  0  0  0  0  0  0  0  0  0
  151.8552  131.9390  158.0492 O   0  0  0  0  0  0  0  0  0  0  0  0
  150.9752  133.5557  156.2138 N   0  5  0  0  0  0  0  0  0  0  0  0
  150.2885  133.7868  154.9498 C   0  0  0  0  0  0  0  0  0  0  0  0
  149.6728  135.2031  154.9423 C   0  0  0  0  0  0  0  0  0  0  0  0
  150.7186  136.3283  154.9172 C   0  0  0  0  0  0  0  0  0  0  0  0
  151.6471  136.3413  155.7287 O   0  0  0  0  0  0  0  0  0  0  0  0
  150.5792  137.2502  153.9492 N   0  0  0  0  0  0  0  0  0  0  0  0
  151.4437  138.4094  153.7470 C   0  0  0  0  0  0  0  0  0  0  0  0
  151.5527  139.3408  154.9467 C   0  0  0  0  0  0  0  0  0  0  0  0
  150.8176  140.5412  155.0506 C   0  0  0  0  0  0  0  0  0  0  0  0
  150.9857  141.3509  156.1905 C   0  0  0  0  0  0  0  0  0  0  0  0
  151.8863  140.9427  157.2033 C   0  0  0  0  0  0  0  0  0  0  0  0
  152.0685  141.7352  158.3586 N   0  0  0  0  0  0  0  0  0  0  0  0
  152.8177  141.1116  159.4472 C   0  0  0  0  0  0  0  0  0  0  0  0
  152.6819  141.9401  160.7364 C   0  0  0  0  0  0  0  0  0  0  0  0
  153.0810  143.2843  160.4909 O   0  0  0  0  0  0  0  0  0  0  0  0
  152.2606  143.9074  159.5086 C   0  0  0  0  0  0  0  0  0  0  0  0
  152.3842  143.1513  158.1752 C   0  0  0  0  0  0  0  0  0  0  0  0
  152.6007  139.7955  157.0923 N   0  0  0  0  0  0  0  0  0  0  0  0
  152.4367  139.0244  155.9972 C   0  0  0  0  0  0  0  0  0  0  0  0
  150.9758  129.9029  156.1108 H   0  0  0  0  0  0  0  0  0  0  0  0
  152.1709  130.9760  155.3557 H   0  0  0  0  0  0  0  0  0  0  0  0
  150.4593  131.0658  154.8701 H   0  0  0  0  0  0  0  0  0  0  0  0
  150.9616  133.6975  154.0965 H   0  0  0  0  0  0  0  0  0  0  0  0
  149.5059  133.0456  154.7845 H   0  0  0  0  0  0  0  0  0  0  0  0
  149.0274  135.3210  154.0705 H   0  0  0  0  0  0  0  0  0  0  0  0
  149.0306  135.3320  155.8155 H   0  0  0  0  0  0  0  0  0  0  0  0
  149.7960  137.1538  153.3191 H   0  0  0  0  0  0  0  0  0  0  0  0
  152.4382  138.0333  153.5049 H   0  0  0  0  0  0  0  0  0  0  0  0
  151.1217  138.9903  152.8812 H   0  0  0  0  0  0  0  0  0  0  0  0
  150.1373  140.8525  154.2723 H   0  0  0  0  0  0  0  0  0  0  0  0
  150.4366  142.2776  156.2637 H   0  0  0  0  0  0  0  0  0  0  0  0
  152.4778  140.0962  159.6446 H   0  0  0  0  0  0  0  0  0  0  0  0
  153.8669  141.0437  159.1569 H   0  0  0  0  0  0  0  0  0  0  0  0
  151.6560  141.9158  161.1075 H   0  0  0  0  0  0  0  0  0  0  0  0
  153.3130  141.5208  161.5199 H   0  0  0  0  0  0  0  0  0  0  0  0
  151.2236  143.9328  159.8475 H   0  0  0  0  0  0  0  0  0  0  0  0
  152.5797  144.9423  159.3837 H   0  0  0  0  0  0  0  0  0  0  0  0
  153.3981  143.2473  157.7844 H   0  0  0  0  0  0  0  0  0  0  0  0
  151.7083  143.5985  157.4451 H   0  0  0  0  0  0  0  0  0  0  0  0
  153.0315  138.1236  155.9610 H   0  0  0  0  0  0  0  0  0  0  0  0
  1  2  1  0  0  0  0
  1 24  1  0  0  0  0
  1 25  1  0  0  0  0
  1 26  1  0  0  0  0
  2  3  2  0  0  0  0
  2  4  2  0  0  0  0
  2  5  1  0  0  0  0
  5  6  1  0  0  0  0
  6  7  1  0  0  0  0
  6 27  1  0  0  0  0
  6 28  1  0  0  0  0
  7  8  1  0  0  0  0
  7 29  1  0  0  0  0
  7 30  1  0  0  0  0
  8  9  2  0  0  0  0
  8 10  1  0  0  0  0
 10 11  1  0  0  0  0
 10 31  1  0  0  0  0
 11 12  1  0  0  0  0
 11 32  1  0  0  0  0
 11 33  1  0  0  0  0
 12 23  1  0  0  0  0
 12 13  2  0  0  0  0
 13 14  1  0  0  0  0
 13 34  1  0  0  0  0
 14 15  2  0  0  0  0
 14 35  1  0  0  0  0
 15 16  1  0  0  0  0
 15 22  1  0  0  0  0
 16 21  1  0  0  0  0
 16 17  1  0  0  0  0
 17 18  1  0  0  0  0
 17 36  1  0  0  0  0
 17 37  1  0  0  0  0
 18 19  1  0  0  0  0
 18 38  1  0  0  0  0
 18 39  1  0  0  0  0
 19 20  1  0  0  0  0
 20 21  1  0  0  0  0
 20 40  1  0  0  0  0
 20 41  1  0  0  0  0
 21 42  1  0  0  0  0
 21 43  1  0  0  0  0
 22 23  2  0  0  0  0
 23 44  1  0  0  0  0
M  CHG  1   5  -1
M  END
> <s_m_source_file>
AV-unprocessed.smi

> <i_m_source_file_index>
1845

> <i_lp_mmshare_version>
43012

> <i_f3d_flags>
0

> <s_epik_input>
W0NIM11TKD1PKSg9TylbTkhdW0NIMl1bQ0gyXUMoPU8pW05IXVtDSDJdYzFbY0hdW2NIXWMobltjSF0xKU4yW0NIMl1bQ0gyXU9bQ0gyXVtDSDJdMg==

> <s_epik_cmdline>
J2VwaWtfcHl0aG9uJywgJy1waCcsICc3LjAnLCAnLXRuJywgJzgnLCAnLW1hJywgJzIwMCcsICctbWV0YWxfYmluZGluZycsICctaW1hZScsICc8aW5maWxlLm1hZT4nLCAnLW9tYWUnLCAnPG91dGZpbGUubWFlPic=

> <r_lp_tautomer_probability>
1

> <r_epik_Ionization_Penalty>
6.31253

> <r_epik_Ionization_Penalty_Charging>
6.30704

> <r_epik_Ionization_Penalty_Neutral>
0.00548995

> <r_epik_State_Penalty>
6.31049

> <r_epik_Charging_Adjusted_Penalty>
12.6175

> <i_epik_Tot_Q>
-1

> <i_epik_Tot_abs_Q>
1

> <r_epik_Metal_State_Penalty>
2.24651

> <b_epik_Metal_Only>
1

> <s_lp_Force_Field>
OPLS_2005

> <r_lp_Energy>
11.4109

> <b_lp_Chiralities_Consistent>
1

> <s_lp_Variant>
AV-unprocessed.smi:1845-2

> <Gold.Version>
5.8.1

> <Gold.Id.Protein>
6NUR|6NUR_protein|mol2

> <Gold.PLP.Fitness>
51.7403

> <Gold.PLP.PLP>
-41.6429

> <Gold.PLP.part.hbond>
-5.0000

> <Gold.PLP.part.metal>
0.0000

> <Gold.PLP.part.buried>
-3.4582

> <Gold.PLP.part.nonpolar>
-31.6615

> <Gold.PLP.part.repulsive>
0.1019

> <Gold.PLP.ligand.clash>
0.0000

> <Gold.PLP.ligand.torsion>
1.2023

> <Gold.PLP.Chemscore.Hbond>
3.7020

> <Gold.PLP.Chemscore.CHOScore>
0.0000

> <Gold.PLP.Chemscore.Metal>
0.0000

> <Gold.Chemscore.Hbonds>
donor molecule, donor type, donor heavy atom, donor atom, acceptor molecule, acceptor atom, score
      L1  H    10    31       P1  7948  0.96
      P1  H  6896  6909       L1     4  0.83
      P1  H  7997  8008       L1    22  0.80
      P1  H 10752 10765       L1     9  1.00

> <Gold.PLP.Chemscore.Internal.Correction>
1.3959

> <Gold.Rescore>
     Score         DG    S(hbond)    S(metal)    S(lipo)     H(rot)  DE(clash)    DE(int)     intcor
     13.70     -18.05       2.31        0.00      95.46       2.46       0.54       3.82       ----

> <Gold.Chemscore.Fitness>
13.6955

> <Gold.Chemscore.DG>
-18.0519

> <Gold.Chemscore.ZeroCoef>
-5.4800

> <Gold.Chemscore.Hbond>
2.3075

> <Gold.Chemscore.Metal>
0.0000

> <Gold.Chemscore.Lipo>
95.4599

> <Gold.Chemscore.Internal_Hbond>
0.0000

> <Gold.Chemscore.DEClash>
0.5359

> <Gold.Chemscore.DEInternal>
3.8205

> <Gold.Chemscore.Rot>
2.4625

> <Gold.Chemscore.Internal.Correction>
   9.000000E+99

> <Gold.Chemscore.Hbonds>
donor molecule, donor type, donor heavy atom, donor atom, acceptor molecule, acceptor atom, score
      L1  H    10    31       P1  7948  0.46
      P1  H  6896  6909       L1     4  0.77
      P1  H  7997  8008       L1    22  0.10
      P1  H 10752 10765       L1     9  0.55

> <Gold.Chemscore.Hbond.Weighted>
-7.7071

> <Gold.Chemscore.Metal.Weighted>
-0.0000

> <Gold.Chemscore.Lipo.Weighted>
-11.1688

> <Gold.Chemscore.Internal_Hbond.Weighted>
0.0000

> <Gold.Chemscore.DEClash.Weighted>
0.5359

> <Gold.Chemscore.DEInternal.Weighted>
3.8205

> <Gold.Chemscore.Rot.Weighted>
6.3040

> <Gold.Chemscore.Internal.Correction.Weighted>
   9.000000E+99

> <Gold.Protein.RotatedTorsions>
[ 6907 6896 6895 6894 ] final  -86.88 input  -60.11 | X-H torsion
[ 7974 7965 7964 7962 ] final   42.97 input  175.53 | X-H torsion
[ 8008 7997 7996 7995 ] final  -75.48 input   59.86 | X-H torsion
[ 10167 10162 10161 10158 ] final -124.25 input  -65.29 | X-H torsion
[ 10718 10713 10712 10709 ] final  -60.01 input   66.30 | X-H torsion
[ 10763 10752 10751 10750 ] final -159.60 input  -60.55 | X-H torsion
[ 11005 11000 10999 10996 ] final  -52.04 input  -57.11 | X-H torsion

> <Gold.Protein.ActiveResidues>
 VAL166  LYS551  ARG553  GLY616  TRP617  ASP618  TYR619  PRO620  LYS621  CYS622 
 ASP623  PHE694  ASN695  SER759  ASP760  ASP761  ALA762  ILE779  LEU786  VAL792 
 PHE793  MET794  SER795  GLU796  ALA797  LYS798  CYS799  TRP800  GLU811  SER814 

> <Gold.Protein.RotatedAtoms>
  150.6866  134.2982  159.4695 H   0  0  0  0  0  0  0  0  0  0  0  0  # atno 6907 bound_to 6896
  152.0881  134.9423  160.0581 H   0  0  0  0  0  0  0  0  0  0  0  0  # atno 6908 bound_to 6896
  152.0750  133.4090  159.4513 H   0  0  0  0  0  0  0  0  0  0  0  0  # atno 6909 bound_to 6896
  146.0696  139.5240  142.9606 H   0  0  0  0  0  0  0  0  0  0  0  0  # atno 7974 bound_to 7965
  154.5421  140.0743  156.8527 H   0  0  0  0  0  0  0  0  0  0  0  0  # atno 8008 bound_to 7997
  155.3161  140.3393  155.4224 H   0  0  0  0  0  0  0  0  0  0  0  0  # atno 8009 bound_to 7997
  156.1884  140.1677  156.8127 H   0  0  0  0  0  0  0  0  0  0  0  0  # atno 8010 bound_to 7997
  139.9948  143.5602  152.2327 H   0  0  0  0  0  0  0  0  0  0  0  0  # atno 10167 bound_to 10162
  156.1021  130.4185  150.0794 H   0  0  0  0  0  0  0  0  0  0  0  0  # atno 10718 bound_to 10713
  154.7461  135.3080  154.8642 H   0  0  0  0  0  0  0  0  0  0  0  0  # atno 10763 bound_to 10752
  153.9442  135.6771  153.4748 H   0  0  0  0  0  0  0  0  0  0  0  0  # atno 10764 bound_to 10752
  153.1058  135.4890  154.8874 H   0  0  0  0  0  0  0  0  0  0  0  0  # atno 10765 bound_to 10752
  141.0903  133.6634  156.3966 H   0  0  0  0  0  0  0  0  0  0  0  0  # atno 11005 bound_to 11000
  145.6416  141.0283  143.1808 LP  0  0  0  0  0  0  0  0  0  0  0  0  # atno 17320 bound_to 7965
  144.7223  139.7989  143.7377 LP  0  0  0  0  0  0  0  0  0  0  0  0  # atno 17321 bound_to 7965
  139.6314  144.7644  151.2529 LP  0  0  0  0  0  0  0  0  0  0  0  0  # atno 17342 bound_to 10162
  140.7441  143.6473  150.8280 LP  0  0  0  0  0  0  0  0  0  0  0  0  # atno 17343 bound_to 10162
  156.8779  130.9546  151.3602 LP  0  0  0  0  0  0  0  0  0  0  0  0  # atno 17370 bound_to 10713
  157.6192  130.8642  149.9080 LP  0  0  0  0  0  0  0  0  0  0  0  0  # atno 17371 bound_to 10713
  140.5267  134.6252  157.5336 LP  0  0  0  0  0  0  0  0  0  0  0  0  # atno 17394 bound_to 11000
  139.9728  134.7265  156.0008 LP  0  0  0  0  0  0  0  0  0  0  0  0  # atno 17395 bound_to 11000

$$$$
