AV-unprocessed.smi:447|AV-procd|sdf|2602|dock8
  -GOLD-   2262023 03D 1   1.00000     0.00000
 Structure written by MMmdl.
 46 48  0  0  0  0  0  0  0  0  2 V2000
  153.1002  137.0312  158.6901 C   0  0  0  0  0  0  0  0  0  0  0  0
  152.6773  136.6191  157.2848 C   0  0  0  0  0  0  0  0  0  0  0  0
  152.9653  135.5035  156.8563 O   0  0  0  0  0  0  0  0  0  0  0  0
  151.9970  137.5327  156.5756 N   0  0  0  0  0  0  0  0  0  0  0  0
  151.4406  137.3314  155.2383 C   0  0  1  0  0  0  0  0  0  0  0  0
  150.8391  135.9216  155.1527 C   0  0  0  0  0  0  0  0  0  0  0  0
  150.4150  138.3616  154.8533 C   0  0  0  0  0  0  0  0  0  0  0  0
  149.3225  138.1560  154.0614 N   0  3  0  0  0  0  0  0  0  0  0  0
  148.6158  139.3474  153.9050 C   0  0  0  0  0  0  0  0  0  0  0  0
  147.4489  139.6295  153.2016 C   0  0  0  0  0  0  0  0  0  0  0  0
  146.9951  140.9644  153.2385 C   0  0  0  0  0  0  0  0  0  0  0  0
  147.6959  141.9585  153.9518 C   0  0  0  0  0  0  0  0  0  0  0  0
  148.8784  141.6597  154.6601 C   0  0  0  0  0  0  0  0  0  0  0  0
  149.3164  140.3359  154.6243 C   0  0  0  0  0  0  0  0  0  0  0  0
  150.4142  139.6840  155.1974 N   0  0  0  0  0  0  0  0  0  0  0  0
  151.3602  140.4652  156.0113 C   0  0  0  0  0  0  0  0  0  0  0  0
  150.9878  140.5121  157.5079 C   0  0  2  0  0  0  0  0  0  0  0  0
  149.5833  140.6225  157.6012 O   0  0  0  0  0  0  0  0  0  0  0  0
  151.6962  141.6280  158.2613 C   0  0  0  0  0  0  0  0  0  0  0  0
  151.5652  142.9651  157.8284 C   0  0  0  0  0  0  0  0  0  0  0  0
  152.2327  144.0006  158.5106 C   0  0  0  0  0  0  0  0  0  0  0  0
  153.0263  143.7067  159.6359 C   0  0  0  0  0  0  0  0  0  0  0  0
  153.1535  142.3759  160.0778 C   0  0  0  0  0  0  0  0  0  0  0  0
  152.4937  141.3391  159.3903 C   0  0  0  0  0  0  0  0  0  0  0  0
  153.6406  137.9778  158.6667 H   0  0  0  0  0  0  0  0  0  0  0  0
  153.7511  136.2780  159.1355 H   0  0  0  0  0  0  0  0  0  0  0  0
  152.2249  137.1468  159.3298 H   0  0  0  0  0  0  0  0  0  0  0  0
  151.8128  138.4243  157.0123 H   0  0  0  0  0  0  0  0  0  0  0  0
  152.2664  137.3924  154.5291 H   0  0  0  0  0  0  0  0  0  0  0  0
  150.4702  135.7070  154.1496 H   0  0  0  0  0  0  0  0  0  0  0  0
  150.0038  135.8037  155.8438 H   0  0  0  0  0  0  0  0  0  0  0  0
  151.5825  135.1617  155.3958 H   0  0  0  0  0  0  0  0  0  0  0  0
  146.9128  138.8702  152.6513 H   0  0  0  0  0  0  0  0  0  0  0  0
  146.0931  141.2317  152.7072 H   0  0  0  0  0  0  0  0  0  0  0  0
  147.3193  142.9712  153.9556 H   0  0  0  0  0  0  0  0  0  0  0  0
  149.4090  142.4289  155.2015 H   0  0  0  0  0  0  0  0  0  0  0  0
  152.3567  140.0441  155.8789 H   0  0  0  0  0  0  0  0  0  0  0  0
  151.3995  141.4723  155.5935 H   0  0  0  0  0  0  0  0  0  0  0  0
  151.2470  139.5628  157.9764 H   0  0  0  0  0  0  0  0  0  0  0  0
  149.3015  141.3347  157.0473 H   0  0  0  0  0  0  0  0  0  0  0  0
  150.9551  143.2021  156.9691 H   0  0  0  0  0  0  0  0  0  0  0  0
  152.1308  145.0218  158.1746 H   0  0  0  0  0  0  0  0  0  0  0  0
  153.5326  144.5020  160.1624 H   0  0  0  0  0  0  0  0  0  0  0  0
  153.7594  142.1497  160.9426 H   0  0  0  0  0  0  0  0  0  0  0  0
  152.5996  140.3206  159.7341 H   0  0  0  0  0  0  0  0  0  0  0  0
  149.0795  137.2582  153.6631 H   0  0  0  0  0  0  0  0  0  0  0  0
  1  2  1  0  0  0  0
  1 25  1  0  0  0  0
  1 26  1  0  0  0  0
  1 27  1  0  0  0  0
  2  3  2  0  0  0  0
  2  4  1  0  0  0  0
  4  5  1  0  0  0  0
  4 28  1  0  0  0  0
  5  6  1  0  0  0  0
  5  7  1  0  0  0  0
  5 29  1  0  0  0  0
  6 30  1  0  0  0  0
  6 31  1  0  0  0  0
  6 32  1  0  0  0  0
  7 15  1  0  0  0  0
  7  8  2  0  0  0  0
  8  9  1  0  0  0  0
  8 46  1  0  0  0  0
  9 14  2  0  0  0  0
  9 10  1  0  0  0  0
 10 11  2  0  0  0  0
 10 33  1  0  0  0  0
 11 12  1  0  0  0  0
 11 34  1  0  0  0  0
 12 13  2  0  0  0  0
 12 35  1  0  0  0  0
 13 14  1  0  0  0  0
 13 36  1  0  0  0  0
 14 15  1  0  0  0  0
 15 16  1  0  0  0  0
 16 17  1  0  0  0  0
 16 37  1  0  0  0  0
 16 38  1  0  0  0  0
 17 18  1  0  0  0  0
 17 19  1  0  0  0  0
 17 39  1  0  0  0  0
 18 40  1  0  0  0  0
 19 24  1  0  0  0  0
 19 20  2  0  0  0  0
 20 21  1  0  0  0  0
 20 41  1  0  0  0  0
 21 22  2  0  0  0  0
 21 42  1  0  0  0  0
 22 23  1  0  0  0  0
 22 43  1  0  0  0  0
 23 24  2  0  0  0  0
 23 44  1  0  0  0  0
 24 45  1  0  0  0  0
M  CHG  1   8   1
M  END
> <s_m_source_file>
AV-unprocessed.smi

> <i_m_source_file_index>
447

> <i_lp_mmshare_version>
43012

> <i_f3d_flags>
0

> <s_epik_input>
W0NIM11DKD1PKVtOSF1bQ0BIXShbQ0gzXSljKG4xKW4oYyhjMTIpW2NIXVtjSF1bY0hdW2NIXTIpW0NIMl1bQ0BIXShbT0hdKWMzW2NIXVtjSF1bY0hdW2NIXVtjSF0z

> <s_epik_cmdline>
J2VwaWtfcHl0aG9uJywgJy1waCcsICc3LjAnLCAnLXRuJywgJzgnLCAnLW1hJywgJzIwMCcsICctbWV0YWxfYmluZGluZycsICctaW1hZScsICc8aW5maWxlLm1hZT4nLCAnLW9tYWUnLCAnPG91dGZpbGUubWFlPic=

> <r_epik_Ionization_Penalty>
0.950381

> <r_epik_Ionization_Penalty_Charging>
0.950379

> <r_epik_Ionization_Penalty_Neutral>
1.42115e-06

> <r_epik_State_Penalty>
0.994584

> <r_epik_Charging_Adjusted_Penalty>
1.94496

> <i_epik_Tot_Q>
1

> <i_epik_Tot_abs_Q>
1

> <r_epik_Metal_State_Penalty>
1.10485

> <b_epik_Metal_Only>
0

> <s_lp_Force_Field>
OPLS_2005

> <r_lp_Energy>
11.3805

> <b_lp_Chiralities_Consistent>
1

> <s_lp_Variant>
AV-unprocessed.smi:447-6

> <Gold.Version>
5.8.1

> <Gold.Id.Protein>
6NUR|6NUR_protein|mol2

> <Gold.PLP.Fitness>
54.4460

> <Gold.PLP.PLP>
-49.1828

> <Gold.PLP.part.hbond>
-2.0000

> <Gold.PLP.part.metal>
0.0000

> <Gold.PLP.part.buried>
-0.1752

> <Gold.PLP.part.nonpolar>
-46.1584

> <Gold.PLP.part.repulsive>
0.1278

> <Gold.PLP.ligand.clash>
0.0000

> <Gold.PLP.ligand.torsion>
1.5259

> <Gold.PLP.Chemscore.Hbond>
2.7600

> <Gold.PLP.Chemscore.CHOScore>
0.0000

> <Gold.PLP.Chemscore.Metal>
0.0000

> <Gold.Chemscore.Hbonds>
donor molecule, donor type, donor heavy atom, donor atom, acceptor molecule, acceptor atom, score
      L1  H     8    46       P1  7948  1.54
      P1  H 10752 10763       L1     3  1.00

> <Gold.PLP.Chemscore.Internal.Correction>
0.0350

> <Gold.Rescore>
     Score         DG    S(hbond)    S(metal)    S(lipo)     H(rot)  DE(clash)    DE(int)     intcor
     17.53     -21.34       1.73        0.00     139.00       2.41       0.94       2.87       ----

> <Gold.Chemscore.Fitness>
17.5262

> <Gold.Chemscore.DG>
-21.3380

> <Gold.Chemscore.ZeroCoef>
-5.4800

> <Gold.Chemscore.Hbond>
1.7267

> <Gold.Chemscore.Metal>
0.0000

> <Gold.Chemscore.Lipo>
139.0036

> <Gold.Chemscore.Internal_Hbond>
0.0000

> <Gold.Chemscore.DEClash>
0.9416

> <Gold.Chemscore.DEInternal>
2.8702

> <Gold.Chemscore.Rot>
2.4112

> <Gold.Chemscore.Internal.Correction>
   9.000000E+99

> <Gold.Chemscore.Hbonds>
donor molecule, donor type, donor heavy atom, donor atom, acceptor molecule, acceptor atom, score
      L1  H     8    46       P1  7948  0.74
      P1  H 10752 10763       L1     3  0.91

> <Gold.Chemscore.Hbond.Weighted>
-5.7672

> <Gold.Chemscore.Metal.Weighted>
-0.0000

> <Gold.Chemscore.Lipo.Weighted>
-16.2634

> <Gold.Chemscore.Internal_Hbond.Weighted>
0.0000

> <Gold.Chemscore.DEClash.Weighted>
0.9416

> <Gold.Chemscore.DEInternal.Weighted>
2.8702

> <Gold.Chemscore.Rot.Weighted>
6.1727

> <Gold.Chemscore.Internal.Correction.Weighted>
   9.000000E+99

> <Gold.Protein.RotatedTorsions>
[ 6907 6896 6895 6894 ] final  -40.18 input  -60.11 | X-H torsion
[ 7974 7965 7964 7962 ] final  -71.37 input  175.53 | X-H torsion
[ 8008 7997 7996 7995 ] final  168.56 input   59.86 | X-H torsion
[ 10167 10162 10161 10158 ] final  -87.20 input  -65.29 | X-H torsion
[ 10718 10713 10712 10709 ] final  -19.56 input   66.30 | X-H torsion
[ 10763 10752 10751 10750 ] final  101.49 input  -60.55 | X-H torsion
[ 11005 11000 10999 10996 ] final   87.01 input  -57.11 | X-H torsion

> <Gold.Protein.ActiveResidues>
 VAL166  LYS551  ARG553  GLY616  TRP617  ASP618  TYR619  PRO620  LYS621  CYS622 
 ASP623  PHE694  ASN695  SER759  ASP760  ASP761  ALA762  ILE779  LEU786  VAL792 
 PHE793  MET794  SER795  GLU796  ALA797  LYS798  CYS799  TRP800  GLU811  SER814 

> <Gold.Protein.RotatedAtoms>
  150.9815  134.9169  159.7846 H   0  0  0  0  0  0  0  0  0  0  0  0  # atno 6907 bound_to 6896
  152.5223  134.3404  159.9225 H   0  0  0  0  0  0  0  0  0  0  0  0  # atno 6908 bound_to 6896
  151.3411  133.3921  159.2706 H   0  0  0  0  0  0  0  0  0  0  0  0  # atno 6909 bound_to 6896
  145.6790  140.9195  143.0842 H   0  0  0  0  0  0  0  0  0  0  0  0  # atno 7974 bound_to 7965
  156.1535  140.1587  156.8730 H   0  0  0  0  0  0  0  0  0  0  0  0  # atno 8008 bound_to 7997
  154.5093  140.0805  156.7995 H   0  0  0  0  0  0  0  0  0  0  0  0  # atno 8009 bound_to 7997
  155.3848  140.3407  155.4250 H   0  0  0  0  0  0  0  0  0  0  0  0  # atno 8010 bound_to 7997
  140.3867  143.2723  151.9316 H   0  0  0  0  0  0  0  0  0  0  0  0  # atno 10167 bound_to 10162
  156.5440  130.4685  149.6484 H   0  0  0  0  0  0  0  0  0  0  0  0  # atno 10718 bound_to 10713
  153.3273  135.4043  155.1467 H   0  0  0  0  0  0  0  0  0  0  0  0  # atno 10763 bound_to 10752
  154.8615  135.3602  154.5516 H   0  0  0  0  0  0  0  0  0  0  0  0  # atno 10764 bound_to 10752
  153.5953  135.7072  153.5465 H   0  0  0  0  0  0  0  0  0  0  0  0  # atno 10765 bound_to 10752
  139.8930  134.8394  156.2800 H   0  0  0  0  0  0  0  0  0  0  0  0  # atno 11005 bound_to 11000
  144.7032  139.8671  143.7438 LP  0  0  0  0  0  0  0  0  0  0  0  0  # atno 17320 bound_to 7965
  146.0981  139.3974  143.0364 LP  0  0  0  0  0  0  0  0  0  0  0  0  # atno 17321 bound_to 7965
  139.4791  144.5766  151.8001 LP  0  0  0  0  0  0  0  0  0  0  0  0  # atno 17342 bound_to 10162
  140.4882  144.1350  150.5945 LP  0  0  0  0  0  0  0  0  0  0  0  0  # atno 17343 bound_to 10162
  156.2945  130.7143  151.2000 LP  0  0  0  0  0  0  0  0  0  0  0  0  # atno 17370 bound_to 10713
  157.7400  131.0522  150.5195 LP  0  0  0  0  0  0  0  0  0  0  0  0  # atno 17371 bound_to 10713
  141.0044  133.7132  156.1012 LP  0  0  0  0  0  0  0  0  0  0  0  0  # atno 17394 bound_to 11000
  140.7453  134.4105  157.5549 LP  0  0  0  0  0  0  0  0  0  0  0  0  # atno 17395 bound_to 11000

$$$$
