AV-unprocessed.smi:3253|AV-procd|sdf|12452|dock4
  -GOLD-   2272018343D 1   1.00000     0.00000
 Structure written by MMmdl.
 36 37  0  0  0  0  0  0  0  0  1 V2000
  151.0694  140.4123  158.2786 C   0  0  0  0  0  0  0  0  0  0  0  0
  150.3457  141.6780  157.7998 C   0  0  1  0  0  0  0  0  0  0  0  0
  151.3423  142.8221  157.5140 C   0  0  0  0  0  0  0  0  0  0  0  0
  151.2849  143.8791  158.5077 N   0  0  0  0  0  0  0  0  0  0  0  0
  152.3202  144.3214  159.3213 C   0  0  0  0  0  0  0  0  0  0  0  0
  151.8082  145.3428  160.0889 C   0  0  0  0  0  0  0  0  0  0  0  0
  150.4662  145.5393  159.7725 N   0  0  0  0  0  0  0  0  0  0  0  0
  150.2269  144.6354  158.8311 C   0  0  0  0  0  0  0  0  0  0  0  0
  149.5675  141.3585  156.6034 N   0  0  0  0  0  0  0  0  0  0  0  0
  150.0264  140.7047  155.5242 C   0  0  0  0  0  0  0  0  0  0  0  0
  151.1958  140.3387  155.4001 O   0  0  0  0  0  0  0  0  0  0  0  0
  148.9986  140.3887  154.4274 C   0  0  1  0  0  0  0  0  0  0  0  0
  147.7357  139.7145  155.0020 C   0  0  0  0  0  0  0  0  0  0  0  0
  146.6518  140.7673  154.8373 C   0  0  0  0  0  0  0  0  0  0  0  0
  145.5146  140.6316  155.2865 O   0  0  0  0  0  0  0  0  0  0  0  0
  147.1122  141.8257  154.1648 N   0  0  0  0  0  0  0  0  0  0  0  0
  146.3563  143.0295  153.8477 C   0  0  0  0  0  0  0  0  0  0  0  0
  148.4895  141.6694  153.7309 C   0  0  0  0  0  0  0  0  0  0  0  0
  151.6448  140.6092  159.1836 H   0  0  0  0  0  0  0  0  0  0  0  0
  151.7588  140.0370  157.5217 H   0  0  0  0  0  0  0  0  0  0  0  0
  150.3594  139.6169  158.5076 H   0  0  0  0  0  0  0  0  0  0  0  0
  149.6788  141.9897  158.6056 H   0  0  0  0  0  0  0  0  0  0  0  0
  152.3621  142.4353  157.4962 H   0  0  0  0  0  0  0  0  0  0  0  0
  151.1560  143.2558  156.5305 H   0  0  0  0  0  0  0  0  0  0  0  0
  153.3100  143.8914  159.2813 H   0  0  0  0  0  0  0  0  0  0  0  0
  152.2982  145.9464  160.8385 H   0  0  0  0  0  0  0  0  0  0  0  0
  149.2616  144.5268  158.3587 H   0  0  0  0  0  0  0  0  0  0  0  0
  148.5923  141.6199  156.6152 H   0  0  0  0  0  0  0  0  0  0  0  0
  149.4598  139.7311  153.6883 H   0  0  0  0  0  0  0  0  0  0  0  0
  147.4686  138.8275  154.4271 H   0  0  0  0  0  0  0  0  0  0  0  0
  147.8302  139.4207  156.0487 H   0  0  0  0  0  0  0  0  0  0  0  0
  145.4282  142.7779  153.3334 H   0  0  0  0  0  0  0  0  0  0  0  0
  146.9301  143.6949  153.2020 H   0  0  0  0  0  0  0  0  0  0  0  0
  146.1085  143.5729  154.7601 H   0  0  0  0  0  0  0  0  0  0  0  0
  149.0736  142.5562  153.9846 H   0  0  0  0  0  0  0  0  0  0  0  0
  148.5162  141.5572  152.6462 H   0  0  0  0  0  0  0  0  0  0  0  0
  1  2  1  0  0  0  0
  1 19  1  0  0  0  0
  1 20  1  0  0  0  0
  1 21  1  0  0  0  0
  2  3  1  0  0  0  0
  2  9  1  0  0  0  0
  2 22  1  0  0  0  0
  3  4  1  0  0  0  0
  3 23  1  0  0  0  0
  3 24  1  0  0  0  0
  4  8  1  0  0  0  0
  4  5  1  0  0  0  0
  5  6  2  0  0  0  0
  5 25  1  0  0  0  0
  6  7  1  0  0  0  0
  6 26  1  0  0  0  0
  7  8  2  0  0  0  0
  8 27  1  0  0  0  0
  9 10  1  0  0  0  0
  9 28  1  0  0  0  0
 10 11  2  0  0  0  0
 10 12  1  0  0  0  0
 12 18  1  0  0  0  0
 12 13  1  0  0  0  0
 12 29  1  0  0  0  0
 13 14  1  0  0  0  0
 13 30  1  0  0  0  0
 13 31  1  0  0  0  0
 14 15  2  0  0  0  0
 14 16  1  0  0  0  0
 16 17  1  0  0  0  0
 16 18  1  0  0  0  0
 17 32  1  0  0  0  0
 17 33  1  0  0  0  0
 17 34  1  0  0  0  0
 18 35  1  0  0  0  0
 18 36  1  0  0  0  0
M  END
> <s_m_source_file>
AV-unprocessed.smi

> <i_m_source_file_index>
3253

> <i_lp_mmshare_version>
43012

> <i_f3d_flags>
0

> <s_epik_input>
W2NIXTFuW2NIXVtjSF1uMVtDSDJdW0NAQEhdKFtDSDNdKVtOSF1DKD1PKVtDQEBIXTJbQ0gyXUMoPU8pTihbQ0gzXSlbQ0gyXTI=

> <s_epik_cmdline>
J2VwaWtfcHl0aG9uJywgJy1waCcsICc3LjAnLCAnLXRuJywgJzgnLCAnLW1hJywgJzIwMCcsICctbWV0YWxfYmluZGluZycsICctaW1hZScsICc8aW5maWxlLm1hZT4nLCAnLW9tYWUnLCAnPG91dGZpbGUubWFlPic=

> <r_lp_tautomer_probability>
1

> <r_epik_Ionization_Penalty>
0.628884

> <r_epik_Ionization_Penalty_Charging>
0.628884

> <r_epik_Ionization_Penalty_Neutral>
2.35084e-08

> <r_epik_State_Penalty>
0.64556

> <r_epik_Charging_Adjusted_Penalty>
1.27444

> <i_epik_Tot_Q>
0

> <i_epik_Tot_abs_Q>
0

> <r_epik_Metal_State_Penalty>
0.308736

> <b_epik_Metal_Only>
0

> <s_lp_Force_Field>
OPLS_2005

> <r_lp_Energy>
12.6198

> <b_lp_Chiralities_Consistent>
1

> <s_lp_Variant>
AV-unprocessed.smi:3253-8

> <Gold.Version>
5.8.1

> <Gold.Id.Protein>
6NUR|6NUR_protein|mol2

> <Gold.PLP.Fitness>
41.5488

> <Gold.PLP.PLP>
-37.3730

> <Gold.PLP.part.hbond>
-1.7703

> <Gold.PLP.part.metal>
0.0000

> <Gold.PLP.part.buried>
-4.4338

> <Gold.PLP.part.nonpolar>
-32.1899

> <Gold.PLP.part.repulsive>
0.3469

> <Gold.PLP.ligand.clash>
0.0000

> <Gold.PLP.ligand.torsion>
0.9423

> <Gold.PLP.Chemscore.Hbond>
0.9760

> <Gold.PLP.Chemscore.CHOScore>
1.0337

> <Gold.PLP.Chemscore.Metal>
0.0000

> <Gold.Chemscore.Hbonds>
donor molecule, donor type, donor heavy atom, donor atom, acceptor molecule, acceptor atom, score
      P1  H  7989  7998       L1    11  0.99
      L1  C     8    27       P1  8028  0.04
      L1  C     8    27       P1  8029  1.00

> <Gold.PLP.Chemscore.Internal.Correction>
0.0312

> <Gold.Rescore>
     Score         DG    S(hbond)    S(metal)    S(lipo)     H(rot)  DE(clash)    DE(int)     intcor
      9.40     -11.57       0.93        0.00      68.53       1.97       0.03       2.14       ----

> <Gold.Chemscore.Fitness>
9.4049

> <Gold.Chemscore.DG>
-11.5749

> <Gold.Chemscore.ZeroCoef>
-5.4800

> <Gold.Chemscore.Hbond>
0.9319

> <Gold.Chemscore.Metal>
0.0000

> <Gold.Chemscore.Lipo>
68.5255

> <Gold.Chemscore.Internal_Hbond>
0.0000

> <Gold.Chemscore.DEClash>
0.0311

> <Gold.Chemscore.DEInternal>
2.1389

> <Gold.Chemscore.Rot>
1.9669

> <Gold.Chemscore.Internal.Correction>
   9.000000E+99

> <Gold.Chemscore.Hbonds>
donor molecule, donor type, donor heavy atom, donor atom, acceptor molecule, acceptor atom, score
      P1  H  7989  7998       L1    11  0.35

> <Gold.Chemscore.Hbond.Weighted>
-3.1125

> <Gold.Chemscore.Metal.Weighted>
-0.0000

> <Gold.Chemscore.Lipo.Weighted>
-8.0175

> <Gold.Chemscore.Internal_Hbond.Weighted>
0.0000

> <Gold.Chemscore.DEClash.Weighted>
0.0311

> <Gold.Chemscore.DEInternal.Weighted>
2.1389

> <Gold.Chemscore.Rot.Weighted>
5.0352

> <Gold.Chemscore.Internal.Correction.Weighted>
   9.000000E+99

> <Gold.Protein.RotatedTorsions>
[ 6907 6896 6895 6894 ] final  128.45 input  -60.11 | X-H torsion
[ 7974 7965 7964 7962 ] final  -15.23 input  175.53 | X-H torsion
[ 8008 7997 7996 7995 ] final -132.93 input   59.86 | X-H torsion
[ 10167 10162 10161 10158 ] final  113.84 input  -65.29 | X-H torsion
[ 10718 10713 10712 10709 ] final   92.43 input   66.30 | X-H torsion
[ 10763 10752 10751 10750 ] final  142.40 input  -60.55 | X-H torsion
[ 11005 11000 10999 10996 ] final   55.32 input  -57.11 | X-H torsion

> <Gold.Protein.ActiveResidues>
 VAL166  LYS551  ARG553  GLY616  TRP617  ASP618  TYR619  PRO620  LYS621  CYS622 
 ASP623  PHE694  ASN695  SER759  ASP760  ASP761  ALA762  ILE779  LEU786  VAL792 
 PHE793  MET794  SER795  GLU796  ALA797  LYS798  CYS799  TRP800  GLU811  SER814 

> <Gold.Protein.RotatedAtoms>
  152.3718  133.6429  159.6092 H   0  0  0  0  0  0  0  0  0  0  0  0  # atno 6907 bound_to 6896
  150.7674  133.9258  159.3420 H   0  0  0  0  0  0  0  0  0  0  0  0  # atno 6908 bound_to 6896
  151.7079  135.0919  160.0314 H   0  0  0  0  0  0  0  0  0  0  0  0  # atno 6909 bound_to 6896
  146.2041  140.3463  142.8413 H   0  0  0  0  0  0  0  0  0  0  0  0  # atno 7974 bound_to 7965
  155.3371  140.0470  157.3044 H   0  0  0  0  0  0  0  0  0  0  0  0  # atno 8008 bound_to 7997
  154.5297  140.2253  155.8791 H   0  0  0  0  0  0  0  0  0  0  0  0  # atno 8009 bound_to 7997
  156.1776  140.3081  155.9094 H   0  0  0  0  0  0  0  0  0  0  0  0  # atno 8010 bound_to 7997
  139.6432  144.7125  151.2195 H   0  0  0  0  0  0  0  0  0  0  0  0  # atno 10167 bound_to 10162
  157.6958  131.0443  150.3880 H   0  0  0  0  0  0  0  0  0  0  0  0  # atno 10718 bound_to 10713
  153.9553  135.2966  155.3436 H   0  0  0  0  0  0  0  0  0  0  0  0  # atno 10763 bound_to 10752
  154.7404  135.5027  153.9117 H   0  0  0  0  0  0  0  0  0  0  0  0  # atno 10764 bound_to 10752
  153.0974  135.6725  153.9847 H   0  0  0  0  0  0  0  0  0  0  0  0  # atno 10765 bound_to 10752
  140.0616  134.5594  155.9145 H   0  0  0  0  0  0  0  0  0  0  0  0  # atno 11005 bound_to 11000
  144.8750  140.7324  143.6023 LP  0  0  0  0  0  0  0  0  0  0  0  0  # atno 17320 bound_to 7965
  145.3383  139.1739  143.4500 LP  0  0  0  0  0  0  0  0  0  0  0  0  # atno 17321 bound_to 7965
  140.7501  143.6276  150.8454 LP  0  0  0  0  0  0  0  0  0  0  0  0  # atno 17342 bound_to 10162
  139.9915  143.5841  152.2908 LP  0  0  0  0  0  0  0  0  0  0  0  0  # atno 17343 bound_to 10162
  156.4287  130.3967  149.6775 LP  0  0  0  0  0  0  0  0  0  0  0  0  # atno 17370 bound_to 10713
  156.4000  130.7670  151.2677 LP  0  0  0  0  0  0  0  0  0  0  0  0  # atno 17371 bound_to 10713
  141.1975  133.6597  156.5747 LP  0  0  0  0  0  0  0  0  0  0  0  0  # atno 17394 bound_to 11000
  140.3761  134.7563  157.4631 LP  0  0  0  0  0  0  0  0  0  0  0  0  # atno 17395 bound_to 11000

$$$$
