AV-unprocessed.smi:156|AV-procd|sdf|1290|dock10
  -GOLD-   2262018573D 1   1.00000     0.00000
 Structure written by MMmdl.
 51 53  0  0  0  0  0  0  0  0  1 V2000
  146.8848  139.5864  156.1636 C   0  0  0  0  0  0  0  0  0  0  0  0
  147.7958  138.6991  155.2939 C   0  0  1  0  0  0  0  0  0  0  0  0
  149.2835  138.6405  155.7486 C   0  0  1  0  0  0  0  0  0  0  0  0
  150.0014  137.4236  155.1317 C   0  0  0  0  0  0  0  0  0  0  0  0
  150.1941  140.2048  155.3108 S   0  0  0  0  0  0  0  0  0  0  0  0
  150.6324  140.9291  156.9470 C   0  0  0  0  0  0  0  0  0  0  0  0
  151.4429  139.8430  154.6231 O   0  0  0  0  0  0  0  0  0  0  0  0
  149.2515  141.1301  154.6635 O   0  0  0  0  0  0  0  0  0  0  0  0
  147.2062  137.3576  155.1716 N   0  0  0  0  0  0  0  0  0  0  0  0
  146.9562  136.5471  156.3597 C   0  0  0  0  0  0  0  0  0  0  0  0
  146.5450  137.0454  154.0256 C   0  0  0  0  0  0  0  0  0  0  0  0
  146.4687  137.9949  153.0562 N   0  0  0  0  0  0  0  0  0  0  0  0
  145.8405  137.7424  151.9051 C   0  0  0  0  0  0  0  0  0  0  0  0
  145.2243  136.6246  151.5200 N   0  0  0  0  0  0  0  0  0  0  0  0
  145.2893  135.6659  152.4878 C   0  0  0  0  0  0  0  0  0  0  0  0
  145.9304  135.7860  153.7547 C   0  0  0  0  0  0  0  0  0  0  0  0
  145.7863  134.5969  154.4617 N   0  0  0  0  0  0  0  0  0  0  0  0
  145.1083  133.8225  153.6606 C   0  0  0  0  0  0  0  0  0  0  0  0
  144.7491  134.3910  152.4598 N   0  0  0  0  0  0  0  0  0  0  0  0
  143.9897  133.7661  151.3851 C   0  0  0  0  0  0  0  0  0  0  0  0
  144.7409  132.6582  150.6095 C   0  0  0  0  0  0  0  0  0  0  0  0
  144.1030  132.6132  149.2098 C   0  0  0  0  0  0  0  0  0  0  0  0
  142.8102  132.0412  149.2117 O   0  0  0  0  0  0  0  0  0  0  0  0
  146.2774  132.7084  150.6818 C   0  0  0  0  0  0  0  0  0  0  0  0
  146.3162  131.6487  151.6628 O   0  0  0  0  0  0  0  0  0  0  0  0
  144.9496  131.3153  151.3339 C   0  0  0  0  0  0  0  0  0  0  0  0
  147.1448  140.6408  156.0793 H   0  0  0  0  0  0  0  0  0  0  0  0
  146.9364  139.3059  157.2159 H   0  0  0  0  0  0  0  0  0  0  0  0
  145.8444  139.5009  155.8477 H   0  0  0  0  0  0  0  0  0  0  0  0
  147.8010  139.1765  154.3141 H   0  0  0  0  0  0  0  0  0  0  0  0
  149.3343  138.5617  156.8339 H   0  0  0  0  0  0  0  0  0  0  0  0
  149.4798  136.4928  155.3542 H   0  0  0  0  0  0  0  0  0  0  0  0
  151.0101  137.3058  155.5237 H   0  0  0  0  0  0  0  0  0  0  0  0
  150.0676  137.5126  154.0471 H   0  0  0  0  0  0  0  0  0  0  0  0
  151.0397  141.9288  156.7963 H   0  0  0  0  0  0  0  0  0  0  0  0
  151.3861  140.3154  157.4387 H   0  0  0  0  0  0  0  0  0  0  0  0
  149.7413  140.9947  157.5708 H   0  0  0  0  0  0  0  0  0  0  0  0
  146.8370  135.4956  156.0965 H   0  0  0  0  0  0  0  0  0  0  0  0
  146.0531  136.8823  156.8701 H   0  0  0  0  0  0  0  0  0  0  0  0
  147.7830  136.6123  157.0653 H   0  0  0  0  0  0  0  0  0  0  0  0
  145.8288  138.5533  151.1920 H   0  0  0  0  0  0  0  0  0  0  0  0
  144.8476  132.8098  153.9301 H   0  0  0  0  0  0  0  0  0  0  0  0
  143.0700  133.3721  151.8196 H   0  0  0  0  0  0  0  0  0  0  0  0
  143.6764  134.5566  150.7018 H   0  0  0  0  0  0  0  0  0  0  0  0
  144.0223  133.6165  148.7897 H   0  0  0  0  0  0  0  0  0  0  0  0
  144.7209  132.0346  148.5223 H   0  0  0  0  0  0  0  0  0  0  0  0
  142.1746  132.7310  149.0958 H   0  0  0  0  0  0  0  0  0  0  0  0
  146.7858  132.4193  149.7611 H   0  0  0  0  0  0  0  0  0  0  0  0
  146.6838  133.6473  151.0544 H   0  0  0  0  0  0  0  0  0  0  0  0
  144.3274  131.1636  152.2140 H   0  0  0  0  0  0  0  0  0  0  0  0
  144.8980  130.4399  150.6853 H   0  0  0  0  0  0  0  0  0  0  0  0
  1  2  1  0  0  0  0
  1 27  1  0  0  0  0
  1 28  1  0  0  0  0
  1 29  1  0  0  0  0
  2  3  1  0  0  0  0
  2  9  1  0  0  0  0
  2 30  1  0  0  0  0
  3  4  1  0  0  0  0
  3  5  1  0  0  0  0
  3 31  1  0  0  0  0
  4 32  1  0  0  0  0
  4 33  1  0  0  0  0
  4 34  1  0  0  0  0
  5  6  1  0  0  0  0
  5  7  2  0  0  0  0
  5  8  2  0  0  0  0
  6 35  1  0  0  0  0
  6 36  1  0  0  0  0
  6 37  1  0  0  0  0
  9 10  1  0  0  0  0
  9 11  1  0  0  0  0
 10 38  1  0  0  0  0
 10 39  1  0  0  0  0
 10 40  1  0  0  0  0
 11 16  1  0  0  0  0
 11 12  2  0  0  0  0
 12 13  1  0  0  0  0
 13 14  2  0  0  0  0
 13 41  1  0  0  0  0
 14 15  1  0  0  0  0
 15 19  1  0  0  0  0
 15 16  2  0  0  0  0
 16 17  1  0  0  0  0
 17 18  2  0  0  0  0
 18 19  1  0  0  0  0
 18 42  1  0  0  0  0
 19 20  1  0  0  0  0
 20 21  1  0  0  0  0
 20 43  1  0  0  0  0
 20 44  1  0  0  0  0
 21 26  1  0  0  0  0
 21 22  1  0  0  0  0
 21 24  1  0  0  0  0
 22 23  1  0  0  0  0
 22 45  1  0  0  0  0
 22 46  1  0  0  0  0
 23 47  1  0  0  0  0
 24 25  1  0  0  0  0
 24 48  1  0  0  0  0
 24 49  1  0  0  0  0
 25 26  1  0  0  0  0
 26 50  1  0  0  0  0
 26 51  1  0  0  0  0
M  END
> <s_m_source_file>
AV-unprocessed.smi

> <i_m_source_file_index>
156

> <i_lp_mmshare_version>
43012

> <i_f3d_flags>
0

> <s_epik_input>
W0NIM11TKD1PKSg9TylbQ0BASF0oW0NIM10pW0NAQEhdKFtDSDNdKU4oW0NIM10pYyhuW2NIXW4xKWMoYzEyKW5bY0hdbjJbQ0gyXUMzKFtDSDJdW09IXSlbQ0gyXU9bQ0gyXTM=

> <s_epik_cmdline>
J2VwaWtfcHl0aG9uJywgJy1waCcsICc3LjAnLCAnLXRuJywgJzgnLCAnLW1hJywgJzIwMCcsICctbWV0YWxfYmluZGluZycsICctaW1hZScsICc8aW5maWxlLm1hZT4nLCAnLW9tYWUnLCAnPG91dGZpbGUubWFlPic=

> <r_lp_tautomer_probability>
1

> <r_epik_Ionization_Penalty>
0.00107697

> <r_epik_Ionization_Penalty_Charging>
0

> <r_epik_Ionization_Penalty_Neutral>
0.00107697

> <r_epik_State_Penalty>
0.000614712

> <r_epik_Charging_Adjusted_Penalty>
0.000614712

> <i_epik_Tot_Q>
0

> <i_epik_Tot_abs_Q>
0

> <r_epik_Metal_State_Penalty>
-0

> <b_epik_Metal_Only>
0

> <s_lp_Force_Field>
OPLS_2005

> <r_lp_Energy>
27.5373

> <b_lp_Chiralities_Consistent>
1

> <s_lp_Variant>
AV-unprocessed.smi:156-4

> <Gold.Version>
5.8.1

> <Gold.Id.Protein>
6NUR|6NUR_protein|mol2

> <Gold.PLP.Fitness>
42.9751

> <Gold.PLP.PLP>
-31.0128

> <Gold.PLP.part.hbond>
-4.2102

> <Gold.PLP.part.metal>
0.0000

> <Gold.PLP.part.buried>
-7.9740

> <Gold.PLP.part.nonpolar>
-22.9910

> <Gold.PLP.part.repulsive>
1.6723

> <Gold.PLP.ligand.clash>
0.0000

> <Gold.PLP.ligand.torsion>
1.4975

> <Gold.PLP.Chemscore.Hbond>
2.9425

> <Gold.PLP.Chemscore.CHOScore>
1.6631

> <Gold.PLP.Chemscore.Metal>
0.0000

> <Gold.Chemscore.Hbonds>
donor molecule, donor type, donor heavy atom, donor atom, acceptor molecule, acceptor atom, score
      L1  H    23    47       P1 10186  0.84
      P1  H  7989  7998       L1     7  0.99
      P1  H 10785 10796       L1    23  1.00
      L1  C    13    41       P1 10171  0.69
      L1  C    18    42       P1 10957  0.94

> <Gold.PLP.Chemscore.Internal.Correction>
1.1403

> <Gold.Rescore>
     Score         DG    S(hbond)    S(metal)    S(lipo)     H(rot)  DE(clash)    DE(int)     intcor
      8.96     -11.86       2.53        0.00      52.74       3.21       0.06       2.84       ----

> <Gold.Chemscore.Fitness>
8.9597

> <Gold.Chemscore.DG>
-11.8649

> <Gold.Chemscore.ZeroCoef>
-5.4800

> <Gold.Chemscore.Hbond>
2.5257

> <Gold.Chemscore.Metal>
0.0000

> <Gold.Chemscore.Lipo>
52.7398

> <Gold.Chemscore.Internal_Hbond>
0.0000

> <Gold.Chemscore.DEClash>
0.0640

> <Gold.Chemscore.DEInternal>
2.8412

> <Gold.Chemscore.Rot>
3.2115

> <Gold.Chemscore.Internal.Correction>
   9.000000E+99

> <Gold.Chemscore.Hbonds>
donor molecule, donor type, donor heavy atom, donor atom, acceptor molecule, acceptor atom, score
      L1  H    23    47       P1 10186  0.84
      P1  H  7989  7998       L1     7  0.56
      P1  H 10785 10796       L1    23  0.34

> <Gold.Chemscore.Hbond.Weighted>
-8.4359

> <Gold.Chemscore.Metal.Weighted>
-0.0000

> <Gold.Chemscore.Lipo.Weighted>
-6.1706

> <Gold.Chemscore.Internal_Hbond.Weighted>
0.0000

> <Gold.Chemscore.DEClash.Weighted>
0.0640

> <Gold.Chemscore.DEInternal.Weighted>
2.8412

> <Gold.Chemscore.Rot.Weighted>
8.2215

> <Gold.Chemscore.Internal.Correction.Weighted>
   9.000000E+99

> <Gold.Protein.RotatedTorsions>
[ 6907 6896 6895 6894 ] final  158.20 input  -60.11 | X-H torsion
[ 7974 7965 7964 7962 ] final   50.87 input  175.53 | X-H torsion
[ 8008 7997 7996 7995 ] final   -1.41 input   59.86 | X-H torsion
[ 10167 10162 10161 10158 ] final  -42.09 input  -65.29 | X-H torsion
[ 10718 10713 10712 10709 ] final  107.77 input   66.30 | X-H torsion
[ 10763 10752 10751 10750 ] final   28.82 input  -60.55 | X-H torsion
[ 11005 11000 10999 10996 ] final  -92.03 input  -57.11 | X-H torsion

> <Gold.Protein.ActiveResidues>
 VAL166  LYS551  ARG553  GLY616  TRP617  ASP618  TYR619  PRO620  LYS621  CYS622 
 ASP623  PHE694  ASN695  SER759  ASP760  ASP761  ALA762  ILE779  LEU786  VAL792 
 PHE793  MET794  SER795  GLU796  ALA797  LYS798  CYS799  TRP800  GLU811  SER814 

> <Gold.Protein.RotatedAtoms>
  152.0039  133.3836  159.4192 H   0  0  0  0  0  0  0  0  0  0  0  0  # atno 6907 bound_to 6896
  150.6907  134.3804  159.5040 H   0  0  0  0  0  0  0  0  0  0  0  0  # atno 6908 bound_to 6896
  152.1555  134.8954  160.0596 H   0  0  0  0  0  0  0  0  0  0  0  0  # atno 6909 bound_to 6896
  145.9970  139.4398  143.0038 H   0  0  0  0  0  0  0  0  0  0  0  0  # atno 7974 bound_to 7965
  154.6471  140.2560  155.7255 H   0  0  0  0  0  0  0  0  0  0  0  0  # atno 8008 bound_to 7997
  156.2557  140.2875  156.0810 H   0  0  0  0  0  0  0  0  0  0  0  0  # atno 8009 bound_to 7997
  155.1507  140.0382  157.2810 H   0  0  0  0  0  0  0  0  0  0  0  0  # atno 8010 bound_to 7997
  140.6981  143.3057  151.3159 H   0  0  0  0  0  0  0  0  0  0  0  0  # atno 10167 bound_to 10162
  157.6614  131.0880  150.6206 H   0  0  0  0  0  0  0  0  0  0  0  0  # atno 10718 bound_to 10713
  153.0468  135.6504  154.0796 H   0  0  0  0  0  0  0  0  0  0  0  0  # atno 10763 bound_to 10752
  154.0493  135.2897  155.3344 H   0  0  0  0  0  0  0  0  0  0  0  0  # atno 10764 bound_to 10752
  154.6731  135.5349  153.8229 H   0  0  0  0  0  0  0  0  0  0  0  0  # atno 10765 bound_to 10752
  141.1531  133.7794  156.9962 H   0  0  0  0  0  0  0  0  0  0  0  0  # atno 11005 bound_to 11000
  145.7545  140.9959  143.1233 LP  0  0  0  0  0  0  0  0  0  0  0  0  # atno 17320 bound_to 7965
  144.6907  139.9255  143.7469 LP  0  0  0  0  0  0  0  0  0  0  0  0  # atno 17321 bound_to 7965
  139.6462  144.0446  152.2592 LP  0  0  0  0  0  0  0  0  0  0  0  0  # atno 17342 bound_to 10162
  139.9968  144.6322  150.7765 LP  0  0  0  0  0  0  0  0  0  0  0  0  # atno 17343 bound_to 10162
  156.6509  130.4485  149.5720 LP  0  0  0  0  0  0  0  0  0  0  0  0  # atno 17370 bound_to 10713
  156.2138  130.6695  151.1297 LP  0  0  0  0  0  0  0  0  0  0  0  0  # atno 17371 bound_to 10713
  140.0970  134.9558  157.1864 LP  0  0  0  0  0  0  0  0  0  0  0  0  # atno 17394 bound_to 11000
  140.3369  134.2747  155.7218 LP  0  0  0  0  0  0  0  0  0  0  0  0  # atno 17395 bound_to 11000

$$$$
