AV-unprocessed.smi:2547|AV-procd|sdf|10002|dock9
  -GOLD-   2272014 53D 1   1.00000     0.00000
 Structure written by MMmdl.
 44 45  0  0  0  0  0  0  0  0  2 V2000
  146.5282  138.6239  152.1373 C   0  0  0  0  0  0  0  0  0  0  0  0
  146.2490  139.5400  153.2638 N   0  3  2  0  0  0  0  0  0  0  0  0
  147.0579  140.7824  153.1956 C   0  0  0  0  0  0  0  0  0  0  0  0
  146.6542  141.7703  154.3056 C   0  0  0  0  0  0  0  0  0  0  0  0
  146.7361  141.1335  155.7046 C   0  0  2  0  0  0  0  0  0  0  0  0
  148.1316  140.9393  156.0981 N   0  0  0  0  0  0  0  0  0  0  0  0
  148.7372  141.5490  157.1280 C   0  0  0  0  0  0  0  0  0  0  0  0
  148.1658  142.3450  157.8739 O   0  0  0  0  0  0  0  0  0  0  0  0
  150.0245  141.1729  157.2279 N   0  0  0  0  0  0  0  0  0  0  0  0
  150.9871  141.5912  158.1848 C   0  0  0  0  0  0  0  0  0  0  0  0
  150.8881  142.9391  158.5882 C   0  0  0  0  0  0  0  0  0  0  0  0
  151.8009  143.4410  159.5328 C   0  0  0  0  0  0  0  0  0  0  0  0
  152.7883  142.5838  160.0502 C   0  0  0  0  0  0  0  0  0  0  0  0
  152.8323  141.2412  159.6037 C   0  0  0  0  0  0  0  0  0  0  0  0
  153.8009  140.3316  160.0858 N   0  0  0  0  0  0  0  0  0  0  0  0
  153.7206  138.9229  159.7117 C   0  0  0  0  0  0  0  0  0  0  0  0
  154.8046  140.7720  161.0466 C   0  0  0  0  0  0  0  0  0  0  0  0
  151.9440  140.7768  158.6914 N   0  0  0  0  0  0  0  0  0  0  0  0
  145.9444  139.8098  155.7224 C   0  0  0  0  0  0  0  0  0  0  0  0
  146.3695  138.8684  154.5815 C   0  0  0  0  0  0  0  0  0  0  0  0
  147.5602  138.2716  152.1656 H   0  0  0  0  0  0  0  0  0  0  0  0
  146.3635  139.1254  151.1832 H   0  0  0  0  0  0  0  0  0  0  0  0
  145.8686  137.7562  152.1739 H   0  0  0  0  0  0  0  0  0  0  0  0
  148.1171  140.5335  153.2756 H   0  0  0  0  0  0  0  0  0  0  0  0
  146.9179  141.2553  152.2227 H   0  0  0  0  0  0  0  0  0  0  0  0
  147.2779  142.6639  154.2588 H   0  0  0  0  0  0  0  0  0  0  0  0
  145.6318  142.1063  154.1265 H   0  0  0  0  0  0  0  0  0  0  0  0
  146.2808  141.8251  156.4162 H   0  0  0  0  0  0  0  0  0  0  0  0
  148.6803  140.3052  155.5362 H   0  0  0  0  0  0  0  0  0  0  0  0
  150.3559  140.5117  156.5416 H   0  0  0  0  0  0  0  0  0  0  0  0
  150.1239  143.5854  158.1816 H   0  0  0  0  0  0  0  0  0  0  0  0
  151.7449  144.4699  159.8563 H   0  0  0  0  0  0  0  0  0  0  0  0
  153.4887  142.9716  160.7741 H   0  0  0  0  0  0  0  0  0  0  0  0
  152.7961  138.4805  160.0837 H   0  0  0  0  0  0  0  0  0  0  0  0
  154.5539  138.3533  160.1231 H   0  0  0  0  0  0  0  0  0  0  0  0
  153.7462  138.8107  158.6272 H   0  0  0  0  0  0  0  0  0  0  0  0
  154.3290  141.1734  161.9419 H   0  0  0  0  0  0  0  0  0  0  0  0
  155.4396  141.5439  160.6111 H   0  0  0  0  0  0  0  0  0  0  0  0
  155.4482  139.9475  161.3537 H   0  0  0  0  0  0  0  0  0  0  0  0
  146.0544  139.3064  156.6837 H   0  0  0  0  0  0  0  0  0  0  0  0
  144.8809  140.0305  155.6217 H   0  0  0  0  0  0  0  0  0  0  0  0
  145.7408  137.9772  154.5954 H   0  0  0  0  0  0  0  0  0  0  0  0
  147.3969  138.5319  154.7302 H   0  0  0  0  0  0  0  0  0  0  0  0
  145.2828  139.8199  153.1715 H   0  0  0  0  0  0  0  0  0  0  0  0
  1  2  1  0  0  0  0
  1 21  1  0  0  0  0
  1 22  1  0  0  0  0
  1 23  1  0  0  0  0
  2 20  1  0  0  0  0
  2  3  1  0  0  0  0
  2 44  1  0  0  0  0
  3  4  1  0  0  0  0
  3 24  1  0  0  0  0
  3 25  1  0  0  0  0
  4  5  1  0  0  0  0
  4 26  1  0  0  0  0
  4 27  1  0  0  0  0
  5  6  1  0  0  0  0
  5 19  1  0  0  0  0
  5 28  1  0  0  0  0
  6  7  1  0  0  0  0
  6 29  1  0  0  0  0
  7  8  2  0  0  0  0
  7  9  1  0  0  0  0
  9 10  1  0  0  0  0
  9 30  1  0  0  0  0
 10 18  1  0  0  0  0
 10 11  2  0  0  0  0
 11 12  1  0  0  0  0
 11 31  1  0  0  0  0
 12 13  2  0  0  0  0
 12 32  1  0  0  0  0
 13 14  1  0  0  0  0
 13 33  1  0  0  0  0
 14 15  1  0  0  0  0
 14 18  2  0  0  0  0
 15 16  1  0  0  0  0
 15 17  1  0  0  0  0
 16 34  1  0  0  0  0
 16 35  1  0  0  0  0
 16 36  1  0  0  0  0
 17 37  1  0  0  0  0
 17 38  1  0  0  0  0
 17 39  1  0  0  0  0
 19 20  1  0  0  0  0
 19 40  1  0  0  0  0
 19 41  1  0  0  0  0
 20 42  1  0  0  0  0
 20 43  1  0  0  0  0
M  CHG  1   2   1
M  END
> <s_m_source_file>
AV-unprocessed.smi

> <i_m_source_file_index>
2547

> <i_lp_mmshare_version>
43012

> <i_f3d_flags>
0

> <s_epik_input>
W0NIM11OMVtDSDJdW0NIMl1bQ0hdKFtDSDJdW0NIMl0xKVtOSF1DKD1PKVtOSF1jMltjSF1bY0hdW2NIXWMobjIpTihbQ0gzXSlbQ0gzXQ==

> <s_epik_cmdline>
J2VwaWtfcHl0aG9uJywgJy1waCcsICc3LjAnLCAnLXRuJywgJzgnLCAnLW1hJywgJzIwMCcsICctbWV0YWxfYmluZGluZycsICctaW1hZScsICc8aW5maWxlLm1hZT4nLCAnLW9tYWUnLCAnPG91dGZpbGUubWFlPic=

> <r_lp_tautomer_probability>
1

> <r_epik_Ionization_Penalty>
0.0212039

> <r_epik_Ionization_Penalty_Charging>
0.00366825

> <r_epik_Ionization_Penalty_Neutral>
0.0175357

> <r_epik_State_Penalty>
0.0137702

> <r_epik_Charging_Adjusted_Penalty>
0.0174385

> <i_epik_Tot_Q>
1

> <i_epik_Tot_abs_Q>
1

> <r_epik_Metal_State_Penalty>
0.0148742

> <b_epik_Metal_Only>
0

> <s_lp_Force_Field>
OPLS_2005

> <r_lp_Energy>
18.1173

> <b_lp_Chiralities_Consistent>
1

> <s_lp_Variant>
AV-unprocessed.smi:2547-2

> <Gold.Version>
5.8.1

> <Gold.Id.Protein>
6NUR|6NUR_protein|mol2

> <Gold.PLP.Fitness>
40.4177

> <Gold.PLP.PLP>
-34.9694

> <Gold.PLP.part.hbond>
-1.0000

> <Gold.PLP.part.metal>
0.0000

> <Gold.PLP.part.buried>
-5.0324

> <Gold.PLP.part.nonpolar>
-30.0126

> <Gold.PLP.part.repulsive>
0.9641

> <Gold.PLP.ligand.clash>
0.0000

> <Gold.PLP.ligand.torsion>
0.2814

> <Gold.PLP.Chemscore.Hbond>
2.0000

> <Gold.PLP.Chemscore.CHOScore>
0.0000

> <Gold.PLP.Chemscore.Metal>
0.0000

> <Gold.Chemscore.Hbonds>
donor molecule, donor type, donor heavy atom, donor atom, acceptor molecule, acceptor atom, score
      L1  H     2    44       P1 10175  2.00

> <Gold.PLP.Chemscore.Internal.Correction>
0.0112

> <Gold.Rescore>
     Score         DG    S(hbond)    S(metal)    S(lipo)     H(rot)  DE(clash)    DE(int)     intcor
     13.45     -15.02       1.00        0.00      74.88       1.00       0.00       1.57       ----

> <Gold.Chemscore.Fitness>
13.4453

> <Gold.Chemscore.DG>
-15.0208

> <Gold.Chemscore.ZeroCoef>
-5.4800

> <Gold.Chemscore.Hbond>
0.9999

> <Gold.Chemscore.Metal>
0.0000

> <Gold.Chemscore.Lipo>
74.8809

> <Gold.Chemscore.Internal_Hbond>
0.0000

> <Gold.Chemscore.DEClash>
0.0038

> <Gold.Chemscore.DEInternal>
1.5717

> <Gold.Chemscore.Rot>
1.0000

> <Gold.Chemscore.Internal.Correction>
   9.000000E+99

> <Gold.Chemscore.Hbonds>
donor molecule, donor type, donor heavy atom, donor atom, acceptor molecule, acceptor atom, score
      L1  H     2    44       P1 10175  1.00

> <Gold.Chemscore.Hbond.Weighted>
-3.3397

> <Gold.Chemscore.Metal.Weighted>
-0.0000

> <Gold.Chemscore.Lipo.Weighted>
-8.7611

> <Gold.Chemscore.Internal_Hbond.Weighted>
0.0000

> <Gold.Chemscore.DEClash.Weighted>
0.0038

> <Gold.Chemscore.DEInternal.Weighted>
1.5717

> <Gold.Chemscore.Rot.Weighted>
2.5600

> <Gold.Chemscore.Internal.Correction.Weighted>
   9.000000E+99

> <Gold.Protein.RotatedTorsions>
[ 6907 6896 6895 6894 ] final   73.29 input  -60.11 | X-H torsion
[ 7974 7965 7964 7962 ] final  113.71 input  175.53 | X-H torsion
[ 8008 7997 7996 7995 ] final   30.40 input   59.86 | X-H torsion
[ 10167 10162 10161 10158 ] final -117.89 input  -65.29 | X-H torsion
[ 10718 10713 10712 10709 ] final  169.04 input   66.30 | X-H torsion
[ 10763 10752 10751 10750 ] final   -1.16 input  -60.55 | X-H torsion
[ 11005 11000 10999 10996 ] final -161.30 input  -57.11 | X-H torsion

> <Gold.Protein.ActiveResidues>
 VAL166  LYS551  ARG553  GLY616  TRP617  ASP618  TYR619  PRO620  LYS621  CYS622 
 ASP623  PHE694  ASN695  SER759  ASP760  ASP761  ALA762  ILE779  LEU786  VAL792 
 PHE793  MET794  SER795  GLU796  ALA797  LYS798  CYS799  TRP800  GLU811  SER814 

> <Gold.Protein.RotatedAtoms>
  152.4915  134.4444  159.9553 H   0  0  0  0  0  0  0  0  0  0  0  0  # atno 6907 bound_to 6896
  151.4431  133.3632  159.2792 H   0  0  0  0  0  0  0  0  0  0  0  0  # atno 6908 bound_to 6896
  150.9074  134.8513  159.7462 H   0  0  0  0  0  0  0  0  0  0  0  0  # atno 6909 bound_to 6896
  145.2135  139.2895  143.4256 H   0  0  0  0  0  0  0  0  0  0  0  0  # atno 7974 bound_to 7965
  155.0899  140.3219  155.4577 H   0  0  0  0  0  0  0  0  0  0  0  0  # atno 8008 bound_to 7997
  156.2745  140.2080  156.5972 H   0  0  0  0  0  0  0  0  0  0  0  0  # atno 8009 bound_to 7997
  154.6912  140.0516  157.0352 H   0  0  0  0  0  0  0  0  0  0  0  0  # atno 8010 bound_to 7997
  140.0634  143.4946  152.2019 H   0  0  0  0  0  0  0  0  0  0  0  0  # atno 10167 bound_to 10162
  157.0283  131.0252  151.2752 H   0  0  0  0  0  0  0  0  0  0  0  0  # atno 10718 bound_to 10713
  153.3412  135.6980  153.6866 H   0  0  0  0  0  0  0  0  0  0  0  0  # atno 10763 bound_to 10752
  153.5630  135.3531  155.2807 H   0  0  0  0  0  0  0  0  0  0  0  0  # atno 10764 bound_to 10752
  154.8637  135.4254  154.2625 H   0  0  0  0  0  0  0  0  0  0  0  0  # atno 10765 bound_to 10752
  140.6219  134.4742  157.5224 H   0  0  0  0  0  0  0  0  0  0  0  0  # atno 11005 bound_to 11000
  146.3392  140.2418  142.8596 LP  0  0  0  0  0  0  0  0  0  0  0  0  # atno 17320 bound_to 7965
  144.9833  140.8480  143.5384 LP  0  0  0  0  0  0  0  0  0  0  0  0  # atno 17321 bound_to 7965
  139.5879  144.7538  151.3473 LP  0  0  0  0  0  0  0  0  0  0  0  0  # atno 17342 bound_to 10162
  140.7160  143.7263  150.7657 LP  0  0  0  0  0  0  0  0  0  0  0  0  # atno 17343 bound_to 10162
  157.5197  130.7990  149.7795 LP  0  0  0  0  0  0  0  0  0  0  0  0  # atno 17370 bound_to 10713
  156.0078  130.3847  150.2369 LP  0  0  0  0  0  0  0  0  0  0  0  0  # atno 17371 bound_to 10713
  139.9150  134.8265  156.1397 LP  0  0  0  0  0  0  0  0  0  0  0  0  # atno 17394 bound_to 11000
  141.0736  133.6785  156.2191 LP  0  0  0  0  0  0  0  0  0  0  0  0  # atno 17395 bound_to 11000

$$$$
