AV-unprocessed.smi:2922|AV-procd|sdf|11199|dock8
  -GOLD-   2272016 93D 1   1.00000     0.00000
 Structure written by MMmdl.
 30 31  0  0  0  0  0  0  0  0  1 V2000
  150.5929  145.3194  158.4393 N   0  0  0  0  0  0  0  0  0  0  0  0
  150.7674  144.2396  159.2065 C   0  0  0  0  0  0  0  0  0  0  0  0
  149.8422  143.4717  159.4646 O   0  0  0  0  0  0  0  0  0  0  0  0
  152.1696  143.9963  159.7853 C   0  0  1  0  0  0  0  0  0  0  0  0
  152.2012  143.7657  161.3085 C   0  0  0  0  0  0  0  0  0  0  0  0
  152.8092  142.3825  161.4566 C   0  0  0  0  0  0  0  0  0  0  0  0
  153.6056  142.2265  160.1642 C   0  0  1  0  0  0  0  0  0  0  0  0
  153.9080  140.7737  159.7746 C   0  0  0  0  0  0  0  0  0  0  0  0
  152.6991  140.0515  159.4075 N   0  0  0  0  0  0  0  0  0  0  0  0
  151.9664  140.2965  158.2619 C   0  0  0  0  0  0  0  0  0  0  0  0
  152.5183  139.9942  157.0800 N   0  0  0  0  0  0  0  0  0  0  0  0
  151.7801  140.2423  155.9758 C   0  0  0  0  0  0  0  0  0  0  0  0
  150.4864  140.7937  156.0629 C   0  0  0  0  0  0  0  0  0  0  0  0
  149.5380  141.1113  154.6573 Cl  0  0  0  0  0  0  0  0  0  0  0  0
  150.0076  141.0719  157.3587 C   0  0  0  0  0  0  0  0  0  0  0  0
  150.7535  140.8212  158.4576 N   0  0  0  0  0  0  0  0  0  0  0  0
  152.7356  142.8172  159.2131 O   0  0  0  0  0  0  0  0  0  0  0  0
  149.6866  145.5110  158.0378 H   0  0  0  0  0  0  0  0  0  0  0  0
  151.3720  145.9373  158.2621 H   0  0  0  0  0  0  0  0  0  0  0  0
  152.8057  144.8449  159.5296 H   0  0  0  0  0  0  0  0  0  0  0  0
  152.8400  144.5129  161.7811 H   0  0  0  0  0  0  0  0  0  0  0  0
  151.2243  143.8185  161.7909 H   0  0  0  0  0  0  0  0  0  0  0  0
  153.4241  142.2813  162.3513 H   0  0  0  0  0  0  0  0  0  0  0  0
  152.0158  141.6350  161.5029 H   0  0  0  0  0  0  0  0  0  0  0  0
  154.5249  142.8140  160.2080 H   0  0  0  0  0  0  0  0  0  0  0  0
  154.6179  140.7446  158.9470 H   0  0  0  0  0  0  0  0  0  0  0  0
  154.3757  140.2602  160.6153 H   0  0  0  0  0  0  0  0  0  0  0  0
  152.3807  139.3082  160.0122 H   0  0  0  0  0  0  0  0  0  0  0  0
  152.2242  139.9989  155.0217 H   0  0  0  0  0  0  0  0  0  0  0  0
  149.0266  141.4953  157.5158 H   0  0  0  0  0  0  0  0  0  0  0  0
  1  2  1  0  0  0  0
  1 18  1  0  0  0  0
  1 19  1  0  0  0  0
  2  3  2  0  0  0  0
  2  4  1  0  0  0  0
  4 17  1  0  0  0  0
  4  5  1  0  0  0  0
  4 20  1  0  0  0  0
  5  6  1  0  0  0  0
  5 21  1  0  0  0  0
  5 22  1  0  0  0  0
  6  7  1  0  0  0  0
  6 23  1  0  0  0  0
  6 24  1  0  0  0  0
  7  8  1  0  0  0  0
  7 17  1  0  0  0  0
  7 25  1  0  0  0  0
  8  9  1  0  0  0  0
  8 26  1  0  0  0  0
  8 27  1  0  0  0  0
  9 10  1  0  0  0  0
  9 28  1  0  0  0  0
 10 16  1  0  0  0  0
 10 11  2  0  0  0  0
 11 12  1  0  0  0  0
 12 13  2  0  0  0  0
 12 29  1  0  0  0  0
 13 14  1  0  0  0  0
 13 15  1  0  0  0  0
 15 16  2  0  0  0  0
 15 30  1  0  0  0  0
M  END
> <s_m_source_file>
AV-unprocessed.smi

> <i_m_source_file_index>
2922

> <i_lp_mmshare_version>
43012

> <i_f3d_flags>
0

> <s_epik_input>
W05IMl1DKD1PKVtDQEBIXTFbQ0gyXVtDSDJdW0NASF0oTzEpW0NIMl1bTkhdYzJuW2NIXWMoQ2wpW2NIXW4y

> <s_epik_cmdline>
J2VwaWtfcHl0aG9uJywgJy1waCcsICc3LjAnLCAnLXRuJywgJzgnLCAnLW1hJywgJzIwMCcsICctbWV0YWxfYmluZGluZycsICctaW1hZScsICc8aW5maWxlLm1hZT4nLCAnLW9tYWUnLCAnPG91dGZpbGUubWFlPic=

> <r_lp_tautomer_probability>
1

> <r_epik_Ionization_Penalty>
6.13883e-06

> <r_epik_Ionization_Penalty_Charging>
0

> <r_epik_Ionization_Penalty_Neutral>
6.13883e-06

> <r_epik_State_Penalty>
-0

> <r_epik_Charging_Adjusted_Penalty>
0

> <i_epik_Tot_Q>
0

> <i_epik_Tot_abs_Q>
0

> <r_epik_Metal_State_Penalty>
-0

> <b_epik_Metal_Only>
0

> <s_lp_Force_Field>
OPLS_2005

> <r_lp_Energy>
9.86334

> <b_lp_Chiralities_Consistent>
1

> <s_lp_Variant>
AV-unprocessed.smi:2922-2

> <Gold.Version>
5.8.1

> <Gold.Id.Protein>
6NUR|6NUR_protein|mol2

> <Gold.PLP.Fitness>
41.5391

> <Gold.PLP.PLP>
-37.2551

> <Gold.PLP.part.hbond>
-3.1564

> <Gold.PLP.part.metal>
0.0000

> <Gold.PLP.part.buried>
-5.0936

> <Gold.PLP.part.nonpolar>
-29.5566

> <Gold.PLP.part.repulsive>
0.4553

> <Gold.PLP.ligand.clash>
0.0000

> <Gold.PLP.ligand.torsion>
0.8685

> <Gold.PLP.Chemscore.Hbond>
2.0000

> <Gold.PLP.Chemscore.CHOScore>
0.0000

> <Gold.PLP.Chemscore.Metal>
0.0000

> <Gold.Chemscore.Hbonds>
donor molecule, donor type, donor heavy atom, donor atom, acceptor molecule, acceptor atom, score
      L1  H     1    18       P1  8029  1.00
      P1  H  7997  8009       L1    11  1.00

> <Gold.PLP.Chemscore.Internal.Correction>
0.0211

> <Gold.Rescore>
     Score         DG    S(hbond)    S(metal)    S(lipo)     H(rot)  DE(clash)    DE(int)     intcor
     13.69     -15.80       1.86        0.00      77.05       1.91       0.02       2.09       ----

> <Gold.Chemscore.Fitness>
13.6855

> <Gold.Chemscore.DG>
-15.7970

> <Gold.Chemscore.ZeroCoef>
-5.4800

> <Gold.Chemscore.Hbond>
1.8572

> <Gold.Chemscore.Metal>
0.0000

> <Gold.Chemscore.Lipo>
77.0459

> <Gold.Chemscore.Internal_Hbond>
0.0000

> <Gold.Chemscore.DEClash>
0.0193

> <Gold.Chemscore.DEInternal>
2.0922

> <Gold.Chemscore.Rot>
1.9142

> <Gold.Chemscore.Internal.Correction>
   9.000000E+99

> <Gold.Chemscore.Hbonds>
donor molecule, donor type, donor heavy atom, donor atom, acceptor molecule, acceptor atom, score
      L1  H     1    18       P1  8029  0.29
      P1  H  7997  8009       L1    11  0.38

> <Gold.Chemscore.Hbond.Weighted>
-6.2029

> <Gold.Chemscore.Metal.Weighted>
-0.0000

> <Gold.Chemscore.Lipo.Weighted>
-9.0144

> <Gold.Chemscore.Internal_Hbond.Weighted>
0.0000

> <Gold.Chemscore.DEClash.Weighted>
0.0193

> <Gold.Chemscore.DEInternal.Weighted>
2.0922

> <Gold.Chemscore.Rot.Weighted>
4.9002

> <Gold.Chemscore.Internal.Correction.Weighted>
   9.000000E+99

> <Gold.Protein.RotatedTorsions>
[ 6907 6896 6895 6894 ] final   93.82 input  -60.11 | X-H torsion
[ 7974 7965 7964 7962 ] final  117.34 input  175.53 | X-H torsion
[ 8008 7997 7996 7995 ] final -167.04 input   59.86 | X-H torsion
[ 10167 10162 10161 10158 ] final -116.56 input  -65.29 | X-H torsion
[ 10718 10713 10712 10709 ] final -141.69 input   66.30 | X-H torsion
[ 10763 10752 10751 10750 ] final  110.47 input  -60.55 | X-H torsion
[ 11005 11000 10999 10996 ] final   61.62 input  -57.11 | X-H torsion

> <Gold.Protein.ActiveResidues>
 VAL166  LYS551  ARG553  GLY616  TRP617  ASP618  TYR619  PRO620  LYS621  CYS622 
 ASP623  PHE694  ASN695  SER759  ASP760  ASP761  ALA762  ILE779  LEU786  VAL792 
 PHE793  MET794  SER795  GLU796  ALA797  LYS798  CYS799  TRP800  GLU811  SER814 

> <Gold.Protein.RotatedAtoms>
  152.5451  134.1288  159.8430 H   0  0  0  0  0  0  0  0  0  0  0  0  # atno 6907 bound_to 6896
  151.1336  133.5012  159.2606 H   0  0  0  0  0  0  0  0  0  0  0  0  # atno 6908 bound_to 6896
  151.1648  135.0300  159.8781 H   0  0  0  0  0  0  0  0  0  0  0  0  # atno 6909 bound_to 6896
  145.1686  139.3114  143.4479 H   0  0  0  0  0  0  0  0  0  0  0  0  # atno 7974 bound_to 7965
  155.8723  140.0995  157.1542 H   0  0  0  0  0  0  0  0  0  0  0  0  # atno 8008 bound_to 7997
  154.3998  140.1345  156.4156 H   0  0  0  0  0  0  0  0  0  0  0  0  # atno 8009 bound_to 7997
  155.7737  140.3460  155.5263 H   0  0  0  0  0  0  0  0  0  0  0  0  # atno 8010 bound_to 7997
  140.0779  143.4815  152.1942 H   0  0  0  0  0  0  0  0  0  0  0  0  # atno 10167 bound_to 10162
  156.3370  130.7617  151.1746 H   0  0  0  0  0  0  0  0  0  0  0  0  # atno 10718 bound_to 10713
  153.4494  135.3747  155.2275 H   0  0  0  0  0  0  0  0  0  0  0  0  # atno 10763 bound_to 10752
  154.8756  135.3882  154.4057 H   0  0  0  0  0  0  0  0  0  0  0  0  # atno 10764 bound_to 10752
  153.4614  135.7086  153.6112 H   0  0  0  0  0  0  0  0  0  0  0  0  # atno 10765 bound_to 10752
  140.0149  134.6240  155.9725 H   0  0  0  0  0  0  0  0  0  0  0  0  # atno 11005 bound_to 11000
  146.3472  140.1823  142.8589 LP  0  0  0  0  0  0  0  0  0  0  0  0  # atno 17320 bound_to 7965
  145.0256  140.8829  143.5140 LP  0  0  0  0  0  0  0  0  0  0  0  0  # atno 17321 bound_to 7965
  139.5797  144.7504  151.3672 LP  0  0  0  0  0  0  0  0  0  0  0  0  # atno 17342 bound_to 10162
  140.7093  143.7433  150.7537 LP  0  0  0  0  0  0  0  0  0  0  0  0  # atno 17343 bound_to 10162
  157.7440  131.0465  150.4897 LP  0  0  0  0  0  0  0  0  0  0  0  0  # atno 17370 bound_to 10713
  156.5072  130.4131  149.6321 LP  0  0  0  0  0  0  0  0  0  0  0  0  # atno 17371 bound_to 10713
  141.1736  133.6538  156.4743 LP  0  0  0  0  0  0  0  0  0  0  0  0  # atno 17394 bound_to 11000
  140.4489  134.6947  157.5030 LP  0  0  0  0  0  0  0  0  0  0  0  0  # atno 17395 bound_to 11000

$$$$
