AV-unprocessed.smi:3063|AV-procd|sdf|11685|dock8
  -GOLD-   2272017 93D 1   1.00000     0.00000
 Structure written by MMmdl.
 44 45  0  0  0  0  0  0  0  0  1 V2000
  150.5393  140.9030  155.6745 C   0  0  0  0  0  0  0  0  0  0  0  0
  151.5621  139.7656  155.6335 C   0  0  0  0  0  0  0  0  0  0  0  0
  152.6338  139.9694  155.0627 O   0  0  0  0  0  0  0  0  0  0  0  0
  151.2532  138.5756  156.2033 N   0  0  0  0  0  0  0  0  0  0  0  0
  150.0108  138.3859  156.9670 C   0  0  0  0  0  0  0  0  0  0  0  0
  150.2101  138.7371  158.4564 C   0  0  0  0  0  0  0  0  0  0  0  0
  151.3075  137.8951  159.1419 C   0  0  0  0  0  0  0  0  0  0  0  0
  152.6333  138.1425  158.5422 N   0  0  0  0  0  0  0  0  0  0  0  0
  153.4758  139.1470  158.9003 C   0  0  0  0  0  0  0  0  0  0  0  0
  154.6431  139.2217  158.5150 O   0  0  0  0  0  0  0  0  0  0  0  0
  152.9389  140.0597  159.7289 N   0  0  0  0  0  0  0  0  0  0  0  0
  153.6417  141.1880  160.3373 C   0  0  2  0  0  0  0  0  0  0  0  0
  154.6494  140.6532  161.3671 C   0  0  0  0  0  0  0  0  0  0  0  0
  152.6577  142.2292  160.9221 C   0  0  0  0  0  0  0  0  0  0  0  0
  152.4571  143.3886  160.0696 N   0  0  0  0  0  0  0  0  0  0  0  0
  152.8315  143.5499  158.7538 C   0  0  0  0  0  0  0  0  0  0  0  0
  152.4385  144.7981  158.3661 C   0  0  0  0  0  0  0  0  0  0  0  0
  151.8293  145.3359  159.5341 C   0  0  0  0  0  0  0  0  0  0  0  0
  151.8461  144.4920  160.5535 N   0  0  0  0  0  0  0  0  0  0  0  0
  152.9713  137.1989  157.4608 C   0  0  0  0  0  0  0  0  0  0  0  0
  152.1266  137.3895  156.1734 C   0  0  0  0  0  0  0  0  0  0  0  0
  149.5647  140.5665  155.3206 H   0  0  0  0  0  0  0  0  0  0  0  0
  150.8565  141.7265  155.0336 H   0  0  0  0  0  0  0  0  0  0  0  0
  150.4342  141.2891  156.6886 H   0  0  0  0  0  0  0  0  0  0  0  0
  149.2005  138.9869  156.5514 H   0  0  0  0  0  0  0  0  0  0  0  0
  149.6656  137.3549  156.8823 H   0  0  0  0  0  0  0  0  0  0  0  0
  150.4374  139.7986  158.5588 H   0  0  0  0  0  0  0  0  0  0  0  0
  149.2672  138.5829  158.9818 H   0  0  0  0  0  0  0  0  0  0  0  0
  151.3136  138.0880  160.2155 H   0  0  0  0  0  0  0  0  0  0  0  0
  151.0502  136.8385  159.0565 H   0  0  0  0  0  0  0  0  0  0  0  0
  151.9715  139.9380  159.9916 H   0  0  0  0  0  0  0  0  0  0  0  0
  154.2183  141.6844  159.5549 H   0  0  0  0  0  0  0  0  0  0  0  0
  155.1786  141.4705  161.8577 H   0  0  0  0  0  0  0  0  0  0  0  0
  155.3962  140.0189  160.8890 H   0  0  0  0  0  0  0  0  0  0  0  0
  154.1616  140.0592  162.1405 H   0  0  0  0  0  0  0  0  0  0  0  0
  151.6886  141.7604  161.0990 H   0  0  0  0  0  0  0  0  0  0  0  0
  153.0034  142.5773  161.8962 H   0  0  0  0  0  0  0  0  0  0  0  0
  153.3389  142.7668  158.2132 H   0  0  0  0  0  0  0  0  0  0  0  0
  152.5691  145.2568  157.3974 H   0  0  0  0  0  0  0  0  0  0  0  0
  151.3802  146.3083  159.6707 H   0  0  0  0  0  0  0  0  0  0  0  0
  154.0277  137.2553  157.1944 H   0  0  0  0  0  0  0  0  0  0  0  0
  152.8456  136.1796  157.8282 H   0  0  0  0  0  0  0  0  0  0  0  0
  151.5074  136.5031  156.0306 H   0  0  0  0  0  0  0  0  0  0  0  0
  152.7796  137.3855  155.3009 H   0  0  0  0  0  0  0  0  0  0  0  0
  1  2  1  0  0  0  0
  1 22  1  0  0  0  0
  1 23  1  0  0  0  0
  1 24  1  0  0  0  0
  2  3  2  0  0  0  0
  2  4  1  0  0  0  0
  4 21  1  0  0  0  0
  4  5  1  0  0  0  0
  5  6  1  0  0  0  0
  5 25  1  0  0  0  0
  5 26  1  0  0  0  0
  6  7  1  0  0  0  0
  6 27  1  0  0  0  0
  6 28  1  0  0  0  0
  7  8  1  0  0  0  0
  7 29  1  0  0  0  0
  7 30  1  0  0  0  0
  8  9  1  0  0  0  0
  8 20  1  0  0  0  0
  9 10  2  0  0  0  0
  9 11  1  0  0  0  0
 11 12  1  0  0  0  0
 11 31  1  0  0  0  0
 12 13  1  0  0  0  0
 12 14  1  0  0  0  0
 12 32  1  0  0  0  0
 13 33  1  0  0  0  0
 13 34  1  0  0  0  0
 13 35  1  0  0  0  0
 14 15  1  0  0  0  0
 14 36  1  0  0  0  0
 14 37  1  0  0  0  0
 15 19  1  0  0  0  0
 15 16  1  0  0  0  0
 16 17  2  0  0  0  0
 16 38  1  0  0  0  0
 17 18  1  0  0  0  0
 17 39  1  0  0  0  0
 18 19  2  0  0  0  0
 18 40  1  0  0  0  0
 20 21  1  0  0  0  0
 20 41  1  0  0  0  0
 20 42  1  0  0  0  0
 21 43  1  0  0  0  0
 21 44  1  0  0  0  0
M  END
> <s_m_source_file>
AV-unprocessed.smi

> <i_m_source_file_index>
3063

> <i_lp_mmshare_version>
43012

> <i_f3d_flags>
0

> <s_epik_input>
W0NIM11DKD1PKU4xW0NIMl1bQ0gyXVtDSDJdTihbQ0gyXVtDSDJdMSlDKD1PKVtOSF1bQ0BIXShbQ0gzXSlbQ0gyXW4yW2NIXVtjSF1bY0hdbjI=

> <s_epik_cmdline>
J2VwaWtfcHl0aG9uJywgJy1waCcsICc3LjAnLCAnLXRuJywgJzgnLCAnLW1hJywgJzIwMCcsICctbWV0YWxfYmluZGluZycsICctaW1hZScsICc8aW5maWxlLm1hZT4nLCAnLW9tYWUnLCAnPG91dGZpbGUubWFlPic=

> <r_lp_tautomer_probability>
1

> <r_epik_Ionization_Penalty>
6.19559e-05

> <r_epik_Ionization_Penalty_Charging>
0

> <r_epik_Ionization_Penalty_Neutral>
6.19559e-05

> <r_epik_State_Penalty>
-0

> <r_epik_Charging_Adjusted_Penalty>
0

> <i_epik_Tot_Q>
0

> <i_epik_Tot_abs_Q>
0

> <r_epik_Metal_State_Penalty>
-0

> <b_epik_Metal_Only>
0

> <s_lp_Force_Field>
OPLS_2005

> <r_lp_Energy>
38.8795

> <b_lp_Chiralities_Consistent>
1

> <s_lp_Variant>
AV-unprocessed.smi:3063-1

> <Gold.Version>
5.8.1

> <Gold.Id.Protein>
6NUR|6NUR_protein|mol2

> <Gold.PLP.Fitness>
49.8037

> <Gold.PLP.PLP>
-44.6593

> <Gold.PLP.part.hbond>
-3.0000

> <Gold.PLP.part.metal>
0.0000

> <Gold.PLP.part.buried>
-5.2072

> <Gold.PLP.part.nonpolar>
-37.5043

> <Gold.PLP.part.repulsive>
0.2397

> <Gold.PLP.ligand.clash>
0.0000

> <Gold.PLP.ligand.torsion>
0.9377

> <Gold.PLP.Chemscore.Hbond>
2.3225

> <Gold.PLP.Chemscore.CHOScore>
0.0000

> <Gold.PLP.Chemscore.Metal>
0.0000

> <Gold.Chemscore.Hbonds>
donor molecule, donor type, donor heavy atom, donor atom, acceptor molecule, acceptor atom, score
      P1  H  7989  7998       L1     3  0.31
      P1  H  7997  8009       L1    10  1.00
      P1  H  7997  8010       L1     3  1.00

> <Gold.PLP.Chemscore.Internal.Correction>
0.0522

> <Gold.Rescore>
     Score         DG    S(hbond)    S(metal)    S(lipo)     H(rot)  DE(clash)    DE(int)     intcor
     19.18     -20.08       1.99        0.00      99.35       1.44       0.11       0.79       ----

> <Gold.Chemscore.Fitness>
19.1758

> <Gold.Chemscore.DG>
-20.0761

> <Gold.Chemscore.ZeroCoef>
-5.4800

> <Gold.Chemscore.Hbond>
1.9910

> <Gold.Chemscore.Metal>
0.0000

> <Gold.Chemscore.Lipo>
99.3541

> <Gold.Chemscore.Internal_Hbond>
0.0000

> <Gold.Chemscore.DEClash>
0.1119

> <Gold.Chemscore.DEInternal>
0.7885

> <Gold.Chemscore.Rot>
1.4368

> <Gold.Chemscore.Internal.Correction>
   9.000000E+99

> <Gold.Chemscore.Hbonds>
donor molecule, donor type, donor heavy atom, donor atom, acceptor molecule, acceptor atom, score
      P1  H  7989  7998       L1     3  0.02
      P1  H  7997  8009       L1    10  0.92
      P1  H  7997  8010       L1     3  0.95

> <Gold.Chemscore.Hbond.Weighted>
-6.6499

> <Gold.Chemscore.Metal.Weighted>
-0.0000

> <Gold.Chemscore.Lipo.Weighted>
-11.6244

> <Gold.Chemscore.Internal_Hbond.Weighted>
0.0000

> <Gold.Chemscore.DEClash.Weighted>
0.1119

> <Gold.Chemscore.DEInternal.Weighted>
0.7885

> <Gold.Chemscore.Rot.Weighted>
3.6782

> <Gold.Chemscore.Internal.Correction.Weighted>
   9.000000E+99

> <Gold.Protein.RotatedTorsions>
[ 6907 6896 6895 6894 ] final  163.38 input  -60.11 | X-H torsion
[ 7974 7965 7964 7962 ] final -109.33 input  175.53 | X-H torsion
[ 8008 7997 7996 7995 ] final  105.28 input   59.86 | X-H torsion
[ 10167 10162 10161 10158 ] final  -16.59 input  -65.29 | X-H torsion
[ 10718 10713 10712 10709 ] final  -96.73 input   66.30 | X-H torsion
[ 10763 10752 10751 10750 ] final -105.30 input  -60.55 | X-H torsion
[ 11005 11000 10999 10996 ] final   36.94 input  -57.11 | X-H torsion

> <Gold.Protein.ActiveResidues>
 VAL166  LYS551  ARG553  GLY616  TRP617  ASP618  TYR619  PRO620  LYS621  CYS622 
 ASP623  PHE694  ASN695  SER759  ASP760  ASP761  ALA762  ILE779  LEU786  VAL792 
 PHE793  MET794  SER795  GLU796  ALA797  LYS798  CYS799  TRP800  GLU811  SER814 

> <Gold.Protein.RotatedAtoms>
  151.9261  133.3598  159.3913 H   0  0  0  0  0  0  0  0  0  0  0  0  # atno 6907 bound_to 6896
  150.7027  134.4586  159.5379 H   0  0  0  0  0  0  0  0  0  0  0  0  # atno 6908 bound_to 6896
  152.2218  134.8406  160.0536 H   0  0  0  0  0  0  0  0  0  0  0  0  # atno 6909 bound_to 6896
  145.1819  140.8975  143.3475 H   0  0  0  0  0  0  0  0  0  0  0  0  # atno 7974 bound_to 7965
  156.1646  140.3133  155.8866 H   0  0  0  0  0  0  0  0  0  0  0  0  # atno 8008 bound_to 7997
  155.3713  140.0482  157.3062 H   0  0  0  0  0  0  0  0  0  0  0  0  # atno 8009 bound_to 7997
  154.5179  140.2188  155.9041 H   0  0  0  0  0  0  0  0  0  0  0  0  # atno 8010 bound_to 7997
  140.7236  143.5101  150.9761 H   0  0  0  0  0  0  0  0  0  0  0  0  # atno 10167 bound_to 10162
  156.0068  130.5164  150.6269 H   0  0  0  0  0  0  0  0  0  0  0  0  # atno 10718 bound_to 10713
  154.7937  135.4754  154.0112 H   0  0  0  0  0  0  0  0  0  0  0  0  # atno 10763 bound_to 10752
  153.1671  135.6818  153.8667 H   0  0  0  0  0  0  0  0  0  0  0  0  # atno 10764 bound_to 10752
  153.8262  135.3197  155.3392 H   0  0  0  0  0  0  0  0  0  0  0  0  # atno 10765 bound_to 10752
  140.2276  134.3566  155.7978 H   0  0  0  0  0  0  0  0  0  0  0  0  # atno 11005 bound_to 11000
  145.0128  139.3495  143.6111 LP  0  0  0  0  0  0  0  0  0  0  0  0  # atno 17320 bound_to 7965
  146.3451  139.9397  142.8742 LP  0  0  0  0  0  0  0  0  0  0  0  0  # atno 17321 bound_to 7965
  139.8814  143.7067  152.3156 LP  0  0  0  0  0  0  0  0  0  0  0  0  # atno 17342 bound_to 10162
  139.7351  144.7573  151.0740 LP  0  0  0  0  0  0  0  0  0  0  0  0  # atno 17343 bound_to 10162
  157.4074  131.0819  151.1252 LP  0  0  0  0  0  0  0  0  0  0  0  0  # atno 17370 bound_to 10713
  157.1894  130.6345  149.5699 LP  0  0  0  0  0  0  0  0  0  0  0  0  # atno 17371 bound_to 10713
  141.2220  133.7227  156.8678 LP  0  0  0  0  0  0  0  0  0  0  0  0  # atno 17394 bound_to 11000
  140.1784  134.9050  157.2919 LP  0  0  0  0  0  0  0  0  0  0  0  0  # atno 17395 bound_to 11000

$$$$
