AV-unprocessed.smi:39|AV-procd|sdf|364|dock2
  -GOLD-   2262016203D 1   1.00000     0.00000
 Structure written by MMmdl.
 31 32  0  0  0  0  0  0  0  0  4 V2000
  149.2798  136.9886  158.8197 C   0  0  0  0  0  0  0  0  0  0  0  0
  150.4324  137.4792  157.9612 C   0  0  0  0  0  0  0  0  0  0  0  0
  150.4135  138.6845  157.3506 C   0  0  0  0  0  0  0  0  0  0  0  0
  151.4678  139.1317  156.5727 N   0  0  0  0  0  0  0  0  0  0  0  0
  151.4301  140.4902  155.9044 C   0  0  2  0  0  0  0  0  0  0  0  0
  150.8895  141.5600  156.8720 C   0  0  0  0  0  0  0  0  0  0  0  0
  149.4383  141.7228  156.4475 C   0  0  2  0  0  0  0  0  0  0  0  0
  148.5860  140.7789  157.1810 N   0  0  0  0  0  0  0  0  0  0  0  0
  147.6469  141.2607  157.8274 N   0  3  0  0  0  0  0  0  0  0  0  0
  146.7229  141.7157  158.3112 N   0  5  0  0  0  0  0  0  0  0  0  0
  149.5703  141.4358  154.9407 C   0  0  2  0  0  0  0  0  0  0  0  0
  148.3184  141.1391  154.0885 C   0  0  0  0  0  0  0  0  0  0  0  0
  147.3920  142.2048  154.0576 O   0  0  0  0  0  0  0  0  0  0  0  0
  150.5745  140.4399  154.7987 O   0  0  0  0  0  0  0  0  0  0  0  0
  152.6168  138.3135  156.4146 C   0  0  0  0  0  0  0  0  0  0  0  0
  153.5487  138.7487  155.7370 O   0  0  0  0  0  0  0  0  0  0  0  0
  152.6419  137.0919  157.0198 N   0  5  0  0  0  0  0  0  0  0  0  0
  151.6121  136.6245  157.7825 C   0  0  0  0  0  0  0  0  0  0  0  0
  151.6460  135.5174  158.3192 O   0  0  0  0  0  0  0  0  0  0  0  0
  152.4486  140.6823  155.5632 H   0  0  0  0  0  0  0  0  0  0  0  0
  149.1147  142.7522  156.6170 H   0  0  0  0  0  0  0  0  0  0  0  0
  150.0148  142.3329  154.5051 H   0  0  0  0  0  0  0  0  0  0  0  0
  148.4932  137.7402  158.8930 H   0  0  0  0  0  0  0  0  0  0  0  0
  149.6248  136.7623  159.8291 H   0  0  0  0  0  0  0  0  0  0  0  0
  148.8455  136.0845  158.3922 H   0  0  0  0  0  0  0  0  0  0  0  0
  149.5480  139.3147  157.4872 H   0  0  0  0  0  0  0  0  0  0  0  0
  151.0249  141.2828  157.9185 H   0  0  0  0  0  0  0  0  0  0  0  0
  151.4385  142.4852  156.6925 H   0  0  0  0  0  0  0  0  0  0  0  0
  148.6164  140.9199  153.0631 H   0  0  0  0  0  0  0  0  0  0  0  0
  147.8123  140.2515  154.4683 H   0  0  0  0  0  0  0  0  0  0  0  0
  147.8352  142.9972  154.3191 H   0  0  0  0  0  0  0  0  0  0  0  0
  1  2  1  0  0  0  0
  1 23  1  0  0  0  0
  1 24  1  0  0  0  0
  1 25  1  0  0  0  0
  2 18  1  0  0  0  0
  2  3  2  0  0  0  0
  3  4  1  0  0  0  0
  3 26  1  0  0  0  0
  4  5  1  0  0  0  0
  4 15  1  0  0  0  0
  5 20  1  0  0  0  0
  5 14  1  0  0  0  0
  5  6  1  0  0  0  0
  6  7  1  0  0  0  0
  6 27  1  0  0  0  0
  6 28  1  0  0  0  0
  7 21  1  0  0  0  0
  7  8  1  0  0  0  0
  7 11  1  0  0  0  0
  8  9  2  0  0  0  0
  9 10  2  0  0  0  0
 11 22  1  0  0  0  0
 11 12  1  0  0  0  0
 11 14  1  0  0  0  0
 12 13  1  0  0  0  0
 12 29  1  0  0  0  0
 12 30  1  0  0  0  0
 13 31  1  0  0  0  0
 15 16  2  0  0  0  0
 15 17  1  0  0  0  0
 17 18  1  0  0  0  0
 18 19  2  0  0  0  0
M  CHG  1   9   1
M  CHG  1  10  -1
M  CHG  1  17  -1
M  END
> <s_m_source_file>
AV-unprocessed.smi

> <i_m_source_file_index>
39

> <i_lp_mmshare_version>
43012

> <i_f3d_flags>
0

> <s_epik_input>
Tz1jMVtuSF1jKD1PKW4oW2NIXWMxW0NIM10pW0NASF0yW0NIMl1bQ0BIXShOPVtOK109W04tXSlbQ0BIXShPMilbQ0gyXVtPSF0=

> <s_epik_cmdline>
J2VwaWtfcHl0aG9uJywgJy1waCcsICc3LjAnLCAnLXRuJywgJzgnLCAnLW1hJywgJzIwMCcsICctbWV0YWxfYmluZGluZycsICctaW1hZScsICc8aW5maWxlLm1hZT4nLCAnLW9tYWUnLCAnPG91dGZpbGUubWFlPic=

> <r_lp_tautomer_probability>
0.999537

> <r_epik_Ionization_Penalty>
3.6393

> <r_epik_Ionization_Penalty_Charging>
9.76484e-08

> <r_epik_Ionization_Penalty_Neutral>
3.6393

> <r_epik_State_Penalty>
3.63887

> <r_epik_Charging_Adjusted_Penalty>
3.63887

> <i_epik_Tot_Q>
-1

> <i_epik_Tot_abs_Q>
3

> <r_epik_Metal_State_Penalty>
0.225911

> <b_epik_Metal_Only>
1

> <s_epik_Chemistry_Notes>
This compound contains an acetal/aminal-like group ( X-CH(R)-Y where X, Y are N, S, or O) that may be acid/base labile, releasing an aldehyde.

> <s_lp_Force_Field>
OPLS_2005

> <r_lp_Energy>
40.5793

> <b_lp_Chiralities_Consistent>
1

> <s_lp_Variant>
AV-unprocessed.smi:39-14

> <Gold.Version>
5.8.1

> <Gold.Id.Protein>
6NUR|6NUR_protein|mol2

> <Gold.PLP.Fitness>
41.9154

> <Gold.PLP.PLP>
-27.0322

> <Gold.PLP.part.hbond>
-6.6769

> <Gold.PLP.part.metal>
0.0000

> <Gold.PLP.part.buried>
-4.6419

> <Gold.PLP.part.nonpolar>
-16.6582

> <Gold.PLP.part.repulsive>
0.1502

> <Gold.PLP.ligand.clash>
0.0000

> <Gold.PLP.ligand.torsion>
0.4236

> <Gold.PLP.Chemscore.Hbond>
5.2259

> <Gold.PLP.Chemscore.CHOScore>
0.0000

> <Gold.PLP.Chemscore.Metal>
0.0000

> <Gold.Chemscore.Hbonds>
donor molecule, donor type, donor heavy atom, donor atom, acceptor molecule, acceptor atom, score
      L1  H    13    31       P1  8028  0.13
      P1  H  7989  7998       L1    14  1.00
      P1  H  7997  8008       L1    16  0.85

> <Gold.PLP.Chemscore.Internal.Correction>
0.0525

> <Gold.Rescore>
     Score         DG    S(hbond)    S(metal)    S(lipo)     H(rot)  DE(clash)    DE(int)     intcor
     11.32     -12.80       3.16        0.00      31.72       2.72       0.00       1.47       ----

> <Gold.Chemscore.Fitness>
11.3241

> <Gold.Chemscore.DG>
-12.7980

> <Gold.Chemscore.ZeroCoef>
-5.4800

> <Gold.Chemscore.Hbond>
3.1612

> <Gold.Chemscore.Metal>
0.0000

> <Gold.Chemscore.Lipo>
31.7163

> <Gold.Chemscore.Internal_Hbond>
0.0000

> <Gold.Chemscore.DEClash>
0.0000

> <Gold.Chemscore.DEInternal>
1.4739

> <Gold.Chemscore.Rot>
2.7153

> <Gold.Chemscore.Internal.Correction>
   9.000000E+99

> <Gold.Chemscore.Hbonds>
donor molecule, donor type, donor heavy atom, donor atom, acceptor molecule, acceptor atom, score
      L1  H    13    31       P1  8028  0.13
      P1  H  6896  6909       L1    19  0.05
      P1  H  7989  7998       L1    14  0.24
      P1  H  7997  8008       L1    16  0.85

> <Gold.Chemscore.Hbond.Weighted>
-10.5584

> <Gold.Chemscore.Metal.Weighted>
-0.0000

> <Gold.Chemscore.Lipo.Weighted>
-3.7108

> <Gold.Chemscore.Internal_Hbond.Weighted>
0.0000

> <Gold.Chemscore.DEClash.Weighted>
0.0000

> <Gold.Chemscore.DEInternal.Weighted>
1.4739

> <Gold.Chemscore.Rot.Weighted>
6.9512

> <Gold.Chemscore.Internal.Correction.Weighted>
   9.000000E+99

> <Gold.Protein.RotatedTorsions>
[ 6907 6896 6895 6894 ] final   64.91 input  -60.11 | X-H torsion
[ 7974 7965 7964 7962 ] final  -12.05 input  175.53 | X-H torsion
[ 8008 7997 7996 7995 ] final  -25.27 input   59.86 | X-H torsion
[ 10167 10162 10161 10158 ] final   13.92 input  -65.29 | X-H torsion
[ 10718 10713 10712 10709 ] final   72.09 input   66.30 | X-H torsion
[ 10763 10752 10751 10750 ] final -140.99 input  -60.55 | X-H torsion
[ 11005 11000 10999 10996 ] final -114.68 input  -57.11 | X-H torsion

> <Gold.Protein.ActiveResidues>
 VAL166  LYS551  ARG553  GLY616  TRP617  ASP618  TYR619  PRO620  LYS621  CYS622 
 ASP623  PHE694  ASN695  SER759  ASP760  ASP761  ALA762  ILE779  LEU786  VAL792 
 PHE793  MET794  SER795  GLU796  ALA797  LYS798  CYS799  TRP800  GLU811  SER814 

> <Gold.Protein.RotatedAtoms>
  152.4368  134.5671  159.9910 H   0  0  0  0  0  0  0  0  0  0  0  0  # atno 6907 bound_to 6896
  151.5779  133.3375  159.3010 H   0  0  0  0  0  0  0  0  0  0  0  0  # atno 6908 bound_to 6896
  150.8267  134.7536  159.6883 H   0  0  0  0  0  0  0  0  0  0  0  0  # atno 6909 bound_to 6896
  146.2166  140.3000  142.8374 H   0  0  0  0  0  0  0  0  0  0  0  0  # atno 7974 bound_to 7965
  154.4484  140.1931  156.0593 H   0  0  0  0  0  0  0  0  0  0  0  0  # atno 8008 bound_to 7997
  156.0595  140.3298  155.7417 H   0  0  0  0  0  0  0  0  0  0  0  0  # atno 8009 bound_to 7997
  155.5434  140.0588  157.2856 H   0  0  0  0  0  0  0  0  0  0  0  0  # atno 8010 bound_to 7997
  140.5970  143.8681  150.6928 H   0  0  0  0  0  0  0  0  0  0  0  0  # atno 10167 bound_to 10162
  157.6484  130.9561  150.0880 H   0  0  0  0  0  0  0  0  0  0  0  0  # atno 10718 bound_to 10713
  154.8560  135.3537  154.5796 H   0  0  0  0  0  0  0  0  0  0  0  0  # atno 10763 bound_to 10752
  153.6408  135.6998  153.5247 H   0  0  0  0  0  0  0  0  0  0  0  0  # atno 10764 bound_to 10752
  153.2973  135.4217  155.1180 H   0  0  0  0  0  0  0  0  0  0  0  0  # atno 10765 bound_to 10752
  141.0536  133.9647  157.2792 H   0  0  0  0  0  0  0  0  0  0  0  0  # atno 11005 bound_to 11000
  144.9064  140.7705  143.5835 LP  0  0  0  0  0  0  0  0  0  0  0  0  # atno 17320 bound_to 7965
  145.2928  139.1877  143.4731 LP  0  0  0  0  0  0  0  0  0  0  0  0  # atno 17321 bound_to 7965
  140.2218  143.3803  152.1636 LP  0  0  0  0  0  0  0  0  0  0  0  0  # atno 17342 bound_to 10162
  139.5265  144.7108  151.5211 LP  0  0  0  0  0  0  0  0  0  0  0  0  # atno 17343 bound_to 10162
  156.1837  130.3651  149.9001 LP  0  0  0  0  0  0  0  0  0  0  0  0  # atno 17370 bound_to 10713
  156.6947  130.8909  151.3592 LP  0  0  0  0  0  0  0  0  0  0  0  0  # atno 17371 bound_to 10713
  139.9371  135.0195  156.8592 LP  0  0  0  0  0  0  0  0  0  0  0  0  # atno 17394 bound_to 11000
  140.6006  134.0175  155.7536 LP  0  0  0  0  0  0  0  0  0  0  0  0  # atno 17395 bound_to 11000

$$$$
