AV-unprocessed.smi:2384|AV-procd|sdf|9462|dock4
  -GOLD-   2272013 93D 1   1.00000     0.00000
 Structure written by MMmdl.
 43 44  0  0  0  0  0  0  0  0  1 V2000
  153.3370  139.0564  154.6173 C   0  0  0  0  0  0  0  0  0  0  0  0
  151.8875  139.4384  154.8332 C   0  0  0  0  0  0  0  0  0  0  0  0
  151.5428  140.5336  155.6482 C   0  0  0  0  0  0  0  0  0  0  0  0
  150.1767  140.8357  155.8127 C   0  0  0  0  0  0  0  0  0  0  0  0
  149.7335  142.0009  156.6721 C   0  0  0  0  0  0  0  0  0  0  0  0
  149.1893  140.1242  155.2286 N   0  0  0  0  0  0  0  0  0  0  0  0
  149.5092  139.0673  154.4415 C   0  0  0  0  0  0  0  0  0  0  0  0
  148.5458  138.2605  153.7794 N   0  0  0  0  0  0  0  0  0  0  0  0
  147.2179  138.4558  153.6934 C   0  0  0  0  0  0  0  0  0  0  0  0
  146.5972  139.3803  154.2193 O   0  0  0  0  0  0  0  0  0  0  0  0
  146.6334  137.4969  152.9612 N   0  0  0  0  0  0  0  0  0  0  0  0
  145.2014  137.3988  152.6981 C   0  0  0  0  0  0  0  0  0  0  0  0
  144.7397  135.9442  152.4972 C   0  0  0  0  0  0  0  0  0  0  0  0
  145.2345  135.3198  151.1788 C   0  0  0  0  0  0  0  0  0  0  0  0
  145.3843  133.8714  151.2904 N   0  0  0  0  0  0  0  0  0  0  0  0
  146.6067  133.2155  150.8567 C   0  0  0  0  0  0  0  0  0  0  0  0
  146.3118  131.7108  150.9482 C   0  0  0  0  0  0  0  0  0  0  0  0
  144.9831  131.5852  151.7017 C   0  0  0  0  0  0  0  0  0  0  0  0
  144.4703  133.0138  151.7586 C   0  0  0  0  0  0  0  0  0  0  0  0
  143.3537  133.3049  152.1850 O   0  0  0  0  0  0  0  0  0  0  0  0
  150.8555  138.6988  154.2206 C   0  0  0  0  0  0  0  0  0  0  0  0
  154.0098  139.7520  155.1202 H   0  0  0  0  0  0  0  0  0  0  0  0
  153.5761  139.0605  153.5537 H   0  0  0  0  0  0  0  0  0  0  0  0
  153.5256  138.0567  155.0092 H   0  0  0  0  0  0  0  0  0  0  0  0
  152.3042  141.1263  156.1337 H   0  0  0  0  0  0  0  0  0  0  0  0
  150.5883  142.5334  157.0898 H   0  0  0  0  0  0  0  0  0  0  0  0
  149.1153  141.6484  157.4980 H   0  0  0  0  0  0  0  0  0  0  0  0
  149.1492  142.7069  156.0813 H   0  0  0  0  0  0  0  0  0  0  0  0
  148.9097  137.4400  153.3184 H   0  0  0  0  0  0  0  0  0  0  0  0
  147.2187  136.7766  152.5640 H   0  0  0  0  0  0  0  0  0  0  0  0
  144.6413  137.8611  153.5126 H   0  0  0  0  0  0  0  0  0  0  0  0
  144.9795  137.9835  151.8051 H   0  0  0  0  0  0  0  0  0  0  0  0
  145.0734  135.3343  153.3377 H   0  0  0  0  0  0  0  0  0  0  0  0
  143.6497  135.9221  152.5245 H   0  0  0  0  0  0  0  0  0  0  0  0
  144.5386  135.5490  150.3703 H   0  0  0  0  0  0  0  0  0  0  0  0
  146.1923  135.7546  150.8911 H   0  0  0  0  0  0  0  0  0  0  0  0
  146.8758  133.5095  149.8414 H   0  0  0  0  0  0  0  0  0  0  0  0
  147.4237  133.4976  151.5223 H   0  0  0  0  0  0  0  0  0  0  0  0
  146.2148  131.2842  149.9490 H   0  0  0  0  0  0  0  0  0  0  0  0
  147.1154  131.1760  151.4555 H   0  0  0  0  0  0  0  0  0  0  0  0
  144.2778  130.9328  151.1859 H   0  0  0  0  0  0  0  0  0  0  0  0
  145.1319  131.2104  152.7148 H   0  0  0  0  0  0  0  0  0  0  0  0
  151.0977  137.8550  153.5904 H   0  0  0  0  0  0  0  0  0  0  0  0
  1  2  1  0  0  0  0
  1 22  1  0  0  0  0
  1 23  1  0  0  0  0
  1 24  1  0  0  0  0
  2 21  1  0  0  0  0
  2  3  2  0  0  0  0
  3  4  1  0  0  0  0
  3 25  1  0  0  0  0
  4  5  1  0  0  0  0
  4  6  2  0  0  0  0
  5 26  1  0  0  0  0
  5 27  1  0  0  0  0
  5 28  1  0  0  0  0
  6  7  1  0  0  0  0
  7  8  1  0  0  0  0
  7 21  2  0  0  0  0
  8  9  1  0  0  0  0
  8 29  1  0  0  0  0
  9 10  2  0  0  0  0
  9 11  1  0  0  0  0
 11 12  1  0  0  0  0
 11 30  1  0  0  0  0
 12 13  1  0  0  0  0
 12 31  1  0  0  0  0
 12 32  1  0  0  0  0
 13 14  1  0  0  0  0
 13 33  1  0  0  0  0
 13 34  1  0  0  0  0
 14 15  1  0  0  0  0
 14 35  1  0  0  0  0
 14 36  1  0  0  0  0
 15 19  1  0  0  0  0
 15 16  1  0  0  0  0
 16 17  1  0  0  0  0
 16 37  1  0  0  0  0
 16 38  1  0  0  0  0
 17 18  1  0  0  0  0
 17 39  1  0  0  0  0
 17 40  1  0  0  0  0
 18 19  1  0  0  0  0
 18 41  1  0  0  0  0
 18 42  1  0  0  0  0
 19 20  2  0  0  0  0
 21 43  1  0  0  0  0
M  END
> <s_m_source_file>
AV-unprocessed.smi

> <i_m_source_file_index>
2384

> <i_lp_mmshare_version>
43012

> <i_f3d_flags>
0

> <s_epik_input>
W0NIM11jMVtjSF1jKFtDSDNdKW5jKFtjSF0xKVtOSF1DKD1PKVtOSF1bQ0gyXVtDSDJdW0NIMl1OMltDSDJdW0NIMl1bQ0gyXUMyPU8=

> <s_epik_cmdline>
J2VwaWtfcHl0aG9uJywgJy1waCcsICc3LjAnLCAnLXRuJywgJzgnLCAnLW1hJywgJzIwMCcsICctbWV0YWxfYmluZGluZycsICctaW1hZScsICc8aW5maWxlLm1hZT4nLCAnLW9tYWUnLCAnPG91dGZpbGUubWFlPic=

> <r_lp_tautomer_probability>
1

> <r_epik_Ionization_Penalty>
0.000241796

> <r_epik_Ionization_Penalty_Charging>
0

> <r_epik_Ionization_Penalty_Neutral>
0.000241796

> <r_epik_State_Penalty>
-0

> <r_epik_Charging_Adjusted_Penalty>
0

> <i_epik_Tot_Q>
0

> <i_epik_Tot_abs_Q>
0

> <r_epik_Metal_State_Penalty>
-0

> <b_epik_Metal_Only>
0

> <s_lp_Force_Field>
OPLS_2005

> <r_lp_Energy>
18.86

> <b_lp_Chiralities_Consistent>
1

> <s_lp_Variant>
AV-unprocessed.smi:2384-1

> <Gold.Version>
5.8.1

> <Gold.Id.Protein>
6NUR|6NUR_protein|mol2

> <Gold.PLP.Fitness>
45.2269

> <Gold.PLP.PLP>
-40.6071

> <Gold.PLP.part.hbond>
-2.0000

> <Gold.PLP.part.metal>
0.0000

> <Gold.PLP.part.buried>
-2.9792

> <Gold.PLP.part.nonpolar>
-35.6106

> <Gold.PLP.part.repulsive>
1.0051

> <Gold.PLP.ligand.clash>
0.0000

> <Gold.PLP.ligand.torsion>
0.4976

> <Gold.PLP.Chemscore.Hbond>
1.8640

> <Gold.PLP.Chemscore.CHOScore>
0.0000

> <Gold.PLP.Chemscore.Metal>
0.0000

> <Gold.Chemscore.Hbonds>
donor molecule, donor type, donor heavy atom, donor atom, acceptor molecule, acceptor atom, score
      L1  H     8    29       P1  7948  1.00
      L1  H    11    30       P1  7948  0.99

> <Gold.PLP.Chemscore.Internal.Correction>
0.0230

> <Gold.Rescore>
     Score         DG    S(hbond)    S(metal)    S(lipo)     H(rot)  DE(clash)    DE(int)     intcor
     14.70     -16.87       1.87        0.00      82.20       1.75       0.43       1.74       ----

> <Gold.Chemscore.Fitness>
14.7010

> <Gold.Chemscore.DG>
-16.8672

> <Gold.Chemscore.ZeroCoef>
-5.4800

> <Gold.Chemscore.Hbond>
1.8675

> <Gold.Chemscore.Metal>
0.0000

> <Gold.Chemscore.Lipo>
82.1990

> <Gold.Chemscore.Internal_Hbond>
0.0000

> <Gold.Chemscore.DEClash>
0.4251

> <Gold.Chemscore.DEInternal>
1.7412

> <Gold.Chemscore.Rot>
1.7451

> <Gold.Chemscore.Internal.Correction>
   9.000000E+99

> <Gold.Chemscore.Hbonds>
donor molecule, donor type, donor heavy atom, donor atom, acceptor molecule, acceptor atom, score
      L1  H     8    29       P1  7948  0.96
      L1  H    11    30       P1  7948  0.93

> <Gold.Chemscore.Hbond.Weighted>
-6.2374

> <Gold.Chemscore.Metal.Weighted>
-0.0000

> <Gold.Chemscore.Lipo.Weighted>
-9.6173

> <Gold.Chemscore.Internal_Hbond.Weighted>
0.0000

> <Gold.Chemscore.DEClash.Weighted>
0.4251

> <Gold.Chemscore.DEInternal.Weighted>
1.7412

> <Gold.Chemscore.Rot.Weighted>
4.4675

> <Gold.Chemscore.Internal.Correction.Weighted>
   9.000000E+99

> <Gold.Protein.RotatedTorsions>
[ 6907 6896 6895 6894 ] final   60.75 input  -60.11 | X-H torsion
[ 7974 7965 7964 7962 ] final   -6.47 input  175.53 | X-H torsion
[ 8008 7997 7996 7995 ] final   14.20 input   59.86 | X-H torsion
[ 10167 10162 10161 10158 ] final  -56.47 input  -65.29 | X-H torsion
[ 10718 10713 10712 10709 ] final  -74.82 input   66.30 | X-H torsion
[ 10763 10752 10751 10750 ] final  -59.42 input  -60.55 | X-H torsion
[ 11005 11000 10999 10996 ] final  136.62 input  -57.11 | X-H torsion

> <Gold.Protein.ActiveResidues>
 VAL166  LYS551  ARG553  GLY616  TRP617  ASP618  TYR619  PRO620  LYS621  CYS622 
 ASP623  PHE694  ASN695  SER759  ASP760  ASP761  ALA762  ILE779  LEU786  VAL792 
 PHE793  MET794  SER795  GLU796  ALA797  LYS798  CYS799  TRP800  GLU811  SER814 

> <Gold.Protein.RotatedAtoms>
  152.4030  134.6255  160.0061 H   0  0  0  0  0  0  0  0  0  0  0  0  # atno 6907 bound_to 6896
  151.6455  133.3318  159.3148 H   0  0  0  0  0  0  0  0  0  0  0  0  # atno 6908 bound_to 6896
  150.7928  134.7006  159.6593 H   0  0  0  0  0  0  0  0  0  0  0  0  # atno 6909 bound_to 6896
  146.2330  140.2175  142.8336 H   0  0  0  0  0  0  0  0  0  0  0  0  # atno 7974 bound_to 7965
  154.8451  140.2921  155.5634 H   0  0  0  0  0  0  0  0  0  0  0  0  # atno 8008 bound_to 7997
  156.3014  140.2506  156.3332 H   0  0  0  0  0  0  0  0  0  0  0  0  # atno 8009 bound_to 7997
  154.9082  140.0389  157.1921 H   0  0  0  0  0  0  0  0  0  0  0  0  # atno 8010 bound_to 7997
  140.6315  143.2461  151.5229 H   0  0  0  0  0  0  0  0  0  0  0  0  # atno 10167 bound_to 10162
  156.0229  130.4426  150.2949 H   0  0  0  0  0  0  0  0  0  0  0  0  # atno 10718 bound_to 10713
  154.2535  135.6321  153.5248 H   0  0  0  0  0  0  0  0  0  0  0  0  # atno 10763 bound_to 10752
  152.9908  135.5570  154.5782 H   0  0  0  0  0  0  0  0  0  0  0  0  # atno 10764 bound_to 10752
  154.5315  135.2888  155.1151 H   0  0  0  0  0  0  0  0  0  0  0  0  # atno 10765 bound_to 10752
  140.0059  134.9459  157.0173 H   0  0  0  0  0  0  0  0  0  0  0  0  # atno 11005 bound_to 11000
  144.9658  140.8320  143.5485 LP  0  0  0  0  0  0  0  0  0  0  0  0  # atno 17320 bound_to 7965
  145.2151  139.2186  143.5122 LP  0  0  0  0  0  0  0  0  0  0  0  0  # atno 17321 bound_to 7965
  139.5529  144.2350  152.1561 LP  0  0  0  0  0  0  0  0  0  0  0  0  # atno 17342 bound_to 10162
  140.1595  144.5039  150.6640 LP  0  0  0  0  0  0  0  0  0  0  0  0  # atno 17343 bound_to 10162
  157.1052  131.0206  151.3070 LP  0  0  0  0  0  0  0  0  0  0  0  0  # atno 17370 bound_to 10713
  157.4748  130.7730  149.7357 LP  0  0  0  0  0  0  0  0  0  0  0  0  # atno 17371 bound_to 10713
  140.4643  134.1452  155.7195 LP  0  0  0  0  0  0  0  0  0  0  0  0  # atno 17394 bound_to 11000
  141.1676  133.8672  157.1668 LP  0  0  0  0  0  0  0  0  0  0  0  0  # atno 17395 bound_to 11000

$$$$
