AV-unprocessed.smi:2224|AV-procd|sdf|8995|dock9
  -GOLD-   2272012203D 1   1.00000     0.00000
 Structure written by MMmdl.
 44 46  0  0  0  0  0  0  0  0  1 V2000
  148.7266  130.4747  153.5319 C   0  0  0  0  0  0  0  0  0  0  0  0
  149.4889  131.5537  154.2718 C   0  0  0  0  0  0  0  0  0  0  0  0
  150.4637  131.2228  155.2325 C   0  0  0  0  0  0  0  0  0  0  0  0
  151.1338  132.2739  155.8888 C   0  0  0  0  0  0  0  0  0  0  0  0
  152.1953  131.9903  156.9307 C   0  0  0  0  0  0  0  0  0  0  0  0
  150.8839  133.5771  155.6389 N   0  0  0  0  0  0  0  0  0  0  0  0
  149.9474  133.9073  154.7156 C   0  0  0  0  0  0  0  0  0  0  0  0
  149.6147  135.2450  154.3750 N   0  0  0  0  0  0  0  0  0  0  0  0
  149.5223  136.3112  155.1889 C   0  0  0  0  0  0  0  0  0  0  0  0
  149.6730  136.2921  156.4109 O   0  0  0  0  0  0  0  0  0  0  0  0
  149.2350  137.4234  154.4987 N   0  0  0  0  0  0  0  0  0  0  0  0
  149.0445  138.7426  155.0943 C   0  0  2  0  0  0  0  0  0  0  0  0
  148.6352  139.7980  154.0547 C   0  0  1  0  0  0  0  0  0  0  0  0
  147.2763  140.4401  154.1310 C   0  0  0  0  0  0  0  0  0  0  0  0
  147.5547  141.7381  154.8940 C   0  0  0  0  0  0  0  0  0  0  0  0
  148.7657  141.4856  155.6024 O   0  0  0  0  0  0  0  0  0  0  0  0
  149.6179  140.7334  154.7419 C   0  0  1  0  0  0  0  0  0  0  0  0
  150.3515  139.5303  155.3714 C   0  0  0  0  0  0  0  0  0  0  0  0
  150.7486  139.6847  156.8407 C   0  0  0  0  0  0  0  0  0  0  0  0
  151.6161  139.0987  154.6146 C   0  0  0  0  0  0  0  0  0  0  0  0
  149.2316  132.9144  154.0098 C   0  0  0  0  0  0  0  0  0  0  0  0
  149.0007  129.4806  153.8866 H   0  0  0  0  0  0  0  0  0  0  0  0
  148.9383  130.5276  152.4638 H   0  0  0  0  0  0  0  0  0  0  0  0
  147.6537  130.6035  153.6769 H   0  0  0  0  0  0  0  0  0  0  0  0
  150.6921  130.1918  155.4604 H   0  0  0  0  0  0  0  0  0  0  0  0
  152.2696  130.9226  157.1391 H   0  0  0  0  0  0  0  0  0  0  0  0
  151.9592  132.5026  157.8639 H   0  0  0  0  0  0  0  0  0  0  0  0
  153.1683  132.3387  156.5838 H   0  0  0  0  0  0  0  0  0  0  0  0
  149.4293  135.4100  153.3970 H   0  0  0  0  0  0  0  0  0  0  0  0
  149.1287  137.3535  153.4975 H   0  0  0  0  0  0  0  0  0  0  0  0
  148.3733  138.7411  155.9561 H   0  0  0  0  0  0  0  0  0  0  0  0
  148.9644  139.5456  153.0451 H   0  0  0  0  0  0  0  0  0  0  0  0
  146.8487  140.6365  153.1478 H   0  0  0  0  0  0  0  0  0  0  0  0
  146.5777  139.8088  154.6810 H   0  0  0  0  0  0  0  0  0  0  0  0
  147.7159  142.5638  154.1992 H   0  0  0  0  0  0  0  0  0  0  0  0
  146.7444  142.0131  155.5694 H   0  0  0  0  0  0  0  0  0  0  0  0
  150.2009  141.3497  154.0558 H   0  0  0  0  0  0  0  0  0  0  0  0
  151.5112  140.4531  156.9707 H   0  0  0  0  0  0  0  0  0  0  0  0
  151.1436  138.7538  157.2488 H   0  0  0  0  0  0  0  0  0  0  0  0
  149.8971  139.9676  157.4602 H   0  0  0  0  0  0  0  0  0  0  0  0
  152.4012  139.8515  154.6919 H   0  0  0  0  0  0  0  0  0  0  0  0
  151.4219  138.9486  153.5524 H   0  0  0  0  0  0  0  0  0  0  0  0
  152.0214  138.1648  155.0055 H   0  0  0  0  0  0  0  0  0  0  0  0
  148.4885  133.1905  153.2754 H   0  0  0  0  0  0  0  0  0  0  0  0
  1  2  1  0  0  0  0
  1 22  1  0  0  0  0
  1 23  1  0  0  0  0
  1 24  1  0  0  0  0
  2 21  1  0  0  0  0
  2  3  2  0  0  0  0
  3  4  1  0  0  0  0
  3 25  1  0  0  0  0
  4  5  1  0  0  0  0
  4  6  2  0  0  0  0
  5 26  1  0  0  0  0
  5 27  1  0  0  0  0
  5 28  1  0  0  0  0
  6  7  1  0  0  0  0
  7  8  1  0  0  0  0
  7 21  2  0  0  0  0
  8  9  1  0  0  0  0
  8 29  1  0  0  0  0
  9 10  2  0  0  0  0
  9 11  1  0  0  0  0
 11 12  1  0  0  0  0
 11 30  1  0  0  0  0
 12 18  1  0  0  0  0
 12 13  1  0  0  0  0
 12 31  1  0  0  0  0
 13 17  1  0  0  0  0
 13 14  1  0  0  0  0
 13 32  1  0  0  0  0
 14 15  1  0  0  0  0
 14 33  1  0  0  0  0
 14 34  1  0  0  0  0
 15 16  1  0  0  0  0
 15 35  1  0  0  0  0
 15 36  1  0  0  0  0
 16 17  1  0  0  0  0
 17 18  1  0  0  0  0
 17 37  1  0  0  0  0
 18 19  1  0  0  0  0
 18 20  1  0  0  0  0
 19 38  1  0  0  0  0
 19 39  1  0  0  0  0
 19 40  1  0  0  0  0
 20 41  1  0  0  0  0
 20 42  1  0  0  0  0
 20 43  1  0  0  0  0
 21 44  1  0  0  0  0
M  END
> <s_m_source_file>
AV-unprocessed.smi

> <i_m_source_file_index>
2224

> <i_lp_mmshare_version>
43012

> <i_f3d_flags>
0

> <s_epik_input>
W0NIM11jMVtjSF1jKFtDSDNdKW5jKFtjSF0xKVtOSF1DKD1PKVtOSF1bQ0BIXTJDKFtDSDNdKShbQ0gzXSlbQ0BIXShbQ0BASF0yMylPW0NIMl1bQ0gyXTM=

> <s_epik_cmdline>
J2VwaWtfcHl0aG9uJywgJy1waCcsICc3LjAnLCAnLXRuJywgJzgnLCAnLW1hJywgJzIwMCcsICctbWV0YWxfYmluZGluZycsICctaW1hZScsICc8aW5maWxlLm1hZT4nLCAnLW9tYWUnLCAnPG91dGZpbGUubWFlPic=

> <r_lp_tautomer_probability>
1

> <r_epik_Ionization_Penalty>
0.000276544

> <r_epik_Ionization_Penalty_Charging>
0

> <r_epik_Ionization_Penalty_Neutral>
0.000276544

> <r_epik_State_Penalty>
-0

> <r_epik_Charging_Adjusted_Penalty>
0

> <i_epik_Tot_Q>
0

> <i_epik_Tot_abs_Q>
0

> <r_epik_Metal_State_Penalty>
-0

> <b_epik_Metal_Only>
0

> <s_lp_Force_Field>
OPLS_2005

> <r_lp_Energy>
38.5894

> <b_lp_Chiralities_Consistent>
1

> <s_lp_Variant>
AV-unprocessed.smi:2224-5

> <Gold.Version>
5.8.1

> <Gold.Id.Protein>
6NUR|6NUR_protein|mol2

> <Gold.PLP.Fitness>
38.2685

> <Gold.PLP.PLP>
-33.3016

> <Gold.PLP.part.hbond>
-2.0000

> <Gold.PLP.part.metal>
0.0000

> <Gold.PLP.part.buried>
-1.0740

> <Gold.PLP.part.nonpolar>
-30.2450

> <Gold.PLP.part.repulsive>
0.1689

> <Gold.PLP.ligand.clash>
0.0000

> <Gold.PLP.ligand.torsion>
0.4540

> <Gold.PLP.Chemscore.Hbond>
1.9000

> <Gold.PLP.Chemscore.CHOScore>
0.0000

> <Gold.PLP.Chemscore.Metal>
0.0000

> <Gold.Chemscore.Hbonds>
donor molecule, donor type, donor heavy atom, donor atom, acceptor molecule, acceptor atom, score
      L1  H     8    29       P1  7948  0.80
      L1  H    11    30       P1  7948  1.00

> <Gold.PLP.Chemscore.Internal.Correction>
0.1749

> <Gold.Rescore>
     Score         DG    S(hbond)    S(metal)    S(lipo)     H(rot)  DE(clash)    DE(int)     intcor
     16.07     -17.27       1.57        0.00      77.71       1.00       0.06       1.14       ----

> <Gold.Chemscore.Fitness>
16.0682

> <Gold.Chemscore.DG>
-17.2701

> <Gold.Chemscore.ZeroCoef>
-5.4800

> <Gold.Chemscore.Hbond>
1.5742

> <Gold.Chemscore.Metal>
0.0000

> <Gold.Chemscore.Lipo>
77.7126

> <Gold.Chemscore.Internal_Hbond>
0.0000

> <Gold.Chemscore.DEClash>
0.0642

> <Gold.Chemscore.DEInternal>
1.1377

> <Gold.Chemscore.Rot>
1.0000

> <Gold.Chemscore.Internal.Correction>
   9.000000E+99

> <Gold.Chemscore.Hbonds>
donor molecule, donor type, donor heavy atom, donor atom, acceptor molecule, acceptor atom, score
      L1  H     8    29       P1  7948  0.12
      L1  H    11    30       P1  7948  0.93

> <Gold.Chemscore.Hbond.Weighted>
-5.2577

> <Gold.Chemscore.Metal.Weighted>
-0.0000

> <Gold.Chemscore.Lipo.Weighted>
-9.0924

> <Gold.Chemscore.Internal_Hbond.Weighted>
0.0000

> <Gold.Chemscore.DEClash.Weighted>
0.0642

> <Gold.Chemscore.DEInternal.Weighted>
1.1377

> <Gold.Chemscore.Rot.Weighted>
2.5600

> <Gold.Chemscore.Internal.Correction.Weighted>
   9.000000E+99

> <Gold.Protein.RotatedTorsions>
[ 6907 6896 6895 6894 ] final  117.02 input  -60.11 | X-H torsion
[ 7974 7965 7964 7962 ] final -135.70 input  175.53 | X-H torsion
[ 8008 7997 7996 7995 ] final -115.93 input   59.86 | X-H torsion
[ 10167 10162 10161 10158 ] final  134.21 input  -65.29 | X-H torsion
[ 10718 10713 10712 10709 ] final  173.39 input   66.30 | X-H torsion
[ 10763 10752 10751 10750 ] final  139.32 input  -60.55 | X-H torsion
[ 11005 11000 10999 10996 ] final -112.40 input  -57.11 | X-H torsion

> <Gold.Protein.ActiveResidues>
 VAL166  LYS551  ARG553  GLY616  TRP617  ASP618  TYR619  PRO620  LYS621  CYS622 
 ASP623  PHE694  ASN695  SER759  ASP760  ASP761  ALA762  ILE779  LEU786  VAL792 
 PHE793  MET794  SER795  GLU796  ALA797  LYS798  CYS799  TRP800  GLU811  SER814 

> <Gold.Protein.RotatedAtoms>
  152.4639  133.7882  159.6887 H   0  0  0  0  0  0  0  0  0  0  0  0  # atno 6907 bound_to 6896
  150.8595  133.7655  159.3003 H   0  0  0  0  0  0  0  0  0  0  0  0  # atno 6908 bound_to 6896
  151.5224  135.1070  159.9934 H   0  0  0  0  0  0  0  0  0  0  0  0  # atno 6909 bound_to 6896
  144.8991  140.6747  143.5096 H   0  0  0  0  0  0  0  0  0  0  0  0  # atno 7974 bound_to 7965
  155.0599  140.0393  157.2573 H   0  0  0  0  0  0  0  0  0  0  0  0  # atno 8008 bound_to 7997
  154.7068  140.2684  155.6642 H   0  0  0  0  0  0  0  0  0  0  0  0  # atno 8009 bound_to 7997
  156.2777  140.2729  156.1697 H   0  0  0  0  0  0  0  0  0  0  0  0  # atno 8010 bound_to 7997
  139.5265  144.6578  151.5107 H   0  0  0  0  0  0  0  0  0  0  0  0  # atno 10167 bound_to 10162
  156.9649  131.0072  151.2919 H   0  0  0  0  0  0  0  0  0  0  0  0  # atno 10718 bound_to 10713
  153.9042  135.3018  155.3448 H   0  0  0  0  0  0  0  0  0  0  0  0  # atno 10763 bound_to 10752
  154.7655  135.4912  153.9550 H   0  0  0  0  0  0  0  0  0  0  0  0  # atno 10764 bound_to 10752
  153.1228  135.6786  153.9407 H   0  0  0  0  0  0  0  0  0  0  0  0  # atno 10765 bound_to 10752
  141.0677  133.9431  157.2545 H   0  0  0  0  0  0  0  0  0  0  0  0  # atno 11005 bound_to 11000
  145.3648  139.1673  143.4364 LP  0  0  0  0  0  0  0  0  0  0  0  0  # atno 17320 bound_to 7965
  146.3098  140.3714  142.8674 LP  0  0  0  0  0  0  0  0  0  0  0  0  # atno 17321 bound_to 7965
  140.6412  143.8885  150.6694 LP  0  0  0  0  0  0  0  0  0  0  0  0  # atno 17342 bound_to 10162
  140.2220  143.3801  152.1635 LP  0  0  0  0  0  0  0  0  0  0  0  0  # atno 17343 bound_to 10162
  157.5632  130.8260  149.8293 LP  0  0  0  0  0  0  0  0  0  0  0  0  # atno 17370 bound_to 10713
  156.0306  130.3765  150.1697 LP  0  0  0  0  0  0  0  0  0  0  0  0  # atno 17371 bound_to 10713
  139.9493  135.0178  156.8946 LP  0  0  0  0  0  0  0  0  0  0  0  0  # atno 17394 bound_to 11000
  140.5738  134.0418  155.7439 LP  0  0  0  0  0  0  0  0  0  0  0  0  # atno 17395 bound_to 11000

$$$$
