AV-unprocessed.smi:1748|AV-procd|sdf|7039|dock9
  -GOLD-   22720 8253D 1   1.00000     0.00000
 Structure written by MMmdl.
 40 41  0  0  0  0  0  0  0  0  2 V2000
  143.0658  132.9684  148.6633 C   0  0  0  0  0  0  0  0  0  0  0  0
  143.8142  132.9417  149.9385 N   0  3  2  0  0  0  0  0  0  0  0  0
  144.3004  134.2867  150.3359 C   0  0  0  0  0  0  0  0  0  0  0  0
  144.9658  134.2464  151.7218 C   0  0  0  0  0  0  0  0  0  0  0  0
  146.1005  133.2133  151.7594 C   0  0  0  0  0  0  0  0  0  0  0  0
  145.5764  131.8368  151.3193 C   0  0  2  0  0  0  0  0  0  0  0  0
  146.6701  130.8698  151.3009 N   0  0  0  0  0  0  0  0  0  0  0  0
  146.6401  129.6614  151.8814 C   0  0  0  0  0  0  0  0  0  0  0  0
  145.6603  129.2324  152.4905 O   0  0  0  0  0  0  0  0  0  0  0  0
  147.7965  129.0022  151.6836 N   0  0  0  0  0  0  0  0  0  0  0  0
  148.1817  127.7310  152.1421 C   0  0  0  0  0  0  0  0  0  0  0  0
  148.3235  126.6328  151.3548 C   0  0  0  0  0  0  0  0  0  0  0  0
  148.7098  125.3405  151.8955 C   0  0  0  0  0  0  0  0  0  0  0  0
  148.9361  124.1400  150.9898 C   0  0  0  0  0  0  0  0  0  0  0  0
  149.2544  123.0516  151.6919 F   0  0  0  0  0  0  0  0  0  0  0  0
  147.8272  123.8798  150.2983 F   0  0  0  0  0  0  0  0  0  0  0  0
  149.9183  124.3805  150.1210 F   0  0  0  0  0  0  0  0  0  0  0  0
  148.9297  125.2863  153.2223 C   0  0  0  0  0  0  0  0  0  0  0  0
  148.7655  126.4056  154.0417 N   0  0  0  0  0  0  0  0  0  0  0  0
  148.4027  127.6286  153.5941 C   0  0  0  0  0  0  0  0  0  0  0  0
  148.2783  128.5670  154.3805 O   0  0  0  0  0  0  0  0  0  0  0  0
  144.9045  131.9345  149.9330 C   0  0  0  0  0  0  0  0  0  0  0  0
  148.9336  126.2798  155.0295 H   0  0  0  0  0  0  0  0  0  0  0  0
  143.7096  133.2754  147.8380 H   0  0  0  0  0  0  0  0  0  0  0  0
  142.2291  133.6651  148.7222 H   0  0  0  0  0  0  0  0  0  0  0  0
  142.6607  131.9824  148.4333 H   0  0  0  0  0  0  0  0  0  0  0  0
  145.0070  134.6552  149.5904 H   0  0  0  0  0  0  0  0  0  0  0  0
  143.4645  134.9872  150.3540 H   0  0  0  0  0  0  0  0  0  0  0  0
  145.3517  135.2332  151.9792 H   0  0  0  0  0  0  0  0  0  0  0  0
  144.2205  133.9988  152.4789 H   0  0  0  0  0  0  0  0  0  0  0  0
  146.9091  133.5344  151.1009 H   0  0  0  0  0  0  0  0  0  0  0  0
  146.5191  133.1572  152.7650 H   0  0  0  0  0  0  0  0  0  0  0  0
  144.8332  131.5093  152.0495 H   0  0  0  0  0  0  0  0  0  0  0  0
  147.5128  131.1428  150.8157 H   0  0  0  0  0  0  0  0  0  0  0  0
  148.4796  129.4583  151.0963 H   0  0  0  0  0  0  0  0  0  0  0  0
  148.1291  126.6793  150.2956 H   0  0  0  0  0  0  0  0  0  0  0  0
  149.2466  124.3999  153.7520 H   0  0  0  0  0  0  0  0  0  0  0  0
  144.4914  130.9646  149.6521 H   0  0  0  0  0  0  0  0  0  0  0  0
  145.6402  132.1982  149.1710 H   0  0  0  0  0  0  0  0  0  0  0  0
  143.1581  132.6501  150.6491 H   0  0  0  0  0  0  0  0  0  0  0  0
  1  2  1  0  0  0  0
  1 24  1  0  0  0  0
  1 25  1  0  0  0  0
  1 26  1  0  0  0  0
  2 22  1  0  0  0  0
  2  3  1  0  0  0  0
  2 40  1  0  0  0  0
  3  4  1  0  0  0  0
  3 27  1  0  0  0  0
  3 28  1  0  0  0  0
  4  5  1  0  0  0  0
  4 29  1  0  0  0  0
  4 30  1  0  0  0  0
  5  6  1  0  0  0  0
  5 31  1  0  0  0  0
  5 32  1  0  0  0  0
  6  7  1  0  0  0  0
  6 22  1  0  0  0  0
  6 33  1  0  0  0  0
  7  8  1  0  0  0  0
  7 34  1  0  0  0  0
  8  9  2  0  0  0  0
  8 10  1  0  0  0  0
 10 11  1  0  0  0  0
 10 35  1  0  0  0  0
 11 20  1  0  0  0  0
 11 12  2  0  0  0  0
 12 13  1  0  0  0  0
 12 36  1  0  0  0  0
 13 14  1  0  0  0  0
 13 18  2  0  0  0  0
 14 15  1  0  0  0  0
 14 16  1  0  0  0  0
 14 17  1  0  0  0  0
 18 19  1  0  0  0  0
 18 37  1  0  0  0  0
 19 23  1  0  0  0  0
 19 20  1  0  0  0  0
 20 21  2  0  0  0  0
 22 38  1  0  0  0  0
 22 39  1  0  0  0  0
M  CHG  1   2   1
M  END
> <s_m_source_file>
AV-unprocessed.smi

> <i_m_source_file_index>
1748

> <i_lp_mmshare_version>
43012

> <i_f3d_flags>
0

> <s_epik_input>
W0NIM11OMVtDSDJdW0NIMl1bQ0gyXVtDQEhdKFtDSDJdMSlbTkhdQyg9TylbTkhdYzJbY0hdYyhDKEYpKEYpRilbY0hdW25IXWMyPU8=

> <s_epik_cmdline>
J2VwaWtfcHl0aG9uJywgJy1waCcsICc3LjAnLCAnLXRuJywgJzgnLCAnLW1hJywgJzIwMCcsICctbWV0YWxfYmluZGluZycsICctaW1hZScsICc8aW5maWxlLm1hZT4nLCAnLW9tYWUnLCAnPG91dGZpbGUubWFlPic=

> <r_lp_tautomer_probability>
1

> <r_epik_Ionization_Penalty>
0.00746315

> <r_epik_Ionization_Penalty_Charging>
0.00744398

> <r_epik_Ionization_Penalty_Neutral>
1.91704e-05

> <r_epik_State_Penalty>
-0

> <r_epik_Charging_Adjusted_Penalty>
0.00744398

> <i_epik_Tot_Q>
1

> <i_epik_Tot_abs_Q>
1

> <r_epik_Metal_State_Penalty>
0.379332

> <b_epik_Metal_Only>
0

> <s_lp_Force_Field>
OPLS_2005

> <r_lp_Energy>
25.4307

> <b_lp_Chiralities_Consistent>
1

> <s_lp_Variant>
AV-unprocessed.smi:1748-4

> <Gold.Version>
5.8.1

> <Gold.Id.Protein>
6NUR|6NUR_protein|mol2

> <Gold.PLP.Fitness>
42.5078

> <Gold.PLP.PLP>
-39.5118

> <Gold.PLP.part.hbond>
-2.3718

> <Gold.PLP.part.metal>
0.0000

> <Gold.PLP.part.buried>
-3.3252

> <Gold.PLP.part.nonpolar>
-34.3116

> <Gold.PLP.part.repulsive>
0.4505

> <Gold.PLP.ligand.clash>
0.8014

> <Gold.PLP.ligand.torsion>
0.8162

> <Gold.PLP.Chemscore.Hbond>
1.8000

> <Gold.PLP.Chemscore.CHOScore>
0.0000

> <Gold.PLP.Chemscore.Metal>
0.0000

> <Gold.Chemscore.Hbonds>
donor molecule, donor type, donor heavy atom, donor atom, acceptor molecule, acceptor atom, score
      L1  H     7    34       P1 10747  1.00
      L1  H    10    35       P1 10747  0.80

> <Gold.PLP.Chemscore.Internal.Correction>
0.0298

> <Gold.Rescore>
     Score         DG    S(hbond)    S(metal)    S(lipo)     H(rot)  DE(clash)    DE(int)     intcor
     14.98     -16.03       1.01        0.00      83.18       1.00       0.11       0.94       ----

> <Gold.Chemscore.Fitness>
14.9824

> <Gold.Chemscore.DG>
-16.0299

> <Gold.Chemscore.ZeroCoef>
-5.4800

> <Gold.Chemscore.Hbond>
1.0112

> <Gold.Chemscore.Metal>
0.0000

> <Gold.Chemscore.Lipo>
83.1826

> <Gold.Chemscore.Internal_Hbond>
0.0000

> <Gold.Chemscore.DEClash>
0.1071

> <Gold.Chemscore.DEInternal>
0.9403

> <Gold.Chemscore.Rot>
1.0000

> <Gold.Chemscore.Internal.Correction>
   9.000000E+99

> <Gold.Chemscore.Hbonds>
donor molecule, donor type, donor heavy atom, donor atom, acceptor molecule, acceptor atom, score
      L1  H     7    34       P1 10747  0.94
      L1  H    10    35       P1 10747  0.11

> <Gold.Chemscore.Hbond.Weighted>
-3.3775

> <Gold.Chemscore.Metal.Weighted>
-0.0000

> <Gold.Chemscore.Lipo.Weighted>
-9.7324

> <Gold.Chemscore.Internal_Hbond.Weighted>
0.0000

> <Gold.Chemscore.DEClash.Weighted>
0.1071

> <Gold.Chemscore.DEInternal.Weighted>
0.9403

> <Gold.Chemscore.Rot.Weighted>
2.5600

> <Gold.Chemscore.Internal.Correction.Weighted>
   9.000000E+99

> <Gold.Protein.RotatedTorsions>
[ 6907 6896 6895 6894 ] final -173.27 input  -60.11 | X-H torsion
[ 7974 7965 7964 7962 ] final  -30.05 input  175.53 | X-H torsion
[ 8008 7997 7996 7995 ] final   73.49 input   59.86 | X-H torsion
[ 10167 10162 10161 10158 ] final -108.02 input  -65.29 | X-H torsion
[ 10718 10713 10712 10709 ] final  123.35 input   66.30 | X-H torsion
[ 10763 10752 10751 10750 ] final  -96.49 input  -60.55 | X-H torsion
[ 11005 11000 10999 10996 ] final  102.74 input  -57.11 | X-H torsion

> <Gold.Protein.ActiveResidues>
 VAL166  LYS551  ARG553  GLY616  TRP617  ASP618  TYR619  PRO620  LYS621  CYS622 
 ASP623  PHE694  ASN695  SER759  ASP760  ASP761  ALA762  ILE779  LEU786  VAL792 
 PHE793  MET794  SER795  GLU796  ALA797  LYS798  CYS799  TRP800  GLU811  SER814 

> <Gold.Protein.RotatedAtoms>
  151.5535  133.3414  159.2957 H   0  0  0  0  0  0  0  0  0  0  0  0  # atno 6907 bound_to 6896
  150.8465  134.7778  159.6985 H   0  0  0  0  0  0  0  0  0  0  0  0  # atno 6908 bound_to 6896
  152.4521  134.5379  159.9882 H   0  0  0  0  0  0  0  0  0  0  0  0  # atno 6909 bound_to 6896
  146.1172  140.5490  142.8751 H   0  0  0  0  0  0  0  0  0  0  0  0  # atno 7974 bound_to 7965
  155.7845  140.3481  155.5315 H   0  0  0  0  0  0  0  0  0  0  0  0  # atno 8008 bound_to 7997
  155.8696  140.0984  157.1580 H   0  0  0  0  0  0  0  0  0  0  0  0  # atno 8009 bound_to 7997
  154.4016  140.1343  156.4049 H   0  0  0  0  0  0  0  0  0  0  0  0  # atno 8010 bound_to 7997
  140.1707  143.4045  152.1357 H   0  0  0  0  0  0  0  0  0  0  0  0  # atno 10167 bound_to 10162
  157.5671  131.1086  150.8434 H   0  0  0  0  0  0  0  0  0  0  0  0  # atno 10718 bound_to 10713
  154.7244  135.5082  153.8862 H   0  0  0  0  0  0  0  0  0  0  0  0  # atno 10763 bound_to 10752
  153.0891  135.6654  153.9898 H   0  0  0  0  0  0  0  0  0  0  0  0  # atno 10764 bound_to 10752
  153.9714  135.3038  155.3406 H   0  0  0  0  0  0  0  0  0  0  0  0  # atno 10765 bound_to 10752
  139.8779  134.9236  156.5104 H   0  0  0  0  0  0  0  0  0  0  0  0  # atno 11005 bound_to 11000
  144.7564  140.5316  143.6766 LP  0  0  0  0  0  0  0  0  0  0  0  0  # atno 17320 bound_to 7965
  145.5542  139.1477  143.3377 LP  0  0  0  0  0  0  0  0  0  0  0  0  # atno 17321 bound_to 7965
  139.5339  144.7189  151.4959 LP  0  0  0  0  0  0  0  0  0  0  0  0  # atno 17342 bound_to 10162
  140.6584  143.8550  150.6860 LP  0  0  0  0  0  0  0  0  0  0  0  0  # atno 17343 bound_to 10162
  156.8916  130.5215  149.5286 LP  0  0  0  0  0  0  0  0  0  0  0  0  # atno 17370 bound_to 10713
  156.0719  130.5750  150.9399 LP  0  0  0  0  0  0  0  0  0  0  0  0  # atno 17371 bound_to 10713
  140.8524  133.8122  155.9182 LP  0  0  0  0  0  0  0  0  0  0  0  0  # atno 17394 bound_to 11000
  140.9131  134.2236  157.4973 LP  0  0  0  0  0  0  0  0  0  0  0  0  # atno 17395 bound_to 11000

$$$$
