AV-unprocessed.smi:1450|AV-procd|sdf|5897|dock7
  -GOLD-   22720 5583D 1   1.00000     0.00000
 Structure written by MMmdl.
 31 32  0  0  0  0  0  0  0  0  1 V2000
  150.9403  141.0364  157.1794 O   0  0  0  0  0  0  0  0  0  0  0  0
  150.4689  142.0816  156.7316 C   0  0  0  0  0  0  0  0  0  0  0  0
  149.7896  142.1521  155.5786 N   0  0  0  0  0  0  0  0  0  0  0  0
  149.5166  141.0222  154.6969 C   0  0  0  0  0  0  0  0  0  0  0  0
  148.0068  140.8256  154.4666 C   0  0  2  0  0  0  0  0  0  0  0  0
  147.2455  142.0930  154.1287 C   0  0  0  0  0  0  0  0  0  0  0  0
  145.8093  141.6947  154.4540 C   0  0  0  0  0  0  0  0  0  0  0  0
  145.8973  140.7505  155.5172 O   0  0  0  0  0  0  0  0  0  0  0  0
  147.2505  140.3471  155.7055 C   0  0  0  0  0  0  0  0  0  0  0  0
  150.5796  143.2926  157.3040 N   0  0  0  0  0  0  0  0  0  0  0  0
  151.1971  143.6331  158.5375 C   0  0  0  0  0  0  0  0  0  0  0  0
  152.2060  142.8606  159.1625 C   0  0  0  0  0  0  0  0  0  0  0  0
  152.7248  143.2930  160.3983 C   0  0  0  0  0  0  0  0  0  0  0  0
  152.2130  144.4758  160.9663 C   0  0  0  0  0  0  0  0  0  0  0  0
  151.2422  145.2142  160.3886 N   0  0  0  0  0  0  0  0  0  0  0  0
  150.7487  144.7929  159.2045 C   0  0  0  0  0  0  0  0  0  0  0  0
  149.4423  143.0531  155.2843 H   0  0  0  0  0  0  0  0  0  0  0  0
  150.0290  141.1571  153.7428 H   0  0  0  0  0  0  0  0  0  0  0  0
  149.9463  140.1291  155.1511 H   0  0  0  0  0  0  0  0  0  0  0  0
  147.8489  140.1008  153.6658 H   0  0  0  0  0  0  0  0  0  0  0  0
  147.5619  142.9120  154.7763 H   0  0  0  0  0  0  0  0  0  0  0  0
  147.3718  142.4075  153.0922 H   0  0  0  0  0  0  0  0  0  0  0  0
  145.1927  142.5503  154.7306 H   0  0  0  0  0  0  0  0  0  0  0  0
  145.3466  141.2068  153.5953 H   0  0  0  0  0  0  0  0  0  0  0  0
  147.3274  139.2690  155.8494 H   0  0  0  0  0  0  0  0  0  0  0  0
  147.6298  140.8350  156.6045 H   0  0  0  0  0  0  0  0  0  0  0  0
  150.2227  144.0712  156.7696 H   0  0  0  0  0  0  0  0  0  0  0  0
  152.5782  141.9445  158.7308 H   0  0  0  0  0  0  0  0  0  0  0  0
  153.4948  142.7276  160.9021 H   0  0  0  0  0  0  0  0  0  0  0  0
  152.5883  144.8347  161.9134 H   0  0  0  0  0  0  0  0  0  0  0  0
  149.9711  145.4066  158.7732 H   0  0  0  0  0  0  0  0  0  0  0  0
  1  2  2  0  0  0  0
  2  3  1  0  0  0  0
  2 10  1  0  0  0  0
  3  4  1  0  0  0  0
  3 17  1  0  0  0  0
  4  5  1  0  0  0  0
  4 18  1  0  0  0  0
  4 19  1  0  0  0  0
  5  9  1  0  0  0  0
  5  6  1  0  0  0  0
  5 20  1  0  0  0  0
  6  7  1  0  0  0  0
  6 21  1  0  0  0  0
  6 22  1  0  0  0  0
  7  8  1  0  0  0  0
  7 23  1  0  0  0  0
  7 24  1  0  0  0  0
  8  9  1  0  0  0  0
  9 25  1  0  0  0  0
  9 26  1  0  0  0  0
 10 11  1  0  0  0  0
 10 27  1  0  0  0  0
 11 16  1  0  0  0  0
 11 12  2  0  0  0  0
 12 13  1  0  0  0  0
 12 28  1  0  0  0  0
 13 14  2  0  0  0  0
 13 29  1  0  0  0  0
 14 15  1  0  0  0  0
 14 30  1  0  0  0  0
 15 16  2  0  0  0  0
 16 31  1  0  0  0  0
M  END
> <s_m_source_file>
AV-unprocessed.smi

> <i_m_source_file_index>
1450

> <i_lp_mmshare_version>
43012

> <i_f3d_flags>
0

> <s_epik_input>
W2NIXTFuW2NIXVtjSF1bY0hdYzFbTkhdQyg9TylbTkhdW0NIMl1bQ0BASF0yW0NIMl1bQ0gyXU9bQ0gyXTI=

> <s_epik_cmdline>
J2VwaWtfcHl0aG9uJywgJy1waCcsICc3LjAnLCAnLXRuJywgJzgnLCAnLW1hJywgJzIwMCcsICctbWV0YWxfYmluZGluZycsICctaW1hZScsICc8aW5maWxlLm1hZT4nLCAnLW9tYWUnLCAnPG91dGZpbGUubWFlPic=

> <r_epik_Ionization_Penalty>
0.00478342

> <r_epik_Ionization_Penalty_Charging>
0

> <r_epik_Ionization_Penalty_Neutral>
0.00478342

> <r_epik_State_Penalty>
0.0034384

> <r_epik_Charging_Adjusted_Penalty>
0.0034384

> <i_epik_Tot_Q>
0

> <i_epik_Tot_abs_Q>
0

> <r_epik_Metal_State_Penalty>
-0

> <b_epik_Metal_Only>
0

> <s_lp_Force_Field>
OPLS_2005

> <r_lp_Energy>
20.8722

> <b_lp_Chiralities_Consistent>
1

> <s_lp_Variant>
AV-unprocessed.smi:1450-1

> <Gold.Version>
5.8.1

> <Gold.Id.Protein>
6NUR|6NUR_protein|mol2

> <Gold.PLP.Fitness>
39.4489

> <Gold.PLP.PLP>
-31.4735

> <Gold.PLP.part.hbond>
-2.0000

> <Gold.PLP.part.metal>
0.0000

> <Gold.PLP.part.buried>
-4.7032

> <Gold.PLP.part.nonpolar>
-26.0522

> <Gold.PLP.part.repulsive>
0.4660

> <Gold.PLP.ligand.clash>
0.0000

> <Gold.PLP.ligand.torsion>
0.1934

> <Gold.PLP.Chemscore.Hbond>
1.9600

> <Gold.PLP.Chemscore.CHOScore>
0.8255

> <Gold.PLP.Chemscore.Metal>
0.0000

> <Gold.Chemscore.Hbonds>
donor molecule, donor type, donor heavy atom, donor atom, acceptor molecule, acceptor atom, score
      L1  H     3    17       P1  8028  1.00
      L1  H    10    27       P1  8028  0.98
      L1  C    16    31       P1  8029  0.82

> <Gold.PLP.Chemscore.Internal.Correction>
0.0055

> <Gold.Rescore>
     Score         DG    S(hbond)    S(metal)    S(lipo)     H(rot)  DE(clash)    DE(int)     intcor
     17.40     -18.61       1.91        0.00      84.70       1.24       0.01       1.20       ----

> <Gold.Chemscore.Fitness>
17.4023

> <Gold.Chemscore.DG>
-18.6072

> <Gold.Chemscore.ZeroCoef>
-5.4800

> <Gold.Chemscore.Hbond>
1.9130

> <Gold.Chemscore.Metal>
0.0000

> <Gold.Chemscore.Lipo>
84.6975

> <Gold.Chemscore.Internal_Hbond>
0.0000

> <Gold.Chemscore.DEClash>
0.0063

> <Gold.Chemscore.DEInternal>
1.1986

> <Gold.Chemscore.Rot>
1.2390

> <Gold.Chemscore.Internal.Correction>
   9.000000E+99

> <Gold.Chemscore.Hbonds>
donor molecule, donor type, donor heavy atom, donor atom, acceptor molecule, acceptor atom, score
      L1  H     3    17       P1  8028  0.96
      L1  H    10    27       P1  8028  0.93

> <Gold.Chemscore.Hbond.Weighted>
-6.3893

> <Gold.Chemscore.Metal.Weighted>
-0.0000

> <Gold.Chemscore.Lipo.Weighted>
-9.9096

> <Gold.Chemscore.Internal_Hbond.Weighted>
0.0000

> <Gold.Chemscore.DEClash.Weighted>
0.0063

> <Gold.Chemscore.DEInternal.Weighted>
1.1986

> <Gold.Chemscore.Rot.Weighted>
3.1718

> <Gold.Chemscore.Internal.Correction.Weighted>
   9.000000E+99

> <Gold.Protein.RotatedTorsions>
[ 6907 6896 6895 6894 ] final -144.08 input  -60.11 | X-H torsion
[ 7974 7965 7964 7962 ] final   92.11 input  175.53 | X-H torsion
[ 8008 7997 7996 7995 ] final   33.61 input   59.86 | X-H torsion
[ 10167 10162 10161 10158 ] final  -76.25 input  -65.29 | X-H torsion
[ 10718 10713 10712 10709 ] final   24.97 input   66.30 | X-H torsion
[ 10763 10752 10751 10750 ] final    8.57 input  -60.55 | X-H torsion
[ 11005 11000 10999 10996 ] final  161.07 input  -57.11 | X-H torsion

> <Gold.Protein.ActiveResidues>
 VAL166  LYS551  ARG553  GLY616  TRP617  ASP618  TYR619  PRO620  LYS621  CYS622 
 ASP623  PHE694  ASN695  SER759  ASP760  ASP761  ALA762  ILE779  LEU786  VAL792 
 PHE793  MET794  SER795  GLU796  ALA797  LYS798  CYS799  TRP800  GLU811  SER814 

> <Gold.Protein.RotatedAtoms>
  151.1092  133.5185  159.2606 H   0  0  0  0  0  0  0  0  0  0  0  0  # atno 6907 bound_to 6896
  151.1986  135.0432  159.8873 H   0  0  0  0  0  0  0  0  0  0  0  0  # atno 6908 bound_to 6896
  152.5449  134.0923  159.8335 H   0  0  0  0  0  0  0  0  0  0  0  0  # atno 6909 bound_to 6896
  145.4966  139.2276  143.2800 H   0  0  0  0  0  0  0  0  0  0  0  0  # atno 7974 bound_to 7965
  155.1415  140.3266  155.4451 H   0  0  0  0  0  0  0  0  0  0  0  0  # atno 8008 bound_to 7997
  156.2603  140.1993  156.6480 H   0  0  0  0  0  0  0  0  0  0  0  0  # atno 8009 bound_to 7997
  154.6539  140.0555  156.9973 H   0  0  0  0  0  0  0  0  0  0  0  0  # atno 8010 bound_to 7997
  140.4873  143.2388  151.7963 H   0  0  0  0  0  0  0  0  0  0  0  0  # atno 10167 bound_to 10162
  157.1870  130.6829  149.6135 H   0  0  0  0  0  0  0  0  0  0  0  0  # atno 10718 bound_to 10713
  153.2235  135.6884  153.7972 H   0  0  0  0  0  0  0  0  0  0  0  0  # atno 10763 bound_to 10752
  153.7162  135.3274  155.3258 H   0  0  0  0  0  0  0  0  0  0  0  0  # atno 10764 bound_to 10752
  154.8281  135.4602  154.1092 H   0  0  0  0  0  0  0  0  0  0  0  0  # atno 10765 bound_to 10752
  140.2122  134.8259  157.3133 H   0  0  0  0  0  0  0  0  0  0  0  0  # atno 11005 bound_to 11000
  146.2251  140.5764  142.9000 LP  0  0  0  0  0  0  0  0  0  0  0  0  # atno 17320 bound_to 7965
  144.7803  140.5827  143.6610 LP  0  0  0  0  0  0  0  0  0  0  0  0  # atno 17321 bound_to 7965
  139.4844  144.4695  151.9442 LP  0  0  0  0  0  0  0  0  0  0  0  0  # atno 17342 bound_to 10162
  140.3781  144.2770  150.5911 LP  0  0  0  0  0  0  0  0  0  0  0  0  # atno 17343 bound_to 10162
  155.9716  130.4627  150.6156 LP  0  0  0  0  0  0  0  0  0  0  0  0  # atno 17370 bound_to 10713
  157.3897  131.0794  151.1404 LP  0  0  0  0  0  0  0  0  0  0  0  0  # atno 17371 bound_to 10713
  140.1939  134.4338  155.7700 LP  0  0  0  0  0  0  0  0  0  0  0  0  # atno 17394 bound_to 11000
  141.2226  133.7040  156.8072 LP  0  0  0  0  0  0  0  0  0  0  0  0  # atno 17395 bound_to 11000

$$$$
