AV-unprocessed.smi:178|AV-procd|sdf|1446|dock4
  -GOLD-   2262019233D 1   1.00000     0.00000
 Structure written by MMmdl.
 50 52  0  0  0  0  0  0  0  0  1 V2000
  153.1759  143.1050  163.0844 C   0  0  0  0  0  0  0  0  0  0  0  0
  152.9698  143.7396  161.8346 O   0  0  0  0  0  0  0  0  0  0  0  0
  152.2417  142.9296  160.9282 C   0  0  0  0  0  0  0  0  0  0  0  0
  153.2387  142.1553  160.0522 C   0  0  0  0  0  0  0  0  0  0  0  0
  152.6477  140.9644  159.4368 N   0  0  0  0  0  0  0  0  0  0  0  0
  153.2713  139.6676  159.6888 C   0  0  0  0  0  0  0  0  0  0  0  0
  152.3330  138.4923  159.3839 C   0  0  0  0  0  0  0  0  0  0  0  0
  153.0193  137.1946  159.4568 C   0  0  0  0  0  0  0  0  0  0  0  0
  153.5596  136.1731  159.5144 N   0  0  0  0  0  0  0  0  0  0  0  0
  151.6327  141.0982  158.5334 C   0  0  0  0  0  0  0  0  0  0  0  0
  150.5823  141.8946  158.8701 N   0  0  0  0  0  0  0  0  0  0  0  0
  149.5512  142.0628  158.0393 C   0  0  0  0  0  0  0  0  0  0  0  0
  149.3627  141.5361  156.8302 N   0  0  0  0  0  0  0  0  0  0  0  0
  150.4096  140.7409  156.4715 C   0  0  0  0  0  0  0  0  0  0  0  0
  151.5734  140.4675  157.2505 C   0  0  0  0  0  0  0  0  0  0  0  0
  152.4131  139.6206  156.5325 N   0  0  0  0  0  0  0  0  0  0  0  0
  151.7825  139.3996  155.4130 C   0  0  0  0  0  0  0  0  0  0  0  0
  150.5713  140.0375  155.2907 N   0  0  0  0  0  0  0  0  0  0  0  0
  149.6637  139.9685  154.1557 C   0  0  0  0  0  0  0  0  0  0  0  0
  148.4819  138.9937  154.3702 C   0  0  2  0  0  0  0  0  0  0  0  0
  148.9962  137.6742  154.4619 O   0  0  0  0  0  0  0  0  0  0  0  0
  147.4384  139.0301  153.2636 C   0  0  0  0  0  0  0  0  0  0  0  0
  146.1936  138.5043  153.9668 C   0  0  0  0  0  0  0  0  0  0  0  0
  146.2767  139.0246  155.2870 O   0  0  0  0  0  0  0  0  0  0  0  0
  147.6306  139.3363  155.6133 C   0  0  1  0  0  0  0  0  0  0  0  0
  148.0415  138.6691  156.9358 C   0  0  0  0  0  0  0  0  0  0  0  0
  153.7336  143.7687  163.7448 H   0  0  0  0  0  0  0  0  0  0  0  0
  153.7498  142.1845  162.9689 H   0  0  0  0  0  0  0  0  0  0  0  0
  152.2274  142.8682  163.5681 H   0  0  0  0  0  0  0  0  0  0  0  0
  151.6008  142.2401  161.4794 H   0  0  0  0  0  0  0  0  0  0  0  0
  151.5958  143.5550  160.3114 H   0  0  0  0  0  0  0  0  0  0  0  0
  153.5997  142.8152  159.2628 H   0  0  0  0  0  0  0  0  0  0  0  0
  154.1223  141.8851  160.6312 H   0  0  0  0  0  0  0  0  0  0  0  0
  154.1587  139.5843  159.0607 H   0  0  0  0  0  0  0  0  0  0  0  0
  153.6469  139.6134  160.7098 H   0  0  0  0  0  0  0  0  0  0  0  0
  151.4978  138.4657  160.0833 H   0  0  0  0  0  0  0  0  0  0  0  0
  151.9141  138.5855  158.3824 H   0  0  0  0  0  0  0  0  0  0  0  0
  148.7646  142.7114  158.3956 H   0  0  0  0  0  0  0  0  0  0  0  0
  152.1886  138.7657  154.6378 H   0  0  0  0  0  0  0  0  0  0  0  0
  149.2908  140.9735  153.9534 H   0  0  0  0  0  0  0  0  0  0  0  0
  150.2406  139.6762  153.2774 H   0  0  0  0  0  0  0  0  0  0  0  0
  148.9647  137.2822  153.6022 H   0  0  0  0  0  0  0  0  0  0  0  0
  147.2610  140.0591  152.9482 H   0  0  0  0  0  0  0  0  0  0  0  0
  147.7113  138.4512  152.3801 H   0  0  0  0  0  0  0  0  0  0  0  0
  145.2705  138.8093  153.4736 H   0  0  0  0  0  0  0  0  0  0  0  0
  146.2105  137.4147  154.0143 H   0  0  0  0  0  0  0  0  0  0  0  0
  147.6496  140.4171  155.7598 H   0  0  0  0  0  0  0  0  0  0  0  0
  149.0782  138.8969  157.1845 H   0  0  0  0  0  0  0  0  0  0  0  0
  147.9340  137.5851  156.8920 H   0  0  0  0  0  0  0  0  0  0  0  0
  147.4178  139.0252  157.7559 H   0  0  0  0  0  0  0  0  0  0  0  0
  1  2  1  0  0  0  0
  1 27  1  0  0  0  0
  1 28  1  0  0  0  0
  1 29  1  0  0  0  0
  2  3  1  0  0  0  0
  3  4  1  0  0  0  0
  3 30  1  0  0  0  0
  3 31  1  0  0  0  0
  4  5  1  0  0  0  0
  4 32  1  0  0  0  0
  4 33  1  0  0  0  0
  5  6  1  0  0  0  0
  5 10  1  0  0  0  0
  6  7  1  0  0  0  0
  6 34  1  0  0  0  0
  6 35  1  0  0  0  0
  7  8  1  0  0  0  0
  7 36  1  0  0  0  0
  7 37  1  0  0  0  0
  8  9  3  0  0  0  0
 10 15  1  0  0  0  0
 10 11  2  0  0  0  0
 11 12  1  0  0  0  0
 12 13  2  0  0  0  0
 12 38  1  0  0  0  0
 13 14  1  0  0  0  0
 14 18  1  0  0  0  0
 14 15  2  0  0  0  0
 15 16  1  0  0  0  0
 16 17  2  0  0  0  0
 17 18  1  0  0  0  0
 17 39  1  0  0  0  0
 18 19  1  0  0  0  0
 19 20  1  0  0  0  0
 19 40  1  0  0  0  0
 19 41  1  0  0  0  0
 20 25  1  0  0  0  0
 20 21  1  0  0  0  0
 20 22  1  0  0  0  0
 21 42  1  0  0  0  0
 22 23  1  0  0  0  0
 22 43  1  0  0  0  0
 22 44  1  0  0  0  0
 23 24  1  0  0  0  0
 23 45  1  0  0  0  0
 23 46  1  0  0  0  0
 24 25  1  0  0  0  0
 25 26  1  0  0  0  0
 25 47  1  0  0  0  0
 26 48  1  0  0  0  0
 26 49  1  0  0  0  0
 26 50  1  0  0  0  0
M  END
> <s_m_source_file>
AV-unprocessed.smi

> <i_m_source_file_index>
178

> <i_lp_mmshare_version>
43012

> <i_f3d_flags>
0

> <s_epik_input>
W0NIM11PW0NIMl1bQ0gyXU4oW0NIMl1bQ0gyXUMjTiljKG5bY0hdbjEpYyhjMTIpbltjSF1uMltDSDJdW0NAQF0zKFtPSF0pW0NIMl1bQ0gyXU9bQ0BIXTNbQ0gzXQ==

> <s_epik_cmdline>
J2VwaWtfcHl0aG9uJywgJy1waCcsICc3LjAnLCAnLXRuJywgJzgnLCAnLW1hJywgJzIwMCcsICctbWV0YWxfYmluZGluZycsICctaW1hZScsICc8aW5maWxlLm1hZT4nLCAnLW9tYWUnLCAnPG91dGZpbGUubWFlPic=

> <r_lp_tautomer_probability>
1

> <r_epik_Ionization_Penalty>
0.000885317

> <r_epik_Ionization_Penalty_Charging>
0

> <r_epik_Ionization_Penalty_Neutral>
0.000885317

> <r_epik_State_Penalty>
0.00047273

> <r_epik_Charging_Adjusted_Penalty>
0.00047273

> <i_epik_Tot_Q>
0

> <i_epik_Tot_abs_Q>
0

> <r_epik_Metal_State_Penalty>
-0

> <b_epik_Metal_Only>
0

> <s_lp_Force_Field>
OPLS_2005

> <r_lp_Energy>
29.3608

> <b_lp_Chiralities_Consistent>
1

> <s_lp_Variant>
AV-unprocessed.smi:178-2

> <Gold.Version>
5.8.1

> <Gold.Id.Protein>
6NUR|6NUR_protein|mol2

> <Gold.PLP.Fitness>
45.0470

> <Gold.PLP.PLP>
-39.1701

> <Gold.PLP.part.hbond>
-3.5122

> <Gold.PLP.part.metal>
0.0000

> <Gold.PLP.part.buried>
0.9367

> <Gold.PLP.part.nonpolar>
-36.0230

> <Gold.PLP.part.repulsive>
0.2844

> <Gold.PLP.ligand.clash>
0.0000

> <Gold.PLP.ligand.torsion>
1.7163

> <Gold.PLP.Chemscore.Hbond>
3.0000

> <Gold.PLP.Chemscore.CHOScore>
0.0000

> <Gold.PLP.Chemscore.Metal>
0.0000

> <Gold.Chemscore.Hbonds>
donor molecule, donor type, donor heavy atom, donor atom, acceptor molecule, acceptor atom, score
      L1  H    21    42       P1  7948  1.00
      P1  H  6896  6909       L1     9  1.00
      P1  H  7997  8008       L1    16  1.00

> <Gold.PLP.Chemscore.Internal.Correction>
0.3094

> <Gold.Rescore>
     Score         DG    S(hbond)    S(metal)    S(lipo)     H(rot)  DE(clash)    DE(int)     intcor
     10.23     -13.76       2.47        0.00      74.01       3.37       0.26       3.26       ----

> <Gold.Chemscore.Fitness>
10.2322

> <Gold.Chemscore.DG>
-13.7553

> <Gold.Chemscore.ZeroCoef>
-5.4800

> <Gold.Chemscore.Hbond>
2.4704

> <Gold.Chemscore.Metal>
0.0000

> <Gold.Chemscore.Lipo>
74.0136

> <Gold.Chemscore.Internal_Hbond>
0.0000

> <Gold.Chemscore.DEClash>
0.2598

> <Gold.Chemscore.DEInternal>
3.2633

> <Gold.Chemscore.Rot>
3.3732

> <Gold.Chemscore.Internal.Correction>
   9.000000E+99

> <Gold.Chemscore.Hbonds>
donor molecule, donor type, donor heavy atom, donor atom, acceptor molecule, acceptor atom, score
      L1  H    21    42       P1  7948  0.94
      P1  H  6896  6909       L1     9  0.44
      P1  H  7997  8008       L1    16  0.88

> <Gold.Chemscore.Hbond.Weighted>
-8.2511

> <Gold.Chemscore.Metal.Weighted>
-0.0000

> <Gold.Chemscore.Lipo.Weighted>
-8.6596

> <Gold.Chemscore.Internal_Hbond.Weighted>
0.0000

> <Gold.Chemscore.DEClash.Weighted>
0.2598

> <Gold.Chemscore.DEInternal.Weighted>
3.2633

> <Gold.Chemscore.Rot.Weighted>
8.6354

> <Gold.Chemscore.Internal.Correction.Weighted>
   9.000000E+99

> <Gold.Protein.RotatedTorsions>
[ 6907 6896 6895 6894 ] final  157.31 input  -60.11 | X-H torsion
[ 7974 7965 7964 7962 ] final  123.26 input  175.53 | X-H torsion
[ 8008 7997 7996 7995 ] final  -54.93 input   59.86 | X-H torsion
[ 10167 10162 10161 10158 ] final -118.64 input  -65.29 | X-H torsion
[ 10718 10713 10712 10709 ] final -126.14 input   66.30 | X-H torsion
[ 10763 10752 10751 10750 ] final -160.11 input  -60.55 | X-H torsion
[ 11005 11000 10999 10996 ] final  165.50 input  -57.11 | X-H torsion

> <Gold.Protein.ActiveResidues>
 VAL166  LYS551  ARG553  GLY616  TRP617  ASP618  TYR619  PRO620  LYS621  CYS622 
 ASP623  PHE694  ASN695  SER759  ASP760  ASP761  ALA762  ILE779  LEU786  VAL792 
 PHE793  MET794  SER795  GLU796  ALA797  LYS798  CYS799  TRP800  GLU811  SER814 

> <Gold.Protein.RotatedAtoms>
  152.0170  133.3883  159.4242 H   0  0  0  0  0  0  0  0  0  0  0  0  # atno 6907 bound_to 6896
  150.6894  134.3668  159.4984 H   0  0  0  0  0  0  0  0  0  0  0  0  # atno 6908 bound_to 6896
  152.1437  134.9042  160.0603 H   0  0  0  0  0  0  0  0  0  0  0  0  # atno 6909 bound_to 6896
  145.0980  139.3539  143.4826 H   0  0  0  0  0  0  0  0  0  0  0  0  # atno 7974 bound_to 7965
  154.4178  140.1164  156.5395 H   0  0  0  0  0  0  0  0  0  0  0  0  # atno 8008 bound_to 7997
  155.6522  140.3496  155.4733 H   0  0  0  0  0  0  0  0  0  0  0  0  # atno 8009 bound_to 7997
  155.9783  140.1155  157.0740 H   0  0  0  0  0  0  0  0  0  0  0  0  # atno 8010 bound_to 7997
  140.0553  143.5020  152.2060 H   0  0  0  0  0  0  0  0  0  0  0  0  # atno 10167 bound_to 10162
  156.1738  130.6686  151.0215 H   0  0  0  0  0  0  0  0  0  0  0  0  # atno 10718 bound_to 10713
  154.7418  135.3070  154.8714 H   0  0  0  0  0  0  0  0  0  0  0  0  # atno 10763 bound_to 10752
  153.9527  135.6762  153.4748 H   0  0  0  0  0  0  0  0  0  0  0  0  # atno 10764 bound_to 10752
  153.1017  135.4909  154.8803 H   0  0  0  0  0  0  0  0  0  0  0  0  # atno 10765 bound_to 10752
  140.2567  134.7934  157.3552 H   0  0  0  0  0  0  0  0  0  0  0  0  # atno 11005 bound_to 11000
  146.3530  140.0845  142.8616 LP  0  0  0  0  0  0  0  0  0  0  0  0  # atno 17320 bound_to 7965
  145.0988  140.9332  143.4725 LP  0  0  0  0  0  0  0  0  0  0  0  0  # atno 17321 bound_to 7965
  139.5927  144.7556  151.3360 LP  0  0  0  0  0  0  0  0  0  0  0  0  # atno 17342 bound_to 10162
  140.7198  143.7168  150.7726 LP  0  0  0  0  0  0  0  0  0  0  0  0  # atno 17343 bound_to 10162
  157.6821  131.0835  150.7341 LP  0  0  0  0  0  0  0  0  0  0  0  0  # atno 17370 bound_to 10713
  156.7399  130.4736  149.5480 LP  0  0  0  0  0  0  0  0  0  0  0  0  # atno 17371 bound_to 10713
  140.1504  134.4857  155.7965 LP  0  0  0  0  0  0  0  0  0  0  0  0  # atno 17394 bound_to 11000
  141.2195  133.6860  156.7369 LP  0  0  0  0  0  0  0  0  0  0  0  0  # atno 17395 bound_to 11000

$$$$
