AV-unprocessed.smi:156|AV-procd|sdf|1290|dock3
  -GOLD-   2262018573D 1   1.00000     0.00000
 Structure written by MMmdl.
 51 53  0  0  0  0  0  0  0  0  1 V2000
  148.1344  139.4660  156.0272 C   0  0  0  0  0  0  0  0  0  0  0  0
  149.0090  138.2819  155.5728 C   0  0  1  0  0  0  0  0  0  0  0  0
  150.3261  138.0904  156.3802 C   0  0  1  0  0  0  0  0  0  0  0  0
  151.0548  136.8019  155.9496 C   0  0  0  0  0  0  0  0  0  0  0  0
  151.4611  139.5550  156.1938 S   0  0  0  0  0  0  0  0  0  0  0  0
  150.5638  140.9166  157.0513 C   0  0  0  0  0  0  0  0  0  0  0  0
  152.7001  139.2852  156.9391 O   0  0  0  0  0  0  0  0  0  0  0  0
  151.5350  139.9120  154.7688 O   0  0  0  0  0  0  0  0  0  0  0  0
  148.2002  137.0543  155.5433 N   0  0  0  0  0  0  0  0  0  0  0  0
  148.0716  136.2229  156.7365 C   0  0  0  0  0  0  0  0  0  0  0  0
  147.2778  136.9129  154.5548 C   0  0  0  0  0  0  0  0  0  0  0  0
  146.8681  138.0322  153.9019 N   0  0  0  0  0  0  0  0  0  0  0  0
  145.9714  137.9542  152.9154 C   0  0  0  0  0  0  0  0  0  0  0  0
  145.3608  136.8738  152.4281 N   0  0  0  0  0  0  0  0  0  0  0  0
  145.7599  135.7443  153.0799 C   0  0  0  0  0  0  0  0  0  0  0  0
  146.7106  135.6709  154.1388 C   0  0  0  0  0  0  0  0  0  0  0  0
  146.8557  134.3472  154.5405 N   0  0  0  0  0  0  0  0  0  0  0  0
  146.0463  133.6813  153.7642 C   0  0  0  0  0  0  0  0  0  0  0  0
  145.3315  134.4443  152.8693 N   0  0  0  0  0  0  0  0  0  0  0  0
  144.3582  133.9716  151.8939 C   0  0  0  0  0  0  0  0  0  0  0  0
  144.9222  133.0191  150.8132 C   0  0  0  0  0  0  0  0  0  0  0  0
  146.4405  133.2675  150.7794 C   0  0  0  0  0  0  0  0  0  0  0  0
  147.1150  132.4323  149.8596 O   0  0  0  0  0  0  0  0  0  0  0  0
  144.4495  131.5565  150.8910 C   0  0  0  0  0  0  0  0  0  0  0  0
  143.5043  131.7519  149.8161 O   0  0  0  0  0  0  0  0  0  0  0  0
  144.1833  132.9771  149.4627 C   0  0  0  0  0  0  0  0  0  0  0  0
  148.6131  140.4240  155.8285 H   0  0  0  0  0  0  0  0  0  0  0  0
  147.9077  139.4129  157.0923 H   0  0  0  0  0  0  0  0  0  0  0  0
  147.1873  139.4784  155.4863 H   0  0  0  0  0  0  0  0  0  0  0  0
  149.3145  138.5316  154.5568 H   0  0  0  0  0  0  0  0  0  0  0  0
  150.1001  138.0240  157.4438 H   0  0  0  0  0  0  0  0  0  0  0  0
  150.4084  135.9279  156.0287 H   0  0  0  0  0  0  0  0  0  0  0  0
  151.9199  136.5957  156.5775 H   0  0  0  0  0  0  0  0  0  0  0  0
  151.3946  136.8674  154.9157 H   0  0  0  0  0  0  0  0  0  0  0  0
  151.0825  141.8570  156.8657 H   0  0  0  0  0  0  0  0  0  0  0  0
  150.5443  140.7344  158.1250 H   0  0  0  0  0  0  0  0  0  0  0  0
  149.5464  140.9856  156.6672 H   0  0  0  0  0  0  0  0  0  0  0  0
  147.7347  135.2186  156.4775 H   0  0  0  0  0  0  0  0  0  0  0  0
  147.3571  136.6603  157.4340 H   0  0  0  0  0  0  0  0  0  0  0  0
  149.0246  136.1213  157.2534 H   0  0  0  0  0  0  0  0  0  0  0  0
  145.7042  138.8923  152.4521 H   0  0  0  0  0  0  0  0  0  0  0  0
  145.9469  132.6079  153.8287 H   0  0  0  0  0  0  0  0  0  0  0  0
  143.5498  133.4889  152.4448 H   0  0  0  0  0  0  0  0  0  0  0  0
  143.9107  134.8489  151.4249 H   0  0  0  0  0  0  0  0  0  0  0  0
  146.6566  134.3020  150.5100 H   0  0  0  0  0  0  0  0  0  0  0  0
  146.8809  133.1015  151.7632 H   0  0  0  0  0  0  0  0  0  0  0  0
  147.6929  131.8590  150.3399 H   0  0  0  0  0  0  0  0  0  0  0  0
  145.2081  130.8187  150.6267 H   0  0  0  0  0  0  0  0  0  0  0  0
  143.9730  131.2829  151.8311 H   0  0  0  0  0  0  0  0  0  0  0  0
  143.4986  133.8043  149.2848 H   0  0  0  0  0  0  0  0  0  0  0  0
  144.8324  132.8376  148.5973 H   0  0  0  0  0  0  0  0  0  0  0  0
  1  2  1  0  0  0  0
  1 27  1  0  0  0  0
  1 28  1  0  0  0  0
  1 29  1  0  0  0  0
  2  3  1  0  0  0  0
  2  9  1  0  0  0  0
  2 30  1  0  0  0  0
  3  4  1  0  0  0  0
  3  5  1  0  0  0  0
  3 31  1  0  0  0  0
  4 32  1  0  0  0  0
  4 33  1  0  0  0  0
  4 34  1  0  0  0  0
  5  6  1  0  0  0  0
  5  7  2  0  0  0  0
  5  8  2  0  0  0  0
  6 35  1  0  0  0  0
  6 36  1  0  0  0  0
  6 37  1  0  0  0  0
  9 10  1  0  0  0  0
  9 11  1  0  0  0  0
 10 38  1  0  0  0  0
 10 39  1  0  0  0  0
 10 40  1  0  0  0  0
 11 16  1  0  0  0  0
 11 12  2  0  0  0  0
 12 13  1  0  0  0  0
 13 14  2  0  0  0  0
 13 41  1  0  0  0  0
 14 15  1  0  0  0  0
 15 19  1  0  0  0  0
 15 16  2  0  0  0  0
 16 17  1  0  0  0  0
 17 18  2  0  0  0  0
 18 19  1  0  0  0  0
 18 42  1  0  0  0  0
 19 20  1  0  0  0  0
 20 21  1  0  0  0  0
 20 43  1  0  0  0  0
 20 44  1  0  0  0  0
 21 26  1  0  0  0  0
 21 22  1  0  0  0  0
 21 24  1  0  0  0  0
 22 23  1  0  0  0  0
 22 45  1  0  0  0  0
 22 46  1  0  0  0  0
 23 47  1  0  0  0  0
 24 25  1  0  0  0  0
 24 48  1  0  0  0  0
 24 49  1  0  0  0  0
 25 26  1  0  0  0  0
 26 50  1  0  0  0  0
 26 51  1  0  0  0  0
M  END
> <s_m_source_file>
AV-unprocessed.smi

> <i_m_source_file_index>
156

> <i_lp_mmshare_version>
43012

> <i_f3d_flags>
0

> <s_epik_input>
W0NIM11TKD1PKSg9TylbQ0BASF0oW0NIM10pW0NAQEhdKFtDSDNdKU4oW0NIM10pYyhuW2NIXW4xKWMoYzEyKW5bY0hdbjJbQ0gyXUMzKFtDSDJdW09IXSlbQ0gyXU9bQ0gyXTM=

> <s_epik_cmdline>
J2VwaWtfcHl0aG9uJywgJy1waCcsICc3LjAnLCAnLXRuJywgJzgnLCAnLW1hJywgJzIwMCcsICctbWV0YWxfYmluZGluZycsICctaW1hZScsICc8aW5maWxlLm1hZT4nLCAnLW9tYWUnLCAnPG91dGZpbGUubWFlPic=

> <r_lp_tautomer_probability>
1

> <r_epik_Ionization_Penalty>
0.00107697

> <r_epik_Ionization_Penalty_Charging>
0

> <r_epik_Ionization_Penalty_Neutral>
0.00107697

> <r_epik_State_Penalty>
0.000614712

> <r_epik_Charging_Adjusted_Penalty>
0.000614712

> <i_epik_Tot_Q>
0

> <i_epik_Tot_abs_Q>
0

> <r_epik_Metal_State_Penalty>
-0

> <b_epik_Metal_Only>
0

> <s_lp_Force_Field>
OPLS_2005

> <r_lp_Energy>
27.5373

> <b_lp_Chiralities_Consistent>
1

> <s_lp_Variant>
AV-unprocessed.smi:156-4

> <Gold.Version>
5.8.1

> <Gold.Id.Protein>
6NUR|6NUR_protein|mol2

> <Gold.PLP.Fitness>
40.5879

> <Gold.PLP.PLP>
-28.7739

> <Gold.PLP.part.hbond>
-5.1438

> <Gold.PLP.part.metal>
0.0000

> <Gold.PLP.part.buried>
-4.6993

> <Gold.PLP.part.nonpolar>
-20.4732

> <Gold.PLP.part.repulsive>
1.2767

> <Gold.PLP.ligand.clash>
0.0000

> <Gold.PLP.ligand.torsion>
2.1356

> <Gold.PLP.Chemscore.Hbond>
4.0000

> <Gold.PLP.Chemscore.CHOScore>
0.9135

> <Gold.PLP.Chemscore.Metal>
0.0000

> <Gold.Chemscore.Hbonds>
donor molecule, donor type, donor heavy atom, donor atom, acceptor molecule, acceptor atom, score
      L1  H    23    47       P1 10747  0.91
      P1  H  7989  7998       L1     8  1.00
      P1  H  7997  8009       L1     7  1.00
      P1  H 10785 10796       L1    25  1.00
      L1  C    13    41       P1 10175  0.93

> <Gold.PLP.Chemscore.Internal.Correction>
1.3446

> <Gold.Rescore>
     Score         DG    S(hbond)    S(metal)    S(lipo)     H(rot)  DE(clash)    DE(int)     intcor
     12.91     -16.94       3.85        0.00      58.28       3.21       0.37       3.66       ----

> <Gold.Chemscore.Fitness>
12.9094

> <Gold.Chemscore.DG>
-16.9377

> <Gold.Chemscore.ZeroCoef>
-5.4800

> <Gold.Chemscore.Hbond>
3.8505

> <Gold.Chemscore.Metal>
0.0000

> <Gold.Chemscore.Lipo>
58.2781

> <Gold.Chemscore.Internal_Hbond>
0.0000

> <Gold.Chemscore.DEClash>
0.3660

> <Gold.Chemscore.DEInternal>
3.6623

> <Gold.Chemscore.Rot>
3.2115

> <Gold.Chemscore.Internal.Correction>
   9.000000E+99

> <Gold.Chemscore.Hbonds>
donor molecule, donor type, donor heavy atom, donor atom, acceptor molecule, acceptor atom, score
      L1  H    23    47       P1 10747  0.87
      P1  H  7989  7998       L1     8  0.97
      P1  H  7997  8009       L1     7  0.99
      P1  H 10785 10796       L1    25  0.79

> <Gold.Chemscore.Hbond.Weighted>
-12.8607

> <Gold.Chemscore.Metal.Weighted>
-0.0000

> <Gold.Chemscore.Lipo.Weighted>
-6.8185

> <Gold.Chemscore.Internal_Hbond.Weighted>
0.0000

> <Gold.Chemscore.DEClash.Weighted>
0.3660

> <Gold.Chemscore.DEInternal.Weighted>
3.6623

> <Gold.Chemscore.Rot.Weighted>
8.2215

> <Gold.Chemscore.Internal.Correction.Weighted>
   9.000000E+99

> <Gold.Protein.RotatedTorsions>
[ 6907 6896 6895 6894 ] final  168.87 input  -60.11 | X-H torsion
[ 7974 7965 7964 7962 ] final -140.93 input  175.53 | X-H torsion
[ 8008 7997 7996 7995 ] final -170.94 input   59.86 | X-H torsion
[ 10167 10162 10161 10158 ] final -139.63 input  -65.29 | X-H torsion
[ 10718 10713 10712 10709 ] final  -19.80 input   66.30 | X-H torsion
[ 10763 10752 10751 10750 ] final  152.47 input  -60.55 | X-H torsion
[ 11005 11000 10999 10996 ] final  -99.84 input  -57.11 | X-H torsion

> <Gold.Protein.ActiveResidues>
 VAL166  LYS551  ARG553  GLY616  TRP617  ASP618  TYR619  PRO620  LYS621  CYS622 
 ASP623  PHE694  ASN695  SER759  ASP760  ASP761  ALA762  ILE779  LEU786  VAL792 
 PHE793  MET794  SER795  GLU796  ALA797  LYS798  CYS799  TRP800  GLU811  SER814 

> <Gold.Protein.RotatedAtoms>
  151.8408  133.3423  159.3642 H   0  0  0  0  0  0  0  0  0  0  0  0  # atno 6907 bound_to 6896
  150.7235  134.5393  159.5748 H   0  0  0  0  0  0  0  0  0  0  0  0  # atno 6908 bound_to 6896
  152.2866  134.7770  160.0437 H   0  0  0  0  0  0  0  0  0  0  0  0  # atno 6909 bound_to 6896
  144.8559  140.6141  143.5360 H   0  0  0  0  0  0  0  0  0  0  0  0  # atno 7974 bound_to 7965
  155.9250  140.1081  157.1177 H   0  0  0  0  0  0  0  0  0  0  0  0  # atno 8008 bound_to 7997
  154.4060  140.1248  156.4794 H   0  0  0  0  0  0  0  0  0  0  0  0  # atno 8009 bound_to 7997
  155.7150  140.3470  155.4993 H   0  0  0  0  0  0  0  0  0  0  0  0  # atno 8010 bound_to 7997
  139.8360  143.7384  152.2665 H   0  0  0  0  0  0  0  0  0  0  0  0  # atno 10167 bound_to 10162
  156.5406  130.4677  149.6500 H   0  0  0  0  0  0  0  0  0  0  0  0  # atno 10718 bound_to 10713
  154.1205  135.2833  155.3209 H   0  0  0  0  0  0  0  0  0  0  0  0  # atno 10763 bound_to 10752
  154.6426  135.5397  153.7811 H   0  0  0  0  0  0  0  0  0  0  0  0  # atno 10764 bound_to 10752
  153.0314  135.6490  154.1359 H   0  0  0  0  0  0  0  0  0  0  0  0  # atno 10765 bound_to 10752
  141.1293  133.8352  157.1024 H   0  0  0  0  0  0  0  0  0  0  0  0  # atno 11005 bound_to 11000
  145.4408  139.1536  143.3971 LP  0  0  0  0  0  0  0  0  0  0  0  0  # atno 17320 bound_to 7965
  146.2822  140.4529  142.8772 LP  0  0  0  0  0  0  0  0  0  0  0  0  # atno 17321 bound_to 7965
  139.7606  144.7507  151.0369 LP  0  0  0  0  0  0  0  0  0  0  0  0  # atno 17342 bound_to 10162
  140.7802  143.4755  151.0088 LP  0  0  0  0  0  0  0  0  0  0  0  0  # atno 17343 bound_to 10162
  156.2975  130.7158  151.2022 LP  0  0  0  0  0  0  0  0  0  0  0  0  # atno 17370 bound_to 10713
  157.7406  131.0515  150.5156 LP  0  0  0  0  0  0  0  0  0  0  0  0  # atno 17371 bound_to 10713
  140.0325  134.9894  157.0808 LP  0  0  0  0  0  0  0  0  0  0  0  0  # atno 17394 bound_to 11000
  140.4263  134.1828  155.7166 LP  0  0  0  0  0  0  0  0  0  0  0  0  # atno 17395 bound_to 11000

$$$$
