AV-unprocessed.smi:739|AV-procd|sdf|3543|dock1
  -GOLD-   22720 0533D 1   1.00000     0.00000
 Structure written by MMmdl.
 32 34  0  0  0  0  0  0  0  0  1 V2000
  149.6354  140.8222  153.5300 O   0  0  0  0  0  0  0  0  0  0  0  0
  149.3963  141.0795  154.8985 C   0  0  1  0  0  0  0  0  0  0  0  0
  150.4874  142.0419  155.4081 C   0  0  0  0  0  0  0  0  0  0  0  0
  151.2855  141.4551  156.4704 N   0  0  0  0  0  0  0  0  0  0  0  0
  151.8987  140.2562  156.4518 C   0  0  0  0  0  0  0  0  0  0  0  0
  152.5737  139.8999  157.5410 N   0  0  0  0  0  0  0  0  0  0  0  0
  152.3763  140.9957  158.3635 C   0  0  0  0  0  0  0  0  0  0  0  0
  152.8300  141.2489  159.6777 C   0  0  0  0  0  0  0  0  0  0  0  0
  152.4942  142.4534  160.3303 C   0  0  0  0  0  0  0  0  0  0  0  0
  152.9360  142.6790  161.5903 F   0  0  0  0  0  0  0  0  0  0  0  0
  151.7020  143.4222  159.6790 C   0  0  0  0  0  0  0  0  0  0  0  0
  151.3820  144.5748  160.3136 F   0  0  0  0  0  0  0  0  0  0  0  0
  151.2417  143.1934  158.3685 C   0  0  0  0  0  0  0  0  0  0  0  0
  151.5765  141.9891  157.7219 C   0  0  0  0  0  0  0  0  0  0  0  0
  147.9925  141.6144  155.1473 C   0  0  0  0  0  0  0  0  0  0  0  0
  147.5306  141.7926  156.4693 C   0  0  0  0  0  0  0  0  0  0  0  0
  146.2456  142.3168  156.7082 C   0  0  0  0  0  0  0  0  0  0  0  0
  145.4138  142.6645  155.6266 C   0  0  0  0  0  0  0  0  0  0  0  0
  144.1795  143.1713  155.8564 F   0  0  0  0  0  0  0  0  0  0  0  0
  145.8677  142.4872  154.3057 C   0  0  0  0  0  0  0  0  0  0  0  0
  147.1532  141.9639  154.0662 C   0  0  0  0  0  0  0  0  0  0  0  0
  149.3037  139.9612  153.3251 H   0  0  0  0  0  0  0  0  0  0  0  0
  149.5011  140.1227  155.4122 H   0  0  0  0  0  0  0  0  0  0  0  0
  151.1629  142.3070  154.5933 H   0  0  0  0  0  0  0  0  0  0  0  0
  150.0497  142.9751  155.7649 H   0  0  0  0  0  0  0  0  0  0  0  0
  151.8430  139.6064  155.5906 H   0  0  0  0  0  0  0  0  0  0  0  0
  153.4363  140.5143  160.1866 H   0  0  0  0  0  0  0  0  0  0  0  0
  150.6337  143.9330  157.8692 H   0  0  0  0  0  0  0  0  0  0  0  0
  148.1655  141.5390  157.3056 H   0  0  0  0  0  0  0  0  0  0  0  0
  145.8993  142.4552  157.7218 H   0  0  0  0  0  0  0  0  0  0  0  0
  145.2315  142.7565  153.4755 H   0  0  0  0  0  0  0  0  0  0  0  0
  147.4961  141.8415  153.0492 H   0  0  0  0  0  0  0  0  0  0  0  0
  1  2  1  0  0  0  0
  1 22  1  0  0  0  0
  2  3  1  0  0  0  0
  2 15  1  0  0  0  0
  2 23  1  0  0  0  0
  3  4  1  0  0  0  0
  3 24  1  0  0  0  0
  3 25  1  0  0  0  0
  4 14  1  0  0  0  0
  4  5  1  0  0  0  0
  5  6  2  0  0  0  0
  5 26  1  0  0  0  0
  6  7  1  0  0  0  0
  7 14  2  0  0  0  0
  7  8  1  0  0  0  0
  8  9  2  0  0  0  0
  8 27  1  0  0  0  0
  9 10  1  0  0  0  0
  9 11  1  0  0  0  0
 11 12  1  0  0  0  0
 11 13  2  0  0  0  0
 13 14  1  0  0  0  0
 13 28  1  0  0  0  0
 15 21  1  0  0  0  0
 15 16  2  0  0  0  0
 16 17  1  0  0  0  0
 16 29  1  0  0  0  0
 17 18  2  0  0  0  0
 17 30  1  0  0  0  0
 18 19  1  0  0  0  0
 18 20  1  0  0  0  0
 20 21  2  0  0  0  0
 20 31  1  0  0  0  0
 21 32  1  0  0  0  0
M  END
> <s_m_source_file>
AV-unprocessed.smi

> <i_m_source_file_index>
739

> <i_lp_mmshare_version>
43012

> <i_f3d_flags>
0

> <s_epik_input>
W2NIXTFbY0hdYyhGKVtjSF1bY0hdYzFbQ0BIXShbT0hdKVtDSDJdbihbY0hdbjIpYyhjMjMpW2NIXWMoRiljKEYpW2NIXTM=

> <s_epik_cmdline>
J2VwaWtfcHl0aG9uJywgJy1waCcsICc3LjAnLCAnLXRuJywgJzgnLCAnLW1hJywgJzIwMCcsICctbWV0YWxfYmluZGluZycsICctaW1hZScsICc8aW5maWxlLm1hZT4nLCAnLW9tYWUnLCAnPG91dGZpbGUubWFlPic=

> <r_epik_Ionization_Penalty>
0.0156356

> <r_epik_Ionization_Penalty_Charging>
0

> <r_epik_Ionization_Penalty_Neutral>
0.0156356

> <r_epik_State_Penalty>
0.0122974

> <r_epik_Charging_Adjusted_Penalty>
0.0122974

> <i_epik_Tot_Q>
0

> <i_epik_Tot_abs_Q>
0

> <r_epik_Metal_State_Penalty>
1.24258e-05

> <b_epik_Metal_Only>
0

> <s_lp_Force_Field>
OPLS_2005

> <r_lp_Energy>
11.0695

> <b_lp_Chiralities_Consistent>
1

> <s_lp_Variant>
AV-unprocessed.smi:739-2

> <Gold.Version>
5.8.1

> <Gold.Id.Protein>
6NUR|6NUR_protein|mol2

> <Gold.PLP.Fitness>
52.1530

> <Gold.PLP.PLP>
-47.0762

> <Gold.PLP.part.hbond>
-3.7092

> <Gold.PLP.part.metal>
0.0000

> <Gold.PLP.part.buried>
-2.9277

> <Gold.PLP.part.nonpolar>
-37.7341

> <Gold.PLP.part.repulsive>
0.0000

> <Gold.PLP.ligand.clash>
0.0000

> <Gold.PLP.ligand.torsion>
0.9001

> <Gold.PLP.Chemscore.Hbond>
2.2855

> <Gold.PLP.Chemscore.CHOScore>
0.0000

> <Gold.PLP.Chemscore.Metal>
0.0000

> <Gold.Chemscore.Hbonds>
donor molecule, donor type, donor heavy atom, donor atom, acceptor molecule, acceptor atom, score
      P1  H  7989  7998       L1     1  0.35
      P1  H  7997  8008       L1     6  1.00
      P1  H  8011  8017       L1     1  1.00

> <Gold.PLP.Chemscore.Internal.Correction>
0.0204

> <Gold.Rescore>
     Score         DG    S(hbond)    S(metal)    S(lipo)     H(rot)  DE(clash)    DE(int)     intcor
     13.42     -16.02       1.40        0.00      95.48       2.07       1.84       0.75       ----

> <Gold.Chemscore.Fitness>
13.4219

> <Gold.Chemscore.DG>
-16.0163

> <Gold.Chemscore.ZeroCoef>
-5.4800

> <Gold.Chemscore.Hbond>
1.3966

> <Gold.Chemscore.Metal>
0.0000

> <Gold.Chemscore.Lipo>
95.4770

> <Gold.Chemscore.Internal_Hbond>
0.0000

> <Gold.Chemscore.DEClash>
1.8448

> <Gold.Chemscore.DEInternal>
0.7496

> <Gold.Chemscore.Rot>
2.0700

> <Gold.Chemscore.Internal.Correction>
   9.000000E+99

> <Gold.Chemscore.Hbonds>
donor molecule, donor type, donor heavy atom, donor atom, acceptor molecule, acceptor atom, score
      L1  H     1    22       P1  7957  0.02
      P1  H  7989  7998       L1     1  0.10
      P1  H  7997  8008       L1     6  0.14
      P1  H  8011  8017       L1     1  0.90

> <Gold.Chemscore.Hbond.Weighted>
-4.6647

> <Gold.Chemscore.Metal.Weighted>
-0.0000

> <Gold.Chemscore.Lipo.Weighted>
-11.1708

> <Gold.Chemscore.Internal_Hbond.Weighted>
0.0000

> <Gold.Chemscore.DEClash.Weighted>
1.8448

> <Gold.Chemscore.DEInternal.Weighted>
0.7496

> <Gold.Chemscore.Rot.Weighted>
5.2992

> <Gold.Chemscore.Internal.Correction.Weighted>
   9.000000E+99

> <Gold.Protein.RotatedTorsions>
[ 6907 6896 6895 6894 ] final  -87.47 input  -60.11 | X-H torsion
[ 7974 7965 7964 7962 ] final   54.47 input  175.53 | X-H torsion
[ 8008 7997 7996 7995 ] final  -76.02 input   59.86 | X-H torsion
[ 10167 10162 10161 10158 ] final -161.52 input  -65.29 | X-H torsion
[ 10718 10713 10712 10709 ] final  -67.94 input   66.30 | X-H torsion
[ 10763 10752 10751 10750 ] final -128.70 input  -60.55 | X-H torsion
[ 11005 11000 10999 10996 ] final  -82.13 input  -57.11 | X-H torsion

> <Gold.Protein.ActiveResidues>
 VAL166  LYS551  ARG553  GLY616  TRP617  ASP618  TYR619  PRO620  LYS621  CYS622 
 ASP623  PHE694  ASN695  SER759  ASP760  ASP761  ALA762  ILE779  LEU786  VAL792 
 PHE793  MET794  SER795  GLU796  ALA797  LYS798  CYS799  TRP800  GLU811  SER814 

> <Gold.Protein.RotatedAtoms>
  150.6866  134.2891  159.4658 H   0  0  0  0  0  0  0  0  0  0  0  0  # atno 6907 bound_to 6896
  152.0798  134.9476  160.0583 H   0  0  0  0  0  0  0  0  0  0  0  0  # atno 6908 bound_to 6896
  152.0833  133.4129  159.4548 H   0  0  0  0  0  0  0  0  0  0  0  0  # atno 6909 bound_to 6896
  145.9605  139.4054  143.0251 H   0  0  0  0  0  0  0  0  0  0  0  0  # atno 7974 bound_to 7965
  154.5468  140.0734  156.8602 H   0  0  0  0  0  0  0  0  0  0  0  0  # atno 8008 bound_to 7997
  155.3071  140.3388  155.4227 H   0  0  0  0  0  0  0  0  0  0  0  0  # atno 8009 bound_to 7997
  156.1925  140.1691  156.8049 H   0  0  0  0  0  0  0  0  0  0  0  0  # atno 8010 bound_to 7997
  139.6459  144.0174  152.2126 H   0  0  0  0  0  0  0  0  0  0  0  0  # atno 10167 bound_to 10162
  156.0531  130.4286  150.1928 H   0  0  0  0  0  0  0  0  0  0  0  0  # atno 10718 bound_to 10713
  154.8757  135.3920  154.3799 H   0  0  0  0  0  0  0  0  0  0  0  0  # atno 10763 bound_to 10752
  153.4548  135.7028  153.6092 H   0  0  0  0  0  0  0  0  0  0  0  0  # atno 10764 bound_to 10752
  153.4616  135.3810  155.2310 H   0  0  0  0  0  0  0  0  0  0  0  0  # atno 10765 bound_to 10752
  141.1664  133.7230  156.8526 H   0  0  0  0  0  0  0  0  0  0  0  0  # atno 11005 bound_to 11000
  145.8046  140.9754  143.0980 LP  0  0  0  0  0  0  0  0  0  0  0  0  # atno 17320 bound_to 7965
  144.6814  139.9845  143.7484 LP  0  0  0  0  0  0  0  0  0  0  0  0  # atno 17321 bound_to 7965
  139.9875  144.6385  150.7844 LP  0  0  0  0  0  0  0  0  0  0  0  0  # atno 17342 bound_to 10162
  140.7514  143.2972  151.3174 LP  0  0  0  0  0  0  0  0  0  0  0  0  # atno 17343 bound_to 10162
  157.0008  130.9922  151.3391 LP  0  0  0  0  0  0  0  0  0  0  0  0  # atno 17370 bound_to 10713
  157.5476  130.8161  149.8105 LP  0  0  0  0  0  0  0  0  0  0  0  0  # atno 17371 bound_to 10713
  140.1905  134.8969  157.3054 LP  0  0  0  0  0  0  0  0  0  0  0  0  # atno 17394 bound_to 11000
  140.2296  134.3925  155.7528 LP  0  0  0  0  0  0  0  0  0  0  0  0  # atno 17395 bound_to 11000

$$$$
