AV-unprocessed.smi:2673|AV-procd|sdf|10356|dock2
  -GOLD-   2272014383D 1   1.00000     0.00000
 Structure written by MMmdl.
 32 33  0  0  0  0  0  0  0  0  1 V2000
  144.6540  135.4754  152.7874 O   0  0  0  0  0  0  0  0  0  0  0  0
  144.0965  134.4453  153.1633 C   0  0  0  0  0  0  0  0  0  0  0  0
  142.8258  134.3713  153.5970 N   0  0  0  0  0  0  0  0  0  0  0  0
  141.8654  135.4129  153.6953 C   0  0  0  0  0  0  0  0  0  0  0  0
  140.5990  135.2239  154.0984 N   0  0  0  0  0  0  0  0  0  0  0  0
  139.8743  136.4087  154.1070 N   0  0  0  0  0  0  0  0  0  0  0  0
  140.6212  137.4430  153.7106 C   0  0  0  0  0  0  0  0  0  0  0  0
  142.2831  137.0707  153.2865 S   0  0  0  0  0  0  0  0  0  0  0  0
  144.6819  133.2365  153.1986 N   0  0  0  0  0  0  0  0  0  0  0  0
  146.0447  132.8426  152.8003 C   0  0  0  0  0  0  0  0  0  0  0  0
  147.0564  133.2287  153.9181 C   0  0  0  0  0  0  0  0  0  0  0  0
  148.3009  132.9252  153.5465 F   0  0  0  0  0  0  0  0  0  0  0  0
  147.0030  134.5403  154.1575 F   0  0  0  0  0  0  0  0  0  0  0  0
  146.8088  132.5855  155.0585 F   0  0  0  0  0  0  0  0  0  0  0  0
  146.1434  131.3266  152.4624 C   0  0  0  0  0  0  0  0  0  0  0  0
  145.2551  130.9134  151.2747 C   0  0  0  0  0  0  0  0  0  0  0  0
  145.5903  131.7359  150.0225 C   0  0  0  0  0  0  0  0  0  0  0  0
  145.4966  133.2416  150.3073 C   0  0  0  0  0  0  0  0  0  0  0  0
  146.3752  133.6402  151.5093 C   0  0  0  0  0  0  0  0  0  0  0  0
  142.5024  133.4584  153.8809 H   0  0  0  0  0  0  0  0  0  0  0  0
  140.1904  138.4323  153.6678 H   0  0  0  0  0  0  0  0  0  0  0  0
  144.1069  132.4769  153.5314 H   0  0  0  0  0  0  0  0  0  0  0  0
  147.1775  131.0829  152.2167 H   0  0  0  0  0  0  0  0  0  0  0  0
  145.9063  130.7102  153.3287 H   0  0  0  0  0  0  0  0  0  0  0  0
  145.3910  129.8521  151.0647 H   0  0  0  0  0  0  0  0  0  0  0  0
  144.2029  131.0412  151.5312 H   0  0  0  0  0  0  0  0  0  0  0  0
  146.5983  131.4914  149.6855 H   0  0  0  0  0  0  0  0  0  0  0  0
  144.9178  131.4668  149.2075 H   0  0  0  0  0  0  0  0  0  0  0  0
  145.8053  133.8019  149.4244 H   0  0  0  0  0  0  0  0  0  0  0  0
  144.4576  133.5162  150.4932 H   0  0  0  0  0  0  0  0  0  0  0  0
  146.2747  134.7110  151.6906 H   0  0  0  0  0  0  0  0  0  0  0  0
  147.4190  133.4824  151.2355 H   0  0  0  0  0  0  0  0  0  0  0  0
  1  2  2  0  0  0  0
  2  3  1  0  0  0  0
  2  9  1  0  0  0  0
  3  4  1  0  0  0  0
  3 20  1  0  0  0  0
  4  8  1  0  0  0  0
  4  5  2  0  0  0  0
  5  6  1  0  0  0  0
  6  7  2  0  0  0  0
  7  8  1  0  0  0  0
  7 21  1  0  0  0  0
  9 10  1  0  0  0  0
  9 22  1  0  0  0  0
 10 19  1  0  0  0  0
 10 11  1  0  0  0  0
 10 15  1  0  0  0  0
 11 12  1  0  0  0  0
 11 13  1  0  0  0  0
 11 14  1  0  0  0  0
 15 16  1  0  0  0  0
 15 23  1  0  0  0  0
 15 24  1  0  0  0  0
 16 17  1  0  0  0  0
 16 25  1  0  0  0  0
 16 26  1  0  0  0  0
 17 18  1  0  0  0  0
 17 27  1  0  0  0  0
 17 28  1  0  0  0  0
 18 19  1  0  0  0  0
 18 29  1  0  0  0  0
 18 30  1  0  0  0  0
 19 31  1  0  0  0  0
 19 32  1  0  0  0  0
M  END
> <s_m_source_file>
AV-unprocessed.smi

> <i_m_source_file_index>
2673

> <i_lp_mmshare_version>
43012

> <i_f3d_flags>
0

> <s_epik_input>
czFbY0hdbm5jMVtOSF1DKD1PKVtOSF1DMihDKEYpKEYpRilbQ0gyXVtDSDJdW0NIMl1bQ0gyXVtDSDJdMg==

> <s_epik_cmdline>
J2VwaWtfcHl0aG9uJywgJy1waCcsICc3LjAnLCAnLXRuJywgJzgnLCAnLW1hJywgJzIwMCcsICctbWV0YWxfYmluZGluZycsICctaW1hZScsICc8aW5maWxlLm1hZT4nLCAnLW9tYWUnLCAnPG91dGZpbGUubWFlPic=

> <r_lp_tautomer_probability>
1

> <r_epik_Ionization_Penalty>
1.40881

> <r_epik_Ionization_Penalty_Charging>
0

> <r_epik_Ionization_Penalty_Neutral>
1.40881

> <r_epik_State_Penalty>
1.51827

> <r_epik_Charging_Adjusted_Penalty>
1.51827

> <i_epik_Tot_Q>
0

> <i_epik_Tot_abs_Q>
0

> <r_epik_Metal_State_Penalty>
1.5692

> <b_epik_Metal_Only>
0

> <s_lp_Force_Field>
OPLS_2005

> <r_lp_Energy>
12.8136

> <b_lp_Chiralities_Consistent>
1

> <s_lp_Variant>
AV-unprocessed.smi:2673-2

> <Gold.Version>
5.8.1

> <Gold.Id.Protein>
6NUR|6NUR_protein|mol2

> <Gold.PLP.Fitness>
39.8808

> <Gold.PLP.PLP>
-31.7813

> <Gold.PLP.part.hbond>
-3.6942

> <Gold.PLP.part.metal>
0.0000

> <Gold.PLP.part.buried>
-6.7047

> <Gold.PLP.part.nonpolar>
-22.1488

> <Gold.PLP.part.repulsive>
0.3605

> <Gold.PLP.ligand.clash>
0.0000

> <Gold.PLP.ligand.torsion>
0.4524

> <Gold.PLP.Chemscore.Hbond>
2.9913

> <Gold.PLP.Chemscore.CHOScore>
0.0000

> <Gold.PLP.Chemscore.Metal>
0.0000

> <Gold.Chemscore.Hbonds>
donor molecule, donor type, donor heavy atom, donor atom, acceptor molecule, acceptor atom, score
      L1  H     3    20       P1 10957  1.00
      L1  H     9    22       P1 10957  1.00
      P1  H 11000 11005       L1     5  1.00

> <Gold.PLP.Chemscore.Internal.Correction>
0.0306

> <Gold.Rescore>
     Score         DG    S(hbond)    S(metal)    S(lipo)     H(rot)  DE(clash)    DE(int)     intcor
     15.04     -18.47       2.73        0.00      55.09       1.00       0.09       3.34       ----

> <Gold.Chemscore.Fitness>
15.0373

> <Gold.Chemscore.DG>
-18.4678

> <Gold.Chemscore.ZeroCoef>
-5.4800

> <Gold.Chemscore.Hbond>
2.7253

> <Gold.Chemscore.Metal>
0.0000

> <Gold.Chemscore.Lipo>
55.0876

> <Gold.Chemscore.Internal_Hbond>
0.0000

> <Gold.Chemscore.DEClash>
0.0901

> <Gold.Chemscore.DEInternal>
3.3404

> <Gold.Chemscore.Rot>
1.0000

> <Gold.Chemscore.Internal.Correction>
   9.000000E+99

> <Gold.Chemscore.Hbonds>
donor molecule, donor type, donor heavy atom, donor atom, acceptor molecule, acceptor atom, score
      L1  H     3    20       P1 10957  0.98
      L1  H     9    22       P1 10957  0.23
      P1  H 11000 11005       L1     5  0.69

> <Gold.Chemscore.Hbond.Weighted>
-9.1025

> <Gold.Chemscore.Metal.Weighted>
-0.0000

> <Gold.Chemscore.Lipo.Weighted>
-6.4453

> <Gold.Chemscore.Internal_Hbond.Weighted>
0.0000

> <Gold.Chemscore.DEClash.Weighted>
0.0901

> <Gold.Chemscore.DEInternal.Weighted>
3.3404

> <Gold.Chemscore.Rot.Weighted>
2.5600

> <Gold.Chemscore.Internal.Correction.Weighted>
   9.000000E+99

> <Gold.Protein.RotatedTorsions>
[ 6907 6896 6895 6894 ] final -149.87 input  -60.11 | X-H torsion
[ 7974 7965 7964 7962 ] final  -59.32 input  175.53 | X-H torsion
[ 8008 7997 7996 7995 ] final  133.32 input   59.86 | X-H torsion
[ 10167 10162 10161 10158 ] final  -95.55 input  -65.29 | X-H torsion
[ 10718 10713 10712 10709 ] final  -35.65 input   66.30 | X-H torsion
[ 10763 10752 10751 10750 ] final  168.58 input  -60.55 | X-H torsion
[ 11005 11000 10999 10996 ] final   27.11 input  -57.11 | X-H torsion

> <Gold.Protein.ActiveResidues>
 VAL166  LYS551  ARG553  GLY616  TRP617  ASP618  TYR619  PRO620  LYS621  CYS622 
 ASP623  PHE694  ASN695  SER759  ASP760  ASP761  ALA762  ILE779  LEU786  VAL792 
 PHE793  MET794  SER795  GLU796  ALA797  LYS798  CYS799  TRP800  GLU811  SER814 

> <Gold.Protein.RotatedAtoms>
  151.1903  133.4671  159.2594 H   0  0  0  0  0  0  0  0  0  0  0  0  # atno 6907 bound_to 6896
  151.1170  135.0058  159.8531 H   0  0  0  0  0  0  0  0  0  0  0  0  # atno 6908 bound_to 6896
  152.5454  134.1817  159.8691 H   0  0  0  0  0  0  0  0  0  0  0  0  # atno 6909 bound_to 6896
  145.8288  140.8493  143.0094 H   0  0  0  0  0  0  0  0  0  0  0  0  # atno 7974 bound_to 7965
  156.2991  140.2524  156.3233 H   0  0  0  0  0  0  0  0  0  0  0  0  # atno 8008 bound_to 7997
  154.9214  140.0400  157.2019 H   0  0  0  0  0  0  0  0  0  0  0  0  # atno 8009 bound_to 7997
  154.8307  140.2875  155.5728 H   0  0  0  0  0  0  0  0  0  0  0  0  # atno 8010 bound_to 7997
  140.3030  143.3151  152.0228 H   0  0  0  0  0  0  0  0  0  0  0  0  # atno 10167 bound_to 10162
  156.3362  130.4286  149.7828 H   0  0  0  0  0  0  0  0  0  0  0  0  # atno 10718 bound_to 10713
  154.3707  135.2753  155.2268 H   0  0  0  0  0  0  0  0  0  0  0  0  # atno 10763 bound_to 10752
  154.4417  135.5953  153.6137 H   0  0  0  0  0  0  0  0  0  0  0  0  # atno 10764 bound_to 10752
  152.9838  135.6020  154.3938 H   0  0  0  0  0  0  0  0  0  0  0  0  # atno 10765 bound_to 10752
  140.3298  134.2451  155.7704 H   0  0  0  0  0  0  0  0  0  0  0  0  # atno 11005 bound_to 11000
  144.6741  140.0642  143.7475 LP  0  0  0  0  0  0  0  0  0  0  0  0  # atno 17320 bound_to 7965
  145.9594  139.2789  143.1165 LP  0  0  0  0  0  0  0  0  0  0  0  0  # atno 17321 bound_to 7965
  139.4911  144.6442  151.6814 LP  0  0  0  0  0  0  0  0  0  0  0  0  # atno 17342 bound_to 10162
  140.5635  144.0229  150.6181 LP  0  0  0  0  0  0  0  0  0  0  0  0  # atno 17343 bound_to 10162
  156.5082  130.8160  151.3159 LP  0  0  0  0  0  0  0  0  0  0  0  0  # atno 17370 bound_to 10713
  157.7439  130.9922  150.2629 LP  0  0  0  0  0  0  0  0  0  0  0  0  # atno 17371 bound_to 10713
  141.2066  133.7828  157.0166 LP  0  0  0  0  0  0  0  0  0  0  0  0  # atno 17394 bound_to 11000
  140.0871  134.9614  157.1717 LP  0  0  0  0  0  0  0  0  0  0  0  0  # atno 17395 bound_to 11000

$$$$
