AV-unprocessed.smi:1717|AV-procd|sdf|6921|dock2
  -GOLD-   22720 8123D 1   1.00000     0.00000
 Structure written by MMmdl.
 40 41  0  0  0  0  0  0  0  0  3 V2000
  152.8234  138.5987  154.4747 C   0  0  0  0  0  0  0  0  0  0  0  0
  152.5948  139.8929  155.1068 N   0  5  0  0  0  0  0  0  0  0  0  0
  151.7040  140.0877  156.1158 C   0  0  0  0  0  0  0  0  0  0  0  0
  151.5884  141.0177  156.9209 O   0  0  0  0  0  0  0  0  0  0  0  0
  150.6928  138.9377  156.1906 C   0  0  0  0  0  0  0  0  0  0  0  0
  149.4086  139.3453  155.5683 N   0  3  2  0  0  0  0  0  0  0  0  0
  148.3106  138.3910  155.8647 C   0  0  0  0  0  0  0  0  0  0  0  0
  146.9617  138.9171  155.3437 C   0  0  0  0  0  0  0  0  0  0  0  0
  147.0085  139.2420  153.8374 C   0  0  2  0  0  0  0  0  0  0  0  0
  147.0808  138.0321  153.0183 N   0  0  0  0  0  0  0  0  0  0  0  0
  146.0264  137.3161  152.6014 C   0  0  0  0  0  0  0  0  0  0  0  0
  144.8620  137.5887  152.8925 O   0  0  0  0  0  0  0  0  0  0  0  0
  146.4091  136.2829  151.8339 N   0  0  0  0  0  0  0  0  0  0  0  0
  145.5729  135.3197  151.2155 C   0  0  0  0  0  0  0  0  0  0  0  0
  145.8664  133.9741  150.8455 C   0  0  0  0  0  0  0  0  0  0  0  0
  144.8166  133.3915  150.2836 N   0  0  0  0  0  0  0  0  0  0  0  0
  143.8607  134.3476  150.2900 N   0  0  0  0  0  0  0  0  0  0  0  0
  144.2790  135.5362  150.8461 C   0  0  0  0  0  0  0  0  0  0  0  0
  148.2018  140.1667  153.5409 C   0  0  0  0  0  0  0  0  0  0  0  0
  149.5208  139.6124  154.1089 C   0  0  0  0  0  0  0  0  0  0  0  0
  142.9390  134.1751  149.9144 H   0  0  0  0  0  0  0  0  0  0  0  0
  153.5677  138.6613  153.6810 H   0  0  0  0  0  0  0  0  0  0  0  0
  151.9201  138.1911  154.0199 H   0  0  0  0  0  0  0  0  0  0  0  0
  153.1874  137.8510  155.1801 H   0  0  0  0  0  0  0  0  0  0  0  0
  151.0623  138.0147  155.7384 H   0  0  0  0  0  0  0  0  0  0  0  0
  150.5414  138.7213  157.2490 H   0  0  0  0  0  0  0  0  0  0  0  0
  148.5391  137.4205  155.4214 H   0  0  0  0  0  0  0  0  0  0  0  0
  148.2381  138.2370  156.9419 H   0  0  0  0  0  0  0  0  0  0  0  0
  146.1707  138.1979  155.5596 H   0  0  0  0  0  0  0  0  0  0  0  0
  146.7003  139.8223  155.8933 H   0  0  0  0  0  0  0  0  0  0  0  0
  146.0954  139.7746  153.5647 H   0  0  0  0  0  0  0  0  0  0  0  0
  148.0000  137.7332  152.7277 H   0  0  0  0  0  0  0  0  0  0  0  0
  147.3984  136.1818  151.6624 H   0  0  0  0  0  0  0  0  0  0  0  0
  146.7783  133.4069  150.9569 H   0  0  0  0  0  0  0  0  0  0  0  0
  143.6377  136.4016  150.9270 H   0  0  0  0  0  0  0  0  0  0  0  0
  148.2961  140.3328  152.4670 H   0  0  0  0  0  0  0  0  0  0  0  0
  148.0123  141.1462  153.9819 H   0  0  0  0  0  0  0  0  0  0  0  0
  150.3153  140.3335  153.9161 H   0  0  0  0  0  0  0  0  0  0  0  0
  149.8017  138.6944  153.5906 H   0  0  0  0  0  0  0  0  0  0  0  0
  149.1560  140.2180  156.0098 H   0  0  0  0  0  0  0  0  0  0  0  0
  1  2  1  0  0  0  0
  1 22  1  0  0  0  0
  1 23  1  0  0  0  0
  1 24  1  0  0  0  0
  2  3  1  0  0  0  0
  3  4  2  0  0  0  0
  3  5  1  0  0  0  0
  5  6  1  0  0  0  0
  5 25  1  0  0  0  0
  5 26  1  0  0  0  0
  6 20  1  0  0  0  0
  6  7  1  0  0  0  0
  6 40  1  0  0  0  0
  7  8  1  0  0  0  0
  7 27  1  0  0  0  0
  7 28  1  0  0  0  0
  8  9  1  0  0  0  0
  8 29  1  0  0  0  0
  8 30  1  0  0  0  0
  9 10  1  0  0  0  0
  9 19  1  0  0  0  0
  9 31  1  0  0  0  0
 10 11  1  0  0  0  0
 10 32  1  0  0  0  0
 11 12  2  0  0  0  0
 11 13  1  0  0  0  0
 13 14  1  0  0  0  0
 13 33  1  0  0  0  0
 14 18  2  0  0  0  0
 14 15  1  0  0  0  0
 15 16  2  0  0  0  0
 15 34  1  0  0  0  0
 16 17  1  0  0  0  0
 17 21  1  0  0  0  0
 17 18  1  0  0  0  0
 18 35  1  0  0  0  0
 19 20  1  0  0  0  0
 19 36  1  0  0  0  0
 19 37  1  0  0  0  0
 20 38  1  0  0  0  0
 20 39  1  0  0  0  0
M  CHG  1   2  -1
M  CHG  1   6   1
M  END
> <s_m_source_file>
AV-unprocessed.smi

> <i_m_source_file_index>
1717

> <i_lp_mmshare_version>
43012

> <i_f3d_flags>
0

> <s_epik_input>
W0NIM11bTkhdQyg9TylbQ0gyXU4xW0NIMl1bQ0gyXVtDSF0oW0NIMl1bQ0gyXTEpW05IXUMoPU8pW05IXWMyW2NIXW5bbkhdW2NIXTI=

> <s_epik_cmdline>
J2VwaWtfcHl0aG9uJywgJy1waCcsICc3LjAnLCAnLXRuJywgJzgnLCAnLW1hJywgJzIwMCcsICctbWV0YWxfYmluZGluZycsICctaW1hZScsICc8aW5maWxlLm1hZT4nLCAnLW9tYWUnLCAnPG91dGZpbGUubWFlPic=

> <r_lp_tautomer_probability>
0.5

> <r_epik_Ionization_Penalty>
6.1395

> <r_epik_Ionization_Penalty_Charging>
6.13946

> <r_epik_Ionization_Penalty_Neutral>
4.21226e-05

> <r_epik_State_Penalty>
6.9595

> <r_epik_Charging_Adjusted_Penalty>
13.099

> <i_epik_Tot_Q>
0

> <i_epik_Tot_abs_Q>
2

> <r_epik_Metal_State_Penalty>
2.89141

> <b_epik_Metal_Only>
1

> <s_lp_Force_Field>
OPLS_2005

> <r_lp_Energy>
13.1948

> <b_lp_Chiralities_Consistent>
1

> <s_lp_Variant>
AV-unprocessed.smi:1717-5

> <Gold.Version>
5.8.1

> <Gold.Id.Protein>
6NUR|6NUR_protein|mol2

> <Gold.PLP.Fitness>
42.2808

> <Gold.PLP.PLP>
-25.0786

> <Gold.PLP.part.hbond>
-4.9499

> <Gold.PLP.part.metal>
0.0000

> <Gold.PLP.part.buried>
0.6751

> <Gold.PLP.part.nonpolar>
-20.8835

> <Gold.PLP.part.repulsive>
0.6279

> <Gold.PLP.ligand.clash>
0.0000

> <Gold.PLP.ligand.torsion>
0.8813

> <Gold.PLP.Chemscore.Hbond>
5.3178

> <Gold.PLP.Chemscore.CHOScore>
0.9855

> <Gold.PLP.Chemscore.Metal>
0.0000

> <Gold.Chemscore.Hbonds>
donor molecule, donor type, donor heavy atom, donor atom, acceptor molecule, acceptor atom, score
      L1  H    10    32       P1  7948  0.86
      L1  H    13    33       P1  7948  1.00
      L1  H    17    21       P1 10186  1.00
      P1  H  7989  7998       L1     2  0.46
      P1  H  7997  8009       L1     2  1.98
      L1  C    18    35       P1 10171  0.97

> <Gold.PLP.Chemscore.Internal.Correction>
0.0549

> <Gold.Rescore>
     Score         DG    S(hbond)    S(metal)    S(lipo)     H(rot)  DE(clash)    DE(int)     intcor
     16.90     -19.19       3.78        0.00      47.65       1.75       0.76       1.53       ----

> <Gold.Chemscore.Fitness>
16.8975

> <Gold.Chemscore.DG>
-19.1884

> <Gold.Chemscore.ZeroCoef>
-5.4800

> <Gold.Chemscore.Hbond>
3.7799

> <Gold.Chemscore.Metal>
0.0000

> <Gold.Chemscore.Lipo>
47.6518

> <Gold.Chemscore.Internal_Hbond>
0.0000

> <Gold.Chemscore.DEClash>
0.7578

> <Gold.Chemscore.DEInternal>
1.5331

> <Gold.Chemscore.Rot>
1.7546

> <Gold.Chemscore.Internal.Correction>
   9.000000E+99

> <Gold.Chemscore.Hbonds>
donor molecule, donor type, donor heavy atom, donor atom, acceptor molecule, acceptor atom, score
      L1  H    10    32       P1  7948  0.83
      L1  H    13    33       P1  7948  0.93
      L1  H    17    21       P1 10186  0.96
      P1  H  7989  7998       L1     2  0.04
      P1  H  7997  8009       L1     2  0.09

> <Gold.Chemscore.Hbond.Weighted>
-12.6249

> <Gold.Chemscore.Metal.Weighted>
-0.0000

> <Gold.Chemscore.Lipo.Weighted>
-5.5753

> <Gold.Chemscore.Internal_Hbond.Weighted>
0.0000

> <Gold.Chemscore.DEClash.Weighted>
0.7578

> <Gold.Chemscore.DEInternal.Weighted>
1.5331

> <Gold.Chemscore.Rot.Weighted>
4.4917

> <Gold.Chemscore.Internal.Correction.Weighted>
   9.000000E+99

> <Gold.Protein.RotatedTorsions>
[ 6907 6896 6895 6894 ] final  -36.30 input  -60.11 | X-H torsion
[ 7974 7965 7964 7962 ] final   73.75 input  175.53 | X-H torsion
[ 8008 7997 7996 7995 ] final -143.84 input   59.86 | X-H torsion
[ 10167 10162 10161 10158 ] final   54.80 input  -65.29 | X-H torsion
[ 10718 10713 10712 10709 ] final -160.87 input   66.30 | X-H torsion
[ 10763 10752 10751 10750 ] final  130.62 input  -60.55 | X-H torsion
[ 11005 11000 10999 10996 ] final  -38.00 input  -57.11 | X-H torsion

> <Gold.Protein.ActiveResidues>
 VAL166  LYS551  ARG553  GLY616  TRP617  ASP618  TYR619  PRO620  LYS621  CYS622 
 ASP623  PHE694  ASN695  SER759  ASP760  ASP761  ALA762  ILE779  LEU786  VAL792 
 PHE793  MET794  SER795  GLU796  ALA797  LYS798  CYS799  TRP800  GLU811  SER814 

> <Gold.Protein.RotatedAtoms>
  151.0289  134.9525  159.8100 H   0  0  0  0  0  0  0  0  0  0  0  0  # atno 6907 bound_to 6896
  152.5341  134.2805  159.9016 H   0  0  0  0  0  0  0  0  0  0  0  0  # atno 6908 bound_to 6896
  151.2814  133.4165  159.2661 H   0  0  0  0  0  0  0  0  0  0  0  0  # atno 6909 bound_to 6896
  145.7369  139.2705  143.1509 H   0  0  0  0  0  0  0  0  0  0  0  0  # atno 7974 bound_to 7965
  155.5172  140.0588  157.2913 H   0  0  0  0  0  0  0  0  0  0  0  0  # atno 8008 bound_to 7997
  154.4530  140.1959  156.0408 H   0  0  0  0  0  0  0  0  0  0  0  0  # atno 8009 bound_to 7997
  156.0743  140.3256  155.7619 H   0  0  0  0  0  0  0  0  0  0  0  0  # atno 8010 bound_to 7997
  140.2262  144.3736  150.6431 H   0  0  0  0  0  0  0  0  0  0  0  0  # atno 10167 bound_to 10162
  156.5882  130.8759  151.2883 H   0  0  0  0  0  0  0  0  0  0  0  0  # atno 10718 bound_to 10713
  153.7611  135.3196  155.3337 H   0  0  0  0  0  0  0  0  0  0  0  0  # atno 10763 bound_to 10752
  154.8230  135.4590  154.0837 H   0  0  0  0  0  0  0  0  0  0  0  0  # atno 10764 bound_to 10752
  153.2068  135.6930  153.8246 H   0  0  0  0  0  0  0  0  0  0  0  0  # atno 10765 bound_to 10752
  140.9994  133.6963  156.1995 H   0  0  0  0  0  0  0  0  0  0  0  0  # atno 11005 bound_to 11000
  146.0485  140.8094  142.9793 LP  0  0  0  0  0  0  0  0  0  0  0  0  # atno 17320 bound_to 7965
  144.6879  140.3016  143.7262 LP  0  0  0  0  0  0  0  0  0  0  0  0  # atno 17321 bound_to 7965
  140.6219  143.2177  151.6677 LP  0  0  0  0  0  0  0  0  0  0  0  0  # atno 17342 bound_to 10162
  139.5126  144.3470  152.0687 LP  0  0  0  0  0  0  0  0  0  0  0  0  # atno 17343 bound_to 10162
  157.7310  130.9694  150.1859 LP  0  0  0  0  0  0  0  0  0  0  0  0  # atno 17370 bound_to 10713
  156.2572  130.3707  149.8168 LP  0  0  0  0  0  0  0  0  0  0  0  0  # atno 17371 bound_to 10713
  140.6913  134.4663  157.5588 LP  0  0  0  0  0  0  0  0  0  0  0  0  # atno 17394 bound_to 11000
  139.9031  134.8510  156.1813 LP  0  0  0  0  0  0  0  0  0  0  0  0  # atno 17395 bound_to 11000

$$$$
