AV-unprocessed.smi:3232|AV-procd|sdf|12346|dock8
  -GOLD-   2272018213D 1   1.00000     0.00000
 Structure written by MMmdl.
 40 41  0  0  0  0  0  0  0  0  2 V2000
  141.8711  134.8237  153.1800 C   0  0  0  0  0  0  0  0  0  0  0  0
  143.4000  134.8392  153.0494 C   0  0  0  0  0  0  0  0  0  0  0  0
  143.9418  133.5151  152.6602 N   0  3  1  0  0  0  0  0  0  0  0  0
  143.4442  132.9978  151.3675 C   0  0  0  0  0  0  0  0  0  0  0  0
  144.5069  132.0117  150.9008 C   0  0  0  0  0  0  0  0  0  0  0  0
  145.8019  132.6734  151.3554 C   0  0  0  0  0  0  0  0  0  0  0  0
  145.4253  133.4430  152.6372 C   0  0  2  0  0  0  0  0  0  0  0  0
  145.9445  132.7825  153.9315 C   0  0  0  0  0  0  0  0  0  0  0  0
  147.3325  133.1279  154.2185 N   0  0  0  0  0  0  0  0  0  0  0  0
  148.3487  132.2539  154.2830 C   0  0  0  0  0  0  0  0  0  0  0  0
  148.2064  131.0442  154.1007 O   0  0  0  0  0  0  0  0  0  0  0  0
  149.7309  132.8440  154.5994 C   0  0  1  0  0  0  0  0  0  0  0  0
  149.7735  134.3749  154.4402 C   0  0  0  0  0  0  0  0  0  0  0  0
  150.1549  132.4407  155.9323 N   0  0  0  0  0  0  0  0  0  0  0  0
  151.2668  132.7169  156.6197 C   0  0  0  0  0  0  0  0  0  0  0  0
  151.2969  132.1789  157.8307 N   0  0  0  0  0  0  0  0  0  0  0  0
  150.0889  131.5414  157.8270 C   0  0  0  0  0  0  0  0  0  0  0  0
  149.3635  131.6697  156.7160 N   0  0  0  0  0  0  0  0  0  0  0  0
  141.5034  135.7942  153.5138 H   0  0  0  0  0  0  0  0  0  0  0  0
  141.5448  134.0788  153.9062 H   0  0  0  0  0  0  0  0  0  0  0  0
  141.3872  134.6014  152.2290 H   0  0  0  0  0  0  0  0  0  0  0  0
  143.7135  135.5978  152.3308 H   0  0  0  0  0  0  0  0  0  0  0  0
  143.8282  135.1237  154.0114 H   0  0  0  0  0  0  0  0  0  0  0  0
  142.4627  132.5333  151.4675 H   0  0  0  0  0  0  0  0  0  0  0  0
  143.3618  133.8135  150.6471 H   0  0  0  0  0  0  0  0  0  0  0  0
  144.3785  131.0558  151.4109 H   0  0  0  0  0  0  0  0  0  0  0  0
  144.4762  131.8294  149.8262 H   0  0  0  0  0  0  0  0  0  0  0  0
  146.6064  131.9506  151.4939 H   0  0  0  0  0  0  0  0  0  0  0  0
  146.1317  133.3806  150.5929 H   0  0  0  0  0  0  0  0  0  0  0  0
  145.8361  134.4514  152.5585 H   0  0  0  0  0  0  0  0  0  0  0  0
  145.3188  133.0646  154.7802 H   0  0  0  0  0  0  0  0  0  0  0  0
  145.8783  131.6970  153.8491 H   0  0  0  0  0  0  0  0  0  0  0  0
  147.5389  134.1046  154.3728 H   0  0  0  0  0  0  0  0  0  0  0  0
  150.4373  132.4249  153.8798 H   0  0  0  0  0  0  0  0  0  0  0  0
  149.4535  134.6773  153.4423 H   0  0  0  0  0  0  0  0  0  0  0  0
  150.7868  134.7505  154.5853 H   0  0  0  0  0  0  0  0  0  0  0  0
  149.1297  134.8777  155.1632 H   0  0  0  0  0  0  0  0  0  0  0  0
  152.0685  133.3257  156.2275 H   0  0  0  0  0  0  0  0  0  0  0  0
  149.7318  130.9679  158.6696 H   0  0  0  0  0  0  0  0  0  0  0  0
  143.6478  132.8516  153.3627 H   0  0  0  0  0  0  0  0  0  0  0  0
  1  2  1  0  0  0  0
  1 19  1  0  0  0  0
  1 20  1  0  0  0  0
  1 21  1  0  0  0  0
  2  3  1  0  0  0  0
  2 22  1  0  0  0  0
  2 23  1  0  0  0  0
  3  7  1  0  0  0  0
  3  4  1  0  0  0  0
  3 40  1  0  0  0  0
  4  5  1  0  0  0  0
  4 24  1  0  0  0  0
  4 25  1  0  0  0  0
  5  6  1  0  0  0  0
  5 26  1  0  0  0  0
  5 27  1  0  0  0  0
  6  7  1  0  0  0  0
  6 28  1  0  0  0  0
  6 29  1  0  0  0  0
  7  8  1  0  0  0  0
  7 30  1  0  0  0  0
  8  9  1  0  0  0  0
  8 31  1  0  0  0  0
  8 32  1  0  0  0  0
  9 10  1  0  0  0  0
  9 33  1  0  0  0  0
 10 11  2  0  0  0  0
 10 12  1  0  0  0  0
 12 13  1  0  0  0  0
 12 14  1  0  0  0  0
 12 34  1  0  0  0  0
 13 35  1  0  0  0  0
 13 36  1  0  0  0  0
 13 37  1  0  0  0  0
 14 18  1  0  0  0  0
 14 15  1  0  0  0  0
 15 16  2  0  0  0  0
 15 38  1  0  0  0  0
 16 17  1  0  0  0  0
 17 18  2  0  0  0  0
 17 39  1  0  0  0  0
M  CHG  1   3   1
M  END
> <s_m_source_file>
AV-unprocessed.smi

> <i_m_source_file_index>
3232

> <i_lp_mmshare_version>
43012

> <i_f3d_flags>
0

> <s_epik_input>
W0NIM11bQ0gyXU4xW0NIMl1bQ0gyXVtDSDJdW0NASF0xW0NIMl1bTkhdQyg9TylbQ0BIXShbQ0gzXSluMltjSF1uW2NIXW4y

> <s_epik_cmdline>
J2VwaWtfcHl0aG9uJywgJy1waCcsICc3LjAnLCAnLXRuJywgJzgnLCAnLW1hJywgJzIwMCcsICctbWV0YWxfYmluZGluZycsICctaW1hZScsICc8aW5maWxlLm1hZT4nLCAnLW9tYWUnLCAnPG91dGZpbGUubWFlPic=

> <r_lp_tautomer_probability>
1

> <r_epik_Ionization_Penalty>
0.00177695

> <r_epik_Ionization_Penalty_Charging>
0.00176881

> <r_epik_Ionization_Penalty_Neutral>
8.13528e-06

> <r_epik_State_Penalty>
0.00119827

> <r_epik_Charging_Adjusted_Penalty>
0.00296709

> <i_epik_Tot_Q>
1

> <i_epik_Tot_abs_Q>
1

> <r_epik_Metal_State_Penalty>
-0

> <b_epik_Metal_Only>
0

> <s_lp_Force_Field>
OPLS_2005

> <r_lp_Energy>
32.5075

> <b_lp_Chiralities_Consistent>
1

> <s_lp_Variant>
AV-unprocessed.smi:3232-8

> <Gold.Version>
5.8.1

> <Gold.Id.Protein>
6NUR|6NUR_protein|mol2

> <Gold.PLP.Fitness>
36.9825

> <Gold.PLP.PLP>
-28.9824

> <Gold.PLP.part.hbond>
-2.0000

> <Gold.PLP.part.metal>
0.0000

> <Gold.PLP.part.buried>
-5.0242

> <Gold.PLP.part.nonpolar>
-22.5676

> <Gold.PLP.part.repulsive>
0.0632

> <Gold.PLP.ligand.clash>
0.0000

> <Gold.PLP.ligand.torsion>
0.5387

> <Gold.PLP.Chemscore.Hbond>
3.0000

> <Gold.PLP.Chemscore.CHOScore>
0.0000

> <Gold.PLP.Chemscore.Metal>
0.0000

> <Gold.Chemscore.Hbonds>
donor molecule, donor type, donor heavy atom, donor atom, acceptor molecule, acceptor atom, score
      L1  H     3    40       P1 10957  1.98
      P1  H  6896  6907       L1    16  1.00

> <Gold.PLP.Chemscore.Internal.Correction>
0.0775

> <Gold.Rescore>
     Score         DG    S(hbond)    S(metal)    S(lipo)     H(rot)  DE(clash)    DE(int)     intcor
      9.25     -11.16       1.85        0.00      50.21       2.49       0.03       1.88       ----

> <Gold.Chemscore.Fitness>
9.2471

> <Gold.Chemscore.DG>
-11.1584

> <Gold.Chemscore.ZeroCoef>
-5.4800

> <Gold.Chemscore.Hbond>
1.8484

> <Gold.Chemscore.Metal>
0.0000

> <Gold.Chemscore.Lipo>
50.2098

> <Gold.Chemscore.Internal_Hbond>
0.0000

> <Gold.Chemscore.DEClash>
0.0310

> <Gold.Chemscore.DEInternal>
1.8803

> <Gold.Chemscore.Rot>
2.4882

> <Gold.Chemscore.Internal.Correction>
   9.000000E+99

> <Gold.Chemscore.Hbonds>
donor molecule, donor type, donor heavy atom, donor atom, acceptor molecule, acceptor atom, score
      L1  H     3    40       P1 10957  0.60
      P1  H  6896  6907       L1    16  0.90

> <Gold.Chemscore.Hbond.Weighted>
-6.1736

> <Gold.Chemscore.Metal.Weighted>
-0.0000

> <Gold.Chemscore.Lipo.Weighted>
-5.8746

> <Gold.Chemscore.Internal_Hbond.Weighted>
0.0000

> <Gold.Chemscore.DEClash.Weighted>
0.0310

> <Gold.Chemscore.DEInternal.Weighted>
1.8803

> <Gold.Chemscore.Rot.Weighted>
6.3697

> <Gold.Chemscore.Internal.Correction.Weighted>
   9.000000E+99

> <Gold.Protein.RotatedTorsions>
[ 6907 6896 6895 6894 ] final  179.36 input  -60.11 | X-H torsion
[ 7974 7965 7964 7962 ] final   74.02 input  175.53 | X-H torsion
[ 8008 7997 7996 7995 ] final   95.27 input   59.86 | X-H torsion
[ 10167 10162 10161 10158 ] final -127.55 input  -65.29 | X-H torsion
[ 10718 10713 10712 10709 ] final -166.55 input   66.30 | X-H torsion
[ 10763 10752 10751 10750 ] final  -56.83 input  -60.55 | X-H torsion
[ 11005 11000 10999 10996 ] final -122.60 input  -57.11 | X-H torsion

> <Gold.Protein.ActiveResidues>
 VAL166  LYS551  ARG553  GLY616  TRP617  ASP618  TYR619  PRO620  LYS621  CYS622 
 ASP623  PHE694  ASN695  SER759  ASP760  ASP761  ALA762  ILE779  LEU786  VAL792 
 PHE793  MET794  SER795  GLU796  ALA797  LYS798  CYS799  TRP800  GLU811  SER814 

> <Gold.Protein.RotatedAtoms>
  151.6729  133.3313  159.3200 H   0  0  0  0  0  0  0  0  0  0  0  0  # atno 6907 bound_to 6896
  150.7859  134.6847  159.6473 H   0  0  0  0  0  0  0  0  0  0  0  0  # atno 6908 bound_to 6896
  152.3928  134.6417  160.0153 H   0  0  0  0  0  0  0  0  0  0  0  0  # atno 6909 bound_to 6896
  145.7336  139.2693  143.1527 H   0  0  0  0  0  0  0  0  0  0  0  0  # atno 7974 bound_to 7965
  156.0670  140.3289  155.7530 H   0  0  0  0  0  0  0  0  0  0  0  0  # atno 8008 bound_to 7997
  155.5365  140.0598  157.2896 H   0  0  0  0  0  0  0  0  0  0  0  0  # atno 8009 bound_to 7997
  154.4510  140.1918  156.0537 H   0  0  0  0  0  0  0  0  0  0  0  0  # atno 8010 bound_to 7997
  139.9597  143.5964  152.2449 H   0  0  0  0  0  0  0  0  0  0  0  0  # atno 10167 bound_to 10162
  156.6695  130.9078  151.3041 H   0  0  0  0  0  0  0  0  0  0  0  0  # atno 10718 bound_to 10713
  154.2128  135.6391  153.5120 H   0  0  0  0  0  0  0  0  0  0  0  0  # atno 10763 bound_to 10752
  152.9986  135.5478  154.6197 H   0  0  0  0  0  0  0  0  0  0  0  0  # atno 10764 bound_to 10752
  154.5638  135.2911  155.0867 H   0  0  0  0  0  0  0  0  0  0  0  0  # atno 10765 bound_to 10752
  140.9983  134.0440  157.3570 H   0  0  0  0  0  0  0  0  0  0  0  0  # atno 11005 bound_to 11000
  146.0514  140.8065  142.9779 LP  0  0  0  0  0  0  0  0  0  0  0  0  # atno 17320 bound_to 7965
  144.6887  140.3059  143.7256 LP  0  0  0  0  0  0  0  0  0  0  0  0  # atno 17321 bound_to 7965
  139.6564  144.7662  151.2048 LP  0  0  0  0  0  0  0  0  0  0  0  0  # atno 17342 bound_to 10162
  140.7557  143.6080  150.8634 LP  0  0  0  0  0  0  0  0  0  0  0  0  # atno 17343 bound_to 10162
  157.7082  130.9409  150.1001 LP  0  0  0  0  0  0  0  0  0  0  0  0  # atno 17370 bound_to 10713
  156.1950  130.3657  149.8861 LP  0  0  0  0  0  0  0  0  0  0  0  0  # atno 17371 bound_to 10713
  139.9026  135.0169  156.7338 LP  0  0  0  0  0  0  0  0  0  0  0  0  # atno 17394 bound_to 11000
  140.6930  133.9373  155.7978 LP  0  0  0  0  0  0  0  0  0  0  0  0  # atno 17395 bound_to 11000

$$$$
