AV-unprocessed.smi:195|AV-procd|sdf|1524|dock7
  -GOLD-   2262019373D 1   1.00000     0.00000
 Structure written by MMmdl.
 45 48  0  0  0  0  0  0  0  0  1 V2000
  145.5929  135.9678  150.6109 N   0  0  0  0  0  0  0  0  0  0  0  0
  145.0293  135.0446  151.0214 C   0  0  0  0  0  0  0  0  0  0  0  0
  144.3133  133.8704  151.5446 C   0  0  0  0  0  0  0  0  0  0  0  0
  144.2729  132.6950  150.5638 C   0  0  0  0  0  0  0  0  0  0  0  0
  143.1404  132.9371  149.7558 O   0  0  0  0  0  0  0  0  0  0  0  0
  145.5593  132.3722  149.7978 C   0  0  0  0  0  0  0  0  0  0  0  0
  145.7804  131.2754  150.7370 N   0  0  0  0  0  0  0  0  0  0  0  0
  146.7545  131.5672  151.7432 C   0  0  0  0  0  0  0  0  0  0  0  0
  147.0425  132.8525  152.0849 N   0  0  0  0  0  0  0  0  0  0  0  0
  147.9469  133.1331  153.0273 C   0  0  0  0  0  0  0  0  0  0  0  0
  148.6744  132.2901  153.7602 N   0  0  0  0  0  0  0  0  0  0  0  0
  148.3851  130.9962  153.4458 C   0  0  0  0  0  0  0  0  0  0  0  0
  147.4471  130.5555  152.4691 C   0  0  0  0  0  0  0  0  0  0  0  0
  147.4145  129.1662  152.4424 N   0  0  0  0  0  0  0  0  0  0  0  0
  148.2867  128.8070  153.3438 C   0  0  0  0  0  0  0  0  0  0  0  0
  148.9325  129.8428  153.9804 N   0  0  0  0  0  0  0  0  0  0  0  0
  149.9402  129.7291  155.0213 C   0  0  0  0  0  0  0  0  0  0  0  0
  151.3587  129.4284  154.4843 C   0  0  2  0  0  0  0  0  0  0  0  0
  151.3460  128.0660  154.1081 O   0  0  0  0  0  0  0  0  0  0  0  0
  152.5077  129.6090  155.5036 C   0  0  2  0  0  0  0  0  0  0  0  0
  152.6515  131.0008  156.1235 C   0  0  0  0  0  0  0  0  0  0  0  0
  154.1119  131.0637  156.5366 C   0  0  0  0  0  0  0  0  0  0  0  0
  154.7741  129.9643  155.7047 C   0  0  0  0  0  0  0  0  0  0  0  0
  153.7549  129.4963  154.8325 O   0  0  0  0  0  0  0  0  0  0  0  0
  144.3717  131.2760  151.1336 C   0  0  0  0  0  0  0  0  0  0  0  0
  144.7814  133.5821  152.4864 H   0  0  0  0  0  0  0  0  0  0  0  0
  143.3061  134.2035  151.7942 H   0  0  0  0  0  0  0  0  0  0  0  0
  142.6231  133.5950  150.1952 H   0  0  0  0  0  0  0  0  0  0  0  0
  145.3830  132.0085  148.7845 H   0  0  0  0  0  0  0  0  0  0  0  0
  146.3012  133.1714  149.8180 H   0  0  0  0  0  0  0  0  0  0  0  0
  148.1101  134.1831  153.2210 H   0  0  0  0  0  0  0  0  0  0  0  0
  148.4887  127.7689  153.5652 H   0  0  0  0  0  0  0  0  0  0  0  0
  149.9465  130.6404  155.6205 H   0  0  0  0  0  0  0  0  0  0  0  0
  149.6162  128.9267  155.6858 H   0  0  0  0  0  0  0  0  0  0  0  0
  151.5530  130.0232  153.5911 H   0  0  0  0  0  0  0  0  0  0  0  0
  151.8630  127.9665  153.3233 H   0  0  0  0  0  0  0  0  0  0  0  0
  152.4472  128.8601  156.2962 H   0  0  0  0  0  0  0  0  0  0  0  0
  152.4543  131.7704  155.3759 H   0  0  0  0  0  0  0  0  0  0  0  0
  151.9791  131.1613  156.9656 H   0  0  0  0  0  0  0  0  0  0  0  0
  154.5392  132.0464  156.3340 H   0  0  0  0  0  0  0  0  0  0  0  0
  154.2295  130.8574  157.6012 H   0  0  0  0  0  0  0  0  0  0  0  0
  155.6325  130.3272  155.1389 H   0  0  0  0  0  0  0  0  0  0  0  0
  155.1075  129.1455  156.3437 H   0  0  0  0  0  0  0  0  0  0  0  0
  144.1537  131.1913  152.1981 H   0  0  0  0  0  0  0  0  0  0  0  0
  143.7992  130.5464  150.5590 H   0  0  0  0  0  0  0  0  0  0  0  0
  1  2  3  0  0  0  0
  2  3  1  0  0  0  0
  3  4  1  0  0  0  0
  3 26  1  0  0  0  0
  3 27  1  0  0  0  0
  4 25  1  0  0  0  0
  4  5  1  0  0  0  0
  4  6  1  0  0  0  0
  5 28  1  0  0  0  0
  6  7  1  0  0  0  0
  6 29  1  0  0  0  0
  6 30  1  0  0  0  0
  7  8  1  0  0  0  0
  7 25  1  0  0  0  0
  8 13  1  0  0  0  0
  8  9  2  0  0  0  0
  9 10  1  0  0  0  0
 10 11  2  0  0  0  0
 10 31  1  0  0  0  0
 11 12  1  0  0  0  0
 12 16  1  0  0  0  0
 12 13  2  0  0  0  0
 13 14  1  0  0  0  0
 14 15  2  0  0  0  0
 15 16  1  0  0  0  0
 15 32  1  0  0  0  0
 16 17  1  0  0  0  0
 17 18  1  0  0  0  0
 17 33  1  0  0  0  0
 17 34  1  0  0  0  0
 18 19  1  0  0  0  0
 18 20  1  0  0  0  0
 18 35  1  0  0  0  0
 19 36  1  0  0  0  0
 20 24  1  0  0  0  0
 20 21  1  0  0  0  0
 20 37  1  0  0  0  0
 21 22  1  0  0  0  0
 21 38  1  0  0  0  0
 21 39  1  0  0  0  0
 22 23  1  0  0  0  0
 22 40  1  0  0  0  0
 22 41  1  0  0  0  0
 23 24  1  0  0  0  0
 23 42  1  0  0  0  0
 23 43  1  0  0  0  0
 25 44  1  0  0  0  0
 25 45  1  0  0  0  0
M  END
> <s_m_source_file>
AV-unprocessed.smi

> <i_m_source_file_index>
195

> <i_lp_mmshare_version>
43012

> <i_f3d_flags>
0

> <s_epik_input>
TiNDW0NIMl1DMShbT0hdKVtDSDJdTihbQ0gyXTEpYyhuW2NIXW4yKWMoYzIzKW5bY0hdbjNbQ0gyXVtDQEhdKFtPSF0pW0NAQEhdNFtDSDJdW0NIMl1bQ0gyXU80

> <s_epik_cmdline>
J2VwaWtfcHl0aG9uJywgJy1waCcsICc3LjAnLCAnLXRuJywgJzgnLCAnLW1hJywgJzIwMCcsICctbWV0YWxfYmluZGluZycsICctaW1hZScsICc8aW5maWxlLm1hZT4nLCAnLW9tYWUnLCAnPG91dGZpbGUubWFlPic=

> <r_lp_tautomer_probability>
1

> <r_epik_Ionization_Penalty>
0.00307146

> <r_epik_Ionization_Penalty_Charging>
0

> <r_epik_Ionization_Penalty_Neutral>
0.00307146

> <r_epik_State_Penalty>
0.0020279

> <r_epik_Charging_Adjusted_Penalty>
0.0020279

> <i_epik_Tot_Q>
0

> <i_epik_Tot_abs_Q>
0

> <r_epik_Metal_State_Penalty>
-0

> <b_epik_Metal_Only>
0

> <s_lp_Force_Field>
OPLS_2005

> <r_lp_Energy>
46.5325

> <b_lp_Chiralities_Consistent>
1

> <s_lp_Variant>
AV-unprocessed.smi:195-1

> <Gold.Version>
5.8.1

> <Gold.Id.Protein>
6NUR|6NUR_protein|mol2

> <Gold.PLP.Fitness>
41.1971

> <Gold.PLP.PLP>
-36.0927

> <Gold.PLP.part.hbond>
-2.0000

> <Gold.PLP.part.metal>
0.0000

> <Gold.PLP.part.buried>
-2.0251

> <Gold.PLP.part.nonpolar>
-32.8721

> <Gold.PLP.part.repulsive>
0.8072

> <Gold.PLP.ligand.clash>
0.0000

> <Gold.PLP.ligand.torsion>
1.5445

> <Gold.PLP.Chemscore.Hbond>
1.6080

> <Gold.PLP.Chemscore.CHOScore>
1.0000

> <Gold.PLP.Chemscore.Metal>
0.0000

> <Gold.Chemscore.Hbonds>
donor molecule, donor type, donor heavy atom, donor atom, acceptor molecule, acceptor atom, score
      L1  H     5    28       P1 10186  0.54
      L1  H    19    36       P1 10737  1.00
      L1  C    10    31       P1  7948  0.93

> <Gold.PLP.Chemscore.Internal.Correction>
0.3693

> <Gold.Rescore>
     Score         DG    S(hbond)    S(metal)    S(lipo)     H(rot)  DE(clash)    DE(int)     intcor
      3.78      -8.40       1.39        0.00      66.74       3.72       1.93       2.69       ----

> <Gold.Chemscore.Fitness>
3.7823

> <Gold.Chemscore.DG>
-8.4050

> <Gold.Chemscore.ZeroCoef>
-5.4800

> <Gold.Chemscore.Hbond>
1.3899

> <Gold.Chemscore.Metal>
0.0000

> <Gold.Chemscore.Lipo>
66.7375

> <Gold.Chemscore.Internal_Hbond>
0.0000

> <Gold.Chemscore.DEClash>
1.9289

> <Gold.Chemscore.DEInternal>
2.6937

> <Gold.Chemscore.Rot>
3.7210

> <Gold.Chemscore.Internal.Correction>
   9.000000E+99

> <Gold.Chemscore.Hbonds>
donor molecule, donor type, donor heavy atom, donor atom, acceptor molecule, acceptor atom, score
      L1  H     5    28       P1 10186  0.54
      L1  H    19    36       P1 10737  0.97

> <Gold.Chemscore.Hbond.Weighted>
-4.6423

> <Gold.Chemscore.Metal.Weighted>
-0.0000

> <Gold.Chemscore.Lipo.Weighted>
-7.8083

> <Gold.Chemscore.Internal_Hbond.Weighted>
0.0000

> <Gold.Chemscore.DEClash.Weighted>
1.9289

> <Gold.Chemscore.DEInternal.Weighted>
2.6937

> <Gold.Chemscore.Rot.Weighted>
9.5256

> <Gold.Chemscore.Internal.Correction.Weighted>
   9.000000E+99

> <Gold.Protein.RotatedTorsions>
[ 6907 6896 6895 6894 ] final -147.85 input  -60.11 | X-H torsion
[ 7974 7965 7964 7962 ] final -147.15 input  175.53 | X-H torsion
[ 8008 7997 7996 7995 ] final  -64.90 input   59.86 | X-H torsion
[ 10167 10162 10161 10158 ] final -171.90 input  -65.29 | X-H torsion
[ 10718 10713 10712 10709 ] final   29.57 input   66.30 | X-H torsion
[ 10763 10752 10751 10750 ] final -130.10 input  -60.55 | X-H torsion
[ 11005 11000 10999 10996 ] final  -87.72 input  -57.11 | X-H torsion

> <Gold.Protein.ActiveResidues>
 VAL166  LYS551  ARG553  GLY616  TRP617  ASP618  TYR619  PRO620  LYS621  CYS622 
 ASP623  PHE694  ASN695  SER759  ASP760  ASP761  ALA762  ILE779  LEU786  VAL792 
 PHE793  MET794  SER795  GLU796  ALA797  LYS798  CYS799  TRP800  GLU811  SER814 

> <Gold.Protein.RotatedAtoms>
  151.1615  133.4842  159.2594 H   0  0  0  0  0  0  0  0  0  0  0  0  # atno 6907 bound_to 6896
  151.1449  135.0198  159.8652 H   0  0  0  0  0  0  0  0  0  0  0  0  # atno 6908 bound_to 6896
  152.5463  134.1505  159.8569 H   0  0  0  0  0  0  0  0  0  0  0  0  # atno 6909 bound_to 6896
  144.8112  140.5364  143.5641 H   0  0  0  0  0  0  0  0  0  0  0  0  # atno 7974 bound_to 7965
  154.4639  140.0944  156.6968 H   0  0  0  0  0  0  0  0  0  0  0  0  # atno 8008 bound_to 7997
  155.4913  140.3471  155.4337 H   0  0  0  0  0  0  0  0  0  0  0  0  # atno 8009 bound_to 7997
  156.0921  140.1400  156.9567 H   0  0  0  0  0  0  0  0  0  0  0  0  # atno 8010 bound_to 7997
  139.5775  144.1499  152.1470 H   0  0  0  0  0  0  0  0  0  0  0  0  # atno 10167 bound_to 10162
  157.2482  130.7102  149.6392 H   0  0  0  0  0  0  0  0  0  0  0  0  # atno 10718 bound_to 10713
  154.8756  135.3873  154.4028 H   0  0  0  0  0  0  0  0  0  0  0  0  # atno 10763 bound_to 10752
  153.4751  135.7030  153.5976 H   0  0  0  0  0  0  0  0  0  0  0  0  # atno 10764 bound_to 10752
  153.4416  135.3855  155.2199 H   0  0  0  0  0  0  0  0  0  0  0  0  # atno 10765 bound_to 10752
  141.1612  133.7528  156.9348 H   0  0  0  0  0  0  0  0  0  0  0  0  # atno 11005 bound_to 11000
  145.5320  139.1475  143.3494 LP  0  0  0  0  0  0  0  0  0  0  0  0  # atno 17320 bound_to 7965
  146.2411  140.5460  142.8934 LP  0  0  0  0  0  0  0  0  0  0  0  0  # atno 17321 bound_to 7965
  140.1045  144.5511  150.6966 LP  0  0  0  0  0  0  0  0  0  0  0  0  # atno 17342 bound_to 10162
  140.7056  143.2466  151.4735 LP  0  0  0  0  0  0  0  0  0  0  0  0  # atno 17343 bound_to 10162
  155.9667  130.4436  150.5427 LP  0  0  0  0  0  0  0  0  0  0  0  0  # atno 17370 bound_to 10713
  157.3306  131.0699  151.1864 LP  0  0  0  0  0  0  0  0  0  0  0  0  # atno 17371 bound_to 10713
  140.1362  134.9324  157.2404 LP  0  0  0  0  0  0  0  0  0  0  0  0  # atno 17394 bound_to 11000
  140.2893  134.3259  155.7320 LP  0  0  0  0  0  0  0  0  0  0  0  0  # atno 17395 bound_to 11000

$$$$
