AV-unprocessed.smi:1679|AV-procd|sdf|6729|dock3
  -GOLD-   22720 7473D 1   1.00000     0.00000
 Structure written by MMmdl.
 45 46  0  0  0  0  0  0  0  0  1 V2000
  150.6776  142.0891  157.1404 C   0  0  0  0  0  0  0  0  0  0  0  0
  151.3675  141.9633  158.5087 C   0  0  2  0  0  0  0  0  0  0  0  0
  151.5242  143.3492  159.1664 C   0  0  0  0  0  0  0  0  0  0  0  0
  152.2192  143.2569  160.5330 C   0  0  0  0  0  0  0  0  0  0  0  0
  153.5829  142.5640  160.4104 C   0  0  0  0  0  0  0  0  0  0  0  0
  153.4381  141.1759  159.7697 C   0  0  0  0  0  0  0  0  0  0  0  0
  152.7354  141.2520  158.3970 C   0  0  1  0  0  0  0  0  0  0  0  0
  152.5058  139.9328  157.9182 O   0  0  0  0  0  0  0  0  0  0  0  0
  151.8411  139.0812  158.8403 C   0  0  0  0  0  0  0  0  0  0  0  0
  152.0223  137.6274  158.3919 C   0  0  0  0  0  0  0  0  0  0  0  0
  150.7835  137.1089  157.8286 N   0  0  0  0  0  0  0  0  0  0  0  0
  150.6529  136.6399  156.5801 C   0  0  0  0  0  0  0  0  0  0  0  0
  151.5856  136.6018  155.7761 O   0  0  0  0  0  0  0  0  0  0  0  0
  149.2474  136.1585  156.1905 C   0  0  0  0  0  0  0  0  0  0  0  0
  149.2121  134.7595  155.7396 N   0  0  0  0  0  0  0  0  0  0  0  0
  148.7464  134.4477  154.4701 C   0  0  0  0  0  0  0  0  0  0  0  0
  148.6922  133.1849  153.9849 C   0  0  0  0  0  0  0  0  0  0  0  0
  149.1362  132.0603  154.8013 C   0  0  0  0  0  0  0  0  0  0  0  0
  149.1242  130.8820  154.4521 O   0  0  0  0  0  0  0  0  0  0  0  0
  149.6014  132.4147  156.0705 N   0  0  0  0  0  0  0  0  0  0  0  0
  149.6615  133.7144  156.5762 C   0  0  0  0  0  0  0  0  0  0  0  0
  150.0945  133.9171  157.7099 O   0  0  0  0  0  0  0  0  0  0  0  0
  149.9229  131.6692  156.6707 H   0  0  0  0  0  0  0  0  0  0  0  0
  151.2828  142.6687  156.4427 H   0  0  0  0  0  0  0  0  0  0  0  0
  149.7110  142.5850  157.2327 H   0  0  0  0  0  0  0  0  0  0  0  0
  150.5000  141.1109  156.6929 H   0  0  0  0  0  0  0  0  0  0  0  0
  150.7232  141.3603  159.1504 H   0  0  0  0  0  0  0  0  0  0  0  0
  152.0992  144.0058  158.5119 H   0  0  0  0  0  0  0  0  0  0  0  0
  150.5464  143.8163  159.2880 H   0  0  0  0  0  0  0  0  0  0  0  0
  152.3450  144.2544  160.9550 H   0  0  0  0  0  0  0  0  0  0  0  0
  151.5877  142.7030  161.2290 H   0  0  0  0  0  0  0  0  0  0  0  0
  154.2548  143.1780  159.8093 H   0  0  0  0  0  0  0  0  0  0  0  0
  154.0432  142.4731  161.3946 H   0  0  0  0  0  0  0  0  0  0  0  0
  154.4238  140.7217  159.6720 H   0  0  0  0  0  0  0  0  0  0  0  0
  152.8667  140.5284  160.4364 H   0  0  0  0  0  0  0  0  0  0  0  0
  153.3587  141.8085  157.6942 H   0  0  0  0  0  0  0  0  0  0  0  0
  152.2727  139.2163  159.8328 H   0  0  0  0  0  0  0  0  0  0  0  0
  150.7798  139.3208  158.9111 H   0  0  0  0  0  0  0  0  0  0  0  0
  152.8243  137.5566  157.6556 H   0  0  0  0  0  0  0  0  0  0  0  0
  152.3118  137.0131  159.2460 H   0  0  0  0  0  0  0  0  0  0  0  0
  149.9692  137.1178  158.4255 H   0  0  0  0  0  0  0  0  0  0  0  0
  148.5701  136.3042  157.0345 H   0  0  0  0  0  0  0  0  0  0  0  0
  148.8687  136.8131  155.4040 H   0  0  0  0  0  0  0  0  0  0  0  0
  148.4108  135.2502  153.8287 H   0  0  0  0  0  0  0  0  0  0  0  0
  148.3187  133.0063  152.9871 H   0  0  0  0  0  0  0  0  0  0  0  0
  1  2  1  0  0  0  0
  1 24  1  0  0  0  0
  1 25  1  0  0  0  0
  1 26  1  0  0  0  0
  2  7  1  0  0  0  0
  2  3  1  0  0  0  0
  2 27  1  0  0  0  0
  3  4  1  0  0  0  0
  3 28  1  0  0  0  0
  3 29  1  0  0  0  0
  4  5  1  0  0  0  0
  4 30  1  0  0  0  0
  4 31  1  0  0  0  0
  5  6  1  0  0  0  0
  5 32  1  0  0  0  0
  5 33  1  0  0  0  0
  6  7  1  0  0  0  0
  6 34  1  0  0  0  0
  6 35  1  0  0  0  0
  7  8  1  0  0  0  0
  7 36  1  0  0  0  0
  8  9  1  0  0  0  0
  9 10  1  0  0  0  0
  9 37  1  0  0  0  0
  9 38  1  0  0  0  0
 10 11  1  0  0  0  0
 10 39  1  0  0  0  0
 10 40  1  0  0  0  0
 11 12  1  0  0  0  0
 11 41  1  0  0  0  0
 12 13  2  0  0  0  0
 12 14  1  0  0  0  0
 14 15  1  0  0  0  0
 14 42  1  0  0  0  0
 14 43  1  0  0  0  0
 15 21  1  0  0  0  0
 15 16  1  0  0  0  0
 16 17  2  0  0  0  0
 16 44  1  0  0  0  0
 17 18  1  0  0  0  0
 17 45  1  0  0  0  0
 18 19  2  0  0  0  0
 18 20  1  0  0  0  0
 20 23  1  0  0  0  0
 20 21  1  0  0  0  0
 21 22  2  0  0  0  0
M  END
> <s_m_source_file>
AV-unprocessed.smi

> <i_m_source_file_index>
1679

> <i_lp_mmshare_version>
43012

> <i_f3d_flags>
0

> <s_epik_input>
W0NIM11bQ0BASF0xW0NIMl1bQ0gyXVtDSDJdW0NIMl1bQ0BIXTFPW0NIMl1bQ0gyXVtOSF1DKD1PKVtDSDJdbjJbY0hdW2NIXWMoPU8pW25IXWMyPU8=

> <s_epik_cmdline>
J2VwaWtfcHl0aG9uJywgJy1waCcsICc3LjAnLCAnLXRuJywgJzgnLCAnLW1hJywgJzIwMCcsICctbWV0YWxfYmluZGluZycsICctaW1hZScsICc8aW5maWxlLm1hZT4nLCAnLW9tYWUnLCAnPG91dGZpbGUubWFlPic=

> <r_lp_tautomer_probability>
0.999537

> <r_epik_Ionization_Penalty>
0.0033132

> <r_epik_Ionization_Penalty_Charging>
0.00331317

> <r_epik_Ionization_Penalty_Neutral>
2.78599e-08

> <r_epik_State_Penalty>
0.002342

> <r_epik_Charging_Adjusted_Penalty>
0.00565517

> <i_epik_Tot_Q>
0

> <i_epik_Tot_abs_Q>
0

> <r_epik_Metal_State_Penalty>
0.365595

> <b_epik_Metal_Only>
0

> <s_lp_Force_Field>
OPLS_2005

> <r_lp_Energy>
12.8009

> <b_lp_Chiralities_Consistent>
1

> <s_lp_Variant>
AV-unprocessed.smi:1679-1

> <Gold.Version>
5.8.1

> <Gold.Id.Protein>
6NUR|6NUR_protein|mol2

> <Gold.PLP.Fitness>
45.0989

> <Gold.PLP.PLP>
-36.3692

> <Gold.PLP.part.hbond>
-2.3708

> <Gold.PLP.part.metal>
0.0000

> <Gold.PLP.part.buried>
-5.4214

> <Gold.PLP.part.nonpolar>
-28.4609

> <Gold.PLP.part.repulsive>
0.1802

> <Gold.PLP.ligand.clash>
0.0000

> <Gold.PLP.ligand.torsion>
0.4382

> <Gold.PLP.Chemscore.Hbond>
2.2200

> <Gold.PLP.Chemscore.CHOScore>
0.9591

> <Gold.PLP.Chemscore.Metal>
0.0000

> <Gold.Chemscore.Hbonds>
donor molecule, donor type, donor heavy atom, donor atom, acceptor molecule, acceptor atom, score
      P1  H  6896  6909       L1    22  0.98
      P1  H  7997  8010       L1     8  0.17
      P1  H 10752 10765       L1    13  0.75
      L1  C    16    44       P1  7948  1.00

> <Gold.PLP.Chemscore.Internal.Correction>
0.0688

> <Gold.Rescore>
     Score         DG    S(hbond)    S(metal)    S(lipo)     H(rot)  DE(clash)    DE(int)     intcor
     15.93     -16.39       1.98        0.00      91.96       2.52       0.03       0.44       ----

> <Gold.Chemscore.Fitness>
15.9266

> <Gold.Chemscore.DG>
-16.3949

> <Gold.Chemscore.ZeroCoef>
-5.4800

> <Gold.Chemscore.Hbond>
1.9769

> <Gold.Chemscore.Metal>
0.0000

> <Gold.Chemscore.Lipo>
91.9607

> <Gold.Chemscore.Internal_Hbond>
0.0000

> <Gold.Chemscore.DEClash>
0.0291

> <Gold.Chemscore.DEInternal>
0.4392

> <Gold.Chemscore.Rot>
2.5185

> <Gold.Chemscore.Internal.Correction>
   9.000000E+99

> <Gold.Chemscore.Hbonds>
donor molecule, donor type, donor heavy atom, donor atom, acceptor molecule, acceptor atom, score
      P1  H  6896  6909       L1    22  0.93
      P1  H 10752 10765       L1    13  0.71

> <Gold.Chemscore.Hbond.Weighted>
-6.6027

> <Gold.Chemscore.Metal.Weighted>
-0.0000

> <Gold.Chemscore.Lipo.Weighted>
-10.7594

> <Gold.Chemscore.Internal_Hbond.Weighted>
0.0000

> <Gold.Chemscore.DEClash.Weighted>
0.0291

> <Gold.Chemscore.DEInternal.Weighted>
0.4392

> <Gold.Chemscore.Rot.Weighted>
6.4472

> <Gold.Chemscore.Internal.Correction.Weighted>
   9.000000E+99

> <Gold.Protein.RotatedTorsions>
[ 6907 6896 6895 6894 ] final   -1.19 input  -60.11 | X-H torsion
[ 7974 7965 7964 7962 ] final  -87.71 input  175.53 | X-H torsion
[ 8008 7997 7996 7995 ] final   42.00 input   59.86 | X-H torsion
[ 10167 10162 10161 10158 ] final  -41.54 input  -65.29 | X-H torsion
[ 10718 10713 10712 10709 ] final  -35.82 input   66.30 | X-H torsion
[ 10763 10752 10751 10750 ] final -141.30 input  -60.55 | X-H torsion
[ 11005 11000 10999 10996 ] final  160.52 input  -57.11 | X-H torsion

> <Gold.Protein.ActiveResidues>
 VAL166  LYS551  ARG553  GLY616  TRP617  ASP618  TYR619  PRO620  LYS621  CYS622 
 ASP623  PHE694  ASN695  SER759  ASP760  ASP761  ALA762  ILE779  LEU786  VAL792 
 PHE793  MET794  SER795  GLU796  ALA797  LYS798  CYS799  TRP800  GLU811  SER814 

> <Gold.Protein.RotatedAtoms>
  151.5500  135.1067  159.9947 H   0  0  0  0  0  0  0  0  0  0  0  0  # atno 6907 bound_to 6896
  152.4496  133.7598  159.6751 H   0  0  0  0  0  0  0  0  0  0  0  0  # atno 6908 bound_to 6896
  150.8420  133.7854  159.3081 H   0  0  0  0  0  0  0  0  0  0  0  0  # atno 6909 bound_to 6896
  145.4628  140.9561  143.1960 H   0  0  0  0  0  0  0  0  0  0  0  0  # atno 7974 bound_to 7965
  155.2790  140.3371  155.4259 H   0  0  0  0  0  0  0  0  0  0  0  0  # atno 8008 bound_to 7997
  156.2098  140.1765  156.7760 H   0  0  0  0  0  0  0  0  0  0  0  0  # atno 8009 bound_to 7997
  154.5671  140.0677  156.8892 H   0  0  0  0  0  0  0  0  0  0  0  0  # atno 8010 bound_to 7997
  140.6999  143.3089  151.3081 H   0  0  0  0  0  0  0  0  0  0  0  0  # atno 10167 bound_to 10162
  156.3341  130.4284  149.7846 H   0  0  0  0  0  0  0  0  0  0  0  0  # atno 10718 bound_to 10713
  154.8550  135.3528  154.5846 H   0  0  0  0  0  0  0  0  0  0  0  0  # atno 10763 bound_to 10752
  153.6456  135.6996  153.5231 H   0  0  0  0  0  0  0  0  0  0  0  0  # atno 10764 bound_to 10752
  153.2935  135.4227  155.1147 H   0  0  0  0  0  0  0  0  0  0  0  0  # atno 10765 bound_to 10752
  140.2067  134.8297  157.3077 H   0  0  0  0  0  0  0  0  0  0  0  0  # atno 11005 bound_to 11000
  144.7992  139.6174  143.7079 LP  0  0  0  0  0  0  0  0  0  0  0  0  # atno 17320 bound_to 7965
  146.2441  139.6062  142.9471 LP  0  0  0  0  0  0  0  0  0  0  0  0  # atno 17321 bound_to 7965
  139.6504  144.0372  152.2622 LP  0  0  0  0  0  0  0  0  0  0  0  0  # atno 17342 bound_to 10162
  139.9907  144.6364  150.7817 LP  0  0  0  0  0  0  0  0  0  0  0  0  # atno 17343 bound_to 10162
  156.5107  130.8170  151.3167 LP  0  0  0  0  0  0  0  0  0  0  0  0  # atno 17370 bound_to 10713
  157.7435  130.9915  150.2602 LP  0  0  0  0  0  0  0  0  0  0  0  0  # atno 17371 bound_to 10713
  140.1995  134.4273  155.7671 LP  0  0  0  0  0  0  0  0  0  0  0  0  # atno 17394 bound_to 11000
  141.2227  133.7065  156.8159 LP  0  0  0  0  0  0  0  0  0  0  0  0  # atno 17395 bound_to 11000

$$$$
