AV-unprocessed.smi:95|AV-procd|sdf|855|dock9
  -GOLD-   2262017303D 1   1.00000     0.00000
 Structure written by MMmdl.
 41 44  0  0  0  0  0  0  0  0  1 V2000
  148.3815  139.1356  157.1266 O   0  0  0  0  0  0  0  0  0  0  0  0
  148.6641  138.3161  158.0028 C   0  0  0  0  0  0  0  0  0  0  0  0
  147.6686  137.6691  158.8498 C   0  0  0  0  0  0  0  0  0  0  0  0
  146.3641  137.9317  158.6625 F   0  0  0  0  0  0  0  0  0  0  0  0
  148.0357  136.8074  159.8226 C   0  0  0  0  0  0  0  0  0  0  0  0
  149.3539  136.4878  160.0927 N   0  0  0  0  0  0  0  0  0  0  0  0
  149.6633  135.4980  161.1917 C   0  0  2  0  0  0  0  0  0  0  0  0
  148.4129  134.8074  161.7698 C   0  0  0  0  0  0  0  0  0  0  0  0
  148.4781  135.1664  163.2453 C   0  0  0  0  0  0  0  0  0  0  0  0
  149.9483  135.5177  163.4443 C   0  0  0  0  0  0  0  0  0  0  0  0
  150.2948  136.1740  162.2347 O   0  0  0  0  0  0  0  0  0  0  0  0
  150.3847  137.0309  159.2909 C   0  0  0  0  0  0  0  0  0  0  0  0
  151.5647  136.7335  159.4850 O   0  0  0  0  0  0  0  0  0  0  0  0
  150.0010  137.9348  158.2706 N   0  0  0  0  0  0  0  0  0  0  0  0
  151.0443  138.5795  157.4867 C   0  0  0  0  0  0  0  0  0  0  0  0
  151.2166  140.0730  157.7394 C   0  0  0  0  0  0  0  0  0  0  0  0
  150.4135  141.0027  157.0494 C   0  0  0  0  0  0  0  0  0  0  0  0
  150.6067  142.3731  157.3011 C   0  0  0  0  0  0  0  0  0  0  0  0
  151.5965  142.7624  158.2265 C   0  0  0  0  0  0  0  0  0  0  0  0
  151.8142  144.1283  158.5008 C   0  0  0  0  0  0  0  0  0  0  0  0
  152.8056  144.5106  159.4232 C   0  0  0  0  0  0  0  0  0  0  0  0
  153.5770  143.5278  160.0696 C   0  0  0  0  0  0  0  0  0  0  0  0
  153.3568  142.1643  159.7946 C   0  0  0  0  0  0  0  0  0  0  0  0
  152.3684  141.7582  158.8729 C   0  0  0  0  0  0  0  0  0  0  0  0
  152.1731  140.4444  158.6214 N   0  0  0  0  0  0  0  0  0  0  0  0
  147.2556  136.3564  160.4186 H   0  0  0  0  0  0  0  0  0  0  0  0
  150.3584  134.7761  160.7603 H   0  0  0  0  0  0  0  0  0  0  0  0
  147.4905  135.1381  161.2912 H   0  0  0  0  0  0  0  0  0  0  0  0
  148.5110  133.7314  161.6230 H   0  0  0  0  0  0  0  0  0  0  0  0
  147.8571  136.0392  163.4490 H   0  0  0  0  0  0  0  0  0  0  0  0
  148.1444  134.3572  163.8952 H   0  0  0  0  0  0  0  0  0  0  0  0
  150.1160  136.1558  164.3119 H   0  0  0  0  0  0  0  0  0  0  0  0
  150.5519  134.6157  163.5561 H   0  0  0  0  0  0  0  0  0  0  0  0
  151.9870  138.0602  157.6604 H   0  0  0  0  0  0  0  0  0  0  0  0
  150.8151  138.3851  156.4372 H   0  0  0  0  0  0  0  0  0  0  0  0
  149.6634  140.6748  156.3445 H   0  0  0  0  0  0  0  0  0  0  0  0
  150.0042  143.1095  156.7896 H   0  0  0  0  0  0  0  0  0  0  0  0
  151.2237  144.8857  158.0064 H   0  0  0  0  0  0  0  0  0  0  0  0
  152.9744  145.5564  159.6343 H   0  0  0  0  0  0  0  0  0  0  0  0
  154.3387  143.8193  160.7777 H   0  0  0  0  0  0  0  0  0  0  0  0
  153.9561  141.4197  160.2980 H   0  0  0  0  0  0  0  0  0  0  0  0
  1  2  2  0  0  0  0
  2 14  1  0  0  0  0
  2  3  1  0  0  0  0
  3  4  1  0  0  0  0
  3  5  2  0  0  0  0
  5  6  1  0  0  0  0
  5 26  1  0  0  0  0
  6  7  1  0  0  0  0
  6 12  1  0  0  0  0
  7 11  1  0  0  0  0
  7  8  1  0  0  0  0
  7 27  1  0  0  0  0
  8  9  1  0  0  0  0
  8 28  1  0  0  0  0
  8 29  1  0  0  0  0
  9 10  1  0  0  0  0
  9 30  1  0  0  0  0
  9 31  1  0  0  0  0
 10 11  1  0  0  0  0
 10 32  1  0  0  0  0
 10 33  1  0  0  0  0
 12 13  2  0  0  0  0
 12 14  1  0  0  0  0
 14 15  1  0  0  0  0
 15 16  1  0  0  0  0
 15 34  1  0  0  0  0
 15 35  1  0  0  0  0
 16 25  1  0  0  0  0
 16 17  2  0  0  0  0
 17 18  1  0  0  0  0
 17 36  1  0  0  0  0
 18 19  2  0  0  0  0
 18 37  1  0  0  0  0
 19 24  1  0  0  0  0
 19 20  1  0  0  0  0
 20 21  2  0  0  0  0
 20 38  1  0  0  0  0
 21 22  1  0  0  0  0
 21 39  1  0  0  0  0
 22 23  2  0  0  0  0
 22 40  1  0  0  0  0
 23 24  1  0  0  0  0
 23 41  1  0  0  0  0
 24 25  2  0  0  0  0
M  END
> <s_m_source_file>
AV-unprocessed.smi

> <i_m_source_file_index>
95

> <i_lp_mmshare_version>
43012

> <i_f3d_flags>
0

> <s_epik_input>
TzFbQ0gyXVtDSDJdW0NIMl1bQ0BIXTFuKFtjSF1jKEYpYzI9TyljKD1PKW4yW0NIMl1jKFtjSF1bY0hdMyluYyhjMzQpW2NIXVtjSF1bY0hdW2NIXTQ=

> <s_epik_cmdline>
J2VwaWtfcHl0aG9uJywgJy1waCcsICc3LjAnLCAnLXRuJywgJzgnLCAnLW1hJywgJzIwMCcsICctbWV0YWxfYmluZGluZycsICctaW1hZScsICc8aW5maWxlLm1hZT4nLCAnLW9tYWUnLCAnPG91dGZpbGUubWFlPic=

> <r_lp_tautomer_probability>
1

> <r_epik_Ionization_Penalty>
0.0274176

> <r_epik_Ionization_Penalty_Charging>
1.11818e-08

> <r_epik_Ionization_Penalty_Neutral>
0.0274176

> <r_epik_State_Penalty>
0.0224396

> <r_epik_Charging_Adjusted_Penalty>
0.0224396

> <i_epik_Tot_Q>
0

> <i_epik_Tot_abs_Q>
0

> <r_epik_Metal_State_Penalty>
2.28695e-05

> <b_epik_Metal_Only>
0

> <s_epik_Chemistry_Notes>
This compound contains an acetal/aminal-like group ( X-CH(R)-Y where X, Y are N, S, or O) that may be acid/base labile, releasing an aldehyde.

> <s_lp_Force_Field>
OPLS_2005

> <r_lp_Energy>
29.0351

> <b_lp_Chiralities_Consistent>
1

> <s_lp_Variant>
AV-unprocessed.smi:95-1

> <Gold.Version>
5.8.1

> <Gold.Id.Protein>
6NUR|6NUR_protein|mol2

> <Gold.PLP.Fitness>
51.6622

> <Gold.PLP.PLP>
-46.8514

> <Gold.PLP.part.hbond>
-2.0000

> <Gold.PLP.part.metal>
0.0000

> <Gold.PLP.part.buried>
-7.0044

> <Gold.PLP.part.nonpolar>
-39.7920

> <Gold.PLP.part.repulsive>
0.0004

> <Gold.PLP.ligand.clash>
0.0000

> <Gold.PLP.ligand.torsion>
0.5918

> <Gold.PLP.Chemscore.Hbond>
1.9913

> <Gold.PLP.Chemscore.CHOScore>
0.0000

> <Gold.PLP.Chemscore.Metal>
0.0000

> <Gold.Chemscore.Hbonds>
donor molecule, donor type, donor heavy atom, donor atom, acceptor molecule, acceptor atom, score
      P1  H  6896  6907       L1    13  0.35
      P1  H  6931  6943       L1    11  0.03

> <Gold.PLP.Chemscore.Internal.Correction>
0.0205

> <Gold.Rescore>
     Score         DG    S(hbond)    S(metal)    S(lipo)     H(rot)  DE(clash)    DE(int)     intcor
     19.93     -21.88       1.98        0.00     116.56       1.50       0.01       1.94       ----

> <Gold.Chemscore.Fitness>
19.9331

> <Gold.Chemscore.DG>
-21.8827

> <Gold.Chemscore.ZeroCoef>
-5.4800

> <Gold.Chemscore.Hbond>
1.9766

> <Gold.Chemscore.Metal>
0.0000

> <Gold.Chemscore.Lipo>
116.5561

> <Gold.Chemscore.Internal_Hbond>
0.0000

> <Gold.Chemscore.DEClash>
0.0057

> <Gold.Chemscore.DEInternal>
1.9438

> <Gold.Chemscore.Rot>
1.4985

> <Gold.Chemscore.Internal.Correction>
   9.000000E+99

> <Gold.Chemscore.Hbonds>
donor molecule, donor type, donor heavy atom, donor atom, acceptor molecule, acceptor atom, score
      P1  H  6896  6907       L1    13  0.02
      P1  H  6931  6943       L1    11  0.01

> <Gold.Chemscore.Hbond.Weighted>
-6.6018

> <Gold.Chemscore.Metal.Weighted>
-0.0000

> <Gold.Chemscore.Lipo.Weighted>
-13.6371

> <Gold.Chemscore.Internal_Hbond.Weighted>
0.0000

> <Gold.Chemscore.DEClash.Weighted>
0.0057

> <Gold.Chemscore.DEInternal.Weighted>
1.9438

> <Gold.Chemscore.Rot.Weighted>
3.8362

> <Gold.Chemscore.Internal.Correction.Weighted>
   9.000000E+99

> <Gold.Protein.RotatedTorsions>
[ 6907 6896 6895 6894 ] final  -34.26 input  -60.11 | X-H torsion
[ 7974 7965 7964 7962 ] final -115.04 input  175.53 | X-H torsion
[ 8008 7997 7996 7995 ] final   15.64 input   59.86 | X-H torsion
[ 10167 10162 10161 10158 ] final  114.19 input  -65.29 | X-H torsion
[ 10718 10713 10712 10709 ] final   77.68 input   66.30 | X-H torsion
[ 10763 10752 10751 10750 ] final  -56.31 input  -60.55 | X-H torsion
[ 11005 11000 10999 10996 ] final  123.35 input  -57.11 | X-H torsion

> <Gold.Protein.ActiveResidues>
 VAL166  LYS551  ARG553  GLY616  TRP617  ASP618  TYR619  PRO620  LYS621  CYS622 
 ASP623  PHE694  ASN695  SER759  ASP760  ASP761  ALA762  ILE779  LEU786  VAL792 
 PHE793  MET794  SER795  GLU796  ALA797  LYS798  CYS799  TRP800  GLU811  SER814 

> <Gold.Protein.RotatedAtoms>
  151.0549  134.9698  159.8230 H   0  0  0  0  0  0  0  0  0  0  0  0  # atno 6907 bound_to 6896
  152.5386  134.2490  159.8901 H   0  0  0  0  0  0  0  0  0  0  0  0  # atno 6908 bound_to 6896
  151.2507  133.4308  159.2645 H   0  0  0  0  0  0  0  0  0  0  0  0  # atno 6909 bound_to 6896
  145.1131  140.8624  143.3858 H   0  0  0  0  0  0  0  0  0  0  0  0  # atno 7974 bound_to 7965
  154.8655  140.2951  155.5513 H   0  0  0  0  0  0  0  0  0  0  0  0  # atno 8008 bound_to 7997
  156.3020  140.2470  156.3568 H   0  0  0  0  0  0  0  0  0  0  0  0  # atno 8009 bound_to 7997
  154.8873  140.0396  157.1807 H   0  0  0  0  0  0  0  0  0  0  0  0  # atno 8010 bound_to 7997
  139.6407  144.7123  151.2243 H   0  0  0  0  0  0  0  0  0  0  0  0  # atno 10167 bound_to 10162
  157.6719  130.9833  150.1676 H   0  0  0  0  0  0  0  0  0  0  0  0  # atno 10718 bound_to 10713
  154.2046  135.6405  153.5097 H   0  0  0  0  0  0  0  0  0  0  0  0  # atno 10763 bound_to 10752
  153.0004  135.5459  154.6279 H   0  0  0  0  0  0  0  0  0  0  0  0  # atno 10764 bound_to 10752
  154.5700  135.2916  155.0809 H   0  0  0  0  0  0  0  0  0  0  0  0  # atno 10765 bound_to 10752
  139.9309  134.9641  156.8246 H   0  0  0  0  0  0  0  0  0  0  0  0  # atno 11005 bound_to 11000
  145.0824  139.2949  143.5776 LP  0  0  0  0  0  0  0  0  0  0  0  0  # atno 17320 bound_to 7965
  146.3525  140.0335  142.8648 LP  0  0  0  0  0  0  0  0  0  0  0  0  # atno 17321 bound_to 7965
  140.7489  143.6317  150.8416 LP  0  0  0  0  0  0  0  0  0  0  0  0  # atno 17342 bound_to 10162
  139.9954  143.5801  152.2895 LP  0  0  0  0  0  0  0  0  0  0  0  0  # atno 17343 bound_to 10162
  156.2438  130.3693  149.8308 LP  0  0  0  0  0  0  0  0  0  0  0  0  # atno 17370 bound_to 10713
  156.6100  130.8583  151.3452 LP  0  0  0  0  0  0  0  0  0  0  0  0  # atno 17371 bound_to 10713
  140.6206  133.9997  155.7616 LP  0  0  0  0  0  0  0  0  0  0  0  0  # atno 17394 bound_to 11000
  141.0896  133.9937  157.3258 LP  0  0  0  0  0  0  0  0  0  0  0  0  # atno 17395 bound_to 11000

$$$$
