AV-unprocessed.smi:3347|AV-procd|sdf|12911|dock3
  -GOLD-   2272019323D 1   1.00000     0.00000
 Structure written by MMmdl.
 40 42  0  0  0  0  0  0  0  0  2 V2000
  150.5130  140.6196  156.4387 O   0  0  0  0  0  0  0  0  0  0  0  0
  150.2189  141.7680  156.1094 C   0  0  0  0  0  0  0  0  0  0  0  0
  149.4750  142.0563  155.0319 N   0  0  0  0  0  0  0  0  0  0  0  0
  148.8792  141.0778  154.1269 C   0  0  0  0  0  0  0  0  0  0  0  0
  147.4008  141.3884  153.8243 C   0  0  2  0  0  0  0  0  0  0  0  0
  147.0960  142.8819  153.7276 C   0  0  0  0  0  0  0  0  0  0  0  0
  145.5853  142.9779  153.9722 C   0  0  0  0  0  0  0  0  0  0  0  0
  145.1822  141.7249  154.6524 N   0  3  2  0  0  0  0  0  0  0  0  0
  144.3524  141.9294  155.8586 C   0  0  0  0  0  0  0  0  0  0  0  0
  143.4472  143.1347  155.7711 C   0  0  0  0  0  0  0  0  0  0  0  0
  144.6972  143.1848  156.6233 C   0  0  0  0  0  0  0  0  0  0  0  0
  146.4058  140.9337  154.8947 C   0  0  0  0  0  0  0  0  0  0  0  0
  150.5832  142.8883  156.7569 N   0  0  0  0  0  0  0  0  0  0  0  0
  151.3343  143.0372  157.9559 C   0  0  0  0  0  0  0  0  0  0  0  0
  151.7227  144.2759  158.5237 C   0  0  0  0  0  0  0  0  0  0  0  0
  152.4637  144.2725  159.7214 C   0  0  0  0  0  0  0  0  0  0  0  0
  152.7869  143.0353  160.3107 C   0  0  0  0  0  0  0  0  0  0  0  0
  152.4184  141.8482  159.7860 N   0  0  0  0  0  0  0  0  0  0  0  0
  151.7086  141.8593  158.6378 C   0  0  0  0  0  0  0  0  0  0  0  0
  149.2819  143.0283  154.8381 H   0  0  0  0  0  0  0  0  0  0  0  0
  149.4553  141.0050  153.2027 H   0  0  0  0  0  0  0  0  0  0  0  0
  148.9524  140.1014  154.6067 H   0  0  0  0  0  0  0  0  0  0  0  0
  147.1250  140.9235  152.8760 H   0  0  0  0  0  0  0  0  0  0  0  0
  147.6253  143.4220  154.5145 H   0  0  0  0  0  0  0  0  0  0  0  0
  147.3950  143.3128  152.7714 H   0  0  0  0  0  0  0  0  0  0  0  0
  145.3394  143.8663  154.5562 H   0  0  0  0  0  0  0  0  0  0  0  0
  145.0440  143.0448  153.0280 H   0  0  0  0  0  0  0  0  0  0  0  0
  144.0300  141.0325  156.3849 H   0  0  0  0  0  0  0  0  0  0  0  0
  143.4445  143.7114  154.8479 H   0  0  0  0  0  0  0  0  0  0  0  0
  142.4919  143.0827  156.2896 H   0  0  0  0  0  0  0  0  0  0  0  0
  144.5649  143.1667  157.7033 H   0  0  0  0  0  0  0  0  0  0  0  0
  145.5254  143.7948  156.2667 H   0  0  0  0  0  0  0  0  0  0  0  0
  146.2005  139.8636  154.8524 H   0  0  0  0  0  0  0  0  0  0  0  0
  146.7985  141.1615  155.8874 H   0  0  0  0  0  0  0  0  0  0  0  0
  150.2377  143.7517  156.3641 H   0  0  0  0  0  0  0  0  0  0  0  0
  151.4692  145.2251  158.0802 H   0  0  0  0  0  0  0  0  0  0  0  0
  152.7763  145.1994  160.1793 H   0  0  0  0  0  0  0  0  0  0  0  0
  153.3542  142.9981  161.2290 H   0  0  0  0  0  0  0  0  0  0  0  0
  151.4309  140.8905  158.2486 H   0  0  0  0  0  0  0  0  0  0  0  0
  144.6285  141.2057  153.9861 H   0  0  0  0  0  0  0  0  0  0  0  0
  1  2  2  0  0  0  0
  2  3  1  0  0  0  0
  2 13  1  0  0  0  0
  3  4  1  0  0  0  0
  3 20  1  0  0  0  0
  4  5  1  0  0  0  0
  4 21  1  0  0  0  0
  4 22  1  0  0  0  0
  5 12  1  0  0  0  0
  5  6  1  0  0  0  0
  5 23  1  0  0  0  0
  6  7  1  0  0  0  0
  6 24  1  0  0  0  0
  6 25  1  0  0  0  0
  7  8  1  0  0  0  0
  7 26  1  0  0  0  0
  7 27  1  0  0  0  0
  8  9  1  0  0  0  0
  8 12  1  0  0  0  0
  8 40  1  0  0  0  0
  9 11  1  0  0  0  0
  9 10  1  0  0  0  0
  9 28  1  0  0  0  0
 10 11  1  0  0  0  0
 10 29  1  0  0  0  0
 10 30  1  0  0  0  0
 11 31  1  0  0  0  0
 11 32  1  0  0  0  0
 12 33  1  0  0  0  0
 12 34  1  0  0  0  0
 13 14  1  0  0  0  0
 13 35  1  0  0  0  0
 14 19  1  0  0  0  0
 14 15  2  0  0  0  0
 15 16  1  0  0  0  0
 15 36  1  0  0  0  0
 16 17  2  0  0  0  0
 16 37  1  0  0  0  0
 17 18  1  0  0  0  0
 17 38  1  0  0  0  0
 18 19  2  0  0  0  0
 19 39  1  0  0  0  0
M  CHG  1   8   1
M  END
> <s_m_source_file>
AV-unprocessed.smi

> <i_m_source_file_index>
3347

> <i_lp_mmshare_version>
43012

> <i_f3d_flags>
0

> <s_epik_input>
W2NIXTFuW2NIXVtjSF1bY0hdYzFbTkhdQyg9TylbTkhdW0NIMl1bQ0BASF0yW0NIMl1bQ0gyXU4oW0NIMl0yKVtDSF0zW0NIMl1bQ0gyXTM=

> <s_epik_cmdline>
J2VwaWtfcHl0aG9uJywgJy1waCcsICc3LjAnLCAnLXRuJywgJzgnLCAnLW1hJywgJzIwMCcsICctbWV0YWxfYmluZGluZycsICctaW1hZScsICc8aW5maWxlLm1hZT4nLCAnLW9tYWUnLCAnPG91dGZpbGUubWFlPic=

> <r_epik_Ionization_Penalty>
0.00442629

> <r_epik_Ionization_Penalty_Charging>
0.000203384

> <r_epik_Ionization_Penalty_Neutral>
0.00422291

> <r_epik_State_Penalty>
0.00301008

> <r_epik_Charging_Adjusted_Penalty>
0.00321347

> <i_epik_Tot_Q>
1

> <i_epik_Tot_abs_Q>
1

> <r_epik_Metal_State_Penalty>
-0

> <b_epik_Metal_Only>
0

> <s_lp_Force_Field>
OPLS_2005

> <r_lp_Energy>
39.8414

> <b_lp_Chiralities_Consistent>
1

> <s_lp_Variant>
AV-unprocessed.smi:3347-1

> <Gold.Version>
5.8.1

> <Gold.Id.Protein>
6NUR|6NUR_protein|mol2

> <Gold.PLP.Fitness>
49.0452

> <Gold.PLP.PLP>
-37.8812

> <Gold.PLP.part.hbond>
-3.0000

> <Gold.PLP.part.metal>
0.0000

> <Gold.PLP.part.buried>
-3.8080

> <Gold.PLP.part.nonpolar>
-30.8030

> <Gold.PLP.part.repulsive>
0.2903

> <Gold.PLP.ligand.clash>
0.0000

> <Gold.PLP.ligand.torsion>
0.9395

> <Gold.PLP.Chemscore.Hbond>
3.9280

> <Gold.PLP.Chemscore.CHOScore>
0.0000

> <Gold.PLP.Chemscore.Metal>
0.0000

> <Gold.Chemscore.Hbonds>
donor molecule, donor type, donor heavy atom, donor atom, acceptor molecule, acceptor atom, score
      L1  H     3    20       P1  8028  0.90
      L1  H     8    40       P1 10175  2.00
      L1  H    13    35       P1  8028  1.00

> <Gold.PLP.Chemscore.Internal.Correction>
1.2589

> <Gold.Rescore>
     Score         DG    S(hbond)    S(metal)    S(lipo)     H(rot)  DE(clash)    DE(int)     intcor
     19.86     -22.36       2.86        0.00      93.69       1.42       0.03       2.47       ----

> <Gold.Chemscore.Fitness>
19.8610

> <Gold.Chemscore.DG>
-22.3647

> <Gold.Chemscore.ZeroCoef>
-5.4800

> <Gold.Chemscore.Hbond>
2.8632

> <Gold.Chemscore.Metal>
0.0000

> <Gold.Chemscore.Lipo>
93.6893

> <Gold.Chemscore.Internal_Hbond>
0.0000

> <Gold.Chemscore.DEClash>
0.0327

> <Gold.Chemscore.DEInternal>
2.4710

> <Gold.Chemscore.Rot>
1.4219

> <Gold.Chemscore.Internal.Correction>
   9.000000E+99

> <Gold.Chemscore.Hbonds>
donor molecule, donor type, donor heavy atom, donor atom, acceptor molecule, acceptor atom, score
      L1  H     3    20       P1  8028  0.88
      L1  H     8    40       P1 10175  0.60
      L1  H    13    35       P1  8028  0.95

> <Gold.Chemscore.Hbond.Weighted>
-9.5632

> <Gold.Chemscore.Metal.Weighted>
-0.0000

> <Gold.Chemscore.Lipo.Weighted>
-10.9616

> <Gold.Chemscore.Internal_Hbond.Weighted>
0.0000

> <Gold.Chemscore.DEClash.Weighted>
0.0327

> <Gold.Chemscore.DEInternal.Weighted>
2.4710

> <Gold.Chemscore.Rot.Weighted>
3.6401

> <Gold.Chemscore.Internal.Correction.Weighted>
   9.000000E+99

> <Gold.Protein.RotatedTorsions>
[ 6907 6896 6895 6894 ] final   13.85 input  -60.11 | X-H torsion
[ 7974 7965 7964 7962 ] final   54.29 input  175.53 | X-H torsion
[ 8008 7997 7996 7995 ] final   95.45 input   59.86 | X-H torsion
[ 10167 10162 10161 10158 ] final   26.62 input  -65.29 | X-H torsion
[ 10718 10713 10712 10709 ] final  164.21 input   66.30 | X-H torsion
[ 10763 10752 10751 10750 ] final  160.98 input  -60.55 | X-H torsion
[ 11005 11000 10999 10996 ] final   75.08 input  -57.11 | X-H torsion

> <Gold.Protein.ActiveResidues>
 VAL166  LYS551  ARG553  GLY616  TRP617  ASP618  TYR619  PRO620  LYS621  CYS622 
 ASP623  PHE694  ASN695  SER759  ASP760  ASP761  ALA762  ILE779  LEU786  VAL792 
 PHE793  MET794  SER795  GLU796  ALA797  LYS798  CYS799  TRP800  GLU811  SER814 

> <Gold.Protein.RotatedAtoms>
  151.7929  135.0731  160.0389 H   0  0  0  0  0  0  0  0  0  0  0  0  # atno 6907 bound_to 6896
  152.3144  133.5782  159.5710 H   0  0  0  0  0  0  0  0  0  0  0  0  # atno 6908 bound_to 6896
  150.7336  134.0021  159.3683 H   0  0  0  0  0  0  0  0  0  0  0  0  # atno 6909 bound_to 6896
  145.9624  139.4072  143.0240 H   0  0  0  0  0  0  0  0  0  0  0  0  # atno 7974 bound_to 7965
  156.0690  140.3286  155.7552 H   0  0  0  0  0  0  0  0  0  0  0  0  # atno 8008 bound_to 7997
  155.5336  140.0595  157.2901 H   0  0  0  0  0  0  0  0  0  0  0  0  # atno 8009 bound_to 7997
  154.4520  140.1923  156.0509 H   0  0  0  0  0  0  0  0  0  0  0  0  # atno 8010 bound_to 7997
  140.5007  144.0319  150.6332 H   0  0  0  0  0  0  0  0  0  0  0  0  # atno 10167 bound_to 10162
  157.0975  131.0434  151.2511 H   0  0  0  0  0  0  0  0  0  0  0  0  # atno 10718 bound_to 10713
  154.2559  135.2770  155.2798 H   0  0  0  0  0  0  0  0  0  0  0  0  # atno 10763 bound_to 10752
  154.5425  135.5698  153.6855 H   0  0  0  0  0  0  0  0  0  0  0  0  # atno 10764 bound_to 10752
  152.9971  135.6254  154.2707 H   0  0  0  0  0  0  0  0  0  0  0  0  # atno 10765 bound_to 10752
  139.9360  134.7487  156.1227 H   0  0  0  0  0  0  0  0  0  0  0  0  # atno 11005 bound_to 11000
  145.8021  140.9766  143.0993 LP  0  0  0  0  0  0  0  0  0  0  0  0  # atno 17320 bound_to 7965
  144.6818  139.9814  143.7483 LP  0  0  0  0  0  0  0  0  0  0  0  0  # atno 17321 bound_to 7965
  140.3615  143.2905  152.0379 LP  0  0  0  0  0  0  0  0  0  0  0  0  # atno 17342 bound_to 10162
  139.4871  144.6299  151.7090 LP  0  0  0  0  0  0  0  0  0  0  0  0  # atno 17343 bound_to 10162
  157.4669  130.7686  149.7287 LP  0  0  0  0  0  0  0  0  0  0  0  0  # atno 17370 bound_to 10713
  155.9882  130.3961  150.3130 LP  0  0  0  0  0  0  0  0  0  0  0  0  # atno 17371 bound_to 10713
  141.0974  133.6690  156.2676 LP  0  0  0  0  0  0  0  0  0  0  0  0  # atno 17394 bound_to 11000
  140.6074  134.5493  157.5528 LP  0  0  0  0  0  0  0  0  0  0  0  0  # atno 17395 bound_to 11000

$$$$
