AV-unprocessed.smi:1845|AV-procd|sdf|7513|dock8
  -GOLD-   22720 9223D 1   1.00000     0.00000
 Structure written by MMmdl.
 44 45  0  0  0  0  0  0  0  0  2 V2000
  148.3544  135.8258  159.9976 C   0  0  0  0  0  0  0  0  0  0  0  0
  148.4307  135.1505  158.2832 S   0  0  0  0  0  0  0  0  0  0  0  0
  148.0783  133.7291  158.4183 O   0  0  0  0  0  0  0  0  0  0  0  0
  147.5254  135.9816  157.4715 O   0  0  0  0  0  0  0  0  0  0  0  0
  150.0035  135.3279  157.9060 N   0  5  0  0  0  0  0  0  0  0  0  0
  150.6156  134.5764  156.8183 C   0  0  0  0  0  0  0  0  0  0  0  0
  150.1086  135.1147  155.4625 C   0  0  0  0  0  0  0  0  0  0  0  0
  150.7529  136.4470  155.0500 C   0  0  0  0  0  0  0  0  0  0  0  0
  151.9728  136.6077  155.1338 O   0  0  0  0  0  0  0  0  0  0  0  0
  149.9224  137.3859  154.5650 N   0  0  0  0  0  0  0  0  0  0  0  0
  150.3121  138.7238  154.1289 C   0  0  0  0  0  0  0  0  0  0  0  0
  150.7412  139.6604  155.2502 C   0  0  0  0  0  0  0  0  0  0  0  0
  149.9951  140.7997  155.6207 C   0  0  0  0  0  0  0  0  0  0  0  0
  150.4690  141.6197  156.6629 C   0  0  0  0  0  0  0  0  0  0  0  0
  151.6802  141.2828  157.3131 C   0  0  0  0  0  0  0  0  0  0  0  0
  152.1738  142.0866  158.3648 N   0  0  0  0  0  0  0  0  0  0  0  0
  151.6183  143.4354  158.4505 C   0  0  0  0  0  0  0  0  0  0  0  0
  152.4446  144.2961  159.4218 C   0  0  0  0  0  0  0  0  0  0  0  0
  152.5264  143.6515  160.6883 O   0  0  0  0  0  0  0  0  0  0  0  0
  153.1767  142.3885  160.5967 C   0  0  0  0  0  0  0  0  0  0  0  0
  152.3747  141.4590  159.6704 C   0  0  0  0  0  0  0  0  0  0  0  0
  152.4006  140.1948  156.9440 N   0  0  0  0  0  0  0  0  0  0  0  0
  151.9426  139.4136  155.9437 C   0  0  0  0  0  0  0  0  0  0  0  0
  147.3516  135.6755  160.3960 H   0  0  0  0  0  0  0  0  0  0  0  0
  148.5786  136.8920  159.9903 H   0  0  0  0  0  0  0  0  0  0  0  0
  149.0741  135.3039  160.6275 H   0  0  0  0  0  0  0  0  0  0  0  0
  151.7037  134.6474  156.8338 H   0  0  0  0  0  0  0  0  0  0  0  0
  150.3903  133.5124  156.8980 H   0  0  0  0  0  0  0  0  0  0  0  0
  150.3079  134.3844  154.6769 H   0  0  0  0  0  0  0  0  0  0  0  0
  149.0244  135.2376  155.4954 H   0  0  0  0  0  0  0  0  0  0  0  0
  148.9386  137.1632  154.5193 H   0  0  0  0  0  0  0  0  0  0  0  0
  151.1435  138.6080  153.4328 H   0  0  0  0  0  0  0  0  0  0  0  0
  149.5092  139.1995  153.5636 H   0  0  0  0  0  0  0  0  0  0  0  0
  149.0755  141.0573  155.1172 H   0  0  0  0  0  0  0  0  0  0  0  0
  149.9080  142.5007  156.9364 H   0  0  0  0  0  0  0  0  0  0  0  0
  151.5937  143.9269  157.4793 H   0  0  0  0  0  0  0  0  0  0  0  0
  150.5865  143.3682  158.7978 H   0  0  0  0  0  0  0  0  0  0  0  0
  153.4461  144.4746  159.0269 H   0  0  0  0  0  0  0  0  0  0  0  0
  151.9755  145.2715  159.5505 H   0  0  0  0  0  0  0  0  0  0  0  0
  154.1967  142.5176  160.2310 H   0  0  0  0  0  0  0  0  0  0  0  0
  153.2490  141.9530  161.5935 H   0  0  0  0  0  0  0  0  0  0  0  0
  151.4047  141.2346  160.1160 H   0  0  0  0  0  0  0  0  0  0  0  0
  152.9098  140.5151  159.5585 H   0  0  0  0  0  0  0  0  0  0  0  0
  152.5568  138.5620  155.6909 H   0  0  0  0  0  0  0  0  0  0  0  0
  1  2  1  0  0  0  0
  1 24  1  0  0  0  0
  1 25  1  0  0  0  0
  1 26  1  0  0  0  0
  2  3  2  0  0  0  0
  2  4  2  0  0  0  0
  2  5  1  0  0  0  0
  5  6  1  0  0  0  0
  6  7  1  0  0  0  0
  6 27  1  0  0  0  0
  6 28  1  0  0  0  0
  7  8  1  0  0  0  0
  7 29  1  0  0  0  0
  7 30  1  0  0  0  0
  8  9  2  0  0  0  0
  8 10  1  0  0  0  0
 10 11  1  0  0  0  0
 10 31  1  0  0  0  0
 11 12  1  0  0  0  0
 11 32  1  0  0  0  0
 11 33  1  0  0  0  0
 12 23  1  0  0  0  0
 12 13  2  0  0  0  0
 13 14  1  0  0  0  0
 13 34  1  0  0  0  0
 14 15  2  0  0  0  0
 14 35  1  0  0  0  0
 15 16  1  0  0  0  0
 15 22  1  0  0  0  0
 16 21  1  0  0  0  0
 16 17  1  0  0  0  0
 17 18  1  0  0  0  0
 17 36  1  0  0  0  0
 17 37  1  0  0  0  0
 18 19  1  0  0  0  0
 18 38  1  0  0  0  0
 18 39  1  0  0  0  0
 19 20  1  0  0  0  0
 20 21  1  0  0  0  0
 20 40  1  0  0  0  0
 20 41  1  0  0  0  0
 21 42  1  0  0  0  0
 21 43  1  0  0  0  0
 22 23  2  0  0  0  0
 23 44  1  0  0  0  0
M  CHG  1   5  -1
M  END
> <s_m_source_file>
AV-unprocessed.smi

> <i_m_source_file_index>
1845

> <i_lp_mmshare_version>
43012

> <i_f3d_flags>
0

> <s_epik_input>
W0NIM11TKD1PKSg9TylbTkhdW0NIMl1bQ0gyXUMoPU8pW05IXVtDSDJdYzFbY0hdW2NIXWMobltjSF0xKU4yW0NIMl1bQ0gyXU9bQ0gyXVtDSDJdMg==

> <s_epik_cmdline>
J2VwaWtfcHl0aG9uJywgJy1waCcsICc3LjAnLCAnLXRuJywgJzgnLCAnLW1hJywgJzIwMCcsICctbWV0YWxfYmluZGluZycsICctaW1hZScsICc8aW5maWxlLm1hZT4nLCAnLW9tYWUnLCAnPG91dGZpbGUubWFlPic=

> <r_lp_tautomer_probability>
1

> <r_epik_Ionization_Penalty>
6.31253

> <r_epik_Ionization_Penalty_Charging>
6.30704

> <r_epik_Ionization_Penalty_Neutral>
0.00548995

> <r_epik_State_Penalty>
6.31049

> <r_epik_Charging_Adjusted_Penalty>
12.6175

> <i_epik_Tot_Q>
-1

> <i_epik_Tot_abs_Q>
1

> <r_epik_Metal_State_Penalty>
2.24651

> <b_epik_Metal_Only>
1

> <s_lp_Force_Field>
OPLS_2005

> <r_lp_Energy>
11.4109

> <b_lp_Chiralities_Consistent>
1

> <s_lp_Variant>
AV-unprocessed.smi:1845-2

> <Gold.Version>
5.8.1

> <Gold.Id.Protein>
6NUR|6NUR_protein|mol2

> <Gold.PLP.Fitness>
50.5668

> <Gold.PLP.PLP>
-40.0846

> <Gold.PLP.part.hbond>
-4.0000

> <Gold.PLP.part.metal>
0.0000

> <Gold.PLP.part.buried>
-4.8042

> <Gold.PLP.part.nonpolar>
-32.0200

> <Gold.PLP.part.repulsive>
0.1773

> <Gold.PLP.ligand.clash>
0.0000

> <Gold.PLP.ligand.torsion>
1.2889

> <Gold.PLP.Chemscore.Hbond>
3.8880

> <Gold.PLP.Chemscore.CHOScore>
0.0000

> <Gold.PLP.Chemscore.Metal>
0.0000

> <Gold.Chemscore.Hbonds>
donor molecule, donor type, donor heavy atom, donor atom, acceptor molecule, acceptor atom, score
      P1  H  6896  6907       L1     5  1.38
      P1  H  7997  8008       L1    22  1.00
      P1  H 10752 10765       L1     9  0.94

> <Gold.PLP.Chemscore.Internal.Correction>
1.3959

> <Gold.Rescore>
     Score         DG    S(hbond)    S(metal)    S(lipo)     H(rot)  DE(clash)    DE(int)     intcor
     15.10     -17.74       2.34        0.00      91.71       2.46       0.11       2.53       ----

> <Gold.Chemscore.Fitness>
15.1016

> <Gold.Chemscore.DG>
-17.7371

> <Gold.Chemscore.ZeroCoef>
-5.4800

> <Gold.Chemscore.Hbond>
2.3446

> <Gold.Chemscore.Metal>
0.0000

> <Gold.Chemscore.Lipo>
91.7097

> <Gold.Chemscore.Internal_Hbond>
0.0000

> <Gold.Chemscore.DEClash>
0.1060

> <Gold.Chemscore.DEInternal>
2.5296

> <Gold.Chemscore.Rot>
2.4625

> <Gold.Chemscore.Internal.Correction>
   9.000000E+99

> <Gold.Chemscore.Hbonds>
donor molecule, donor type, donor heavy atom, donor atom, acceptor molecule, acceptor atom, score
      P1  H  6896  6907       L1     5  0.04
      P1  H  7997  8008       L1    22  0.24
      P1  H 10752 10765       L1     9  0.85

> <Gold.Chemscore.Hbond.Weighted>
-7.8311

> <Gold.Chemscore.Metal.Weighted>
-0.0000

> <Gold.Chemscore.Lipo.Weighted>
-10.7300

> <Gold.Chemscore.Internal_Hbond.Weighted>
0.0000

> <Gold.Chemscore.DEClash.Weighted>
0.1060

> <Gold.Chemscore.DEInternal.Weighted>
2.5296

> <Gold.Chemscore.Rot.Weighted>
6.3040

> <Gold.Chemscore.Internal.Correction.Weighted>
   9.000000E+99

> <Gold.Protein.RotatedTorsions>
[ 6907 6896 6895 6894 ] final  -77.74 input  -60.11 | X-H torsion
[ 7974 7965 7964 7962 ] final  -76.07 input  175.53 | X-H torsion
[ 8008 7997 7996 7995 ] final  -56.72 input   59.86 | X-H torsion
[ 10167 10162 10161 10158 ] final   40.26 input  -65.29 | X-H torsion
[ 10718 10713 10712 10709 ] final -117.43 input   66.30 | X-H torsion
[ 10763 10752 10751 10750 ] final  166.37 input  -60.55 | X-H torsion
[ 11005 11000 10999 10996 ] final -136.94 input  -57.11 | X-H torsion

> <Gold.Protein.ActiveResidues>
 VAL166  LYS551  ARG553  GLY616  TRP617  ASP618  TYR619  PRO620  LYS621  CYS622 
 ASP623  PHE694  ASN695  SER759  ASP760  ASP761  ALA762  ILE779  LEU786  VAL792 
 PHE793  MET794  SER795  GLU796  ALA797  LYS798  CYS799  TRP800  GLU811  SER814 

> <Gold.Protein.RotatedAtoms>
  150.6991  134.4378  159.5277 H   0  0  0  0  0  0  0  0  0  0  0  0  # atno 6907 bound_to 6896
  152.2093  134.8514  160.0508 H   0  0  0  0  0  0  0  0  0  0  0  0  # atno 6908 bound_to 6896
  151.9405  133.3601  159.4000 H   0  0  0  0  0  0  0  0  0  0  0  0  # atno 6909 bound_to 6896
  145.6177  140.9371  143.1155 H   0  0  0  0  0  0  0  0  0  0  0  0  # atno 7974 bound_to 7965
  154.4241  140.1123  156.5683 H   0  0  0  0  0  0  0  0  0  0  0  0  # atno 8008 bound_to 7997
  155.6238  140.3495  155.4642 H   0  0  0  0  0  0  0  0  0  0  0  0  # atno 8009 bound_to 7997
  156.0002  140.1197  157.0544 H   0  0  0  0  0  0  0  0  0  0  0  0  # atno 8010 bound_to 7997
  140.3759  144.2044  150.6131 H   0  0  0  0  0  0  0  0  0  0  0  0  # atno 10167 bound_to 10162
  156.1033  130.6190  150.9162 H   0  0  0  0  0  0  0  0  0  0  0  0  # atno 10718 bound_to 10713
  154.3380  135.2754  155.2437 H   0  0  0  0  0  0  0  0  0  0  0  0  # atno 10763 bound_to 10752
  154.4720  135.5880  153.6332 H   0  0  0  0  0  0  0  0  0  0  0  0  # atno 10764 bound_to 10752
  152.9860  135.6090  154.3579 H   0  0  0  0  0  0  0  0  0  0  0  0  # atno 10765 bound_to 10752
  140.8758  134.1994  157.4623 H   0  0  0  0  0  0  0  0  0  0  0  0  # atno 11005 bound_to 11000
  144.7244  139.7924  143.7370 LP  0  0  0  0  0  0  0  0  0  0  0  0  # atno 17320 bound_to 7965
  146.1456  139.4524  143.0081 LP  0  0  0  0  0  0  0  0  0  0  0  0  # atno 17321 bound_to 7965
  140.4987  143.2324  151.8711 LP  0  0  0  0  0  0  0  0  0  0  0  0  # atno 17342 bound_to 10162
  139.4799  144.5084  151.8966 LP  0  0  0  0  0  0  0  0  0  0  0  0  # atno 17343 bound_to 10162
  157.6206  131.0930  150.8628 LP  0  0  0  0  0  0  0  0  0  0  0  0  # atno 17370 bound_to 10713
  156.8752  130.5160  149.5294 LP  0  0  0  0  0  0  0  0  0  0  0  0  # atno 17371 bound_to 10713
  139.8715  134.9795  156.5038 LP  0  0  0  0  0  0  0  0  0  0  0  0  # atno 17394 bound_to 11000
  140.8520  133.8125  155.9178 LP  0  0  0  0  0  0  0  0  0  0  0  0  # atno 17395 bound_to 11000

$$$$
