AV-unprocessed.smi:1626|AV-procd|sdf|6514|dock3
  -GOLD-   22720 7183D 1   1.00000     0.00000
 Structure written by MMmdl.
 47 49  0  0  0  0  0  0  0  0  1 V2000
  152.8098  143.8129  162.0646 C   0  0  0  0  0  0  0  0  0  0  0  0
  152.3745  143.2523  160.7220 C   0  0  0  0  0  0  0  0  0  0  0  0
  152.4216  141.8551  160.5130 C   0  0  0  0  0  0  0  0  0  0  0  0
  152.0205  141.2930  159.2811 C   0  0  0  0  0  0  0  0  0  0  0  0
  151.9814  139.9733  158.8631 N   0  0  0  0  0  0  0  0  0  0  0  0
  151.5115  140.0980  157.6248 C   0  0  0  0  0  0  0  0  0  0  0  0
  151.2424  141.3445  157.1912 N   0  0  0  0  0  0  0  0  0  0  0  0
  150.7179  141.7366  155.8966 C   0  0  0  0  0  0  0  0  0  0  0  0
  150.0009  140.5710  155.1868 C   0  0  2  0  0  0  0  0  0  0  0  0
  150.9478  139.8296  154.4442 O   0  0  0  0  0  0  0  0  0  0  0  0
  148.9010  141.0454  154.2163 C   0  0  0  0  0  0  0  0  0  0  0  0
  147.9335  141.9947  154.7710 N   0  0  0  0  0  0  0  0  0  0  0  0
  147.3859  141.5509  156.0579 C   0  0  0  0  0  0  0  0  0  0  0  0
  146.4041  142.5671  156.6664 C   0  0  0  0  0  0  0  0  0  0  0  0
  145.2605  142.8619  155.6833 C   0  0  0  0  0  0  0  0  0  0  0  0
  144.4339  143.8862  156.1949 O   0  0  0  0  0  0  0  0  0  0  0  0
  145.8382  143.2818  154.3226 C   0  0  0  0  0  0  0  0  0  0  0  0
  146.8424  142.2291  153.8233 C   0  0  0  0  0  0  0  0  0  0  0  0
  151.5684  142.1746  158.2568 C   0  0  0  0  0  0  0  0  0  0  0  0
  151.5210  143.5661  158.4501 C   0  0  0  0  0  0  0  0  0  0  0  0
  151.9263  144.1112  159.6863 C   0  0  0  0  0  0  0  0  0  0  0  0
  151.8716  145.6156  159.8841 C   0  0  0  0  0  0  0  0  0  0  0  0
  153.0340  143.0163  162.7746 H   0  0  0  0  0  0  0  0  0  0  0  0
  152.0225  144.4311  162.4968 H   0  0  0  0  0  0  0  0  0  0  0  0
  153.7062  144.4228  161.9492 H   0  0  0  0  0  0  0  0  0  0  0  0
  152.7658  141.2011  161.3005 H   0  0  0  0  0  0  0  0  0  0  0  0
  151.3480  139.2334  156.9981 H   0  0  0  0  0  0  0  0  0  0  0  0
  150.0284  142.5667  156.0553 H   0  0  0  0  0  0  0  0  0  0  0  0
  151.5337  142.1229  155.2838 H   0  0  0  0  0  0  0  0  0  0  0  0
  149.5836  139.8887  155.9266 H   0  0  0  0  0  0  0  0  0  0  0  0
  151.1335  139.0286  154.9096 H   0  0  0  0  0  0  0  0  0  0  0  0
  149.3913  141.5012  153.3548 H   0  0  0  0  0  0  0  0  0  0  0  0
  148.3659  140.1774  153.8276 H   0  0  0  0  0  0  0  0  0  0  0  0
  146.8861  140.5887  155.9361 H   0  0  0  0  0  0  0  0  0  0  0  0
  148.1882  141.3937  156.7770 H   0  0  0  0  0  0  0  0  0  0  0  0
  146.0055  142.1844  157.6065 H   0  0  0  0  0  0  0  0  0  0  0  0
  146.9398  143.4871  156.9056 H   0  0  0  0  0  0  0  0  0  0  0  0
  144.6518  141.9655  155.5569 H   0  0  0  0  0  0  0  0  0  0  0  0
  143.7557  144.0684  155.5624 H   0  0  0  0  0  0  0  0  0  0  0  0
  145.0365  143.4090  153.5939 H   0  0  0  0  0  0  0  0  0  0  0  0
  146.3395  144.2471  154.4094 H   0  0  0  0  0  0  0  0  0  0  0  0
  147.2516  142.5630  152.8689 H   0  0  0  0  0  0  0  0  0  0  0  0
  146.3185  141.2929  153.6230 H   0  0  0  0  0  0  0  0  0  0  0  0
  151.1743  144.2072  157.6528 H   0  0  0  0  0  0  0  0  0  0  0  0
  151.5941  146.1278  158.9624 H   0  0  0  0  0  0  0  0  0  0  0  0
  152.8437  145.9975  160.1972 H   0  0  0  0  0  0  0  0  0  0  0  0
  151.1355  145.8725  160.6462 H   0  0  0  0  0  0  0  0  0  0  0  0
  1  2  1  0  0  0  0
  1 23  1  0  0  0  0
  1 24  1  0  0  0  0
  1 25  1  0  0  0  0
  2 21  1  0  0  0  0
  2  3  2  0  0  0  0
  3  4  1  0  0  0  0
  3 26  1  0  0  0  0
  4 19  2  0  0  0  0
  4  5  1  0  0  0  0
  5  6  2  0  0  0  0
  6  7  1  0  0  0  0
  6 27  1  0  0  0  0
  7  8  1  0  0  0  0
  7 19  1  0  0  0  0
  8  9  1  0  0  0  0
  8 28  1  0  0  0  0
  8 29  1  0  0  0  0
  9 10  1  0  0  0  0
  9 11  1  0  0  0  0
  9 30  1  0  0  0  0
 10 31  1  0  0  0  0
 11 12  1  0  0  0  0
 11 32  1  0  0  0  0
 11 33  1  0  0  0  0
 12 18  1  0  0  0  0
 12 13  1  0  0  0  0
 13 14  1  0  0  0  0
 13 34  1  0  0  0  0
 13 35  1  0  0  0  0
 14 15  1  0  0  0  0
 14 36  1  0  0  0  0
 14 37  1  0  0  0  0
 15 16  1  0  0  0  0
 15 17  1  0  0  0  0
 15 38  1  0  0  0  0
 16 39  1  0  0  0  0
 17 18  1  0  0  0  0
 17 40  1  0  0  0  0
 17 41  1  0  0  0  0
 18 42  1  0  0  0  0
 18 43  1  0  0  0  0
 19 20  1  0  0  0  0
 20 21  2  0  0  0  0
 20 44  1  0  0  0  0
 21 22  1  0  0  0  0
 22 45  1  0  0  0  0
 22 46  1  0  0  0  0
 22 47  1  0  0  0  0
M  END
> <s_m_source_file>
AV-unprocessed.smi

> <i_m_source_file_index>
1626

> <i_lp_mmshare_version>
43012

> <i_f3d_flags>
0

> <s_epik_input>
W0NIM11jKFtjSF0xKWMoW0NIM10pW2NIXWMoYzEyKW4oW2NIXW4yKVtDSDJdW0NASF0oW09IXSlbQ0gyXU4zW0NIMl1bQ0gyXVtDSF0oW09IXSlbQ0gyXVtDSDJdMw==

> <s_epik_cmdline>
J2VwaWtfcHl0aG9uJywgJy1waCcsICc3LjAnLCAnLXRuJywgJzgnLCAnLW1hJywgJzIwMCcsICctbWV0YWxfYmluZGluZycsICctaW1hZScsICc8aW5maWxlLm1hZT4nLCAnLW9tYWUnLCAnPG91dGZpbGUubWFlPic=

> <r_epik_Ionization_Penalty>
2.14395

> <r_epik_Ionization_Penalty_Charging>
0

> <r_epik_Ionization_Penalty_Neutral>
2.14395

> <r_epik_State_Penalty>
2.24477

> <r_epik_Charging_Adjusted_Penalty>
2.24477

> <i_epik_Tot_Q>
0

> <i_epik_Tot_abs_Q>
0

> <r_epik_Metal_State_Penalty>
2.17429

> <b_epik_Metal_Only>
0

> <s_lp_Force_Field>
OPLS_2005

> <r_lp_Energy>
28.7152

> <b_lp_Chiralities_Consistent>
1

> <s_lp_Variant>
AV-unprocessed.smi:1626-9

> <Gold.Version>
5.8.1

> <Gold.Id.Protein>
6NUR|6NUR_protein|mol2

> <Gold.PLP.Fitness>
51.5947

> <Gold.PLP.PLP>
-49.9173

> <Gold.PLP.part.hbond>
-1.0000

> <Gold.PLP.part.metal>
0.0000

> <Gold.PLP.part.buried>
-8.3577

> <Gold.PLP.part.nonpolar>
-40.3381

> <Gold.PLP.part.repulsive>
0.7233

> <Gold.PLP.ligand.clash>
0.0000

> <Gold.PLP.ligand.torsion>
0.7087

> <Gold.PLP.Chemscore.Hbond>
1.0000

> <Gold.PLP.Chemscore.CHOScore>
0.0000

> <Gold.PLP.Chemscore.Metal>
0.0000

> <Gold.Chemscore.Hbonds>
donor molecule, donor type, donor heavy atom, donor atom, acceptor molecule, acceptor atom, score
      P1  H  7989  7998       L1    10  1.00

> <Gold.PLP.Chemscore.Internal.Correction>
0.0947

> <Gold.Rescore>
     Score         DG    S(hbond)    S(metal)    S(lipo)     H(rot)  DE(clash)    DE(int)     intcor
     15.36     -16.22       0.78        0.00     126.43       2.59       0.13       0.74       ----

> <Gold.Chemscore.Fitness>
15.3564

> <Gold.Chemscore.DG>
-16.2204

> <Gold.Chemscore.ZeroCoef>
-5.4800

> <Gold.Chemscore.Hbond>
0.7755

> <Gold.Chemscore.Metal>
0.0000

> <Gold.Chemscore.Lipo>
126.4338

> <Gold.Chemscore.Internal_Hbond>
0.0000

> <Gold.Chemscore.DEClash>
0.1252

> <Gold.Chemscore.DEInternal>
0.7388

> <Gold.Chemscore.Rot>
2.5947

> <Gold.Chemscore.Internal.Correction>
   9.000000E+99

> <Gold.Chemscore.Hbonds>
donor molecule, donor type, donor heavy atom, donor atom, acceptor molecule, acceptor atom, score
      P1  H  7989  7998       L1    10  0.53

> <Gold.Chemscore.Hbond.Weighted>
-2.5901

> <Gold.Chemscore.Metal.Weighted>
-0.0000

> <Gold.Chemscore.Lipo.Weighted>
-14.7928

> <Gold.Chemscore.Internal_Hbond.Weighted>
0.0000

> <Gold.Chemscore.DEClash.Weighted>
0.1252

> <Gold.Chemscore.DEInternal.Weighted>
0.7388

> <Gold.Chemscore.Rot.Weighted>
6.6424

> <Gold.Chemscore.Internal.Correction.Weighted>
   9.000000E+99

> <Gold.Protein.RotatedTorsions>
[ 6907 6896 6895 6894 ] final  -65.92 input  -60.11 | X-H torsion
[ 7974 7965 7964 7962 ] final -128.11 input  175.53 | X-H torsion
[ 8008 7997 7996 7995 ] final  -80.95 input   59.86 | X-H torsion
[ 10167 10162 10161 10158 ] final -104.24 input  -65.29 | X-H torsion
[ 10718 10713 10712 10709 ] final   47.27 input   66.30 | X-H torsion
[ 10763 10752 10751 10750 ] final -166.13 input  -60.55 | X-H torsion
[ 11005 11000 10999 10996 ] final   50.47 input  -57.11 | X-H torsion

> <Gold.Protein.ActiveResidues>
 VAL166  LYS551  ARG553  GLY616  TRP617  ASP618  TYR619  PRO620  LYS621  CYS622 
 ASP623  PHE694  ASN695  SER759  ASP760  ASP761  ALA762  ILE779  LEU786  VAL792 
 PHE793  MET794  SER795  GLU796  ALA797  LYS798  CYS799  TRP800  GLU811  SER814 

> <Gold.Protein.RotatedAtoms>
  150.7495  134.6093  159.6077 H   0  0  0  0  0  0  0  0  0  0  0  0  # atno 6907 bound_to 6896
  152.3432  134.7104  160.0267 H   0  0  0  0  0  0  0  0  0  0  0  0  # atno 6908 bound_to 6896
  151.7549  133.3294  159.3438 H   0  0  0  0  0  0  0  0  0  0  0  0  # atno 6909 bound_to 6896
  144.9703  140.7539  143.4674 H   0  0  0  0  0  0  0  0  0  0  0  0  # atno 7974 bound_to 7965
  154.5934  140.0655  156.9270 H   0  0  0  0  0  0  0  0  0  0  0  0  # atno 8008 bound_to 7997
  155.2256  140.3333  155.4291 H   0  0  0  0  0  0  0  0  0  0  0  0  # atno 8009 bound_to 7997
  156.2271  140.1824  156.7320 H   0  0  0  0  0  0  0  0  0  0  0  0  # atno 8010 bound_to 7997
  140.2113  143.3744  152.1048 H   0  0  0  0  0  0  0  0  0  0  0  0  # atno 10167 bound_to 10162
  157.4567  130.8171  149.7844 H   0  0  0  0  0  0  0  0  0  0  0  0  # atno 10718 bound_to 10713
  154.6863  135.2963  154.9542 H   0  0  0  0  0  0  0  0  0  0  0  0  # atno 10763 bound_to 10752
  154.0520  135.6643  153.4805 H   0  0  0  0  0  0  0  0  0  0  0  0  # atno 10764 bound_to 10752
  153.0581  135.5132  154.7932 H   0  0  0  0  0  0  0  0  0  0  0  0  # atno 10765 bound_to 10752
  140.1015  134.5075  155.8758 H   0  0  0  0  0  0  0  0  0  0  0  0  # atno 11005 bound_to 11000
  145.2568  139.2008  143.4913 LP  0  0  0  0  0  0  0  0  0  0  0  0  # atno 17320 bound_to 7965
  146.3380  140.2491  142.8598 LP  0  0  0  0  0  0  0  0  0  0  0  0  # atno 17321 bound_to 7965
  139.5179  144.6998  151.5527 LP  0  0  0  0  0  0  0  0  0  0  0  0  # atno 17342 bound_to 10162
  140.6321  143.9056  150.6615 LP  0  0  0  0  0  0  0  0  0  0  0  0  # atno 17343 bound_to 10162
  156.0010  130.3880  150.2604 LP  0  0  0  0  0  0  0  0  0  0  0  0  # atno 17370 bound_to 10713
  157.0779  131.0135  151.3167 LP  0  0  0  0  0  0  0  0  0  0  0  0  # atno 17371 bound_to 10713
  141.2107  133.6697  156.6527 LP  0  0  0  0  0  0  0  0  0  0  0  0  # atno 17394 bound_to 11000
  140.3214  134.8005  157.4255 LP  0  0  0  0  0  0  0  0  0  0  0  0  # atno 17395 bound_to 11000

$$$$
