AV-unprocessed.smi:148|AV-procd|sdf|1225|dock5
  -GOLD-   2262018423D 1   1.00000     0.00000
 Structure written by MMmdl.
 63 67  0  0  0  0  0  0  0  0  1 V2000
  150.3275  142.0957  155.7200 O   0  0  0  0  0  0  0  0  0  0  0  0
  149.7585  141.6985  156.9516 C   0  0  0  0  0  0  0  0  0  0  0  0
  150.8378  141.2316  157.9558 C   0  0  1  0  0  0  0  0  0  0  0  0
  151.3262  139.8142  157.5550 C   0  0  0  0  0  0  0  0  0  0  0  0
  150.7244  138.7297  158.3093 N   0  0  0  0  0  0  0  0  0  0  0  0
  151.3617  137.8952  159.2010 C   0  0  0  0  0  0  0  0  0  0  0  0
  150.6027  136.9914  159.7586 N   0  0  0  0  0  0  0  0  0  0  0  0
  149.3541  137.2075  159.1907 C   0  0  0  0  0  0  0  0  0  0  0  0
  148.0852  136.5894  159.3359 C   0  0  0  0  0  0  0  0  0  0  0  0
  147.8865  135.5607  160.1884 N   0  0  0  0  0  0  0  0  0  0  0  0
  147.1076  136.0137  161.3432 C   0  0  0  0  0  0  0  0  0  0  0  0
  147.1164  134.9725  162.4661 C   0  0  0  0  0  0  0  0  0  0  0  0
  146.6045  133.6338  161.9334 C   0  0  0  0  0  0  0  0  0  0  0  0
  147.4438  133.1985  160.7253 C   0  0  0  0  0  0  0  0  0  0  0  0
  147.4793  134.2680  159.5994 C   0  0  2  0  0  0  0  0  0  0  0  0
  148.4011  133.7897  158.4227 C   0  0  1  0  0  0  0  0  0  0  0  0
  148.1515  132.3488  157.9373 C   0  0  0  0  0  0  0  0  0  0  0  0
  148.8067  132.2356  156.5562 C   0  0  0  0  0  0  0  0  0  0  0  0
  149.0251  133.6718  156.0680 C   0  0  0  0  0  0  0  0  0  0  0  0
  148.3390  134.5790  157.0946 C   0  0  1  0  0  0  0  0  0  0  0  0
  147.0008  134.7955  156.6874 O   0  0  0  0  0  0  0  0  0  0  0  0
  147.0515  137.0700  158.5952 N   0  0  0  0  0  0  0  0  0  0  0  0
  147.2538  138.0881  157.7532 C   0  0  0  0  0  0  0  0  0  0  0  0
  148.3815  138.7616  157.5121 N   0  0  0  0  0  0  0  0  0  0  0  0
  149.4149  138.2846  158.2642 C   0  0  0  0  0  0  0  0  0  0  0  0
  151.9747  142.2799  158.1441 C   0  0  1  0  0  0  0  0  0  0  0  0
  151.5021  143.7242  158.2089 C   0  0  0  0  0  0  0  0  0  0  0  0
  152.6981  144.4291  158.8314 C   0  0  0  0  0  0  0  0  0  0  0  0
  153.2012  143.5063  159.7852 O   0  0  0  0  0  0  0  0  0  0  0  0
  152.7581  142.1908  159.4646 C   0  0  0  0  0  0  0  0  0  0  0  0
  149.9682  142.9363  155.4796 H   0  0  0  0  0  0  0  0  0  0  0  0
  149.1773  142.5275  157.3549 H   0  0  0  0  0  0  0  0  0  0  0  0
  149.0458  140.8954  156.7612 H   0  0  0  0  0  0  0  0  0  0  0  0
  150.3255  141.1404  158.9141 H   0  0  0  0  0  0  0  0  0  0  0  0
  151.1128  139.6317  156.5011 H   0  0  0  0  0  0  0  0  0  0  0  0
  152.4095  139.7466  157.6625 H   0  0  0  0  0  0  0  0  0  0  0  0
  152.4115  137.9881  159.4383 H   0  0  0  0  0  0  0  0  0  0  0  0
  147.5110  136.9553  161.7200 H   0  0  0  0  0  0  0  0  0  0  0  0
  146.0789  136.2091  161.0356 H   0  0  0  0  0  0  0  0  0  0  0  0
  148.1287  134.8566  162.8555 H   0  0  0  0  0  0  0  0  0  0  0  0
  146.4969  135.3104  163.2970 H   0  0  0  0  0  0  0  0  0  0  0  0
  146.6478  132.8755  162.7156 H   0  0  0  0  0  0  0  0  0  0  0  0
  145.5575  133.7261  161.6418 H   0  0  0  0  0  0  0  0  0  0  0  0
  148.4610  132.9827  161.0556 H   0  0  0  0  0  0  0  0  0  0  0  0
  147.0319  132.2593  160.3574 H   0  0  0  0  0  0  0  0  0  0  0  0
  146.4596  134.3799  159.2291 H   0  0  0  0  0  0  0  0  0  0  0  0
  149.4332  133.8216  158.7773 H   0  0  0  0  0  0  0  0  0  0  0  0
  148.5447  131.6012  158.6271 H   0  0  0  0  0  0  0  0  0  0  0  0
  147.0796  132.1713  157.8377 H   0  0  0  0  0  0  0  0  0  0  0  0
  149.7615  131.7125  156.6223 H   0  0  0  0  0  0  0  0  0  0  0  0
  148.1722  131.6719  155.8715 H   0  0  0  0  0  0  0  0  0  0  0  0
  150.0950  133.8847  156.0596 H   0  0  0  0  0  0  0  0  0  0  0  0
  148.6606  133.8299  155.0520 H   0  0  0  0  0  0  0  0  0  0  0  0
  148.8508  135.5381  157.1374 H   0  0  0  0  0  0  0  0  0  0  0  0
  146.9460  134.6545  155.7546 H   0  0  0  0  0  0  0  0  0  0  0  0
  146.3886  138.4086  157.1924 H   0  0  0  0  0  0  0  0  0  0  0  0
  152.6813  142.1955  157.3168 H   0  0  0  0  0  0  0  0  0  0  0  0
  151.2418  144.1373  157.2341 H   0  0  0  0  0  0  0  0  0  0  0  0
  150.6341  143.8144  158.8638 H   0  0  0  0  0  0  0  0  0  0  0  0
  153.4660  144.6147  158.0792 H   0  0  0  0  0  0  0  0  0  0  0  0
  152.4339  145.3803  159.2937 H   0  0  0  0  0  0  0  0  0  0  0  0
  152.1215  141.8437  160.2791 H   0  0  0  0  0  0  0  0  0  0  0  0
  153.6132  141.5201  159.3941 H   0  0  0  0  0  0  0  0  0  0  0  0
  1  2  1  0  0  0  0
  1 31  1  0  0  0  0
  2  3  1  0  0  0  0
  2 32  1  0  0  0  0
  2 33  1  0  0  0  0
  3  4  1  0  0  0  0
  3 26  1  0  0  0  0
  3 34  1  0  0  0  0
  4  5  1  0  0  0  0
  4 35  1  0  0  0  0
  4 36  1  0  0  0  0
  5 25  1  0  0  0  0
  5  6  1  0  0  0  0
  6  7  2  0  0  0  0
  6 37  1  0  0  0  0
  7  8  1  0  0  0  0
  8 25  2  0  0  0  0
  8  9  1  0  0  0  0
  9 10  1  0  0  0  0
  9 22  2  0  0  0  0
 10 15  1  0  0  0  0
 10 11  1  0  0  0  0
 11 12  1  0  0  0  0
 11 38  1  0  0  0  0
 11 39  1  0  0  0  0
 12 13  1  0  0  0  0
 12 40  1  0  0  0  0
 12 41  1  0  0  0  0
 13 14  1  0  0  0  0
 13 42  1  0  0  0  0
 13 43  1  0  0  0  0
 14 15  1  0  0  0  0
 14 44  1  0  0  0  0
 14 45  1  0  0  0  0
 15 16  1  0  0  0  0
 15 46  1  0  0  0  0
 16 20  1  0  0  0  0
 16 17  1  0  0  0  0
 16 47  1  0  0  0  0
 17 18  1  0  0  0  0
 17 48  1  0  0  0  0
 17 49  1  0  0  0  0
 18 19  1  0  0  0  0
 18 50  1  0  0  0  0
 18 51  1  0  0  0  0
 19 20  1  0  0  0  0
 19 52  1  0  0  0  0
 19 53  1  0  0  0  0
 20 21  1  0  0  0  0
 20 54  1  0  0  0  0
 21 55  1  0  0  0  0
 22 23  1  0  0  0  0
 23 24  2  0  0  0  0
 23 56  1  0  0  0  0
 24 25  1  0  0  0  0
 26 30  1  0  0  0  0
 26 27  1  0  0  0  0
 26 57  1  0  0  0  0
 27 28  1  0  0  0  0
 27 58  1  0  0  0  0
 27 59  1  0  0  0  0
 28 29  1  0  0  0  0
 28 60  1  0  0  0  0
 28 61  1  0  0  0  0
 29 30  1  0  0  0  0
 30 62  1  0  0  0  0
 30 63  1  0  0  0  0
M  END
> <s_m_source_file>
AV-unprocessed.smi

> <i_m_source_file_index>
148

> <i_lp_mmshare_version>
43012

> <i_f3d_flags>
0

> <s_epik_input>
W0NIMl0xT1tDSDJdW0NIMl1bQ0BIXTFbQ0BIXShbQ0gyXVtPSF0pW0NIMl1uKFtjSF1uMiljKGMyMyluW2NIXW5jM040W0NIMl1bQ0gyXVtDSDJdW0NIMl1bQ0BIXTRbQ0BASF01W0NIMl1bQ0gyXVtDSDJdW0NASF01W09IXQ==

> <s_epik_cmdline>
J2VwaWtfcHl0aG9uJywgJy1waCcsICc3LjAnLCAnLXRuJywgJzgnLCAnLW1hJywgJzIwMCcsICctbWV0YWxfYmluZGluZycsICctaW1hZScsICc8aW5maWxlLm1hZT4nLCAnLW9tYWUnLCAnPG91dGZpbGUubWFlPic=

> <r_lp_tautomer_probability>
1

> <r_epik_Ionization_Penalty>
0.00556303

> <r_epik_Ionization_Penalty_Charging>
0

> <r_epik_Ionization_Penalty_Neutral>
0.00556303

> <r_epik_State_Penalty>
0.00401767

> <r_epik_Charging_Adjusted_Penalty>
0.00401767

> <i_epik_Tot_Q>
0

> <i_epik_Tot_abs_Q>
0

> <r_epik_Metal_State_Penalty>
-0

> <b_epik_Metal_Only>
0

> <s_lp_Force_Field>
OPLS_2005

> <r_lp_Energy>
70.5137

> <b_lp_Chiralities_Consistent>
1

> <s_lp_Variant>
AV-unprocessed.smi:148-24

> <Gold.Version>
5.8.1

> <Gold.Id.Protein>
6NUR|6NUR_protein|mol2

> <Gold.PLP.Fitness>
50.0987

> <Gold.PLP.PLP>
-46.3835

> <Gold.PLP.part.hbond>
-2.1978

> <Gold.PLP.part.metal>
0.0000

> <Gold.PLP.part.buried>
-6.9636

> <Gold.PLP.part.nonpolar>
-37.8779

> <Gold.PLP.part.repulsive>
0.0000

> <Gold.PLP.ligand.clash>
0.0000

> <Gold.PLP.ligand.torsion>
1.3391

> <Gold.PLP.Chemscore.Hbond>
1.9425

> <Gold.PLP.Chemscore.CHOScore>
0.0000

> <Gold.PLP.Chemscore.Metal>
0.0000

> <Gold.Chemscore.Hbonds>
donor molecule, donor type, donor heavy atom, donor atom, acceptor molecule, acceptor atom, score
      L1  H     1    31       P1  8028  0.84
      P1  H  6896  6908       L1     7  1.00

> <Gold.PLP.Chemscore.Internal.Correction>
0.5659

> <Gold.Rescore>
     Score         DG    S(hbond)    S(metal)    S(lipo)     H(rot)  DE(clash)    DE(int)     intcor
     15.40     -16.99       1.93        0.00     116.01       3.32       0.16       1.43       ----

> <Gold.Chemscore.Fitness>
15.4026

> <Gold.Chemscore.DG>
-16.9872

> <Gold.Chemscore.ZeroCoef>
-5.4800

> <Gold.Chemscore.Hbond>
1.9265

> <Gold.Chemscore.Metal>
0.0000

> <Gold.Chemscore.Lipo>
116.0063

> <Gold.Chemscore.Internal_Hbond>
0.0000

> <Gold.Chemscore.DEClash>
0.1588

> <Gold.Chemscore.DEInternal>
1.4259

> <Gold.Chemscore.Rot>
3.3203

> <Gold.Chemscore.Internal.Correction>
   9.000000E+99

> <Gold.Chemscore.Hbonds>
donor molecule, donor type, donor heavy atom, donor atom, acceptor molecule, acceptor atom, score
      L1  H     1    31       P1  8028  0.83
      P1  H  6896  6908       L1     7  0.88

> <Gold.Chemscore.Hbond.Weighted>
-6.4345

> <Gold.Chemscore.Metal.Weighted>
-0.0000

> <Gold.Chemscore.Lipo.Weighted>
-13.5727

> <Gold.Chemscore.Internal_Hbond.Weighted>
0.0000

> <Gold.Chemscore.DEClash.Weighted>
0.1588

> <Gold.Chemscore.DEInternal.Weighted>
1.4259

> <Gold.Chemscore.Rot.Weighted>
8.5000

> <Gold.Chemscore.Internal.Correction.Weighted>
   9.000000E+99

> <Gold.Protein.RotatedTorsions>
[ 6907 6896 6895 6894 ] final -145.71 input  -60.11 | X-H torsion
[ 7974 7965 7964 7962 ] final -154.99 input  175.53 | X-H torsion
[ 8008 7997 7996 7995 ] final  135.67 input   59.86 | X-H torsion
[ 10167 10162 10161 10158 ] final -147.78 input  -65.29 | X-H torsion
[ 10718 10713 10712 10709 ] final   71.90 input   66.30 | X-H torsion
[ 10763 10752 10751 10750 ] final -143.25 input  -60.55 | X-H torsion
[ 11005 11000 10999 10996 ] final   90.13 input  -57.11 | X-H torsion

> <Gold.Protein.ActiveResidues>
 VAL166  LYS551  ARG553  GLY616  TRP617  ASP618  TYR619  PRO620  LYS621  CYS622 
 ASP623  PHE694  ASN695  SER759  ASP760  ASP761  ALA762  ILE779  LEU786  VAL792 
 PHE793  MET794  SER795  GLU796  ALA797  LYS798  CYS799  TRP800  GLU811  SER814 

> <Gold.Protein.RotatedAtoms>
  151.1315  133.5034  159.2598 H   0  0  0  0  0  0  0  0  0  0  0  0  # atno 6907 bound_to 6896
  151.1753  135.0336  159.8779 H   0  0  0  0  0  0  0  0  0  0  0  0  # atno 6908 bound_to 6896
  152.5460  134.1173  159.8437 H   0  0  0  0  0  0  0  0  0  0  0  0  # atno 6909 bound_to 6896
  144.7662  140.4312  143.5940 H   0  0  0  0  0  0  0  0  0  0  0  0  # atno 7974 bound_to 7965
  156.3003  140.2465  156.3619 H   0  0  0  0  0  0  0  0  0  0  0  0  # atno 8008 bound_to 7997
  154.8869  140.0410  157.1835 H   0  0  0  0  0  0  0  0  0  0  0  0  # atno 8009 bound_to 7997
  154.8637  140.2924  155.5527 H   0  0  0  0  0  0  0  0  0  0  0  0  # atno 8010 bound_to 7997
  139.7590  143.8404  152.2603 H   0  0  0  0  0  0  0  0  0  0  0  0  # atno 10167 bound_to 10162
  157.6475  130.9552  150.0854 H   0  0  0  0  0  0  0  0  0  0  0  0  # atno 10718 bound_to 10713
  154.8477  135.3473  154.6157 H   0  0  0  0  0  0  0  0  0  0  0  0  # atno 10763 bound_to 10752
  153.6766  135.6982  153.5135 H   0  0  0  0  0  0  0  0  0  0  0  0  # atno 10764 bound_to 10752
  153.2701  135.4295  155.0935 H   0  0  0  0  0  0  0  0  0  0  0  0  # atno 10765 bound_to 10752
  139.8862  134.8595  156.3241 H   0  0  0  0  0  0  0  0  0  0  0  0  # atno 11005 bound_to 11000
  145.6463  139.1558  143.2887 LP  0  0  0  0  0  0  0  0  0  0  0  0  # atno 17320 bound_to 7965
  146.1771  140.6555  142.9206 LP  0  0  0  0  0  0  0  0  0  0  0  0  # atno 17321 bound_to 7965
  139.8405  144.7212  150.9337 LP  0  0  0  0  0  0  0  0  0  0  0  0  # atno 17342 bound_to 10162
  140.7805  143.3988  151.1185 LP  0  0  0  0  0  0  0  0  0  0  0  0  # atno 17343 bound_to 10162
  156.1818  130.3650  149.9025 LP  0  0  0  0  0  0  0  0  0  0  0  0  # atno 17370 bound_to 10713
  156.6975  130.8920  151.3595 LP  0  0  0  0  0  0  0  0  0  0  0  0  # atno 17371 bound_to 10713
  140.9767  133.7293  156.0612 LP  0  0  0  0  0  0  0  0  0  0  0  0  # atno 17394 bound_to 11000
  140.7802  134.3734  157.5489 LP  0  0  0  0  0  0  0  0  0  0  0  0  # atno 17395 bound_to 11000

$$$$
