AV-unprocessed.smi:1353|AV-procd|sdf|5532|dock9
  -GOLD-   22720 5123D 1   1.00000     0.00000
 Structure written by MMmdl.
 39 41  0  0  0  0  0  0  0  0  1 V2000
  153.7683  139.3203  154.5744 O   0  0  0  0  0  0  0  0  0  0  0  0
  153.1099  138.3636  155.3772 C   0  0  0  0  0  0  0  0  0  0  0  0
  152.0663  139.0281  156.2919 C   0  0  0  0  0  0  0  0  0  0  0  0
  150.8308  139.4760  155.5622 C   0  0  0  0  0  0  0  0  0  0  0  0
  150.0936  138.6138  154.8598 N   0  0  0  0  0  0  0  0  0  0  0  0
  149.0859  139.4104  154.3549 C   0  0  0  0  0  0  0  0  0  0  0  0
  147.9950  139.0888  153.5158 C   0  0  0  0  0  0  0  0  0  0  0  0
  147.0793  140.0861  153.1217 C   0  0  0  0  0  0  0  0  0  0  0  0
  147.2407  141.4160  153.5608 C   0  0  0  0  0  0  0  0  0  0  0  0
  148.3191  141.7567  154.3995 C   0  0  0  0  0  0  0  0  0  0  0  0
  149.2310  140.7572  154.7906 C   0  0  0  0  0  0  0  0  0  0  0  0
  150.3702  140.7546  155.5914 N   0  0  0  0  0  0  0  0  0  0  0  0
  150.9156  141.9091  156.2944 C   0  0  0  0  0  0  0  0  0  0  0  0
  150.7836  141.7864  157.8184 C   0  0  0  0  0  0  0  0  0  0  0  0
  152.0560  141.4885  158.3786 O   0  0  0  0  0  0  0  0  0  0  0  0
  152.3222  141.9140  159.6615 C   0  0  0  0  0  0  0  0  0  0  0  0
  151.6772  143.0926  160.0897 C   0  0  0  0  0  0  0  0  0  0  0  0
  151.8914  143.6016  161.3851 C   0  0  0  0  0  0  0  0  0  0  0  0
  152.7572  142.9322  162.2694 C   0  0  0  0  0  0  0  0  0  0  0  0
  153.4059  141.7538  161.8558 C   0  0  0  0  0  0  0  0  0  0  0  0
  153.1915  141.2447  160.5600 C   0  0  0  0  0  0  0  0  0  0  0  0
  153.8128  138.9914  153.6895 H   0  0  0  0  0  0  0  0  0  0  0  0
  152.6538  137.6008  154.7454 H   0  0  0  0  0  0  0  0  0  0  0  0
  153.8646  137.8637  155.9847 H   0  0  0  0  0  0  0  0  0  0  0  0
  151.7543  138.3100  157.0509 H   0  0  0  0  0  0  0  0  0  0  0  0
  152.5262  139.8514  156.8356 H   0  0  0  0  0  0  0  0  0  0  0  0
  147.8639  138.0730  153.1734 H   0  0  0  0  0  0  0  0  0  0  0  0
  146.2500  139.8298  152.4789 H   0  0  0  0  0  0  0  0  0  0  0  0
  146.5361  142.1748  153.2533 H   0  0  0  0  0  0  0  0  0  0  0  0
  148.4452  142.7753  154.7347 H   0  0  0  0  0  0  0  0  0  0  0  0
  151.9687  142.0068  156.0301 H   0  0  0  0  0  0  0  0  0  0  0  0
  150.4356  142.8177  155.9319 H   0  0  0  0  0  0  0  0  0  0  0  0
  150.4010  142.7218  158.2289 H   0  0  0  0  0  0  0  0  0  0  0  0
  150.0671  141.0022  158.0594 H   0  0  0  0  0  0  0  0  0  0  0  0
  151.0122  143.6132  159.4162 H   0  0  0  0  0  0  0  0  0  0  0  0
  151.3918  144.5060  161.6993 H   0  0  0  0  0  0  0  0  0  0  0  0
  152.9230  143.3215  163.2631 H   0  0  0  0  0  0  0  0  0  0  0  0
  154.0701  141.2384  162.5338 H   0  0  0  0  0  0  0  0  0  0  0  0
  153.7052  140.3380  160.2797 H   0  0  0  0  0  0  0  0  0  0  0  0
  1  2  1  0  0  0  0
  1 22  1  0  0  0  0
  2  3  1  0  0  0  0
  2 23  1  0  0  0  0
  2 24  1  0  0  0  0
  3  4  1  0  0  0  0
  3 25  1  0  0  0  0
  3 26  1  0  0  0  0
  4 12  1  0  0  0  0
  4  5  2  0  0  0  0
  5  6  1  0  0  0  0
  6 11  2  0  0  0  0
  6  7  1  0  0  0  0
  7  8  2  0  0  0  0
  7 27  1  0  0  0  0
  8  9  1  0  0  0  0
  8 28  1  0  0  0  0
  9 10  2  0  0  0  0
  9 29  1  0  0  0  0
 10 11  1  0  0  0  0
 10 30  1  0  0  0  0
 11 12  1  0  0  0  0
 12 13  1  0  0  0  0
 13 14  1  0  0  0  0
 13 31  1  0  0  0  0
 13 32  1  0  0  0  0
 14 15  1  0  0  0  0
 14 33  1  0  0  0  0
 14 34  1  0  0  0  0
 15 16  1  0  0  0  0
 16 21  1  0  0  0  0
 16 17  2  0  0  0  0
 17 18  1  0  0  0  0
 17 35  1  0  0  0  0
 18 19  2  0  0  0  0
 18 36  1  0  0  0  0
 19 20  1  0  0  0  0
 19 37  1  0  0  0  0
 20 21  2  0  0  0  0
 20 38  1  0  0  0  0
 21 39  1  0  0  0  0
M  END
> <s_m_source_file>
AV-unprocessed.smi

> <i_m_source_file_index>
1353

> <i_lp_mmshare_version>
43012

> <i_f3d_flags>
0

> <s_epik_input>
W2NIXTFbY0hdW2NIXVtjSF1jKGMxMiluKGMobjIpW0NIMl1bQ0gyXVtPSF0pW0NIMl1bQ0gyXU9jM1tjSF1bY0hdW2NIXVtjSF1bY0hdMw==

> <s_epik_cmdline>
J2VwaWtfcHl0aG9uJywgJy1waCcsICc3LjAnLCAnLXRuJywgJzgnLCAnLW1hJywgJzIwMCcsICctbWV0YWxfYmluZGluZycsICctaW1hZScsICc8aW5maWxlLm1hZT4nLCAnLW9tYWUnLCAnPG91dGZpbGUubWFlPic=

> <r_lp_tautomer_probability>
1

> <r_epik_Ionization_Penalty>
0.230562

> <r_epik_Ionization_Penalty_Charging>
0

> <r_epik_Ionization_Penalty_Neutral>
0.230562

> <r_epik_State_Penalty>
0.221203

> <r_epik_Charging_Adjusted_Penalty>
0.221203

> <i_epik_Tot_Q>
0

> <i_epik_Tot_abs_Q>
0

> <r_epik_Metal_State_Penalty>
0.000268091

> <b_epik_Metal_Only>
0

> <s_lp_Force_Field>
OPLS_2005

> <r_lp_Energy>
15.7907

> <b_lp_Chiralities_Consistent>
1

> <s_lp_Variant>
AV-unprocessed.smi:1353-1

> <Gold.Version>
5.8.1

> <Gold.Id.Protein>
6NUR|6NUR_protein|mol2

> <Gold.PLP.Fitness>
52.5321

> <Gold.PLP.PLP>
-51.4815

> <Gold.PLP.part.hbond>
-1.2367

> <Gold.PLP.part.metal>
0.0000

> <Gold.PLP.part.buried>
-3.6063

> <Gold.PLP.part.nonpolar>
-46.1945

> <Gold.PLP.part.repulsive>
0.1254

> <Gold.PLP.ligand.clash>
0.0000

> <Gold.PLP.ligand.torsion>
1.0016

> <Gold.PLP.Chemscore.Hbond>
1.0000

> <Gold.PLP.Chemscore.CHOScore>
0.0000

> <Gold.PLP.Chemscore.Metal>
0.0000

> <Gold.Chemscore.Hbonds>
donor molecule, donor type, donor heavy atom, donor atom, acceptor molecule, acceptor atom, score
      P1  H  7997  8009       L1     1  1.00

> <Gold.PLP.Chemscore.Internal.Correction>
0.0538

> <Gold.Rescore>
     Score         DG    S(hbond)    S(metal)    S(lipo)     H(rot)  DE(clash)    DE(int)     intcor
     17.69     -18.62       0.95        0.00     135.88       2.31       0.02       0.91       ----

> <Gold.Chemscore.Fitness>
17.6903

> <Gold.Chemscore.DG>
-18.6219

> <Gold.Chemscore.ZeroCoef>
-5.4800

> <Gold.Chemscore.Hbond>
0.9451

> <Gold.Chemscore.Metal>
0.0000

> <Gold.Chemscore.Lipo>
135.8830

> <Gold.Chemscore.Internal_Hbond>
0.0000

> <Gold.Chemscore.DEClash>
0.0210

> <Gold.Chemscore.DEInternal>
0.9106

> <Gold.Chemscore.Rot>
2.3098

> <Gold.Chemscore.Internal.Correction>
   9.000000E+99

> <Gold.Chemscore.Hbonds>
donor molecule, donor type, donor heavy atom, donor atom, acceptor molecule, acceptor atom, score
      P1  H  7997  8009       L1     1  0.45

> <Gold.Chemscore.Hbond.Weighted>
-3.1567

> <Gold.Chemscore.Metal.Weighted>
-0.0000

> <Gold.Chemscore.Lipo.Weighted>
-15.8983

> <Gold.Chemscore.Internal_Hbond.Weighted>
0.0000

> <Gold.Chemscore.DEClash.Weighted>
0.0210

> <Gold.Chemscore.DEInternal.Weighted>
0.9106

> <Gold.Chemscore.Rot.Weighted>
5.9131

> <Gold.Chemscore.Internal.Correction.Weighted>
   9.000000E+99

> <Gold.Protein.RotatedTorsions>
[ 6907 6896 6895 6894 ] final -118.24 input  -60.11 | X-H torsion
[ 7974 7965 7964 7962 ] final -106.27 input  175.53 | X-H torsion
[ 8008 7997 7996 7995 ] final -118.60 input   59.86 | X-H torsion
[ 10167 10162 10161 10158 ] final  123.57 input  -65.29 | X-H torsion
[ 10718 10713 10712 10709 ] final -143.82 input   66.30 | X-H torsion
[ 10763 10752 10751 10750 ] final  168.41 input  -60.55 | X-H torsion
[ 11005 11000 10999 10996 ] final   41.20 input  -57.11 | X-H torsion

> <Gold.Protein.ActiveResidues>
 VAL166  LYS551  ARG553  GLY616  TRP617  ASP618  TYR619  PRO620  LYS621  CYS622 
 ASP623  PHE694  ASN695  SER759  ASP760  ASP761  ALA762  ILE779  LEU786  VAL792 
 PHE793  MET794  SER795  GLU796  ALA797  LYS798  CYS799  TRP800  GLU811  SER814 

> <Gold.Protein.RotatedAtoms>
  150.8203  133.8265  159.3141 H   0  0  0  0  0  0  0  0  0  0  0  0  # atno 6907 bound_to 6896
  151.6025  135.1044  160.0073 H   0  0  0  0  0  0  0  0  0  0  0  0  # atno 6908 bound_to 6896
  152.4292  133.7207  159.6588 H   0  0  0  0  0  0  0  0  0  0  0  0  # atno 6909 bound_to 6896
  145.2200  140.9130  143.3265 H   0  0  0  0  0  0  0  0  0  0  0  0  # atno 7974 bound_to 7965
  155.1023  140.0396  157.2700 H   0  0  0  0  0  0  0  0  0  0  0  0  # atno 8008 bound_to 7997
  154.6748  140.2620  155.6944 H   0  0  0  0  0  0  0  0  0  0  0  0  # atno 8009 bound_to 7997
  156.2672  140.2790  156.1271 H   0  0  0  0  0  0  0  0  0  0  0  0  # atno 8010 bound_to 7997
  139.5792  144.6978  151.3573 H   0  0  0  0  0  0  0  0  0  0  0  0  # atno 10167 bound_to 10162
  156.3625  130.7746  151.1915 H   0  0  0  0  0  0  0  0  0  0  0  0  # atno 10718 bound_to 10713
  154.3682  135.2753  155.2281 H   0  0  0  0  0  0  0  0  0  0  0  0  # atno 10763 bound_to 10752
  154.4440  135.5947  153.6151 H   0  0  0  0  0  0  0  0  0  0  0  0  # atno 10764 bound_to 10752
  152.9839  135.6025  154.3910 H   0  0  0  0  0  0  0  0  0  0  0  0  # atno 10765 bound_to 10752
  140.1858  134.4048  155.8174 H   0  0  0  0  0  0  0  0  0  0  0  0  # atno 11005 bound_to 11000
  144.9775  139.3817  143.6279 LP  0  0  0  0  0  0  0  0  0  0  0  0  # atno 17320 bound_to 7965
  146.3378  139.8900  142.8810 LP  0  0  0  0  0  0  0  0  0  0  0  0  # atno 17321 bound_to 7965
  140.7072  143.7484  150.7502 LP  0  0  0  0  0  0  0  0  0  0  0  0  # atno 17342 bound_to 10162
  140.1012  143.4786  152.2424 LP  0  0  0  0  0  0  0  0  0  0  0  0  # atno 17343 bound_to 10162
  157.7475  131.0396  150.4556 LP  0  0  0  0  0  0  0  0  0  0  0  0  # atno 17370 bound_to 10713
  156.4770  130.4065  149.6484 LP  0  0  0  0  0  0  0  0  0  0  0  0  # atno 17371 bound_to 10713
  141.2225  133.7022  156.8009 LP  0  0  0  0  0  0  0  0  0  0  0  0  # atno 17394 bound_to 11000
  140.2216  134.8753  157.3383 LP  0  0  0  0  0  0  0  0  0  0  0  0  # atno 17395 bound_to 11000

$$$$
