AV-unprocessed.smi:1965|AV-procd|sdf|7934|dock5
  -GOLD-   2272010103D 1   1.00000     0.00000
 Structure written by MMmdl.
 37 39  0  0  0  0  0  0  0  0  2 V2000
  145.6674  137.1868  154.6148 O   0  0  0  0  0  0  0  0  0  0  0  0
  146.6412  136.8774  153.9308 C   0  0  0  0  0  0  0  0  0  0  0  0
  147.5578  137.7994  153.5666 N   0  0  0  0  0  0  0  0  0  0  0  0
  147.6528  139.1968  153.8321 C   0  0  0  0  0  0  0  0  0  0  0  0
  146.6557  140.0807  153.6960 N   0  0  0  0  0  0  0  0  0  0  0  0
  147.0484  141.3776  154.0366 C   0  0  0  0  0  0  0  0  0  0  0  0
  148.3580  141.4660  154.4366 C   0  0  0  0  0  0  0  0  0  0  0  0
  149.1537  139.9157  154.3992 S   0  0  0  0  0  0  0  0  0  0  0  0
  146.8557  135.6226  153.5030 N   0  0  0  0  0  0  0  0  0  0  0  0
  145.9927  134.4756  153.7644 C   0  0  2  0  0  0  0  0  0  0  0  0
  146.6449  133.4372  154.6945 C   0  0  0  0  0  0  0  0  0  0  0  0
  146.2107  132.0646  154.1438 C   0  0  0  0  0  0  0  0  0  0  0  0
  145.2824  132.3636  153.0368 N   0  3  2  0  0  0  0  0  0  0  0  0
  145.1273  131.3303  151.9899 C   0  0  0  0  0  0  0  0  0  0  0  0
  144.0599  131.7901  150.9767 C   0  0  0  0  0  0  0  0  0  0  0  0
  144.3699  133.1933  150.4167 C   0  0  0  0  0  0  0  0  0  0  0  0
  144.6150  134.2048  151.5532 C   0  0  0  0  0  0  0  0  0  0  0  0
  145.7027  133.6660  152.4982 C   0  0  1  0  0  0  0  0  0  0  0  0
  148.3249  137.4299  153.0238 H   0  0  0  0  0  0  0  0  0  0  0  0
  146.3294  142.1804  153.9661 H   0  0  0  0  0  0  0  0  0  0  0  0
  148.9006  142.3456  154.7498 H   0  0  0  0  0  0  0  0  0  0  0  0
  147.6823  135.4554  152.9466 H   0  0  0  0  0  0  0  0  0  0  0  0
  145.0516  134.7971  154.2159 H   0  0  0  0  0  0  0  0  0  0  0  0
  147.7334  133.5132  154.6767 H   0  0  0  0  0  0  0  0  0  0  0  0
  146.3244  133.5806  155.7269 H   0  0  0  0  0  0  0  0  0  0  0  0
  147.0793  131.5210  153.7689 H   0  0  0  0  0  0  0  0  0  0  0  0
  145.7246  131.4472  154.8997 H   0  0  0  0  0  0  0  0  0  0  0  0
  146.0822  131.1610  151.4899 H   0  0  0  0  0  0  0  0  0  0  0  0
  144.8299  130.3863  152.4478 H   0  0  0  0  0  0  0  0  0  0  0  0
  143.9845  131.0708  150.1608 H   0  0  0  0  0  0  0  0  0  0  0  0
  143.0840  131.8060  151.4637 H   0  0  0  0  0  0  0  0  0  0  0  0
  145.2549  133.1418  149.7812 H   0  0  0  0  0  0  0  0  0  0  0  0
  143.5520  133.5337  149.7808 H   0  0  0  0  0  0  0  0  0  0  0  0
  144.9157  135.1655  151.1344 H   0  0  0  0  0  0  0  0  0  0  0  0
  143.6895  134.3782  152.1038 H   0  0  0  0  0  0  0  0  0  0  0  0
  146.6324  133.5278  151.9407 H   0  0  0  0  0  0  0  0  0  0  0  0
  144.3744  132.5085  153.4546 H   0  0  0  0  0  0  0  0  0  0  0  0
  1  2  2  0  0  0  0
  2  3  1  0  0  0  0
  2  9  1  0  0  0  0
  3  4  1  0  0  0  0
  3 19  1  0  0  0  0
  4  8  1  0  0  0  0
  4  5  2  0  0  0  0
  5  6  1  0  0  0  0
  6  7  2  0  0  0  0
  6 20  1  0  0  0  0
  7  8  1  0  0  0  0
  7 21  1  0  0  0  0
  9 10  1  0  0  0  0
  9 22  1  0  0  0  0
 10 18  1  0  0  0  0
 10 11  1  0  0  0  0
 10 23  1  0  0  0  0
 11 12  1  0  0  0  0
 11 24  1  0  0  0  0
 11 25  1  0  0  0  0
 12 13  1  0  0  0  0
 12 26  1  0  0  0  0
 12 27  1  0  0  0  0
 13 18  1  0  0  0  0
 13 14  1  0  0  0  0
 13 37  1  0  0  0  0
 14 15  1  0  0  0  0
 14 28  1  0  0  0  0
 14 29  1  0  0  0  0
 15 16  1  0  0  0  0
 15 30  1  0  0  0  0
 15 31  1  0  0  0  0
 16 17  1  0  0  0  0
 16 32  1  0  0  0  0
 16 33  1  0  0  0  0
 17 18  1  0  0  0  0
 17 34  1  0  0  0  0
 17 35  1  0  0  0  0
 18 36  1  0  0  0  0
M  CHG  1  13   1
M  END
> <s_m_source_file>
AV-unprocessed.smi

> <i_m_source_file_index>
1965

> <i_lp_mmshare_version>
43012

> <i_f3d_flags>
0

> <s_epik_input>
czFbY0hdW2NIXW5jMVtOSF1DKD1PKVtOSF1bQ0BIXShbQ0gyXVtDSDJdMilbQ0BASF0oTjIzKVtDSDJdW0NIMl1bQ0gyXVtDSDJdMw==

> <s_epik_cmdline>
J2VwaWtfcHl0aG9uJywgJy1waCcsICc3LjAnLCAnLXRuJywgJzgnLCAnLW1hJywgJzIwMCcsICctbWV0YWxfYmluZGluZycsICctaW1hZScsICc8aW5maWxlLm1hZT4nLCAnLW9tYWUnLCAnPG91dGZpbGUubWFlPic=

> <r_lp_tautomer_probability>
1

> <r_epik_Ionization_Penalty>
0.00125962

> <r_epik_Ionization_Penalty_Charging>
0.00107044

> <r_epik_Ionization_Penalty_Neutral>
0.000189176

> <r_epik_State_Penalty>
-0

> <r_epik_Charging_Adjusted_Penalty>
0.00107044

> <i_epik_Tot_Q>
1

> <i_epik_Tot_abs_Q>
1

> <r_epik_Metal_State_Penalty>
0.0179285

> <b_epik_Metal_Only>
0

> <s_lp_Force_Field>
OPLS_2005

> <r_lp_Energy>
35.2759

> <b_lp_Chiralities_Consistent>
1

> <s_lp_Variant>
AV-unprocessed.smi:1965-3

> <Gold.Version>
5.8.1

> <Gold.Id.Protein>
6NUR|6NUR_protein|mol2

> <Gold.PLP.Fitness>
35.3667

> <Gold.PLP.PLP>
-25.2199

> <Gold.PLP.part.hbond>
-2.5161

> <Gold.PLP.part.metal>
0.0000

> <Gold.PLP.part.buried>
-4.8129

> <Gold.PLP.part.nonpolar>
-19.8337

> <Gold.PLP.part.repulsive>
0.2415

> <Gold.PLP.ligand.clash>
0.0000

> <Gold.PLP.ligand.torsion>
0.5128

> <Gold.PLP.Chemscore.Hbond>
2.7210

> <Gold.PLP.Chemscore.CHOScore>
1.0000

> <Gold.PLP.Chemscore.Metal>
0.0000

> <Gold.Chemscore.Hbonds>
donor molecule, donor type, donor heavy atom, donor atom, acceptor molecule, acceptor atom, score
      L1  H     3    19       P1  7948  1.00
      L1  H     9    22       P1  7948  0.93
      L1  H    13    37       P1 10957  0.76
      L1  C     7    21       P1  8028  1.00

> <Gold.PLP.Chemscore.Internal.Correction>
0.0094

> <Gold.Rescore>
     Score         DG    S(hbond)    S(metal)    S(lipo)     H(rot)  DE(clash)    DE(int)     intcor
     16.45     -17.15       2.14        0.00      60.59       1.00       0.26       0.44       ----

> <Gold.Chemscore.Fitness>
16.4480

> <Gold.Chemscore.DG>
-17.1454

> <Gold.Chemscore.ZeroCoef>
-5.4800

> <Gold.Chemscore.Hbond>
2.1368

> <Gold.Chemscore.Metal>
0.0000

> <Gold.Chemscore.Lipo>
60.5851

> <Gold.Chemscore.Internal_Hbond>
0.0000

> <Gold.Chemscore.DEClash>
0.2595

> <Gold.Chemscore.DEInternal>
0.4379

> <Gold.Chemscore.Rot>
1.0000

> <Gold.Chemscore.Internal.Correction>
   9.000000E+99

> <Gold.Chemscore.Hbonds>
donor molecule, donor type, donor heavy atom, donor atom, acceptor molecule, acceptor atom, score
      L1  H     3    19       P1  7948  0.95
      L1  H     9    22       P1  7948  0.90
      L1  H    13    37       P1 10957  0.09

> <Gold.Chemscore.Hbond.Weighted>
-7.1369

> <Gold.Chemscore.Metal.Weighted>
-0.0000

> <Gold.Chemscore.Lipo.Weighted>
-7.0885

> <Gold.Chemscore.Internal_Hbond.Weighted>
0.0000

> <Gold.Chemscore.DEClash.Weighted>
0.2595

> <Gold.Chemscore.DEInternal.Weighted>
0.4379

> <Gold.Chemscore.Rot.Weighted>
2.5600

> <Gold.Chemscore.Internal.Correction.Weighted>
   9.000000E+99

> <Gold.Protein.RotatedTorsions>
[ 6907 6896 6895 6894 ] final   -5.28 input  -60.11 | X-H torsion
[ 7974 7965 7964 7962 ] final   33.33 input  175.53 | X-H torsion
[ 8008 7997 7996 7995 ] final  -87.36 input   59.86 | X-H torsion
[ 10167 10162 10161 10158 ] final  -70.77 input  -65.29 | X-H torsion
[ 10718 10713 10712 10709 ] final  150.81 input   66.30 | X-H torsion
[ 10763 10752 10751 10750 ] final   72.02 input  -60.55 | X-H torsion
[ 11005 11000 10999 10996 ] final  -82.42 input  -57.11 | X-H torsion

> <Gold.Protein.ActiveResidues>
 VAL166  LYS551  ARG553  GLY616  TRP617  ASP618  TYR619  PRO620  LYS621  CYS622 
 ASP623  PHE694  ASN695  SER759  ASP760  ASP761  ALA762  ILE779  LEU786  VAL792 
 PHE793  MET794  SER795  GLU796  ALA797  LYS798  CYS799  TRP800  GLU811  SER814 

> <Gold.Protein.RotatedAtoms>
  151.4842  135.1054  159.9785 H   0  0  0  0  0  0  0  0  0  0  0  0  # atno 6907 bound_to 6896
  152.4767  133.8151  159.7034 H   0  0  0  0  0  0  0  0  0  0  0  0  # atno 6908 bound_to 6896
  150.8810  133.7311  159.2958 H   0  0  0  0  0  0  0  0  0  0  0  0  # atno 6909 bound_to 6896
  146.1428  139.6410  142.9152 H   0  0  0  0  0  0  0  0  0  0  0  0  # atno 7974 bound_to 7965
  154.6624  140.0567  157.0076 H   0  0  0  0  0  0  0  0  0  0  0  0  # atno 8008 bound_to 7997
  155.1209  140.3247  155.4479 H   0  0  0  0  0  0  0  0  0  0  0  0  # atno 8009 bound_to 7997
  156.2623  140.1997  156.6331 H   0  0  0  0  0  0  0  0  0  0  0  0  # atno 8010 bound_to 7997
  140.5326  143.2320  151.7234 H   0  0  0  0  0  0  0  0  0  0  0  0  # atno 10167 bound_to 10162
  157.2788  131.0831  151.1547 H   0  0  0  0  0  0  0  0  0  0  0  0  # atno 10718 bound_to 10713
  153.0433  135.5115  154.7681 H   0  0  0  0  0  0  0  0  0  0  0  0  # atno 10763 bound_to 10752
  154.6601  135.2937  154.9880 H   0  0  0  0  0  0  0  0  0  0  0  0  # atno 10764 bound_to 10752
  154.0734  135.6674  153.4880 H   0  0  0  0  0  0  0  0  0  0  0  0  # atno 10765 bound_to 10752
  141.1663  133.7244  156.8569 H   0  0  0  0  0  0  0  0  0  0  0  0  # atno 11005 bound_to 11000
  145.5008  141.0437  143.2541 LP  0  0  0  0  0  0  0  0  0  0  0  0  # atno 17320 bound_to 7965
  144.7811  139.6524  143.7154 LP  0  0  0  0  0  0  0  0  0  0  0  0  # atno 17321 bound_to 7965
  139.4959  144.4091  152.0100 LP  0  0  0  0  0  0  0  0  0  0  0  0  # atno 17342 bound_to 10162
  140.3194  144.3445  150.6013 LP  0  0  0  0  0  0  0  0  0  0  0  0  # atno 17343 bound_to 10162
  157.2989  130.6833  149.6153 LP  0  0  0  0  0  0  0  0  0  0  0  0  # atno 17370 bound_to 10713
  155.9664  130.4398  150.5273 LP  0  0  0  0  0  0  0  0  0  0  0  0  # atno 17371 bound_to 10713
  140.1876  134.8989  157.3022 LP  0  0  0  0  0  0  0  0  0  0  0  0  # atno 17394 bound_to 11000
  140.2326  134.3891  155.7515 LP  0  0  0  0  0  0  0  0  0  0  0  0  # atno 17395 bound_to 11000

$$$$
