AV-unprocessed.smi:3213|AV-procd|sdf|12282|dock6
  -GOLD-   2272018123D 1   1.00000     0.00000
 Structure written by MMmdl.
 35 35  0  0  0  0  0  0  0  0  1 V2000
  146.5196  128.1214  153.1849 C   0  0  0  0  0  0  0  0  0  0  0  0
  147.8041  128.7360  152.6009 C   0  0  0  0  0  0  0  0  0  0  0  0
  148.9597  128.5244  153.6024 C   0  0  0  0  0  0  0  0  0  0  0  0
  148.1194  128.0526  151.2539 C   0  0  0  0  0  0  0  0  0  0  0  0
  147.5404  130.1664  152.4023 N   0  0  0  0  0  0  0  0  0  0  0  0
  147.0799  131.0646  153.2917 C   0  0  0  0  0  0  0  0  0  0  0  0
  146.7922  130.7921  154.4576 O   0  0  0  0  0  0  0  0  0  0  0  0
  146.9138  132.4966  152.7740 C   0  0  0  0  0  0  0  0  0  0  0  0
  145.9088  132.5794  151.7283 N   0  0  0  0  0  0  0  0  0  0  0  0
  145.9601  132.0673  150.4488 C   0  0  0  0  0  0  0  0  0  0  0  0
  144.7855  132.3888  149.8295 C   0  0  0  0  0  0  0  0  0  0  0  0
  144.3409  132.0661  148.4304 C   0  0  0  0  0  0  0  0  0  0  0  0
  143.0854  132.8571  148.0410 C   0  0  0  0  0  0  0  0  0  0  0  0
  143.4479  134.1546  147.6204 O   0  0  0  0  0  0  0  0  0  0  0  0
  144.0705  133.1074  150.8299 C   0  0  0  0  0  0  0  0  0  0  0  0
  144.7438  133.2210  151.9630 N   0  0  0  0  0  0  0  0  0  0  0  0
  146.6362  127.0518  153.3634 H   0  0  0  0  0  0  0  0  0  0  0  0
  145.6735  128.2491  152.5084 H   0  0  0  0  0  0  0  0  0  0  0  0
  146.2531  128.5841  154.1360 H   0  0  0  0  0  0  0  0  0  0  0  0
  148.7704  129.0423  154.5433 H   0  0  0  0  0  0  0  0  0  0  0  0
  149.9125  128.8836  153.2138 H   0  0  0  0  0  0  0  0  0  0  0  0
  149.0900  127.4664  153.8319 H   0  0  0  0  0  0  0  0  0  0  0  0
  148.2340  126.9752  151.3782 H   0  0  0  0  0  0  0  0  0  0  0  0
  149.0441  128.4235  150.8119 H   0  0  0  0  0  0  0  0  0  0  0  0
  147.3200  128.2153  150.5301 H   0  0  0  0  0  0  0  0  0  0  0  0
  147.7399  130.5161  151.4764 H   0  0  0  0  0  0  0  0  0  0  0  0
  146.6395  133.1739  153.5849 H   0  0  0  0  0  0  0  0  0  0  0  0
  147.8664  132.8447  152.3737 H   0  0  0  0  0  0  0  0  0  0  0  0
  146.8195  131.5199  150.0899 H   0  0  0  0  0  0  0  0  0  0  0  0
  145.1391  132.2841  147.7197 H   0  0  0  0  0  0  0  0  0  0  0  0
  144.1388  130.9988  148.3311 H   0  0  0  0  0  0  0  0  0  0  0  0
  142.5507  132.3574  147.2325 H   0  0  0  0  0  0  0  0  0  0  0  0
  142.4014  132.9361  148.8867 H   0  0  0  0  0  0  0  0  0  0  0  0
  144.3543  134.3010  147.8442 H   0  0  0  0  0  0  0  0  0  0  0  0
  143.0857  133.5467  150.7653 H   0  0  0  0  0  0  0  0  0  0  0  0
  1  2  1  0  0  0  0
  1 17  1  0  0  0  0
  1 18  1  0  0  0  0
  1 19  1  0  0  0  0
  2  3  1  0  0  0  0
  2  4  1  0  0  0  0
  2  5  1  0  0  0  0
  3 20  1  0  0  0  0
  3 21  1  0  0  0  0
  3 22  1  0  0  0  0
  4 23  1  0  0  0  0
  4 24  1  0  0  0  0
  4 25  1  0  0  0  0
  5  6  1  0  0  0  0
  5 26  1  0  0  0  0
  6  7  2  0  0  0  0
  6  8  1  0  0  0  0
  8  9  1  0  0  0  0
  8 27  1  0  0  0  0
  8 28  1  0  0  0  0
  9 16  1  0  0  0  0
  9 10  1  0  0  0  0
 10 11  2  0  0  0  0
 10 29  1  0  0  0  0
 11 12  1  0  0  0  0
 11 15  1  0  0  0  0
 12 13  1  0  0  0  0
 12 30  1  0  0  0  0
 12 31  1  0  0  0  0
 13 14  1  0  0  0  0
 13 32  1  0  0  0  0
 13 33  1  0  0  0  0
 14 34  1  0  0  0  0
 15 16  2  0  0  0  0
 15 35  1  0  0  0  0
M  END
> <s_m_source_file>
AV-unprocessed.smi

> <i_m_source_file_index>
3213

> <i_lp_mmshare_version>
43012

> <i_f3d_flags>
0

> <s_epik_input>
W0NIM11DKFtDSDNdKShbQ0gzXSlbTkhdQyg9TylbQ0gyXW4xW2NIXWMoW2NIXW4xKVtDSDJdW0NIMl1bT0hd

> <s_epik_cmdline>
J2VwaWtfcHl0aG9uJywgJy1waCcsICc3LjAnLCAnLXRuJywgJzgnLCAnLW1hJywgJzIwMCcsICctbWV0YWxfYmluZGluZycsICctaW1hZScsICc8aW5maWxlLm1hZT4nLCAnLW9tYWUnLCAnPG91dGZpbGUubWFlPic=

> <r_lp_tautomer_probability>
1

> <r_epik_Ionization_Penalty>
3.05354e-05

> <r_epik_Ionization_Penalty_Charging>
0

> <r_epik_Ionization_Penalty_Neutral>
3.05354e-05

> <r_epik_State_Penalty>
-0

> <r_epik_Charging_Adjusted_Penalty>
0

> <i_epik_Tot_Q>
0

> <i_epik_Tot_abs_Q>
0

> <r_epik_Metal_State_Penalty>
-0

> <b_epik_Metal_Only>
0

> <s_lp_Force_Field>
OPLS_2005

> <r_lp_Energy>
4.97676

> <b_lp_Chiralities_Consistent>
1

> <s_lp_Variant>
AV-unprocessed.smi:3213-1

> <Gold.Version>
5.8.1

> <Gold.Id.Protein>
6NUR|6NUR_protein|mol2

> <Gold.PLP.Fitness>
45.5040

> <Gold.PLP.PLP>
-31.6554

> <Gold.PLP.part.hbond>
-4.5834

> <Gold.PLP.part.metal>
0.0000

> <Gold.PLP.part.buried>
2.2095

> <Gold.PLP.part.nonpolar>
-29.5368

> <Gold.PLP.part.repulsive>
0.2372

> <Gold.PLP.ligand.clash>
0.0000

> <Gold.PLP.ligand.torsion>
0.4011

> <Gold.PLP.Chemscore.Hbond>
2.8800

> <Gold.PLP.Chemscore.CHOScore>
1.9942

> <Gold.PLP.Chemscore.Metal>
0.0000

> <Gold.Chemscore.Hbonds>
donor molecule, donor type, donor heavy atom, donor atom, acceptor molecule, acceptor atom, score
      L1  H     5    26       P1 10747  0.91
      L1  H    14    34       P1  7921  1.00
      P1  H 10192 10197       L1    14  1.00
      L1  C    10    29       P1 10747  1.00
      L1  C    15    35       P1 10186  0.93

> <Gold.PLP.Chemscore.Internal.Correction>
0.0282

> <Gold.Rescore>
     Score         DG    S(hbond)    S(metal)    S(lipo)     H(rot)  DE(clash)    DE(int)     intcor
     16.77     -19.74       2.96        0.00      91.68       2.48       2.61       0.36       ----

> <Gold.Chemscore.Fitness>
16.7710

> <Gold.Chemscore.DG>
-19.7420

> <Gold.Chemscore.ZeroCoef>
-5.4800

> <Gold.Chemscore.Hbond>
2.9562

> <Gold.Chemscore.Metal>
0.0000

> <Gold.Chemscore.Lipo>
91.6782

> <Gold.Chemscore.Internal_Hbond>
0.0000

> <Gold.Chemscore.DEClash>
2.6117

> <Gold.Chemscore.DEInternal>
0.3593

> <Gold.Chemscore.Rot>
2.4758

> <Gold.Chemscore.Internal.Correction>
   9.000000E+99

> <Gold.Chemscore.Hbonds>
donor molecule, donor type, donor heavy atom, donor atom, acceptor molecule, acceptor atom, score
      L1  H     5    26       P1 10747  0.90
      L1  H    14    34       P1  7921  0.99
      P1  H 10192 10197       L1    14  0.85

> <Gold.Chemscore.Hbond.Weighted>
-9.8736

> <Gold.Chemscore.Metal.Weighted>
-0.0000

> <Gold.Chemscore.Lipo.Weighted>
-10.7264

> <Gold.Chemscore.Internal_Hbond.Weighted>
0.0000

> <Gold.Chemscore.DEClash.Weighted>
2.6117

> <Gold.Chemscore.DEInternal.Weighted>
0.3593

> <Gold.Chemscore.Rot.Weighted>
6.3380

> <Gold.Chemscore.Internal.Correction.Weighted>
   9.000000E+99

> <Gold.Protein.RotatedTorsions>
[ 6907 6896 6895 6894 ] final  128.93 input  -60.11 | X-H torsion
[ 7974 7965 7964 7962 ] final  120.77 input  175.53 | X-H torsion
[ 8008 7997 7996 7995 ] final  119.14 input   59.86 | X-H torsion
[ 10167 10162 10161 10158 ] final  -70.89 input  -65.29 | X-H torsion
[ 10718 10713 10712 10709 ] final   40.19 input   66.30 | X-H torsion
[ 10763 10752 10751 10750 ] final  -48.06 input  -60.55 | X-H torsion
[ 11005 11000 10999 10996 ] final  114.45 input  -57.11 | X-H torsion

> <Gold.Protein.ActiveResidues>
 VAL166  LYS551  ARG553  GLY616  TRP617  ASP618  TYR619  PRO620  LYS621  CYS622 
 ASP623  PHE694  ASN695  SER759  ASP760  ASP761  ALA762  ILE779  LEU786  VAL792 
 PHE793  MET794  SER795  GLU796  ALA797  LYS798  CYS799  TRP800  GLU811  SER814 

> <Gold.Protein.RotatedAtoms>
  152.3672  133.6372  159.6059 H   0  0  0  0  0  0  0  0  0  0  0  0  # atno 6907 bound_to 6896
  150.7642  133.9329  159.3441 H   0  0  0  0  0  0  0  0  0  0  0  0  # atno 6908 bound_to 6896
  151.7157  135.0905  160.0326 H   0  0  0  0  0  0  0  0  0  0  0  0  # atno 6909 bound_to 6896
  145.1272  139.3350  143.4683 H   0  0  0  0  0  0  0  0  0  0  0  0  # atno 7974 bound_to 7965
  156.2581  140.2859  156.0944 H   0  0  0  0  0  0  0  0  0  0  0  0  # atno 8008 bound_to 7997
  155.1428  140.0396  157.2820 H   0  0  0  0  0  0  0  0  0  0  0  0  # atno 8009 bound_to 7997
  154.6517  140.2546  155.7212 H   0  0  0  0  0  0  0  0  0  0  0  0  # atno 8010 bound_to 7997
  140.5317  143.2321  151.7250 H   0  0  0  0  0  0  0  0  0  0  0  0  # atno 10167 bound_to 10162
  157.3793  130.7744  149.7180 H   0  0  0  0  0  0  0  0  0  0  0  0  # atno 10718 bound_to 10713
  154.0715  135.6604  153.4825 H   0  0  0  0  0  0  0  0  0  0  0  0  # atno 10763 bound_to 10752
  153.0389  135.5158  154.7562 H   0  0  0  0  0  0  0  0  0  0  0  0  # atno 10764 bound_to 10752
  154.6629  135.3017  154.9810 H   0  0  0  0  0  0  0  0  0  0  0  0  # atno 10765 bound_to 10752
  139.8981  134.9568  156.6893 H   0  0  0  0  0  0  0  0  0  0  0  0  # atno 11005 bound_to 11000
  146.3517  140.1256  142.8599 LP  0  0  0  0  0  0  0  0  0  0  0  0  # atno 17320 bound_to 7965
  145.0675  140.9132  143.4902 LP  0  0  0  0  0  0  0  0  0  0  0  0  # atno 17321 bound_to 7965
  139.4956  144.4104  152.0086 LP  0  0  0  0  0  0  0  0  0  0  0  0  # atno 17342 bound_to 10162
  140.3207  144.3431  150.6010 LP  0  0  0  0  0  0  0  0  0  0  0  0  # atno 17343 bound_to 10162
  155.9772  130.4066  150.3727 LP  0  0  0  0  0  0  0  0  0  0  0  0  # atno 17370 bound_to 10713
  157.1829  131.0396  151.2739 LP  0  0  0  0  0  0  0  0  0  0  0  0  # atno 17371 bound_to 10713
  140.7237  133.9118  155.8164 LP  0  0  0  0  0  0  0  0  0  0  0  0  # atno 17394 bound_to 11000
  141.0207  134.0893  157.4123 LP  0  0  0  0  0  0  0  0  0  0  0  0  # atno 17395 bound_to 11000

$$$$
