AV-unprocessed.smi:2417|AV-procd|sdf|9548|dock5
  -GOLD-   2272013183D 1   1.00000     0.00000
 Structure written by MMmdl.
 38 39  0  0  0  0  0  0  0  0  1 V2000
  143.4748  144.2499  156.3414 C   0  0  0  0  0  0  0  0  0  0  0  0
  144.4631  143.2351  155.7943 C   0  0  0  0  0  0  0  0  0  0  0  0
  145.6399  143.7666  155.2586 N   0  0  0  0  0  0  0  0  0  0  0  0
  146.5391  142.9777  154.7682 C   0  0  0  0  0  0  0  0  0  0  0  0
  146.3695  141.5835  154.7551 N   0  0  0  0  0  0  0  0  0  0  0  0
  147.4684  140.7985  154.1688 C   0  0  0  0  0  0  0  0  0  0  0  0
  148.8463  141.4606  154.3948 C   0  0  2  0  0  0  0  0  0  0  0  0
  149.8077  140.9172  153.5123 O   0  0  0  0  0  0  0  0  0  0  0  0
  149.3711  141.2826  155.8297 C   0  0  0  0  0  0  0  0  0  0  0  0
  150.2677  142.3383  156.1546 O   0  0  0  0  0  0  0  0  0  0  0  0
  151.0226  142.2256  157.3019 C   0  0  0  0  0  0  0  0  0  0  0  0
  151.7756  143.3552  157.6843 C   0  0  0  0  0  0  0  0  0  0  0  0
  152.5762  143.3299  158.8424 C   0  0  0  0  0  0  0  0  0  0  0  0
  152.6317  142.1677  159.6334 C   0  0  0  0  0  0  0  0  0  0  0  0
  153.4008  142.1412  160.7475 F   0  0  0  0  0  0  0  0  0  0  0  0
  151.8857  141.0331  159.2640 C   0  0  0  0  0  0  0  0  0  0  0  0
  151.0847  141.0586  158.1055 C   0  0  0  0  0  0  0  0  0  0  0  0
  145.2556  140.9819  155.2641 C   0  0  0  0  0  0  0  0  0  0  0  0
  145.1235  139.7565  155.2595 O   0  0  0  0  0  0  0  0  0  0  0  0
  144.2393  141.8927  155.8157 C   0  0  0  0  0  0  0  0  0  0  0  0
  142.9782  141.2567  156.3872 C   0  0  0  0  0  0  0  0  0  0  0  0
  142.5241  144.1826  155.8118 H   0  0  0  0  0  0  0  0  0  0  0  0
  143.8480  145.2685  156.2289 H   0  0  0  0  0  0  0  0  0  0  0  0
  143.2972  144.0759  157.4030 H   0  0  0  0  0  0  0  0  0  0  0  0
  147.4760  143.3416  154.3429 H   0  0  0  0  0  0  0  0  0  0  0  0
  147.4655  139.8084  154.6288 H   0  0  0  0  0  0  0  0  0  0  0  0
  147.3107  140.5998  153.1065 H   0  0  0  0  0  0  0  0  0  0  0  0
  148.7910  142.5311  154.1938 H   0  0  0  0  0  0  0  0  0  0  0  0
  149.3901  140.2563  152.9813 H   0  0  0  0  0  0  0  0  0  0  0  0
  148.5406  141.2385  156.5367 H   0  0  0  0  0  0  0  0  0  0  0  0
  149.9064  140.3334  155.8882 H   0  0  0  0  0  0  0  0  0  0  0  0
  151.7387  144.2515  157.0825 H   0  0  0  0  0  0  0  0  0  0  0  0
  153.1476  144.2024  159.1233 H   0  0  0  0  0  0  0  0  0  0  0  0
  151.9272  140.1404  159.8705 H   0  0  0  0  0  0  0  0  0  0  0  0
  150.5271  140.1691  157.8555 H   0  0  0  0  0  0  0  0  0  0  0  0
  143.2352  140.5784  157.2014 H   0  0  0  0  0  0  0  0  0  0  0  0
  142.4644  140.6816  155.6163 H   0  0  0  0  0  0  0  0  0  0  0  0
  142.2696  141.9845  156.7791 H   0  0  0  0  0  0  0  0  0  0  0  0
  1  2  1  0  0  0  0
  1 22  1  0  0  0  0
  1 23  1  0  0  0  0
  1 24  1  0  0  0  0
  2 20  2  0  0  0  0
  2  3  1  0  0  0  0
  3  4  2  0  0  0  0
  4  5  1  0  0  0  0
  4 25  1  0  0  0  0
  5  6  1  0  0  0  0
  5 18  1  0  0  0  0
  6  7  1  0  0  0  0
  6 26  1  0  0  0  0
  6 27  1  0  0  0  0
  7  8  1  0  0  0  0
  7  9  1  0  0  0  0
  7 28  1  0  0  0  0
  8 29  1  0  0  0  0
  9 10  1  0  0  0  0
  9 30  1  0  0  0  0
  9 31  1  0  0  0  0
 10 11  1  0  0  0  0
 11 17  1  0  0  0  0
 11 12  2  0  0  0  0
 12 13  1  0  0  0  0
 12 32  1  0  0  0  0
 13 14  2  0  0  0  0
 13 33  1  0  0  0  0
 14 15  1  0  0  0  0
 14 16  1  0  0  0  0
 16 17  2  0  0  0  0
 16 34  1  0  0  0  0
 17 35  1  0  0  0  0
 18 19  2  0  0  0  0
 18 20  1  0  0  0  0
 20 21  1  0  0  0  0
 21 36  1  0  0  0  0
 21 37  1  0  0  0  0
 21 38  1  0  0  0  0
M  END
> <s_m_source_file>
AV-unprocessed.smi

> <i_m_source_file_index>
2417

> <i_lp_mmshare_version>
43012

> <i_f3d_flags>
0

> <s_epik_input>
W0NIM11jMW5bY0hdbihjKD1PKWMxW0NIM10pW0NIMl1bQ0BIXShbT0hdKVtDSDJdT2MyW2NIXVtjSF1jKEYpW2NIXVtjSF0y

> <s_epik_cmdline>
J2VwaWtfcHl0aG9uJywgJy1waCcsICc3LjAnLCAnLXRuJywgJzgnLCAnLW1hJywgJzIwMCcsICctbWV0YWxfYmluZGluZycsICctaW1hZScsICc8aW5maWxlLm1hZT4nLCAnLW9tYWUnLCAnPG91dGZpbGUubWFlPic=

> <r_lp_tautomer_probability>
1

> <r_epik_Ionization_Penalty>
3.65384e-05

> <r_epik_Ionization_Penalty_Charging>
8.23007e-08

> <r_epik_Ionization_Penalty_Neutral>
3.64561e-05

> <r_epik_State_Penalty>
-0

> <r_epik_Charging_Adjusted_Penalty>
8.23007e-08

> <i_epik_Tot_Q>
0

> <i_epik_Tot_abs_Q>
0

> <r_epik_Metal_State_Penalty>
-0

> <b_epik_Metal_Only>
0

> <s_lp_Force_Field>
OPLS_2005

> <r_lp_Energy>
23.7128

> <b_lp_Chiralities_Consistent>
1

> <s_lp_Variant>
AV-unprocessed.smi:2417-1

> <Gold.Version>
5.8.1

> <Gold.Id.Protein>
6NUR|6NUR_protein|mol2

> <Gold.PLP.Fitness>
42.5181

> <Gold.PLP.PLP>
-35.8185

> <Gold.PLP.part.hbond>
-2.4511

> <Gold.PLP.part.metal>
0.0000

> <Gold.PLP.part.buried>
-4.2789

> <Gold.PLP.part.nonpolar>
-31.0909

> <Gold.PLP.part.repulsive>
2.4116

> <Gold.PLP.ligand.clash>
0.0000

> <Gold.PLP.ligand.torsion>
0.8589

> <Gold.PLP.Chemscore.Hbond>
1.8640

> <Gold.PLP.Chemscore.CHOScore>
0.9232

> <Gold.PLP.Chemscore.Metal>
0.0000

> <Gold.Chemscore.Hbonds>
donor molecule, donor type, donor heavy atom, donor atom, acceptor molecule, acceptor atom, score
      L1  H     8    29       P1  7957  0.51
      P1  H  7989  7998       L1     8  0.30
      P1  H  8011  8017       L1     8  0.75
      L1  C     4    25       P1  8028  0.78

> <Gold.PLP.Chemscore.Internal.Correction>
0.0557

> <Gold.Rescore>
     Score         DG    S(hbond)    S(metal)    S(lipo)     H(rot)  DE(clash)    DE(int)     intcor
      9.77     -10.80       0.86        0.00      76.44       2.54       0.28       0.75       ----

> <Gold.Chemscore.Fitness>
9.7691

> <Gold.Chemscore.DG>
-10.7959

> <Gold.Chemscore.ZeroCoef>
-5.4800

> <Gold.Chemscore.Hbond>
0.8571

> <Gold.Chemscore.Metal>
0.0000

> <Gold.Chemscore.Lipo>
76.4435

> <Gold.Chemscore.Internal_Hbond>
0.0000

> <Gold.Chemscore.DEClash>
0.2791

> <Gold.Chemscore.DEInternal>
0.7477

> <Gold.Chemscore.Rot>
2.5355

> <Gold.Chemscore.Internal.Correction>
   9.000000E+99

> <Gold.Chemscore.Hbonds>
donor molecule, donor type, donor heavy atom, donor atom, acceptor molecule, acceptor atom, score
      L1  H     8    29       P1  7957  0.50
      P1  H  7989  7998       L1     8  0.27
      P1  H  8011  8017       L1     8  0.03

> <Gold.Chemscore.Hbond.Weighted>
-2.8628

> <Gold.Chemscore.Metal.Weighted>
-0.0000

> <Gold.Chemscore.Lipo.Weighted>
-8.9439

> <Gold.Chemscore.Internal_Hbond.Weighted>
0.0000

> <Gold.Chemscore.DEClash.Weighted>
0.2791

> <Gold.Chemscore.DEInternal.Weighted>
0.7477

> <Gold.Chemscore.Rot.Weighted>
6.4908

> <Gold.Chemscore.Internal.Correction.Weighted>
   9.000000E+99

> <Gold.Protein.RotatedTorsions>
[ 6907 6896 6895 6894 ] final    5.07 input  -60.11 | X-H torsion
[ 7974 7965 7964 7962 ] final -112.05 input  175.53 | X-H torsion
[ 8008 7997 7996 7995 ] final  -12.28 input   59.86 | X-H torsion
[ 10167 10162 10161 10158 ] final -123.69 input  -65.29 | X-H torsion
[ 10718 10713 10712 10709 ] final   44.20 input   66.30 | X-H torsion
[ 10763 10752 10751 10750 ] final -102.53 input  -60.55 | X-H torsion
[ 11005 11000 10999 10996 ] final  -67.57 input  -57.11 | X-H torsion

> <Gold.Protein.ActiveResidues>
 VAL166  LYS551  ARG553  GLY616  TRP617  ASP618  TYR619  PRO620  LYS621  CYS622 
 ASP623  PHE694  ASN695  SER759  ASP760  ASP761  ALA762  ILE779  LEU786  VAL792 
 PHE793  MET794  SER795  GLU796  ALA797  LYS798  CYS799  TRP800  GLU811  SER814 

> <Gold.Protein.RotatedAtoms>
  151.6515  135.1001  160.0161 H   0  0  0  0  0  0  0  0  0  0  0  0  # atno 6907 bound_to 6896
  152.3998  133.6797  159.6315 H   0  0  0  0  0  0  0  0  0  0  0  0  # atno 6908 bound_to 6896
  150.7900  133.8727  159.3304 H   0  0  0  0  0  0  0  0  0  0  0  0  # atno 6909 bound_to 6896
  145.1487  140.8817  143.3659 H   0  0  0  0  0  0  0  0  0  0  0  0  # atno 7974 bound_to 7965
  154.5391  140.2280  155.8672 H   0  0  0  0  0  0  0  0  0  0  0  0  # atno 8008 bound_to 7997
  156.1840  140.3093  155.9166 H   0  0  0  0  0  0  0  0  0  0  0  0  # atno 8009 bound_to 7997
  155.3295  140.0444  157.3032 H   0  0  0  0  0  0  0  0  0  0  0  0  # atno 8010 bound_to 7997
  140.0008  143.5542  152.2304 H   0  0  0  0  0  0  0  0  0  0  0  0  # atno 10167 bound_to 10162
  157.4242  130.7987  149.7543 H   0  0  0  0  0  0  0  0  0  0  0  0  # atno 10718 bound_to 10713
  154.7741  135.4857  153.9708 H   0  0  0  0  0  0  0  0  0  0  0  0  # atno 10763 bound_to 10752
  153.1405  135.6771  153.9042 H   0  0  0  0  0  0  0  0  0  0  0  0  # atno 10764 bound_to 10752
  153.8717  135.3143  155.3420 H   0  0  0  0  0  0  0  0  0  0  0  0  # atno 10765 bound_to 10752
  141.1511  133.6722  156.6312 H   0  0  0  0  0  0  0  0  0  0  0  0  # atno 11005 bound_to 11000
  145.0454  139.3225  143.5955 LP  0  0  0  0  0  0  0  0  0  0  0  0  # atno 17320 bound_to 7965
  146.3497  139.9843  142.8692 LP  0  0  0  0  0  0  0  0  0  0  0  0  # atno 17321 bound_to 7965
  139.6273  144.7639  151.2611 LP  0  0  0  0  0  0  0  0  0  0  0  0  # atno 17342 bound_to 10162
  140.7419  143.6541  150.8222 LP  0  0  0  0  0  0  0  0  0  0  0  0  # atno 17343 bound_to 10162
  155.9891  130.3954  150.3089 LP  0  0  0  0  0  0  0  0  0  0  0  0  # atno 17370 bound_to 10713
  157.1240  131.0254  151.2997 LP  0  0  0  0  0  0  0  0  0  0  0  0  # atno 17371 bound_to 10713
  140.3465  134.7805  157.4436 LP  0  0  0  0  0  0  0  0  0  0  0  0  # atno 17394 bound_to 11000
  140.0895  134.5620  155.8458 LP  0  0  0  0  0  0  0  0  0  0  0  0  # atno 17395 bound_to 11000

$$$$
