AV-unprocessed.smi:49|AV-procd|sdf|481|dock3
  -GOLD-   2262016343D 1   1.00000     0.00000
 Structure written by MMmdl.
 28 29  0  0  0  0  0  0  0  0  2 V2000
  149.9153  132.1038  155.3136 C   0  0  0  0  0  0  0  0  0  0  0  0
  149.4948  131.6884  153.8998 C   0  0  0  0  0  0  0  0  0  0  0  0
  148.3839  132.5288  153.3608 C   0  0  0  0  0  0  0  0  0  0  0  0
  147.9412  132.3995  152.1019 N   0  0  0  0  0  0  0  0  0  0  0  0
  146.9783  133.3297  152.0228 C   0  0  0  0  0  0  0  0  0  0  0  0
  146.2020  133.5466  150.7579 C   0  0  2  0  0  0  0  0  0  0  0  0
  144.6942  133.3122  150.8759 C   0  0  0  0  0  0  0  0  0  0  0  0
  144.3363  132.8095  149.4805 C   0  0  2  0  0  0  0  0  0  0  0  0
  143.1353  132.0674  149.4744 O   0  0  0  0  0  0  0  0  0  0  0  0
  145.5479  131.9530  149.0945 C   0  0  0  0  0  0  0  0  0  0  0  0
  146.7047  132.5324  149.8071 N   0  3  0  0  0  0  0  0  0  0  0  0
  146.8239  134.0163  153.1620 N   0  0  0  0  0  0  0  0  0  0  0  0
  147.7507  133.4875  154.0430 N   0  0  0  0  0  0  0  0  0  0  0  0
  146.4048  134.5378  150.3495 H   0  0  0  0  0  0  0  0  0  0  0  0
  144.2468  133.6544  148.7960 H   0  0  0  0  0  0  0  0  0  0  0  0
  148.2611  131.7598  151.3889 H   0  0  0  0  0  0  0  0  0  0  0  0
  150.7258  131.4729  155.6789 H   0  0  0  0  0  0  0  0  0  0  0  0
  149.0835  132.0153  156.0131 H   0  0  0  0  0  0  0  0  0  0  0  0
  150.2618  133.1371  155.3336 H   0  0  0  0  0  0  0  0  0  0  0  0
  150.3491  131.7503  153.2248 H   0  0  0  0  0  0  0  0  0  0  0  0
  149.1747  130.6458  153.9005 H   0  0  0  0  0  0  0  0  0  0  0  0
  144.4935  132.5274  151.6078 H   0  0  0  0  0  0  0  0  0  0  0  0
  144.1431  134.2029  151.1787 H   0  0  0  0  0  0  0  0  0  0  0  0
  142.4203  132.6433  149.7005 H   0  0  0  0  0  0  0  0  0  0  0  0
  145.4228  130.9273  149.4446 H   0  0  0  0  0  0  0  0  0  0  0  0
  145.7121  131.9232  148.0170 H   0  0  0  0  0  0  0  0  0  0  0  0
  147.3483  132.9607  149.1573 H   0  0  0  0  0  0  0  0  0  0  0  0
  147.1740  131.7984  150.3193 H   0  0  0  0  0  0  0  0  0  0  0  0
  1  2  1  0  0  0  0
  1 17  1  0  0  0  0
  1 18  1  0  0  0  0
  1 19  1  0  0  0  0
  2 20  1  0  0  0  0
  2 21  1  0  0  0  0
  2  3  1  0  0  0  0
  3  4  1  0  0  0  0
  3 13  2  0  0  0  0
  4 16  1  0  0  0  0
  4  5  1  0  0  0  0
  5 12  2  0  0  0  0
  5  6  1  0  0  0  0
  6 14  1  0  0  0  0
  6 11  1  0  0  0  0
  6  7  1  0  0  0  0
  7  8  1  0  0  0  0
  7 22  1  0  0  0  0
  7 23  1  0  0  0  0
  8 15  1  0  0  0  0
  8  9  1  0  0  0  0
  8 10  1  0  0  0  0
  9 24  1  0  0  0  0
 10 11  1  0  0  0  0
 10 25  1  0  0  0  0
 10 26  1  0  0  0  0
 11 27  1  0  0  0  0
 11 28  1  0  0  0  0
 12 13  1  0  0  0  0
M  CHG  1  11   1
M  END
> <s_m_source_file>
AV-unprocessed.smi

> <i_m_source_file_index>
49

> <i_lp_mmshare_version>
43012

> <i_f3d_flags>
0

> <s_epik_input>
W0NIM11bQ0gyXWMxbmMobltuSF0xKVtDQEBIXTJbQ0gyXVtDQEBIXShbT0hdKVtDSDJdW05IXTI=

> <s_epik_cmdline>
J2VwaWtfcHl0aG9uJywgJy1waCcsICc3LjAnLCAnLXRuJywgJzgnLCAnLW1hJywgJzIwMCcsICctbWV0YWxfYmluZGluZycsICctaW1hZScsICc8aW5maWxlLm1hZT4nLCAnLW9tYWUnLCAnPG91dGZpbGUubWFlPic=

> <r_lp_tautomer_probability>
0.0517155

> <r_epik_Ionization_Penalty>
0.939819

> <r_epik_Ionization_Penalty_Charging>
0.0688988

> <r_epik_Ionization_Penalty_Neutral>
0.87092

> <r_epik_State_Penalty>
2.1224

> <r_epik_Charging_Adjusted_Penalty>
2.1913

> <i_epik_Tot_Q>
1

> <i_epik_Tot_abs_Q>
1

> <r_epik_Metal_State_Penalty>
2.39725

> <b_epik_Metal_Only>
0

> <s_lp_Force_Field>
OPLS_2005

> <r_lp_Energy>
21.0752

> <b_lp_Chiralities_Consistent>
1

> <s_lp_Variant>
AV-unprocessed.smi:49-19

> <Gold.Version>
5.8.1

> <Gold.Id.Protein>
6NUR|6NUR_protein|mol2

> <Gold.PLP.Fitness>
36.3238

> <Gold.PLP.PLP>
-27.0811

> <Gold.PLP.part.hbond>
-5.0425

> <Gold.PLP.part.metal>
0.0000

> <Gold.PLP.part.buried>
-3.9052

> <Gold.PLP.part.nonpolar>
-18.6854

> <Gold.PLP.part.repulsive>
0.3726

> <Gold.PLP.ligand.clash>
0.0000

> <Gold.PLP.ligand.torsion>
0.0282

> <Gold.PLP.Chemscore.Hbond>
3.0953

> <Gold.PLP.Chemscore.CHOScore>
0.0000

> <Gold.PLP.Chemscore.Metal>
0.0000

> <Gold.Chemscore.Hbonds>
donor molecule, donor type, donor heavy atom, donor atom, acceptor molecule, acceptor atom, score
      L1  H     4    16       P1 10747  1.00
      L1  H     9    24       P1 10186  0.41
      L1  H    11    28       P1 10747  0.74
      P1  H 10785 10796       L1     9  0.93

> <Gold.PLP.Chemscore.Internal.Correction>
0.0131

> <Gold.Rescore>
     Score         DG    S(hbond)    S(metal)    S(lipo)     H(rot)  DE(clash)    DE(int)     intcor
     16.45     -16.80       3.10        0.00      49.62       1.89       0.34       0.01       ----

> <Gold.Chemscore.Fitness>
16.4480

> <Gold.Chemscore.DG>
-16.8008

> <Gold.Chemscore.ZeroCoef>
-5.4800

> <Gold.Chemscore.Hbond>
3.0987

> <Gold.Chemscore.Metal>
0.0000

> <Gold.Chemscore.Lipo>
49.6152

> <Gold.Chemscore.Internal_Hbond>
0.0000

> <Gold.Chemscore.DEClash>
0.3402

> <Gold.Chemscore.DEInternal>
0.0127

> <Gold.Chemscore.Rot>
1.8883

> <Gold.Chemscore.Internal.Correction>
   9.000000E+99

> <Gold.Chemscore.Hbonds>
donor molecule, donor type, donor heavy atom, donor atom, acceptor molecule, acceptor atom, score
      L1  H     4    16       P1 10747  0.98
      L1  H     9    24       P1 10186  0.41
      L1  H    11    28       P1 10747  0.69
      P1  H 10785 10796       L1     9  0.84

> <Gold.Chemscore.Hbond.Weighted>
-10.3498

> <Gold.Chemscore.Metal.Weighted>
-0.0000

> <Gold.Chemscore.Lipo.Weighted>
-5.8050

> <Gold.Chemscore.Internal_Hbond.Weighted>
0.0000

> <Gold.Chemscore.DEClash.Weighted>
0.3402

> <Gold.Chemscore.DEInternal.Weighted>
0.0127

> <Gold.Chemscore.Rot.Weighted>
4.8340

> <Gold.Chemscore.Internal.Correction.Weighted>
   9.000000E+99

> <Gold.Protein.RotatedTorsions>
[ 6907 6896 6895 6894 ] final  137.92 input  -60.11 | X-H torsion
[ 7974 7965 7964 7962 ] final  -81.83 input  175.53 | X-H torsion
[ 8008 7997 7996 7995 ] final   17.04 input   59.86 | X-H torsion
[ 10167 10162 10161 10158 ] final  -53.78 input  -65.29 | X-H torsion
[ 10718 10713 10712 10709 ] final   31.20 input   66.30 | X-H torsion
[ 10763 10752 10751 10750 ] final   32.17 input  -60.55 | X-H torsion
[ 11005 11000 10999 10996 ] final   53.81 input  -57.11 | X-H torsion

> <Gold.Protein.ActiveResidues>
 VAL166  LYS551  ARG553  GLY616  TRP617  ASP618  TYR619  PRO620  LYS621  CYS622 
 ASP623  PHE694  ASN695  SER759  ASP760  ASP761  ALA762  ILE779  LEU786  VAL792 
 PHE793  MET794  SER795  GLU796  ALA797  LYS798  CYS799  TRP800  GLU811  SER814 

> <Gold.Protein.RotatedAtoms>
  152.2725  133.5395  159.5447 H   0  0  0  0  0  0  0  0  0  0  0  0  # atno 6907 bound_to 6896
  150.7164  134.0678  159.3862 H   0  0  0  0  0  0  0  0  0  0  0  0  # atno 6908 bound_to 6896
  151.8592  135.0530  160.0518 H   0  0  0  0  0  0  0  0  0  0  0  0  # atno 6909 bound_to 6896
  145.5415  140.9509  143.1548 H   0  0  0  0  0  0  0  0  0  0  0  0  # atno 7974 bound_to 7965
  154.8856  140.2979  155.5400 H   0  0  0  0  0  0  0  0  0  0  0  0  # atno 8008 bound_to 7997
  156.3021  140.2434  156.3799 H   0  0  0  0  0  0  0  0  0  0  0  0  # atno 8009 bound_to 7997
  154.8672  140.0403  157.1691 H   0  0  0  0  0  0  0  0  0  0  0  0  # atno 8010 bound_to 7997
  140.6466  143.2539  151.4841 H   0  0  0  0  0  0  0  0  0  0  0  0  # atno 10167 bound_to 10162
  157.2694  130.7200  149.6496 H   0  0  0  0  0  0  0  0  0  0  0  0  # atno 10718 bound_to 10713
  153.0276  135.6420  154.1314 H   0  0  0  0  0  0  0  0  0  0  0  0  # atno 10763 bound_to 10752
  154.1040  135.2857  155.3247 H   0  0  0  0  0  0  0  0  0  0  0  0  # atno 10764 bound_to 10752
  154.6378  135.5470  153.7817 H   0  0  0  0  0  0  0  0  0  0  0  0  # atno 10765 bound_to 10752
  140.0737  134.5434  155.9019 H   0  0  0  0  0  0  0  0  0  0  0  0  # atno 11005 bound_to 11000
  144.7575  139.7039  143.7248 LP  0  0  0  0  0  0  0  0  0  0  0  0  # atno 17320 bound_to 7965
  146.1978  139.5254  142.9763 LP  0  0  0  0  0  0  0  0  0  0  0  0  # atno 17321 bound_to 7965
  139.5678  144.2001  152.1791 LP  0  0  0  0  0  0  0  0  0  0  0  0  # atno 17342 bound_to 10162
  140.1288  144.5307  150.6815 LP  0  0  0  0  0  0  0  0  0  0  0  0  # atno 17343 bound_to 10162
  155.9663  130.4372  150.5167 LP  0  0  0  0  0  0  0  0  0  0  0  0  # atno 17370 bound_to 10713
  157.3088  131.0659  151.2016 LP  0  0  0  0  0  0  0  0  0  0  0  0  # atno 17371 bound_to 10713
  141.2021  133.6623  156.5990 LP  0  0  0  0  0  0  0  0  0  0  0  0  # atno 17394 bound_to 11000
  140.3589  134.7705  157.4520 LP  0  0  0  0  0  0  0  0  0  0  0  0  # atno 17395 bound_to 11000

$$$$
