AV-unprocessed.smi:13|AV-procd|sdf|71|dock2
  -GOLD-   2262015193D 1   1.00000     0.00000
 Structure written by MMmdl.
 54 58  0  0  0  0  0  0  0  0  1 V2000
  147.8769  136.2970  163.0567 C   0  0  0  0  0  0  0  0  0  0  0  0
  147.1458  135.9335  161.7645 C   0  0  0  0  0  0  0  0  0  0  0  0
  145.7557  135.4268  162.1734 C   0  0  0  0  0  0  0  0  0  0  0  0
  147.1422  137.0146  160.6729 C   0  0  0  0  0  0  0  0  0  0  0  0
  147.3849  135.9485  159.7172 N   0  0  0  0  0  0  0  0  0  0  0  0
  148.2096  136.3336  158.6206 C   0  0  0  0  0  0  0  0  0  0  0  0
  149.4958  135.9014  158.5294 N   0  0  0  0  0  0  0  0  0  0  0  0
  150.2708  136.2501  157.4988 C   0  0  0  0  0  0  0  0  0  0  0  0
  149.9678  137.0170  156.4511 N   0  0  0  0  0  0  0  0  0  0  0  0
  148.6789  137.4533  156.5223 C   0  0  0  0  0  0  0  0  0  0  0  0
  147.7450  137.1575  157.5561 C   0  0  0  0  0  0  0  0  0  0  0  0
  146.5277  137.7684  157.2799 N   0  0  0  0  0  0  0  0  0  0  0  0
  146.7322  138.3947  156.1535 C   0  0  0  0  0  0  0  0  0  0  0  0
  147.9996  138.2667  155.6323 N   0  0  0  0  0  0  0  0  0  0  0  0
  148.4975  138.8629  154.4021 C   0  0  0  0  0  0  0  0  0  0  0  0
  149.6481  139.8696  154.6332 C   0  0  1  0  0  0  0  0  0  0  0  0
  149.8168  140.6525  153.4636 O   0  0  0  0  0  0  0  0  0  0  0  0
  149.4285  140.8076  155.8166 C   0  0  0  0  0  0  0  0  0  0  0  0
  150.8435  141.0598  156.3172 C   0  0  0  0  0  0  0  0  0  0  0  0
  151.4499  139.7862  156.1800 O   0  0  0  0  0  0  0  0  0  0  0  0
  150.9946  139.1963  154.9663 C   0  0  0  0  0  0  0  0  0  0  0  0
  147.9552  135.0902  160.7499 C   0  0  2  0  0  0  0  0  0  0  0  0
  147.6556  133.6052  160.5178 C   0  0  2  0  0  0  0  0  0  0  0  0
  147.9869  132.7131  161.7151 C   0  0  0  0  0  0  0  0  0  0  0  0
  148.2833  131.3568  161.0924 C   0  0  0  0  0  0  0  0  0  0  0  0
  148.4141  131.6529  159.5971 C   0  0  0  0  0  0  0  0  0  0  0  0
  148.5024  133.0669  159.5148 O   0  0  0  0  0  0  0  0  0  0  0  0
  147.3447  137.0672  163.6157 H   0  0  0  0  0  0  0  0  0  0  0  0
  148.8778  136.6795  162.8548 H   0  0  0  0  0  0  0  0  0  0  0  0
  147.9891  135.4308  163.7096 H   0  0  0  0  0  0  0  0  0  0  0  0
  145.1755  135.0966  161.3113 H   0  0  0  0  0  0  0  0  0  0  0  0
  145.1773  136.2109  162.6629 H   0  0  0  0  0  0  0  0  0  0  0  0
  145.8146  134.5879  162.8662 H   0  0  0  0  0  0  0  0  0  0  0  0
  146.1867  137.5216  160.5350 H   0  0  0  0  0  0  0  0  0  0  0  0
  147.9758  137.7155  160.7504 H   0  0  0  0  0  0  0  0  0  0  0  0
  151.2767  135.8573  157.5173 H   0  0  0  0  0  0  0  0  0  0  0  0
  145.9608  138.9775  155.6714 H   0  0  0  0  0  0  0  0  0  0  0  0
  148.8286  138.0594  153.7427 H   0  0  0  0  0  0  0  0  0  0  0  0
  147.6639  139.3498  153.8942 H   0  0  0  0  0  0  0  0  0  0  0  0
  149.7001  140.0939  152.7102 H   0  0  0  0  0  0  0  0  0  0  0  0
  148.8896  141.7214  155.5629 H   0  0  0  0  0  0  0  0  0  0  0  0
  148.8690  140.2993  156.6022 H   0  0  0  0  0  0  0  0  0  0  0  0
  151.3603  141.7860  155.6881 H   0  0  0  0  0  0  0  0  0  0  0  0
  150.8716  141.4110  157.3489 H   0  0  0  0  0  0  0  0  0  0  0  0
  150.8961  138.1198  155.1099 H   0  0  0  0  0  0  0  0  0  0  0  0
  151.7381  139.3529  154.1831 H   0  0  0  0  0  0  0  0  0  0  0  0
  149.0212  135.2868  160.8817 H   0  0  0  0  0  0  0  0  0  0  0  0
  146.6166  133.4503  160.2210 H   0  0  0  0  0  0  0  0  0  0  0  0
  148.8785  133.0829  162.2234 H   0  0  0  0  0  0  0  0  0  0  0  0
  147.1805  132.6685  162.4462 H   0  0  0  0  0  0  0  0  0  0  0  0
  149.2048  130.9394  161.4993 H   0  0  0  0  0  0  0  0  0  0  0  0
  147.4802  130.6426  161.2764 H   0  0  0  0  0  0  0  0  0  0  0  0
  149.2856  131.1758  159.1483 H   0  0  0  0  0  0  0  0  0  0  0  0
  147.5263  131.3174  159.0594 H   0  0  0  0  0  0  0  0  0  0  0  0
  1  2  1  0  0  0  0
  1 28  1  0  0  0  0
  1 29  1  0  0  0  0
  1 30  1  0  0  0  0
  2 22  1  0  0  0  0
  2  3  1  0  0  0  0
  2  4  1  0  0  0  0
  3 31  1  0  0  0  0
  3 32  1  0  0  0  0
  3 33  1  0  0  0  0
  4  5  1  0  0  0  0
  4 34  1  0  0  0  0
  4 35  1  0  0  0  0
  5  6  1  0  0  0  0
  5 22  1  0  0  0  0
  6 11  1  0  0  0  0
  6  7  2  0  0  0  0
  7  8  1  0  0  0  0
  8  9  2  0  0  0  0
  8 36  1  0  0  0  0
  9 10  1  0  0  0  0
 10 14  1  0  0  0  0
 10 11  2  0  0  0  0
 11 12  1  0  0  0  0
 12 13  2  0  0  0  0
 13 14  1  0  0  0  0
 13 37  1  0  0  0  0
 14 15  1  0  0  0  0
 15 16  1  0  0  0  0
 15 38  1  0  0  0  0
 15 39  1  0  0  0  0
 16 21  1  0  0  0  0
 16 17  1  0  0  0  0
 16 18  1  0  0  0  0
 17 40  1  0  0  0  0
 18 19  1  0  0  0  0
 18 41  1  0  0  0  0
 18 42  1  0  0  0  0
 19 20  1  0  0  0  0
 19 43  1  0  0  0  0
 19 44  1  0  0  0  0
 20 21  1  0  0  0  0
 21 45  1  0  0  0  0
 21 46  1  0  0  0  0
 22 23  1  0  0  0  0
 22 47  1  0  0  0  0
 23 27  1  0  0  0  0
 23 24  1  0  0  0  0
 23 48  1  0  0  0  0
 24 25  1  0  0  0  0
 24 49  1  0  0  0  0
 24 50  1  0  0  0  0
 25 26  1  0  0  0  0
 25 51  1  0  0  0  0
 25 52  1  0  0  0  0
 26 27  1  0  0  0  0
 26 53  1  0  0  0  0
 26 54  1  0  0  0  0
M  END
> <s_m_source_file>
AV-unprocessed.smi

> <i_m_source_file_index>
13

> <i_lp_mmshare_version>
43012

> <i_f3d_flags>
0

> <s_epik_input>
TzFbQ0gyXVtDSDJdW0NIMl1bQ0BIXTFbQ0BASF0yTihbQ0gyXUMyKFtDSDNdKVtDSDNdKWMobltjSF1uMyljKGMzNCluW2NIXW40W0NIMl1bQ0BAXTUoW09IXSlbQ0gyXVtDSDJdT1tDSDJdNQ==

> <s_epik_cmdline>
J2VwaWtfcHl0aG9uJywgJy1waCcsICc3LjAnLCAnLXRuJywgJzgnLCAnLW1hJywgJzIwMCcsICctbWV0YWxfYmluZGluZycsICctaW1hZScsICc8aW5maWxlLm1hZT4nLCAnLW9tYWUnLCAnPG91dGZpbGUubWFlPic=

> <r_lp_tautomer_probability>
1

> <r_epik_Ionization_Penalty>
0.00202764

> <r_epik_Ionization_Penalty_Charging>
0

> <r_epik_Ionization_Penalty_Neutral>
0.00202764

> <r_epik_State_Penalty>
0.00134017

> <r_epik_Charging_Adjusted_Penalty>
0.00134017

> <i_epik_Tot_Q>
0

> <i_epik_Tot_abs_Q>
0

> <r_epik_Metal_State_Penalty>
-0

> <b_epik_Metal_Only>
0

> <s_lp_Force_Field>
OPLS_2005

> <r_lp_Energy>
61.7559

> <b_lp_Chiralities_Consistent>
1

> <s_lp_Variant>
AV-unprocessed.smi:13-3

> <Gold.Version>
5.8.1

> <Gold.Id.Protein>
6NUR|6NUR_protein|mol2

> <Gold.PLP.Fitness>
41.9407

> <Gold.PLP.PLP>
-33.7483

> <Gold.PLP.part.hbond>
-4.0406

> <Gold.PLP.part.metal>
0.0000

> <Gold.PLP.part.buried>
-2.6219

> <Gold.PLP.part.nonpolar>
-26.8904

> <Gold.PLP.part.repulsive>
0.0094

> <Gold.PLP.ligand.clash>
0.0000

> <Gold.PLP.ligand.torsion>
0.4831

> <Gold.PLP.Chemscore.Hbond>
2.9089

> <Gold.PLP.Chemscore.CHOScore>
0.0000

> <Gold.PLP.Chemscore.Metal>
0.0000

> <Gold.Chemscore.Hbonds>
donor molecule, donor type, donor heavy atom, donor atom, acceptor molecule, acceptor atom, score
      L1  H    17    40       P1  7957  0.90
      P1  H  6896  6909       L1     7  1.00
      P1  H  7989  7998       L1    17  0.40
      P1  H  8011  8017       L1    17  0.56

> <Gold.PLP.Chemscore.Internal.Correction>
0.4318

> <Gold.Rescore>
     Score         DG    S(hbond)    S(metal)    S(lipo)     H(rot)  DE(clash)    DE(int)     intcor
     13.78     -15.63       1.78        0.00      86.32       2.30       0.04       1.81       ----

> <Gold.Chemscore.Fitness>
13.7819

> <Gold.Chemscore.DG>
-15.6321

> <Gold.Chemscore.ZeroCoef>
-5.4800

> <Gold.Chemscore.Hbond>
1.7783

> <Gold.Chemscore.Metal>
0.0000

> <Gold.Chemscore.Lipo>
86.3196

> <Gold.Chemscore.Internal_Hbond>
0.0000

> <Gold.Chemscore.DEClash>
0.0408

> <Gold.Chemscore.DEInternal>
1.8095

> <Gold.Chemscore.Rot>
2.2996

> <Gold.Chemscore.Internal.Correction>
   9.000000E+99

> <Gold.Chemscore.Hbonds>
donor molecule, donor type, donor heavy atom, donor atom, acceptor molecule, acceptor atom, score
      L1  H    17    40       P1  7957  0.84
      P1  H  6896  6909       L1     7  0.32
      P1  H  7989  7998       L1    17  0.04
      P1  H  8011  8017       L1    17  0.05

> <Gold.Chemscore.Hbond.Weighted>
-5.9397

> <Gold.Chemscore.Metal.Weighted>
-0.0000

> <Gold.Chemscore.Lipo.Weighted>
-10.0994

> <Gold.Chemscore.Internal_Hbond.Weighted>
0.0000

> <Gold.Chemscore.DEClash.Weighted>
0.0408

> <Gold.Chemscore.DEInternal.Weighted>
1.8095

> <Gold.Chemscore.Rot.Weighted>
5.8869

> <Gold.Chemscore.Internal.Correction.Weighted>
   9.000000E+99

> <Gold.Protein.RotatedTorsions>
[ 6907 6896 6895 6894 ] final   58.04 input  -60.11 | X-H torsion
[ 7974 7965 7964 7962 ] final  165.69 input  175.53 | X-H torsion
[ 8008 7997 7996 7995 ] final  -47.57 input   59.86 | X-H torsion
[ 10167 10162 10161 10158 ] final  110.59 input  -65.29 | X-H torsion
[ 10718 10713 10712 10709 ] final -147.53 input   66.30 | X-H torsion
[ 10763 10752 10751 10750 ] final  100.09 input  -60.55 | X-H torsion
[ 11005 11000 10999 10996 ] final  116.21 input  -57.11 | X-H torsion

> <Gold.Protein.ActiveResidues>
 VAL166  LYS551  ARG553  GLY616  TRP617  ASP618  TYR619  PRO620  LYS621  CYS622 
 ASP623  PHE694  ASN695  SER759  ASP760  ASP761  ALA762  ILE779  LEU786  VAL792 
 PHE793  MET794  SER795  GLU796  ALA797  LYS798  CYS799  TRP800  GLU811  SER814 

> <Gold.Protein.RotatedAtoms>
  152.3787  134.6623  160.0150 H   0  0  0  0  0  0  0  0  0  0  0  0  # atno 6907 bound_to 6896
  151.6893  133.3305  159.3247 H   0  0  0  0  0  0  0  0  0  0  0  0  # atno 6908 bound_to 6896
  150.7730  134.6648  159.6404 H   0  0  0  0  0  0  0  0  0  0  0  0  # atno 6909 bound_to 6896
  144.7492  139.8506  143.6372 H   0  0  0  0  0  0  0  0  0  0  0  0  # atno 7974 bound_to 7965
  154.4018  140.1343  156.4197 H   0  0  0  0  0  0  0  0  0  0  0  0  # atno 8008 bound_to 7997
  155.7654  140.3485  155.5199 H   0  0  0  0  0  0  0  0  0  0  0  0  # atno 8009 bound_to 7997
  155.8818  140.0988  157.1470 H   0  0  0  0  0  0  0  0  0  0  0  0  # atno 8010 bound_to 7997
  139.6677  144.7127  151.1747 H   0  0  0  0  0  0  0  0  0  0  0  0  # atno 10167 bound_to 10162
  156.4087  130.7970  151.2186 H   0  0  0  0  0  0  0  0  0  0  0  0  # atno 10718 bound_to 10713
  153.3095  135.4091  155.1324 H   0  0  0  0  0  0  0  0  0  0  0  0  # atno 10763 bound_to 10752
  154.8572  135.3561  154.5742 H   0  0  0  0  0  0  0  0  0  0  0  0  # atno 10764 bound_to 10752
  153.6170  135.7066  153.5383 H   0  0  0  0  0  0  0  0  0  0  0  0  # atno 10765 bound_to 10752
  139.9034  134.9595  156.7163 H   0  0  0  0  0  0  0  0  0  0  0  0  # atno 11005 bound_to 11000
  146.1418  139.4477  143.0104 LP  0  0  0  0  0  0  0  0  0  0  0  0  # atno 17320 bound_to 7965
  145.7006  141.0137  143.1506 LP  0  0  0  0  0  0  0  0  0  0  0  0  # atno 17321 bound_to 7965
  140.7606  143.5894  150.8812 LP  0  0  0  0  0  0  0  0  0  0  0  0  # atno 17342 bound_to 10162
  139.9557  143.6221  152.3017 LP  0  0  0  0  0  0  0  0  0  0  0  0  # atno 17343 bound_to 10162
  157.7506  131.0264  150.3962 LP  0  0  0  0  0  0  0  0  0  0  0  0  # atno 17370 bound_to 10713
  156.4256  130.3961  149.6795 LP  0  0  0  0  0  0  0  0  0  0  0  0  # atno 17371 bound_to 10713
  140.7035  133.9285  155.8039 LP  0  0  0  0  0  0  0  0  0  0  0  0  # atno 17394 bound_to 11000
  141.0353  134.0698  157.3966 LP  0  0  0  0  0  0  0  0  0  0  0  0  # atno 17395 bound_to 11000

$$$$
