AV-unprocessed.smi:2022|AV-procd|sdf|8187|dock2
  -GOLD-   2272010443D 1   1.00000     0.00000
 Structure written by MMmdl.
 34 35  0  0  0  0  0  0  0  0  1 V2000
  146.9170  142.2182  154.2896 C   0  0  0  0  0  0  0  0  0  0  0  0
  146.7946  140.7339  154.2388 C   0  0  0  0  0  0  0  0  0  0  0  0
  147.0892  139.8098  153.2762 C   0  0  0  0  0  0  0  0  0  0  0  0
  146.7209  138.5823  153.8881 C   0  0  0  0  0  0  0  0  0  0  0  0
  146.8716  137.3526  153.1981 N   0  0  0  0  0  0  0  0  0  0  0  0
  145.9212  136.4413  152.9299 C   0  0  0  0  0  0  0  0  0  0  0  0
  144.7393  136.5289  153.2643 O   0  0  0  0  0  0  0  0  0  0  0  0
  146.4225  135.4065  152.2398 N   0  0  0  0  0  0  0  0  0  0  0  0
  145.6601  134.2609  151.7435 C   0  0  2  0  0  0  0  0  0  0  0  0
  146.5972  133.2306  151.0619 C   0  0  0  0  0  0  0  0  0  0  0  0
  145.9420  132.3088  150.0120 C   0  0  0  0  0  0  0  0  0  0  0  0
  144.6952  131.5383  150.4916 C   0  0  0  0  0  0  0  0  0  0  0  0
  143.5379  132.3820  151.0775 C   0  0  0  0  0  0  0  0  0  0  0  0
  143.5125  133.7718  150.6228 N   0  0  0  0  0  0  0  0  0  0  0  0
  144.4416  134.7001  150.9087 C   0  0  0  0  0  0  0  0  0  0  0  0
  144.3392  135.8574  150.5034 O   0  0  0  0  0  0  0  0  0  0  0  0
  146.2464  138.7418  155.1142 N   0  0  0  0  0  0  0  0  0  0  0  0
  146.2907  140.1220  155.3450 O   0  0  0  0  0  0  0  0  0  0  0  0
  147.5684  142.5820  153.4949 H   0  0  0  0  0  0  0  0  0  0  0  0
  147.3355  142.5414  155.2430 H   0  0  0  0  0  0  0  0  0  0  0  0
  145.9414  142.6895  154.1702 H   0  0  0  0  0  0  0  0  0  0  0  0
  147.4991  139.9873  152.2930 H   0  0  0  0  0  0  0  0  0  0  0  0
  147.8012  137.1505  152.8610 H   0  0  0  0  0  0  0  0  0  0  0  0
  147.4049  135.4217  152.0073 H   0  0  0  0  0  0  0  0  0  0  0  0
  145.2369  133.7805  152.6269 H   0  0  0  0  0  0  0  0  0  0  0  0
  147.4157  133.7572  150.5688 H   0  0  0  0  0  0  0  0  0  0  0  0
  147.0662  132.6181  151.8331 H   0  0  0  0  0  0  0  0  0  0  0  0
  145.6865  132.8927  149.1266 H   0  0  0  0  0  0  0  0  0  0  0  0
  146.6857  131.5891  149.6685 H   0  0  0  0  0  0  0  0  0  0  0  0
  144.3110  130.9751  149.6403 H   0  0  0  0  0  0  0  0  0  0  0  0
  144.9910  130.7880  151.2259 H   0  0  0  0  0  0  0  0  0  0  0  0
  142.5851  131.9193  150.8199 H   0  0  0  0  0  0  0  0  0  0  0  0
  143.5780  132.3653  152.1672 H   0  0  0  0  0  0  0  0  0  0  0  0
  142.7196  134.0553  150.0654 H   0  0  0  0  0  0  0  0  0  0  0  0
  1  2  1  0  0  0  0
  1 19  1  0  0  0  0
  1 20  1  0  0  0  0
  1 21  1  0  0  0  0
  2 18  1  0  0  0  0
  2  3  2  0  0  0  0
  3  4  1  0  0  0  0
  3 22  1  0  0  0  0
  4  5  1  0  0  0  0
  4 17  2  0  0  0  0
  5  6  1  0  0  0  0
  5 23  1  0  0  0  0
  6  7  2  0  0  0  0
  6  8  1  0  0  0  0
  8  9  1  0  0  0  0
  8 24  1  0  0  0  0
  9 15  1  0  0  0  0
  9 10  1  0  0  0  0
  9 25  1  0  0  0  0
 10 11  1  0  0  0  0
 10 26  1  0  0  0  0
 10 27  1  0  0  0  0
 11 12  1  0  0  0  0
 11 28  1  0  0  0  0
 11 29  1  0  0  0  0
 12 13  1  0  0  0  0
 12 30  1  0  0  0  0
 12 31  1  0  0  0  0
 13 14  1  0  0  0  0
 13 32  1  0  0  0  0
 13 33  1  0  0  0  0
 14 15  1  0  0  0  0
 14 34  1  0  0  0  0
 15 16  2  0  0  0  0
 17 18  1  0  0  0  0
M  END
> <s_m_source_file>
AV-unprocessed.smi

> <i_m_source_file_index>
2022

> <i_lp_mmshare_version>
43012

> <i_f3d_flags>
0

> <s_epik_input>
W0NIM11jMVtjSF1jKG5vMSlbTkhdQyg9TylbTkhdW0NAQEhdMltDSDJdW0NIMl1bQ0gyXVtDSDJdW05IXUMyPU8=

> <s_epik_cmdline>
J2VwaWtfcHl0aG9uJywgJy1waCcsICc3LjAnLCAnLXRuJywgJzgnLCAnLW1hJywgJzIwMCcsICctbWV0YWxfYmluZGluZycsICctaW1hZScsICc8aW5maWxlLm1hZT4nLCAnLW9tYWUnLCAnPG91dGZpbGUubWFlPic=

> <r_lp_tautomer_probability>
1

> <r_epik_Ionization_Penalty>
2.27343e-05

> <r_epik_Ionization_Penalty_Charging>
0

> <r_epik_Ionization_Penalty_Neutral>
2.27343e-05

> <r_epik_State_Penalty>
-0

> <r_epik_Charging_Adjusted_Penalty>
0

> <i_epik_Tot_Q>
0

> <i_epik_Tot_abs_Q>
0

> <r_epik_Metal_State_Penalty>
-0

> <b_epik_Metal_Only>
0

> <s_lp_Force_Field>
OPLS_2005

> <r_lp_Energy>
12.0489

> <b_lp_Chiralities_Consistent>
1

> <s_lp_Variant>
AV-unprocessed.smi:2022-1

> <Gold.Version>
5.8.1

> <Gold.Id.Protein>
6NUR|6NUR_protein|mol2

> <Gold.PLP.Fitness>
36.7923

> <Gold.PLP.PLP>
-28.8523

> <Gold.PLP.part.hbond>
-3.0000

> <Gold.PLP.part.metal>
0.0000

> <Gold.PLP.part.buried>
-5.7260

> <Gold.PLP.part.nonpolar>
-23.0276

> <Gold.PLP.part.repulsive>
2.4728

> <Gold.PLP.ligand.clash>
0.0000

> <Gold.PLP.ligand.torsion>
0.5567

> <Gold.PLP.Chemscore.Hbond>
3.0000

> <Gold.PLP.Chemscore.CHOScore>
0.0000

> <Gold.PLP.Chemscore.Metal>
0.0000

> <Gold.Chemscore.Hbonds>
donor molecule, donor type, donor heavy atom, donor atom, acceptor molecule, acceptor atom, score
      L1  H     5    23       P1  7948  1.00
      L1  H     8    24       P1  7948  1.00
      L1  H    14    34       P1 10186  1.00

> <Gold.PLP.Chemscore.Internal.Correction>
0.0533

> <Gold.Rescore>
     Score         DG    S(hbond)    S(metal)    S(lipo)     H(rot)  DE(clash)    DE(int)     intcor
     18.89     -19.74       2.94        0.00      59.98       1.00       0.35       0.51       ----

> <Gold.Chemscore.Fitness>
18.8858

> <Gold.Chemscore.DG>
-19.7415

> <Gold.Chemscore.ZeroCoef>
-5.4800

> <Gold.Chemscore.Hbond>
2.9353

> <Gold.Chemscore.Metal>
0.0000

> <Gold.Chemscore.Lipo>
59.9800

> <Gold.Chemscore.Internal_Hbond>
0.0000

> <Gold.Chemscore.DEClash>
0.3465

> <Gold.Chemscore.DEInternal>
0.5092

> <Gold.Chemscore.Rot>
1.0000

> <Gold.Chemscore.Internal.Correction>
   9.000000E+99

> <Gold.Chemscore.Hbonds>
donor molecule, donor type, donor heavy atom, donor atom, acceptor molecule, acceptor atom, score
      L1  H     5    23       P1  7948  0.97
      L1  H     8    24       P1  7948  0.97
      L1  H    14    34       P1 10186  0.99

> <Gold.Chemscore.Hbond.Weighted>
-9.8039

> <Gold.Chemscore.Metal.Weighted>
-0.0000

> <Gold.Chemscore.Lipo.Weighted>
-7.0177

> <Gold.Chemscore.Internal_Hbond.Weighted>
0.0000

> <Gold.Chemscore.DEClash.Weighted>
0.3465

> <Gold.Chemscore.DEInternal.Weighted>
0.5092

> <Gold.Chemscore.Rot.Weighted>
2.5600

> <Gold.Chemscore.Internal.Correction.Weighted>
   9.000000E+99

> <Gold.Protein.RotatedTorsions>
[ 6907 6896 6895 6894 ] final   45.78 input  -60.11 | X-H torsion
[ 7974 7965 7964 7962 ] final  113.60 input  175.53 | X-H torsion
[ 8008 7997 7996 7995 ] final    8.77 input   59.86 | X-H torsion
[ 10167 10162 10161 10158 ] final  -19.29 input  -65.29 | X-H torsion
[ 10718 10713 10712 10709 ] final    4.89 input   66.30 | X-H torsion
[ 10763 10752 10751 10750 ] final  -98.70 input  -60.55 | X-H torsion
[ 11005 11000 10999 10996 ] final -171.27 input  -57.11 | X-H torsion

> <Gold.Protein.ActiveResidues>
 VAL166  LYS551  ARG553  GLY616  TRP617  ASP618  TYR619  PRO620  LYS621  CYS622 
 ASP623  PHE694  ASN695  SER759  ASP760  ASP761  ALA762  ILE779  LEU786  VAL792 
 PHE793  MET794  SER795  GLU796  ALA797  LYS798  CYS799  TRP800  GLU811  SER814 

> <Gold.Protein.RotatedAtoms>
  152.2486  134.8156  160.0449 H   0  0  0  0  0  0  0  0  0  0  0  0  # atno 6907 bound_to 6896
  151.8844  133.3497  159.3785 H   0  0  0  0  0  0  0  0  0  0  0  0  # atno 6908 bound_to 6896
  150.7076  134.4912  159.5561 H   0  0  0  0  0  0  0  0  0  0  0  0  # atno 6909 bound_to 6896
  145.2149  139.2889  143.4249 H   0  0  0  0  0  0  0  0  0  0  0  0  # atno 7974 bound_to 7965
  154.7712  140.2802  155.6136 H   0  0  0  0  0  0  0  0  0  0  0  0  # atno 8008 bound_to 7997
  156.2934  140.2641  156.2443 H   0  0  0  0  0  0  0  0  0  0  0  0  # atno 8009 bound_to 7997
  154.9897  140.0374  157.2304 H   0  0  0  0  0  0  0  0  0  0  0  0  # atno 8010 bound_to 7997
  140.7267  143.4833  151.0088 H   0  0  0  0  0  0  0  0  0  0  0  0  # atno 10167 bound_to 10162
  156.8994  130.5716  149.5648 H   0  0  0  0  0  0  0  0  0  0  0  0  # atno 10718 bound_to 10713
  154.7436  135.4999  153.9165 H   0  0  0  0  0  0  0  0  0  0  0  0  # atno 10763 bound_to 10752
  153.1069  135.6699  153.9579 H   0  0  0  0  0  0  0  0  0  0  0  0  # atno 10764 bound_to 10752
  153.9349  135.3074  155.3423 H   0  0  0  0  0  0  0  0  0  0  0  0  # atno 10765 bound_to 10752
  140.5101  134.5810  157.5016 H   0  0  0  0  0  0  0  0  0  0  0  0  # atno 11005 bound_to 11000
  146.3389  140.2436  142.8596 LP  0  0  0  0  0  0  0  0  0  0  0  0  # atno 17320 bound_to 7965
  144.9821  140.8469  143.5391 LP  0  0  0  0  0  0  0  0  0  0  0  0  # atno 17321 bound_to 7965
  139.8533  143.7409  152.3177 LP  0  0  0  0  0  0  0  0  0  0  0  0  # atno 17342 bound_to 10162
  139.7599  144.7509  151.0379 LP  0  0  0  0  0  0  0  0  0  0  0  0  # atno 17343 bound_to 10162
  156.0589  130.5646  150.9152 LP  0  0  0  0  0  0  0  0  0  0  0  0  # atno 17370 bound_to 10713
  157.6035  131.0940  150.8919 LP  0  0  0  0  0  0  0  0  0  0  0  0  # atno 17371 bound_to 10713
  139.9664  134.7366  156.0130 LP  0  0  0  0  0  0  0  0  0  0  0  0  # atno 17394 bound_to 11000
  141.1390  133.6569  156.3675 LP  0  0  0  0  0  0  0  0  0  0  0  0  # atno 17395 bound_to 11000

$$$$
