AV-unprocessed.smi:1644|AV-procd|sdf|6594|dock1
  -GOLD-   22720 7293D 1   1.00000     0.00000
 Structure written by MMmdl.
 48 50  0  0  0  0  0  0  0  0  2 V2000
  143.8995  146.0894  158.0330 C   0  0  0  0  0  0  0  0  0  0  0  0
  143.7381  144.7448  157.3154 C   0  0  0  0  0  0  0  0  0  0  0  0
  144.6334  144.6367  156.0721 C   0  0  0  0  0  0  0  0  0  0  0  0
  144.6096  143.2408  155.4184 C   0  0  2  0  0  0  0  0  0  0  0  0
  145.0776  142.2173  156.3296 N   0  5  0  0  0  0  0  0  0  0  0  0
  146.1166  141.5683  155.7542 C   0  0  0  0  0  0  0  0  0  0  0  0
  146.7368  140.6154  156.2246 O   0  0  0  0  0  0  0  0  0  0  0  0
  146.4122  142.0949  154.5501 N   0  0  0  0  0  0  0  0  0  0  0  0
  147.4304  141.5770  153.6268 C   0  0  0  0  0  0  0  0  0  0  0  0
  148.7166  141.0594  154.3099 C   0  0  1  0  0  0  0  0  0  0  0  0
  149.6796  140.8789  153.2920 O   0  0  0  0  0  0  0  0  0  0  0  0
  149.3276  142.0045  155.3676 C   0  0  0  0  0  0  0  0  0  0  0  0
  150.2270  141.3436  156.2983 N   0  0  0  0  0  0  0  0  0  0  0  0
  150.7222  140.0940  156.1977 C   0  0  0  0  0  0  0  0  0  0  0  0
  151.5868  139.7017  157.1283 N   0  0  0  0  0  0  0  0  0  0  0  0
  151.6684  140.8304  157.9238 C   0  0  0  0  0  0  0  0  0  0  0  0
  152.4264  141.0738  159.0904 C   0  0  0  0  0  0  0  0  0  0  0  0
  152.3465  142.3153  159.7601 C   0  0  0  0  0  0  0  0  0  0  0  0
  153.1624  142.5266  161.0229 C   0  0  0  0  0  0  0  0  0  0  0  0
  151.5078  143.3413  159.2559 C   0  0  0  0  0  0  0  0  0  0  0  0
  151.3952  144.6785  159.9653 C   0  0  0  0  0  0  0  0  0  0  0  0
  150.7558  143.1200  158.0835 C   0  0  0  0  0  0  0  0  0  0  0  0
  150.8314  141.8754  157.4329 C   0  0  0  0  0  0  0  0  0  0  0  0
  145.5907  143.1127  154.2705 C   0  0  0  0  0  0  0  0  0  0  0  0
  145.5869  143.8257  153.2660 O   0  0  0  0  0  0  0  0  0  0  0  0
  143.2576  146.1396  158.9125 H   0  0  0  0  0  0  0  0  0  0  0  0
  143.6337  146.9191  157.3777 H   0  0  0  0  0  0  0  0  0  0  0  0
  144.9286  146.2379  158.3616 H   0  0  0  0  0  0  0  0  0  0  0  0
  143.9735  143.9377  158.0098 H   0  0  0  0  0  0  0  0  0  0  0  0
  142.6946  144.6114  157.0283 H   0  0  0  0  0  0  0  0  0  0  0  0
  144.3132  145.3880  155.3484 H   0  0  0  0  0  0  0  0  0  0  0  0
  145.6543  144.8957  156.3459 H   0  0  0  0  0  0  0  0  0  0  0  0
  143.6122  143.0294  155.0305 H   0  0  0  0  0  0  0  0  0  0  0  0
  146.9730  140.7656  153.0574 H   0  0  0  0  0  0  0  0  0  0  0  0
  147.6942  142.3325  152.8844 H   0  0  0  0  0  0  0  0  0  0  0  0
  148.5455  140.0724  154.7391 H   0  0  0  0  0  0  0  0  0  0  0  0
  149.3133  140.3108  152.6318 H   0  0  0  0  0  0  0  0  0  0  0  0
  149.9133  142.7816  154.8741 H   0  0  0  0  0  0  0  0  0  0  0  0
  148.5413  142.5191  155.9206 H   0  0  0  0  0  0  0  0  0  0  0  0
  150.4417  139.4372  155.3875 H   0  0  0  0  0  0  0  0  0  0  0  0
  153.0620  140.2901  159.4748 H   0  0  0  0  0  0  0  0  0  0  0  0
  153.8809  143.3343  160.8823 H   0  0  0  0  0  0  0  0  0  0  0  0
  153.7161  141.6271  161.2937 H   0  0  0  0  0  0  0  0  0  0  0  0
  152.5127  142.7820  161.8601 H   0  0  0  0  0  0  0  0  0  0  0  0
  150.7177  145.3515  159.4391 H   0  0  0  0  0  0  0  0  0  0  0  0
  152.3695  145.1635  160.0263 H   0  0  0  0  0  0  0  0  0  0  0  0
  151.0104  144.5410  160.9761 H   0  0  0  0  0  0  0  0  0  0  0  0
  150.1093  143.8922  157.6940 H   0  0  0  0  0  0  0  0  0  0  0  0
  1  2  1  0  0  0  0
  1 26  1  0  0  0  0
  1 27  1  0  0  0  0
  1 28  1  0  0  0  0
  2  3  1  0  0  0  0
  2 29  1  0  0  0  0
  2 30  1  0  0  0  0
  3  4  1  0  0  0  0
  3 31  1  0  0  0  0
  3 32  1  0  0  0  0
  4 24  1  0  0  0  0
  4  5  1  0  0  0  0
  4 33  1  0  0  0  0
  5  6  1  0  0  0  0
  6  7  2  0  0  0  0
  6  8  1  0  0  0  0
  8  9  1  0  0  0  0
  8 24  1  0  0  0  0
  9 10  1  0  0  0  0
  9 34  1  0  0  0  0
  9 35  1  0  0  0  0
 10 11  1  0  0  0  0
 10 12  1  0  0  0  0
 10 36  1  0  0  0  0
 11 37  1  0  0  0  0
 12 13  1  0  0  0  0
 12 38  1  0  0  0  0
 12 39  1  0  0  0  0
 13 23  1  0  0  0  0
 13 14  1  0  0  0  0
 14 15  2  0  0  0  0
 14 40  1  0  0  0  0
 15 16  1  0  0  0  0
 16 23  2  0  0  0  0
 16 17  1  0  0  0  0
 17 18  2  0  0  0  0
 17 41  1  0  0  0  0
 18 19  1  0  0  0  0
 18 20  1  0  0  0  0
 19 42  1  0  0  0  0
 19 43  1  0  0  0  0
 19 44  1  0  0  0  0
 20 21  1  0  0  0  0
 20 22  2  0  0  0  0
 21 45  1  0  0  0  0
 21 46  1  0  0  0  0
 21 47  1  0  0  0  0
 22 23  1  0  0  0  0
 22 48  1  0  0  0  0
 24 25  2  0  0  0  0
M  CHG  1   5  -1
M  END
> <s_m_source_file>
AV-unprocessed.smi

> <i_m_source_file_index>
1644

> <i_lp_mmshare_version>
43012

> <i_f3d_flags>
0

> <s_epik_input>
W0NIM11bQ0gyXVtDSDJdW0NAQEhdMVtOSF1DKD1PKU4oQzE9TylbQ0gyXVtDQEhdKFtPSF0pW0NIMl1uKFtjSF1uMiljKGMyMylbY0hdYyhbQ0gzXSljKFtjSF0zKVtDSDNd

> <s_epik_cmdline>
J2VwaWtfcHl0aG9uJywgJy1waCcsICc3LjAnLCAnLXRuJywgJzgnLCAnLW1hJywgJzIwMCcsICctbWV0YWxfYmluZGluZycsICctaW1hZScsICc8aW5maWxlLm1hZT4nLCAnLW9tYWUnLCAnPG91dGZpbGUubWFlPic=

> <r_lp_tautomer_probability>
1

> <r_epik_Ionization_Penalty>
5.95212

> <r_epik_Ionization_Penalty_Charging>
5.84419

> <r_epik_Ionization_Penalty_Neutral>
0.107924

> <r_epik_State_Penalty>
5.94088

> <r_epik_Charging_Adjusted_Penalty>
11.7851

> <i_epik_Tot_Q>
-1

> <i_epik_Tot_abs_Q>
1

> <r_epik_Metal_State_Penalty>
1.99095

> <b_epik_Metal_Only>
1

> <s_lp_Force_Field>
OPLS_2005

> <r_lp_Energy>
16.2411

> <b_lp_Chiralities_Consistent>
1

> <s_lp_Variant>
AV-unprocessed.smi:1644-11

> <Gold.Version>
5.8.1

> <Gold.Id.Protein>
6NUR|6NUR_protein|mol2

> <Gold.PLP.Fitness>
52.9191

> <Gold.PLP.PLP>
-48.5056

> <Gold.PLP.part.hbond>
-1.9409

> <Gold.PLP.part.metal>
0.0000

> <Gold.PLP.part.buried>
-4.6925

> <Gold.PLP.part.nonpolar>
-42.3233

> <Gold.PLP.part.repulsive>
0.2927

> <Gold.PLP.ligand.clash>
0.0000

> <Gold.PLP.ligand.torsion>
0.7021

> <Gold.PLP.Chemscore.Hbond>
1.8480

> <Gold.PLP.Chemscore.CHOScore>
0.0000

> <Gold.PLP.Chemscore.Metal>
0.0000

> <Gold.Chemscore.Hbonds>
donor molecule, donor type, donor heavy atom, donor atom, acceptor molecule, acceptor atom, score
      L1  H    11    37       P1  7957  0.68
      P1  H  7989  7998       L1    11  0.22
      P1  H  8011  8017       L1    11  0.95

> <Gold.PLP.Chemscore.Internal.Correction>
0.2736

> <Gold.Rescore>
     Score         DG    S(hbond)    S(metal)    S(lipo)     H(rot)  DE(clash)    DE(int)     intcor
     13.02     -16.44       1.33        0.00     113.56       2.65       1.38       2.04       ----

> <Gold.Chemscore.Fitness>
13.0218

> <Gold.Chemscore.DG>
-16.4379

> <Gold.Chemscore.ZeroCoef>
-5.4800

> <Gold.Chemscore.Hbond>
1.3327

> <Gold.Chemscore.Metal>
0.0000

> <Gold.Chemscore.Lipo>
113.5643

> <Gold.Chemscore.Internal_Hbond>
0.0000

> <Gold.Chemscore.DEClash>
1.3794

> <Gold.Chemscore.DEInternal>
2.0367

> <Gold.Chemscore.Rot>
2.6486

> <Gold.Chemscore.Internal.Correction>
   9.000000E+99

> <Gold.Chemscore.Hbonds>
donor molecule, donor type, donor heavy atom, donor atom, acceptor molecule, acceptor atom, score
      L1  H    11    37       P1  7957  0.65
      P1  H  7989  7998       L1    11  0.21
      P1  H  8011  8017       L1    11  0.15

> <Gold.Chemscore.Hbond.Weighted>
-4.4513

> <Gold.Chemscore.Metal.Weighted>
-0.0000

> <Gold.Chemscore.Lipo.Weighted>
-13.2870

> <Gold.Chemscore.Internal_Hbond.Weighted>
0.0000

> <Gold.Chemscore.DEClash.Weighted>
1.3794

> <Gold.Chemscore.DEInternal.Weighted>
2.0367

> <Gold.Chemscore.Rot.Weighted>
6.7804

> <Gold.Chemscore.Internal.Correction.Weighted>
   9.000000E+99

> <Gold.Protein.RotatedTorsions>
[ 6907 6896 6895 6894 ] final   41.67 input  -60.11 | X-H torsion
[ 7974 7965 7964 7962 ] final -119.52 input  175.53 | X-H torsion
[ 8008 7997 7996 7995 ] final -169.24 input   59.86 | X-H torsion
[ 10167 10162 10161 10158 ] final -156.02 input  -65.29 | X-H torsion
[ 10718 10713 10712 10709 ] final  -26.00 input   66.30 | X-H torsion
[ 10763 10752 10751 10750 ] final   60.25 input  -60.55 | X-H torsion
[ 11005 11000 10999 10996 ] final   45.32 input  -57.11 | X-H torsion

> <Gold.Protein.ActiveResidues>
 VAL166  LYS551  ARG553  GLY616  TRP617  ASP618  TYR619  PRO620  LYS621  CYS622 
 ASP623  PHE694  ASN695  SER759  ASP760  ASP761  ALA762  ILE779  LEU786  VAL792 
 PHE793  MET794  SER795  GLU796  ALA797  LYS798  CYS799  TRP800  GLU811  SER814 

> <Gold.Protein.RotatedAtoms>
  152.1982  134.8612  160.0510 H   0  0  0  0  0  0  0  0  0  0  0  0  # atno 6907 bound_to 6896
  151.9475  133.3651  159.3996 H   0  0  0  0  0  0  0  0  0  0  0  0  # atno 6908 bound_to 6896
  150.6949  134.4299  159.5287 H   0  0  0  0  0  0  0  0  0  0  0  0  # atno 6909 bound_to 6896
  145.0616  140.8294  143.4149 H   0  0  0  0  0  0  0  0  0  0  0  0  # atno 7974 bound_to 7965
  155.9023  140.1043  157.1341 H   0  0  0  0  0  0  0  0  0  0  0  0  # atno 8008 bound_to 7997
  154.4028  140.1290  156.4516 H   0  0  0  0  0  0  0  0  0  0  0  0  # atno 8009 bound_to 7997
  155.7408  140.3467  155.5106 H   0  0  0  0  0  0  0  0  0  0  0  0  # atno 8010 bound_to 7997
  139.6884  143.9463  152.2372 H   0  0  0  0  0  0  0  0  0  0  0  0  # atno 10167 bound_to 10162
  156.4569  130.4495  149.6954 H   0  0  0  0  0  0  0  0  0  0  0  0  # atno 10718 bound_to 10713
  152.9916  135.5543  154.5843 H   0  0  0  0  0  0  0  0  0  0  0  0  # atno 10763 bound_to 10752
  154.5218  135.2808  155.1258 H   0  0  0  0  0  0  0  0  0  0  0  0  # atno 10764 bound_to 10752
  154.2609  135.6381  153.5327 H   0  0  0  0  0  0  0  0  0  0  0  0  # atno 10765 bound_to 10752
  140.1471  134.4509  155.8408 H   0  0  0  0  0  0  0  0  0  0  0  0  # atno 11005 bound_to 11000
  145.1402  139.2577  143.5494 LP  0  0  0  0  0  0  0  0  0  0  0  0  # atno 17320 bound_to 7965
  146.3524  140.1077  142.8605 LP  0  0  0  0  0  0  0  0  0  0  0  0  # atno 17321 bound_to 7965
  139.9272  144.6764  150.8400 LP  0  0  0  0  0  0  0  0  0  0  0  0  # atno 17342 bound_to 10162
  140.7675  143.3334  151.2361 LP  0  0  0  0  0  0  0  0  0  0  0  0  # atno 17343 bound_to 10162
  156.3757  130.7553  151.2541 LP  0  0  0  0  0  0  0  0  0  0  0  0  # atno 17370 bound_to 10713
  157.7500  131.0310  150.4162 LP  0  0  0  0  0  0  0  0  0  0  0  0  # atno 17371 bound_to 10713
  141.2194  133.6857  156.7353 LP  0  0  0  0  0  0  0  0  0  0  0  0  # atno 17394 bound_to 11000
  140.2650  134.8437  157.3794 LP  0  0  0  0  0  0  0  0  0  0  0  0  # atno 17395 bound_to 11000

$$$$
