AV-unprocessed.smi:314|AV-procd|sdf|2314|dock4
  -GOLD-   2262022213D 1   1.00000     0.00000
 Structure written by MMmdl.
 48 49  0  0  0  0  0  0  0  0  1 V2000
  151.6339  145.3861  157.9249 C   0  0  0  0  0  0  0  0  0  0  0  0
  151.6744  145.1054  159.3197 O   0  0  0  0  0  0  0  0  0  0  0  0
  152.1739  143.8856  159.7280 C   0  0  0  0  0  0  0  0  0  0  0  0
  152.1380  143.5677  161.1004 C   0  0  0  0  0  0  0  0  0  0  0  0
  152.6393  142.3224  161.5246 C   0  0  0  0  0  0  0  0  0  0  0  0
  153.1567  141.4289  160.5572 C   0  0  0  0  0  0  0  0  0  0  0  0
  153.7061  140.1561  160.8653 N   0  0  0  0  0  0  0  0  0  0  0  0
  154.2171  139.2473  160.0178 C   0  0  0  0  0  0  0  0  0  0  0  0
  154.3188  139.3902  158.7993 O   0  0  0  0  0  0  0  0  0  0  0  0
  154.6372  138.1554  160.6724 N   0  0  0  0  0  0  0  0  0  0  0  0
  155.2737  137.0014  160.0475 C   0  0  0  0  0  0  0  0  0  0  0  0
  154.3593  135.7609  160.1004 C   0  0  0  0  0  0  0  0  0  0  0  0
  153.6322  135.5789  161.4435 C   0  0  0  0  0  0  0  0  0  0  0  0
  152.8341  136.4414  161.8137 O   0  0  0  0  0  0  0  0  0  0  0  0
  153.8857  134.4688  162.1775 N   0  0  0  0  0  0  0  0  0  0  0  0
  154.7827  133.3705  161.8056 C   0  0  0  0  0  0  0  0  0  0  0  0
  153.9518  132.0880  161.5896 C   0  0  2  0  0  0  0  0  0  0  0  0
  153.0902  132.1103  160.3141 C   0  0  0  0  0  0  0  0  0  0  0  0
  153.1606  131.8218  162.7522 O   0  0  0  0  0  0  0  0  0  0  0  0
  152.3278  132.8966  163.1948 C   0  0  1  0  0  0  0  0  0  0  0  0
  151.6107  132.4446  164.4717 C   0  0  0  0  0  0  0  0  0  0  0  0
  153.1892  134.1534  163.4260 C   0  0  0  0  0  0  0  0  0  0  0  0
  153.1654  141.8497  159.2114 C   0  0  0  0  0  0  0  0  0  0  0  0
  152.6833  143.0405  158.7977 N   0  0  0  0  0  0  0  0  0  0  0  0
  151.2083  146.3773  157.7684 H   0  0  0  0  0  0  0  0  0  0  0  0
  151.0071  144.6696  157.3920 H   0  0  0  0  0  0  0  0  0  0  0  0
  152.6334  145.3826  157.4877 H   0  0  0  0  0  0  0  0  0  0  0  0
  151.7354  144.2687  161.8168 H   0  0  0  0  0  0  0  0  0  0  0  0
  152.6302  142.0836  162.5768 H   0  0  0  0  0  0  0  0  0  0  0  0
  153.7783  139.9404  161.8488 H   0  0  0  0  0  0  0  0  0  0  0  0
  154.5166  138.1227  161.6741 H   0  0  0  0  0  0  0  0  0  0  0  0
  155.4952  137.2614  159.0118 H   0  0  0  0  0  0  0  0  0  0  0  0
  156.2318  136.8014  160.5314 H   0  0  0  0  0  0  0  0  0  0  0  0
  153.6088  135.8356  159.3125 H   0  0  0  0  0  0  0  0  0  0  0  0
  154.9540  134.8692  159.8985 H   0  0  0  0  0  0  0  0  0  0  0  0
  155.3906  133.5719  160.9250 H   0  0  0  0  0  0  0  0  0  0  0  0
  155.4947  133.2124  162.6169 H   0  0  0  0  0  0  0  0  0  0  0  0
  154.6450  131.2520  161.4932 H   0  0  0  0  0  0  0  0  0  0  0  0
  153.7157  132.2141  159.4272 H   0  0  0  0  0  0  0  0  0  0  0  0
  152.3789  132.9356  160.3066 H   0  0  0  0  0  0  0  0  0  0  0  0
  152.5256  131.1834  160.2120 H   0  0  0  0  0  0  0  0  0  0  0  0
  151.5715  133.1064  162.4379 H   0  0  0  0  0  0  0  0  0  0  0  0
  150.9465  133.2239  164.8459 H   0  0  0  0  0  0  0  0  0  0  0  0
  152.3234  132.2038  165.2610 H   0  0  0  0  0  0  0  0  0  0  0  0
  151.0072  131.5560  164.2851 H   0  0  0  0  0  0  0  0  0  0  0  0
  153.9224  133.9741  164.2140 H   0  0  0  0  0  0  0  0  0  0  0  0
  152.5629  134.9737  163.7791 H   0  0  0  0  0  0  0  0  0  0  0  0
  153.5644  141.2088  158.4387 H   0  0  0  0  0  0  0  0  0  0  0  0
  1  2  1  0  0  0  0
  1 25  1  0  0  0  0
  1 26  1  0  0  0  0
  1 27  1  0  0  0  0
  2  3  1  0  0  0  0
  3 24  1  0  0  0  0
  3  4  2  0  0  0  0
  4  5  1  0  0  0  0
  4 28  1  0  0  0  0
  5  6  2  0  0  0  0
  5 29  1  0  0  0  0
  6  7  1  0  0  0  0
  6 23  1  0  0  0  0
  7  8  1  0  0  0  0
  7 30  1  0  0  0  0
  8  9  2  0  0  0  0
  8 10  1  0  0  0  0
 10 11  1  0  0  0  0
 10 31  1  0  0  0  0
 11 12  1  0  0  0  0
 11 32  1  0  0  0  0
 11 33  1  0  0  0  0
 12 13  1  0  0  0  0
 12 34  1  0  0  0  0
 12 35  1  0  0  0  0
 13 14  2  0  0  0  0
 13 15  1  0  0  0  0
 15 22  1  0  0  0  0
 15 16  1  0  0  0  0
 16 17  1  0  0  0  0
 16 36  1  0  0  0  0
 16 37  1  0  0  0  0
 17 18  1  0  0  0  0
 17 19  1  0  0  0  0
 17 38  1  0  0  0  0
 18 39  1  0  0  0  0
 18 40  1  0  0  0  0
 18 41  1  0  0  0  0
 19 20  1  0  0  0  0
 20 21  1  0  0  0  0
 20 22  1  0  0  0  0
 20 42  1  0  0  0  0
 21 43  1  0  0  0  0
 21 44  1  0  0  0  0
 21 45  1  0  0  0  0
 22 46  1  0  0  0  0
 22 47  1  0  0  0  0
 23 24  2  0  0  0  0
 23 48  1  0  0  0  0
M  END
> <s_m_source_file>
AV-unprocessed.smi

> <i_m_source_file_index>
314

> <i_lp_mmshare_version>
43012

> <i_f3d_flags>
0

> <s_epik_input>
W0NIM11PYzFbY0hdW2NIXWMoW2NIXW4xKVtOSF1DKD1PKVtOSF1bQ0gyXVtDSDJdQyg9TylOMltDSDJdW0NAQEhdKFtDSDNdKU9bQ0BASF0oW0NIM10pW0NIMl0y

> <s_epik_cmdline>
J2VwaWtfcHl0aG9uJywgJy1waCcsICc3LjAnLCAnLXRuJywgJzgnLCAnLW1hJywgJzIwMCcsICctbWV0YWxfYmluZGluZycsICctaW1hZScsICc8aW5maWxlLm1hZT4nLCAnLW9tYWUnLCAnPG91dGZpbGUubWFlPic=

> <r_lp_tautomer_probability>
1

> <r_epik_Ionization_Penalty>
8.55977e-05

> <r_epik_Ionization_Penalty_Charging>
0

> <r_epik_Ionization_Penalty_Neutral>
8.55977e-05

> <r_epik_State_Penalty>
-0

> <r_epik_Charging_Adjusted_Penalty>
0

> <i_epik_Tot_Q>
0

> <i_epik_Tot_abs_Q>
0

> <r_epik_Metal_State_Penalty>
-0

> <b_epik_Metal_Only>
0

> <s_lp_Force_Field>
OPLS_2005

> <r_lp_Energy>
25.8744

> <b_lp_Chiralities_Consistent>
1

> <s_lp_Variant>
AV-unprocessed.smi:314-2

> <Gold.Version>
5.8.1

> <Gold.Id.Protein>
6NUR|6NUR_protein|mol2

> <Gold.PLP.Fitness>
45.0381

> <Gold.PLP.PLP>
-42.3810

> <Gold.PLP.part.hbond>
-1.0000

> <Gold.PLP.part.metal>
0.0000

> <Gold.PLP.part.buried>
-6.9534

> <Gold.PLP.part.nonpolar>
-33.0738

> <Gold.PLP.part.repulsive>
0.1412

> <Gold.PLP.ligand.clash>
0.0835

> <Gold.PLP.ligand.torsion>
0.1431

> <Gold.PLP.Chemscore.Hbond>
1.0000

> <Gold.PLP.Chemscore.CHOScore>
0.0000

> <Gold.PLP.Chemscore.Metal>
0.0000

> <Gold.Chemscore.Hbonds>
donor molecule, donor type, donor heavy atom, donor atom, acceptor molecule, acceptor atom, score
      P1  H  7997  8010       L1     9  1.00

> <Gold.PLP.Chemscore.Internal.Correction>
0.0269

> <Gold.Rescore>
     Score         DG    S(hbond)    S(metal)    S(lipo)     H(rot)  DE(clash)    DE(int)     intcor
     11.59     -14.66       0.99        0.00      89.89       1.81       0.01       3.06       ----

> <Gold.Chemscore.Fitness>
11.5901

> <Gold.Chemscore.DG>
-14.6634

> <Gold.Chemscore.ZeroCoef>
-5.4800

> <Gold.Chemscore.Hbond>
0.9855

> <Gold.Chemscore.Metal>
0.0000

> <Gold.Chemscore.Lipo>
89.8873

> <Gold.Chemscore.Internal_Hbond>
0.0000

> <Gold.Chemscore.DEClash>
0.0089

> <Gold.Chemscore.DEInternal>
3.0644

> <Gold.Chemscore.Rot>
1.8067

> <Gold.Chemscore.Internal.Correction>
   9.000000E+99

> <Gold.Chemscore.Hbonds>
donor molecule, donor type, donor heavy atom, donor atom, acceptor molecule, acceptor atom, score
      P1  H  7997  8010       L1     9  1.00

> <Gold.Chemscore.Hbond.Weighted>
-3.2917

> <Gold.Chemscore.Metal.Weighted>
-0.0000

> <Gold.Chemscore.Lipo.Weighted>
-10.5168

> <Gold.Chemscore.Internal_Hbond.Weighted>
0.0000

> <Gold.Chemscore.DEClash.Weighted>
0.0089

> <Gold.Chemscore.DEInternal.Weighted>
3.0644

> <Gold.Chemscore.Rot.Weighted>
4.6252

> <Gold.Chemscore.Internal.Correction.Weighted>
   9.000000E+99

> <Gold.Protein.RotatedTorsions>
[ 6907 6896 6895 6894 ] final   16.11 input  -60.11 | X-H torsion
[ 7974 7965 7964 7962 ] final  -50.89 input  175.53 | X-H torsion
[ 8008 7997 7996 7995 ] final    2.81 input   59.86 | X-H torsion
[ 10167 10162 10161 10158 ] final  -97.39 input  -65.29 | X-H torsion
[ 10718 10713 10712 10709 ] final  -29.83 input   66.30 | X-H torsion
[ 10763 10752 10751 10750 ] final   93.37 input  -60.55 | X-H torsion
[ 11005 11000 10999 10996 ] final   65.00 input  -57.11 | X-H torsion

> <Gold.Protein.ActiveResidues>
 VAL166  LYS551  ARG553  GLY616  TRP617  ASP618  TYR619  PRO620  LYS621  CYS622 
 ASP623  PHE694  ASN695  SER759  ASP760  ASP761  ALA762  ILE779  LEU786  VAL792 
 PHE793  MET794  SER795  GLU796  ALA797  LYS798  CYS799  TRP800  GLU811  SER814 

> <Gold.Protein.RotatedAtoms>
  151.8286  135.0628  160.0433 H   0  0  0  0  0  0  0  0  0  0  0  0  # atno 6907 bound_to 6896
  152.2897  133.5545  159.5558 H   0  0  0  0  0  0  0  0  0  0  0  0  # atno 6908 bound_to 6896
  150.7224  134.0362  159.3792 H   0  0  0  0  0  0  0  0  0  0  0  0  # atno 6909 bound_to 6896
  145.9250  140.7800  142.9628 H   0  0  0  0  0  0  0  0  0  0  0  0  # atno 7974 bound_to 7965
  154.6961  140.2663  155.6765 H   0  0  0  0  0  0  0  0  0  0  0  0  # atno 8008 bound_to 7997
  156.2749  140.2781  156.1479 H   0  0  0  0  0  0  0  0  0  0  0  0  # atno 8009 bound_to 7997
  155.0829  140.0373  157.2635 H   0  0  0  0  0  0  0  0  0  0  0  0  # atno 8010 bound_to 7997
  140.2839  143.3264  152.0414 H   0  0  0  0  0  0  0  0  0  0  0  0  # atno 10167 bound_to 10162
  156.4075  130.4402  149.7277 H   0  0  0  0  0  0  0  0  0  0  0  0  # atno 10718 bound_to 10713
  153.2295  135.4328  155.0580 H   0  0  0  0  0  0  0  0  0  0  0  0  # atno 10763 bound_to 10752
  154.8290  135.3376  154.6808 H   0  0  0  0  0  0  0  0  0  0  0  0  # atno 10764 bound_to 10752
  153.7235  135.7015  153.5063 H   0  0  0  0  0  0  0  0  0  0  0  0  # atno 10765 bound_to 10752
  139.9922  134.6573  156.0071 H   0  0  0  0  0  0  0  0  0  0  0  0  # atno 11005 bound_to 11000
  144.6757  140.2035  143.7384 LP  0  0  0  0  0  0  0  0  0  0  0  0  # atno 17320 bound_to 7965
  145.8501  139.2171  143.1777 LP  0  0  0  0  0  0  0  0  0  0  0  0  # atno 17321 bound_to 7965
  139.4955  144.6572  151.6545 LP  0  0  0  0  0  0  0  0  0  0  0  0  # atno 17342 bound_to 10162
  140.5789  143.9981  150.6257 LP  0  0  0  0  0  0  0  0  0  0  0  0  # atno 17343 bound_to 10162
  156.4268  130.7796  151.2814 LP  0  0  0  0  0  0  0  0  0  0  0  0  # atno 17370 bound_to 10713
  157.7506  131.0166  150.3551 LP  0  0  0  0  0  0  0  0  0  0  0  0  # atno 17371 bound_to 10713
  141.1575  133.6541  156.4210 LP  0  0  0  0  0  0  0  0  0  0  0  0  # atno 17394 bound_to 11000
  140.4886  134.6597  157.5201 LP  0  0  0  0  0  0  0  0  0  0  0  0  # atno 17395 bound_to 11000

$$$$
