AV-unprocessed.smi:109|AV-procd|sdf|1049|dock9
  -GOLD-   2262018103D 1   1.00000     0.00000
 Structure written by MMmdl.
 58 61  0  0  0  0  0  0  0  0  1 V2000
  150.1508  140.1061  154.1231 O   0  0  0  0  0  0  0  0  0  0  0  0
  149.0775  140.8425  154.6682 C   0  0  0  0  0  0  0  0  0  0  0  0
  147.7686  140.4635  153.9543 C   0  0  0  0  0  0  0  0  0  0  0  0
  146.5589  140.3207  154.9080 C   0  0  2  0  0  0  0  0  0  0  0  0
  145.5552  139.4583  154.2797 N   0  0  0  0  0  0  0  0  0  0  0  0
  145.5382  138.1175  154.4520 C   0  0  0  0  0  0  0  0  0  0  0  0
  146.0482  137.5365  155.5677 N   0  0  0  0  0  0  0  0  0  0  0  0
  146.0079  136.2094  155.7065 C   0  0  0  0  0  0  0  0  0  0  0  0
  145.5095  135.2997  154.8679 N   0  0  0  0  0  0  0  0  0  0  0  0
  144.9967  135.8706  153.7385 C   0  0  0  0  0  0  0  0  0  0  0  0
  144.9803  137.2678  153.4618 C   0  0  0  0  0  0  0  0  0  0  0  0
  144.3955  137.4985  152.2259 N   0  0  0  0  0  0  0  0  0  0  0  0
  144.0854  136.3052  151.7991 C   0  0  0  0  0  0  0  0  0  0  0  0
  144.3891  135.2640  152.6498 N   0  0  0  0  0  0  0  0  0  0  0  0
  144.1360  133.8051  152.3760 C   0  0  1  0  0  0  0  0  0  0  0  0
  143.6598  133.6707  151.0754 O   0  0  0  0  0  0  0  0  0  0  0  0
  144.7333  133.3731  150.1941 C   0  0  2  0  0  0  0  0  0  0  0  0
  144.1973  132.6428  148.9526 C   0  0  0  0  0  0  0  0  0  0  0  0
  142.9311  132.0817  149.2244 O   0  0  0  0  0  0  0  0  0  0  0  0
  145.6660  132.5006  151.0511 C   0  0  1  0  0  0  0  0  0  0  0  0
  147.0141  132.7455  150.7036 O   0  0  0  0  0  0  0  0  0  0  0  0
  145.3931  132.9278  152.4973 C   0  0  2  0  0  0  0  0  0  0  0  0
  145.1443  131.7935  153.3032 O   0  0  0  0  0  0  0  0  0  0  0  0
  145.9037  141.6749  155.3039 C   0  0  0  0  0  0  0  0  0  0  0  0
  144.4810  141.5149  155.8961 C   0  0  0  0  0  0  0  0  0  0  0  0
  143.8297  142.8652  156.2371 C   0  0  0  0  0  0  0  0  0  0  0  0
  143.7860  143.7908  155.0157 C   0  0  0  0  0  0  0  0  0  0  0  0
  145.1924  143.9861  154.4376 C   0  0  0  0  0  0  0  0  0  0  0  0
  145.8409  142.6373  154.0896 C   0  0  0  0  0  0  0  0  0  0  0  0
  143.3557  133.5403  153.0910 H   0  0  0  0  0  0  0  0  0  0  0  0
  145.2288  134.3002  149.9053 H   0  0  0  0  0  0  0  0  0  0  0  0
  145.4354  131.4435  150.9074 H   0  0  0  0  0  0  0  0  0  0  0  0
  146.2123  133.4874  152.9489 H   0  0  0  0  0  0  0  0  0  0  0  0
  149.8795  139.7520  153.2898 H   0  0  0  0  0  0  0  0  0  0  0  0
  149.0215  140.6338  155.7367 H   0  0  0  0  0  0  0  0  0  0  0  0
  149.2828  141.9073  154.5534 H   0  0  0  0  0  0  0  0  0  0  0  0
  147.5735  141.2428  153.2196 H   0  0  0  0  0  0  0  0  0  0  0  0
  147.9071  139.5378  153.3936 H   0  0  0  0  0  0  0  0  0  0  0  0
  146.9325  139.8786  155.8310 H   0  0  0  0  0  0  0  0  0  0  0  0
  144.8785  139.9357  153.7018 H   0  0  0  0  0  0  0  0  0  0  0  0
  146.4328  135.8213  156.6203 H   0  0  0  0  0  0  0  0  0  0  0  0
  143.6131  136.1511  150.8398 H   0  0  0  0  0  0  0  0  0  0  0  0
  144.0702  133.3483  148.1309 H   0  0  0  0  0  0  0  0  0  0  0  0
  144.8904  131.8721  148.6137 H   0  0  0  0  0  0  0  0  0  0  0  0
  142.2999  132.7819  149.2909 H   0  0  0  0  0  0  0  0  0  0  0  0
  147.4499  131.9127  150.5971 H   0  0  0  0  0  0  0  0  0  0  0  0
  144.4614  132.0081  153.9202 H   0  0  0  0  0  0  0  0  0  0  0  0
  146.5275  142.1403  156.0689 H   0  0  0  0  0  0  0  0  0  0  0  0
  143.8483  140.9719  155.1928 H   0  0  0  0  0  0  0  0  0  0  0  0
  144.5062  140.9264  156.8119 H   0  0  0  0  0  0  0  0  0  0  0  0
  142.8200  142.7044  156.6162 H   0  0  0  0  0  0  0  0  0  0  0  0
  144.3876  143.3471  157.0409 H   0  0  0  0  0  0  0  0  0  0  0  0
  143.1308  143.3651  154.2546 H   0  0  0  0  0  0  0  0  0  0  0  0
  143.3576  144.7547  155.2916 H   0  0  0  0  0  0  0  0  0  0  0  0
  145.1433  144.6145  153.5479 H   0  0  0  0  0  0  0  0  0  0  0  0
  145.8157  144.5172  155.1580 H   0  0  0  0  0  0  0  0  0  0  0  0
  146.8395  142.8303  153.6970 H   0  0  0  0  0  0  0  0  0  0  0  0
  145.2822  142.1669  153.2793 H   0  0  0  0  0  0  0  0  0  0  0  0
  1  2  1  0  0  0  0
  1 34  1  0  0  0  0
  2  3  1  0  0  0  0
  2 35  1  0  0  0  0
  2 36  1  0  0  0  0
  3  4  1  0  0  0  0
  3 37  1  0  0  0  0
  3 38  1  0  0  0  0
  4  5  1  0  0  0  0
  4 24  1  0  0  0  0
  4 39  1  0  0  0  0
  5  6  1  0  0  0  0
  5 40  1  0  0  0  0
  6 11  1  0  0  0  0
  6  7  2  0  0  0  0
  7  8  1  0  0  0  0
  8  9  2  0  0  0  0
  8 41  1  0  0  0  0
  9 10  1  0  0  0  0
 10 14  1  0  0  0  0
 10 11  2  0  0  0  0
 11 12  1  0  0  0  0
 12 13  2  0  0  0  0
 13 14  1  0  0  0  0
 13 42  1  0  0  0  0
 14 15  1  0  0  0  0
 15 30  1  0  0  0  0
 15 22  1  0  0  0  0
 15 16  1  0  0  0  0
 16 17  1  0  0  0  0
 17 31  1  0  0  0  0
 17 18  1  0  0  0  0
 17 20  1  0  0  0  0
 18 19  1  0  0  0  0
 18 43  1  0  0  0  0
 18 44  1  0  0  0  0
 19 45  1  0  0  0  0
 20 32  1  0  0  0  0
 20 21  1  0  0  0  0
 20 22  1  0  0  0  0
 21 46  1  0  0  0  0
 22 33  1  0  0  0  0
 22 23  1  0  0  0  0
 23 47  1  0  0  0  0
 24 29  1  0  0  0  0
 24 25  1  0  0  0  0
 24 48  1  0  0  0  0
 25 26  1  0  0  0  0
 25 49  1  0  0  0  0
 25 50  1  0  0  0  0
 26 27  1  0  0  0  0
 26 51  1  0  0  0  0
 26 52  1  0  0  0  0
 27 28  1  0  0  0  0
 27 53  1  0  0  0  0
 27 54  1  0  0  0  0
 28 29  1  0  0  0  0
 28 55  1  0  0  0  0
 28 56  1  0  0  0  0
 29 57  1  0  0  0  0
 29 58  1  0  0  0  0
M  END
> <s_m_source_file>
AV-unprocessed.smi

> <i_m_source_file_index>
109

> <i_lp_mmshare_version>
43012

> <i_f3d_flags>
0

> <s_epik_input>
W0NIMl0xW0NIMl1bQ0gyXVtDSDJdW0NIMl1bQ0hdMVtDQEhdKFtDSDJdW0NIMl1bT0hdKVtOSF1jKG5bY0hdbjIpYyhjMjMpbltjSF1uM1tDQEBIXTRPW0NASF0oW0NIMl1bT0hdKVtDQEBIXShbT0hdKVtDQEhdNFtPSF0=

> <s_epik_cmdline>
J2VwaWtfcHl0aG9uJywgJy1waCcsICc3LjAnLCAnLXRuJywgJzgnLCAnLW1hJywgJzIwMCcsICctbWV0YWxfYmluZGluZycsICctaW1hZScsICc8aW5maWxlLm1hZT4nLCAnLW9tYWUnLCAnPG91dGZpbGUubWFlPic=

> <r_lp_tautomer_probability>
1

> <r_epik_Ionization_Penalty>
0.000793976

> <r_epik_Ionization_Penalty_Charging>
0

> <r_epik_Ionization_Penalty_Neutral>
0.000793976

> <r_epik_State_Penalty>
-0

> <r_epik_Charging_Adjusted_Penalty>
0

> <i_epik_Tot_Q>
0

> <i_epik_Tot_abs_Q>
0

> <r_epik_Metal_State_Penalty>
-0

> <b_epik_Metal_Only>
0

> <s_epik_Chemistry_Notes>
This compound contains an acetal/aminal-like group ( X-CH(R)-Y where X, Y are N, S, or O) that may be acid/base labile, releasing an aldehyde.

> <s_lp_Force_Field>
OPLS_2005

> <r_lp_Energy>
48.8451

> <b_lp_Chiralities_Consistent>
1

> <s_lp_Variant>
AV-unprocessed.smi:109-19

> <Gold.Version>
5.8.1

> <Gold.Id.Protein>
6NUR|6NUR_protein|mol2

> <Gold.PLP.Fitness>
53.7842

> <Gold.PLP.PLP>
-37.2375

> <Gold.PLP.part.hbond>
-8.1734

> <Gold.PLP.part.metal>
0.0000

> <Gold.PLP.part.buried>
-6.8400

> <Gold.PLP.part.nonpolar>
-26.7368

> <Gold.PLP.part.repulsive>
3.8849

> <Gold.PLP.ligand.clash>
0.0000

> <Gold.PLP.ligand.torsion>
1.9911

> <Gold.PLP.Chemscore.Hbond>
6.4986

> <Gold.PLP.Chemscore.CHOScore>
0.2902

> <Gold.PLP.Chemscore.Metal>
0.0000

> <Gold.Chemscore.Hbonds>
donor molecule, donor type, donor heavy atom, donor atom, acceptor molecule, acceptor atom, score
      L1  H     1    34       P1  7957  0.65
      L1  H     5    40       P1 10175  1.00
      L1  H    19    45       P1 10186  0.84
      L1  H    21    46       P1 10747  1.00
      L1  H    23    47       P1 10957  0.65
      P1  H  7989  7998       L1     1  0.68
      P1  H 10785 10796       L1    19  1.00
      L1  C    13    42       P1 10171  0.31

> <Gold.PLP.Chemscore.Internal.Correction>
0.1625

> <Gold.Rescore>
     Score         DG    S(hbond)    S(metal)    S(lipo)     H(rot)  DE(clash)    DE(int)     intcor
     12.19     -15.77       4.59        0.00      76.46       5.47       1.85       1.73       ----

> <Gold.Chemscore.Fitness>
12.1873

> <Gold.Chemscore.DG>
-15.7691

> <Gold.Chemscore.ZeroCoef>
-5.4800

> <Gold.Chemscore.Hbond>
4.5918

> <Gold.Chemscore.Metal>
0.0000

> <Gold.Chemscore.Lipo>
76.4620

> <Gold.Chemscore.Internal_Hbond>
0.0000

> <Gold.Chemscore.DEClash>
1.8497

> <Gold.Chemscore.DEInternal>
1.7321

> <Gold.Chemscore.Rot>
5.4662

> <Gold.Chemscore.Internal.Correction>
   9.000000E+99

> <Gold.Chemscore.Hbonds>
donor molecule, donor type, donor heavy atom, donor atom, acceptor molecule, acceptor atom, score
      L1  H     1    34       P1  7957  0.62
      L1  H     5    40       P1 10175  1.00
      L1  H    19    45       P1 10186  0.82
      L1  H    21    46       P1 10747  0.96
      L1  H    23    47       P1 10957  0.05
      P1  H  7989  7998       L1     1  0.07
      P1  H 10785 10796       L1    19  0.37

> <Gold.Chemscore.Hbond.Weighted>
-15.3365

> <Gold.Chemscore.Metal.Weighted>
-0.0000

> <Gold.Chemscore.Lipo.Weighted>
-8.9461

> <Gold.Chemscore.Internal_Hbond.Weighted>
0.0000

> <Gold.Chemscore.DEClash.Weighted>
1.8497

> <Gold.Chemscore.DEInternal.Weighted>
1.7321

> <Gold.Chemscore.Rot.Weighted>
13.9935

> <Gold.Chemscore.Internal.Correction.Weighted>
   9.000000E+99

> <Gold.Protein.RotatedTorsions>
[ 6907 6896 6895 6894 ] final  -79.41 input  -60.11 | X-H torsion
[ 7974 7965 7964 7962 ] final  -21.31 input  175.53 | X-H torsion
[ 8008 7997 7996 7995 ] final -171.13 input   59.86 | X-H torsion
[ 10167 10162 10161 10158 ] final -159.56 input  -65.29 | X-H torsion
[ 10718 10713 10712 10709 ] final -153.22 input   66.30 | X-H torsion
[ 10763 10752 10751 10750 ] final  124.06 input  -60.55 | X-H torsion
[ 11005 11000 10999 10996 ] final  -84.61 input  -57.11 | X-H torsion

> <Gold.Protein.ActiveResidues>
 VAL166  LYS551  ARG553  GLY616  TRP617  ASP618  TYR619  PRO620  LYS621  CYS622 
 ASP623  PHE694  ASN695  SER759  ASP760  ASP761  ALA762  ILE779  LEU786  VAL792 
 PHE793  MET794  SER795  GLU796  ALA797  LYS798  CYS799  TRP800  GLU811  SER814 

> <Gold.Protein.RotatedAtoms>
  150.6950  134.4126  159.5168 H   0  0  0  0  0  0  0  0  0  0  0  0  # atno 6907 bound_to 6896
  152.1882  134.8692  160.0529 H   0  0  0  0  0  0  0  0  0  0  0  0  # atno 6908 bound_to 6896
  151.9658  133.3675  159.4089 H   0  0  0  0  0  0  0  0  0  0  0  0  # atno 6909 bound_to 6896
  146.1740  140.4323  142.8521 H   0  0  0  0  0  0  0  0  0  0  0  0  # atno 7974 bound_to 7965
  155.9275  140.1085  157.1159 H   0  0  0  0  0  0  0  0  0  0  0  0  # atno 8008 bound_to 7997
  154.4065  140.1244  156.4824 H   0  0  0  0  0  0  0  0  0  0  0  0  # atno 8009 bound_to 7997
  155.7121  140.3471  155.4980 H   0  0  0  0  0  0  0  0  0  0  0  0  # atno 8010 bound_to 7997
  139.6605  143.9920  152.2222 H   0  0  0  0  0  0  0  0  0  0  0  0  # atno 10167 bound_to 10162
  156.4829  130.8311  151.2537 H   0  0  0  0  0  0  0  0  0  0  0  0  # atno 10718 bound_to 10713
  153.6554  135.3355  155.3112 H   0  0  0  0  0  0  0  0  0  0  0  0  # atno 10763 bound_to 10752
  154.8528  135.4351  154.1860 H   0  0  0  0  0  0  0  0  0  0  0  0  # atno 10764 bound_to 10752
  153.2814  135.7009  153.7457 H   0  0  0  0  0  0  0  0  0  0  0  0  # atno 10765 bound_to 10752
  141.1649  133.7355  156.8892 H   0  0  0  0  0  0  0  0  0  0  0  0  # atno 11005 bound_to 11000
  144.8207  140.6545  143.6355 LP  0  0  0  0  0  0  0  0  0  0  0  0  # atno 17320 bound_to 7965
  145.4262  139.1556  143.4047 LP  0  0  0  0  0  0  0  0  0  0  0  0  # atno 17321 bound_to 7965
  139.9658  144.6527  150.8036 LP  0  0  0  0  0  0  0  0  0  0  0  0  # atno 17342 bound_to 10162
  140.7578  143.3094  151.2883 LP  0  0  0  0  0  0  0  0  0  0  0  0  # atno 17343 bound_to 10162
  157.7481  131.0039  150.3055 LP  0  0  0  0  0  0  0  0  0  0  0  0  # atno 17370 bound_to 10713
  156.3504  130.3830  149.7334 LP  0  0  0  0  0  0  0  0  0  0  0  0  # atno 17371 bound_to 10713
  140.1660  134.9133  157.2774 LP  0  0  0  0  0  0  0  0  0  0  0  0  # atno 17394 bound_to 11000
  140.2556  134.3631  155.7425 LP  0  0  0  0  0  0  0  0  0  0  0  0  # atno 17395 bound_to 11000

$$$$
