AV-unprocessed.smi:781|AV-procd|sdf|3709|dock4
  -GOLD-   22720 1133D 1   1.00000     0.00000
 Structure written by MMmdl.
 38 40  0  0  0  0  0  0  0  0  1 V2000
  152.0492  131.0122  157.0446 C   0  0  0  0  0  0  0  0  0  0  0  0
  151.1077  131.9866  156.4237 C   0  0  0  0  0  0  0  0  0  0  0  0
  150.4867  132.0348  155.2072 C   0  0  0  0  0  0  0  0  0  0  0  0
  149.7324  133.2363  155.2805 C   0  0  0  0  0  0  0  0  0  0  0  0
  148.9298  133.6581  154.1902 N   0  0  0  0  0  0  0  0  0  0  0  0
  147.6128  133.4568  154.0147 C   0  0  0  0  0  0  0  0  0  0  0  0
  146.8784  132.8421  154.7888 O   0  0  0  0  0  0  0  0  0  0  0  0
  147.1860  134.0104  152.8715 N   0  0  0  0  0  0  0  0  0  0  0  0
  145.8089  133.9689  152.3846 C   0  0  2  0  0  0  0  0  0  0  0  0
  145.2305  132.5339  152.2906 C   0  0  2  0  0  0  0  0  0  0  0  0
  146.1753  131.5929  151.5128 C   0  0  0  0  0  0  0  0  0  0  0  0
  146.0654  132.1227  150.0709 C   0  0  0  0  0  0  0  0  0  0  0  0
  145.0463  133.2713  150.2061 C   0  0  1  0  0  0  0  0  0  0  0  0
  144.1097  132.7219  151.2762 C   0  0  0  0  0  0  0  0  0  0  0  0
  145.7147  134.4699  150.9188 C   0  0  1  0  0  0  0  0  0  0  0  0
  144.9143  135.7777  150.7676 C   0  0  0  0  0  0  0  0  0  0  0  0
  144.9420  136.2126  149.4243 O   0  0  0  0  0  0  0  0  0  0  0  0
  149.8798  133.8649  156.4367 N   0  0  0  0  0  0  0  0  0  0  0  0
  150.7619  133.0671  157.1751 O   0  0  0  0  0  0  0  0  0  0  0  0
  152.1897  130.1422  156.4031 H   0  0  0  0  0  0  0  0  0  0  0  0
  151.6687  130.6648  158.0053 H   0  0  0  0  0  0  0  0  0  0  0  0
  153.0243  131.4702  157.2116 H   0  0  0  0  0  0  0  0  0  0  0  0
  150.5619  131.3241  154.3977 H   0  0  0  0  0  0  0  0  0  0  0  0
  149.4095  134.1738  153.4674 H   0  0  0  0  0  0  0  0  0  0  0  0
  147.8571  134.4969  152.2955 H   0  0  0  0  0  0  0  0  0  0  0  0
  145.1743  134.5761  153.0330 H   0  0  0  0  0  0  0  0  0  0  0  0
  144.9109  132.1300  153.2519 H   0  0  0  0  0  0  0  0  0  0  0  0
  147.1993  131.5958  151.8860 H   0  0  0  0  0  0  0  0  0  0  0  0
  145.8151  130.5646  151.5656 H   0  0  0  0  0  0  0  0  0  0  0  0
  147.0244  132.4620  149.6779 H   0  0  0  0  0  0  0  0  0  0  0  0
  145.6894  131.3446  149.4055 H   0  0  0  0  0  0  0  0  0  0  0  0
  144.5652  133.5308  149.2626 H   0  0  0  0  0  0  0  0  0  0  0  0
  143.6240  131.7876  150.9885 H   0  0  0  0  0  0  0  0  0  0  0  0
  143.3470  133.4314  151.6001 H   0  0  0  0  0  0  0  0  0  0  0  0
  146.7052  134.6315  150.4892 H   0  0  0  0  0  0  0  0  0  0  0  0
  143.8741  135.6196  151.0538 H   0  0  0  0  0  0  0  0  0  0  0  0
  145.3085  136.5660  151.4089 H   0  0  0  0  0  0  0  0  0  0  0  0
  145.4290  135.5832  148.9144 H   0  0  0  0  0  0  0  0  0  0  0  0
  1  2  1  0  0  0  0
  1 20  1  0  0  0  0
  1 21  1  0  0  0  0
  1 22  1  0  0  0  0
  2 19  1  0  0  0  0
  2  3  2  0  0  0  0
  3  4  1  0  0  0  0
  3 23  1  0  0  0  0
  4  5  1  0  0  0  0
  4 18  2  0  0  0  0
  5  6  1  0  0  0  0
  5 24  1  0  0  0  0
  6  7  2  0  0  0  0
  6  8  1  0  0  0  0
  8  9  1  0  0  0  0
  8 25  1  0  0  0  0
  9 15  1  0  0  0  0
  9 10  1  0  0  0  0
  9 26  1  0  0  0  0
 10 14  1  0  0  0  0
 10 11  1  0  0  0  0
 10 27  1  0  0  0  0
 11 12  1  0  0  0  0
 11 28  1  0  0  0  0
 11 29  1  0  0  0  0
 12 13  1  0  0  0  0
 12 30  1  0  0  0  0
 12 31  1  0  0  0  0
 13 14  1  0  0  0  0
 13 15  1  0  0  0  0
 13 32  1  0  0  0  0
 14 33  1  0  0  0  0
 14 34  1  0  0  0  0
 15 16  1  0  0  0  0
 15 35  1  0  0  0  0
 16 17  1  0  0  0  0
 16 36  1  0  0  0  0
 16 37  1  0  0  0  0
 17 38  1  0  0  0  0
 18 19  1  0  0  0  0
M  END
> <s_m_source_file>
AV-unprocessed.smi

> <i_m_source_file_index>
781

> <i_lp_mmshare_version>
43012

> <i_f3d_flags>
0

> <s_epik_input>
W0NIM11jMVtjSF1jKG5vMSlbTkhdQyg9TylbTkhdW0NASF0oW0NAQEhdMjMpW0NASF0oW0NIMl1bT0hdKVtDQEBIXShbQ0gyXTMpW0NIMl1bQ0gyXTI=

> <s_epik_cmdline>
J2VwaWtfcHl0aG9uJywgJy1waCcsICc3LjAnLCAnLXRuJywgJzgnLCAnLW1hJywgJzIwMCcsICctbWV0YWxfYmluZGluZycsICctaW1hZScsICc8aW5maWxlLm1hZT4nLCAnLW9tYWUnLCAnPG91dGZpbGUubWFlPic=

> <r_lp_tautomer_probability>
1

> <r_epik_Ionization_Penalty>
2.32222e-05

> <r_epik_Ionization_Penalty_Charging>
0

> <r_epik_Ionization_Penalty_Neutral>
2.32222e-05

> <r_epik_State_Penalty>
-0

> <r_epik_Charging_Adjusted_Penalty>
0

> <i_epik_Tot_Q>
0

> <i_epik_Tot_abs_Q>
0

> <r_epik_Metal_State_Penalty>
-0

> <b_epik_Metal_Only>
0

> <s_lp_Force_Field>
OPLS_2005

> <r_lp_Energy>
46.3862

> <b_lp_Chiralities_Consistent>
1

> <s_lp_Variant>
AV-unprocessed.smi:781-3

> <Gold.Version>
5.8.1

> <Gold.Id.Protein>
6NUR|6NUR_protein|mol2

> <Gold.PLP.Fitness>
38.0380

> <Gold.PLP.PLP>
-30.7801

> <Gold.PLP.part.hbond>
-3.7694

> <Gold.PLP.part.metal>
0.0000

> <Gold.PLP.part.buried>
-2.9988

> <Gold.PLP.part.nonpolar>
-23.6069

> <Gold.PLP.part.repulsive>
0.0406

> <Gold.PLP.ligand.clash>
0.0000

> <Gold.PLP.ligand.torsion>
0.8311

> <Gold.PLP.Chemscore.Hbond>
2.9675

> <Gold.PLP.Chemscore.CHOScore>
0.0000

> <Gold.PLP.Chemscore.Metal>
0.0000

> <Gold.Chemscore.Hbonds>
donor molecule, donor type, donor heavy atom, donor atom, acceptor molecule, acceptor atom, score
      L1  H     8    25       P1  7948  0.96
      L1  H    17    38       P1  7921  1.00
      P1  H  6896  6907       L1    19  0.84

> <Gold.PLP.Chemscore.Internal.Correction>
0.0176

> <Gold.Rescore>
     Score         DG    S(hbond)    S(metal)    S(lipo)     H(rot)  DE(clash)    DE(int)     intcor
     15.62     -17.66       2.64        0.00      69.32       1.86       0.25       1.79       ----

> <Gold.Chemscore.Fitness>
15.6229

> <Gold.Chemscore.DG>
-17.6636

> <Gold.Chemscore.ZeroCoef>
-5.4800

> <Gold.Chemscore.Hbond>
2.6441

> <Gold.Chemscore.Metal>
0.0000

> <Gold.Chemscore.Lipo>
69.3205

> <Gold.Chemscore.Internal_Hbond>
0.0000

> <Gold.Chemscore.DEClash>
0.2484

> <Gold.Chemscore.DEInternal>
1.7924

> <Gold.Chemscore.Rot>
1.8587

> <Gold.Chemscore.Internal.Correction>
   9.000000E+99

> <Gold.Chemscore.Hbonds>
donor molecule, donor type, donor heavy atom, donor atom, acceptor molecule, acceptor atom, score
      L1  H     8    25       P1  7948  0.39
      L1  H    17    38       P1  7921  0.99
      P1  H  6896  6907       L1    19  0.76

> <Gold.Chemscore.Hbond.Weighted>
-8.8314

> <Gold.Chemscore.Metal.Weighted>
-0.0000

> <Gold.Chemscore.Lipo.Weighted>
-8.1105

> <Gold.Chemscore.Internal_Hbond.Weighted>
0.0000

> <Gold.Chemscore.DEClash.Weighted>
0.2484

> <Gold.Chemscore.DEInternal.Weighted>
1.7924

> <Gold.Chemscore.Rot.Weighted>
4.7583

> <Gold.Chemscore.Internal.Correction.Weighted>
   9.000000E+99

> <Gold.Protein.RotatedTorsions>
[ 6907 6896 6895 6894 ] final -145.23 input  -60.11 | X-H torsion
[ 7974 7965 7964 7962 ] final   19.73 input  175.53 | X-H torsion
[ 8008 7997 7996 7995 ] final -159.47 input   59.86 | X-H torsion
[ 10167 10162 10161 10158 ] final  115.35 input  -65.29 | X-H torsion
[ 10718 10713 10712 10709 ] final   42.73 input   66.30 | X-H torsion
[ 10763 10752 10751 10750 ] final  167.58 input  -60.55 | X-H torsion
[ 11005 11000 10999 10996 ] final -158.42 input  -57.11 | X-H torsion

> <Gold.Protein.ActiveResidues>
 VAL166  LYS551  ARG553  GLY616  TRP617  ASP618  TYR619  PRO620  LYS621  CYS622 
 ASP623  PHE694  ASN695  SER759  ASP760  ASP761  ALA762  ILE779  LEU786  VAL792 
 PHE793  MET794  SER795  GLU796  ALA797  LYS798  CYS799  TRP800  GLU811  SER814 

> <Gold.Protein.RotatedAtoms>
  151.1250  133.5077  159.2600 H   0  0  0  0  0  0  0  0  0  0  0  0  # atno 6907 bound_to 6896
  151.1820  135.0364  159.8806 H   0  0  0  0  0  0  0  0  0  0  0  0  # atno 6908 bound_to 6896
  152.5457  134.1101  159.8408 H   0  0  0  0  0  0  0  0  0  0  0  0  # atno 6909 bound_to 6896
  146.2138  139.8271  142.8667 H   0  0  0  0  0  0  0  0  0  0  0  0  # atno 7974 bound_to 7965
  155.7630  140.0842  157.2146 H   0  0  0  0  0  0  0  0  0  0  0  0  # atno 8008 bound_to 7997
  154.4002  140.1539  156.2911 H   0  0  0  0  0  0  0  0  0  0  0  0  # atno 8009 bound_to 7997
  155.8821  140.3420  155.5898 H   0  0  0  0  0  0  0  0  0  0  0  0  # atno 8010 bound_to 7997
  139.6323  144.7116  151.2407 H   0  0  0  0  0  0  0  0  0  0  0  0  # atno 10167 bound_to 10162
  157.4080  130.7898  149.7406 H   0  0  0  0  0  0  0  0  0  0  0  0  # atno 10718 bound_to 10713
  154.3559  135.2753  155.2346 H   0  0  0  0  0  0  0  0  0  0  0  0  # atno 10763 bound_to 10752
  154.4556  135.5920  153.6224 H   0  0  0  0  0  0  0  0  0  0  0  0  # atno 10764 bound_to 10752
  152.9846  135.6052  154.3774 H   0  0  0  0  0  0  0  0  0  0  0  0  # atno 10765 bound_to 10752
  140.6538  134.4423  157.5235 H   0  0  0  0  0  0  0  0  0  0  0  0  # atno 11005 bound_to 11000
  145.3036  141.0201  143.3595 LP  0  0  0  0  0  0  0  0  0  0  0  0  # atno 17320 bound_to 7965
  144.8988  139.4677  143.6642 LP  0  0  0  0  0  0  0  0  0  0  0  0  # atno 17321 bound_to 7965
  140.7446  143.6458  150.8293 LP  0  0  0  0  0  0  0  0  0  0  0  0  # atno 17342 bound_to 10162
  140.0085  143.5668  152.2848 LP  0  0  0  0  0  0  0  0  0  0  0  0  # atno 17343 bound_to 10162
  155.9842  130.3993  150.3323 LP  0  0  0  0  0  0  0  0  0  0  0  0  # atno 17370 bound_to 10713
  157.1458  131.0308  151.2907 LP  0  0  0  0  0  0  0  0  0  0  0  0  # atno 17371 bound_to 10713
  139.9037  134.8498  156.1793 LP  0  0  0  0  0  0  0  0  0  0  0  0  # atno 17394 bound_to 11000
  141.0517  133.6885  156.1784 LP  0  0  0  0  0  0  0  0  0  0  0  0  # atno 17395 bound_to 11000

$$$$
