AV-unprocessed.smi:1915|AV-procd|sdf|7761|dock5
  -GOLD-   22720 9503D 1   1.00000     0.00000
 Structure written by MMmdl.
 44 45  0  0  0  0  0  0  0  0  1 V2000
  153.9343  136.8500  162.1731 C   0  0  0  0  0  0  0  0  0  0  0  0
  153.4538  136.8160  160.7121 C   0  0  0  0  0  0  0  0  0  0  0  0
  154.6553  136.8003  159.7552 C   0  0  0  0  0  0  0  0  0  0  0  0
  152.4938  137.9731  160.3554 C   0  0  0  0  0  0  0  0  0  0  0  0
  152.0025  137.9088  158.9787 N   0  0  0  0  0  0  0  0  0  0  0  0
  152.7549  138.5288  157.8995 C   0  0  0  0  0  0  0  0  0  0  0  0
  151.8298  138.4857  156.6640 C   0  0  2  0  0  0  0  0  0  0  0  0
  151.3323  139.8787  156.2490 C   0  0  0  0  0  0  0  0  0  0  0  0
  151.4676  140.2670  155.0882 O   0  0  0  0  0  0  0  0  0  0  0  0
  150.7755  140.6261  157.2136 N   0  0  0  0  0  0  0  0  0  0  0  0
  150.3164  142.0019  157.0488 C   0  0  0  0  0  0  0  0  0  0  0  0
  151.4263  143.0379  157.3207 C   0  0  0  0  0  0  0  0  0  0  0  0
  151.7508  143.2063  158.7957 C   0  0  0  0  0  0  0  0  0  0  0  0
  151.5693  144.4510  159.4365 C   0  0  0  0  0  0  0  0  0  0  0  0
  151.9040  144.5598  160.7997 C   0  0  0  0  0  0  0  0  0  0  0  0
  152.4032  143.4250  161.4673 C   0  0  0  0  0  0  0  0  0  0  0  0
  152.5449  142.2270  160.7388 C   0  0  0  0  0  0  0  0  0  0  0  0
  152.2286  142.1126  159.4307 N   0  0  0  0  0  0  0  0  0  0  0  0
  150.6565  137.5735  157.0718 C   0  0  0  0  0  0  0  0  0  0  0  0
  150.8462  137.3767  158.5659 C   0  0  0  0  0  0  0  0  0  0  0  0
  150.0157  136.8065  159.2717 O   0  0  0  0  0  0  0  0  0  0  0  0
  154.4246  137.7958  162.4061 H   0  0  0  0  0  0  0  0  0  0  0  0
  154.6468  136.0488  162.3708 H   0  0  0  0  0  0  0  0  0  0  0  0
  153.1084  136.7195  162.8717 H   0  0  0  0  0  0  0  0  0  0  0  0
  152.9154  135.8788  160.5662 H   0  0  0  0  0  0  0  0  0  0  0  0
  155.2464  137.7120  159.8468 H   0  0  0  0  0  0  0  0  0  0  0  0
  154.3319  136.7160  158.7172 H   0  0  0  0  0  0  0  0  0  0  0  0
  155.3126  135.9552  159.9619 H   0  0  0  0  0  0  0  0  0  0  0  0
  151.6510  137.9867  161.0488 H   0  0  0  0  0  0  0  0  0  0  0  0
  153.0041  138.9272  160.4933 H   0  0  0  0  0  0  0  0  0  0  0  0
  153.0564  139.5421  158.1709 H   0  0  0  0  0  0  0  0  0  0  0  0
  153.6644  137.9542  157.7204 H   0  0  0  0  0  0  0  0  0  0  0  0
  152.3674  138.0373  155.8266 H   0  0  0  0  0  0  0  0  0  0  0  0
  150.7022  140.2294  158.1393 H   0  0  0  0  0  0  0  0  0  0  0  0
  149.8978  142.1446  156.0516 H   0  0  0  0  0  0  0  0  0  0  0  0
  149.4974  142.1570  157.7516 H   0  0  0  0  0  0  0  0  0  0  0  0
  152.3353  142.7503  156.7910 H   0  0  0  0  0  0  0  0  0  0  0  0
  151.1351  144.0043  156.9077 H   0  0  0  0  0  0  0  0  0  0  0  0
  151.1898  145.3052  158.8954 H   0  0  0  0  0  0  0  0  0  0  0  0
  151.7822  145.4968  161.3227 H   0  0  0  0  0  0  0  0  0  0  0  0
  152.6708  143.4712  162.5126 H   0  0  0  0  0  0  0  0  0  0  0  0
  152.9245  141.3374  161.2190 H   0  0  0  0  0  0  0  0  0  0  0  0
  149.6739  138.0005  156.8644 H   0  0  0  0  0  0  0  0  0  0  0  0
  150.7162  136.6082  156.5686 H   0  0  0  0  0  0  0  0  0  0  0  0
  1  2  1  0  0  0  0
  1 22  1  0  0  0  0
  1 23  1  0  0  0  0
  1 24  1  0  0  0  0
  2  3  1  0  0  0  0
  2  4  1  0  0  0  0
  2 25  1  0  0  0  0
  3 26  1  0  0  0  0
  3 27  1  0  0  0  0
  3 28  1  0  0  0  0
  4  5  1  0  0  0  0
  4 29  1  0  0  0  0
  4 30  1  0  0  0  0
  5 20  1  0  0  0  0
  5  6  1  0  0  0  0
  6  7  1  0  0  0  0
  6 31  1  0  0  0  0
  6 32  1  0  0  0  0
  7  8  1  0  0  0  0
  7 19  1  0  0  0  0
  7 33  1  0  0  0  0
  8  9  2  0  0  0  0
  8 10  1  0  0  0  0
 10 11  1  0  0  0  0
 10 34  1  0  0  0  0
 11 12  1  0  0  0  0
 11 35  1  0  0  0  0
 11 36  1  0  0  0  0
 12 13  1  0  0  0  0
 12 37  1  0  0  0  0
 12 38  1  0  0  0  0
 13 18  1  0  0  0  0
 13 14  2  0  0  0  0
 14 15  1  0  0  0  0
 14 39  1  0  0  0  0
 15 16  2  0  0  0  0
 15 40  1  0  0  0  0
 16 17  1  0  0  0  0
 16 41  1  0  0  0  0
 17 18  2  0  0  0  0
 17 42  1  0  0  0  0
 19 20  1  0  0  0  0
 19 43  1  0  0  0  0
 19 44  1  0  0  0  0
 20 21  2  0  0  0  0
M  END
> <s_m_source_file>
AV-unprocessed.smi

> <i_m_source_file_index>
1915

> <i_lp_mmshare_version>
43012

> <i_f3d_flags>
0

> <s_epik_input>
W0NIM11bQ0hdKFtDSDNdKVtDSDJdTjFbQ0gyXVtDQEhdKFtDSDJdQzE9TylDKD1PKVtOSF1bQ0gyXVtDSDJdYzJbY0hdW2NIXVtjSF1bY0hdbjI=

> <s_epik_cmdline>
J2VwaWtfcHl0aG9uJywgJy1waCcsICc3LjAnLCAnLXRuJywgJzgnLCAnLW1hJywgJzIwMCcsICctbWV0YWxfYmluZGluZycsICctaW1hZScsICc8aW5maWxlLm1hZT4nLCAnLW9tYWUnLCAnPG91dGZpbGUubWFlPic=

> <r_epik_Ionization_Penalty>
0.0252359

> <r_epik_Ionization_Penalty_Charging>
0

> <r_epik_Ionization_Penalty_Neutral>
0.0252359

> <r_epik_State_Penalty>
0.020532

> <r_epik_Charging_Adjusted_Penalty>
0.020532

> <i_epik_Tot_Q>
0

> <i_epik_Tot_abs_Q>
0

> <r_epik_Metal_State_Penalty>
0.0196901

> <b_epik_Metal_Only>
0

> <s_lp_Force_Field>
OPLS_2005

> <r_lp_Energy>
14.5856

> <b_lp_Chiralities_Consistent>
1

> <s_lp_Variant>
AV-unprocessed.smi:1915-2

> <Gold.Version>
5.8.1

> <Gold.Id.Protein>
6NUR|6NUR_protein|mol2

> <Gold.PLP.Fitness>
44.1294

> <Gold.PLP.PLP>
-39.3789

> <Gold.PLP.part.hbond>
-2.0000

> <Gold.PLP.part.metal>
0.0000

> <Gold.PLP.part.buried>
-6.8215

> <Gold.PLP.part.nonpolar>
-31.3455

> <Gold.PLP.part.repulsive>
0.0818

> <Gold.PLP.ligand.clash>
0.0000

> <Gold.PLP.ligand.torsion>
0.6931

> <Gold.PLP.Chemscore.Hbond>
2.0000

> <Gold.PLP.Chemscore.CHOScore>
0.0000

> <Gold.PLP.Chemscore.Metal>
0.0000

> <Gold.Chemscore.Hbonds>
donor molecule, donor type, donor heavy atom, donor atom, acceptor molecule, acceptor atom, score
      P1  H  6896  6907       L1    21  0.76
      P1  H  7989  7998       L1     9  1.00

> <Gold.PLP.Chemscore.Internal.Correction>
0.1369

> <Gold.Rescore>
     Score         DG    S(hbond)    S(metal)    S(lipo)     H(rot)  DE(clash)    DE(int)     intcor
     19.34     -20.40       1.97        0.00     109.56       1.75       0.07       0.99       ----

> <Gold.Chemscore.Fitness>
19.3355

> <Gold.Chemscore.DG>
-20.3963

> <Gold.Chemscore.ZeroCoef>
-5.4800

> <Gold.Chemscore.Hbond>
1.9660

> <Gold.Chemscore.Metal>
0.0000

> <Gold.Chemscore.Lipo>
109.5616

> <Gold.Chemscore.Internal_Hbond>
0.0000

> <Gold.Chemscore.DEClash>
0.0707

> <Gold.Chemscore.DEInternal>
0.9900

> <Gold.Chemscore.Rot>
1.7456

> <Gold.Chemscore.Internal.Correction>
   9.000000E+99

> <Gold.Chemscore.Hbonds>
donor molecule, donor type, donor heavy atom, donor atom, acceptor molecule, acceptor atom, score
      P1  H  6896  6907       L1    21  0.38
      P1  H  7989  7998       L1     9  0.94

> <Gold.Chemscore.Hbond.Weighted>
-6.5664

> <Gold.Chemscore.Metal.Weighted>
-0.0000

> <Gold.Chemscore.Lipo.Weighted>
-12.8187

> <Gold.Chemscore.Internal_Hbond.Weighted>
0.0000

> <Gold.Chemscore.DEClash.Weighted>
0.0707

> <Gold.Chemscore.DEInternal.Weighted>
0.9900

> <Gold.Chemscore.Rot.Weighted>
4.4688

> <Gold.Chemscore.Internal.Correction.Weighted>
   9.000000E+99

> <Gold.Protein.RotatedTorsions>
[ 6907 6896 6895 6894 ] final  -44.21 input  -60.11 | X-H torsion
[ 7974 7965 7964 7962 ] final -133.31 input  175.53 | X-H torsion
[ 8008 7997 7996 7995 ] final  158.93 input   59.86 | X-H torsion
[ 10167 10162 10161 10158 ] final -128.04 input  -65.29 | X-H torsion
[ 10718 10713 10712 10709 ] final   99.19 input   66.30 | X-H torsion
[ 10763 10752 10751 10750 ] final  -96.62 input  -60.55 | X-H torsion
[ 11005 11000 10999 10996 ] final  155.38 input  -57.11 | X-H torsion

> <Gold.Protein.ActiveResidues>
 VAL166  LYS551  ARG553  GLY616  TRP617  ASP618  TYR619  PRO620  LYS621  CYS622 
 ASP623  PHE694  ASN695  SER759  ASP760  ASP761  ALA762  ILE779  LEU786  VAL792 
 PHE793  MET794  SER795  GLU796  ALA797  LYS798  CYS799  TRP800  GLU811  SER814 

> <Gold.Protein.RotatedAtoms>
  150.9353  134.8766  159.7577 H   0  0  0  0  0  0  0  0  0  0  0  0  # atno 6907 bound_to 6896
  152.5056  134.4020  159.9429 H   0  0  0  0  0  0  0  0  0  0  0  0  # atno 6908 bound_to 6896
  151.4044  133.3707  159.2771 H   0  0  0  0  0  0  0  0  0  0  0  0  # atno 6909 bound_to 6896
  144.9205  140.7008  143.4968 H   0  0  0  0  0  0  0  0  0  0  0  0  # atno 7974 bound_to 7965
  156.2271  140.1845  156.7335 H   0  0  0  0  0  0  0  0  0  0  0  0  # atno 8008 bound_to 7997
  154.5960  140.0643  156.9332 H   0  0  0  0  0  0  0  0  0  0  0  0  # atno 8009 bound_to 7997
  155.2255  140.3311  155.4312 H   0  0  0  0  0  0  0  0  0  0  0  0  # atno 8010 bound_to 7997
  139.9545  143.6019  152.2465 H   0  0  0  0  0  0  0  0  0  0  0  0  # atno 10167 bound_to 10162
  157.6881  131.0662  150.4911 H   0  0  0  0  0  0  0  0  0  0  0  0  # atno 10718 bound_to 10713
  154.7256  135.5077  153.8880 H   0  0  0  0  0  0  0  0  0  0  0  0  # atno 10763 bound_to 10752
  153.0901  135.6657  153.9879 H   0  0  0  0  0  0  0  0  0  0  0  0  # atno 10764 bound_to 10752
  153.9692  135.3040  155.3408 H   0  0  0  0  0  0  0  0  0  0  0  0  # atno 10765 bound_to 10752
  140.1576  134.8632  157.2534 H   0  0  0  0  0  0  0  0  0  0  0  0  # atno 11005 bound_to 11000
  145.3304  139.1761  143.4540 LP  0  0  0  0  0  0  0  0  0  0  0  0  # atno 17320 bound_to 7965
  146.3202  140.3333  142.8642 LP  0  0  0  0  0  0  0  0  0  0  0  0  # atno 17321 bound_to 7965
  139.6602  144.7662  151.1977 LP  0  0  0  0  0  0  0  0  0  0  0  0  # atno 17342 bound_to 10162
  140.7572  143.6022  150.8688 LP  0  0  0  0  0  0  0  0  0  0  0  0  # atno 17343 bound_to 10162
  156.5238  130.4168  149.6237 LP  0  0  0  0  0  0  0  0  0  0  0  0  # atno 17370 bound_to 10713
  156.3131  130.7239  151.2136 LP  0  0  0  0  0  0  0  0  0  0  0  0  # atno 17371 bound_to 10713
  140.2528  134.3662  155.7435 LP  0  0  0  0  0  0  0  0  0  0  0  0  # atno 17394 bound_to 11000
  141.2206  133.7326  156.8962 LP  0  0  0  0  0  0  0  0  0  0  0  0  # atno 17395 bound_to 11000

$$$$
