AV-unprocessed.smi:910|AV-procd|sdf|4118|dock10
  -GOLD-   22720 2 13D 1   1.00000     0.00000
 Structure written by MMmdl.
 46 47  0  0  0  0  0  0  0  0  1 V2000
  158.3862  136.2641  157.3325 C   0  0  0  0  0  0  0  0  0  0  0  0
  156.9140  135.9981  157.2966 C   0  0  0  0  0  0  0  0  0  0  0  0
  155.9845  136.9623  157.6587 N   0  0  0  0  0  0  0  0  0  0  0  0
  154.8021  136.3650  157.4999 C   0  0  0  0  0  0  0  0  0  0  0  0
  153.5280  136.9461  157.7184 N   0  0  0  0  0  0  0  0  0  0  0  0
  153.2606  138.2289  158.0119 C   0  0  0  0  0  0  0  0  0  0  0  0
  154.1056  139.0826  158.2833 O   0  0  0  0  0  0  0  0  0  0  0  0
  151.9433  138.4771  157.9628 N   0  0  0  0  0  0  0  0  0  0  0  0
  151.3349  139.7960  158.1069 C   0  0  0  0  0  0  0  0  0  0  0  0
  151.4452  140.3035  159.5531 C   0  0  0  0  0  0  0  0  0  0  0  0
  151.2804  141.7131  159.5549 O   0  0  0  0  0  0  0  0  0  0  0  0
  152.4758  142.4710  159.4205 C   0  0  2  0  0  0  0  0  0  0  0  0
  153.4065  142.2336  160.6306 C   0  0  0  0  0  0  0  0  0  0  0  0
  152.7768  142.7309  161.9430 C   0  0  0  0  0  0  0  0  0  0  0  0
  152.3692  144.2083  161.8428 C   0  0  0  0  0  0  0  0  0  0  0  0
  151.4459  144.4546  160.6389 C   0  0  0  0  0  0  0  0  0  0  0  0
  152.0852  143.9629  159.3236 C   0  0  2  0  0  0  0  0  0  0  0  0
  151.1854  144.2469  158.1108 C   0  0  0  0  0  0  0  0  0  0  0  0
  154.8889  135.0826  157.0571 O   0  0  0  0  0  0  0  0  0  0  0  0
  156.2351  134.8611  156.9368 C   0  0  0  0  0  0  0  0  0  0  0  0
  156.6777  133.5177  156.4652 C   0  0  0  0  0  0  0  0  0  0  0  0
  158.9227  135.6213  156.6340 H   0  0  0  0  0  0  0  0  0  0  0  0
  158.7921  136.0837  158.3279 H   0  0  0  0  0  0  0  0  0  0  0  0
  158.6090  137.2976  157.0654 H   0  0  0  0  0  0  0  0  0  0  0  0
  152.7376  136.3363  157.5713 H   0  0  0  0  0  0  0  0  0  0  0  0
  151.3218  137.7120  157.7459 H   0  0  0  0  0  0  0  0  0  0  0  0
  151.8624  140.4789  157.4409 H   0  0  0  0  0  0  0  0  0  0  0  0
  150.2942  139.7851  157.7788 H   0  0  0  0  0  0  0  0  0  0  0  0
  150.6997  139.8090  160.1759 H   0  0  0  0  0  0  0  0  0  0  0  0
  152.4254  140.0570  159.9628 H   0  0  0  0  0  0  0  0  0  0  0  0
  152.9886  142.1829  158.5010 H   0  0  0  0  0  0  0  0  0  0  0  0
  153.6701  141.1807  160.7226 H   0  0  0  0  0  0  0  0  0  0  0  0
  154.3467  142.7608  160.4649 H   0  0  0  0  0  0  0  0  0  0  0  0
  151.9019  142.1270  162.1836 H   0  0  0  0  0  0  0  0  0  0  0  0
  153.4781  142.5956  162.7666 H   0  0  0  0  0  0  0  0  0  0  0  0
  151.8717  144.5190  162.7621 H   0  0  0  0  0  0  0  0  0  0  0  0
  153.2624  144.8271  161.7495 H   0  0  0  0  0  0  0  0  0  0  0  0
  150.4934  143.9482  160.8016 H   0  0  0  0  0  0  0  0  0  0  0  0
  151.2182  145.5188  160.5681 H   0  0  0  0  0  0  0  0  0  0  0  0
  153.0043  144.5318  159.1747 H   0  0  0  0  0  0  0  0  0  0  0  0
  150.2306  143.7263  158.1909 H   0  0  0  0  0  0  0  0  0  0  0  0
  151.6627  143.9266  157.1843 H   0  0  0  0  0  0  0  0  0  0  0  0
  150.9744  145.3128  158.0211 H   0  0  0  0  0  0  0  0  0  0  0  0
  157.6241  133.2360  156.9273 H   0  0  0  0  0  0  0  0  0  0  0  0
  156.8150  133.5154  155.3838 H   0  0  0  0  0  0  0  0  0  0  0  0
  155.9409  132.7539  156.7150 H   0  0  0  0  0  0  0  0  0  0  0  0
  1  2  1  0  0  0  0
  1 22  1  0  0  0  0
  1 23  1  0  0  0  0
  1 24  1  0  0  0  0
  2 20  2  0  0  0  0
  2  3  1  0  0  0  0
  3  4  2  0  0  0  0
  4  5  1  0  0  0  0
  4 19  1  0  0  0  0
  5  6  1  0  0  0  0
  5 25  1  0  0  0  0
  6  7  2  0  0  0  0
  6  8  1  0  0  0  0
  8  9  1  0  0  0  0
  8 26  1  0  0  0  0
  9 10  1  0  0  0  0
  9 27  1  0  0  0  0
  9 28  1  0  0  0  0
 10 11  1  0  0  0  0
 10 29  1  0  0  0  0
 10 30  1  0  0  0  0
 11 12  1  0  0  0  0
 12 17  1  0  0  0  0
 12 13  1  0  0  0  0
 12 31  1  0  0  0  0
 13 14  1  0  0  0  0
 13 32  1  0  0  0  0
 13 33  1  0  0  0  0
 14 15  1  0  0  0  0
 14 34  1  0  0  0  0
 14 35  1  0  0  0  0
 15 16  1  0  0  0  0
 15 36  1  0  0  0  0
 15 37  1  0  0  0  0
 16 17  1  0  0  0  0
 16 38  1  0  0  0  0
 16 39  1  0  0  0  0
 17 18  1  0  0  0  0
 17 40  1  0  0  0  0
 18 41  1  0  0  0  0
 18 42  1  0  0  0  0
 18 43  1  0  0  0  0
 19 20  1  0  0  0  0
 20 21  1  0  0  0  0
 21 44  1  0  0  0  0
 21 45  1  0  0  0  0
 21 46  1  0  0  0  0
M  END
> <s_m_source_file>
AV-unprocessed.smi

> <i_m_source_file_index>
910

> <i_lp_mmshare_version>
43012

> <i_f3d_flags>
0

> <s_epik_input>
W0NIM11jMW5jKG9jMVtDSDNdKVtOSF1DKD1PKVtOSF1bQ0gyXVtDSDJdT1tDQEBIXTJbQ0gyXVtDSDJdW0NIMl1bQ0gyXVtDQEhdMltDSDNd

> <s_epik_cmdline>
J2VwaWtfcHl0aG9uJywgJy1waCcsICc3LjAnLCAnLXRuJywgJzgnLCAnLW1hJywgJzIwMCcsICctbWV0YWxfYmluZGluZycsICctaW1hZScsICc8aW5maWxlLm1hZT4nLCAnLW9tYWUnLCAnPG91dGZpbGUubWFlPic=

> <r_lp_tautomer_probability>
0.785861

> <r_epik_Ionization_Penalty>
4.15957e-05

> <r_epik_Ionization_Penalty_Charging>
0

> <r_epik_Ionization_Penalty_Neutral>
4.15957e-05

> <r_epik_State_Penalty>
0.0240523

> <r_epik_Charging_Adjusted_Penalty>
0.0240523

> <i_epik_Tot_Q>
0

> <i_epik_Tot_abs_Q>
0

> <r_epik_Metal_State_Penalty>
0.057053

> <b_epik_Metal_Only>
0

> <s_lp_Force_Field>
OPLS_2005

> <r_lp_Energy>
8.47643

> <b_lp_Chiralities_Consistent>
1

> <s_lp_Variant>
AV-unprocessed.smi:910-3

> <Gold.Version>
5.8.1

> <Gold.Id.Protein>
6NUR|6NUR_protein|mol2

> <Gold.PLP.Fitness>
43.9468

> <Gold.PLP.PLP>
-38.6392

> <Gold.PLP.part.hbond>
-2.0000

> <Gold.PLP.part.metal>
0.0000

> <Gold.PLP.part.buried>
-4.6496

> <Gold.PLP.part.nonpolar>
-30.9925

> <Gold.PLP.part.repulsive>
0.2464

> <Gold.PLP.ligand.clash>
0.0000

> <Gold.PLP.ligand.torsion>
0.3625

> <Gold.PLP.Chemscore.Hbond>
2.0000

> <Gold.PLP.Chemscore.CHOScore>
0.0000

> <Gold.PLP.Chemscore.Metal>
0.0000

> <Gold.Chemscore.Hbonds>
donor molecule, donor type, donor heavy atom, donor atom, acceptor molecule, acceptor atom, score
      P1  H  7997  8008       L1     7  1.00
      P1  H 10752 10764       L1    19  1.00

> <Gold.PLP.Chemscore.Internal.Correction>
0.0327

> <Gold.Rescore>
     Score         DG    S(hbond)    S(metal)    S(lipo)     H(rot)  DE(clash)    DE(int)     intcor
     17.54     -19.09       1.81        0.00     100.89       1.66       0.01       1.55       ----

> <Gold.Chemscore.Fitness>
17.5400

> <Gold.Chemscore.DG>
-19.0923

> <Gold.Chemscore.ZeroCoef>
-5.4800

> <Gold.Chemscore.Hbond>
1.8120

> <Gold.Chemscore.Metal>
0.0000

> <Gold.Chemscore.Lipo>
100.8881

> <Gold.Chemscore.Internal_Hbond>
0.0000

> <Gold.Chemscore.DEClash>
0.0057

> <Gold.Chemscore.DEInternal>
1.5467

> <Gold.Chemscore.Rot>
1.6576

> <Gold.Chemscore.Internal.Correction>
   9.000000E+99

> <Gold.Chemscore.Hbonds>
donor molecule, donor type, donor heavy atom, donor atom, acceptor molecule, acceptor atom, score
      P1  H  7997  8008       L1     7  0.95
      P1  H 10752 10764       L1    19  0.18

> <Gold.Chemscore.Hbond.Weighted>
-6.0520

> <Gold.Chemscore.Metal.Weighted>
-0.0000

> <Gold.Chemscore.Lipo.Weighted>
-11.8039

> <Gold.Chemscore.Internal_Hbond.Weighted>
0.0000

> <Gold.Chemscore.DEClash.Weighted>
0.0057

> <Gold.Chemscore.DEInternal.Weighted>
1.5467

> <Gold.Chemscore.Rot.Weighted>
4.2436

> <Gold.Chemscore.Internal.Correction.Weighted>
   9.000000E+99

> <Gold.Protein.RotatedTorsions>
[ 6907 6896 6895 6894 ] final -170.33 input  -60.11 | X-H torsion
[ 7974 7965 7964 7962 ] final -178.10 input  175.53 | X-H torsion
[ 8008 7997 7996 7995 ] final -121.15 input   59.86 | X-H torsion
[ 10167 10162 10161 10158 ] final -172.32 input  -65.29 | X-H torsion
[ 10718 10713 10712 10709 ] final  -13.36 input   66.30 | X-H torsion
[ 10763 10752 10751 10750 ] final   33.50 input  -60.55 | X-H torsion
[ 11005 11000 10999 10996 ] final -131.78 input  -57.11 | X-H torsion

> <Gold.Protein.ActiveResidues>
 VAL166  LYS551  ARG553  GLY616  TRP617  ASP618  TYR619  PRO620  LYS621  CYS622 
 ASP623  PHE694  ASN695  SER759  ASP760  ASP761  ALA762  ILE779  LEU786  VAL792 
 PHE793  MET794  SER795  GLU796  ALA797  LYS798  CYS799  TRP800  GLU811  SER814 

> <Gold.Protein.RotatedAtoms>
  151.5059  133.3494  159.2876 H   0  0  0  0  0  0  0  0  0  0  0  0  # atno 6907 bound_to 6896
  150.8743  134.8125  159.7189 H   0  0  0  0  0  0  0  0  0  0  0  0  # atno 6908 bound_to 6896
  152.4720  134.4948  159.9758 H   0  0  0  0  0  0  0  0  0  0  0  0  # atno 6909 bound_to 6896
  144.7129  140.0919  143.6421 H   0  0  0  0  0  0  0  0  0  0  0  0  # atno 7974 bound_to 7965
  155.1434  140.0402  157.2804 H   0  0  0  0  0  0  0  0  0  0  0  0  # atno 8008 bound_to 7997
  154.6456  140.2557  155.7245 H   0  0  0  0  0  0  0  0  0  0  0  0  # atno 8009 bound_to 7997
  156.2553  140.2846  156.0869 H   0  0  0  0  0  0  0  0  0  0  0  0  # atno 8010 bound_to 7997
  139.5751  144.1551  152.1439 H   0  0  0  0  0  0  0  0  0  0  0  0  # atno 10167 bound_to 10162
  156.6314  130.4902  149.6127 H   0  0  0  0  0  0  0  0  0  0  0  0  # atno 10718 bound_to 10713
  153.0209  135.6385  154.1522 H   0  0  0  0  0  0  0  0  0  0  0  0  # atno 10763 bound_to 10752
  154.1256  135.2844  155.3199 H   0  0  0  0  0  0  0  0  0  0  0  0  # atno 10764 bound_to 10752
  154.6231  135.5518  153.7659 H   0  0  0  0  0  0  0  0  0  0  0  0  # atno 10765 bound_to 10752
  140.9228  134.1421  157.4300 H   0  0  0  0  0  0  0  0  0  0  0  0  # atno 11005 bound_to 11000
  145.9613  139.2802  143.1154 LP  0  0  0  0  0  0  0  0  0  0  0  0  # atno 17320 bound_to 7965
  145.9218  140.9110  143.0401 LP  0  0  0  0  0  0  0  0  0  0  0  0  # atno 17321 bound_to 7965
  140.1092  144.5472  150.6936 LP  0  0  0  0  0  0  0  0  0  0  0  0  # atno 17342 bound_to 10162
  140.7034  143.2450  151.4798 LP  0  0  0  0  0  0  0  0  0  0  0  0  # atno 17343 bound_to 10162
  156.2231  130.6749  151.1389 LP  0  0  0  0  0  0  0  0  0  0  0  0  # atno 17370 bound_to 10713
  157.7199  131.0688  150.6180 LP  0  0  0  0  0  0  0  0  0  0  0  0  # atno 17371 bound_to 10713
  139.8779  134.9977  156.5864 LP  0  0  0  0  0  0  0  0  0  0  0  0  # atno 17394 bound_to 11000
  140.7965  133.8540  155.8690 LP  0  0  0  0  0  0  0  0  0  0  0  0  # atno 17395 bound_to 11000

$$$$
