AV-unprocessed.smi:177|AV-procd|sdf|1437|dock1
  -GOLD-   2262019223D 1   1.00000     0.00000
 Structure written by MMmdl.
 61 65  0  0  0  0  0  0  0  0  1 V2000
  153.5604  142.0892  162.2035 C   0  0  0  0  0  0  0  0  0  0  0  0
  152.9361  143.1531  161.5015 O   0  0  0  0  0  0  0  0  0  0  0  0
  152.8860  142.9778  160.0909 C   0  0  2  0  0  0  0  0  0  0  0  0
  152.5465  144.3450  159.4725 C   0  0  0  0  0  0  0  0  0  0  0  0
  152.3813  144.2464  157.9488 C   0  0  0  0  0  0  0  0  0  0  0  0
  151.3202  143.1974  157.5863 C   0  0  1  0  0  0  0  0  0  0  0  0
  151.2039  143.1194  156.1705 O   0  0  0  0  0  0  0  0  0  0  0  0
  150.1605  142.2351  155.7802 C   0  0  0  0  0  0  0  0  0  0  0  0
  150.4763  140.8187  156.2845 C   0  0  0  0  0  0  0  0  0  0  0  0
  150.7025  140.8182  157.7273 N   0  0  0  0  0  0  0  0  0  0  0  0
  150.8409  139.5462  158.1745 C   0  0  0  0  0  0  0  0  0  0  0  0
  152.0768  139.0230  158.3944 N   0  0  0  0  0  0  0  0  0  0  0  0
  152.2048  137.7622  158.8188 C   0  0  0  0  0  0  0  0  0  0  0  0
  151.2496  136.8640  159.0686 N   0  0  0  0  0  0  0  0  0  0  0  0
  150.0093  137.3803  158.8306 C   0  0  0  0  0  0  0  0  0  0  0  0
  149.7192  138.7008  158.3869 C   0  0  0  0  0  0  0  0  0  0  0  0
  148.3467  138.8713  158.2619 N   0  0  0  0  0  0  0  0  0  0  0  0
  147.8520  137.7160  158.6148 C   0  0  0  0  0  0  0  0  0  0  0  0
  148.7794  136.7564  158.9565 N   0  0  0  0  0  0  0  0  0  0  0  0
  148.5045  135.3955  159.3965 C   0  0  0  0  0  0  0  0  0  0  0  0
  147.6036  135.2585  160.6630 C   0  0  0  0  0  0  0  0  0  0  0  0
  146.1531  135.6366  160.2461 C   0  0  0  0  0  0  0  0  0  0  0  0
  145.6333  134.7757  159.2520 O   0  0  0  0  0  0  0  0  0  0  0  0
  147.6652  133.8262  161.2562 C   0  0  0  0  0  0  0  0  0  0  0  0
  146.9410  133.7154  162.6105 C   0  0  0  0  0  0  0  0  0  0  0  0
  147.5001  134.6408  163.5346 O   0  0  0  0  0  0  0  0  0  0  0  0
  147.3582  135.9944  163.1218 C   0  0  0  0  0  0  0  0  0  0  0  0
  148.0866  136.2170  161.7827 C   0  0  0  0  0  0  0  0  0  0  0  0
  151.6977  141.8095  158.1561 C   0  0  2  0  0  0  0  0  0  0  0  0
  151.8339  141.9184  159.6952 C   0  0  0  0  0  0  0  0  0  0  0  0
  153.6070  142.3349  163.2642 H   0  0  0  0  0  0  0  0  0  0  0  0
  154.5812  141.9300  161.8546 H   0  0  0  0  0  0  0  0  0  0  0  0
  153.0071  141.1557  162.1057 H   0  0  0  0  0  0  0  0  0  0  0  0
  153.8677  142.6737  159.7228 H   0  0  0  0  0  0  0  0  0  0  0  0
  151.6245  144.7278  159.9122 H   0  0  0  0  0  0  0  0  0  0  0  0
  153.3266  145.0676  159.7143 H   0  0  0  0  0  0  0  0  0  0  0  0
  152.0992  145.2181  157.5431 H   0  0  0  0  0  0  0  0  0  0  0  0
  153.3353  143.9826  157.4907 H   0  0  0  0  0  0  0  0  0  0  0  0
  150.3620  143.5193  158.0003 H   0  0  0  0  0  0  0  0  0  0  0  0
  149.2030  142.5833  156.1706 H   0  0  0  0  0  0  0  0  0  0  0  0
  150.0806  142.2379  154.6932 H   0  0  0  0  0  0  0  0  0  0  0  0
  149.6523  140.1513  156.0285 H   0  0  0  0  0  0  0  0  0  0  0  0
  151.3655  140.4367  155.7802 H   0  0  0  0  0  0  0  0  0  0  0  0
  153.2183  137.4246  158.9790 H   0  0  0  0  0  0  0  0  0  0  0  0
  146.7882  137.5282  158.6316 H   0  0  0  0  0  0  0  0  0  0  0  0
  148.0489  134.8630  158.5604 H   0  0  0  0  0  0  0  0  0  0  0  0
  149.4674  134.9120  159.5646 H   0  0  0  0  0  0  0  0  0  0  0  0
  145.4624  135.6145  161.0867 H   0  0  0  0  0  0  0  0  0  0  0  0
  146.1257  136.6557  159.8591 H   0  0  0  0  0  0  0  0  0  0  0  0
  145.1084  135.2879  158.6559 H   0  0  0  0  0  0  0  0  0  0  0  0
  147.2592  133.0976  160.5541 H   0  0  0  0  0  0  0  0  0  0  0  0
  148.7014  133.5350  161.4237 H   0  0  0  0  0  0  0  0  0  0  0  0
  145.8680  133.8805  162.5098 H   0  0  0  0  0  0  0  0  0  0  0  0
  147.0628  132.7097  163.0131 H   0  0  0  0  0  0  0  0  0  0  0  0
  146.3036  136.2627  163.0618 H   0  0  0  0  0  0  0  0  0  0  0  0
  147.7944  136.6356  163.8878 H   0  0  0  0  0  0  0  0  0  0  0  0
  149.1483  136.0663  161.9743 H   0  0  0  0  0  0  0  0  0  0  0  0
  147.9796  137.2553  161.4671 H   0  0  0  0  0  0  0  0  0  0  0  0
  152.6635  141.5205  157.7379 H   0  0  0  0  0  0  0  0  0  0  0  0
  152.1130  140.9566  160.1216 H   0  0  0  0  0  0  0  0  0  0  0  0
  150.8690  142.1784  160.1327 H   0  0  0  0  0  0  0  0  0  0  0  0
  1  2  1  0  0  0  0
  1 31  1  0  0  0  0
  1 32  1  0  0  0  0
  1 33  1  0  0  0  0
  2  3  1  0  0  0  0
  3 30  1  0  0  0  0
  3  4  1  0  0  0  0
  3 34  1  0  0  0  0
  4  5  1  0  0  0  0
  4 35  1  0  0  0  0
  4 36  1  0  0  0  0
  5  6  1  0  0  0  0
  5 37  1  0  0  0  0
  5 38  1  0  0  0  0
  6 29  1  0  0  0  0
  6  7  1  0  0  0  0
  6 39  1  0  0  0  0
  7  8  1  0  0  0  0
  8  9  1  0  0  0  0
  8 40  1  0  0  0  0
  8 41  1  0  0  0  0
  9 10  1  0  0  0  0
  9 42  1  0  0  0  0
  9 43  1  0  0  0  0
 10 11  1  0  0  0  0
 10 29  1  0  0  0  0
 11 16  1  0  0  0  0
 11 12  2  0  0  0  0
 12 13  1  0  0  0  0
 13 14  2  0  0  0  0
 13 44  1  0  0  0  0
 14 15  1  0  0  0  0
 15 19  1  0  0  0  0
 15 16  2  0  0  0  0
 16 17  1  0  0  0  0
 17 18  2  0  0  0  0
 18 19  1  0  0  0  0
 18 45  1  0  0  0  0
 19 20  1  0  0  0  0
 20 21  1  0  0  0  0
 20 46  1  0  0  0  0
 20 47  1  0  0  0  0
 21 28  1  0  0  0  0
 21 22  1  0  0  0  0
 21 24  1  0  0  0  0
 22 23  1  0  0  0  0
 22 48  1  0  0  0  0
 22 49  1  0  0  0  0
 23 50  1  0  0  0  0
 24 25  1  0  0  0  0
 24 51  1  0  0  0  0
 24 52  1  0  0  0  0
 25 26  1  0  0  0  0
 25 53  1  0  0  0  0
 25 54  1  0  0  0  0
 26 27  1  0  0  0  0
 27 28  1  0  0  0  0
 27 55  1  0  0  0  0
 27 56  1  0  0  0  0
 28 57  1  0  0  0  0
 28 58  1  0  0  0  0
 29 30  1  0  0  0  0
 29 59  1  0  0  0  0
 30 60  1  0  0  0  0
 30 61  1  0  0  0  0
M  END
> <s_m_source_file>
AV-unprocessed.smi

> <i_m_source_file_index>
177

> <i_lp_mmshare_version>
43012

> <i_f3d_flags>
0

> <s_epik_input>
W0NIM11PW0NASF0oW0NIMl1bQ0gyXTEpW0NIMl1bQ0BIXShbQ0BASF0xMilOKFtDSDJdW0NIMl1PMiljKG5bY0hdbjMpYyhjMzQpbltjSF1uNFtDSDJdQzUoW0NIMl1bT0hdKVtDSDJdW0NIMl1PW0NIMl1bQ0gyXTU=

> <s_epik_cmdline>
J2VwaWtfcHl0aG9uJywgJy1waCcsICc3LjAnLCAnLXRuJywgJzgnLCAnLW1hJywgJzIwMCcsICctbWV0YWxfYmluZGluZycsICctaW1hZScsICc8aW5maWxlLm1hZT4nLCAnLW9tYWUnLCAnPG91dGZpbGUubWFlPic=

> <r_lp_tautomer_probability>
1

> <r_epik_Ionization_Penalty>
0.0065899

> <r_epik_Ionization_Penalty_Charging>
0

> <r_epik_Ionization_Penalty_Neutral>
0.0065899

> <r_epik_State_Penalty>
0.00470042

> <r_epik_Charging_Adjusted_Penalty>
0.00470042

> <i_epik_Tot_Q>
0

> <i_epik_Tot_abs_Q>
0

> <r_epik_Metal_State_Penalty>
-0

> <b_epik_Metal_Only>
0

> <s_lp_Force_Field>
OPLS_2005

> <r_lp_Energy>
44.8058

> <b_lp_Chiralities_Consistent>
1

> <s_lp_Variant>
AV-unprocessed.smi:177-1

> <Gold.Version>
5.8.1

> <Gold.Id.Protein>
6NUR|6NUR_protein|mol2

> <Gold.PLP.Fitness>
51.0192

> <Gold.PLP.PLP>
-49.6109

> <Gold.PLP.part.hbond>
-3.2177

> <Gold.PLP.part.metal>
0.0000

> <Gold.PLP.part.buried>
-1.7937

> <Gold.PLP.part.nonpolar>
-46.4587

> <Gold.PLP.part.repulsive>
1.8940

> <Gold.PLP.ligand.clash>
0.0000

> <Gold.PLP.ligand.torsion>
0.8832

> <Gold.PLP.Chemscore.Hbond>
1.0000

> <Gold.PLP.Chemscore.CHOScore>
0.0000

> <Gold.PLP.Chemscore.Metal>
0.0000

> <Gold.Chemscore.Hbonds>
donor molecule, donor type, donor heavy atom, donor atom, acceptor molecule, acceptor atom, score
      P1  H  6896  6908       L1    14  1.00

> <Gold.PLP.Chemscore.Internal.Correction>
0.1746

> <Gold.Rescore>
     Score         DG    S(hbond)    S(metal)    S(lipo)     H(rot)  DE(clash)    DE(int)     intcor
     14.54     -17.64       0.93        0.00     133.77       2.58       2.13       0.98       ----

> <Gold.Chemscore.Fitness>
14.5351

> <Gold.Chemscore.DG>
-17.6396

> <Gold.Chemscore.ZeroCoef>
-5.4800

> <Gold.Chemscore.Hbond>
0.9325

> <Gold.Chemscore.Metal>
0.0000

> <Gold.Chemscore.Lipo>
133.7701

> <Gold.Chemscore.Internal_Hbond>
0.0000

> <Gold.Chemscore.DEClash>
2.1284

> <Gold.Chemscore.DEInternal>
0.9761

> <Gold.Chemscore.Rot>
2.5806

> <Gold.Chemscore.Internal.Correction>
   9.000000E+99

> <Gold.Chemscore.Hbonds>
donor molecule, donor type, donor heavy atom, donor atom, acceptor molecule, acceptor atom, score
      P1  H  6896  6908       L1    14  0.81

> <Gold.Chemscore.Hbond.Weighted>
-3.1147

> <Gold.Chemscore.Metal.Weighted>
-0.0000

> <Gold.Chemscore.Lipo.Weighted>
-15.6511

> <Gold.Chemscore.Internal_Hbond.Weighted>
0.0000

> <Gold.Chemscore.DEClash.Weighted>
2.1284

> <Gold.Chemscore.DEInternal.Weighted>
0.9761

> <Gold.Chemscore.Rot.Weighted>
6.6062

> <Gold.Chemscore.Internal.Correction.Weighted>
   9.000000E+99

> <Gold.Protein.RotatedTorsions>
[ 6907 6896 6895 6894 ] final -145.19 input  -60.11 | X-H torsion
[ 7974 7965 7964 7962 ] final   45.02 input  175.53 | X-H torsion
[ 8008 7997 7996 7995 ] final   62.91 input   59.86 | X-H torsion
[ 10167 10162 10161 10158 ] final   17.92 input  -65.29 | X-H torsion
[ 10718 10713 10712 10709 ] final  -95.87 input   66.30 | X-H torsion
[ 10763 10752 10751 10750 ] final -152.04 input  -60.55 | X-H torsion
[ 11005 11000 10999 10996 ] final   46.16 input  -57.11 | X-H torsion

> <Gold.Protein.ActiveResidues>
 VAL166  LYS551  ARG553  GLY616  TRP617  ASP618  TYR619  PRO620  LYS621  CYS622 
 ASP623  PHE694  ASN695  SER759  ASP760  ASP761  ALA762  ILE779  LEU786  VAL792 
 PHE793  MET794  SER795  GLU796  ALA797  LYS798  CYS799  TRP800  GLU811  SER814 

> <Gold.Protein.RotatedAtoms>
  151.1244  133.5081  159.2600 H   0  0  0  0  0  0  0  0  0  0  0  0  # atno 6907 bound_to 6896
  151.1826  135.0367  159.8809 H   0  0  0  0  0  0  0  0  0  0  0  0  # atno 6908 bound_to 6896
  152.5457  134.1094  159.8405 H   0  0  0  0  0  0  0  0  0  0  0  0  # atno 6909 bound_to 6896
  146.0517  139.5010  142.9714 H   0  0  0  0  0  0  0  0  0  0  0  0  # atno 7974 bound_to 7965
  155.6219  140.3496  155.4654 H   0  0  0  0  0  0  0  0  0  0  0  0  # atno 8008 bound_to 7997
  156.0072  140.1225  157.0513 H   0  0  0  0  0  0  0  0  0  0  0  0  # atno 8009 bound_to 7997
  154.4268  140.1088  156.5766 H   0  0  0  0  0  0  0  0  0  0  0  0  # atno 8010 bound_to 7997
  140.5691  143.9195  150.6699 H   0  0  0  0  0  0  0  0  0  0  0  0  # atno 10167 bound_to 10162
  156.0051  130.5127  150.6141 H   0  0  0  0  0  0  0  0  0  0  0  0  # atno 10718 bound_to 10713
  154.8020  135.3245  154.7527 H   0  0  0  0  0  0  0  0  0  0  0  0  # atno 10763 bound_to 10752
  153.8193  135.6889  153.4834 H   0  0  0  0  0  0  0  0  0  0  0  0  # atno 10764 bound_to 10752
  153.1742  135.4611  154.9886 H   0  0  0  0  0  0  0  0  0  0  0  0  # atno 10765 bound_to 10752
  140.1394  134.4603  155.8461 H   0  0  0  0  0  0  0  0  0  0  0  0  # atno 11005 bound_to 11000
  145.6713  141.0215  143.1656 LP  0  0  0  0  0  0  0  0  0  0  0  0  # atno 17320 bound_to 7965
  144.7126  139.8314  143.7409 LP  0  0  0  0  0  0  0  0  0  0  0  0  # atno 17321 bound_to 7965
  140.2666  143.3486  152.1275 LP  0  0  0  0  0  0  0  0  0  0  0  0  # atno 17342 bound_to 10162
  139.5108  144.6890  151.5810 LP  0  0  0  0  0  0  0  0  0  0  0  0  # atno 17343 bound_to 10162
  157.3968  131.0804  151.1344 LP  0  0  0  0  0  0  0  0  0  0  0  0  # atno 17370 bound_to 10713
  157.2018  130.6398  149.5741 LP  0  0  0  0  0  0  0  0  0  0  0  0  # atno 17371 bound_to 10713
  141.2183  133.6827  156.7218 LP  0  0  0  0  0  0  0  0  0  0  0  0  # atno 17394 bound_to 11000
  140.2741  134.8369  157.3874 LP  0  0  0  0  0  0  0  0  0  0  0  0  # atno 17395 bound_to 11000

$$$$
