AV-unprocessed.smi:2510|AV-procd|sdf|9881|dock6
  -GOLD-   2272013513D 1   1.00000     0.00000
 Structure written by MMmdl.
 48 49  0  0  0  0  0  0  0  0  1 V2000
  149.3255  139.3673  157.5209 C   0  0  0  0  0  0  0  0  0  0  0  0
  150.5714  138.7297  156.8835 C   0  0  0  0  0  0  0  0  0  0  0  0
  150.3253  138.0269  155.5257 C   0  0  0  0  0  0  0  0  0  0  0  0
  151.6846  137.5864  154.9278 C   0  0  0  0  0  0  0  0  0  0  0  0
  152.7018  138.7189  154.7197 C   0  0  0  0  0  0  0  0  0  0  0  0
  149.1721  136.9784  155.5790 C   0  0  2  0  0  0  0  0  0  0  0  0
  149.3231  135.8840  154.6203 N   0  0  0  0  0  0  0  0  0  0  0  0
  149.1382  134.5864  154.9062 C   0  0  0  0  0  0  0  0  0  0  0  0
  148.7363  134.1816  155.9966 O   0  0  0  0  0  0  0  0  0  0  0  0
  149.4896  133.5916  153.7998 C   0  0  0  0  0  0  0  0  0  0  0  0
  148.2502  133.1047  153.1187 C   0  0  0  0  0  0  0  0  0  0  0  0
  147.6185  131.8929  153.1535 C   0  0  0  0  0  0  0  0  0  0  0  0
  146.4738  132.0682  152.3222 C   0  0  0  0  0  0  0  0  0  0  0  0
  145.4047  131.0676  151.9963 C   0  0  0  0  0  0  0  0  0  0  0  0
  146.4042  133.2864  151.8070 N   0  0  0  0  0  0  0  0  0  0  0  0
  147.4922  133.9083  152.2970 N   0  0  0  0  0  0  0  0  0  0  0  0
  148.1889  138.0512  155.0760 C   0  0  2  0  0  0  0  0  0  0  0  0
  147.0464  137.6781  154.1345 C   0  0  0  0  0  0  0  0  0  0  0  0
  149.4168  138.7977  154.5357 C   0  0  1  0  0  0  0  0  0  0  0  0
  149.4198  140.1996  154.7621 O   0  0  0  0  0  0  0  0  0  0  0  0
  148.3853  140.8773  154.0713 C   0  0  0  0  0  0  0  0  0  0  0  0
  147.6974  134.8716  152.0732 H   0  0  0  0  0  0  0  0  0  0  0  0
  149.6015  139.9406  158.4060 H   0  0  0  0  0  0  0  0  0  0  0  0
  148.6033  138.6161  157.8389 H   0  0  0  0  0  0  0  0  0  0  0  0
  148.8234  140.0475  156.8333 H   0  0  0  0  0  0  0  0  0  0  0  0
  151.3095  139.5221  156.7582 H   0  0  0  0  0  0  0  0  0  0  0  0
  151.0290  138.0472  157.5989 H   0  0  0  0  0  0  0  0  0  0  0  0
  152.1353  136.7934  155.5239 H   0  0  0  0  0  0  0  0  0  0  0  0
  151.5293  137.1397  153.9460 H   0  0  0  0  0  0  0  0  0  0  0  0
  153.5731  138.3526  154.1765 H   0  0  0  0  0  0  0  0  0  0  0  0
  153.0614  139.1236  155.6651 H   0  0  0  0  0  0  0  0  0  0  0  0
  152.2728  139.5368  154.1405 H   0  0  0  0  0  0  0  0  0  0  0  0
  148.9214  136.6413  156.5859 H   0  0  0  0  0  0  0  0  0  0  0  0
  149.6536  136.1256  153.6975 H   0  0  0  0  0  0  0  0  0  0  0  0
  150.1555  134.0646  153.0768 H   0  0  0  0  0  0  0  0  0  0  0  0
  150.0377  132.7534  154.2314 H   0  0  0  0  0  0  0  0  0  0  0  0
  147.9230  131.0133  153.7009 H   0  0  0  0  0  0  0  0  0  0  0  0
  145.4609  130.2027  152.6573 H   0  0  0  0  0  0  0  0  0  0  0  0
  145.5038  130.7097  150.9714 H   0  0  0  0  0  0  0  0  0  0  0  0
  144.4105  131.5019  152.1047 H   0  0  0  0  0  0  0  0  0  0  0  0
  147.7963  138.5865  155.9423 H   0  0  0  0  0  0  0  0  0  0  0  0
  147.4153  137.3063  153.1783 H   0  0  0  0  0  0  0  0  0  0  0  0
  146.4089  138.5367  153.9257 H   0  0  0  0  0  0  0  0  0  0  0  0
  146.4160  136.9031  154.5703 H   0  0  0  0  0  0  0  0  0  0  0  0
  149.6385  138.5383  153.4979 H   0  0  0  0  0  0  0  0  0  0  0  0
  148.4695  141.9490  154.2505 H   0  0  0  0  0  0  0  0  0  0  0  0
  147.4018  140.5582  154.4154 H   0  0  0  0  0  0  0  0  0  0  0  0
  148.4530  140.7103  152.9956 H   0  0  0  0  0  0  0  0  0  0  0  0
  1  2  1  0  0  0  0
  1 23  1  0  0  0  0
  1 24  1  0  0  0  0
  1 25  1  0  0  0  0
  2  3  1  0  0  0  0
  2 26  1  0  0  0  0
  2 27  1  0  0  0  0
  3 19  1  0  0  0  0
  3  4  1  0  0  0  0
  3  6  1  0  0  0  0
  4  5  1  0  0  0  0
  4 28  1  0  0  0  0
  4 29  1  0  0  0  0
  5 30  1  0  0  0  0
  5 31  1  0  0  0  0
  5 32  1  0  0  0  0
  6  7  1  0  0  0  0
  6 17  1  0  0  0  0
  6 33  1  0  0  0  0
  7  8  1  0  0  0  0
  7 34  1  0  0  0  0
  8  9  2  0  0  0  0
  8 10  1  0  0  0  0
 10 35  1  0  0  0  0
 10 36  1  0  0  0  0
 10 11  1  0  0  0  0
 11 16  1  0  0  0  0
 11 12  2  0  0  0  0
 12 13  1  0  0  0  0
 12 37  1  0  0  0  0
 13 14  1  0  0  0  0
 13 15  2  0  0  0  0
 14 38  1  0  0  0  0
 14 39  1  0  0  0  0
 14 40  1  0  0  0  0
 15 16  1  0  0  0  0
 16 22  1  0  0  0  0
 17 18  1  0  0  0  0
 17 19  1  0  0  0  0
 17 41  1  0  0  0  0
 18 42  1  0  0  0  0
 18 43  1  0  0  0  0
 18 44  1  0  0  0  0
 19 20  1  0  0  0  0
 19 45  1  0  0  0  0
 20 21  1  0  0  0  0
 21 46  1  0  0  0  0
 21 47  1  0  0  0  0
 21 48  1  0  0  0  0
M  END
> <s_m_source_file>
AV-unprocessed.smi

> <i_m_source_file_index>
2510

> <i_lp_mmshare_version>
43012

> <i_f3d_flags>
0

> <s_epik_input>
W0NIM11PW0NAQEhdMVtDQEhdKFtDSDNdKVtDQEBIXShDMShbQ0gyXVtDSDNdKVtDSDJdW0NIM10pW05IXUMoPU8pW0NIMl1jMltjSF1jKFtDSDNdKVtuSF1uMg==

> <s_epik_cmdline>
J2VwaWtfcHl0aG9uJywgJy1waCcsICc3LjAnLCAnLXRuJywgJzgnLCAnLW1hJywgJzIwMCcsICctbWV0YWxfYmluZGluZycsICctaW1hZScsICc8aW5maWxlLm1hZT4nLCAnLW9tYWUnLCAnPG91dGZpbGUubWFlPic=

> <r_lp_tautomer_probability>
0.5

> <r_epik_Ionization_Penalty>
0.000134763

> <r_epik_Ionization_Penalty_Charging>
0

> <r_epik_Ionization_Penalty_Neutral>
0.000134763

> <r_epik_State_Penalty>
0.41068

> <r_epik_Charging_Adjusted_Penalty>
0.41068

> <i_epik_Tot_Q>
0

> <i_epik_Tot_abs_Q>
0

> <r_epik_Metal_State_Penalty>
0.410661

> <b_epik_Metal_Only>
0

> <s_lp_Force_Field>
OPLS_2005

> <r_lp_Energy>
24.0531

> <b_lp_Chiralities_Consistent>
1

> <s_lp_Variant>
AV-unprocessed.smi:2510-12

> <Gold.Version>
5.8.1

> <Gold.Id.Protein>
6NUR|6NUR_protein|mol2

> <Gold.PLP.Fitness>
35.1487

> <Gold.PLP.PLP>
-30.6050

> <Gold.PLP.part.hbond>
-2.0000

> <Gold.PLP.part.metal>
0.0000

> <Gold.PLP.part.buried>
-4.3473

> <Gold.PLP.part.nonpolar>
-24.8973

> <Gold.PLP.part.repulsive>
0.2995

> <Gold.PLP.ligand.clash>
0.0000

> <Gold.PLP.ligand.torsion>
0.6783

> <Gold.PLP.Chemscore.Hbond>
1.7760

> <Gold.PLP.Chemscore.CHOScore>
0.0000

> <Gold.PLP.Chemscore.Metal>
0.0000

> <Gold.Chemscore.Hbonds>
donor molecule, donor type, donor heavy atom, donor atom, acceptor molecule, acceptor atom, score
      L1  H     7    34       P1  7948  0.80
      L1  H    16    22       P1  7948  0.96

> <Gold.PLP.Chemscore.Internal.Correction>
0.5723

> <Gold.Rescore>
     Score         DG    S(hbond)    S(metal)    S(lipo)     H(rot)  DE(clash)    DE(int)     intcor
     11.82     -14.92       1.52        0.00      76.96       1.81       0.06       3.04       ----

> <Gold.Chemscore.Fitness>
11.8227

> <Gold.Chemscore.DG>
-14.9229

> <Gold.Chemscore.ZeroCoef>
-5.4800

> <Gold.Chemscore.Hbond>
1.5188

> <Gold.Chemscore.Metal>
0.0000

> <Gold.Chemscore.Lipo>
76.9604

> <Gold.Chemscore.Internal_Hbond>
0.0000

> <Gold.Chemscore.DEClash>
0.0632

> <Gold.Chemscore.DEInternal>
3.0370

> <Gold.Chemscore.Rot>
1.8102

> <Gold.Chemscore.Internal.Correction>
   9.000000E+99

> <Gold.Chemscore.Hbonds>
donor molecule, donor type, donor heavy atom, donor atom, acceptor molecule, acceptor atom, score
      L1  H     7    34       P1  7948  0.31
      L1  H    16    22       P1  7948  0.69

> <Gold.Chemscore.Hbond.Weighted>
-5.0726

> <Gold.Chemscore.Metal.Weighted>
-0.0000

> <Gold.Chemscore.Lipo.Weighted>
-9.0044

> <Gold.Chemscore.Internal_Hbond.Weighted>
0.0000

> <Gold.Chemscore.DEClash.Weighted>
0.0632

> <Gold.Chemscore.DEInternal.Weighted>
3.0370

> <Gold.Chemscore.Rot.Weighted>
4.6341

> <Gold.Chemscore.Internal.Correction.Weighted>
   9.000000E+99

> <Gold.Protein.RotatedTorsions>
[ 6907 6896 6895 6894 ] final  -84.23 input  -60.11 | X-H torsion
[ 7974 7965 7964 7962 ] final -140.25 input  175.53 | X-H torsion
[ 8008 7997 7996 7995 ] final  167.38 input   59.86 | X-H torsion
[ 10167 10162 10161 10158 ] final   61.96 input  -65.29 | X-H torsion
[ 10718 10713 10712 10709 ] final -109.75 input   66.30 | X-H torsion
[ 10763 10752 10751 10750 ] final  103.18 input  -60.55 | X-H torsion
[ 11005 11000 10999 10996 ] final  -81.92 input  -57.11 | X-H torsion

> <Gold.Protein.ActiveResidues>
 VAL166  LYS551  ARG553  GLY616  TRP617  ASP618  TYR619  PRO620  LYS621  CYS622 
 ASP623  PHE694  ASN695  SER759  ASP760  ASP761  ALA762  ILE779  LEU786  VAL792 
 PHE793  MET794  SER795  GLU796  ALA797  LYS798  CYS799  TRP800  GLU811  SER814 

> <Gold.Protein.RotatedAtoms>
  150.6878  134.3391  159.4859 H   0  0  0  0  0  0  0  0  0  0  0  0  # atno 6907 bound_to 6896
  152.1246  134.9177  160.0571 H   0  0  0  0  0  0  0  0  0  0  0  0  # atno 6908 bound_to 6896
  152.0370  133.3926  159.4358 H   0  0  0  0  0  0  0  0  0  0  0  0  # atno 6909 bound_to 6896
  144.8612  140.6222  143.5327 H   0  0  0  0  0  0  0  0  0  0  0  0  # atno 7974 bound_to 7965
  156.1639  140.1618  156.8565 H   0  0  0  0  0  0  0  0  0  0  0  0  # atno 8008 bound_to 7997
  154.5188  140.0783  156.8167 H   0  0  0  0  0  0  0  0  0  0  0  0  # atno 8009 bound_to 7997
  155.3652  140.3397  155.4244 H   0  0  0  0  0  0  0  0  0  0  0  0  # atno 8010 bound_to 7997
  140.1491  144.4480  150.6769 H   0  0  0  0  0  0  0  0  0  0  0  0  # atno 10167 bound_to 10162
  156.0554  130.5780  150.8143 H   0  0  0  0  0  0  0  0  0  0  0  0  # atno 10718 bound_to 10713
  153.3493  135.3985  155.1633 H   0  0  0  0  0  0  0  0  0  0  0  0  # atno 10763 bound_to 10752
  154.8659  135.3652  154.5243 H   0  0  0  0  0  0  0  0  0  0  0  0  # atno 10764 bound_to 10752
  153.5694  135.7079  153.5571 H   0  0  0  0  0  0  0  0  0  0  0  0  # atno 10765 bound_to 10752
  141.1665  133.7219  156.8494 H   0  0  0  0  0  0  0  0  0  0  0  0  # atno 11005 bound_to 11000
  145.4309  139.1549  143.4023 LP  0  0  0  0  0  0  0  0  0  0  0  0  # atno 17320 bound_to 7965
  146.2862  140.4425  142.8757 LP  0  0  0  0  0  0  0  0  0  0  0  0  # atno 17321 bound_to 7965
  140.6713  143.2287  151.5617 LP  0  0  0  0  0  0  0  0  0  0  0  0  # atno 17342 bound_to 10162
  139.5434  144.2585  152.1396 LP  0  0  0  0  0  0  0  0  0  0  0  0  # atno 17343 bound_to 10162
  157.5518  131.0944  150.9684 LP  0  0  0  0  0  0  0  0  0  0  0  0  # atno 17370 bound_to 10713
  156.9942  130.5575  149.5306 LP  0  0  0  0  0  0  0  0  0  0  0  0  # atno 17371 bound_to 10713
  140.1926  134.8954  157.3078 LP  0  0  0  0  0  0  0  0  0  0  0  0  # atno 17394 bound_to 11000
  140.2273  134.3951  155.7537 LP  0  0  0  0  0  0  0  0  0  0  0  0  # atno 17395 bound_to 11000

$$$$
