AV-unprocessed.smi:856|AV-procd|sdf|3960|dock1
  -GOLD-   22720 1433D 1   1.00000     0.00000
 Structure written by MMmdl.
 42 44  0  0  0  0  0  0  0  0  1 V2000
  154.7221  139.8972  161.2484 C   0  0  0  0  0  0  0  0  0  0  0  0
  153.7357  140.8227  160.6596 N   0  0  0  0  0  0  0  0  0  0  0  0
  153.2435  140.5371  159.4130 C   0  0  0  0  0  0  0  0  0  0  0  0
  153.5753  139.5672  158.7303 O   0  0  0  0  0  0  0  0  0  0  0  0
  152.2569  141.5083  158.9282 C   0  0  0  0  0  0  0  0  0  0  0  0
  151.8865  142.5998  159.6403 C   0  0  0  0  0  0  0  0  0  0  0  0
  150.9477  143.3598  158.9520 N   0  0  0  0  0  0  0  0  0  0  0  0
  150.7966  142.6612  157.8259 C   0  0  0  0  0  0  0  0  0  0  0  0
  151.5406  141.5404  157.7319 N   0  0  0  0  0  0  0  0  0  0  0  0
  151.5547  140.6105  156.6129 C   0  0  0  0  0  0  0  0  0  0  0  0
  150.4520  140.9103  155.5760 C   0  0  1  0  0  0  0  0  0  0  0  0
  150.5490  140.0783  154.4371 O   0  0  0  0  0  0  0  0  0  0  0  0
  149.0297  140.7995  156.1468 C   0  0  0  0  0  0  0  0  0  0  0  0
  148.1815  141.7226  155.4841 O   0  0  0  0  0  0  0  0  0  0  0  0
  146.8191  141.3297  155.4836 C   0  0  0  0  0  0  0  0  0  0  0  0
  146.0148  142.4737  154.9515 C   0  0  0  0  0  0  0  0  0  0  0  0
  146.0065  143.1247  153.7487 C   0  0  0  0  0  0  0  0  0  0  0  0
  145.0069  144.1325  153.8411 C   0  0  0  0  0  0  0  0  0  0  0  0
  144.4766  144.0229  155.0946 C   0  0  0  0  0  0  0  0  0  0  0  0
  145.0788  143.0170  155.7843 O   0  0  0  0  0  0  0  0  0  0  0  0
  152.4686  142.8104  160.9151 N   0  0  0  0  0  0  0  0  0  0  0  0
  152.0474  144.0047  161.6538 C   0  0  0  0  0  0  0  0  0  0  0  0
  153.3855  141.9228  161.4249 C   0  0  0  0  0  0  0  0  0  0  0  0
  153.8847  142.1035  162.5389 O   0  0  0  0  0  0  0  0  0  0  0  0
  154.9605  139.0280  160.6346 H   0  0  0  0  0  0  0  0  0  0  0  0
  154.3588  139.5091  162.2015 H   0  0  0  0  0  0  0  0  0  0  0  0
  155.6647  140.4142  161.4347 H   0  0  0  0  0  0  0  0  0  0  0  0
  150.1214  142.9752  157.0432 H   0  0  0  0  0  0  0  0  0  0  0  0
  152.5438  140.6166  156.1572 H   0  0  0  0  0  0  0  0  0  0  0  0
  151.4193  139.6029  157.0080 H   0  0  0  0  0  0  0  0  0  0  0  0
  150.5905  141.9301  155.2147 H   0  0  0  0  0  0  0  0  0  0  0  0
  149.7597  140.1808  153.9264 H   0  0  0  0  0  0  0  0  0  0  0  0
  148.6508  139.7891  155.9856 H   0  0  0  0  0  0  0  0  0  0  0  0
  149.0306  140.9762  157.2239 H   0  0  0  0  0  0  0  0  0  0  0  0
  146.6777  140.4468  154.8587 H   0  0  0  0  0  0  0  0  0  0  0  0
  146.4927  141.0837  156.4950 H   0  0  0  0  0  0  0  0  0  0  0  0
  146.6423  142.9016  152.9046 H   0  0  0  0  0  0  0  0  0  0  0  0
  144.7124  144.8465  153.0862 H   0  0  0  0  0  0  0  0  0  0  0  0
  143.7036  144.5519  155.6322 H   0  0  0  0  0  0  0  0  0  0  0  0
  152.5107  144.1162  162.6345 H   0  0  0  0  0  0  0  0  0  0  0  0
  150.9678  143.9859  161.8070 H   0  0  0  0  0  0  0  0  0  0  0  0
  152.2875  144.8998  161.0790 H   0  0  0  0  0  0  0  0  0  0  0  0
  1  2  1  0  0  0  0
  1 25  1  0  0  0  0
  1 26  1  0  0  0  0
  1 27  1  0  0  0  0
  2 23  1  0  0  0  0
  2  3  1  0  0  0  0
  3  4  2  0  0  0  0
  3  5  1  0  0  0  0
  5  9  1  0  0  0  0
  5  6  2  0  0  0  0
  6  7  1  0  0  0  0
  6 21  1  0  0  0  0
  7  8  2  0  0  0  0
  8  9  1  0  0  0  0
  8 28  1  0  0  0  0
  9 10  1  0  0  0  0
 10 11  1  0  0  0  0
 10 29  1  0  0  0  0
 10 30  1  0  0  0  0
 11 12  1  0  0  0  0
 11 13  1  0  0  0  0
 11 31  1  0  0  0  0
 12 32  1  0  0  0  0
 13 14  1  0  0  0  0
 13 33  1  0  0  0  0
 13 34  1  0  0  0  0
 14 15  1  0  0  0  0
 15 16  1  0  0  0  0
 15 35  1  0  0  0  0
 15 36  1  0  0  0  0
 16 20  1  0  0  0  0
 16 17  2  0  0  0  0
 17 18  1  0  0  0  0
 17 37  1  0  0  0  0
 18 19  2  0  0  0  0
 18 38  1  0  0  0  0
 19 20  1  0  0  0  0
 19 39  1  0  0  0  0
 21 22  1  0  0  0  0
 21 23  1  0  0  0  0
 22 40  1  0  0  0  0
 22 41  1  0  0  0  0
 22 42  1  0  0  0  0
 23 24  2  0  0  0  0
M  END
> <s_m_source_file>
AV-unprocessed.smi

> <i_m_source_file_index>
856

> <i_lp_mmshare_version>
43012

> <i_f3d_flags>
0

> <s_epik_input>
Tz1jMW4oW0NIM10pYyg9TyluKFtDSDNdKWMoYzEyKW5bY0hdbjJbQ0gyXVtDQEhdKFtPSF0pW0NIMl1PW0NIMl1jM1tjSF1bY0hdW2NIXW8z

> <s_epik_cmdline>
J2VwaWtfcHl0aG9uJywgJy1waCcsICc3LjAnLCAnLXRuJywgJzgnLCAnLW1hJywgJzIwMCcsICctbWV0YWxfYmluZGluZycsICctaW1hZScsICc8aW5maWxlLm1hZT4nLCAnLW9tYWUnLCAnPG91dGZpbGUubWFlPic=

> <r_lp_tautomer_probability>
1

> <r_epik_Ionization_Penalty>
1.33189e-06

> <r_epik_Ionization_Penalty_Charging>
3.64616e-09

> <r_epik_Ionization_Penalty_Neutral>
1.32824e-06

> <r_epik_State_Penalty>
-0

> <r_epik_Charging_Adjusted_Penalty>
3.64616e-09

> <i_epik_Tot_Q>
0

> <i_epik_Tot_abs_Q>
0

> <r_epik_Metal_State_Penalty>
-0

> <b_epik_Metal_Only>
0

> <s_lp_Force_Field>
OPLS_2005

> <r_lp_Energy>
33.5774

> <b_lp_Chiralities_Consistent>
1

> <s_lp_Variant>
AV-unprocessed.smi:856-2

> <Gold.Version>
5.8.1

> <Gold.Id.Protein>
6NUR|6NUR_protein|mol2

> <Gold.PLP.Fitness>
58.6404

> <Gold.PLP.PLP>
-50.6872

> <Gold.PLP.part.hbond>
-3.0000

> <Gold.PLP.part.metal>
0.0000

> <Gold.PLP.part.buried>
-7.4234

> <Gold.PLP.part.nonpolar>
-40.9373

> <Gold.PLP.part.repulsive>
0.9830

> <Gold.PLP.ligand.clash>
0.0000

> <Gold.PLP.ligand.torsion>
0.6038

> <Gold.PLP.Chemscore.Hbond>
2.0000

> <Gold.PLP.Chemscore.CHOScore>
1.0000

> <Gold.PLP.Chemscore.Metal>
0.0000

> <Gold.Chemscore.Hbonds>
donor molecule, donor type, donor heavy atom, donor atom, acceptor molecule, acceptor atom, score
      P1  H  7989  7998       L1    12  1.00
      P1  H  7997  8008       L1     4  0.94
      L1  C     8    28       P1  8028  0.97

> <Gold.PLP.Chemscore.Internal.Correction>
0.1608

> <Gold.Rescore>
     Score         DG    S(hbond)    S(metal)    S(lipo)     H(rot)  DE(clash)    DE(int)     intcor
      9.72     -10.88       1.55        0.00      70.99       3.16       0.69       0.47       ----

> <Gold.Chemscore.Fitness>
9.7194

> <Gold.Chemscore.DG>
-10.8849

> <Gold.Chemscore.ZeroCoef>
-5.4800

> <Gold.Chemscore.Hbond>
1.5535

> <Gold.Chemscore.Metal>
0.0000

> <Gold.Chemscore.Lipo>
70.9884

> <Gold.Chemscore.Internal_Hbond>
0.0000

> <Gold.Chemscore.DEClash>
0.6916

> <Gold.Chemscore.DEInternal>
0.4739

> <Gold.Chemscore.Rot>
3.1599

> <Gold.Chemscore.Internal.Correction>
   9.000000E+99

> <Gold.Chemscore.Hbonds>
donor molecule, donor type, donor heavy atom, donor atom, acceptor molecule, acceptor atom, score
      P1  H  7989  7998       L1    12  0.10
      P1  H  7997  8008       L1     4  0.74

> <Gold.Chemscore.Hbond.Weighted>
-5.1885

> <Gold.Chemscore.Metal.Weighted>
-0.0000

> <Gold.Chemscore.Lipo.Weighted>
-8.3056

> <Gold.Chemscore.Internal_Hbond.Weighted>
0.0000

> <Gold.Chemscore.DEClash.Weighted>
0.6916

> <Gold.Chemscore.DEInternal.Weighted>
0.4739

> <Gold.Chemscore.Rot.Weighted>
8.0893

> <Gold.Chemscore.Internal.Correction.Weighted>
   9.000000E+99

> <Gold.Protein.RotatedTorsions>
[ 6907 6896 6895 6894 ] final -160.49 input  -60.11 | X-H torsion
[ 7974 7965 7964 7962 ] final  -87.32 input  175.53 | X-H torsion
[ 8008 7997 7996 7995 ] final -113.18 input   59.86 | X-H torsion
[ 10167 10162 10161 10158 ] final  -60.27 input  -65.29 | X-H torsion
[ 10718 10713 10712 10709 ] final -100.46 input   66.30 | X-H torsion
[ 10763 10752 10751 10750 ] final  143.96 input  -60.55 | X-H torsion
[ 11005 11000 10999 10996 ] final -108.74 input  -57.11 | X-H torsion

> <Gold.Protein.ActiveResidues>
 VAL166  LYS551  ARG553  GLY616  TRP617  ASP618  TYR619  PRO620  LYS621  CYS622 
 ASP623  PHE694  ASN695  SER759  ASP760  ASP761  ALA762  ILE779  LEU786  VAL792 
 PHE793  MET794  SER795  GLU796  ALA797  LYS798  CYS799  TRP800  GLU811  SER814 

> <Gold.Protein.RotatedAtoms>
  151.3499  133.3929  159.2678 H   0  0  0  0  0  0  0  0  0  0  0  0  # atno 6907 bound_to 6896
  150.9810  134.9166  159.7854 H   0  0  0  0  0  0  0  0  0  0  0  0  # atno 6908 bound_to 6896
  152.5217  134.3462  159.9287 H   0  0  0  0  0  0  0  0  0  0  0  0  # atno 6909 bound_to 6896
  145.4681  140.9560  143.1932 H   0  0  0  0  0  0  0  0  0  0  0  0  # atno 7974 bound_to 7965
  155.0167  140.0393  157.2421 H   0  0  0  0  0  0  0  0  0  0  0  0  # atno 8008 bound_to 7997
  154.7413  140.2749  155.6347 H   0  0  0  0  0  0  0  0  0  0  0  0  # atno 8009 bound_to 7997
  156.2865  140.2665  156.2142 H   0  0  0  0  0  0  0  0  0  0  0  0  # atno 8010 bound_to 7997
  140.6082  143.2379  151.5771 H   0  0  0  0  0  0  0  0  0  0  0  0  # atno 10167 bound_to 10162
  156.0164  130.5328  150.6820 H   0  0  0  0  0  0  0  0  0  0  0  0  # atno 10718 bound_to 10713
  153.9810  135.2941  155.3420 H   0  0  0  0  0  0  0  0  0  0  0  0  # atno 10763 bound_to 10752
  154.7269  135.5085  153.8904 H   0  0  0  0  0  0  0  0  0  0  0  0  # atno 10764 bound_to 10752
  153.0854  135.6692  154.0073 H   0  0  0  0  0  0  0  0  0  0  0  0  # atno 10765 bound_to 10752
  141.0885  133.9096  157.2130 H   0  0  0  0  0  0  0  0  0  0  0  0  # atno 11005 bound_to 11000
  144.7962  139.6230  143.7092 LP  0  0  0  0  0  0  0  0  0  0  0  0  # atno 17320 bound_to 7965
  146.2412  139.6006  142.9490 LP  0  0  0  0  0  0  0  0  0  0  0  0  # atno 17321 bound_to 7965
  139.5341  144.2831  152.1213 LP  0  0  0  0  0  0  0  0  0  0  0  0  # atno 17342 bound_to 10162
  140.2025  144.4643  150.6424 LP  0  0  0  0  0  0  0  0  0  0  0  0  # atno 17343 bound_to 10162
  157.4520  131.0873  151.0836 LP  0  0  0  0  0  0  0  0  0  0  0  0  # atno 17370 bound_to 10713
  157.1349  130.6118  149.5539 LP  0  0  0  0  0  0  0  0  0  0  0  0  # atno 17371 bound_to 10713
  139.9707  135.0129  156.9504 LP  0  0  0  0  0  0  0  0  0  0  0  0  # atno 17394 bound_to 11000
  140.5307  134.0816  155.7315 LP  0  0  0  0  0  0  0  0  0  0  0  0  # atno 17395 bound_to 11000

$$$$
