AV-unprocessed.smi:1830|AV-procd|sdf|7434|dock5
  -GOLD-   22720 9123D 1   1.00000     0.00000
 Structure written by MMmdl.
 53 56  0  0  0  0  0  0  0  0  2 V2000
  148.6975  132.6465  158.4964 O   0  0  0  0  0  0  0  0  0  0  0  0
  148.7089  133.7285  157.9096 C   0  0  0  0  0  0  0  0  0  0  0  0
  148.9537  133.8568  156.5982 N   0  0  0  0  0  0  0  0  0  0  0  0
  149.2561  132.7564  155.6892 C   0  0  0  0  0  0  0  0  0  0  0  0
  148.1128  132.5175  154.6871 C   0  0  2  0  0  0  0  0  0  0  0  0
  148.5687  131.6546  153.4943 C   0  0  0  0  0  0  0  0  0  0  0  0
  147.5120  131.5303  152.4628 N   0  3  1  0  0  0  0  0  0  0  0  0
  146.4520  130.5309  152.7214 C   0  0  0  0  0  0  0  0  0  0  0  0
  145.1792  131.0666  152.0462 C   0  0  0  0  0  0  0  0  0  0  0  0
  145.6009  132.3644  151.3492 C   0  0  0  0  0  0  0  0  0  0  0  0
  146.8570  132.8046  152.1024 C   0  0  1  0  0  0  0  0  0  0  0  0
  146.5236  133.6411  153.3577 C   0  0  0  0  0  0  0  0  0  0  0  0
  147.6753  133.7721  154.1774 O   0  0  0  0  0  0  0  0  0  0  0  0
  148.5081  134.9259  158.4840 N   0  0  0  0  0  0  0  0  0  0  0  0
  148.2629  135.2176  159.8561 C   0  0  0  0  0  0  0  0  0  0  0  0
  147.7895  134.2306  160.7551 C   0  0  0  0  0  0  0  0  0  0  0  0
  147.5793  134.5684  162.1031 C   0  0  0  0  0  0  0  0  0  0  0  0
  147.8476  135.8865  162.5072 C   0  0  0  0  0  0  0  0  0  0  0  0
  148.2805  136.8421  161.6609 N   0  0  0  0  0  0  0  0  0  0  0  0
  148.4733  136.5355  160.3543 C   0  0  0  0  0  0  0  0  0  0  0  0
  148.9067  137.5830  159.5094 N   0  0  0  0  0  0  0  0  0  0  0  0
  148.0828  138.0136  158.3848 C   0  0  0  0  0  0  0  0  0  0  0  0
  149.0150  138.8450  157.5088 C   0  0  0  0  0  0  0  0  0  0  0  0
  150.3449  138.1141  157.6659 C   0  0  0  0  0  0  0  0  0  0  0  0
  150.3109  137.6018  159.1101 C   0  0  0  0  0  0  0  0  0  0  0  0
  148.9414  134.7853  156.2019 H   0  0  0  0  0  0  0  0  0  0  0  0
  150.1994  132.9294  155.1679 H   0  0  0  0  0  0  0  0  0  0  0  0
  149.4015  131.8638  156.2982 H   0  0  0  0  0  0  0  0  0  0  0  0
  147.2905  132.0248  155.2091 H   0  0  0  0  0  0  0  0  0  0  0  0
  149.4370  132.1191  153.0249 H   0  0  0  0  0  0  0  0  0  0  0  0
  148.8843  130.6636  153.8231 H   0  0  0  0  0  0  0  0  0  0  0  0
  146.7506  129.5635  152.3164 H   0  0  0  0  0  0  0  0  0  0  0  0
  146.2814  130.4036  153.7910 H   0  0  0  0  0  0  0  0  0  0  0  0
  144.7526  130.3506  151.3429 H   0  0  0  0  0  0  0  0  0  0  0  0
  144.4204  131.2757  152.8013 H   0  0  0  0  0  0  0  0  0  0  0  0
  145.8566  132.1508  150.3105 H   0  0  0  0  0  0  0  0  0  0  0  0
  144.8142  133.1197  151.3454 H   0  0  0  0  0  0  0  0  0  0  0  0
  147.5205  133.3803  151.4556 H   0  0  0  0  0  0  0  0  0  0  0  0
  146.1856  134.6353  153.0646 H   0  0  0  0  0  0  0  0  0  0  0  0
  145.7126  133.1943  153.9353 H   0  0  0  0  0  0  0  0  0  0  0  0
  148.6476  135.7315  157.8920 H   0  0  0  0  0  0  0  0  0  0  0  0
  147.5757  133.2232  160.4323 H   0  0  0  0  0  0  0  0  0  0  0  0
  147.2224  133.8339  162.8098 H   0  0  0  0  0  0  0  0  0  0  0  0
  147.7029  136.1847  163.5350 H   0  0  0  0  0  0  0  0  0  0  0  0
  147.7218  137.1557  157.8161 H   0  0  0  0  0  0  0  0  0  0  0  0
  147.2210  138.5903  158.7215 H   0  0  0  0  0  0  0  0  0  0  0  0
  148.6805  138.9095  156.4731 H   0  0  0  0  0  0  0  0  0  0  0  0
  149.0966  139.8582  157.9051 H   0  0  0  0  0  0  0  0  0  0  0  0
  150.3800  137.2683  156.9777 H   0  0  0  0  0  0  0  0  0  0  0  0
  151.2069  138.7494  157.4614 H   0  0  0  0  0  0  0  0  0  0  0  0
  150.8525  138.2898  159.7599 H   0  0  0  0  0  0  0  0  0  0  0  0
  150.7751  136.6179  159.1939 H   0  0  0  0  0  0  0  0  0  0  0  0
  147.9680  131.2099  151.6202 H   0  0  0  0  0  0  0  0  0  0  0  0
  1  2  2  0  0  0  0
  2  3  1  0  0  0  0
  2 14  1  0  0  0  0
  3  4  1  0  0  0  0
  3 26  1  0  0  0  0
  4  5  1  0  0  0  0
  4 27  1  0  0  0  0
  4 28  1  0  0  0  0
  5 13  1  0  0  0  0
  5  6  1  0  0  0  0
  5 29  1  0  0  0  0
  6  7  1  0  0  0  0
  6 30  1  0  0  0  0
  6 31  1  0  0  0  0
  7 11  1  0  0  0  0
  7  8  1  0  0  0  0
  7 53  1  0  0  0  0
  8  9  1  0  0  0  0
  8 32  1  0  0  0  0
  8 33  1  0  0  0  0
  9 10  1  0  0  0  0
  9 34  1  0  0  0  0
  9 35  1  0  0  0  0
 10 11  1  0  0  0  0
 10 36  1  0  0  0  0
 10 37  1  0  0  0  0
 11 12  1  0  0  0  0
 11 38  1  0  0  0  0
 12 13  1  0  0  0  0
 12 39  1  0  0  0  0
 12 40  1  0  0  0  0
 14 15  1  0  0  0  0
 14 41  1  0  0  0  0
 15 20  1  0  0  0  0
 15 16  2  0  0  0  0
 16 17  1  0  0  0  0
 16 42  1  0  0  0  0
 17 18  2  0  0  0  0
 17 43  1  0  0  0  0
 18 19  1  0  0  0  0
 18 44  1  0  0  0  0
 19 20  2  0  0  0  0
 20 21  1  0  0  0  0
 21 25  1  0  0  0  0
 21 22  1  0  0  0  0
 22 23  1  0  0  0  0
 22 45  1  0  0  0  0
 22 46  1  0  0  0  0
 23 24  1  0  0  0  0
 23 47  1  0  0  0  0
 23 48  1  0  0  0  0
 24 25  1  0  0  0  0
 24 49  1  0  0  0  0
 24 50  1  0  0  0  0
 25 51  1  0  0  0  0
 25 52  1  0  0  0  0
M  CHG  1   7   1
M  END
> <s_m_source_file>
AV-unprocessed.smi

> <i_m_source_file_index>
1830

> <i_lp_mmshare_version>
43012

> <i_f3d_flags>
0

> <s_epik_input>
W0NIMl0xW0NIMl1bQ0gyXVtDQEhdKE4xMilbQ0gyXU9bQ0BASF0oW0NIMl0yKVtDSDJdW05IXUMoPU8pW05IXWMzW2NIXVtjSF1bY0hdbmMzTjRbQ0gyXVtDSDJdW0NIMl1bQ0gyXTQ=

> <s_epik_cmdline>
J2VwaWtfcHl0aG9uJywgJy1waCcsICc3LjAnLCAnLXRuJywgJzgnLCAnLW1hJywgJzIwMCcsICctbWV0YWxfYmluZGluZycsICctaW1hZScsICc8aW5maWxlLm1hZT4nLCAnLW9tYWUnLCAnPG91dGZpbGUubWFlPic=

> <r_lp_tautomer_probability>
1

> <r_epik_Ionization_Penalty>
0.193547

> <r_epik_Ionization_Penalty_Charging>
0.10673

> <r_epik_Ionization_Penalty_Neutral>
0.0868166

> <r_epik_State_Penalty>
0.173595

> <r_epik_Charging_Adjusted_Penalty>
0.280326

> <i_epik_Tot_Q>
1

> <i_epik_Tot_abs_Q>
1

> <r_epik_Metal_State_Penalty>
0.164683

> <b_epik_Metal_Only>
0

> <s_lp_Force_Field>
OPLS_2005

> <r_lp_Energy>
64.5086

> <b_lp_Chiralities_Consistent>
1

> <s_lp_Variant>
AV-unprocessed.smi:1830-3

> <Gold.Version>
5.8.1

> <Gold.Id.Protein>
6NUR|6NUR_protein|mol2

> <Gold.PLP.Fitness>
43.3748

> <Gold.PLP.PLP>
-37.9703

> <Gold.PLP.part.hbond>
-3.6993

> <Gold.PLP.part.metal>
0.0000

> <Gold.PLP.part.buried>
-5.6475

> <Gold.PLP.part.nonpolar>
-29.6905

> <Gold.PLP.part.repulsive>
0.2342

> <Gold.PLP.ligand.clash>
0.0000

> <Gold.PLP.ligand.torsion>
0.4553

> <Gold.PLP.Chemscore.Hbond>
2.0000

> <Gold.PLP.Chemscore.CHOScore>
0.0000

> <Gold.PLP.Chemscore.Metal>
0.0000

> <Gold.Chemscore.Hbonds>
donor molecule, donor type, donor heavy atom, donor atom, acceptor molecule, acceptor atom, score
      L1  H     7    53       P1 10747  1.00
      P1  H  6931  6943       L1    19  1.00

> <Gold.PLP.Chemscore.Internal.Correction>
0.3151

> <Gold.Rescore>
     Score         DG    S(hbond)    S(metal)    S(lipo)     H(rot)  DE(clash)    DE(int)     intcor
     16.72     -18.39       1.90        0.00      86.97       1.41       0.04       1.63       ----

> <Gold.Chemscore.Fitness>
16.7243

> <Gold.Chemscore.DG>
-18.3939

> <Gold.Chemscore.ZeroCoef>
-5.4800

> <Gold.Chemscore.Hbond>
1.8981

> <Gold.Chemscore.Metal>
0.0000

> <Gold.Chemscore.Lipo>
86.9691

> <Gold.Chemscore.Internal_Hbond>
0.0000

> <Gold.Chemscore.DEClash>
0.0402

> <Gold.Chemscore.DEInternal>
1.6293

> <Gold.Chemscore.Rot>
1.4067

> <Gold.Chemscore.Internal.Correction>
   9.000000E+99

> <Gold.Chemscore.Hbonds>
donor molecule, donor type, donor heavy atom, donor atom, acceptor molecule, acceptor atom, score
      L1  H     7    53       P1 10747  1.00
      P1  H  6931  6943       L1    19  0.55

> <Gold.Chemscore.Hbond.Weighted>
-6.3396

> <Gold.Chemscore.Metal.Weighted>
-0.0000

> <Gold.Chemscore.Lipo.Weighted>
-10.1754

> <Gold.Chemscore.Internal_Hbond.Weighted>
0.0000

> <Gold.Chemscore.DEClash.Weighted>
0.0402

> <Gold.Chemscore.DEInternal.Weighted>
1.6293

> <Gold.Chemscore.Rot.Weighted>
3.6011

> <Gold.Chemscore.Internal.Correction.Weighted>
   9.000000E+99

> <Gold.Protein.RotatedTorsions>
[ 6907 6896 6895 6894 ] final  -56.88 input  -60.11 | X-H torsion
[ 7974 7965 7964 7962 ] final  -38.14 input  175.53 | X-H torsion
[ 8008 7997 7996 7995 ] final  151.65 input   59.86 | X-H torsion
[ 10167 10162 10161 10158 ] final   67.76 input  -65.29 | X-H torsion
[ 10718 10713 10712 10709 ] final  -33.55 input   66.30 | X-H torsion
[ 10763 10752 10751 10750 ] final  -86.05 input  -60.55 | X-H torsion
[ 11005 11000 10999 10996 ] final  131.75 input  -57.11 | X-H torsion

> <Gold.Protein.ActiveResidues>
 VAL166  LYS551  ARG553  GLY616  TRP617  ASP618  TYR619  PRO620  LYS621  CYS622 
 ASP623  PHE694  ASN695  SER759  ASP760  ASP761  ALA762  ILE779  LEU786  VAL792 
 PHE793  MET794  SER795  GLU796  ALA797  LYS798  CYS799  TRP800  GLU811  SER814 

> <Gold.Protein.RotatedAtoms>
  150.8131  134.7297  159.6705 H   0  0  0  0  0  0  0  0  0  0  0  0  # atno 6907 bound_to 6896
  152.4250  134.5881  159.9976 H   0  0  0  0  0  0  0  0  0  0  0  0  # atno 6908 bound_to 6896
  151.6085  133.3312  159.3098 H   0  0  0  0  0  0  0  0  0  0  0  0  # atno 6909 bound_to 6896
  146.0513  140.6477  142.9040 H   0  0  0  0  0  0  0  0  0  0  0  0  # atno 7974 bound_to 7965
  156.2664  140.2042  156.6210 H   0  0  0  0  0  0  0  0  0  0  0  0  # atno 8008 bound_to 7997
  154.6757  140.0545  157.0237 H   0  0  0  0  0  0  0  0  0  0  0  0  # atno 8009 bound_to 7997
  155.1072  140.3212  155.4534 H   0  0  0  0  0  0  0  0  0  0  0  0  # atno 8010 bound_to 7997
  140.0860  144.5029  150.7130 H   0  0  0  0  0  0  0  0  0  0  0  0  # atno 10167 bound_to 10162
  156.3613  130.4324  149.7621 H   0  0  0  0  0  0  0  0  0  0  0  0  # atno 10718 bound_to 10713
  154.6180  135.5463  153.7545 H   0  0  0  0  0  0  0  0  0  0  0  0  # atno 10763 bound_to 10752
  153.0225  135.6406  154.1481 H   0  0  0  0  0  0  0  0  0  0  0  0  # atno 10764 bound_to 10752
  154.1417  135.2908  155.3139 H   0  0  0  0  0  0  0  0  0  0  0  0  # atno 10765 bound_to 10752
  139.9749  134.9566  156.9483 H   0  0  0  0  0  0  0  0  0  0  0  0  # atno 11005 bound_to 11000
  144.7124  140.4087  143.7070 LP  0  0  0  0  0  0  0  0  0  0  0  0  # atno 17320 bound_to 7965
  145.6720  139.1601  143.2749 LP  0  0  0  0  0  0  0  0  0  0  0  0  # atno 17321 bound_to 7965
  140.7053  143.2463  151.4745 LP  0  0  0  0  0  0  0  0  0  0  0  0  # atno 17342 bound_to 10162
  139.5752  144.1836  152.1892 LP  0  0  0  0  0  0  0  0  0  0  0  0  # atno 17343 bound_to 10162
  156.4784  130.8029  151.3045 LP  0  0  0  0  0  0  0  0  0  0  0  0  # atno 17370 bound_to 10713
  157.7474  131.0013  150.2960 LP  0  0  0  0  0  0  0  0  0  0  0  0  # atno 17371 bound_to 10713
  140.5216  134.0902  155.7293 LP  0  0  0  0  0  0  0  0  0  0  0  0  # atno 17394 bound_to 11000
  141.1426  133.9111  157.2289 LP  0  0  0  0  0  0  0  0  0  0  0  0  # atno 17395 bound_to 11000

$$$$
