AV-unprocessed.smi:650|AV-procd|sdf|3182|dock2
  -GOLD-   22720 0103D 1   1.00000     0.00000
 Structure written by MMmdl.
 43 44  0  0  0  0  0  0  0  0  2 V2000
  153.8011  141.0581  160.3727 C   0  0  0  0  0  0  0  0  0  0  0  0
  152.9441  140.7437  159.1944 C   0  0  0  0  0  0  0  0  0  0  0  0
  151.7253  141.2045  158.7826 C   0  0  0  0  0  0  0  0  0  0  0  0
  151.4973  140.4788  157.5831 C   0  0  0  0  0  0  0  0  0  0  0  0
  150.3100  140.6696  156.8312 N   0  0  0  0  0  0  0  0  0  0  0  0
  150.1423  140.4993  155.5089 C   0  0  0  0  0  0  0  0  0  0  0  0
  151.0208  140.1447  154.7222 O   0  0  0  0  0  0  0  0  0  0  0  0
  148.8821  140.7707  155.1380 N   0  0  0  0  0  0  0  0  0  0  0  0
  148.3551  140.6513  153.7813 C   0  0  0  0  0  0  0  0  0  0  0  0
  147.3137  139.5203  153.6448 C   0  0  2  0  0  0  0  0  0  0  0  0
  147.8267  138.2252  154.2992 C   0  0  0  0  0  0  0  0  0  0  0  0
  146.8139  137.0774  154.1579 C   0  0  0  0  0  0  0  0  0  0  0  0
  146.4848  136.8273  152.7319 N   0  3  1  0  0  0  0  0  0  0  0  0
  145.6244  135.6296  152.5536 C   0  0  0  0  0  0  0  0  0  0  0  0
  145.8170  134.9616  151.1814 C   0  0  0  0  0  0  0  0  0  0  0  0
  145.3603  135.8205  150.1579 O   0  0  0  0  0  0  0  0  0  0  0  0
  145.9405  138.0480  152.0817 C   0  0  0  0  0  0  0  0  0  0  0  0
  146.9311  139.2196  152.1813 C   0  0  0  0  0  0  0  0  0  0  0  0
  152.4894  139.6532  157.2866 N   0  0  0  0  0  0  0  0  0  0  0  0
  153.4216  139.8187  158.3178 O   0  0  0  0  0  0  0  0  0  0  0  0
  153.1930  141.3679  161.2226 H   0  0  0  0  0  0  0  0  0  0  0  0
  154.4951  141.8657  160.1401 H   0  0  0  0  0  0  0  0  0  0  0  0
  154.3832  140.1874  160.6757 H   0  0  0  0  0  0  0  0  0  0  0  0
  151.0992  141.9400  159.2653 H   0  0  0  0  0  0  0  0  0  0  0  0
  149.5004  140.9596  157.3591 H   0  0  0  0  0  0  0  0  0  0  0  0
  148.2306  141.0607  155.8526 H   0  0  0  0  0  0  0  0  0  0  0  0
  147.9347  141.5996  153.4413 H   0  0  0  0  0  0  0  0  0  0  0  0
  149.2022  140.4476  153.1258 H   0  0  0  0  0  0  0  0  0  0  0  0
  146.4113  139.8295  154.1749 H   0  0  0  0  0  0  0  0  0  0  0  0
  148.7733  137.9306  153.8434 H   0  0  0  0  0  0  0  0  0  0  0  0
  148.0351  138.3981  155.3555 H   0  0  0  0  0  0  0  0  0  0  0  0
  147.2356  136.1753  154.6030 H   0  0  0  0  0  0  0  0  0  0  0  0
  145.9012  137.3077  154.7102 H   0  0  0  0  0  0  0  0  0  0  0  0
  145.8505  134.8921  153.3255 H   0  0  0  0  0  0  0  0  0  0  0  0
  144.5795  135.9084  152.6972 H   0  0  0  0  0  0  0  0  0  0  0  0
  146.8764  134.7661  151.0134 H   0  0  0  0  0  0  0  0  0  0  0  0
  145.3068  134.0018  151.1123 H   0  0  0  0  0  0  0  0  0  0  0  0
  145.6198  135.4607  149.3227 H   0  0  0  0  0  0  0  0  0  0  0  0
  145.7286  137.8574  151.0304 H   0  0  0  0  0  0  0  0  0  0  0  0
  144.9927  138.3194  152.5491 H   0  0  0  0  0  0  0  0  0  0  0  0
  146.4828  140.0977  151.7164 H   0  0  0  0  0  0  0  0  0  0  0  0
  147.8284  138.9897  151.6048 H   0  0  0  0  0  0  0  0  0  0  0  0
  147.3603  136.6123  152.2753 H   0  0  0  0  0  0  0  0  0  0  0  0
  1  2  1  0  0  0  0
  1 21  1  0  0  0  0
  1 22  1  0  0  0  0
  1 23  1  0  0  0  0
  2 20  1  0  0  0  0
  2  3  2  0  0  0  0
  3  4  1  0  0  0  0
  3 24  1  0  0  0  0
  4  5  1  0  0  0  0
  4 19  2  0  0  0  0
  5  6  1  0  0  0  0
  5 25  1  0  0  0  0
  6  7  2  0  0  0  0
  6  8  1  0  0  0  0
  8  9  1  0  0  0  0
  8 26  1  0  0  0  0
  9 10  1  0  0  0  0
  9 27  1  0  0  0  0
  9 28  1  0  0  0  0
 10 18  1  0  0  0  0
 10 11  1  0  0  0  0
 10 29  1  0  0  0  0
 11 12  1  0  0  0  0
 11 30  1  0  0  0  0
 11 31  1  0  0  0  0
 12 13  1  0  0  0  0
 12 32  1  0  0  0  0
 12 33  1  0  0  0  0
 13 14  1  0  0  0  0
 13 17  1  0  0  0  0
 13 43  1  0  0  0  0
 14 15  1  0  0  0  0
 14 34  1  0  0  0  0
 14 35  1  0  0  0  0
 15 16  1  0  0  0  0
 15 36  1  0  0  0  0
 15 37  1  0  0  0  0
 16 38  1  0  0  0  0
 17 18  1  0  0  0  0
 17 39  1  0  0  0  0
 17 40  1  0  0  0  0
 18 41  1  0  0  0  0
 18 42  1  0  0  0  0
 19 20  1  0  0  0  0
M  CHG  1  13   1
M  END
> <s_m_source_file>
AV-unprocessed.smi

> <i_m_source_file_index>
650

> <i_lp_mmshare_version>
43012

> <i_f3d_flags>
0

> <s_epik_input>
W0NIM11jMVtjSF1jKG5vMSlbTkhdQyg9TylbTkhdW0NIMl1bQ0hdMltDSDJdW0NIMl1OKFtDSDJdW0NIMl0yKVtDSDJdW0NIMl1bT0hd

> <s_epik_cmdline>
J2VwaWtfcHl0aG9uJywgJy1waCcsICc3LjAnLCAnLXRuJywgJzgnLCAnLW1hJywgJzIwMCcsICctbWV0YWxfYmluZGluZycsICctaW1hZScsICc8aW5maWxlLm1hZT4nLCAnLW9tYWUnLCAnPG91dGZpbGUubWFlPic=

> <r_epik_Ionization_Penalty>
0.00179437

> <r_epik_Ionization_Penalty_Charging>
0.00177223

> <r_epik_Ionization_Penalty_Neutral>
2.21418e-05

> <r_epik_State_Penalty>
0.00120075

> <r_epik_Charging_Adjusted_Penalty>
0.00297297

> <i_epik_Tot_Q>
1

> <i_epik_Tot_abs_Q>
1

> <r_epik_Metal_State_Penalty>
-0

> <b_epik_Metal_Only>
0

> <s_lp_Force_Field>
OPLS_2005

> <r_lp_Energy>
15.9462

> <b_lp_Chiralities_Consistent>
1

> <s_lp_Variant>
AV-unprocessed.smi:650-1

> <Gold.Version>
5.8.1

> <Gold.Id.Protein>
6NUR|6NUR_protein|mol2

> <Gold.PLP.Fitness>
44.1531

> <Gold.PLP.PLP>
-30.8261

> <Gold.PLP.part.hbond>
-5.8815

> <Gold.PLP.part.metal>
0.0000

> <Gold.PLP.part.buried>
0.4404

> <Gold.PLP.part.nonpolar>
-26.1861

> <Gold.PLP.part.repulsive>
0.2414

> <Gold.PLP.ligand.clash>
0.0040

> <Gold.PLP.ligand.torsion>
0.5237

> <Gold.PLP.Chemscore.Hbond>
4.7721

> <Gold.PLP.Chemscore.CHOScore>
0.0000

> <Gold.PLP.Chemscore.Metal>
0.0000

> <Gold.Chemscore.Hbonds>
donor molecule, donor type, donor heavy atom, donor atom, acceptor molecule, acceptor atom, score
      L1  H    13    43       P1  7948  2.00
      L1  H    16    38       P1  7921  1.00
      P1  H  7989  7998       L1     7  1.00
      P1  H  7997  8008       L1    20  0.78

> <Gold.PLP.Chemscore.Internal.Correction>
0.0622

> <Gold.Rescore>
     Score         DG    S(hbond)    S(metal)    S(lipo)     H(rot)  DE(clash)    DE(int)     intcor
     15.63     -17.95       3.36        0.00      66.44       2.55       0.59       1.74       ----

> <Gold.Chemscore.Fitness>
15.6272

> <Gold.Chemscore.DG>
-17.9545

> <Gold.Chemscore.ZeroCoef>
-5.4800

> <Gold.Chemscore.Hbond>
3.3614

> <Gold.Chemscore.Metal>
0.0000

> <Gold.Chemscore.Lipo>
66.4394

> <Gold.Chemscore.Internal_Hbond>
0.0000

> <Gold.Chemscore.DEClash>
0.5916

> <Gold.Chemscore.DEInternal>
1.7357

> <Gold.Chemscore.Rot>
2.5492

> <Gold.Chemscore.Internal.Correction>
   9.000000E+99

> <Gold.Chemscore.Hbonds>
donor molecule, donor type, donor heavy atom, donor atom, acceptor molecule, acceptor atom, score
      L1  H    13    43       P1  7948  1.00
      L1  H    16    38       P1  7921  1.00
      P1  H  7989  7998       L1     7  0.95
      P1  H  7997  8008       L1    20  0.11

> <Gold.Chemscore.Hbond.Weighted>
-11.2271

> <Gold.Chemscore.Metal.Weighted>
-0.0000

> <Gold.Chemscore.Lipo.Weighted>
-7.7734

> <Gold.Chemscore.Internal_Hbond.Weighted>
0.0000

> <Gold.Chemscore.DEClash.Weighted>
0.5916

> <Gold.Chemscore.DEInternal.Weighted>
1.7357

> <Gold.Chemscore.Rot.Weighted>
6.5260

> <Gold.Chemscore.Internal.Correction.Weighted>
   9.000000E+99

> <Gold.Protein.RotatedTorsions>
[ 6907 6896 6895 6894 ] final   15.77 input  -60.11 | X-H torsion
[ 7974 7965 7964 7962 ] final  165.63 input  175.53 | X-H torsion
[ 8008 7997 7996 7995 ] final -105.85 input   59.86 | X-H torsion
[ 10167 10162 10161 10158 ] final   90.96 input  -65.29 | X-H torsion
[ 10718 10713 10712 10709 ] final  171.44 input   66.30 | X-H torsion
[ 10763 10752 10751 10750 ] final  -36.43 input  -60.55 | X-H torsion
[ 11005 11000 10999 10996 ] final  -25.82 input  -57.11 | X-H torsion

> <Gold.Protein.ActiveResidues>
 VAL166  LYS551  ARG553  GLY616  TRP617  ASP618  TYR619  PRO620  LYS621  CYS622 
 ASP623  PHE694  ASN695  SER759  ASP760  ASP761  ALA762  ILE779  LEU786  VAL792 
 PHE793  MET794  SER795  GLU796  ALA797  LYS798  CYS799  TRP800  GLU811  SER814 

> <Gold.Protein.RotatedAtoms>
  151.8234  135.0644  160.0427 H   0  0  0  0  0  0  0  0  0  0  0  0  # atno 6907 bound_to 6896
  152.2934  133.5579  159.5580 H   0  0  0  0  0  0  0  0  0  0  0  0  # atno 6908 bound_to 6896
  150.7240  134.0311  159.3776 H   0  0  0  0  0  0  0  0  0  0  0  0  # atno 6909 bound_to 6896
  144.7495  139.8498  143.6371 H   0  0  0  0  0  0  0  0  0  0  0  0  # atno 7974 bound_to 7965
  154.9058  140.0411  157.1919 H   0  0  0  0  0  0  0  0  0  0  0  0  # atno 8008 bound_to 7997
  154.8397  140.2912  155.5646 H   0  0  0  0  0  0  0  0  0  0  0  0  # atno 8009 bound_to 7997
  156.2991  140.2485  156.3338 H   0  0  0  0  0  0  0  0  0  0  0  0  # atno 8010 bound_to 7997
  139.8422  144.6635  150.9270 H   0  0  0  0  0  0  0  0  0  0  0  0  # atno 10167 bound_to 10162
  156.9935  131.0154  151.2850 H   0  0  0  0  0  0  0  0  0  0  0  0  # atno 10718 bound_to 10713
  153.8797  135.6823  153.4768 H   0  0  0  0  0  0  0  0  0  0  0  0  # atno 10763 bound_to 10752
  153.1241  135.4727  154.9241 H   0  0  0  0  0  0  0  0  0  0  0  0  # atno 10764 bound_to 10752
  154.7675  135.3228  154.8209 H   0  0  0  0  0  0  0  0  0  0  0  0  # atno 10765 bound_to 10752
  140.8973  133.7548  156.0497 H   0  0  0  0  0  0  0  0  0  0  0  0  # atno 11005 bound_to 11000
  146.1424  139.4484  143.0100 LP  0  0  0  0  0  0  0  0  0  0  0  0  # atno 17320 bound_to 7965
  145.6998  141.0139  143.1510 LP  0  0  0  0  0  0  0  0  0  0  0  0  # atno 17321 bound_to 7965
  140.7797  143.3902  151.1323 LP  0  0  0  0  0  0  0  0  0  0  0  0  # atno 17342 bound_to 10162
  139.7548  143.8724  152.3086 LP  0  0  0  0  0  0  0  0  0  0  0  0  # atno 17343 bound_to 10162
  157.5442  130.8139  149.8065 LP  0  0  0  0  0  0  0  0  0  0  0  0  # atno 17370 bound_to 10713
  156.0198  130.3800  150.1997 LP  0  0  0  0  0  0  0  0  0  0  0  0  # atno 17371 bound_to 10713
  140.8274  134.3218  157.5361 LP  0  0  0  0  0  0  0  0  0  0  0  0  # atno 17394 bound_to 11000
  139.8737  134.9344  156.3605 LP  0  0  0  0  0  0  0  0  0  0  0  0  # atno 17395 bound_to 11000

$$$$
