AV-unprocessed.smi:2861|AV-procd|sdf|11007|dock4
  -GOLD-   2272015463D 1   1.00000     0.00000
 Structure written by MMmdl.
 33 35  0  0  0  0  0  0  0  0  1 V2000
  150.3789  139.9408  154.2627 O   0  0  0  0  0  0  0  0  0  0  0  0
  150.1304  140.3192  155.4084 C   0  0  0  0  0  0  0  0  0  0  0  0
  151.2621  140.5381  156.4191 C   0  0  0  0  0  0  0  0  0  0  0  0
  151.1119  141.8548  157.1272 C   0  0  0  0  0  0  0  0  0  0  0  0
  150.5595  143.0068  156.6217 C   0  0  0  0  0  0  0  0  0  0  0  0
  150.5895  144.3087  157.7794 S   0  0  0  0  0  0  0  0  0  0  0  0
  151.3556  143.2199  158.9344 C   0  0  0  0  0  0  0  0  0  0  0  0
  151.7326  143.6125  160.2536 N   0  0  0  0  0  0  0  0  0  0  0  0
  151.1990  144.8247  160.8631 C   0  0  0  0  0  0  0  0  0  0  0  0
  151.9908  145.0281  162.1595 C   0  0  0  0  0  0  0  0  0  0  0  0
  152.6969  143.6984  162.4163 C   0  0  0  0  0  0  0  0  0  0  0  0
  152.5569  142.9603  161.0953 C   0  0  0  0  0  0  0  0  0  0  0  0
  153.1445  141.8996  160.8851 O   0  0  0  0  0  0  0  0  0  0  0  0
  151.5543  141.9893  158.4472 N   0  0  0  0  0  0  0  0  0  0  0  0
  148.8868  140.5552  155.8530 N   0  0  0  0  0  0  0  0  0  0  0  0
  147.6911  140.4138  155.0863 C   0  0  0  0  0  0  0  0  0  0  0  0
  147.6041  141.1668  153.7763 C   0  0  0  0  0  0  0  0  0  0  0  0
  146.7918  141.6242  154.9562 C   0  0  0  0  0  0  0  0  0  0  0  0
  151.2756  139.7231  157.1443 H   0  0  0  0  0  0  0  0  0  0  0  0
  152.2123  140.4904  155.8856 H   0  0  0  0  0  0  0  0  0  0  0  0
  150.1447  143.1692  155.6381 H   0  0  0  0  0  0  0  0  0  0  0  0
  151.3013  145.6852  160.2004 H   0  0  0  0  0  0  0  0  0  0  0  0
  150.1384  144.6822  161.0754 H   0  0  0  0  0  0  0  0  0  0  0  0
  152.7299  145.8195  162.0274 H   0  0  0  0  0  0  0  0  0  0  0  0
  151.3441  145.3171  162.9887 H   0  0  0  0  0  0  0  0  0  0  0  0
  153.7440  143.8336  162.6893 H   0  0  0  0  0  0  0  0  0  0  0  0
  152.1999  143.1293  163.2026 H   0  0  0  0  0  0  0  0  0  0  0  0
  148.7776  140.8567  156.8105 H   0  0  0  0  0  0  0  0  0  0  0  0
  147.1905  139.4467  155.1131 H   0  0  0  0  0  0  0  0  0  0  0  0
  148.4531  141.7818  153.4836 H   0  0  0  0  0  0  0  0  0  0  0  0
  147.0730  140.6867  152.9568 H   0  0  0  0  0  0  0  0  0  0  0  0
  145.7183  141.4496  154.9256 H   0  0  0  0  0  0  0  0  0  0  0  0
  147.0996  142.5434  155.4513 H   0  0  0  0  0  0  0  0  0  0  0  0
  1  2  2  0  0  0  0
  2  3  1  0  0  0  0
  2 15  1  0  0  0  0
  3  4  1  0  0  0  0
  3 19  1  0  0  0  0
  3 20  1  0  0  0  0
  4 14  1  0  0  0  0
  4  5  2  0  0  0  0
  5  6  1  0  0  0  0
  5 21  1  0  0  0  0
  6  7  1  0  0  0  0
  7  8  1  0  0  0  0
  7 14  2  0  0  0  0
  8 12  1  0  0  0  0
  8  9  1  0  0  0  0
  9 10  1  0  0  0  0
  9 22  1  0  0  0  0
  9 23  1  0  0  0  0
 10 11  1  0  0  0  0
 10 24  1  0  0  0  0
 10 25  1  0  0  0  0
 11 12  1  0  0  0  0
 11 26  1  0  0  0  0
 11 27  1  0  0  0  0
 12 13  2  0  0  0  0
 15 16  1  0  0  0  0
 15 28  1  0  0  0  0
 16 18  1  0  0  0  0
 16 17  1  0  0  0  0
 16 29  1  0  0  0  0
 17 18  1  0  0  0  0
 17 30  1  0  0  0  0
 17 31  1  0  0  0  0
 18 32  1  0  0  0  0
 18 33  1  0  0  0  0
M  END
> <s_m_source_file>
AV-unprocessed.smi

> <i_m_source_file_index>
2861

> <i_lp_mmshare_version>
43012

> <i_f3d_flags>
0

> <s_epik_input>
W0NIMl0xW0NIMl1bQ0hdMVtOSF1DKD1PKVtDSDJdYzJbY0hdc2MobjIpTjNbQ0gyXVtDSDJdW0NIMl1DMz1P

> <s_epik_cmdline>
J2VwaWtfcHl0aG9uJywgJy1waCcsICc3LjAnLCAnLXRuJywgJzgnLCAnLW1hJywgJzIwMCcsICctbWV0YWxfYmluZGluZycsICctaW1hZScsICc8aW5maWxlLm1hZT4nLCAnLW9tYWUnLCAnPG91dGZpbGUubWFlPic=

> <r_lp_tautomer_probability>
1

> <r_epik_Ionization_Penalty>
2.96745e-05

> <r_epik_Ionization_Penalty_Charging>
0

> <r_epik_Ionization_Penalty_Neutral>
2.96745e-05

> <r_epik_State_Penalty>
-0

> <r_epik_Charging_Adjusted_Penalty>
0

> <i_epik_Tot_Q>
0

> <i_epik_Tot_abs_Q>
0

> <r_epik_Metal_State_Penalty>
-0

> <b_epik_Metal_Only>
0

> <s_lp_Force_Field>
OPLS_2005

> <r_lp_Energy>
30.3521

> <b_lp_Chiralities_Consistent>
1

> <s_lp_Variant>
AV-unprocessed.smi:2861-1

> <Gold.Version>
5.8.1

> <Gold.Id.Protein>
6NUR|6NUR_protein|mol2

> <Gold.PLP.Fitness>
46.4202

> <Gold.PLP.PLP>
-41.6544

> <Gold.PLP.part.hbond>
-0.9476

> <Gold.PLP.part.metal>
0.0000

> <Gold.PLP.part.buried>
-5.5195

> <Gold.PLP.part.nonpolar>
-34.8774

> <Gold.PLP.part.repulsive>
0.1403

> <Gold.PLP.ligand.clash>
0.0000

> <Gold.PLP.ligand.torsion>
0.6392

> <Gold.PLP.Chemscore.Hbond>
1.0000

> <Gold.PLP.Chemscore.CHOScore>
1.0000

> <Gold.PLP.Chemscore.Metal>
0.0000

> <Gold.Chemscore.Hbonds>
donor molecule, donor type, donor heavy atom, donor atom, acceptor molecule, acceptor atom, score
      P1  H  7989  7998       L1     1  1.00
      L1  C     5    21       P1  8028  0.56

> <Gold.PLP.Chemscore.Internal.Correction>
0.0442

> <Gold.Rescore>
     Score         DG    S(hbond)    S(metal)    S(lipo)     H(rot)  DE(clash)    DE(int)     intcor
     11.31     -14.78       0.97        0.00      84.43       1.49       0.12       3.35       ----

> <Gold.Chemscore.Fitness>
11.3148

> <Gold.Chemscore.DG>
-14.7830

> <Gold.Chemscore.ZeroCoef>
-5.4800

> <Gold.Chemscore.Hbond>
0.9712

> <Gold.Chemscore.Metal>
0.0000

> <Gold.Chemscore.Lipo>
84.4316

> <Gold.Chemscore.Internal_Hbond>
0.0000

> <Gold.Chemscore.DEClash>
0.1230

> <Gold.Chemscore.DEInternal>
3.3451

> <Gold.Chemscore.Rot>
1.4920

> <Gold.Chemscore.Internal.Correction>
   9.000000E+99

> <Gold.Chemscore.Hbonds>
donor molecule, donor type, donor heavy atom, donor atom, acceptor molecule, acceptor atom, score
      P1  H  7989  7998       L1     1  0.87

> <Gold.Chemscore.Hbond.Weighted>
-3.2439

> <Gold.Chemscore.Metal.Weighted>
-0.0000

> <Gold.Chemscore.Lipo.Weighted>
-9.8785

> <Gold.Chemscore.Internal_Hbond.Weighted>
0.0000

> <Gold.Chemscore.DEClash.Weighted>
0.1230

> <Gold.Chemscore.DEInternal.Weighted>
3.3451

> <Gold.Chemscore.Rot.Weighted>
3.8194

> <Gold.Chemscore.Internal.Correction.Weighted>
   9.000000E+99

> <Gold.Protein.RotatedTorsions>
[ 6907 6896 6895 6894 ] final   -1.38 input  -60.11 | X-H torsion
[ 7974 7965 7964 7962 ] final  131.11 input  175.53 | X-H torsion
[ 8008 7997 7996 7995 ] final -119.84 input   59.86 | X-H torsion
[ 10167 10162 10161 10158 ] final  105.69 input  -65.29 | X-H torsion
[ 10718 10713 10712 10709 ] final   34.38 input   66.30 | X-H torsion
[ 10763 10752 10751 10750 ] final  153.62 input  -60.55 | X-H torsion
[ 11005 11000 10999 10996 ] final   42.44 input  -57.11 | X-H torsion

> <Gold.Protein.ActiveResidues>
 VAL166  LYS551  ARG553  GLY616  TRP617  ASP618  TYR619  PRO620  LYS621  CYS622 
 ASP623  PHE694  ASN695  SER759  ASP760  ASP761  ALA762  ILE779  LEU786  VAL792 
 PHE793  MET794  SER795  GLU796  ALA797  LYS798  CYS799  TRP800  GLU811  SER814 

> <Gold.Protein.RotatedAtoms>
  151.5470  135.1068  159.9940 H   0  0  0  0  0  0  0  0  0  0  0  0  # atno 6907 bound_to 6896
  152.4509  133.7623  159.6764 H   0  0  0  0  0  0  0  0  0  0  0  0  # atno 6908 bound_to 6896
  150.8437  133.7828  159.3075 H   0  0  0  0  0  0  0  0  0  0  0  0  # atno 6909 bound_to 6896
  145.0108  139.4222  143.5246 H   0  0  0  0  0  0  0  0  0  0  0  0  # atno 7974 bound_to 7965
  155.1221  140.0399  157.2753 H   0  0  0  0  0  0  0  0  0  0  0  0  # atno 8008 bound_to 7997
  154.6605  140.2590  155.7088 H   0  0  0  0  0  0  0  0  0  0  0  0  # atno 8009 bound_to 7997
  156.2617  140.2818  156.1076 H   0  0  0  0  0  0  0  0  0  0  0  0  # atno 8010 bound_to 7997
  139.7071  144.7084  151.1088 H   0  0  0  0  0  0  0  0  0  0  0  0  # atno 10167 bound_to 10162
  157.3097  130.7393  149.6717 H   0  0  0  0  0  0  0  0  0  0  0  0  # atno 10718 bound_to 10713
  154.1392  135.2822  155.3165 H   0  0  0  0  0  0  0  0  0  0  0  0  # atno 10763 bound_to 10752
  154.6299  135.5438  153.7672 H   0  0  0  0  0  0  0  0  0  0  0  0  # atno 10764 bound_to 10752
  153.0256  135.6460  154.1539 H   0  0  0  0  0  0  0  0  0  0  0  0  # atno 10765 bound_to 10752
  140.1738  134.4188  155.8241 H   0  0  0  0  0  0  0  0  0  0  0  0  # atno 11005 bound_to 11000
  146.3469  139.9551  142.8724 LP  0  0  0  0  0  0  0  0  0  0  0  0  # atno 17320 bound_to 7965
  145.2025  140.9861  143.4147 LP  0  0  0  0  0  0  0  0  0  0  0  0  # atno 17321 bound_to 7965
  140.7724  143.5343  150.9386 LP  0  0  0  0  0  0  0  0  0  0  0  0  # atno 17342 bound_to 10162
  139.9027  143.6816  152.3128 LP  0  0  0  0  0  0  0  0  0  0  0  0  # atno 17343 bound_to 10162
  155.9677  130.4255  150.4657 LP  0  0  0  0  0  0  0  0  0  0  0  0  # atno 17370 bound_to 10713
  157.2653  131.0575  151.2294 LP  0  0  0  0  0  0  0  0  0  0  0  0  # atno 17371 bound_to 10713
  141.2219  133.6968  156.7811 LP  0  0  0  0  0  0  0  0  0  0  0  0  # atno 17394 bound_to 11000
  140.2346  134.8660  157.3511 LP  0  0  0  0  0  0  0  0  0  0  0  0  # atno 17395 bound_to 11000

$$$$
