AV-unprocessed.smi:512|AV-procd|sdf|2769|dock3
  -GOLD-   2262023233D 1   1.00000     0.00000
 Structure written by MMmdl.
 48 50  0  0  0  0  0  0  0  0  1 V2000
  147.7181  126.4488  151.2938 C   0  0  0  0  0  0  0  0  0  0  0  0
  147.2842  127.8432  151.7508 C   0  0  0  0  0  0  0  0  0  0  0  0
  147.7515  128.0500  153.0714 O   0  0  0  0  0  0  0  0  0  0  0  0
  147.3908  129.3170  153.5961 C   0  0  0  0  0  0  0  0  0  0  0  0
  147.8190  130.4174  152.6153 C   0  0  0  0  0  0  0  0  0  0  0  0
  148.1638  131.6554  153.3123 N   0  0  0  0  0  0  0  0  0  0  0  0
  147.7606  132.9249  153.0323 C   0  0  0  0  0  0  0  0  0  0  0  0
  146.8731  133.2123  151.9952 N   0  0  0  0  0  0  0  0  0  0  0  0
  145.7866  134.1889  152.0083 C   0  0  0  0  0  0  0  0  0  0  0  0
  144.4765  133.5630  151.4914 C   0  0  0  0  0  0  0  0  0  0  0  0
  144.6675  133.1212  150.1103 N   0  0  0  0  0  0  0  0  0  0  0  0
  143.4387  132.5197  149.6140 C   0  0  0  0  0  0  0  0  0  0  0  0
  145.7477  132.1348  150.0769 C   0  0  0  0  0  0  0  0  0  0  0  0
  147.0453  132.7708  150.6145 C   0  0  0  0  0  0  0  0  0  0  0  0
  148.3244  133.8686  153.7908 N   0  0  0  0  0  0  0  0  0  0  0  0
  149.1368  133.1406  154.6457 C   0  0  0  0  0  0  0  0  0  0  0  0
  149.0624  131.8132  154.3708 C   0  0  0  0  0  0  0  0  0  0  0  0
  149.8646  130.8158  155.0951 C   0  0  0  0  0  0  0  0  0  0  0  0
  149.8290  129.6103  154.8594 O   0  0  0  0  0  0  0  0  0  0  0  0
  150.6589  131.3615  156.0478 N   0  0  0  0  0  0  0  0  0  0  0  0
  150.7772  132.6840  156.3751 C   0  0  0  0  0  0  0  0  0  0  0  0
  151.5558  133.0302  157.2634 O   0  0  0  0  0  0  0  0  0  0  0  0
  150.0088  133.5830  155.6810 N   0  0  0  0  0  0  0  0  0  0  0  0
  150.0969  135.0128  155.9840 C   0  0  0  0  0  0  0  0  0  0  0  0
  151.2340  130.7186  156.5724 H   0  0  0  0  0  0  0  0  0  0  0  0
  147.3851  126.2506  150.2750 H   0  0  0  0  0  0  0  0  0  0  0  0
  147.2977  125.6778  151.9402 H   0  0  0  0  0  0  0  0  0  0  0  0
  148.8037  126.3501  151.3169 H   0  0  0  0  0  0  0  0  0  0  0  0
  147.6977  128.5999  151.0824 H   0  0  0  0  0  0  0  0  0  0  0  0
  146.1972  127.9272  151.7171 H   0  0  0  0  0  0  0  0  0  0  0  0
  146.3122  129.3621  153.7537 H   0  0  0  0  0  0  0  0  0  0  0  0
  147.8694  129.4720  154.5639 H   0  0  0  0  0  0  0  0  0  0  0  0
  148.6585  130.0754  152.0176 H   0  0  0  0  0  0  0  0  0  0  0  0
  147.0277  130.6107  151.8945 H   0  0  0  0  0  0  0  0  0  0  0  0
  145.6528  134.5955  153.0098 H   0  0  0  0  0  0  0  0  0  0  0  0
  146.0647  135.0387  151.3832 H   0  0  0  0  0  0  0  0  0  0  0  0
  144.1741  132.7266  152.1236 H   0  0  0  0  0  0  0  0  0  0  0  0
  143.6755  134.3022  151.5288 H   0  0  0  0  0  0  0  0  0  0  0  0
  143.5660  132.1860  148.5835 H   0  0  0  0  0  0  0  0  0  0  0  0
  142.6246  133.2450  149.6303 H   0  0  0  0  0  0  0  0  0  0  0  0
  143.1431  131.6603  150.2178 H   0  0  0  0  0  0  0  0  0  0  0  0
  145.4826  131.2568  150.6686 H   0  0  0  0  0  0  0  0  0  0  0  0
  145.9010  131.7980  149.0509 H   0  0  0  0  0  0  0  0  0  0  0  0
  147.3490  133.6135  149.9917 H   0  0  0  0  0  0  0  0  0  0  0  0
  147.8535  132.0399  150.5670 H   0  0  0  0  0  0  0  0  0  0  0  0
  150.0115  135.1931  157.0569 H   0  0  0  0  0  0  0  0  0  0  0  0
  149.3085  135.5898  155.5008 H   0  0  0  0  0  0  0  0  0  0  0  0
  151.0544  135.4113  155.6469 H   0  0  0  0  0  0  0  0  0  0  0  0
  1  2  1  0  0  0  0
  1 26  1  0  0  0  0
  1 27  1  0  0  0  0
  1 28  1  0  0  0  0
  2  3  1  0  0  0  0
  2 29  1  0  0  0  0
  2 30  1  0  0  0  0
  3  4  1  0  0  0  0
  4  5  1  0  0  0  0
  4 31  1  0  0  0  0
  4 32  1  0  0  0  0
  5  6  1  0  0  0  0
  5 33  1  0  0  0  0
  5 34  1  0  0  0  0
  6 17  1  0  0  0  0
  6  7  1  0  0  0  0
  7  8  1  0  0  0  0
  7 15  2  0  0  0  0
  8 14  1  0  0  0  0
  8  9  1  0  0  0  0
  9 10  1  0  0  0  0
  9 35  1  0  0  0  0
  9 36  1  0  0  0  0
 10 11  1  0  0  0  0
 10 37  1  0  0  0  0
 10 38  1  0  0  0  0
 11 12  1  0  0  0  0
 11 13  1  0  0  0  0
 12 39  1  0  0  0  0
 12 40  1  0  0  0  0
 12 41  1  0  0  0  0
 13 14  1  0  0  0  0
 13 42  1  0  0  0  0
 13 43  1  0  0  0  0
 14 44  1  0  0  0  0
 14 45  1  0  0  0  0
 15 16  1  0  0  0  0
 16 23  1  0  0  0  0
 16 17  2  0  0  0  0
 17 18  1  0  0  0  0
 18 19  2  0  0  0  0
 18 20  1  0  0  0  0
 20 25  1  0  0  0  0
 20 21  1  0  0  0  0
 21 22  2  0  0  0  0
 21 23  1  0  0  0  0
 23 24  1  0  0  0  0
 24 46  1  0  0  0  0
 24 47  1  0  0  0  0
 24 48  1  0  0  0  0
M  END
> <s_m_source_file>
AV-unprocessed.smi

> <i_m_source_file_index>
512

> <i_lp_mmshare_version>
43012

> <i_f3d_flags>
0

> <s_epik_input>
W0NIM11uMWMoPU8pW25IXWMoPU8pYyhjMTIpbihbQ0gyXVtDSDJdT1tDSDJdW0NIM10pYyhuMilOM1tDSDJdW0NIMl1OKFtDSDNdKVtDSDJdW0NIMl0z

> <s_epik_cmdline>
J2VwaWtfcHl0aG9uJywgJy1waCcsICc3LjAnLCAnLXRuJywgJzgnLCAnLW1hJywgJzIwMCcsICctbWV0YWxfYmluZGluZycsICctaW1hZScsICc8aW5maWxlLm1hZT4nLCAnLW9tYWUnLCAnPG91dGZpbGUubWFlPic=

> <r_epik_Ionization_Penalty>
1.34391

> <r_epik_Ionization_Penalty_Charging>
1.55829e-05

> <r_epik_Ionization_Penalty_Neutral>
1.34389

> <r_epik_State_Penalty>
1.4212

> <r_epik_Charging_Adjusted_Penalty>
1.42122

> <i_epik_Tot_Q>
0

> <i_epik_Tot_abs_Q>
0

> <r_epik_Metal_State_Penalty>
1.44738

> <b_epik_Metal_Only>
0

> <s_lp_Force_Field>
OPLS_2005

> <r_lp_Energy>
48.5788

> <b_lp_Chiralities_Consistent>
1

> <s_lp_Variant>
AV-unprocessed.smi:512-2

> <Gold.Version>
5.8.1

> <Gold.Id.Protein>
6NUR|6NUR_protein|mol2

> <Gold.PLP.Fitness>
38.3037

> <Gold.PLP.PLP>
-37.7380

> <Gold.PLP.part.hbond>
-1.0000

> <Gold.PLP.part.metal>
0.0000

> <Gold.PLP.part.buried>
1.9550

> <Gold.PLP.part.nonpolar>
-39.7494

> <Gold.PLP.part.repulsive>
0.8149

> <Gold.PLP.ligand.clash>
0.0000

> <Gold.PLP.ligand.torsion>
1.1195

> <Gold.PLP.Chemscore.Hbond>
0.7771

> <Gold.PLP.Chemscore.CHOScore>
0.0000

> <Gold.PLP.Chemscore.Metal>
0.0000

> <Gold.Chemscore.Hbonds>
donor molecule, donor type, donor heavy atom, donor atom, acceptor molecule, acceptor atom, score
      P1  H  6896  6907       L1    22  0.78

> <Gold.PLP.Chemscore.Internal.Correction>
0.4733

> <Gold.Rescore>
     Score         DG    S(hbond)    S(metal)    S(lipo)     H(rot)  DE(clash)    DE(int)     intcor
     10.37     -14.48       1.00        0.00      84.16       1.63       3.13       0.98       ----

> <Gold.Chemscore.Fitness>
10.3726

> <Gold.Chemscore.DG>
-14.4840

> <Gold.Chemscore.ZeroCoef>
-5.4800

> <Gold.Chemscore.Hbond>
0.9993

> <Gold.Chemscore.Metal>
0.0000

> <Gold.Chemscore.Lipo>
84.1565

> <Gold.Chemscore.Internal_Hbond>
0.0000

> <Gold.Chemscore.DEClash>
3.1275

> <Gold.Chemscore.DEInternal>
0.9838

> <Gold.Chemscore.Rot>
1.6328

> <Gold.Chemscore.Internal.Correction>
   9.000000E+99

> <Gold.Chemscore.Hbonds>
donor molecule, donor type, donor heavy atom, donor atom, acceptor molecule, acceptor atom, score
      P1  H  6896  6907       L1    22  0.75

> <Gold.Chemscore.Hbond.Weighted>
-3.3377

> <Gold.Chemscore.Metal.Weighted>
-0.0000

> <Gold.Chemscore.Lipo.Weighted>
-9.8463

> <Gold.Chemscore.Internal_Hbond.Weighted>
0.0000

> <Gold.Chemscore.DEClash.Weighted>
3.1275

> <Gold.Chemscore.DEInternal.Weighted>
0.9838

> <Gold.Chemscore.Rot.Weighted>
4.1800

> <Gold.Chemscore.Internal.Correction.Weighted>
   9.000000E+99

> <Gold.Protein.RotatedTorsions>
[ 6907 6896 6895 6894 ] final -176.91 input  -60.11 | X-H torsion
[ 7974 7965 7964 7962 ] final -155.32 input  175.53 | X-H torsion
[ 8008 7997 7996 7995 ] final  -60.71 input   59.86 | X-H torsion
[ 10167 10162 10161 10158 ] final -107.01 input  -65.29 | X-H torsion
[ 10718 10713 10712 10709 ] final -117.03 input   66.30 | X-H torsion
[ 10763 10752 10751 10750 ] final   83.51 input  -60.55 | X-H torsion
[ 11005 11000 10999 10996 ] final  -66.29 input  -57.11 | X-H torsion

> <Gold.Protein.ActiveResidues>
 VAL166  LYS551  ARG553  GLY616  TRP617  ASP618  TYR619  PRO620  LYS621  CYS622 
 ASP623  PHE694  ASN695  SER759  ASP760  ASP761  ALA762  ILE779  LEU786  VAL792 
 PHE793  MET794  SER795  GLU796  ALA797  LYS798  CYS799  TRP800  GLU811  SER814 

> <Gold.Protein.RotatedAtoms>
  151.6124  133.3346  159.3070 H   0  0  0  0  0  0  0  0  0  0  0  0  # atno 6907 bound_to 6896
  150.8149  134.7329  159.6733 H   0  0  0  0  0  0  0  0  0  0  0  0  # atno 6908 bound_to 6896
  152.4245  134.5898  160.0022 H   0  0  0  0  0  0  0  0  0  0  0  0  # atno 6909 bound_to 6896
  144.7646  140.4266  143.5951 H   0  0  0  0  0  0  0  0  0  0  0  0  # atno 7974 bound_to 7965
  154.4412  140.1033  156.6316 H   0  0  0  0  0  0  0  0  0  0  0  0  # atno 8008 bound_to 7997
  155.5599  140.3487  155.4470 H   0  0  0  0  0  0  0  0  0  0  0  0  # atno 8009 bound_to 7997
  156.0468  140.1294  157.0084 H   0  0  0  0  0  0  0  0  0  0  0  0  # atno 8010 bound_to 7997
  140.1816  143.3962  152.1277 H   0  0  0  0  0  0  0  0  0  0  0  0  # atno 10167 bound_to 10162
  156.1005  130.6168  150.9112 H   0  0  0  0  0  0  0  0  0  0  0  0  # atno 10718 bound_to 10713
  153.1297  135.4688  154.9329 H   0  0  0  0  0  0  0  0  0  0  0  0  # atno 10763 bound_to 10752
  154.7653  135.3143  154.8301 H   0  0  0  0  0  0  0  0  0  0  0  0  # atno 10764 bound_to 10752
  153.8846  135.6891  153.4818 H   0  0  0  0  0  0  0  0  0  0  0  0  # atno 10765 bound_to 10752
  141.1478  133.6697  156.6117 H   0  0  0  0  0  0  0  0  0  0  0  0  # atno 11005 bound_to 11000
  145.6511  139.1565  143.2861 LP  0  0  0  0  0  0  0  0  0  0  0  0  # atno 17320 bound_to 7965
  146.1741  140.6599  142.9219 LP  0  0  0  0  0  0  0  0  0  0  0  0  # atno 17321 bound_to 7965
  139.5294  144.7141  151.5111 LP  0  0  0  0  0  0  0  0  0  0  0  0  # atno 17342 bound_to 10162
  140.6516  143.8685  150.6791 LP  0  0  0  0  0  0  0  0  0  0  0  0  # atno 17343 bound_to 10162
  157.6174  131.0932  150.8685 LP  0  0  0  0  0  0  0  0  0  0  0  0  # atno 17370 bound_to 10713
  156.8814  130.5180  149.5291 LP  0  0  0  0  0  0  0  0  0  0  0  0  # atno 17371 bound_to 10713
  140.3609  134.7688  157.4533 LP  0  0  0  0  0  0  0  0  0  0  0  0  # atno 17394 bound_to 11000
  140.0786  134.5763  155.8565 LP  0  0  0  0  0  0  0  0  0  0  0  0  # atno 17395 bound_to 11000

$$$$
