AV-unprocessed.smi:1428|AV-procd|sdf|5816|dock9
  -GOLD-   22720 5473D 1   1.00000     0.00000
 Structure written by MMmdl.
 43 44  0  0  0  0  0  0  0  0  3 V2000
  151.6678  145.6266  160.0343 C   0  0  0  0  0  0  0  0  0  0  0  0
  151.4766  144.4975  159.1885 O   0  0  0  0  0  0  0  0  0  0  0  0
  152.1816  143.3407  159.4629 C   0  0  0  0  0  0  0  0  0  0  0  0
  153.0155  143.3338  160.5330 N   0  0  0  0  0  0  0  0  0  0  0  0
  153.7023  142.2058  160.8056 C   0  0  0  0  0  0  0  0  0  0  0  0
  153.5905  141.0323  160.0384 C   0  0  0  0  0  0  0  0  0  0  0  0
  152.7253  141.0360  158.9290 C   0  0  0  0  0  0  0  0  0  0  0  0
  152.0076  142.2178  158.6195 C   0  0  0  0  0  0  0  0  0  0  0  0
  151.0973  142.3357  157.5313 N   0  0  0  0  0  0  0  0  0  0  0  0
  150.8135  141.4497  156.5612 C   0  0  0  0  0  0  0  0  0  0  0  0
  151.3238  140.3369  156.4359 O   0  0  0  0  0  0  0  0  0  0  0  0
  149.8955  141.9381  155.7147 N   0  0  0  0  0  0  0  0  0  0  0  0
  149.3579  141.2288  154.5571 C   0  0  2  0  0  0  0  0  0  0  0  0
  148.0438  141.8702  154.0744 C   0  0  0  0  0  0  0  0  0  0  0  0
  147.4299  141.0681  152.9154 C   0  0  0  0  0  0  0  0  0  0  0  0
  147.2076  139.6496  153.3039 N   0  3  1  0  0  0  0  0  0  0  0  0
  146.4919  138.8619  152.2678 C   0  0  0  0  0  0  0  0  0  0  0  0
  145.6950  137.7192  152.9064 C   0  0  0  0  0  0  0  0  0  0  0  0
  144.3833  137.7730  152.5984 N   0  5  0  0  0  0  0  0  0  0  0  0
  146.2732  136.8918  153.6070 O   0  0  0  0  0  0  0  0  0  0  0  0
  148.4659  138.9960  153.7439 C   0  0  0  0  0  0  0  0  0  0  0  0
  149.1059  139.7560  154.9180 C   0  0  0  0  0  0  0  0  0  0  0  0
  151.0483  146.4507  159.6810 H   0  0  0  0  0  0  0  0  0  0  0  0
  152.7049  145.9650  160.0225 H   0  0  0  0  0  0  0  0  0  0  0  0
  151.3734  145.4089  161.0621 H   0  0  0  0  0  0  0  0  0  0  0  0
  154.3561  142.2376  161.6647 H   0  0  0  0  0  0  0  0  0  0  0  0
  154.1527  140.1476  160.2977 H   0  0  0  0  0  0  0  0  0  0  0  0
  152.6248  140.1304  158.3524 H   0  0  0  0  0  0  0  0  0  0  0  0
  150.6388  143.2323  157.4566 H   0  0  0  0  0  0  0  0  0  0  0  0
  149.5346  142.8646  155.8896 H   0  0  0  0  0  0  0  0  0  0  0  0
  150.0907  141.2628  153.7482 H   0  0  0  0  0  0  0  0  0  0  0  0
  147.3293  141.9208  154.8977 H   0  0  0  0  0  0  0  0  0  0  0  0
  148.2183  142.8977  153.7535 H   0  0  0  0  0  0  0  0  0  0  0  0
  146.4872  141.5311  152.6225 H   0  0  0  0  0  0  0  0  0  0  0  0
  148.0847  141.1093  152.0435 H   0  0  0  0  0  0  0  0  0  0  0  0
  145.8379  139.5092  151.6815 H   0  0  0  0  0  0  0  0  0  0  0  0
  147.2025  138.4212  151.5663 H   0  0  0  0  0  0  0  0  0  0  0  0
  144.1083  137.7361  151.6094 H   0  0  0  0  0  0  0  0  0  0  0  0
  148.2584  137.9714  154.0549 H   0  0  0  0  0  0  0  0  0  0  0  0
  149.1609  138.9391  152.9047 H   0  0  0  0  0  0  0  0  0  0  0  0
  150.0421  139.2733  155.2011 H   0  0  0  0  0  0  0  0  0  0  0  0
  148.4497  139.6934  155.7877 H   0  0  0  0  0  0  0  0  0  0  0  0
  146.5914  139.6549  154.1051 H   0  0  0  0  0  0  0  0  0  0  0  0
  1  2  1  0  0  0  0
  1 23  1  0  0  0  0
  1 24  1  0  0  0  0
  1 25  1  0  0  0  0
  2  3  1  0  0  0  0
  3  8  1  0  0  0  0
  3  4  2  0  0  0  0
  4  5  1  0  0  0  0
  5  6  2  0  0  0  0
  5 26  1  0  0  0  0
  6  7  1  0  0  0  0
  6 27  1  0  0  0  0
  7  8  2  0  0  0  0
  7 28  1  0  0  0  0
  8  9  1  0  0  0  0
  9 10  1  0  0  0  0
  9 29  1  0  0  0  0
 10 11  2  0  0  0  0
 10 12  1  0  0  0  0
 12 13  1  0  0  0  0
 12 30  1  0  0  0  0
 13 22  1  0  0  0  0
 13 14  1  0  0  0  0
 13 31  1  0  0  0  0
 14 15  1  0  0  0  0
 14 32  1  0  0  0  0
 14 33  1  0  0  0  0
 15 16  1  0  0  0  0
 15 34  1  0  0  0  0
 15 35  1  0  0  0  0
 16 17  1  0  0  0  0
 16 21  1  0  0  0  0
 16 43  1  0  0  0  0
 17 18  1  0  0  0  0
 17 36  1  0  0  0  0
 17 37  1  0  0  0  0
 18 19  1  0  0  0  0
 18 20  2  0  0  0  0
 19 38  1  0  0  0  0
 21 22  1  0  0  0  0
 21 39  1  0  0  0  0
 21 40  1  0  0  0  0
 22 41  1  0  0  0  0
 22 42  1  0  0  0  0
M  CHG  1  16   1
M  CHG  1  19  -1
M  END
> <s_m_source_file>
AV-unprocessed.smi

> <i_m_source_file_index>
1428

> <i_lp_mmshare_version>
43012

> <i_f3d_flags>
0

> <s_epik_input>
W0NIM11PYzFuW2NIXVtjSF1bY0hdYzFbTkhdQyg9TylbTkhdW0NIXTJbQ0gyXVtDSDJdTihbQ0gyXVtDSDJdMilbQ0gyXUMoPU8pW05IMl0=

> <s_epik_cmdline>
J2VwaWtfcHl0aG9uJywgJy1waCcsICc3LjAnLCAnLXRuJywgJzgnLCAnLW1hJywgJzIwMCcsICctbWV0YWxfYmluZGluZycsICctaW1hZScsICc8aW5maWxlLm1hZT4nLCAnLW9tYWUnLCAnPG91dGZpbGUubWFlPic=

> <r_lp_tautomer_probability>
1

> <r_epik_Ionization_Penalty>
5.72888

> <r_epik_Ionization_Penalty_Charging>
5.7288

> <r_epik_Ionization_Penalty_Neutral>
7.84403e-05

> <r_epik_State_Penalty>
6.54882

> <r_epik_Charging_Adjusted_Penalty>
12.2776

> <i_epik_Tot_Q>
0

> <i_epik_Tot_abs_Q>
2

> <r_epik_Metal_State_Penalty>
2.51301

> <b_epik_Metal_Only>
1

> <s_lp_Force_Field>
OPLS_2005

> <r_lp_Energy>
10.0981

> <b_lp_Chiralities_Consistent>
1

> <s_lp_Variant>
AV-unprocessed.smi:1428-4

> <Gold.Version>
5.8.1

> <Gold.Id.Protein>
6NUR|6NUR_protein|mol2

> <Gold.PLP.Fitness>
46.6026

> <Gold.PLP.PLP>
-41.6411

> <Gold.PLP.part.hbond>
-3.3045

> <Gold.PLP.part.metal>
0.0000

> <Gold.PLP.part.buried>
-3.2676

> <Gold.PLP.part.nonpolar>
-34.9534

> <Gold.PLP.part.repulsive>
0.4059

> <Gold.PLP.ligand.clash>
0.0117

> <Gold.PLP.ligand.torsion>
0.5297

> <Gold.PLP.Chemscore.Hbond>
2.0000

> <Gold.PLP.Chemscore.CHOScore>
0.0000

> <Gold.PLP.Chemscore.Metal>
0.0000

> <Gold.Chemscore.Hbonds>
donor molecule, donor type, donor heavy atom, donor atom, acceptor molecule, acceptor atom, score
      L1  H    12    30       P1  8028  1.00
      L1  H    19    38       P1 10171  1.00

> <Gold.PLP.Chemscore.Internal.Correction>
0.0326

> <Gold.Rescore>
     Score         DG    S(hbond)    S(metal)    S(lipo)     H(rot)  DE(clash)    DE(int)     intcor
     10.88     -16.94       1.92        0.00      93.13       2.29       1.73       4.33       ----

> <Gold.Chemscore.Fitness>
10.8755

> <Gold.Chemscore.DG>
-16.9405

> <Gold.Chemscore.ZeroCoef>
-5.4800

> <Gold.Chemscore.Hbond>
1.9237

> <Gold.Chemscore.Metal>
0.0000

> <Gold.Chemscore.Lipo>
93.1283

> <Gold.Chemscore.Internal_Hbond>
0.0000

> <Gold.Chemscore.DEClash>
1.7342

> <Gold.Chemscore.DEInternal>
4.3307

> <Gold.Chemscore.Rot>
2.2894

> <Gold.Chemscore.Internal.Correction>
   9.000000E+99

> <Gold.Chemscore.Hbonds>
donor molecule, donor type, donor heavy atom, donor atom, acceptor molecule, acceptor atom, score
      L1  H    12    30       P1  8028  0.98
      L1  H    19    38       P1 10171  0.92

> <Gold.Chemscore.Hbond.Weighted>
-6.4252

> <Gold.Chemscore.Metal.Weighted>
-0.0000

> <Gold.Chemscore.Lipo.Weighted>
-10.8960

> <Gold.Chemscore.Internal_Hbond.Weighted>
0.0000

> <Gold.Chemscore.DEClash.Weighted>
1.7342

> <Gold.Chemscore.DEInternal.Weighted>
4.3307

> <Gold.Chemscore.Rot.Weighted>
5.8608

> <Gold.Chemscore.Internal.Correction.Weighted>
   9.000000E+99

> <Gold.Protein.RotatedTorsions>
[ 6907 6896 6895 6894 ] final -177.58 input  -60.11 | X-H torsion
[ 7974 7965 7964 7962 ] final  127.93 input  175.53 | X-H torsion
[ 8008 7997 7996 7995 ] final  -63.46 input   59.86 | X-H torsion
[ 10167 10162 10161 10158 ] final   51.85 input  -65.29 | X-H torsion
[ 10718 10713 10712 10709 ] final -160.74 input   66.30 | X-H torsion
[ 10763 10752 10751 10750 ] final   77.78 input  -60.55 | X-H torsion
[ 11005 11000 10999 10996 ] final   33.89 input  -57.11 | X-H torsion

> <Gold.Protein.ActiveResidues>
 VAL166  LYS551  ARG553  GLY616  TRP617  ASP618  TYR619  PRO620  LYS621  CYS622 
 ASP623  PHE694  ASN695  SER759  ASP760  ASP761  ALA762  ILE779  LEU786  VAL792 
 PHE793  MET794  SER795  GLU796  ALA797  LYS798  CYS799  TRP800  GLU811  SER814 

> <Gold.Protein.RotatedAtoms>
  151.6232  133.3337  159.3092 H   0  0  0  0  0  0  0  0  0  0  0  0  # atno 6907 bound_to 6896
  150.8095  134.7244  159.6686 H   0  0  0  0  0  0  0  0  0  0  0  0  # atno 6908 bound_to 6896
  152.4191  134.5993  160.0047 H   0  0  0  0  0  0  0  0  0  0  0  0  # atno 6909 bound_to 6896
  145.0451  139.3930  143.5082 H   0  0  0  0  0  0  0  0  0  0  0  0  # atno 7974 bound_to 7965
  154.4556  140.0974  156.6746 H   0  0  0  0  0  0  0  0  0  0  0  0  # atno 8008 bound_to 7997
  155.5150  140.3477  155.4377 H   0  0  0  0  0  0  0  0  0  0  0  0  # atno 8009 bound_to 7997
  156.0770  140.1363  156.9748 H   0  0  0  0  0  0  0  0  0  0  0  0  # atno 8010 bound_to 7997
  140.2575  144.3410  150.6328 H   0  0  0  0  0  0  0  0  0  0  0  0  # atno 10167 bound_to 10162
  156.5864  130.8751  151.2878 H   0  0  0  0  0  0  0  0  0  0  0  0  # atno 10718 bound_to 10713
  153.0824  135.4901  154.8530 H   0  0  0  0  0  0  0  0  0  0  0  0  # atno 10763 bound_to 10752
  154.7168  135.3031  154.9113 H   0  0  0  0  0  0  0  0  0  0  0  0  # atno 10764 bound_to 10752
  153.9790  135.6792  153.4802 H   0  0  0  0  0  0  0  0  0  0  0  0  # atno 10765 bound_to 10752
  140.2584  134.3221  155.7866 H   0  0  0  0  0  0  0  0  0  0  0  0  # atno 11005 bound_to 11000
  146.3513  140.0072  142.8670 LP  0  0  0  0  0  0  0  0  0  0  0  0  # atno 17320 bound_to 7965
  145.1598  140.9667  143.4384 LP  0  0  0  0  0  0  0  0  0  0  0  0  # atno 17321 bound_to 7965
  140.5992  143.2167  151.7105 LP  0  0  0  0  0  0  0  0  0  0  0  0  # atno 17342 bound_to 10162
  139.5027  144.3820  152.0367 LP  0  0  0  0  0  0  0  0  0  0  0  0  # atno 17343 bound_to 10162
  157.7314  130.9700  150.1879 LP  0  0  0  0  0  0  0  0  0  0  0  0  # atno 17370 bound_to 10713
  156.2587  130.3708  149.8154 LP  0  0  0  0  0  0  0  0  0  0  0  0  # atno 17371 bound_to 10713
  141.2193  133.7395  156.9148 LP  0  0  0  0  0  0  0  0  0  0  0  0  # atno 17394 bound_to 11000
  140.1489  134.9244  157.2566 LP  0  0  0  0  0  0  0  0  0  0  0  0  # atno 17395 bound_to 11000

$$$$
