AV-unprocessed.smi:658|AV-procd|sdf|3233|dock9
  -GOLD-   22720 0183D 1   1.00000     0.00000
 Structure written by MMmdl.
 38 38  0  0  0  0  0  0  0  0  2 V2000
  144.1423  136.1903  152.0598 C   0  0  0  0  0  0  0  0  0  0  0  0
  145.6170  135.8248  151.8231 C   0  0  1  0  0  0  0  0  0  0  0  0
  146.4666  136.6823  152.6818 N   0  3  0  0  0  0  0  0  0  0  0  0
  146.2497  138.1329  152.5160 C   0  0  0  0  0  0  0  0  0  0  0  0
  147.3903  138.9346  153.1534 C   0  0  0  0  0  0  0  0  0  0  0  0
  146.9560  140.3507  153.5558 C   0  0  0  0  0  0  0  0  0  0  0  0
  148.3116  141.2577  154.4165 S   0  0  0  0  0  0  0  0  0  0  0  0
  147.9141  142.8981  154.0882 N   0  0  0  0  0  0  0  0  0  0  0  0
  148.1842  141.0559  155.8678 O   0  0  0  0  0  0  0  0  0  0  0  0
  149.5766  140.9718  153.7237 O   0  0  0  0  0  0  0  0  0  0  0  0
  145.9250  134.3295  152.0931 C   0  0  1  0  0  0  0  0  0  0  0  0
  145.5697  133.8807  153.5231 C   0  0  0  0  0  0  0  0  0  0  0  0
  145.2434  133.4813  151.1208 N   0  0  0  0  0  0  0  0  0  0  0  0
  145.7785  132.5344  150.2694 C   0  0  0  0  0  0  0  0  0  0  0  0
  144.7418  131.9638  149.5886 C   0  0  0  0  0  0  0  0  0  0  0  0
  143.5936  132.6267  150.1034 C   0  0  0  0  0  0  0  0  0  0  0  0
  143.8959  133.5256  151.0262 N   0  0  0  0  0  0  0  0  0  0  0  0
  143.4810  135.6677  151.3692 H   0  0  0  0  0  0  0  0  0  0  0  0
  143.9759  137.2578  151.9109 H   0  0  0  0  0  0  0  0  0  0  0  0
  143.8293  135.9445  153.0752 H   0  0  0  0  0  0  0  0  0  0  0  0
  145.8448  136.0321  150.7758 H   0  0  0  0  0  0  0  0  0  0  0  0
  146.3124  136.4324  153.6482 H   0  0  0  0  0  0  0  0  0  0  0  0
  146.1870  138.3650  151.4517 H   0  0  0  0  0  0  0  0  0  0  0  0
  145.2954  138.4080  152.9669 H   0  0  0  0  0  0  0  0  0  0  0  0
  147.7604  138.4055  154.0324 H   0  0  0  0  0  0  0  0  0  0  0  0
  148.2238  138.9959  152.4525 H   0  0  0  0  0  0  0  0  0  0  0  0
  146.6929  140.9234  152.6659 H   0  0  0  0  0  0  0  0  0  0  0  0
  146.0818  140.3393  154.2073 H   0  0  0  0  0  0  0  0  0  0  0  0
  148.1533  143.5292  154.8529 H   0  0  0  0  0  0  0  0  0  0  0  0
  146.9747  143.0156  153.7087 H   0  0  0  0  0  0  0  0  0  0  0  0
  146.9986  134.1748  151.9671 H   0  0  0  0  0  0  0  0  0  0  0  0
  146.1937  134.3765  154.2664 H   0  0  0  0  0  0  0  0  0  0  0  0
  145.7236  132.8079  153.6452 H   0  0  0  0  0  0  0  0  0  0  0  0
  144.5287  134.0962  153.7655 H   0  0  0  0  0  0  0  0  0  0  0  0
  146.8403  132.3432  150.2209 H   0  0  0  0  0  0  0  0  0  0  0  0
  144.7951  131.1877  148.8394 H   0  0  0  0  0  0  0  0  0  0  0  0
  142.5565  132.4780  149.8407 H   0  0  0  0  0  0  0  0  0  0  0  0
  147.4311  136.4866  152.4515 H   0  0  0  0  0  0  0  0  0  0  0  0
  1  2  1  0  0  0  0
  1 18  1  0  0  0  0
  1 19  1  0  0  0  0
  1 20  1  0  0  0  0
  2  3  1  0  0  0  0
  2 11  1  0  0  0  0
  2 21  1  0  0  0  0
  3  4  1  0  0  0  0
  3 22  1  0  0  0  0
  3 38  1  0  0  0  0
  4  5  1  0  0  0  0
  4 23  1  0  0  0  0
  4 24  1  0  0  0  0
  5  6  1  0  0  0  0
  5 25  1  0  0  0  0
  5 26  1  0  0  0  0
  6  7  1  0  0  0  0
  6 27  1  0  0  0  0
  6 28  1  0  0  0  0
  7  8  1  0  0  0  0
  7  9  2  0  0  0  0
  7 10  2  0  0  0  0
  8 29  1  0  0  0  0
  8 30  1  0  0  0  0
 11 12  1  0  0  0  0
 11 13  1  0  0  0  0
 11 31  1  0  0  0  0
 12 32  1  0  0  0  0
 12 33  1  0  0  0  0
 12 34  1  0  0  0  0
 13 17  1  0  0  0  0
 13 14  1  0  0  0  0
 14 15  2  0  0  0  0
 14 35  1  0  0  0  0
 15 16  1  0  0  0  0
 15 36  1  0  0  0  0
 16 17  2  0  0  0  0
 16 37  1  0  0  0  0
M  CHG  1   3   1
M  END
> <s_m_source_file>
AV-unprocessed.smi

> <i_m_source_file_index>
658

> <i_lp_mmshare_version>
43012

> <i_f3d_flags>
0

> <s_epik_input>
bjFbY0hdW2NIXVtjSF1uMVtDQEBIXShbQ0gzXSlbQ0BIXShbQ0gzXSlbTkhdW0NIMl1bQ0gyXVtDSDJdUyg9TykoPU8pW05IMl0=

> <s_epik_cmdline>
J2VwaWtfcHl0aG9uJywgJy1waCcsICc3LjAnLCAnLXRuJywgJzgnLCAnLW1hJywgJzIwMCcsICctbWV0YWxfYmluZGluZycsICctaW1hZScsICc8aW5maWxlLm1hZT4nLCAnLW9tYWUnLCAnPG91dGZpbGUubWFlPic=

> <r_lp_tautomer_probability>
1

> <r_epik_Ionization_Penalty>
0.00535781

> <r_epik_Ionization_Penalty_Charging>
0.00511015

> <r_epik_Ionization_Penalty_Neutral>
0.000247661

> <r_epik_State_Penalty>
-0

> <r_epik_Charging_Adjusted_Penalty>
0.00511015

> <i_epik_Tot_Q>
1

> <i_epik_Tot_abs_Q>
1

> <r_epik_Metal_State_Penalty>
0.149106

> <b_epik_Metal_Only>
0

> <s_lp_Force_Field>
OPLS_2005

> <r_lp_Energy>
6.97458

> <b_lp_Chiralities_Consistent>
1

> <s_lp_Variant>
AV-unprocessed.smi:658-4

> <Gold.Version>
5.8.1

> <Gold.Id.Protein>
6NUR|6NUR_protein|mol2

> <Gold.PLP.Fitness>
48.3883

> <Gold.PLP.PLP>
-30.3023

> <Gold.PLP.part.hbond>
-6.0000

> <Gold.PLP.part.metal>
0.0000

> <Gold.PLP.part.buried>
-2.7752

> <Gold.PLP.part.nonpolar>
-25.1637

> <Gold.PLP.part.repulsive>
2.7807

> <Gold.PLP.ligand.clash>
0.0000

> <Gold.PLP.ligand.torsion>
0.8059

> <Gold.PLP.Chemscore.Hbond>
4.3348

> <Gold.PLP.Chemscore.CHOScore>
2.1471

> <Gold.PLP.Chemscore.Metal>
0.0000

> <Gold.Chemscore.Hbonds>
donor molecule, donor type, donor heavy atom, donor atom, acceptor molecule, acceptor atom, score
      L1  H     3    38       P1  7948  2.00
      L1  H     8    29       P1  8028  1.00
      P1  H  7989  7998       L1    10  0.34
      P1  H  8011  8017       L1    10  0.99
      L1  C    14    35       P1 10747  0.84
      L1  C    16    37       P1 10186  0.83
      L1  C    16    37       P1 10952  0.44

> <Gold.PLP.Chemscore.Internal.Correction>
0.2521

> <Gold.Rescore>
     Score         DG    S(hbond)    S(metal)    S(lipo)     H(rot)  DE(clash)    DE(int)     intcor
     12.62     -15.50       2.95        0.00      69.80       3.13       1.30       1.57       ----

> <Gold.Chemscore.Fitness>
12.6184

> <Gold.Chemscore.DG>
-15.4958

> <Gold.Chemscore.ZeroCoef>
-5.4800

> <Gold.Chemscore.Hbond>
2.9535

> <Gold.Chemscore.Metal>
0.0000

> <Gold.Chemscore.Lipo>
69.8034

> <Gold.Chemscore.Internal_Hbond>
0.0000

> <Gold.Chemscore.DEClash>
1.3046

> <Gold.Chemscore.DEInternal>
1.5728

> <Gold.Chemscore.Rot>
3.1312

> <Gold.Chemscore.Internal.Correction>
   9.000000E+99

> <Gold.Chemscore.Hbonds>
donor molecule, donor type, donor heavy atom, donor atom, acceptor molecule, acceptor atom, score
      L1  H     3    38       P1  7948  1.00
      L1  H     8    29       P1  8028  0.85
      P1  H  7989  7998       L1    10  0.33
      P1  H  8011  8017       L1    10  0.53

> <Gold.Chemscore.Hbond.Weighted>
-9.8648

> <Gold.Chemscore.Metal.Weighted>
-0.0000

> <Gold.Chemscore.Lipo.Weighted>
-8.1670

> <Gold.Chemscore.Internal_Hbond.Weighted>
0.0000

> <Gold.Chemscore.DEClash.Weighted>
1.3046

> <Gold.Chemscore.DEInternal.Weighted>
1.5728

> <Gold.Chemscore.Rot.Weighted>
8.0160

> <Gold.Chemscore.Internal.Correction.Weighted>
   9.000000E+99

> <Gold.Protein.RotatedTorsions>
[ 6907 6896 6895 6894 ] final   78.51 input  -60.11 | X-H torsion
[ 7974 7965 7964 7962 ] final   36.11 input  175.53 | X-H torsion
[ 8008 7997 7996 7995 ] final  -54.49 input   59.86 | X-H torsion
[ 10167 10162 10161 10158 ] final -108.77 input  -65.29 | X-H torsion
[ 10718 10713 10712 10709 ] final -139.36 input   66.30 | X-H torsion
[ 10763 10752 10751 10750 ] final  121.31 input  -60.55 | X-H torsion
[ 11005 11000 10999 10996 ] final  -35.48 input  -57.11 | X-H torsion

> <Gold.Protein.ActiveResidues>
 VAL166  LYS551  ARG553  GLY616  TRP617  ASP618  TYR619  PRO620  LYS621  CYS622 
 ASP623  PHE694  ASN695  SER759  ASP760  ASP761  ALA762  ILE779  LEU786  VAL792 
 PHE793  MET794  SER795  GLU796  ALA797  LYS798  CYS799  TRP800  GLU811  SER814 

> <Gold.Protein.RotatedAtoms>
  152.5162  134.3653  159.9298 H   0  0  0  0  0  0  0  0  0  0  0  0  # atno 6907 bound_to 6896
  151.3606  133.3885  159.2697 H   0  0  0  0  0  0  0  0  0  0  0  0  # atno 6908 bound_to 6896
  150.9655  134.9055  159.7815 H   0  0  0  0  0  0  0  0  0  0  0  0  # atno 6909 bound_to 6896
  146.1235  139.6059  142.9274 H   0  0  0  0  0  0  0  0  0  0  0  0  # atno 7974 bound_to 7965
  154.4164  140.1175  156.5324 H   0  0  0  0  0  0  0  0  0  0  0  0  # atno 8008 bound_to 7997
  155.6591  140.3496  155.4757 H   0  0  0  0  0  0  0  0  0  0  0  0  # atno 8009 bound_to 7997
  155.9728  140.1145  157.0787 H   0  0  0  0  0  0  0  0  0  0  0  0  # atno 8010 bound_to 7997
  140.1626  143.4108  152.1414 H   0  0  0  0  0  0  0  0  0  0  0  0  # atno 10167 bound_to 10162
  156.3099  130.7476  151.1549 H   0  0  0  0  0  0  0  0  0  0  0  0  # atno 10718 bound_to 10713
  153.6122  135.3428  155.2982 H   0  0  0  0  0  0  0  0  0  0  0  0  # atno 10763 bound_to 10752
  154.8616  135.4253  154.2298 H   0  0  0  0  0  0  0  0  0  0  0  0  # atno 10764 bound_to 10752
  153.3151  135.7034  153.7153 H   0  0  0  0  0  0  0  0  0  0  0  0  # atno 10765 bound_to 10752
  140.9799  133.7062  156.1667 H   0  0  0  0  0  0  0  0  0  0  0  0  # atno 11005 bound_to 11000
  145.5415  141.0420  143.2328 LP  0  0  0  0  0  0  0  0  0  0  0  0  # atno 17320 bound_to 7965
  144.7620  139.6935  143.7230 LP  0  0  0  0  0  0  0  0  0  0  0  0  # atno 17321 bound_to 7965
  139.5374  144.7223  151.4847 LP  0  0  0  0  0  0  0  0  0  0  0  0  # atno 17342 bound_to 10162
  140.6633  143.8451  150.6913 LP  0  0  0  0  0  0  0  0  0  0  0  0  # atno 17343 bound_to 10162
  157.7388  131.0536  150.5270 LP  0  0  0  0  0  0  0  0  0  0  0  0  # atno 17370 bound_to 10713
  156.5408  130.4207  149.6155 LP  0  0  0  0  0  0  0  0  0  0  0  0  # atno 17371 bound_to 10713
  140.7202  134.4367  157.5575 LP  0  0  0  0  0  0  0  0  0  0  0  0  # atno 17394 bound_to 11000
  139.8946  134.8703  156.2170 LP  0  0  0  0  0  0  0  0  0  0  0  0  # atno 17395 bound_to 11000

$$$$
