AV-unprocessed.smi:2402|AV-procd|sdf|9508|dock1
  -GOLD-   2272013133D 1   1.00000     0.00000
 Structure written by MMmdl.
 38 39  0  0  0  0  0  0  0  0  1 V2000
  152.0555  145.9047  160.4044 C   0  0  0  0  0  0  0  0  0  0  0  0
  152.0795  144.5270  159.7764 C   0  0  0  0  0  0  0  0  0  0  0  0
  152.9098  143.5123  160.2898 C   0  0  0  0  0  0  0  0  0  0  0  0
  152.8862  142.2523  159.6601 C   0  0  0  0  0  0  0  0  0  0  0  0
  153.7578  141.1170  160.1546 C   0  0  0  0  0  0  0  0  0  0  0  0
  152.1048  141.9757  158.5942 N   0  0  0  0  0  0  0  0  0  0  0  0
  151.2993  142.9448  158.0926 C   0  0  0  0  0  0  0  0  0  0  0  0
  150.4407  142.7565  156.9769 N   0  0  0  0  0  0  0  0  0  0  0  0
  150.4352  141.7421  156.0942 C   0  0  0  0  0  0  0  0  0  0  0  0
  151.1981  140.7755  156.1132 O   0  0  0  0  0  0  0  0  0  0  0  0
  149.4758  141.9056  155.1717 N   0  0  0  0  0  0  0  0  0  0  0  0
  149.1949  140.9689  154.0892 C   0  0  1  0  0  0  0  0  0  0  0  0
  149.2657  139.5497  154.5828 C   0  0  0  0  0  0  0  0  0  0  0  0
  148.1649  138.8542  154.3057 C   0  0  0  0  0  0  0  0  0  0  0  0
  147.1284  139.6668  153.5751 C   0  0  1  0  0  0  0  0  0  0  0  0
  145.7502  139.5983  154.2530 C   0  0  0  0  0  0  0  0  0  0  0  0
  145.0328  138.4753  153.7865 O   0  0  0  0  0  0  0  0  0  0  0  0
  147.7471  141.0888  153.5454 C   0  0  0  0  0  0  0  0  0  0  0  0
  151.2654  144.2371  158.6629 C   0  0  0  0  0  0  0  0  0  0  0  0
  149.9243  141.0874  153.2864 H   0  0  0  0  0  0  0  0  0  0  0  0
  147.0619  139.2683  152.5617 H   0  0  0  0  0  0  0  0  0  0  0  0
  152.8117  145.9985  161.1845 H   0  0  0  0  0  0  0  0  0  0  0  0
  151.0796  146.0991  160.8494 H   0  0  0  0  0  0  0  0  0  0  0  0
  152.2482  146.6677  159.6499 H   0  0  0  0  0  0  0  0  0  0  0  0
  153.5483  143.6949  161.1419 H   0  0  0  0  0  0  0  0  0  0  0  0
  154.3130  141.4039  161.0478 H   0  0  0  0  0  0  0  0  0  0  0  0
  154.4752  140.8291  159.3855 H   0  0  0  0  0  0  0  0  0  0  0  0
  153.1471  140.2472  160.3982 H   0  0  0  0  0  0  0  0  0  0  0  0
  149.7444  143.4740  156.8401 H   0  0  0  0  0  0  0  0  0  0  0  0
  148.8944  142.7291  155.2252 H   0  0  0  0  0  0  0  0  0  0  0  0
  150.1366  139.1583  155.0880 H   0  0  0  0  0  0  0  0  0  0  0  0
  148.0096  137.8146  154.5539 H   0  0  0  0  0  0  0  0  0  0  0  0
  145.8620  139.5104  155.3343 H   0  0  0  0  0  0  0  0  0  0  0  0
  145.1734  140.5035  154.0598 H   0  0  0  0  0  0  0  0  0  0  0  0
  144.3553  138.7732  153.1990 H   0  0  0  0  0  0  0  0  0  0  0  0
  147.1604  141.7693  154.1646 H   0  0  0  0  0  0  0  0  0  0  0  0
  147.7388  141.5018  152.5362 H   0  0  0  0  0  0  0  0  0  0  0  0
  150.6203  145.0011  158.2530 H   0  0  0  0  0  0  0  0  0  0  0  0
  1  2  1  0  0  0  0
  1 22  1  0  0  0  0
  1 23  1  0  0  0  0
  1 24  1  0  0  0  0
  2 19  1  0  0  0  0
  2  3  2  0  0  0  0
  3  4  1  0  0  0  0
  3 25  1  0  0  0  0
  4  5  1  0  0  0  0
  4  6  2  0  0  0  0
  5 26  1  0  0  0  0
  5 27  1  0  0  0  0
  5 28  1  0  0  0  0
  6  7  1  0  0  0  0
  7  8  1  0  0  0  0
  7 19  2  0  0  0  0
  8  9  1  0  0  0  0
  8 29  1  0  0  0  0
  9 10  2  0  0  0  0
  9 11  1  0  0  0  0
 11 12  1  0  0  0  0
 11 30  1  0  0  0  0
 12 20  1  0  0  0  0
 12 18  1  0  0  0  0
 12 13  1  0  0  0  0
 13 14  2  0  0  0  0
 13 31  1  0  0  0  0
 14 15  1  0  0  0  0
 14 32  1  0  0  0  0
 15 21  1  0  0  0  0
 15 16  1  0  0  0  0
 15 18  1  0  0  0  0
 16 17  1  0  0  0  0
 16 33  1  0  0  0  0
 16 34  1  0  0  0  0
 17 35  1  0  0  0  0
 18 36  1  0  0  0  0
 18 37  1  0  0  0  0
 19 38  1  0  0  0  0
M  END
> <s_m_source_file>
AV-unprocessed.smi

> <i_m_source_file_index>
2402

> <i_lp_mmshare_version>
43012

> <i_f3d_flags>
0

> <s_epik_input>
W0NIM11jMVtjSF1jKFtDSDNdKW5jKFtjSF0xKVtOSF1DKD1PKVtOSF1bQ0BASF0yW0NIXT1bQ0hdW0NAQEhdKFtDSDJdMilbQ0gyXVtPSF0=

> <s_epik_cmdline>
J2VwaWtfcHl0aG9uJywgJy1waCcsICc3LjAnLCAnLXRuJywgJzgnLCAnLW1hJywgJzIwMCcsICctbWV0YWxfYmluZGluZycsICctaW1hZScsICc8aW5maWxlLm1hZT4nLCAnLW9tYWUnLCAnPG91dGZpbGUubWFlPic=

> <r_lp_tautomer_probability>
1

> <r_epik_Ionization_Penalty>
0.000257495

> <r_epik_Ionization_Penalty_Charging>
0

> <r_epik_Ionization_Penalty_Neutral>
0.000257495

> <r_epik_State_Penalty>
-0

> <r_epik_Charging_Adjusted_Penalty>
0

> <i_epik_Tot_Q>
0

> <i_epik_Tot_abs_Q>
0

> <r_epik_Metal_State_Penalty>
-0

> <b_epik_Metal_Only>
0

> <s_lp_Force_Field>
OPLS_2005

> <r_lp_Energy>
18.3393

> <b_lp_Chiralities_Consistent>
1

> <s_lp_Variant>
AV-unprocessed.smi:2402-4

> <Gold.Version>
5.8.1

> <Gold.Id.Protein>
6NUR|6NUR_protein|mol2

> <Gold.PLP.Fitness>
45.8677

> <Gold.PLP.PLP>
-38.9677

> <Gold.PLP.part.hbond>
-3.0000

> <Gold.PLP.part.metal>
0.0000

> <Gold.PLP.part.buried>
-0.9006

> <Gold.PLP.part.nonpolar>
-35.1738

> <Gold.PLP.part.repulsive>
0.2358

> <Gold.PLP.ligand.clash>
0.0000

> <Gold.PLP.ligand.torsion>
0.6141

> <Gold.PLP.Chemscore.Hbond>
2.7040

> <Gold.PLP.Chemscore.CHOScore>
0.0000

> <Gold.PLP.Chemscore.Metal>
0.0000

> <Gold.Chemscore.Hbonds>
donor molecule, donor type, donor heavy atom, donor atom, acceptor molecule, acceptor atom, score
      L1  H     8    29       P1  8028  0.98
      L1  H    11    30       P1  8028  0.90
      L1  H    17    35       P1 10175  0.78

> <Gold.PLP.Chemscore.Internal.Correction>
0.0162

> <Gold.Rescore>
     Score         DG    S(hbond)    S(metal)    S(lipo)     H(rot)  DE(clash)    DE(int)     intcor
     17.56     -22.11       2.68        0.00     104.57       1.78       1.20       3.35       ----

> <Gold.Chemscore.Fitness>
17.5601

> <Gold.Chemscore.DG>
-22.1074

> <Gold.Chemscore.ZeroCoef>
-5.4800

> <Gold.Chemscore.Hbond>
2.6827

> <Gold.Chemscore.Metal>
0.0000

> <Gold.Chemscore.Lipo>
104.5742

> <Gold.Chemscore.Internal_Hbond>
0.0000

> <Gold.Chemscore.DEClash>
1.1983

> <Gold.Chemscore.DEInternal>
3.3490

> <Gold.Chemscore.Rot>
1.7844

> <Gold.Chemscore.Internal.Correction>
   9.000000E+99

> <Gold.Chemscore.Hbonds>
donor molecule, donor type, donor heavy atom, donor atom, acceptor molecule, acceptor atom, score
      L1  H     8    29       P1  8028  0.93
      L1  H    11    30       P1  8028  0.82
      L1  H    17    35       P1 10175  0.79

> <Gold.Chemscore.Hbond.Weighted>
-8.9603

> <Gold.Chemscore.Metal.Weighted>
-0.0000

> <Gold.Chemscore.Lipo.Weighted>
-12.2352

> <Gold.Chemscore.Internal_Hbond.Weighted>
0.0000

> <Gold.Chemscore.DEClash.Weighted>
1.1983

> <Gold.Chemscore.DEInternal.Weighted>
3.3490

> <Gold.Chemscore.Rot.Weighted>
4.5681

> <Gold.Chemscore.Internal.Correction.Weighted>
   9.000000E+99

> <Gold.Protein.RotatedTorsions>
[ 6907 6896 6895 6894 ] final -108.33 input  -60.11 | X-H torsion
[ 7974 7965 7964 7962 ] final   69.22 input  175.53 | X-H torsion
[ 8008 7997 7996 7995 ] final  150.95 input   59.86 | X-H torsion
[ 10167 10162 10161 10158 ] final   22.51 input  -65.29 | X-H torsion
[ 10718 10713 10712 10709 ] final   28.76 input   66.30 | X-H torsion
[ 10763 10752 10751 10750 ] final -111.76 input  -60.55 | X-H torsion
[ 11005 11000 10999 10996 ] final   18.26 input  -57.11 | X-H torsion

> <Gold.Protein.ActiveResidues>
 VAL166  LYS551  ARG553  GLY616  TRP617  ASP618  TYR619  PRO620  LYS621  CYS622 
 ASP623  PHE694  ASN695  SER759  ASP760  ASP761  ALA762  ILE779  LEU786  VAL792 
 PHE793  MET794  SER795  GLU796  ALA797  LYS798  CYS799  TRP800  GLU811  SER814 

> <Gold.Protein.RotatedAtoms>
  150.7495  133.9693  159.3540 H   0  0  0  0  0  0  0  0  0  0  0  0  # atno 6907 bound_to 6896
  151.7626  135.0804  160.0357 H   0  0  0  0  0  0  0  0  0  0  0  0  # atno 6908 bound_to 6896
  152.3393  133.6011  159.5901 H   0  0  0  0  0  0  0  0  0  0  0  0  # atno 6909 bound_to 6896
  145.7931  139.2944  143.1199 H   0  0  0  0  0  0  0  0  0  0  0  0  # atno 7974 bound_to 7965
  156.2695  140.2061  156.6098 H   0  0  0  0  0  0  0  0  0  0  0  0  # atno 8008 bound_to 7997
  154.6841  140.0537  157.0320 H   0  0  0  0  0  0  0  0  0  0  0  0  # atno 8009 bound_to 7997
  155.0959  140.3201  155.4563 H   0  0  0  0  0  0  0  0  0  0  0  0  # atno 8010 bound_to 7997
  140.5343  143.9788  150.6483 H   0  0  0  0  0  0  0  0  0  0  0  0  # atno 10167 bound_to 10162
  157.2376  130.7054  149.6343 H   0  0  0  0  0  0  0  0  0  0  0  0  # atno 10718 bound_to 10713
  154.8316  135.4515  154.1088 H   0  0  0  0  0  0  0  0  0  0  0  0  # atno 10763 bound_to 10752
  153.2356  135.6910  153.7846 H   0  0  0  0  0  0  0  0  0  0  0  0  # atno 10764 bound_to 10752
  153.7213  135.3341  155.3243 H   0  0  0  0  0  0  0  0  0  0  0  0  # atno 10765 bound_to 10752
  140.4268  134.1462  155.7677 H   0  0  0  0  0  0  0  0  0  0  0  0  # atno 11005 bound_to 11000
  145.9956  140.8564  143.0044 LP  0  0  0  0  0  0  0  0  0  0  0  0  # atno 17320 bound_to 7965
  144.6779  140.2279  143.7359 LP  0  0  0  0  0  0  0  0  0  0  0  0  # atno 17321 bound_to 7965
  140.3171  143.3161  152.0821 LP  0  0  0  0  0  0  0  0  0  0  0  0  # atno 17342 bound_to 10162
  139.4965  144.6598  151.6490 LP  0  0  0  0  0  0  0  0  0  0  0  0  # atno 17343 bound_to 10162
  155.9672  130.4468  150.5557 LP  0  0  0  0  0  0  0  0  0  0  0  0  # atno 17370 bound_to 10713
  157.3412  131.0717  151.1786 LP  0  0  0  0  0  0  0  0  0  0  0  0  # atno 17371 bound_to 10713
  141.1762  133.8509  157.1413 LP  0  0  0  0  0  0  0  0  0  0  0  0  # atno 17394 bound_to 11000
  140.0162  134.9966  157.0498 LP  0  0  0  0  0  0  0  0  0  0  0  0  # atno 17395 bound_to 11000

$$$$
