AV-unprocessed.smi:2109|AV-procd|sdf|8606|dock7
  -GOLD-   2272011343D 1   1.00000     0.00000
 Structure written by MMmdl.
 45 46  0  0  0  0  0  0  0  0  1 V2000
  143.8503  132.6148  148.6050 C   0  0  0  0  0  0  0  0  0  0  0  0
  144.6694  132.2043  149.8408 C   0  0  0  0  0  0  0  0  0  0  0  0
  143.7624  132.0625  151.0720 C   0  0  0  0  0  0  0  0  0  0  0  0
  145.8306  133.1803  150.1298 C   0  0  0  0  0  0  0  0  0  0  0  0
  146.8067  132.6431  151.0729 N   0  0  0  0  0  0  0  0  0  0  0  0
  147.0999  133.1810  152.2651 C   0  0  0  0  0  0  0  0  0  0  0  0
  146.5566  134.1877  152.7205 O   0  0  0  0  0  0  0  0  0  0  0  0
  148.0576  132.4929  152.9012 N   0  0  0  0  0  0  0  0  0  0  0  0
  148.5714  132.8232  154.2252 C   0  0  0  0  0  0  0  0  0  0  0  0
  149.5172  131.7682  154.7727 C   0  0  0  0  0  0  0  0  0  0  0  0
  149.6692  130.5313  154.1171 C   0  0  0  0  0  0  0  0  0  0  0  0
  150.5630  129.5924  154.6636 C   0  0  0  0  0  0  0  0  0  0  0  0
  151.2727  129.8141  155.7899 N   0  0  0  0  0  0  0  0  0  0  0  0
  151.1246  130.9965  156.4376 C   0  0  0  0  0  0  0  0  0  0  0  0
  151.8613  131.2083  157.6236 N   0  0  0  0  0  0  0  0  0  0  0  0
  151.1432  131.1390  158.8954 C   0  0  0  0  0  0  0  0  0  0  0  0
  152.1340  131.1192  160.0714 C   0  0  0  0  0  0  0  0  0  0  0  0
  152.9971  132.2484  159.9901 O   0  0  0  0  0  0  0  0  0  0  0  0
  153.7697  132.2382  158.7944 C   0  0  0  0  0  0  0  0  0  0  0  0
  152.8385  132.2935  157.5711 C   0  0  0  0  0  0  0  0  0  0  0  0
  150.2576  132.0037  155.9504 C   0  0  0  0  0  0  0  0  0  0  0  0
  143.4128  133.6057  148.7310 H   0  0  0  0  0  0  0  0  0  0  0  0
  143.0357  131.9126  148.4261 H   0  0  0  0  0  0  0  0  0  0  0  0
  144.4641  132.6323  147.7045 H   0  0  0  0  0  0  0  0  0  0  0  0
  145.0932  131.2193  149.6416 H   0  0  0  0  0  0  0  0  0  0  0  0
  143.2973  133.0134  151.3342 H   0  0  0  0  0  0  0  0  0  0  0  0
  144.3274  131.7179  151.9387 H   0  0  0  0  0  0  0  0  0  0  0  0
  142.9658  131.3399  150.8928 H   0  0  0  0  0  0  0  0  0  0  0  0
  146.3547  133.4180  149.2036 H   0  0  0  0  0  0  0  0  0  0  0  0
  145.4435  134.1264  150.5125 H   0  0  0  0  0  0  0  0  0  0  0  0
  147.3036  131.8115  150.7891 H   0  0  0  0  0  0  0  0  0  0  0  0
  148.4462  131.6785  152.4489 H   0  0  0  0  0  0  0  0  0  0  0  0
  149.1130  133.7668  154.1555 H   0  0  0  0  0  0  0  0  0  0  0  0
  147.7465  132.9932  154.9196 H   0  0  0  0  0  0  0  0  0  0  0  0
  149.1231  130.3064  153.2127 H   0  0  0  0  0  0  0  0  0  0  0  0
  150.7108  128.6357  154.1846 H   0  0  0  0  0  0  0  0  0  0  0  0
  150.4783  131.9994  158.9829 H   0  0  0  0  0  0  0  0  0  0  0  0
  150.5238  130.2417  158.9304 H   0  0  0  0  0  0  0  0  0  0  0  0
  151.5936  131.1531  161.0174 H   0  0  0  0  0  0  0  0  0  0  0  0
  152.7196  130.1985  160.0719 H   0  0  0  0  0  0  0  0  0  0  0  0
  154.4370  133.1003  158.7967 H   0  0  0  0  0  0  0  0  0  0  0  0
  154.4005  131.3482  158.7630 H   0  0  0  0  0  0  0  0  0  0  0  0
  153.4427  132.2507  156.6661 H   0  0  0  0  0  0  0  0  0  0  0  0
  152.3057  133.2451  157.5513 H   0  0  0  0  0  0  0  0  0  0  0  0
  150.1617  132.9506  156.4604 H   0  0  0  0  0  0  0  0  0  0  0  0
  1  2  1  0  0  0  0
  1 22  1  0  0  0  0
  1 23  1  0  0  0  0
  1 24  1  0  0  0  0
  2  3  1  0  0  0  0
  2  4  1  0  0  0  0
  2 25  1  0  0  0  0
  3 26  1  0  0  0  0
  3 27  1  0  0  0  0
  3 28  1  0  0  0  0
  4  5  1  0  0  0  0
  4 29  1  0  0  0  0
  4 30  1  0  0  0  0
  5  6  1  0  0  0  0
  5 31  1  0  0  0  0
  6  7  2  0  0  0  0
  6  8  1  0  0  0  0
  8  9  1  0  0  0  0
  8 32  1  0  0  0  0
  9 10  1  0  0  0  0
  9 33  1  0  0  0  0
  9 34  1  0  0  0  0
 10 21  1  0  0  0  0
 10 11  2  0  0  0  0
 11 12  1  0  0  0  0
 11 35  1  0  0  0  0
 12 13  2  0  0  0  0
 12 36  1  0  0  0  0
 13 14  1  0  0  0  0
 14 15  1  0  0  0  0
 14 21  2  0  0  0  0
 15 20  1  0  0  0  0
 15 16  1  0  0  0  0
 16 17  1  0  0  0  0
 16 37  1  0  0  0  0
 16 38  1  0  0  0  0
 17 18  1  0  0  0  0
 17 39  1  0  0  0  0
 17 40  1  0  0  0  0
 18 19  1  0  0  0  0
 19 20  1  0  0  0  0
 19 41  1  0  0  0  0
 19 42  1  0  0  0  0
 20 43  1  0  0  0  0
 20 44  1  0  0  0  0
 21 45  1  0  0  0  0
M  END
> <s_m_source_file>
AV-unprocessed.smi

> <i_m_source_file_index>
2109

> <i_lp_mmshare_version>
43012

> <i_f3d_flags>
0

> <s_epik_input>
W0NIM11bQ0hdKFtDSDNdKVtDSDJdW05IXUMoPU8pW05IXVtDSDJdYzFbY0hdW2NIXW5jKFtjSF0xKU4yW0NIMl1bQ0gyXU9bQ0gyXVtDSDJdMg==

> <s_epik_cmdline>
J2VwaWtfcHl0aG9uJywgJy1waCcsICc3LjAnLCAnLXRuJywgJzgnLCAnLW1hJywgJzIwMCcsICctbWV0YWxfYmluZGluZycsICctaW1hZScsICc8aW5maWxlLm1hZT4nLCAnLW9tYWUnLCAnPG91dGZpbGUubWFlPic=

> <r_lp_tautomer_probability>
1

> <r_epik_Ionization_Penalty>
0.012582

> <r_epik_Ionization_Penalty_Charging>
0

> <r_epik_Ionization_Penalty_Neutral>
0.012582

> <r_epik_State_Penalty>
0.00970236

> <r_epik_Charging_Adjusted_Penalty>
0.00970236

> <i_epik_Tot_Q>
0

> <i_epik_Tot_abs_Q>
0

> <r_epik_Metal_State_Penalty>
0.00950075

> <b_epik_Metal_Only>
0

> <s_lp_Force_Field>
OPLS_2005

> <r_lp_Energy>
12.0327

> <b_lp_Chiralities_Consistent>
1

> <s_lp_Variant>
AV-unprocessed.smi:2109-1

> <Gold.Version>
5.8.1

> <Gold.Id.Protein>
6NUR|6NUR_protein|mol2

> <Gold.PLP.Fitness>
44.0621

> <Gold.PLP.PLP>
-33.3941

> <Gold.PLP.part.hbond>
-3.0000

> <Gold.PLP.part.metal>
0.0000

> <Gold.PLP.part.buried>
-4.0847

> <Gold.PLP.part.nonpolar>
-25.6896

> <Gold.PLP.part.repulsive>
0.2496

> <Gold.PLP.ligand.clash>
0.0000

> <Gold.PLP.ligand.torsion>
0.3785

> <Gold.PLP.Chemscore.Hbond>
2.6940

> <Gold.PLP.Chemscore.CHOScore>
1.0000

> <Gold.PLP.Chemscore.Metal>
0.0000

> <Gold.Chemscore.Hbonds>
donor molecule, donor type, donor heavy atom, donor atom, acceptor molecule, acceptor atom, score
      L1  H     5    31       P1 10747  1.00
      L1  H     8    32       P1 10747  0.13
      P1  H  6896  6907       L1    18  0.31

> <Gold.PLP.Chemscore.Internal.Correction>
0.3429

> <Gold.Rescore>
     Score         DG    S(hbond)    S(metal)    S(lipo)     H(rot)  DE(clash)    DE(int)     intcor
     16.16     -16.79       1.81        0.00      83.71       1.77       0.25       0.38       ----

> <Gold.Chemscore.Fitness>
16.1559

> <Gold.Chemscore.DG>
-16.7905

> <Gold.Chemscore.ZeroCoef>
-5.4800

> <Gold.Chemscore.Hbond>
1.8078

> <Gold.Chemscore.Metal>
0.0000

> <Gold.Chemscore.Lipo>
83.7069

> <Gold.Chemscore.Internal_Hbond>
0.0000

> <Gold.Chemscore.DEClash>
0.2507

> <Gold.Chemscore.DEInternal>
0.3840

> <Gold.Chemscore.Rot>
1.7662

> <Gold.Chemscore.Internal.Correction>
   9.000000E+99

> <Gold.Chemscore.Hbonds>
donor molecule, donor type, donor heavy atom, donor atom, acceptor molecule, acceptor atom, score
      L1  H     5    31       P1 10747  0.93
      L1  H     8    32       P1 10747  0.14
      P1  H  6896  6907       L1    18  0.02

> <Gold.Chemscore.Hbond.Weighted>
-6.0382

> <Gold.Chemscore.Metal.Weighted>
-0.0000

> <Gold.Chemscore.Lipo.Weighted>
-9.7937

> <Gold.Chemscore.Internal_Hbond.Weighted>
0.0000

> <Gold.Chemscore.DEClash.Weighted>
0.2507

> <Gold.Chemscore.DEInternal.Weighted>
0.3840

> <Gold.Chemscore.Rot.Weighted>
4.5214

> <Gold.Chemscore.Internal.Correction.Weighted>
   9.000000E+99

> <Gold.Protein.RotatedTorsions>
[ 6907 6896 6895 6894 ] final  135.59 input  -60.11 | X-H torsion
[ 7974 7965 7964 7962 ] final   23.84 input  175.53 | X-H torsion
[ 8008 7997 7996 7995 ] final  -44.19 input   59.86 | X-H torsion
[ 10167 10162 10161 10158 ] final   25.01 input  -65.29 | X-H torsion
[ 10718 10713 10712 10709 ] final -111.13 input   66.30 | X-H torsion
[ 10763 10752 10751 10750 ] final  -95.66 input  -60.55 | X-H torsion
[ 11005 11000 10999 10996 ] final  -66.12 input  -57.11 | X-H torsion

> <Gold.Protein.ActiveResidues>
 VAL166  LYS551  ARG553  GLY616  TRP617  ASP618  TYR619  PRO620  LYS621  CYS622 
 ASP623  PHE694  ASN695  SER759  ASP760  ASP761  ALA762  ILE779  LEU786  VAL792 
 PHE793  MET794  SER795  GLU796  ALA797  LYS798  CYS799  TRP800  GLU811  SER814 

> <Gold.Protein.RotatedAtoms>
  152.2987  133.5634  159.5604 H   0  0  0  0  0  0  0  0  0  0  0  0  # atno 6907 bound_to 6896
  150.7268  134.0323  159.3746 H   0  0  0  0  0  0  0  0  0  0  0  0  # atno 6908 bound_to 6896
  151.8224  135.0648  160.0477 H   0  0  0  0  0  0  0  0  0  0  0  0  # atno 6909 bound_to 6896
  146.1965  139.7687  142.8793 H   0  0  0  0  0  0  0  0  0  0  0  0  # atno 7974 bound_to 7965
  154.3997  140.1428  156.3642 H   0  0  0  0  0  0  0  0  0  0  0  0  # atno 8008 bound_to 7997
  155.8153  140.3471  155.5461 H   0  0  0  0  0  0  0  0  0  0  0  0  # atno 8009 bound_to 7997
  155.8344  140.0917  157.1763 H   0  0  0  0  0  0  0  0  0  0  0  0  # atno 8010 bound_to 7997
  140.5141  144.0111  150.6386 H   0  0  0  0  0  0  0  0  0  0  0  0  # atno 10167 bound_to 10162
  156.0630  130.5851  150.8332 H   0  0  0  0  0  0  0  0  0  0  0  0  # atno 10718 bound_to 10713
  154.7168  135.5112  153.8750 H   0  0  0  0  0  0  0  0  0  0  0  0  # atno 10763 bound_to 10752
  153.0827  135.6636  154.0020 H   0  0  0  0  0  0  0  0  0  0  0  0  # atno 10764 bound_to 10752
  153.9851  135.3025  155.3396 H   0  0  0  0  0  0  0  0  0  0  0  0  # atno 10765 bound_to 10752
  141.1473  133.6693  156.6090 H   0  0  0  0  0  0  0  0  0  0  0  0  # atno 11005 bound_to 11000
  145.3625  141.0328  143.3277 LP  0  0  0  0  0  0  0  0  0  0  0  0  # atno 17320 bound_to 7965
  144.8592  139.5203  143.6820 LP  0  0  0  0  0  0  0  0  0  0  0  0  # atno 17321 bound_to 7965
  140.3442  143.3001  152.0556 LP  0  0  0  0  0  0  0  0  0  0  0  0  # atno 17342 bound_to 10162
  139.4904  144.6421  151.6856 LP  0  0  0  0  0  0  0  0  0  0  0  0  # atno 17343 bound_to 10162
  157.5651  131.0946  150.9501 LP  0  0  0  0  0  0  0  0  0  0  0  0  # atno 17370 bound_to 10713
  156.9730  130.5498  149.5291 LP  0  0  0  0  0  0  0  0  0  0  0  0  # atno 17371 bound_to 10713
  140.3629  134.7672  157.4546 LP  0  0  0  0  0  0  0  0  0  0  0  0  # atno 17394 bound_to 11000
  140.0771  134.5783  155.8580 LP  0  0  0  0  0  0  0  0  0  0  0  0  # atno 17395 bound_to 11000

$$$$
