AV-unprocessed.smi:1642|AV-procd|sdf|6570|dock10
  -GOLD-   22720 7253D 1   1.00000     0.00000
 Structure written by MMmdl.
 35 36  0  0  0  0  0  0  0  0  2 V2000
  151.7631  140.4749  158.1338 C   0  0  0  0  0  0  0  0  0  0  0  0
  151.3021  140.2300  156.7376 C   0  0  0  0  0  0  0  0  0  0  0  0
  152.1313  140.2473  155.6869 N   0  0  0  0  0  0  0  0  0  0  0  0
  151.4729  139.9908  154.4927 N   0  0  0  0  0  0  0  0  0  0  0  0
  150.1617  139.7856  154.6788 C   0  0  0  0  0  0  0  0  0  0  0  0
  149.2504  139.5018  153.6267 N   0  0  0  0  0  0  0  0  0  0  0  0
  147.9573  139.1444  153.7199 C   0  0  0  0  0  0  0  0  0  0  0  0
  147.3306  138.9992  154.7697 O   0  0  0  0  0  0  0  0  0  0  0  0
  147.4127  138.9582  152.5098 N   0  0  0  0  0  0  0  0  0  0  0  0
  146.0271  138.5641  152.2939 C   0  0  0  0  0  0  0  0  0  0  0  0
  145.7103  137.2529  153.0288 C   0  0  0  0  0  0  0  0  0  0  0  0
  146.1193  136.0671  152.2405 N   0  3  0  0  0  0  0  0  0  0  0  0
  146.1594  134.7889  152.9923 C   0  0  0  0  0  0  0  0  0  0  0  0
  145.5588  133.7131  152.0764 C   0  0  0  0  0  0  0  0  0  0  0  0
  145.5095  134.3629  150.6972 C   0  0  0  0  0  0  0  0  0  0  0  0
  145.3132  135.8390  151.0248 C   0  0  0  0  0  0  0  0  0  0  0  0
  149.6209  139.8891  156.3456 S   0  0  0  0  0  0  0  0  0  0  0  0
  152.7383  140.9630  158.1359 H   0  0  0  0  0  0  0  0  0  0  0  0
  151.8430  139.5293  158.6699 H   0  0  0  0  0  0  0  0  0  0  0  0
  151.0524  141.1155  158.6560 H   0  0  0  0  0  0  0  0  0  0  0  0
  149.6300  139.5797  152.6948 H   0  0  0  0  0  0  0  0  0  0  0  0
  147.9901  139.0972  151.6933 H   0  0  0  0  0  0  0  0  0  0  0  0
  145.3672  139.3585  152.6467 H   0  0  0  0  0  0  0  0  0  0  0  0
  145.8548  138.4546  151.2221 H   0  0  0  0  0  0  0  0  0  0  0  0
  146.1933  137.2307  154.0072 H   0  0  0  0  0  0  0  0  0  0  0  0
  144.6353  137.1973  153.2076 H   0  0  0  0  0  0  0  0  0  0  0  0
  147.1959  134.5603  153.2427 H   0  0  0  0  0  0  0  0  0  0  0  0
  145.5985  134.8451  153.9267 H   0  0  0  0  0  0  0  0  0  0  0  0
  146.1331  132.7862  152.0824 H   0  0  0  0  0  0  0  0  0  0  0  0
  144.5457  133.4768  152.4047 H   0  0  0  0  0  0  0  0  0  0  0  0
  146.4615  134.2192  150.1840 H   0  0  0  0  0  0  0  0  0  0  0  0
  144.7192  133.9586  150.0640 H   0  0  0  0  0  0  0  0  0  0  0  0
  144.2597  136.0301  151.2382 H   0  0  0  0  0  0  0  0  0  0  0  0
  145.6186  136.4948  150.2089 H   0  0  0  0  0  0  0  0  0  0  0  0
  147.0617  136.2334  151.9168 H   0  0  0  0  0  0  0  0  0  0  0  0
  1  2  1  0  0  0  0
  1 18  1  0  0  0  0
  1 19  1  0  0  0  0
  1 20  1  0  0  0  0
  2 17  1  0  0  0  0
  2  3  2  0  0  0  0
  3  4  1  0  0  0  0
  4  5  2  0  0  0  0
  5  6  1  0  0  0  0
  5 17  1  0  0  0  0
  6  7  1  0  0  0  0
  6 21  1  0  0  0  0
  7  8  2  0  0  0  0
  7  9  1  0  0  0  0
  9 10  1  0  0  0  0
  9 22  1  0  0  0  0
 10 11  1  0  0  0  0
 10 23  1  0  0  0  0
 10 24  1  0  0  0  0
 11 12  1  0  0  0  0
 11 25  1  0  0  0  0
 11 26  1  0  0  0  0
 12 16  1  0  0  0  0
 12 13  1  0  0  0  0
 12 35  1  0  0  0  0
 13 14  1  0  0  0  0
 13 27  1  0  0  0  0
 13 28  1  0  0  0  0
 14 15  1  0  0  0  0
 14 29  1  0  0  0  0
 14 30  1  0  0  0  0
 15 16  1  0  0  0  0
 15 31  1  0  0  0  0
 15 32  1  0  0  0  0
 16 33  1  0  0  0  0
 16 34  1  0  0  0  0
M  CHG  1  12   1
M  END
> <s_m_source_file>
AV-unprocessed.smi

> <i_m_source_file_index>
1642

> <i_lp_mmshare_version>
43012

> <i_f3d_flags>
0

> <s_epik_input>
W0NIM11jMW5uYyhzMSlbTkhdQyg9TylbTkhdW0NIMl1bQ0gyXU4yW0NIMl1bQ0gyXVtDSDJdW0NIMl0y

> <s_epik_cmdline>
J2VwaWtfcHl0aG9uJywgJy1waCcsICc3LjAnLCAnLXRuJywgJzgnLCAnLW1hJywgJzIwMCcsICctbWV0YWxfYmluZGluZycsICctaW1hZScsICc8aW5maWxlLm1hZT4nLCAnLW9tYWUnLCAnPG91dGZpbGUubWFlPic=

> <r_lp_tautomer_probability>
1

> <r_epik_Ionization_Penalty>
0.00661496

> <r_epik_Ionization_Penalty_Charging>
0.0023443

> <r_epik_Ionization_Penalty_Neutral>
0.00427066

> <r_epik_State_Penalty>
0.00184107

> <r_epik_Charging_Adjusted_Penalty>
0.00418537

> <i_epik_Tot_Q>
1

> <i_epik_Tot_abs_Q>
1

> <r_epik_Metal_State_Penalty>
0.375387

> <b_epik_Metal_Only>
0

> <s_lp_Force_Field>
OPLS_2005

> <r_lp_Energy>
26.1101

> <b_lp_Chiralities_Consistent>
1

> <s_lp_Variant>
AV-unprocessed.smi:1642-1

> <Gold.Version>
5.8.1

> <Gold.Id.Protein>
6NUR|6NUR_protein|mol2

> <Gold.PLP.Fitness>
43.9299

> <Gold.PLP.PLP>
-26.5871

> <Gold.PLP.part.hbond>
-6.0000

> <Gold.PLP.part.metal>
0.0000

> <Gold.PLP.part.buried>
-3.5007

> <Gold.PLP.part.nonpolar>
-17.4162

> <Gold.PLP.part.repulsive>
0.3083

> <Gold.PLP.ligand.clash>
0.0000

> <Gold.PLP.ligand.torsion>
0.2156

> <Gold.PLP.Chemscore.Hbond>
5.9200

> <Gold.PLP.Chemscore.CHOScore>
0.0000

> <Gold.PLP.Chemscore.Metal>
0.0000

> <Gold.Chemscore.Hbonds>
donor molecule, donor type, donor heavy atom, donor atom, acceptor molecule, acceptor atom, score
      L1  H     6    21       P1  7957  1.00
      L1  H     9    22       P1  7957  0.83
      L1  H    12    35       P1  7948  2.00
      P1  H  7989  7998       L1     4  0.50
      P1  H  7997  8008       L1     3  0.39

> <Gold.PLP.Chemscore.Internal.Correction>
0.0140

> <Gold.Rescore>
     Score         DG    S(hbond)    S(metal)    S(lipo)     H(rot)  DE(clash)    DE(int)     intcor
     17.82     -21.76       4.49        0.00      46.51       1.63       1.47       2.47       ----

> <Gold.Chemscore.Fitness>
17.8200

> <Gold.Chemscore.DG>
-21.7615

> <Gold.Chemscore.ZeroCoef>
-5.4800

> <Gold.Chemscore.Hbond>
4.4946

> <Gold.Chemscore.Metal>
0.0000

> <Gold.Chemscore.Lipo>
46.5085

> <Gold.Chemscore.Internal_Hbond>
0.0000

> <Gold.Chemscore.DEClash>
1.4676

> <Gold.Chemscore.DEInternal>
2.4739

> <Gold.Chemscore.Rot>
1.6297

> <Gold.Chemscore.Internal.Correction>
   9.000000E+99

> <Gold.Chemscore.Hbonds>
donor molecule, donor type, donor heavy atom, donor atom, acceptor molecule, acceptor atom, score
      L1  H     6    21       P1  7957  0.97
      L1  H     9    22       P1  7957  0.78
      L1  H    12    35       P1  7948  1.00
      P1  H  7989  7998       L1     4  0.35
      P1  H  7997  8008       L1     3  0.35

> <Gold.Chemscore.Hbond.Weighted>
-15.0120

> <Gold.Chemscore.Metal.Weighted>
-0.0000

> <Gold.Chemscore.Lipo.Weighted>
-5.4415

> <Gold.Chemscore.Internal_Hbond.Weighted>
0.0000

> <Gold.Chemscore.DEClash.Weighted>
1.4676

> <Gold.Chemscore.DEInternal.Weighted>
2.4739

> <Gold.Chemscore.Rot.Weighted>
4.1720

> <Gold.Chemscore.Internal.Correction.Weighted>
   9.000000E+99

> <Gold.Protein.RotatedTorsions>
[ 6907 6896 6895 6894 ] final -156.68 input  -60.11 | X-H torsion
[ 7974 7965 7964 7962 ] final   32.89 input  175.53 | X-H torsion
[ 8008 7997 7996 7995 ] final  -36.01 input   59.86 | X-H torsion
[ 10167 10162 10161 10158 ] final  126.07 input  -65.29 | X-H torsion
[ 10718 10713 10712 10709 ] final   48.76 input   66.30 | X-H torsion
[ 10763 10752 10751 10750 ] final -174.50 input  -60.55 | X-H torsion
[ 11005 11000 10999 10996 ] final   91.53 input  -57.11 | X-H torsion

> <Gold.Protein.ActiveResidues>
 VAL166  LYS551  ARG553  GLY616  TRP617  ASP618  TYR619  PRO620  LYS621  CYS622 
 ASP623  PHE694  ASN695  SER759  ASP760  ASP761  ALA762  ILE779  LEU786  VAL792 
 PHE793  MET794  SER795  GLU796  ALA797  LYS798  CYS799  TRP800  GLU811  SER814 

> <Gold.Protein.RotatedAtoms>
  151.2912  133.4164  159.2633 H   0  0  0  0  0  0  0  0  0  0  0  0  # atno 6907 bound_to 6896
  151.0275  134.9515  159.8103 H   0  0  0  0  0  0  0  0  0  0  0  0  # atno 6908 bound_to 6896
  152.5338  134.2874  159.9083 H   0  0  0  0  0  0  0  0  0  0  0  0  # atno 6909 bound_to 6896
  146.1457  139.6467  142.9133 H   0  0  0  0  0  0  0  0  0  0  0  0  # atno 7974 bound_to 7965
  154.4082  140.1642  156.2305 H   0  0  0  0  0  0  0  0  0  0  0  0  # atno 8008 bound_to 7997
  155.9287  140.3416  155.6208 H   0  0  0  0  0  0  0  0  0  0  0  0  # atno 8009 bound_to 7997
  155.7133  140.0759  157.2352 H   0  0  0  0  0  0  0  0  0  0  0  0  # atno 8010 bound_to 7997
  139.5651  144.6906  151.3934 H   0  0  0  0  0  0  0  0  0  0  0  0  # atno 10167 bound_to 10162
  157.4719  130.8261  149.7997 H   0  0  0  0  0  0  0  0  0  0  0  0  # atno 10718 bound_to 10713
  154.5954  135.2849  155.0591 H   0  0  0  0  0  0  0  0  0  0  0  0  # atno 10763 bound_to 10752
  154.1876  135.6446  153.5055 H   0  0  0  0  0  0  0  0  0  0  0  0  # atno 10764 bound_to 10752
  153.0137  135.5438  154.6655 H   0  0  0  0  0  0  0  0  0  0  0  0  # atno 10765 bound_to 10752
  139.8837  134.8679  156.3441 H   0  0  0  0  0  0  0  0  0  0  0  0  # atno 11005 bound_to 11000
  145.4944  141.0438  143.2575 LP  0  0  0  0  0  0  0  0  0  0  0  0  # atno 17320 bound_to 7965
  144.7843  139.6459  143.7141 LP  0  0  0  0  0  0  0  0  0  0  0  0  # atno 17321 bound_to 7965
  140.6933  143.7808  150.7289 LP  0  0  0  0  0  0  0  0  0  0  0  0  # atno 17342 bound_to 10162
  140.1297  143.4537  152.2262 LP  0  0  0  0  0  0  0  0  0  0  0  0  # atno 17343 bound_to 10162
  156.0078  130.3847  150.2371 LP  0  0  0  0  0  0  0  0  0  0  0  0  # atno 17370 bound_to 10713
  157.0553  131.0074  151.3240 LP  0  0  0  0  0  0  0  0  0  0  0  0  # atno 17371 bound_to 10713
  140.9638  133.7371  156.0439 LP  0  0  0  0  0  0  0  0  0  0  0  0  # atno 17394 bound_to 11000
  140.7956  134.3568  157.5453 LP  0  0  0  0  0  0  0  0  0  0  0  0  # atno 17395 bound_to 11000

$$$$
