AV-unprocessed.smi:3263|AV-procd|sdf|12486|dock9
  -GOLD-   2272018383D 1   1.00000     0.00000
 Structure written by MMmdl.
 41 43  0  0  0  0  0  0  0  0  1 V2000
  147.2302  143.6490  161.2531 O   0  0  0  0  0  0  0  0  0  0  0  0
  147.6805  144.4988  160.4850 C   0  0  0  0  0  0  0  0  0  0  0  0
  149.0889  145.0601  160.6987 C   0  0  0  0  0  0  0  0  0  0  0  0
  150.0189  144.8263  159.4867 C   0  0  2  0  0  0  0  0  0  0  0  0
  150.2158  143.3391  159.1217 C   0  0  0  0  0  0  0  0  0  0  0  0
  151.7476  143.2081  159.0208 C   0  0  2  0  0  0  0  0  0  0  0  0
  152.3524  143.2407  160.4366 C   0  0  0  0  0  0  0  0  0  0  0  0
  152.1879  144.7173  160.8401 C   0  0  0  0  0  0  0  0  0  0  0  0
  151.4793  145.3300  159.6144 C   0  0  1  0  0  0  0  0  0  0  0  0
  152.1528  144.5727  158.4748 C   0  0  0  0  0  0  0  0  0  0  0  0
  147.0028  144.9723  159.4284 N   0  0  0  0  0  0  0  0  0  0  0  0
  145.6818  144.5187  159.0108 C   0  0  0  0  0  0  0  0  0  0  0  0
  144.6204  145.6112  159.2253 C   0  0  0  0  0  0  0  0  0  0  0  0
  144.9169  146.8666  158.4275 C   0  0  0  0  0  0  0  0  0  0  0  0
  145.1205  148.1029  159.0772 C   0  0  0  0  0  0  0  0  0  0  0  0
  145.3875  149.2389  158.2887 C   0  0  0  0  0  0  0  0  0  0  0  0
  145.4404  149.0958  156.8887 C   0  0  0  0  0  0  0  0  0  0  0  0
  145.2224  147.8177  156.3370 C   0  0  0  0  0  0  0  0  0  0  0  0
  144.9656  146.7222  157.0839 N   0  0  0  0  0  0  0  0  0  0  0  0
  149.0339  146.1221  160.9411 H   0  0  0  0  0  0  0  0  0  0  0  0
  149.5142  144.5764  161.5783 H   0  0  0  0  0  0  0  0  0  0  0  0
  149.5719  145.3237  158.6237 H   0  0  0  0  0  0  0  0  0  0  0  0
  149.7987  142.6581  159.8646 H   0  0  0  0  0  0  0  0  0  0  0  0
  149.7404  143.1148  158.1661 H   0  0  0  0  0  0  0  0  0  0  0  0
  152.0755  142.3557  158.4253 H   0  0  0  0  0  0  0  0  0  0  0  0
  151.8416  142.5625  161.1211 H   0  0  0  0  0  0  0  0  0  0  0  0
  153.4075  142.9650  160.4169 H   0  0  0  0  0  0  0  0  0  0  0  0
  151.6328  144.8422  161.7690 H   0  0  0  0  0  0  0  0  0  0  0  0
  153.1649  145.1804  160.9839 H   0  0  0  0  0  0  0  0  0  0  0  0
  151.5754  146.4147  159.5526 H   0  0  0  0  0  0  0  0  0  0  0  0
  153.2336  144.7199  158.4347 H   0  0  0  0  0  0  0  0  0  0  0  0
  151.7262  144.7910  157.4941 H   0  0  0  0  0  0  0  0  0  0  0  0
  147.4477  145.6736  158.8541 H   0  0  0  0  0  0  0  0  0  0  0  0
  145.7065  144.2042  157.9660 H   0  0  0  0  0  0  0  0  0  0  0  0
  145.4266  143.6346  159.5959 H   0  0  0  0  0  0  0  0  0  0  0  0
  143.6364  145.2324  158.9455 H   0  0  0  0  0  0  0  0  0  0  0  0
  144.5566  145.8761  160.2819 H   0  0  0  0  0  0  0  0  0  0  0  0
  145.0733  148.1813  160.1536 H   0  0  0  0  0  0  0  0  0  0  0  0
  145.5484  150.2025  158.7492 H   0  0  0  0  0  0  0  0  0  0  0  0
  145.6428  149.9449  156.2528 H   0  0  0  0  0  0  0  0  0  0  0  0
  145.2545  147.6714  155.2673 H   0  0  0  0  0  0  0  0  0  0  0  0
  1  2  2  0  0  0  0
  2  3  1  0  0  0  0
  2 11  1  0  0  0  0
  3  4  1  0  0  0  0
  3 20  1  0  0  0  0
  3 21  1  0  0  0  0
  4  9  1  0  0  0  0
  4  5  1  0  0  0  0
  4 22  1  0  0  0  0
  5  6  1  0  0  0  0
  5 23  1  0  0  0  0
  5 24  1  0  0  0  0
  6 10  1  0  0  0  0
  6  7  1  0  0  0  0
  6 25  1  0  0  0  0
  7  8  1  0  0  0  0
  7 26  1  0  0  0  0
  7 27  1  0  0  0  0
  8  9  1  0  0  0  0
  8 28  1  0  0  0  0
  8 29  1  0  0  0  0
  9 10  1  0  0  0  0
  9 30  1  0  0  0  0
 10 31  1  0  0  0  0
 10 32  1  0  0  0  0
 11 12  1  0  0  0  0
 11 33  1  0  0  0  0
 12 13  1  0  0  0  0
 12 34  1  0  0  0  0
 12 35  1  0  0  0  0
 13 14  1  0  0  0  0
 13 36  1  0  0  0  0
 13 37  1  0  0  0  0
 14 19  1  0  0  0  0
 14 15  2  0  0  0  0
 15 16  1  0  0  0  0
 15 38  1  0  0  0  0
 16 17  2  0  0  0  0
 16 39  1  0  0  0  0
 17 18  1  0  0  0  0
 17 40  1  0  0  0  0
 18 19  2  0  0  0  0
 18 41  1  0  0  0  0
M  END
> <s_m_source_file>
AV-unprocessed.smi

> <i_m_source_file_index>
3263

> <i_lp_mmshare_version>
43012

> <i_f3d_flags>
0

> <s_epik_input>
W0NIMl0xW0NIMl1bQ0BASF0oW0NIMl0yKVtDQEBIXShbQ0gyXVtDQEhdMTIpW0NIMl1DKD1PKVtOSF1bQ0gyXVtDSDJdYzNbY0hdW2NIXVtjSF1bY0hdbjM=

> <s_epik_cmdline>
J2VwaWtfcHl0aG9uJywgJy1waCcsICc3LjAnLCAnLXRuJywgJzgnLCAnLW1hJywgJzIwMCcsICctbWV0YWxfYmluZGluZycsICctaW1hZScsICc8aW5maWxlLm1hZT4nLCAnLW9tYWUnLCAnPG91dGZpbGUubWFlPic=

> <r_epik_Ionization_Penalty>
0.0273541

> <r_epik_Ionization_Penalty_Charging>
0

> <r_epik_Ionization_Penalty_Neutral>
0.0273541

> <r_epik_State_Penalty>
0.0223838

> <r_epik_Charging_Adjusted_Penalty>
0.0223838

> <i_epik_Tot_Q>
0

> <i_epik_Tot_abs_Q>
0

> <r_epik_Metal_State_Penalty>
0.0213927

> <b_epik_Metal_Only>
0

> <s_lp_Force_Field>
OPLS_2005

> <r_lp_Energy>
46.2802

> <b_lp_Chiralities_Consistent>
1

> <s_lp_Variant>
AV-unprocessed.smi:3263-1

> <Gold.Version>
5.8.1

> <Gold.Id.Protein>
6NUR|6NUR_protein|mol2

> <Gold.PLP.Fitness>
54.6064

> <Gold.PLP.PLP>
-50.1761

> <Gold.PLP.part.hbond>
-2.0000

> <Gold.PLP.part.metal>
0.0000

> <Gold.PLP.part.buried>
-8.6625

> <Gold.PLP.part.nonpolar>
-39.9087

> <Gold.PLP.part.repulsive>
0.2627

> <Gold.PLP.ligand.clash>
0.0000

> <Gold.PLP.ligand.torsion>
0.0375

> <Gold.PLP.Chemscore.Hbond>
1.4960

> <Gold.PLP.Chemscore.CHOScore>
0.0000

> <Gold.PLP.Chemscore.Metal>
0.0000

> <Gold.Chemscore.Hbonds>
donor molecule, donor type, donor heavy atom, donor atom, acceptor molecule, acceptor atom, score
      L1  H    11    33       P1  8029  0.82
      P1  H  6933  6944       L1     1  1.00

> <Gold.PLP.Chemscore.Internal.Correction>
0.0172

> <Gold.Rescore>
     Score         DG    S(hbond)    S(metal)    S(lipo)     H(rot)  DE(clash)    DE(int)     intcor
     22.48     -23.09       1.79        0.00     131.20       1.46       0.52       0.08       ----

> <Gold.Chemscore.Fitness>
22.4813

> <Gold.Chemscore.DG>
-23.0877

> <Gold.Chemscore.ZeroCoef>
-5.4800

> <Gold.Chemscore.Hbond>
1.7915

> <Gold.Chemscore.Metal>
0.0000

> <Gold.Chemscore.Lipo>
131.1967

> <Gold.Chemscore.Internal_Hbond>
0.0000

> <Gold.Chemscore.DEClash>
0.5248

> <Gold.Chemscore.DEInternal>
0.0815

> <Gold.Chemscore.Rot>
1.4555

> <Gold.Chemscore.Internal.Correction>
   9.000000E+99

> <Gold.Chemscore.Hbonds>
donor molecule, donor type, donor heavy atom, donor atom, acceptor molecule, acceptor atom, score
      L1  H    11    33       P1  8029  0.81
      P1  H  6933  6944       L1     1  0.65

> <Gold.Chemscore.Hbond.Weighted>
-5.9837

> <Gold.Chemscore.Metal.Weighted>
-0.0000

> <Gold.Chemscore.Lipo.Weighted>
-15.3500

> <Gold.Chemscore.Internal_Hbond.Weighted>
0.0000

> <Gold.Chemscore.DEClash.Weighted>
0.5248

> <Gold.Chemscore.DEInternal.Weighted>
0.0815

> <Gold.Chemscore.Rot.Weighted>
3.7260

> <Gold.Chemscore.Internal.Correction.Weighted>
   9.000000E+99

> <Gold.Protein.RotatedTorsions>
[ 6907 6896 6895 6894 ] final -177.68 input  -60.11 | X-H torsion
[ 7974 7965 7964 7962 ] final   62.48 input  175.53 | X-H torsion
[ 8008 7997 7996 7995 ] final   20.79 input   59.86 | X-H torsion
[ 10167 10162 10161 10158 ] final  128.51 input  -65.29 | X-H torsion
[ 10718 10713 10712 10709 ] final  -66.81 input   66.30 | X-H torsion
[ 10763 10752 10751 10750 ] final  159.80 input  -60.55 | X-H torsion
[ 11005 11000 10999 10996 ] final -146.11 input  -57.11 | X-H torsion

> <Gold.Protein.ActiveResidues>
 VAL166  LYS551  ARG553  GLY616  TRP617  ASP618  TYR619  PRO620  LYS621  CYS622 
 ASP623  PHE694  ASN695  SER759  ASP760  ASP761  ALA762  ILE779  LEU786  VAL792 
 PHE793  MET794  SER795  GLU796  ALA797  LYS798  CYS799  TRP800  GLU811  SER814 

> <Gold.Protein.RotatedAtoms>
  151.6250  133.3336  159.3095 H   0  0  0  0  0  0  0  0  0  0  0  0  # atno 6907 bound_to 6896
  150.8086  134.7231  159.6679 H   0  0  0  0  0  0  0  0  0  0  0  0  # atno 6908 bound_to 6896
  152.4182  134.6007  160.0051 H   0  0  0  0  0  0  0  0  0  0  0  0  # atno 6909 bound_to 6896
  145.8729  139.3390  143.0752 H   0  0  0  0  0  0  0  0  0  0  0  0  # atno 7974 bound_to 7965
  154.9409  140.3053  155.5121 H   0  0  0  0  0  0  0  0  0  0  0  0  # atno 8008 bound_to 7997
  156.2996  140.2336  156.4415 H   0  0  0  0  0  0  0  0  0  0  0  0  # atno 8009 bound_to 7997
  154.8146  140.0426  157.1356 H   0  0  0  0  0  0  0  0  0  0  0  0  # atno 8010 bound_to 7997
  139.5524  144.6823  151.4284 H   0  0  0  0  0  0  0  0  0  0  0  0  # atno 10167 bound_to 10162
  156.0591  130.4268  150.1763 H   0  0  0  0  0  0  0  0  0  0  0  0  # atno 10718 bound_to 10713
  154.2374  135.2776  155.2867 H   0  0  0  0  0  0  0  0  0  0  0  0  # atno 10763 bound_to 10752
  154.5574  135.5657  153.6979 H   0  0  0  0  0  0  0  0  0  0  0  0  # atno 10764 bound_to 10752
  153.0007  135.6289  154.2517 H   0  0  0  0  0  0  0  0  0  0  0  0  # atno 10765 bound_to 10752
  140.7853  134.3031  157.5032 H   0  0  0  0  0  0  0  0  0  0  0  0  # atno 11005 bound_to 11000
  145.9116  140.9176  143.0451 LP  0  0  0  0  0  0  0  0  0  0  0  0  # atno 17320 bound_to 7965
  144.6726  140.1167  143.7452 LP  0  0  0  0  0  0  0  0  0  0  0  0  # atno 17321 bound_to 7965
  140.6789  143.8126  150.7095 LP  0  0  0  0  0  0  0  0  0  0  0  0  # atno 17342 bound_to 10162
  140.1574  143.4305  152.2090 LP  0  0  0  0  0  0  0  0  0  0  0  0  # atno 17343 bound_to 10162
  156.9835  130.9871  151.3432 LP  0  0  0  0  0  0  0  0  0  0  0  0  # atno 17370 bound_to 10713
  157.5586  130.8230  149.8237 LP  0  0  0  0  0  0  0  0  0  0  0  0  # atno 17371 bound_to 10713
  139.8737  134.9343  156.3603 LP  0  0  0  0  0  0  0  0  0  0  0  0  # atno 17394 bound_to 11000
  140.9442  133.7494  156.0186 LP  0  0  0  0  0  0  0  0  0  0  0  0  # atno 17395 bound_to 11000

$$$$
