AV-unprocessed.smi:3068|AV-procd|sdf|11699|dock9
  -GOLD-   2272017103D 1   1.00000     0.00000
 Structure written by MMmdl.
 40 42  0  0  0  0  0  0  0  0  2 V2000
  153.5638  138.9803  155.2611 N   0  0  0  0  0  0  0  0  0  0  0  0
  152.4188  139.0114  155.0958 C   0  0  0  0  0  0  0  0  0  0  0  0
  150.9771  139.0489  154.8866 C   0  0  0  0  0  0  0  0  0  0  0  0
  150.4474  140.2364  154.5127 N   0  0  0  0  0  0  0  0  0  0  0  0
  149.1131  140.2827  154.3117 C   0  0  0  0  0  0  0  0  0  0  0  0
  148.3016  139.1444  154.4829 C   0  0  0  0  0  0  0  0  0  0  0  0
  148.8210  137.9553  154.8563 N   0  0  0  0  0  0  0  0  0  0  0  0
  150.1607  137.8955  155.0609 C   0  0  0  0  0  0  0  0  0  0  0  0
  150.7147  136.6624  155.4477 N   0  0  0  0  0  0  0  0  0  0  0  0
  150.4370  135.4454  154.6980 C   0  0  0  0  0  0  0  0  0  0  0  0
  149.3287  134.6092  155.3680 C   0  0  1  0  0  0  0  0  0  0  0  0
  147.9101  135.1021  155.0257 C   0  0  0  0  0  0  0  0  0  0  0  0
  147.5553  134.7938  153.6201 N   0  3  2  0  0  0  0  0  0  0  0  0
  146.2041  135.2950  153.2609 C   0  0  0  0  0  0  0  0  0  0  0  0
  145.8931  135.0416  151.7773 C   0  0  0  0  0  0  0  0  0  0  0  0
  146.0338  133.5525  151.4383 C   0  0  0  0  0  0  0  0  0  0  0  0
  147.4283  133.0543  151.8396 C   0  0  0  0  0  0  0  0  0  0  0  0
  147.7244  133.3450  153.3249 C   0  0  1  0  0  0  0  0  0  0  0  0
  149.1470  132.8907  153.7035 C   0  0  0  0  0  0  0  0  0  0  0  0
  149.4302  133.2187  155.0596 O   0  0  0  0  0  0  0  0  0  0  0  0
  148.6922  141.2311  154.0124 H   0  0  0  0  0  0  0  0  0  0  0  0
  147.2350  139.1875  154.3195 H   0  0  0  0  0  0  0  0  0  0  0  0
  151.4036  136.6329  156.1863 H   0  0  0  0  0  0  0  0  0  0  0  0
  150.1189  135.7293  153.6942 H   0  0  0  0  0  0  0  0  0  0  0  0
  151.3506  134.8626  154.5808 H   0  0  0  0  0  0  0  0  0  0  0  0
  149.4572  134.6995  156.4474 H   0  0  0  0  0  0  0  0  0  0  0  0
  147.1883  134.6214  155.6878 H   0  0  0  0  0  0  0  0  0  0  0  0
  147.8331  136.1756  155.2026 H   0  0  0  0  0  0  0  0  0  0  0  0
  145.4549  134.8089  153.8883 H   0  0  0  0  0  0  0  0  0  0  0  0
  146.1447  136.3643  153.4674 H   0  0  0  0  0  0  0  0  0  0  0  0
  144.8840  135.3826  151.5445 H   0  0  0  0  0  0  0  0  0  0  0  0
  146.5704  135.6271  151.1540 H   0  0  0  0  0  0  0  0  0  0  0  0
  145.2699  132.9787  151.9649 H   0  0  0  0  0  0  0  0  0  0  0  0
  145.8676  133.3908  150.3728 H   0  0  0  0  0  0  0  0  0  0  0  0
  147.5055  131.9840  151.6451 H   0  0  0  0  0  0  0  0  0  0  0  0
  148.1789  133.5368  151.2117 H   0  0  0  0  0  0  0  0  0  0  0  0
  147.0121  132.7903  153.9386 H   0  0  0  0  0  0  0  0  0  0  0  0
  149.2353  131.8100  153.5889 H   0  0  0  0  0  0  0  0  0  0  0  0
  149.8927  133.3290  153.0399 H   0  0  0  0  0  0  0  0  0  0  0  0
  148.2146  135.2889  153.0366 H   0  0  0  0  0  0  0  0  0  0  0  0
  1  2  3  0  0  0  0
  2  3  1  0  0  0  0
  3  8  1  0  0  0  0
  3  4  2  0  0  0  0
  4  5  1  0  0  0  0
  5  6  2  0  0  0  0
  5 21  1  0  0  0  0
  6  7  1  0  0  0  0
  6 22  1  0  0  0  0
  7  8  2  0  0  0  0
  8  9  1  0  0  0  0
  9 10  1  0  0  0  0
  9 23  1  0  0  0  0
 10 11  1  0  0  0  0
 10 24  1  0  0  0  0
 10 25  1  0  0  0  0
 11 20  1  0  0  0  0
 11 12  1  0  0  0  0
 11 26  1  0  0  0  0
 12 13  1  0  0  0  0
 12 27  1  0  0  0  0
 12 28  1  0  0  0  0
 13 18  1  0  0  0  0
 13 14  1  0  0  0  0
 13 40  1  0  0  0  0
 14 15  1  0  0  0  0
 14 29  1  0  0  0  0
 14 30  1  0  0  0  0
 15 16  1  0  0  0  0
 15 31  1  0  0  0  0
 15 32  1  0  0  0  0
 16 17  1  0  0  0  0
 16 33  1  0  0  0  0
 16 34  1  0  0  0  0
 17 18  1  0  0  0  0
 17 35  1  0  0  0  0
 17 36  1  0  0  0  0
 18 19  1  0  0  0  0
 18 37  1  0  0  0  0
 19 20  1  0  0  0  0
 19 38  1  0  0  0  0
 19 39  1  0  0  0  0
M  CHG  1  13   1
M  END
> <s_m_source_file>
AV-unprocessed.smi

> <i_m_source_file_index>
3068

> <i_lp_mmshare_version>
43012

> <i_f3d_flags>
0

> <s_epik_input>
TiNDYzFuW2NIXVtjSF1uYzFbTkhdW0NIMl1bQ0BIXShbQ0gyXTIpT1tDSDJdW0NAQEhdKE4yMylbQ0gyXVtDSDJdW0NIMl1bQ0gyXTM=

> <s_epik_cmdline>
J2VwaWtfcHl0aG9uJywgJy1waCcsICc3LjAnLCAnLXRuJywgJzgnLCAnLW1hJywgJzIwMCcsICctbWV0YWxfYmluZGluZycsICctaW1hZScsICc8aW5maWxlLm1hZT4nLCAnLW9tYWUnLCAnPG91dGZpbGUubWFlPic=

> <r_epik_Ionization_Penalty>
0.0804321

> <r_epik_Ionization_Penalty_Charging>
0.0803403

> <r_epik_Ionization_Penalty_Neutral>
9.17277e-05

> <r_epik_State_Penalty>
0.0711481

> <r_epik_Charging_Adjusted_Penalty>
0.151488

> <i_epik_Tot_Q>
1

> <i_epik_Tot_abs_Q>
1

> <r_epik_Metal_State_Penalty>
0.0711481

> <b_epik_Metal_Only>
0

> <s_lp_Force_Field>
OPLS_2005

> <r_lp_Energy>
40.024

> <b_lp_Chiralities_Consistent>
1

> <s_lp_Variant>
AV-unprocessed.smi:3068-2

> <Gold.Version>
5.8.1

> <Gold.Id.Protein>
6NUR|6NUR_protein|mol2

> <Gold.PLP.Fitness>
42.4199

> <Gold.PLP.PLP>
-32.1585

> <Gold.PLP.part.hbond>
-3.0000

> <Gold.PLP.part.metal>
0.0000

> <Gold.PLP.part.buried>
-3.1747

> <Gold.PLP.part.nonpolar>
-26.2243

> <Gold.PLP.part.repulsive>
0.3460

> <Gold.PLP.ligand.clash>
0.0000

> <Gold.PLP.ligand.torsion>
0.8724

> <Gold.PLP.Chemscore.Hbond>
4.0000

> <Gold.PLP.Chemscore.CHOScore>
0.0000

> <Gold.PLP.Chemscore.Metal>
0.0000

> <Gold.Chemscore.Hbonds>
donor molecule, donor type, donor heavy atom, donor atom, acceptor molecule, acceptor atom, score
      L1  H    13    40       P1  7948  2.00
      P1  H  7989  7998       L1     4  1.00
      P1  H  7997  8010       L1     1  1.00

> <Gold.PLP.Chemscore.Internal.Correction>
0.0063

> <Gold.Rescore>
     Score         DG    S(hbond)    S(metal)    S(lipo)     H(rot)  DE(clash)    DE(int)     intcor
     16.79     -18.08       2.57        0.00      63.25       1.32       0.44       0.85       ----

> <Gold.Chemscore.Fitness>
16.7876

> <Gold.Chemscore.DG>
-18.0813

> <Gold.Chemscore.ZeroCoef>
-5.4800

> <Gold.Chemscore.Hbond>
2.5683

> <Gold.Chemscore.Metal>
0.0000

> <Gold.Chemscore.Lipo>
63.2509

> <Gold.Chemscore.Internal_Hbond>
0.0000

> <Gold.Chemscore.DEClash>
0.4433

> <Gold.Chemscore.DEInternal>
0.8503

> <Gold.Chemscore.Rot>
1.3193

> <Gold.Chemscore.Internal.Correction>
   9.000000E+99

> <Gold.Chemscore.Hbonds>
donor molecule, donor type, donor heavy atom, donor atom, acceptor molecule, acceptor atom, score
      L1  H    13    40       P1  7948  0.99
      P1  H  7989  7998       L1     4  0.39
      P1  H  7997  8010       L1     1  0.94

> <Gold.Chemscore.Hbond.Weighted>
-8.5783

> <Gold.Chemscore.Metal.Weighted>
-0.0000

> <Gold.Chemscore.Lipo.Weighted>
-7.4004

> <Gold.Chemscore.Internal_Hbond.Weighted>
0.0000

> <Gold.Chemscore.DEClash.Weighted>
0.4433

> <Gold.Chemscore.DEInternal.Weighted>
0.8503

> <Gold.Chemscore.Rot.Weighted>
3.3774

> <Gold.Chemscore.Internal.Correction.Weighted>
   9.000000E+99

> <Gold.Protein.RotatedTorsions>
[ 6907 6896 6895 6894 ] final  -56.15 input  -60.11 | X-H torsion
[ 7974 7965 7964 7962 ] final  -91.58 input  175.53 | X-H torsion
[ 8008 7997 7996 7995 ] final   97.34 input   59.86 | X-H torsion
[ 10167 10162 10161 10158 ] final  -13.56 input  -65.29 | X-H torsion
[ 10718 10713 10712 10709 ] final   78.16 input   66.30 | X-H torsion
[ 10763 10752 10751 10750 ] final -127.76 input  -60.55 | X-H torsion
[ 11005 11000 10999 10996 ] final   68.36 input  -57.11 | X-H torsion

> <Gold.Protein.ActiveResidues>
 VAL166  LYS551  ARG553  GLY616  TRP617  ASP618  TYR619  PRO620  LYS621  CYS622 
 ASP623  PHE694  ASN695  SER759  ASP760  ASP761  ALA762  ILE779  LEU786  VAL792 
 PHE793  MET794  SER795  GLU796  ALA797  LYS798  CYS799  TRP800  GLU811  SER814 

> <Gold.Protein.RotatedAtoms>
  150.8192  134.7390  159.6756 H   0  0  0  0  0  0  0  0  0  0  0  0  # atno 6907 bound_to 6896
  152.4309  134.5777  159.9949 H   0  0  0  0  0  0  0  0  0  0  0  0  # atno 6908 bound_to 6896
  151.5965  133.3323  159.3074 H   0  0  0  0  0  0  0  0  0  0  0  0  # atno 6909 bound_to 6896
  145.4112  140.9545  143.2233 H   0  0  0  0  0  0  0  0  0  0  0  0  # atno 7974 bound_to 7965
  156.0891  140.3259  155.7793 H   0  0  0  0  0  0  0  0  0  0  0  0  # atno 8008 bound_to 7997
  155.5026  140.0570  157.2954 H   0  0  0  0  0  0  0  0  0  0  0  0  # atno 8009 bound_to 7997
  154.4627  140.1974  156.0217 H   0  0  0  0  0  0  0  0  0  0  0  0  # atno 8010 bound_to 7997
  140.7184  143.5414  150.9405 H   0  0  0  0  0  0  0  0  0  0  0  0  # atno 10167 bound_to 10162
  157.6735  130.9855  150.1746 H   0  0  0  0  0  0  0  0  0  0  0  0  # atno 10718 bound_to 10713
  154.8754  135.3951  154.3646 H   0  0  0  0  0  0  0  0  0  0  0  0  # atno 10763 bound_to 10752
  153.4414  135.7027  153.6172 H   0  0  0  0  0  0  0  0  0  0  0  0  # atno 10764 bound_to 10752
  153.4751  135.3781  155.2381 H   0  0  0  0  0  0  0  0  0  0  0  0  # atno 10765 bound_to 10752
  139.9716  134.6891  156.0436 H   0  0  0  0  0  0  0  0  0  0  0  0  # atno 11005 bound_to 11000
  144.8308  139.5632  143.6945 LP  0  0  0  0  0  0  0  0  0  0  0  0  # atno 17320 bound_to 7965
  146.2704  139.6621  142.9300 LP  0  0  0  0  0  0  0  0  0  0  0  0  # atno 17321 bound_to 7965
  139.9136  143.6690  152.3110 LP  0  0  0  0  0  0  0  0  0  0  0  0  # atno 17342 bound_to 10162
  139.7082  144.7624  151.1157 LP  0  0  0  0  0  0  0  0  0  0  0  0  # atno 17343 bound_to 10162
  156.2493  130.3699  149.8250 LP  0  0  0  0  0  0  0  0  0  0  0  0  # atno 17370 bound_to 10713
  156.6028  130.8554  151.3436 LP  0  0  0  0  0  0  0  0  0  0  0  0  # atno 17371 bound_to 10713
  141.1395  133.6567  156.3690 LP  0  0  0  0  0  0  0  0  0  0  0  0  # atno 17394 bound_to 11000
  140.5281  134.6239  157.5341 LP  0  0  0  0  0  0  0  0  0  0  0  0  # atno 17395 bound_to 11000

$$$$
