AV-unprocessed.smi:1795|AV-procd|sdf|7241|dock7
  -GOLD-   22720 8493D 1   1.00000     0.00000
 Structure written by MMmdl.
 47 48  0  0  0  0  0  0  0  0  1 V2000
  145.2812  140.2298  158.2454 C   0  0  0  0  0  0  0  0  0  0  0  0
  145.6443  141.4304  157.3652 C   0  0  1  0  0  0  0  0  0  0  0  0
  146.8022  141.1107  156.4028 C   0  0  0  0  0  0  0  0  0  0  0  0
  147.1136  142.2182  155.4939 N   0  0  0  0  0  0  0  0  0  0  0  0
  148.2394  141.9035  154.5826 C   0  0  2  0  0  0  0  0  0  0  0  0
  147.8606  140.8646  153.4956 C   0  0  0  0  0  0  0  0  0  0  0  0
  149.5161  141.4099  155.3261 C   0  0  0  0  0  0  0  0  0  0  0  0
  150.1770  142.4548  156.1033 N   0  0  0  0  0  0  0  0  0  0  0  0
  151.0011  142.2396  157.1396 C   0  0  0  0  0  0  0  0  0  0  0  0
  151.3252  141.1144  157.5216 O   0  0  0  0  0  0  0  0  0  0  0  0
  151.5495  143.4910  157.8386 C   0  0  0  0  0  0  0  0  0  0  0  0
  152.1017  143.2053  159.1731 N   0  0  0  0  0  0  0  0  0  0  0  0
  153.1384  142.2539  159.2509 C   0  0  0  0  0  0  0  0  0  0  0  0
  153.7088  141.9191  160.4191 C   0  0  0  0  0  0  0  0  0  0  0  0
  153.2327  142.5630  161.6203 C   0  0  0  0  0  0  0  0  0  0  0  0
  152.2398  143.4724  161.5579 C   0  0  0  0  0  0  0  0  0  0  0  0
  151.6128  143.8406  160.2832 C   0  0  0  0  0  0  0  0  0  0  0  0
  150.7038  144.6689  160.2168 O   0  0  0  0  0  0  0  0  0  0  0  0
  145.8836  142.5680  154.7735 C   0  0  0  0  0  0  0  0  0  0  0  0
  144.6855  142.8637  155.6982 C   0  0  2  0  0  0  0  0  0  0  0  0
  144.7880  144.2213  156.4143 C   0  0  0  0  0  0  0  0  0  0  0  0
  144.4888  141.7919  156.6168 O   0  0  0  0  0  0  0  0  0  0  0  0
  146.1304  139.9180  158.8538 H   0  0  0  0  0  0  0  0  0  0  0  0
  144.9704  139.3770  157.6412 H   0  0  0  0  0  0  0  0  0  0  0  0
  144.4616  140.4761  158.9207 H   0  0  0  0  0  0  0  0  0  0  0  0
  145.9301  142.2566  158.0165 H   0  0  0  0  0  0  0  0  0  0  0  0
  147.6651  140.8671  157.0195 H   0  0  0  0  0  0  0  0  0  0  0  0
  146.5631  140.2164  155.8249 H   0  0  0  0  0  0  0  0  0  0  0  0
  148.5079  142.8225  154.0593 H   0  0  0  0  0  0  0  0  0  0  0  0
  148.7044  140.5989  152.8597 H   0  0  0  0  0  0  0  0  0  0  0  0
  147.1028  141.2399  152.8097 H   0  0  0  0  0  0  0  0  0  0  0  0
  147.4855  139.9441  153.9438 H   0  0  0  0  0  0  0  0  0  0  0  0
  149.2999  140.5987  156.0197 H   0  0  0  0  0  0  0  0  0  0  0  0
  150.2352  141.0172  154.6066 H   0  0  0  0  0  0  0  0  0  0  0  0
  149.9704  143.4103  155.8502 H   0  0  0  0  0  0  0  0  0  0  0  0
  152.3081  143.9345  157.1925 H   0  0  0  0  0  0  0  0  0  0  0  0
  150.7636  144.2450  157.9169 H   0  0  0  0  0  0  0  0  0  0  0  0
  153.4316  141.8134  158.3092 H   0  0  0  0  0  0  0  0  0  0  0  0
  154.5000  141.1849  160.4599 H   0  0  0  0  0  0  0  0  0  0  0  0
  153.6736  142.3128  162.5741 H   0  0  0  0  0  0  0  0  0  0  0  0
  151.8958  143.9423  162.4676 H   0  0  0  0  0  0  0  0  0  0  0  0
  146.0311  143.4493  154.1533 H   0  0  0  0  0  0  0  0  0  0  0  0
  145.6167  141.7527  154.0992 H   0  0  0  0  0  0  0  0  0  0  0  0
  143.7889  142.9008  155.0791 H   0  0  0  0  0  0  0  0  0  0  0  0
  144.8152  145.0383  155.6931 H   0  0  0  0  0  0  0  0  0  0  0  0
  145.6877  144.2971  157.0243 H   0  0  0  0  0  0  0  0  0  0  0  0
  143.9280  144.3834  157.0643 H   0  0  0  0  0  0  0  0  0  0  0  0
  1  2  1  0  0  0  0
  1 23  1  0  0  0  0
  1 24  1  0  0  0  0
  1 25  1  0  0  0  0
  2 22  1  0  0  0  0
  2  3  1  0  0  0  0
  2 26  1  0  0  0  0
  3  4  1  0  0  0  0
  3 27  1  0  0  0  0
  3 28  1  0  0  0  0
  4  5  1  0  0  0  0
  4 19  1  0  0  0  0
  5  6  1  0  0  0  0
  5  7  1  0  0  0  0
  5 29  1  0  0  0  0
  6 30  1  0  0  0  0
  6 31  1  0  0  0  0
  6 32  1  0  0  0  0
  7  8  1  0  0  0  0
  7 33  1  0  0  0  0
  7 34  1  0  0  0  0
  8  9  1  0  0  0  0
  8 35  1  0  0  0  0
  9 10  2  0  0  0  0
  9 11  1  0  0  0  0
 11 12  1  0  0  0  0
 11 36  1  0  0  0  0
 11 37  1  0  0  0  0
 12 17  1  0  0  0  0
 12 13  1  0  0  0  0
 13 14  2  0  0  0  0
 13 38  1  0  0  0  0
 14 15  1  0  0  0  0
 14 39  1  0  0  0  0
 15 16  2  0  0  0  0
 15 40  1  0  0  0  0
 16 17  1  0  0  0  0
 16 41  1  0  0  0  0
 17 18  2  0  0  0  0
 19 20  1  0  0  0  0
 19 42  1  0  0  0  0
 19 43  1  0  0  0  0
 20 21  1  0  0  0  0
 20 22  1  0  0  0  0
 20 44  1  0  0  0  0
 21 45  1  0  0  0  0
 21 46  1  0  0  0  0
 21 47  1  0  0  0  0
M  END
> <s_m_source_file>
AV-unprocessed.smi

> <i_m_source_file_index>
1795

> <i_lp_mmshare_version>
43012

> <i_f3d_flags>
0

> <s_epik_input>
W0NIM11bQ0BASF0xW0NIMl1OKFtDSDJdW0NASF0oTzEpW0NIM10pW0NASF0oW0NIM10pW0NIMl1bTkhdQyg9TylbQ0gyXW4yW2NIXVtjSF1bY0hdW2NIXWMyPU8=

> <s_epik_cmdline>
J2VwaWtfcHl0aG9uJywgJy1waCcsICc3LjAnLCAnLXRuJywgJzgnLCAnLW1hJywgJzIwMCcsICctbWV0YWxfYmluZGluZycsICctaW1hZScsICc8aW5maWxlLm1hZT4nLCAnLW9tYWUnLCAnPG91dGZpbGUubWFlPic=

> <r_lp_tautomer_probability>
1

> <r_epik_Ionization_Penalty>
0.237383

> <r_epik_Ionization_Penalty_Charging>
3.58805e-07

> <r_epik_Ionization_Penalty_Neutral>
0.237382

> <r_epik_State_Penalty>
0.228245

> <r_epik_Charging_Adjusted_Penalty>
0.228245

> <i_epik_Tot_Q>
0

> <i_epik_Tot_abs_Q>
0

> <r_epik_Metal_State_Penalty>
0.228221

> <b_epik_Metal_Only>
0

> <s_lp_Force_Field>
OPLS_2005

> <r_lp_Energy>
40.4957

> <b_lp_Chiralities_Consistent>
1

> <s_lp_Variant>
AV-unprocessed.smi:1795-5

> <Gold.Version>
5.8.1

> <Gold.Id.Protein>
6NUR|6NUR_protein|mol2

> <Gold.PLP.Fitness>
45.9831

> <Gold.PLP.PLP>
-44.0390

> <Gold.PLP.part.hbond>
-1.0000

> <Gold.PLP.part.metal>
0.0000

> <Gold.PLP.part.buried>
-5.0437

> <Gold.PLP.part.nonpolar>
-38.6640

> <Gold.PLP.part.repulsive>
1.3150

> <Gold.PLP.ligand.clash>
0.0000

> <Gold.PLP.ligand.torsion>
0.5606

> <Gold.PLP.Chemscore.Hbond>
0.9920

> <Gold.PLP.Chemscore.CHOScore>
0.0000

> <Gold.PLP.Chemscore.Metal>
0.0000

> <Gold.Chemscore.Hbonds>
donor molecule, donor type, donor heavy atom, donor atom, acceptor molecule, acceptor atom, score
      L1  H     8    35       P1  8028  1.00

> <Gold.PLP.Chemscore.Internal.Correction>
0.0893

> <Gold.Rescore>
     Score         DG    S(hbond)    S(metal)    S(lipo)     H(rot)  DE(clash)    DE(int)     intcor
     13.02     -14.81       0.99        0.00      91.37       1.83       0.02       1.78       ----

> <Gold.Chemscore.Fitness>
13.0166

> <Gold.Chemscore.DG>
-14.8092

> <Gold.Chemscore.ZeroCoef>
-5.4800

> <Gold.Chemscore.Hbond>
0.9914

> <Gold.Chemscore.Metal>
0.0000

> <Gold.Chemscore.Lipo>
91.3692

> <Gold.Chemscore.Internal_Hbond>
0.0000

> <Gold.Chemscore.DEClash>
0.0174

> <Gold.Chemscore.DEInternal>
1.7753

> <Gold.Chemscore.Rot>
1.8251

> <Gold.Chemscore.Internal.Correction>
   9.000000E+99

> <Gold.Chemscore.Hbonds>
donor molecule, donor type, donor heavy atom, donor atom, acceptor molecule, acceptor atom, score
      L1  H     8    35       P1  8028  0.97

> <Gold.Chemscore.Hbond.Weighted>
-3.3114

> <Gold.Chemscore.Metal.Weighted>
-0.0000

> <Gold.Chemscore.Lipo.Weighted>
-10.6902

> <Gold.Chemscore.Internal_Hbond.Weighted>
0.0000

> <Gold.Chemscore.DEClash.Weighted>
0.0174

> <Gold.Chemscore.DEInternal.Weighted>
1.7753

> <Gold.Chemscore.Rot.Weighted>
4.6724

> <Gold.Chemscore.Internal.Correction.Weighted>
   9.000000E+99

> <Gold.Protein.RotatedTorsions>
[ 6907 6896 6895 6894 ] final   -8.09 input  -60.11 | X-H torsion
[ 7974 7965 7964 7962 ] final -109.34 input  175.53 | X-H torsion
[ 8008 7997 7996 7995 ] final  156.58 input   59.86 | X-H torsion
[ 10167 10162 10161 10158 ] final  -90.18 input  -65.29 | X-H torsion
[ 10718 10713 10712 10709 ] final  -12.65 input   66.30 | X-H torsion
[ 10763 10752 10751 10750 ] final  -39.95 input  -60.55 | X-H torsion
[ 11005 11000 10999 10996 ] final    5.33 input  -57.11 | X-H torsion

> <Gold.Protein.ActiveResidues>
 VAL166  LYS551  ARG553  GLY616  TRP617  ASP618  TYR619  PRO620  LYS621  CYS622 
 ASP623  PHE694  ASN695  SER759  ASP760  ASP761  ALA762  ILE779  LEU786  VAL792 
 PHE793  MET794  SER795  GLU796  ALA797  LYS798  CYS799  TRP800  GLU811  SER814 

> <Gold.Protein.RotatedAtoms>
  151.4392  135.1018  159.9664 H   0  0  0  0  0  0  0  0  0  0  0  0  # atno 6907 bound_to 6896
  152.4929  133.8545  159.7229 H   0  0  0  0  0  0  0  0  0  0  0  0  # atno 6908 bound_to 6896
  150.9100  133.6951  159.2884 H   0  0  0  0  0  0  0  0  0  0  0  0  # atno 6909 bound_to 6896
  145.1818  140.8974  143.3475 H   0  0  0  0  0  0  0  0  0  0  0  0  # atno 7974 bound_to 7965
  156.2414  140.1908  156.6978 H   0  0  0  0  0  0  0  0  0  0  0  0  # atno 8008 bound_to 7997
  154.6204  140.0609  156.9634 H   0  0  0  0  0  0  0  0  0  0  0  0  # atno 8009 bound_to 7997
  155.1870  140.3281  155.4367 H   0  0  0  0  0  0  0  0  0  0  0  0  # atno 8010 bound_to 7997
  140.3575  143.2859  151.9654 H   0  0  0  0  0  0  0  0  0  0  0  0  # atno 10167 bound_to 10162
  156.6415  130.4929  149.6093 H   0  0  0  0  0  0  0  0  0  0  0  0  # atno 10718 bound_to 10713
  153.9378  135.6765  153.4744 H   0  0  0  0  0  0  0  0  0  0  0  0  # atno 10763 bound_to 10752
  153.0947  135.4857  154.8753 H   0  0  0  0  0  0  0  0  0  0  0  0  # atno 10764 bound_to 10752
  154.7393  135.3157  154.8714 H   0  0  0  0  0  0  0  0  0  0  0  0  # atno 10765 bound_to 10752
  140.5719  134.0094  155.8012 H   0  0  0  0  0  0  0  0  0  0  0  0  # atno 11005 bound_to 11000
  145.0129  139.3494  143.6111 LP  0  0  0  0  0  0  0  0  0  0  0  0  # atno 17320 bound_to 7965
  146.3452  139.9398  142.8742 LP  0  0  0  0  0  0  0  0  0  0  0  0  # atno 17321 bound_to 7965
  139.4818  144.6022  151.7585 LP  0  0  0  0  0  0  0  0  0  0  0  0  # atno 17342 bound_to 10162
  140.5160  144.0953  150.6008 LP  0  0  0  0  0  0  0  0  0  0  0  0  # atno 17343 bound_to 10162
  156.2155  130.6705  151.1314 LP  0  0  0  0  0  0  0  0  0  0  0  0  # atno 17370 bound_to 10713
  157.7169  131.0704  150.6290 LP  0  0  0  0  0  0  0  0  0  0  0  0  # atno 17371 bound_to 10713
  141.1051  133.9707  157.3011 LP  0  0  0  0  0  0  0  0  0  0  0  0  # atno 17394 bound_to 11000
  139.9358  135.0196  156.8550 LP  0  0  0  0  0  0  0  0  0  0  0  0  # atno 17395 bound_to 11000

$$$$
