AV-unprocessed.smi:3116|AV-procd|sdf|11863|dock5
  -GOLD-   2272017243D 1   1.00000     0.00000
 Structure written by MMmdl.
 34 34  0  0  0  0  0  0  0  0  2 V2000
  146.5963  138.4510  151.0367 C   0  0  0  0  0  0  0  0  0  0  0  0
  146.0942  138.0455  152.4307 C   0  0  1  0  0  0  0  0  0  0  0  0
  146.3402  136.5998  152.6490 N   0  3  0  0  0  0  0  0  0  0  0  0
  145.5986  135.6744  151.7589 C   0  0  2  0  0  0  0  0  0  0  0  0
  144.1230  136.1121  151.7114 C   0  0  0  0  0  0  0  0  0  0  0  0
  145.7766  134.2040  152.2275 C   0  0  2  0  0  0  0  0  0  0  0  0
  147.2529  133.7922  152.3850 C   0  0  0  0  0  0  0  0  0  0  0  0
  145.0908  133.2649  151.3488 N   0  0  0  0  0  0  0  0  0  0  0  0
  145.6104  132.1599  150.7060 C   0  0  0  0  0  0  0  0  0  0  0  0
  144.5955  131.5856  149.9956 C   0  0  0  0  0  0  0  0  0  0  0  0
  143.4774  132.4225  150.2659 C   0  0  0  0  0  0  0  0  0  0  0  0
  143.7763  133.4263  151.0744 N   0  0  0  0  0  0  0  0  0  0  0  0
  146.7756  138.9050  153.5052 C   0  0  0  0  0  0  0  0  0  0  0  0
  146.0626  139.9076  154.0249 N   0  0  0  0  0  0  0  0  0  0  0  0
  147.9326  138.6766  153.8537 O   0  0  0  0  0  0  0  0  0  0  0  0
  146.3979  139.5041  150.8336 H   0  0  0  0  0  0  0  0  0  0  0  0
  146.0989  137.8712  150.2585 H   0  0  0  0  0  0  0  0  0  0  0  0
  147.6704  138.2891  150.9343 H   0  0  0  0  0  0  0  0  0  0  0  0
  145.0186  138.2251  152.4661 H   0  0  0  0  0  0  0  0  0  0  0  0
  147.3258  136.4190  152.5266 H   0  0  0  0  0  0  0  0  0  0  0  0
  145.9870  135.7651  150.7429 H   0  0  0  0  0  0  0  0  0  0  0  0
  143.5492  135.5306  150.9897 H   0  0  0  0  0  0  0  0  0  0  0  0
  144.0345  137.1583  151.4165 H   0  0  0  0  0  0  0  0  0  0  0  0
  143.6443  136.0001  152.6850 H   0  0  0  0  0  0  0  0  0  0  0  0
  145.3070  134.1083  153.2080 H   0  0  0  0  0  0  0  0  0  0  0  0
  147.7511  134.3767  153.1582 H   0  0  0  0  0  0  0  0  0  0  0  0
  147.8080  133.9260  151.4560 H   0  0  0  0  0  0  0  0  0  0  0  0
  147.3372  132.7438  152.6732 H   0  0  0  0  0  0  0  0  0  0  0  0
  146.6475  131.8751  150.8071 H   0  0  0  0  0  0  0  0  0  0  0  0
  144.6445  130.7024  149.3763 H   0  0  0  0  0  0  0  0  0  0  0  0
  142.4648  132.3310  149.9016 H   0  0  0  0  0  0  0  0  0  0  0  0
  146.4627  140.5013  154.7372 H   0  0  0  0  0  0  0  0  0  0  0  0
  145.1183  140.0681  153.7042 H   0  0  0  0  0  0  0  0  0  0  0  0
  146.0942  136.3918  153.6065 H   0  0  0  0  0  0  0  0  0  0  0  0
  1  2  1  0  0  0  0
  1 16  1  0  0  0  0
  1 17  1  0  0  0  0
  1 18  1  0  0  0  0
  2  3  1  0  0  0  0
  2 13  1  0  0  0  0
  2 19  1  0  0  0  0
  3  4  1  0  0  0  0
  3 20  1  0  0  0  0
  3 34  1  0  0  0  0
  4  5  1  0  0  0  0
  4  6  1  0  0  0  0
  4 21  1  0  0  0  0
  5 22  1  0  0  0  0
  5 23  1  0  0  0  0
  5 24  1  0  0  0  0
  6  7  1  0  0  0  0
  6  8  1  0  0  0  0
  6 25  1  0  0  0  0
  7 26  1  0  0  0  0
  7 27  1  0  0  0  0
  7 28  1  0  0  0  0
  8 12  1  0  0  0  0
  8  9  1  0  0  0  0
  9 10  2  0  0  0  0
  9 29  1  0  0  0  0
 10 11  1  0  0  0  0
 10 30  1  0  0  0  0
 11 12  2  0  0  0  0
 11 31  1  0  0  0  0
 13 14  1  0  0  0  0
 13 15  2  0  0  0  0
 14 32  1  0  0  0  0
 14 33  1  0  0  0  0
M  CHG  1   3   1
M  END
> <s_m_source_file>
AV-unprocessed.smi

> <i_m_source_file_index>
3116

> <i_lp_mmshare_version>
43012

> <i_f3d_flags>
0

> <s_epik_input>
W05IMl1DKD1PKVtDQEhdKFtDSDNdKVtOSF1bQ0BIXShbQ0gzXSlbQ0BIXShbQ0gzXSluMVtjSF1bY0hdW2NIXW4x

> <s_epik_cmdline>
J2VwaWtfcHl0aG9uJywgJy1waCcsICc3LjAnLCAnLXRuJywgJzgnLCAnLW1hJywgJzIwMCcsICctbWV0YWxfYmluZGluZycsICctaW1hZScsICc8aW5maWxlLm1hZT4nLCAnLW9tYWUnLCAnPG91dGZpbGUubWFlPic=

> <r_lp_tautomer_probability>
1

> <r_epik_Ionization_Penalty>
0.15658

> <r_epik_Ionization_Penalty_Charging>
0.156568

> <r_epik_Ionization_Penalty_Neutral>
1.19778e-05

> <r_epik_State_Penalty>
0.145866

> <r_epik_Charging_Adjusted_Penalty>
0.302434

> <i_epik_Tot_Q>
1

> <i_epik_Tot_abs_Q>
1

> <r_epik_Metal_State_Penalty>
0.146064

> <b_epik_Metal_Only>
0

> <s_lp_Force_Field>
OPLS_2005

> <r_lp_Energy>
10.4239

> <b_lp_Chiralities_Consistent>
1

> <s_lp_Variant>
AV-unprocessed.smi:3116-2

> <Gold.Version>
5.8.1

> <Gold.Id.Protein>
6NUR|6NUR_protein|mol2

> <Gold.PLP.Fitness>
38.5320

> <Gold.PLP.PLP>
-22.9746

> <Gold.PLP.part.hbond>
-2.0000

> <Gold.PLP.part.metal>
0.0000

> <Gold.PLP.part.buried>
3.0256

> <Gold.PLP.part.nonpolar>
-24.6360

> <Gold.PLP.part.repulsive>
0.3891

> <Gold.PLP.ligand.clash>
0.0000

> <Gold.PLP.ligand.torsion>
0.5743

> <Gold.PLP.Chemscore.Hbond>
3.0000

> <Gold.PLP.Chemscore.CHOScore>
2.5204

> <Gold.PLP.Chemscore.Metal>
0.0000

> <Gold.Chemscore.Hbonds>
donor molecule, donor type, donor heavy atom, donor atom, acceptor molecule, acceptor atom, score
      L1  H     3    20       P1  7948  2.00
      L1  H    14    33       P1 10175  1.00
      L1  C     9    29       P1 10747  0.84
      L1  C    11    31       P1 10186  0.76
      L1  C    11    31       P1 10952  0.85

> <Gold.PLP.Chemscore.Internal.Correction>
0.1448

> <Gold.Rescore>
     Score         DG    S(hbond)    S(metal)    S(lipo)     H(rot)  DE(clash)    DE(int)     intcor
     11.22     -13.46       1.95        0.00      66.08       2.45       0.22       2.01       ----

> <Gold.Chemscore.Fitness>
11.2248

> <Gold.Chemscore.DG>
-13.4551

> <Gold.Chemscore.ZeroCoef>
-5.4800

> <Gold.Chemscore.Hbond>
1.9483

> <Gold.Chemscore.Metal>
0.0000

> <Gold.Chemscore.Lipo>
66.0775

> <Gold.Chemscore.Internal_Hbond>
0.0000

> <Gold.Chemscore.DEClash>
0.2222

> <Gold.Chemscore.DEInternal>
2.0081

> <Gold.Chemscore.Rot>
2.4465

> <Gold.Chemscore.Internal.Correction>
   9.000000E+99

> <Gold.Chemscore.Hbonds>
donor molecule, donor type, donor heavy atom, donor atom, acceptor molecule, acceptor atom, score
      L1  H     3    20       P1  7948  1.00
      L1  H    14    33       P1 10175  0.99

> <Gold.Chemscore.Hbond.Weighted>
-6.5072

> <Gold.Chemscore.Metal.Weighted>
-0.0000

> <Gold.Chemscore.Lipo.Weighted>
-7.7311

> <Gold.Chemscore.Internal_Hbond.Weighted>
0.0000

> <Gold.Chemscore.DEClash.Weighted>
0.2222

> <Gold.Chemscore.DEInternal.Weighted>
2.0081

> <Gold.Chemscore.Rot.Weighted>
6.2631

> <Gold.Chemscore.Internal.Correction.Weighted>
   9.000000E+99

> <Gold.Protein.RotatedTorsions>
[ 6907 6896 6895 6894 ] final   -3.45 input  -60.11 | X-H torsion
[ 7974 7965 7964 7962 ] final  103.30 input  175.53 | X-H torsion
[ 8008 7997 7996 7995 ] final  -29.86 input   59.86 | X-H torsion
[ 10167 10162 10161 10158 ] final  -81.70 input  -65.29 | X-H torsion
[ 10718 10713 10712 10709 ] final   85.45 input   66.30 | X-H torsion
[ 10763 10752 10751 10750 ] final  -85.94 input  -60.55 | X-H torsion
[ 11005 11000 10999 10996 ] final -142.73 input  -57.11 | X-H torsion

> <Gold.Protein.ActiveResidues>
 VAL166  LYS551  ARG553  GLY616  TRP617  ASP618  TYR619  PRO620  LYS621  CYS622 
 ASP623  PHE694  ASN695  SER759  ASP760  ASP761  ALA762  ILE779  LEU786  VAL792 
 PHE793  MET794  SER795  GLU796  ALA797  LYS798  CYS799  TRP800  GLU811  SER814 

> <Gold.Protein.RotatedAtoms>
  151.5136  135.1065  159.9859 H   0  0  0  0  0  0  0  0  0  0  0  0  # atno 6907 bound_to 6896
  152.4651  133.7901  159.6908 H   0  0  0  0  0  0  0  0  0  0  0  0  # atno 6908 bound_to 6896
  150.8631  133.7550  159.3011 H   0  0  0  0  0  0  0  0  0  0  0  0  # atno 6909 bound_to 6896
  145.3477  139.2447  143.3575 H   0  0  0  0  0  0  0  0  0  0  0  0  # atno 7974 bound_to 7965
  154.4273  140.1807  156.1315 H   0  0  0  0  0  0  0  0  0  0  0  0  # atno 8008 bound_to 7997
  156.0063  140.3355  155.6871 H   0  0  0  0  0  0  0  0  0  0  0  0  # atno 8009 bound_to 7997
  155.6172  140.0656  157.2679 H   0  0  0  0  0  0  0  0  0  0  0  0  # atno 8010 bound_to 7997
  140.4388  143.2522  151.8655 H   0  0  0  0  0  0  0  0  0  0  0  0  # atno 10167 bound_to 10162
  157.6915  131.0175  150.2824 H   0  0  0  0  0  0  0  0  0  0  0  0  # atno 10718 bound_to 10713
  154.6168  135.5467  153.7532 H   0  0  0  0  0  0  0  0  0  0  0  0  # atno 10763 bound_to 10752
  153.0220  135.6403  154.1498 H   0  0  0  0  0  0  0  0  0  0  0  0  # atno 10764 bound_to 10752
  154.1434  135.2907  155.3135 H   0  0  0  0  0  0  0  0  0  0  0  0  # atno 10765 bound_to 10752
  140.8196  134.2647  157.4906 H   0  0  0  0  0  0  0  0  0  0  0  0  # atno 11005 bound_to 11000
  146.2981  140.4087  142.8714 LP  0  0  0  0  0  0  0  0  0  0  0  0  # atno 17320 bound_to 7965
  144.8741  140.7313  143.6028 LP  0  0  0  0  0  0  0  0  0  0  0  0  # atno 17321 bound_to 7965
  139.4788  144.5253  151.8744 LP  0  0  0  0  0  0  0  0  0  0  0  0  # atno 17342 bound_to 10162
  140.4343  144.2074  150.5889 LP  0  0  0  0  0  0  0  0  0  0  0  0  # atno 17343 bound_to 10162
  156.3369  130.3809  149.7443 LP  0  0  0  0  0  0  0  0  0  0  0  0  # atno 17370 bound_to 10713
  156.4964  130.8109  151.3115 LP  0  0  0  0  0  0  0  0  0  0  0  0  # atno 17371 bound_to 10713
  139.8709  134.9528  156.4126 LP  0  0  0  0  0  0  0  0  0  0  0  0  # atno 17394 bound_to 11000
  140.9113  133.7710  155.9795 LP  0  0  0  0  0  0  0  0  0  0  0  0  # atno 17395 bound_to 11000

$$$$
