AV-unprocessed.smi:2473|AV-procd|sdf|9745|dock1
  -GOLD-   2272013383D 1   1.00000     0.00000
 Structure written by MMmdl.
 48 49  0  0  0  0  0  0  0  0  2 V2000
  152.6339  138.8788  154.9612 C   0  0  0  0  0  0  0  0  0  0  0  0
  151.3094  139.6431  155.1008 C   0  0  2  0  0  0  0  0  0  0  0  0
  151.3506  140.6174  156.2916 C   0  0  0  0  0  0  0  0  0  0  0  0
  150.0243  141.3900  156.4313 C   0  0  2  0  0  0  0  0  0  0  0  0
  150.0578  142.3536  157.6245 C   0  0  0  0  0  0  0  0  0  0  0  0
  149.2860  142.2029  158.5720 O   0  0  0  0  0  0  0  0  0  0  0  0
  150.9406  143.3607  157.5512 N   0  0  0  0  0  0  0  0  0  0  0  0
  151.0717  144.4367  158.5289 C   0  0  0  0  0  0  0  0  0  0  0  0
  152.4792  144.5079  159.1560 C   0  0  0  0  0  0  0  0  0  0  0  0
  152.9155  143.2350  159.8227 C   0  0  0  0  0  0  0  0  0  0  0  0
  153.3666  142.1487  159.1840 N   0  3  0  0  0  0  0  0  0  0  0  0
  153.6928  141.1675  160.0796 C   0  0  0  0  0  0  0  0  0  0  0  0
  153.4254  141.6754  161.3235 C   0  0  0  0  0  0  0  0  0  0  0  0
  152.9461  142.9467  161.1358 N   0  0  0  0  0  0  0  0  0  0  0  0
  152.5194  143.8740  162.1860 C   0  0  0  0  0  0  0  0  0  0  0  0
  148.8430  140.4052  156.5720 C   0  0  0  0  0  0  0  0  0  0  0  0
  148.7493  139.3826  155.4135 C   0  0  0  0  0  0  0  0  0  0  0  0
  147.6845  138.3272  155.7704 C   0  0  0  0  0  0  0  0  0  0  0  0
  148.3080  140.0712  154.1031 C   0  0  0  0  0  0  0  0  0  0  0  0
  150.1159  138.6740  155.2375 C   0  0  0  0  0  0  0  0  0  0  0  0
  152.8387  138.2743  155.8454 H   0  0  0  0  0  0  0  0  0  0  0  0
  153.4708  139.5644  154.8260 H   0  0  0  0  0  0  0  0  0  0  0  0
  152.6135  138.2113  154.0994 H   0  0  0  0  0  0  0  0  0  0  0  0
  151.1810  140.2266  154.1891 H   0  0  0  0  0  0  0  0  0  0  0  0
  151.5595  140.0593  157.2061 H   0  0  0  0  0  0  0  0  0  0  0  0
  152.1763  141.3191  156.1634 H   0  0  0  0  0  0  0  0  0  0  0  0
  149.8840  141.9858  155.5284 H   0  0  0  0  0  0  0  0  0  0  0  0
  151.5447  143.4007  156.7429 H   0  0  0  0  0  0  0  0  0  0  0  0
  150.8046  145.3938  158.0787 H   0  0  0  0  0  0  0  0  0  0  0  0
  150.3368  144.2492  159.3123 H   0  0  0  0  0  0  0  0  0  0  0  0
  153.2198  144.7668  158.4000 H   0  0  0  0  0  0  0  0  0  0  0  0
  152.5191  145.2906  159.9139 H   0  0  0  0  0  0  0  0  0  0  0  0
  154.0793  140.2066  159.7724 H   0  0  0  0  0  0  0  0  0  0  0  0
  153.5361  141.2354  162.3042 H   0  0  0  0  0  0  0  0  0  0  0  0
  152.6976  143.4260  163.1639 H   0  0  0  0  0  0  0  0  0  0  0  0
  151.4553  144.0828  162.0724 H   0  0  0  0  0  0  0  0  0  0  0  0
  153.0876  144.8004  162.1093 H   0  0  0  0  0  0  0  0  0  0  0  0
  148.9456  139.8642  157.5145 H   0  0  0  0  0  0  0  0  0  0  0  0
  147.9057  140.9591  156.6478 H   0  0  0  0  0  0  0  0  0  0  0  0
  147.5875  137.5785  154.9834 H   0  0  0  0  0  0  0  0  0  0  0  0
  146.7042  138.7836  155.9125 H   0  0  0  0  0  0  0  0  0  0  0  0
  147.9355  137.8002  156.6917 H   0  0  0  0  0  0  0  0  0  0  0  0
  148.2167  139.3496  153.2907 H   0  0  0  0  0  0  0  0  0  0  0  0
  149.0081  140.8370  153.7729 H   0  0  0  0  0  0  0  0  0  0  0  0
  147.3367  140.5529  154.2199 H   0  0  0  0  0  0  0  0  0  0  0  0
  150.0791  138.0122  154.3710 H   0  0  0  0  0  0  0  0  0  0  0  0
  150.2955  138.0267  156.0976 H   0  0  0  0  0  0  0  0  0  0  0  0
  153.4541  142.0677  158.1787 H   0  0  0  0  0  0  0  0  0  0  0  0
  1  2  1  0  0  0  0
  1 21  1  0  0  0  0
  1 22  1  0  0  0  0
  1 23  1  0  0  0  0
  2 20  1  0  0  0  0
  2  3  1  0  0  0  0
  2 24  1  0  0  0  0
  3  4  1  0  0  0  0
  3 25  1  0  0  0  0
  3 26  1  0  0  0  0
  4  5  1  0  0  0  0
  4 16  1  0  0  0  0
  4 27  1  0  0  0  0
  5  6  2  0  0  0  0
  5  7  1  0  0  0  0
  7  8  1  0  0  0  0
  7 28  1  0  0  0  0
  8  9  1  0  0  0  0
  8 29  1  0  0  0  0
  8 30  1  0  0  0  0
  9 10  1  0  0  0  0
  9 31  1  0  0  0  0
  9 32  1  0  0  0  0
 10 14  1  0  0  0  0
 10 11  2  0  0  0  0
 11 12  1  0  0  0  0
 11 48  1  0  0  0  0
 12 13  2  0  0  0  0
 12 33  1  0  0  0  0
 13 14  1  0  0  0  0
 13 34  1  0  0  0  0
 14 15  1  0  0  0  0
 15 35  1  0  0  0  0
 15 36  1  0  0  0  0
 15 37  1  0  0  0  0
 16 17  1  0  0  0  0
 16 38  1  0  0  0  0
 16 39  1  0  0  0  0
 17 18  1  0  0  0  0
 17 19  1  0  0  0  0
 17 20  1  0  0  0  0
 18 40  1  0  0  0  0
 18 41  1  0  0  0  0
 18 42  1  0  0  0  0
 19 43  1  0  0  0  0
 19 44  1  0  0  0  0
 19 45  1  0  0  0  0
 20 46  1  0  0  0  0
 20 47  1  0  0  0  0
M  CHG  1  11   1
M  END
> <s_m_source_file>
AV-unprocessed.smi

> <i_m_source_file_index>
2473

> <i_lp_mmshare_version>
43012

> <i_f3d_flags>
0

> <s_epik_input>
W0NIM11bQ0BASF0oW0NIMl0xKVtDSDJdW0NASF0oW0NIMl1DMShbQ0gzXSlbQ0gzXSlDKD1PKVtOSF1bQ0gyXVtDSDJdYzJuW2NIXVtjSF1uMltDSDNd

> <s_epik_cmdline>
J2VwaWtfcHl0aG9uJywgJy1waCcsICc3LjAnLCAnLXRuJywgJzgnLCAnLW1hJywgJzIwMCcsICctbWV0YWxfYmluZGluZycsICctaW1hZScsICc8aW5maWxlLm1hZT4nLCAnLW9tYWUnLCAnPG91dGZpbGUubWFlPic=

> <r_lp_tautomer_probability>
1

> <r_epik_Ionization_Penalty>
0.0796112

> <r_epik_Ionization_Penalty_Charging>
0

> <r_epik_Ionization_Penalty_Neutral>
0.0796112

> <r_epik_State_Penalty>
0.0704541

> <r_epik_Charging_Adjusted_Penalty>
0.0704541

> <i_epik_Tot_Q>
1

> <i_epik_Tot_abs_Q>
1

> <r_epik_Metal_State_Penalty>
0.409899

> <b_epik_Metal_Only>
0

> <s_lp_Force_Field>
OPLS_2005

> <r_lp_Energy>
16.1806

> <b_lp_Chiralities_Consistent>
1

> <s_lp_Variant>
AV-unprocessed.smi:2473-3

> <Gold.Version>
5.8.1

> <Gold.Id.Protein>
6NUR|6NUR_protein|mol2

> <Gold.PLP.Fitness>
43.9325

> <Gold.PLP.PLP>
-44.4585

> <Gold.PLP.part.hbond>
-1.1214

> <Gold.PLP.part.metal>
0.0000

> <Gold.PLP.part.buried>
-2.6769

> <Gold.PLP.part.nonpolar>
-40.6851

> <Gold.PLP.part.repulsive>
0.1713

> <Gold.PLP.ligand.clash>
0.0000

> <Gold.PLP.ligand.torsion>
0.3017

> <Gold.PLP.Chemscore.Hbond>
0.0000

> <Gold.PLP.Chemscore.CHOScore>
0.0000

> <Gold.PLP.Chemscore.Metal>
0.0000

> <Gold.PLP.Chemscore.Internal.Correction>
0.0774

> <Gold.Rescore>
     Score         DG    S(hbond)    S(metal)    S(lipo)     H(rot)  DE(clash)    DE(int)     intcor
     13.32     -13.70       0.00        0.00     104.88       1.58       0.06       0.32       ----

> <Gold.Chemscore.Fitness>
13.3246

> <Gold.Chemscore.DG>
-13.7019

> <Gold.Chemscore.ZeroCoef>
-5.4800

> <Gold.Chemscore.Hbond>
0.0000

> <Gold.Chemscore.Metal>
0.0000

> <Gold.Chemscore.Lipo>
104.8835

> <Gold.Chemscore.Internal_Hbond>
0.0000

> <Gold.Chemscore.DEClash>
0.0597

> <Gold.Chemscore.DEInternal>
0.3175

> <Gold.Chemscore.Rot>
1.5818

> <Gold.Chemscore.Internal.Correction>
   9.000000E+99

> <Gold.Chemscore.Hbond.Weighted>
-0.0000

> <Gold.Chemscore.Metal.Weighted>
-0.0000

> <Gold.Chemscore.Lipo.Weighted>
-12.2714

> <Gold.Chemscore.Internal_Hbond.Weighted>
0.0000

> <Gold.Chemscore.DEClash.Weighted>
0.0597

> <Gold.Chemscore.DEInternal.Weighted>
0.3175

> <Gold.Chemscore.Rot.Weighted>
4.0495

> <Gold.Chemscore.Internal.Correction.Weighted>
   9.000000E+99

> <Gold.Protein.RotatedTorsions>
[ 6907 6896 6895 6894 ] final  109.88 input  -60.11 | X-H torsion
[ 7974 7965 7964 7962 ] final  -28.19 input  175.53 | X-H torsion
[ 8008 7997 7996 7995 ] final   95.43 input   59.86 | X-H torsion
[ 10167 10162 10161 10158 ] final  166.37 input  -65.29 | X-H torsion
[ 10718 10713 10712 10709 ] final   30.53 input   66.30 | X-H torsion
[ 10763 10752 10751 10750 ] final  115.01 input  -60.55 | X-H torsion
[ 11005 11000 10999 10996 ] final  137.17 input  -57.11 | X-H torsion

> <Gold.Protein.ActiveResidues>
 VAL166  LYS551  ARG553  GLY616  TRP617  ASP618  TYR619  PRO620  LYS621  CYS622 
 ASP623  PHE694  ASN695  SER759  ASP760  ASP761  ALA762  ILE779  LEU786  VAL792 
 PHE793  MET794  SER795  GLU796  ALA797  LYS798  CYS799  TRP800  GLU811  SER814 

> <Gold.Protein.RotatedAtoms>
  152.5046  133.8880  159.7379 H   0  0  0  0  0  0  0  0  0  0  0  0  # atno 6907 bound_to 6896
  150.9326  133.6741  159.2814 H   0  0  0  0  0  0  0  0  0  0  0  0  # atno 6908 bound_to 6896
  151.4080  135.0985  159.9629 H   0  0  0  0  0  0  0  0  0  0  0  0  # atno 6909 bound_to 6896
  146.1305  140.5250  142.8695 H   0  0  0  0  0  0  0  0  0  0  0  0  # atno 7974 bound_to 7965
  156.0688  140.3286  155.7550 H   0  0  0  0  0  0  0  0  0  0  0  0  # atno 8008 bound_to 7997
  155.5339  140.0596  157.2901 H   0  0  0  0  0  0  0  0  0  0  0  0  # atno 8009 bound_to 7997
  154.4519  140.1922  156.0512 H   0  0  0  0  0  0  0  0  0  0  0  0  # atno 8010 bound_to 7997
  139.4923  144.4035  151.9383 H   0  0  0  0  0  0  0  0  0  0  0  0  # atno 10167 bound_to 10162
  157.2608  130.7160  149.6453 H   0  0  0  0  0  0  0  0  0  0  0  0  # atno 10718 bound_to 10713
  153.5159  135.3608  155.2609 H   0  0  0  0  0  0  0  0  0  0  0  0  # atno 10763 bound_to 10752
  154.8739  135.4034  154.3316 H   0  0  0  0  0  0  0  0  0  0  0  0  # atno 10764 bound_to 10752
  153.3977  135.7074  153.6515 H   0  0  0  0  0  0  0  0  0  0  0  0  # atno 10765 bound_to 10752
  140.0095  134.9445  157.0248 H   0  0  0  0  0  0  0  0  0  0  0  0  # atno 11005 bound_to 11000
  144.7686  140.5587  143.6686 LP  0  0  0  0  0  0  0  0  0  0  0  0  # atno 17320 bound_to 7965
  145.5270  139.1476  143.3520 LP  0  0  0  0  0  0  0  0  0  0  0  0  # atno 17321 bound_to 7965
  140.3474  144.3130  150.5955 LP  0  0  0  0  0  0  0  0  0  0  0  0  # atno 17342 bound_to 10162
  140.5514  143.2206  151.7920 LP  0  0  0  0  0  0  0  0  0  0  0  0  # atno 17343 bound_to 10162
  155.9664  130.4398  150.5273 LP  0  0  0  0  0  0  0  0  0  0  0  0  # atno 17370 bound_to 10713
  157.3177  131.0676  151.1955 LP  0  0  0  0  0  0  0  0  0  0  0  0  # atno 17371 bound_to 10713
  140.4579  134.1514  155.7188 LP  0  0  0  0  0  0  0  0  0  0  0  0  # atno 17394 bound_to 11000
  141.1701  133.8625  157.1596 LP  0  0  0  0  0  0  0  0  0  0  0  0  # atno 17395 bound_to 11000

$$$$
