AV-unprocessed.smi:259|AV-procd|sdf|1974|dock8
  -GOLD-   2262021143D 1   1.00000     0.00000
 Structure written by MMmdl.
 54 57  0  0  0  0  0  0  0  0  1 V2000
  146.9372  128.3438  151.9058 C   0  0  0  0  0  0  0  0  0  0  0  0
  146.9463  129.7689  151.6132 N   0  0  0  0  0  0  0  0  0  0  0  0
  145.8552  130.5483  151.6242 C   0  0  0  0  0  0  0  0  0  0  0  0
  144.7312  130.1212  151.8893 O   0  0  0  0  0  0  0  0  0  0  0  0
  146.0746  132.0352  151.2981 C   0  0  0  0  0  0  0  0  0  0  0  0
  145.2658  133.0516  152.1515 C   0  0  2  0  0  0  0  0  0  0  0  0
  145.2786  132.5995  153.4954 O   0  0  0  0  0  0  0  0  0  0  0  0
  143.8060  133.2139  151.6545 C   0  0  0  0  0  0  0  0  0  0  0  0
  143.0739  134.3641  152.3629 C   0  0  0  0  0  0  0  0  0  0  0  0
  143.8706  135.6704  152.2604 C   0  0  0  0  0  0  0  0  0  0  0  0
  145.2245  135.4777  152.7745 N   0  0  0  0  0  0  0  0  0  0  0  0
  145.9389  136.5775  153.1229 C   0  0  0  0  0  0  0  0  0  0  0  0
  145.7341  137.7535  152.4706 N   0  0  0  0  0  0  0  0  0  0  0  0
  146.4432  138.8383  152.7957 C   0  0  0  0  0  0  0  0  0  0  0  0
  147.3898  138.9686  153.7271 N   0  0  0  0  0  0  0  0  0  0  0  0
  147.5936  137.7957  154.3922 C   0  0  0  0  0  0  0  0  0  0  0  0
  146.9174  136.5652  154.1572 C   0  0  0  0  0  0  0  0  0  0  0  0
  147.3833  135.5962  155.0379 N   0  0  0  0  0  0  0  0  0  0  0  0
  148.2906  136.2138  155.7432 C   0  0  0  0  0  0  0  0  0  0  0  0
  148.4771  137.5407  155.4274 N   0  0  0  0  0  0  0  0  0  0  0  0
  149.4182  138.4612  156.0473 C   0  0  0  0  0  0  0  0  0  0  0  0
  150.8957  138.1195  155.7788 C   0  0  0  0  0  0  0  0  0  0  0  0
  151.7576  139.3497  156.1282 C   0  0  0  0  0  0  0  0  0  0  0  0
  151.5237  140.4397  155.2585 O   0  0  0  0  0  0  0  0  0  0  0  0
  151.3904  136.7727  156.3261 C   0  0  0  0  0  0  0  0  0  0  0  0
  151.8507  136.3442  155.0256 O   0  0  0  0  0  0  0  0  0  0  0  0
  151.1670  137.4624  154.4177 C   0  0  0  0  0  0  0  0  0  0  0  0
  146.0016  134.4130  152.1377 C   0  0  0  0  0  0  0  0  0  0  0  0
  147.9471  127.9417  151.8267 H   0  0  0  0  0  0  0  0  0  0  0  0
  146.3000  127.8067  151.2020 H   0  0  0  0  0  0  0  0  0  0  0  0
  146.5741  128.1578  152.9173 H   0  0  0  0  0  0  0  0  0  0  0  0
  147.8372  130.1899  151.3919 H   0  0  0  0  0  0  0  0  0  0  0  0
  147.1419  132.2423  151.3882 H   0  0  0  0  0  0  0  0  0  0  0  0
  145.8317  132.1919  150.2458 H   0  0  0  0  0  0  0  0  0  0  0  0
  144.3899  132.5971  153.8186 H   0  0  0  0  0  0  0  0  0  0  0  0
  143.8130  133.4129  150.5820 H   0  0  0  0  0  0  0  0  0  0  0  0
  143.2406  132.2915  151.7899 H   0  0  0  0  0  0  0  0  0  0  0  0
  142.0819  134.4979  151.9313 H   0  0  0  0  0  0  0  0  0  0  0  0
  142.9220  134.1112  153.4130 H   0  0  0  0  0  0  0  0  0  0  0  0
  143.9204  136.0016  151.2221 H   0  0  0  0  0  0  0  0  0  0  0  0
  143.3582  136.4500  152.8260 H   0  0  0  0  0  0  0  0  0  0  0  0
  146.2204  139.7294  152.2275 H   0  0  0  0  0  0  0  0  0  0  0  0
  148.8506  135.7122  156.5187 H   0  0  0  0  0  0  0  0  0  0  0  0
  149.1856  139.4623  155.6824 H   0  0  0  0  0  0  0  0  0  0  0  0
  149.2214  138.4876  157.1196 H   0  0  0  0  0  0  0  0  0  0  0  0
  151.5617  139.6830  157.1477 H   0  0  0  0  0  0  0  0  0  0  0  0
  152.8207  139.1154  156.0698 H   0  0  0  0  0  0  0  0  0  0  0  0
  151.1296  141.1412  155.7545 H   0  0  0  0  0  0  0  0  0  0  0  0
  152.2002  136.8548  157.0521 H   0  0  0  0  0  0  0  0  0  0  0  0
  150.5979  136.1249  156.7018 H   0  0  0  0  0  0  0  0  0  0  0  0
  150.2657  137.1446  153.8914 H   0  0  0  0  0  0  0  0  0  0  0  0
  151.8130  138.0415  153.7570 H   0  0  0  0  0  0  0  0  0  0  0  0
  146.9853  134.3032  152.5931 H   0  0  0  0  0  0  0  0  0  0  0  0
  146.1806  134.7180  151.1057 H   0  0  0  0  0  0  0  0  0  0  0  0
  1  2  1  0  0  0  0
  1 29  1  0  0  0  0
  1 30  1  0  0  0  0
  1 31  1  0  0  0  0
  2  3  1  0  0  0  0
  2 32  1  0  0  0  0
  3  4  2  0  0  0  0
  3  5  1  0  0  0  0
  5  6  1  0  0  0  0
  5 33  1  0  0  0  0
  5 34  1  0  0  0  0
  6 28  1  0  0  0  0
  6  7  1  0  0  0  0
  6  8  1  0  0  0  0
  7 35  1  0  0  0  0
  8  9  1  0  0  0  0
  8 36  1  0  0  0  0
  8 37  1  0  0  0  0
  9 10  1  0  0  0  0
  9 38  1  0  0  0  0
  9 39  1  0  0  0  0
 10 11  1  0  0  0  0
 10 40  1  0  0  0  0
 10 41  1  0  0  0  0
 11 12  1  0  0  0  0
 11 28  1  0  0  0  0
 12 17  1  0  0  0  0
 12 13  2  0  0  0  0
 13 14  1  0  0  0  0
 14 15  2  0  0  0  0
 14 42  1  0  0  0  0
 15 16  1  0  0  0  0
 16 20  1  0  0  0  0
 16 17  2  0  0  0  0
 17 18  1  0  0  0  0
 18 19  2  0  0  0  0
 19 20  1  0  0  0  0
 19 43  1  0  0  0  0
 20 21  1  0  0  0  0
 21 22  1  0  0  0  0
 21 44  1  0  0  0  0
 21 45  1  0  0  0  0
 22 27  1  0  0  0  0
 22 23  1  0  0  0  0
 22 25  1  0  0  0  0
 23 24  1  0  0  0  0
 23 46  1  0  0  0  0
 23 47  1  0  0  0  0
 24 48  1  0  0  0  0
 25 26  1  0  0  0  0
 25 49  1  0  0  0  0
 25 50  1  0  0  0  0
 26 27  1  0  0  0  0
 27 51  1  0  0  0  0
 27 52  1  0  0  0  0
 28 53  1  0  0  0  0
 28 54  1  0  0  0  0
M  END
> <s_m_source_file>
AV-unprocessed.smi

> <i_m_source_file_index>
259

> <i_lp_mmshare_version>
43012

> <i_f3d_flags>
0

> <s_epik_input>
W0NIM11bTkhdQyg9TylbQ0gyXVtDQEBdMShbT0hdKVtDSDJdW0NIMl1bQ0gyXU4oW0NIMl0xKWMobltjSF1uMiljKGMyMyluW2NIXW4zW0NIMl1DNChbQ0gyXVtPSF0pW0NIMl1PW0NIMl00

> <s_epik_cmdline>
J2VwaWtfcHl0aG9uJywgJy1waCcsICc3LjAnLCAnLXRuJywgJzgnLCAnLW1hJywgJzIwMCcsICctbWV0YWxfYmluZGluZycsICctaW1hZScsICc8aW5maWxlLm1hZT4nLCAnLW9tYWUnLCAnPG91dGZpbGUubWFlPic=

> <r_lp_tautomer_probability>
1

> <r_epik_Ionization_Penalty>
0.00366363

> <r_epik_Ionization_Penalty_Charging>
0

> <r_epik_Ionization_Penalty_Neutral>
0.00366363

> <r_epik_State_Penalty>
0.00243014

> <r_epik_Charging_Adjusted_Penalty>
0.00243014

> <i_epik_Tot_Q>
0

> <i_epik_Tot_abs_Q>
0

> <r_epik_Metal_State_Penalty>
-0

> <b_epik_Metal_Only>
0

> <s_lp_Force_Field>
OPLS_2005

> <r_lp_Energy>
39.9433

> <b_lp_Chiralities_Consistent>
1

> <s_lp_Variant>
AV-unprocessed.smi:259-2

> <Gold.Version>
5.8.1

> <Gold.Id.Protein>
6NUR|6NUR_protein|mol2

> <Gold.PLP.Fitness>
41.5709

> <Gold.PLP.PLP>
-30.2314

> <Gold.PLP.part.hbond>
-3.6648

> <Gold.PLP.part.metal>
0.0000

> <Gold.PLP.part.buried>
-2.8932

> <Gold.PLP.part.nonpolar>
-26.1585

> <Gold.PLP.part.repulsive>
0.9657

> <Gold.PLP.ligand.clash>
0.0000

> <Gold.PLP.ligand.torsion>
1.4213

> <Gold.PLP.Chemscore.Hbond>
3.6915

> <Gold.PLP.Chemscore.CHOScore>
0.7701

> <Gold.PLP.Chemscore.Metal>
0.0000

> <Gold.Chemscore.Hbonds>
donor molecule, donor type, donor heavy atom, donor atom, acceptor molecule, acceptor atom, score
      L1  H     2    32       P1 10747  1.00
      L1  H     7    35       P1 10957  0.75
      P1  H  7989  7998       L1    24  0.86
      P1  H 10752 10763       L1    26  0.78
      L1  C    14    42       P1 10175  0.47

> <Gold.PLP.Chemscore.Internal.Correction>
0.7972

> <Gold.Rescore>
     Score         DG    S(hbond)    S(metal)    S(lipo)     H(rot)  DE(clash)    DE(int)     intcor
     11.75     -13.36       3.08        0.00      68.85       4.09       0.42       1.18       ----

> <Gold.Chemscore.Fitness>
11.7494

> <Gold.Chemscore.DG>
-13.3553

> <Gold.Chemscore.ZeroCoef>
-5.4800

> <Gold.Chemscore.Hbond>
3.0813

> <Gold.Chemscore.Metal>
0.0000

> <Gold.Chemscore.Lipo>
68.8524

> <Gold.Chemscore.Internal_Hbond>
0.0000

> <Gold.Chemscore.DEClash>
0.4237

> <Gold.Chemscore.DEInternal>
1.1822

> <Gold.Chemscore.Rot>
4.0906

> <Gold.Chemscore.Internal.Correction>
   9.000000E+99

> <Gold.Chemscore.Hbonds>
donor molecule, donor type, donor heavy atom, donor atom, acceptor molecule, acceptor atom, score
      L1  H     2    32       P1 10747  0.96
      L1  H     7    35       P1 10957  0.40
      P1  H  7989  7998       L1    24  0.68
      P1  H 10752 10763       L1    26  0.74

> <Gold.Chemscore.Hbond.Weighted>
-10.2915

> <Gold.Chemscore.Metal.Weighted>
-0.0000

> <Gold.Chemscore.Lipo.Weighted>
-8.0557

> <Gold.Chemscore.Internal_Hbond.Weighted>
0.0000

> <Gold.Chemscore.DEClash.Weighted>
0.4237

> <Gold.Chemscore.DEInternal.Weighted>
1.1822

> <Gold.Chemscore.Rot.Weighted>
10.4719

> <Gold.Chemscore.Internal.Correction.Weighted>
   9.000000E+99

> <Gold.Protein.RotatedTorsions>
[ 6907 6896 6895 6894 ] final -161.96 input  -60.11 | X-H torsion
[ 7974 7965 7964 7962 ] final  172.79 input  175.53 | X-H torsion
[ 8008 7997 7996 7995 ] final  -97.80 input   59.86 | X-H torsion
[ 10167 10162 10161 10158 ] final  159.71 input  -65.29 | X-H torsion
[ 10718 10713 10712 10709 ] final -150.05 input   66.30 | X-H torsion
[ 10763 10752 10751 10750 ] final   78.45 input  -60.55 | X-H torsion
[ 11005 11000 10999 10996 ] final    4.99 input  -57.11 | X-H torsion

> <Gold.Protein.ActiveResidues>
 VAL166  LYS551  ARG553  GLY616  TRP617  ASP618  TYR619  PRO620  LYS621  CYS622 
 ASP623  PHE694  ASN695  SER759  ASP760  ASP761  ALA762  ILE779  LEU786  VAL792 
 PHE793  MET794  SER795  GLU796  ALA797  LYS798  CYS799  TRP800  GLU811  SER814 

> <Gold.Protein.RotatedAtoms>
  151.3728  133.3848  159.2701 H   0  0  0  0  0  0  0  0  0  0  0  0  # atno 6907 bound_to 6896
  150.9637  134.9022  159.7757 H   0  0  0  0  0  0  0  0  0  0  0  0  # atno 6908 bound_to 6896
  152.5159  134.3688  159.9363 H   0  0  0  0  0  0  0  0  0  0  0  0  # atno 6909 bound_to 6896
  144.7259  139.9551  143.6433 H   0  0  0  0  0  0  0  0  0  0  0  0  # atno 7974 bound_to 7965
  154.7926  140.0460  157.1212 H   0  0  0  0  0  0  0  0  0  0  0  0  # atno 8008 bound_to 7997
  154.9573  140.3073  155.5027 H   0  0  0  0  0  0  0  0  0  0  0  0  # atno 8009 bound_to 7997
  156.2952  140.2277  156.4656 H   0  0  0  0  0  0  0  0  0  0  0  0  # atno 8010 bound_to 7997
  139.4834  144.4704  151.8584 H   0  0  0  0  0  0  0  0  0  0  0  0  # atno 10167 bound_to 10162
  156.4411  130.8122  151.2352 H   0  0  0  0  0  0  0  0  0  0  0  0  # atno 10718 bound_to 10713
  153.0876  135.4876  154.8626 H   0  0  0  0  0  0  0  0  0  0  0  0  # atno 10763 bound_to 10752
  154.7229  135.3043  154.9020 H   0  0  0  0  0  0  0  0  0  0  0  0  # atno 10764 bound_to 10752
  153.9679  135.6804  153.4799 H   0  0  0  0  0  0  0  0  0  0  0  0  # atno 10765 bound_to 10752
  140.5757  134.0060  155.8026 H   0  0  0  0  0  0  0  0  0  0  0  0  # atno 11005 bound_to 11000
  146.0681  139.3671  143.0540 LP  0  0  0  0  0  0  0  0  0  0  0  0  # atno 17320 bound_to 7965
  145.8004  140.9773  143.1002 LP  0  0  0  0  0  0  0  0  0  0  0  0  # atno 17321 bound_to 7965
  140.4173  144.2290  150.5887 LP  0  0  0  0  0  0  0  0  0  0  0  0  # atno 17342 bound_to 10162
  140.4908  143.2348  151.8821 LP  0  0  0  0  0  0  0  0  0  0  0  0  # atno 17343 bound_to 10162
  157.7506  131.0168  150.3558 LP  0  0  0  0  0  0  0  0  0  0  0  0  # atno 17370 bound_to 10713
  156.3916  130.3899  149.7025 LP  0  0  0  0  0  0  0  0  0  0  0  0  # atno 17371 bound_to 10713
  141.1028  133.9741  157.3049 LP  0  0  0  0  0  0  0  0  0  0  0  0  # atno 17394 bound_to 11000
  139.9341  135.0198  156.8497 LP  0  0  0  0  0  0  0  0  0  0  0  0  # atno 17395 bound_to 11000

$$$$
