AV-unprocessed.smi:2930|AV-procd|sdf|11241|dock6
  -GOLD-   2272016133D 1   1.00000     0.00000
 Structure written by MMmdl.
 40 41  0  0  0  0  0  0  0  0  1 V2000
  149.9498  132.1623  154.8298 C   0  0  0  0  0  0  0  0  0  0  0  0
  148.7225  132.9697  154.3852 C   0  0  1  0  0  0  0  0  0  0  0  0
  149.1292  134.3437  154.1007 N   0  0  0  0  0  0  0  0  0  0  0  0
  149.4357  135.2755  155.0150 C   0  0  0  0  0  0  0  0  0  0  0  0
  149.4121  135.0742  156.2287 O   0  0  0  0  0  0  0  0  0  0  0  0
  149.7441  136.4447  154.4292 N   0  0  0  0  0  0  0  0  0  0  0  0
  150.1312  137.6641  155.0466 C   0  0  0  0  0  0  0  0  0  0  0  0
  150.2282  138.9151  154.3918 C   0  0  0  0  0  0  0  0  0  0  0  0
  150.5861  140.0357  155.0548 N   0  0  0  0  0  0  0  0  0  0  0  0
  150.8469  139.9305  156.3645 C   0  0  0  0  0  0  0  0  0  0  0  0
  151.2216  141.0945  157.0419 N   0  0  0  0  0  0  0  0  0  0  0  0
  151.9777  141.0333  158.2896 C   0  0  0  0  0  0  0  0  0  0  0  0
  150.8699  142.4149  156.5273 C   0  0  0  0  0  0  0  0  0  0  0  0
  150.7737  138.7983  157.0772 N   0  0  0  0  0  0  0  0  0  0  0  0
  150.4145  137.6717  156.4267 C   0  0  0  0  0  0  0  0  0  0  0  0
  148.0470  132.3588  153.1559 C   0  0  0  0  0  0  0  0  0  0  0  0
  146.8307  133.0482  152.5170 C   0  0  0  0  0  0  0  0  0  0  0  0
  146.2775  131.6603  152.1830 C   0  0  0  0  0  0  0  0  0  0  0  0
  147.1627  131.1109  153.3050 C   0  0  0  0  0  0  0  0  0  0  0  0
  149.6751  131.1392  155.0874 H   0  0  0  0  0  0  0  0  0  0  0  0
  150.4149  132.6072  155.7101 H   0  0  0  0  0  0  0  0  0  0  0  0
  150.7025  132.1158  154.0419 H   0  0  0  0  0  0  0  0  0  0  0  0
  148.0186  132.9673  155.2195 H   0  0  0  0  0  0  0  0  0  0  0  0
  149.1720  134.6072  153.1273 H   0  0  0  0  0  0  0  0  0  0  0  0
  149.6446  136.4794  153.4251 H   0  0  0  0  0  0  0  0  0  0  0  0
  150.0048  139.0465  153.3447 H   0  0  0  0  0  0  0  0  0  0  0  0
  152.9314  140.5286  158.1314 H   0  0  0  0  0  0  0  0  0  0  0  0
  151.4184  140.4831  159.0468 H   0  0  0  0  0  0  0  0  0  0  0  0
  152.1886  142.0257  158.6881 H   0  0  0  0  0  0  0  0  0  0  0  0
  149.7866  142.5195  156.4586 H   0  0  0  0  0  0  0  0  0  0  0  0
  151.2937  142.5611  155.5333 H   0  0  0  0  0  0  0  0  0  0  0  0
  151.2414  143.2148  157.1676 H   0  0  0  0  0  0  0  0  0  0  0  0
  150.3569  136.7683  157.0158 H   0  0  0  0  0  0  0  0  0  0  0  0
  148.7823  132.1627  152.3720 H   0  0  0  0  0  0  0  0  0  0  0  0
  146.2150  133.5821  153.2430 H   0  0  0  0  0  0  0  0  0  0  0  0
  147.0624  133.6709  151.6526 H   0  0  0  0  0  0  0  0  0  0  0  0
  145.2059  131.5430  152.3470 H   0  0  0  0  0  0  0  0  0  0  0  0
  146.5792  131.3099  151.1947 H   0  0  0  0  0  0  0  0  0  0  0  0
  147.6607  130.1684  153.0753 H   0  0  0  0  0  0  0  0  0  0  0  0
  146.6461  131.0695  154.2654 H   0  0  0  0  0  0  0  0  0  0  0  0
  1  2  1  0  0  0  0
  1 20  1  0  0  0  0
  1 21  1  0  0  0  0
  1 22  1  0  0  0  0
  2  3  1  0  0  0  0
  2 16  1  0  0  0  0
  2 23  1  0  0  0  0
  3  4  1  0  0  0  0
  3 24  1  0  0  0  0
  4  5  2  0  0  0  0
  4  6  1  0  0  0  0
  6  7  1  0  0  0  0
  6 25  1  0  0  0  0
  7 15  1  0  0  0  0
  7  8  2  0  0  0  0
  8  9  1  0  0  0  0
  8 26  1  0  0  0  0
  9 10  2  0  0  0  0
 10 11  1  0  0  0  0
 10 14  1  0  0  0  0
 11 12  1  0  0  0  0
 11 13  1  0  0  0  0
 12 27  1  0  0  0  0
 12 28  1  0  0  0  0
 12 29  1  0  0  0  0
 13 30  1  0  0  0  0
 13 31  1  0  0  0  0
 13 32  1  0  0  0  0
 14 15  2  0  0  0  0
 15 33  1  0  0  0  0
 16 19  1  0  0  0  0
 16 17  1  0  0  0  0
 16 34  1  0  0  0  0
 17 18  1  0  0  0  0
 17 35  1  0  0  0  0
 17 36  1  0  0  0  0
 18 19  1  0  0  0  0
 18 37  1  0  0  0  0
 18 38  1  0  0  0  0
 19 39  1  0  0  0  0
 19 40  1  0  0  0  0
M  END
> <s_m_source_file>
AV-unprocessed.smi

> <i_m_source_file_index>
2930

> <i_lp_mmshare_version>
43012

> <i_f3d_flags>
0

> <s_epik_input>
W0NIMl0xW0NIMl1bQ0gyXVtDSF0xW0NASF0oW0NIM10pW05IXUMoPU8pW05IXWMyW2NIXW5jKE4oW0NIM10pW0NIM10pbltjSF0y

> <s_epik_cmdline>
J2VwaWtfcHl0aG9uJywgJy1waCcsICc3LjAnLCAnLXRuJywgJzgnLCAnLW1hJywgJzIwMCcsICctbWV0YWxfYmluZGluZycsICctaW1hZScsICc8aW5maWxlLm1hZT4nLCAnLW9tYWUnLCAnPG91dGZpbGUubWFlPic=

> <r_lp_tautomer_probability>
1

> <r_epik_Ionization_Penalty>
0.000323856

> <r_epik_Ionization_Penalty_Charging>
0

> <r_epik_Ionization_Penalty_Neutral>
0.000323856

> <r_epik_State_Penalty>
-0

> <r_epik_Charging_Adjusted_Penalty>
0

> <i_epik_Tot_Q>
0

> <i_epik_Tot_abs_Q>
0

> <r_epik_Metal_State_Penalty>
-0

> <b_epik_Metal_Only>
0

> <s_lp_Force_Field>
OPLS_2005

> <r_lp_Energy>
8.86729

> <b_lp_Chiralities_Consistent>
1

> <s_lp_Variant>
AV-unprocessed.smi:2930-2

> <Gold.Version>
5.8.1

> <Gold.Id.Protein>
6NUR|6NUR_protein|mol2

> <Gold.PLP.Fitness>
39.0997

> <Gold.PLP.PLP>
-30.5805

> <Gold.PLP.part.hbond>
-3.3356

> <Gold.PLP.part.metal>
0.0000

> <Gold.PLP.part.buried>
-4.2860

> <Gold.PLP.part.nonpolar>
-23.3200

> <Gold.PLP.part.repulsive>
0.1310

> <Gold.PLP.ligand.clash>
0.0000

> <Gold.PLP.ligand.torsion>
0.6056

> <Gold.PLP.Chemscore.Hbond>
2.2020

> <Gold.PLP.Chemscore.CHOScore>
1.0000

> <Gold.PLP.Chemscore.Metal>
0.0000

> <Gold.Chemscore.Hbonds>
donor molecule, donor type, donor heavy atom, donor atom, acceptor molecule, acceptor atom, score
      L1  H     3    24       P1  7948  0.40
      L1  H     6    25       P1  7948  1.00
      P1  H  7989  7998       L1     9  0.75
      L1  C     8    26       P1  7957  1.00

> <Gold.PLP.Chemscore.Internal.Correction>
0.1244

> <Gold.Rescore>
     Score         DG    S(hbond)    S(metal)    S(lipo)     H(rot)  DE(clash)    DE(int)     intcor
     12.87     -15.05       1.71        0.00      59.21       1.19       0.29       1.89       ----

> <Gold.Chemscore.Fitness>
12.8673

> <Gold.Chemscore.DG>
-15.0523

> <Gold.Chemscore.ZeroCoef>
-5.4800

> <Gold.Chemscore.Hbond>
1.7076

> <Gold.Chemscore.Metal>
0.0000

> <Gold.Chemscore.Lipo>
59.2114

> <Gold.Chemscore.Internal_Hbond>
0.0000

> <Gold.Chemscore.DEClash>
0.2946

> <Gold.Chemscore.DEInternal>
1.8904

> <Gold.Chemscore.Rot>
1.1949

> <Gold.Chemscore.Internal.Correction>
   9.000000E+99

> <Gold.Chemscore.Hbonds>
donor molecule, donor type, donor heavy atom, donor atom, acceptor molecule, acceptor atom, score
      L1  H     3    24       P1  7948  0.01
      L1  H     6    25       P1  7948  0.45
      P1  H  7989  7998       L1     9  0.11

> <Gold.Chemscore.Hbond.Weighted>
-5.7035

> <Gold.Chemscore.Metal.Weighted>
-0.0000

> <Gold.Chemscore.Lipo.Weighted>
-6.9277

> <Gold.Chemscore.Internal_Hbond.Weighted>
0.0000

> <Gold.Chemscore.DEClash.Weighted>
0.2946

> <Gold.Chemscore.DEInternal.Weighted>
1.8904

> <Gold.Chemscore.Rot.Weighted>
3.0590

> <Gold.Chemscore.Internal.Correction.Weighted>
   9.000000E+99

> <Gold.Protein.RotatedTorsions>
[ 6907 6896 6895 6894 ] final  -79.90 input  -60.11 | X-H torsion
[ 7974 7965 7964 7962 ] final   72.61 input  175.53 | X-H torsion
[ 8008 7997 7996 7995 ] final   59.74 input   59.86 | X-H torsion
[ 10167 10162 10161 10158 ] final  -84.86 input  -65.29 | X-H torsion
[ 10718 10713 10712 10709 ] final  -93.89 input   66.30 | X-H torsion
[ 10763 10752 10751 10750 ] final   76.55 input  -60.55 | X-H torsion
[ 11005 11000 10999 10996 ] final   77.17 input  -57.11 | X-H torsion

> <Gold.Protein.ActiveResidues>
 VAL166  LYS551  ARG553  GLY616  TRP617  ASP618  TYR619  PRO620  LYS621  CYS622 
 ASP623  PHE694  ASN695  SER759  ASP760  ASP761  ALA762  ILE779  LEU786  VAL792 
 PHE793  MET794  SER795  GLU796  ALA797  LYS798  CYS799  TRP800  GLU811  SER814 

> <Gold.Protein.RotatedAtoms>
  150.6940  134.4050  159.5135 H   0  0  0  0  0  0  0  0  0  0  0  0  # atno 6907 bound_to 6896
  152.1818  134.8745  160.0535 H   0  0  0  0  0  0  0  0  0  0  0  0  # atno 6908 bound_to 6896
  151.9733  133.3698  159.4116 H   0  0  0  0  0  0  0  0  0  0  0  0  # atno 6909 bound_to 6896
  145.7512  139.2761  143.1430 H   0  0  0  0  0  0  0  0  0  0  0  0  # atno 7974 bound_to 7965
  155.5710  140.3490  155.4515 H   0  0  0  0  0  0  0  0  0  0  0  0  # atno 8008 bound_to 7997
  156.0444  140.1303  157.0145 H   0  0  0  0  0  0  0  0  0  0  0  0  # atno 8009 bound_to 7997
  154.4406  140.1017  156.6269 H   0  0  0  0  0  0  0  0  0  0  0  0  # atno 8010 bound_to 7997
  140.4092  143.2630  151.9040 H   0  0  0  0  0  0  0  0  0  0  0  0  # atno 10167 bound_to 10162
  156.0019  130.5045  150.5844 H   0  0  0  0  0  0  0  0  0  0  0  0  # atno 10718 bound_to 10713
  153.0733  135.4947  154.8352 H   0  0  0  0  0  0  0  0  0  0  0  0  # atno 10763 bound_to 10752
  154.7053  135.3009  154.9281 H   0  0  0  0  0  0  0  0  0  0  0  0  # atno 10764 bound_to 10752
  153.9992  135.6768  153.4811 H   0  0  0  0  0  0  0  0  0  0  0  0  # atno 10765 bound_to 10752
  139.9266  134.7661  156.1487 H   0  0  0  0  0  0  0  0  0  0  0  0  # atno 11005 bound_to 11000
  146.0354  140.8217  142.9855 LP  0  0  0  0  0  0  0  0  0  0  0  0  # atno 17320 bound_to 7965
  144.6849  140.2831  143.7289 LP  0  0  0  0  0  0  0  0  0  0  0  0  # atno 17321 bound_to 7965
  139.4783  144.5554  151.8321 LP  0  0  0  0  0  0  0  0  0  0  0  0  # atno 17342 bound_to 10162
  140.4656  144.1659  150.5911 LP  0  0  0  0  0  0  0  0  0  0  0  0  # atno 17343 bound_to 10162
  157.3719  131.0767  151.1551 LP  0  0  0  0  0  0  0  0  0  0  0  0  # atno 17370 bound_to 10713
  157.2301  130.6521  149.5846 LP  0  0  0  0  0  0  0  0  0  0  0  0  # atno 17371 bound_to 10713
  141.0828  133.6747  156.2372 LP  0  0  0  0  0  0  0  0  0  0  0  0  # atno 17394 bound_to 11000
  140.6318  134.5256  157.5560 LP  0  0  0  0  0  0  0  0  0  0  0  0  # atno 17395 bound_to 11000

$$$$
