AV-unprocessed.smi:3205|AV-procd|sdf|12254|dock8
  -GOLD-   2272018 93D 1   1.00000     0.00000
 Structure written by MMmdl.
 38 39  0  0  0  0  0  0  0  0  2 V2000
  151.4624  144.6260  158.1912 C   0  0  0  0  0  0  0  0  0  0  0  0
  151.2686  143.2005  157.6356 C   0  0  2  0  0  0  0  0  0  0  0  0
  149.8234  142.9267  157.4547 N   0  3  0  0  0  0  0  0  0  0  0  0
  148.9860  143.1018  158.6598 C   0  0  0  0  0  0  0  0  0  0  0  0
  147.4984  142.9279  158.3198 C   0  0  0  0  0  0  0  0  0  0  0  0
  146.6401  143.3109  159.4246 N   0  0  0  0  0  0  0  0  0  0  0  0
  146.4100  144.5710  159.9355 C   0  0  0  0  0  0  0  0  0  0  0  0
  145.5400  144.4332  160.9788 C   0  0  0  0  0  0  0  0  0  0  0  0
  145.2958  143.0326  161.0332 C   0  0  0  0  0  0  0  0  0  0  0  0
  145.9588  142.3632  160.1037 N   0  0  0  0  0  0  0  0  0  0  0  0
  151.8970  142.1106  158.5448 C   0  0  0  0  0  0  0  0  0  0  0  0
  153.3245  142.4624  159.0153 C   0  0  0  0  0  0  0  0  0  0  0  0
  153.9447  141.3171  159.8330 C   0  0  0  0  0  0  0  0  0  0  0  0
  153.9514  140.1189  159.0679 O   0  0  0  0  0  0  0  0  0  0  0  0
  152.6431  139.6831  158.7227 C   0  0  0  0  0  0  0  0  0  0  0  0
  151.9582  140.7380  157.8395 C   0  0  0  0  0  0  0  0  0  0  0  0
  152.5152  144.9036  158.2324 H   0  0  0  0  0  0  0  0  0  0  0  0
  151.0523  144.7185  159.1975 H   0  0  0  0  0  0  0  0  0  0  0  0
  150.9766  145.3751  157.5669 H   0  0  0  0  0  0  0  0  0  0  0  0
  151.7521  143.1414  156.6590 H   0  0  0  0  0  0  0  0  0  0  0  0
  149.4798  143.5768  156.7621 H   0  0  0  0  0  0  0  0  0  0  0  0
  149.2750  142.3797  159.4234 H   0  0  0  0  0  0  0  0  0  0  0  0
  149.1592  144.0964  159.0732 H   0  0  0  0  0  0  0  0  0  0  0  0
  147.2308  143.5308  157.4509 H   0  0  0  0  0  0  0  0  0  0  0  0
  147.2878  141.8889  158.0623 H   0  0  0  0  0  0  0  0  0  0  0  0
  146.8782  145.4513  159.5200 H   0  0  0  0  0  0  0  0  0  0  0  0
  145.1403  145.2137  161.6092 H   0  0  0  0  0  0  0  0  0  0  0  0
  144.6624  142.4865  161.7166 H   0  0  0  0  0  0  0  0  0  0  0  0
  151.2718  142.0057  159.4333 H   0  0  0  0  0  0  0  0  0  0  0  0
  153.9578  142.6749  158.1528 H   0  0  0  0  0  0  0  0  0  0  0  0
  153.3213  143.3610  159.6314 H   0  0  0  0  0  0  0  0  0  0  0  0
  154.9709  141.5651  160.1050 H   0  0  0  0  0  0  0  0  0  0  0  0
  153.3982  141.1642  160.7650 H   0  0  0  0  0  0  0  0  0  0  0  0
  152.7187  138.7376  158.1858 H   0  0  0  0  0  0  0  0  0  0  0  0
  152.0601  139.4912  159.6248 H   0  0  0  0  0  0  0  0  0  0  0  0
  150.9585  140.3868  157.5835 H   0  0  0  0  0  0  0  0  0  0  0  0
  152.5052  140.8287  156.8999 H   0  0  0  0  0  0  0  0  0  0  0  0
  149.7082  141.9892  157.0966 H   0  0  0  0  0  0  0  0  0  0  0  0
  1  2  1  0  0  0  0
  1 17  1  0  0  0  0
  1 18  1  0  0  0  0
  1 19  1  0  0  0  0
  2  3  1  0  0  0  0
  2 11  1  0  0  0  0
  2 20  1  0  0  0  0
  3  4  1  0  0  0  0
  3 21  1  0  0  0  0
  3 38  1  0  0  0  0
  4  5  1  0  0  0  0
  4 22  1  0  0  0  0
  4 23  1  0  0  0  0
  5  6  1  0  0  0  0
  5 24  1  0  0  0  0
  5 25  1  0  0  0  0
  6 10  1  0  0  0  0
  6  7  1  0  0  0  0
  7  8  2  0  0  0  0
  7 26  1  0  0  0  0
  8  9  1  0  0  0  0
  8 27  1  0  0  0  0
  9 10  2  0  0  0  0
  9 28  1  0  0  0  0
 11 16  1  0  0  0  0
 11 12  1  0  0  0  0
 11 29  1  0  0  0  0
 12 13  1  0  0  0  0
 12 30  1  0  0  0  0
 12 31  1  0  0  0  0
 13 14  1  0  0  0  0
 13 32  1  0  0  0  0
 13 33  1  0  0  0  0
 14 15  1  0  0  0  0
 15 16  1  0  0  0  0
 15 34  1  0  0  0  0
 15 35  1  0  0  0  0
 16 36  1  0  0  0  0
 16 37  1  0  0  0  0
M  CHG  1   3   1
M  END
> <s_m_source_file>
AV-unprocessed.smi

> <i_m_source_file_index>
3205

> <i_lp_mmshare_version>
43012

> <i_f3d_flags>
0

> <s_epik_input>
W0NIMl0xW0NIMl1PW0NIMl1bQ0gyXVtDSF0xW0NASF0oW0NIM10pW05IXVtDSDJdW0NIMl1uMltjSF1bY0hdW2NIXW4y

> <s_epik_cmdline>
J2VwaWtfcHl0aG9uJywgJy1waCcsICc3LjAnLCAnLXRuJywgJzgnLCAnLW1hJywgJzIwMCcsICctbWV0YWxfYmluZGluZycsICctaW1hZScsICc8aW5maWxlLm1hZT4nLCAnLW9tYWUnLCAnPG91dGZpbGUubWFlPic=

> <r_lp_tautomer_probability>
1

> <r_epik_Ionization_Penalty>
0.00310903

> <r_epik_Ionization_Penalty_Charging>
0.00310601

> <r_epik_Ionization_Penalty_Neutral>
3.02836e-06

> <r_epik_State_Penalty>
-0

> <r_epik_Charging_Adjusted_Penalty>
0.00310601

> <i_epik_Tot_Q>
1

> <i_epik_Tot_abs_Q>
1

> <r_epik_Metal_State_Penalty>
-0

> <b_epik_Metal_Only>
0

> <s_lp_Force_Field>
OPLS_2005

> <r_lp_Energy>
15.8656

> <b_lp_Chiralities_Consistent>
1

> <s_lp_Variant>
AV-unprocessed.smi:3205-1

> <Gold.Version>
5.8.1

> <Gold.Id.Protein>
6NUR|6NUR_protein|mol2

> <Gold.PLP.Fitness>
44.8307

> <Gold.PLP.PLP>
-30.4155

> <Gold.PLP.part.hbond>
-3.0000

> <Gold.PLP.part.metal>
0.0000

> <Gold.PLP.part.buried>
-4.1011

> <Gold.PLP.part.nonpolar>
-22.2200

> <Gold.PLP.part.repulsive>
0.0224

> <Gold.PLP.ligand.clash>
0.0000

> <Gold.PLP.ligand.torsion>
0.2813

> <Gold.PLP.Chemscore.Hbond>
3.9760

> <Gold.PLP.Chemscore.CHOScore>
1.0000

> <Gold.PLP.Chemscore.Metal>
0.0000

> <Gold.Chemscore.Hbonds>
donor molecule, donor type, donor heavy atom, donor atom, acceptor molecule, acceptor atom, score
      L1  H     3    21       P1  8028  2.00
      P1  H  6934  6946       L1    10  1.00
      P1  H  7997  8009       L1    14  0.97
      L1  C     7    26       P1  8029  1.00

> <Gold.PLP.Chemscore.Internal.Correction>
0.0498

> <Gold.Rescore>
     Score         DG    S(hbond)    S(metal)    S(lipo)     H(rot)  DE(clash)    DE(int)     intcor
     19.18     -19.77       2.58        0.00      84.69       1.66       0.23       0.36       ----

> <Gold.Chemscore.Fitness>
19.1834

> <Gold.Chemscore.DG>
-19.7697

> <Gold.Chemscore.ZeroCoef>
-5.4800

> <Gold.Chemscore.Hbond>
2.5836

> <Gold.Chemscore.Metal>
0.0000

> <Gold.Chemscore.Lipo>
84.6909

> <Gold.Chemscore.Internal_Hbond>
0.0000

> <Gold.Chemscore.DEClash>
0.2273

> <Gold.Chemscore.DEInternal>
0.3591

> <Gold.Chemscore.Rot>
1.6594

> <Gold.Chemscore.Internal.Correction>
   9.000000E+99

> <Gold.Chemscore.Hbonds>
donor molecule, donor type, donor heavy atom, donor atom, acceptor molecule, acceptor atom, score
      L1  H     3    21       P1  8028  0.98
      P1  H  6934  6946       L1    10  0.87
      P1  H  7997  8009       L1    14  0.22

> <Gold.Chemscore.Hbond.Weighted>
-8.6291

> <Gold.Chemscore.Metal.Weighted>
-0.0000

> <Gold.Chemscore.Lipo.Weighted>
-9.9088

> <Gold.Chemscore.Internal_Hbond.Weighted>
0.0000

> <Gold.Chemscore.DEClash.Weighted>
0.2273

> <Gold.Chemscore.DEInternal.Weighted>
0.3591

> <Gold.Chemscore.Rot.Weighted>
4.2482

> <Gold.Chemscore.Internal.Correction.Weighted>
   9.000000E+99

> <Gold.Protein.RotatedTorsions>
[ 6907 6896 6895 6894 ] final   69.00 input  -60.11 | X-H torsion
[ 7974 7965 7964 7962 ] final  149.64 input  175.53 | X-H torsion
[ 8008 7997 7996 7995 ] final  135.78 input   59.86 | X-H torsion
[ 10167 10162 10161 10158 ] final   46.18 input  -65.29 | X-H torsion
[ 10718 10713 10712 10709 ] final   31.75 input   66.30 | X-H torsion
[ 10763 10752 10751 10750 ] final  -89.57 input  -60.55 | X-H torsion
[ 11005 11000 10999 10996 ] final -151.08 input  -57.11 | X-H torsion

> <Gold.Protein.ActiveResidues>
 VAL166  LYS551  ARG553  GLY616  TRP617  ASP618  TYR619  PRO620  LYS621  CYS622 
 ASP623  PHE694  ASN695  SER759  ASP760  ASP761  ALA762  ILE779  LEU786  VAL792 
 PHE793  MET794  SER795  GLU796  ALA797  LYS798  CYS799  TRP800  GLU811  SER814 

> <Gold.Protein.RotatedAtoms>
  152.4657  134.5080  159.9744 H   0  0  0  0  0  0  0  0  0  0  0  0  # atno 6907 bound_to 6896
  151.5118  133.3477  159.2894 H   0  0  0  0  0  0  0  0  0  0  0  0  # atno 6908 bound_to 6896
  150.8641  134.8028  159.7167 H   0  0  0  0  0  0  0  0  0  0  0  0  # atno 6909 bound_to 6896
  144.8423  139.6306  143.6011 H   0  0  0  0  0  0  0  0  0  0  0  0  # atno 7974 bound_to 7965
  156.3003  140.2462  156.3637 H   0  0  0  0  0  0  0  0  0  0  0  0  # atno 8008 bound_to 7997
  154.8853  140.0411  157.1826 H   0  0  0  0  0  0  0  0  0  0  0  0  # atno 8009 bound_to 7997
  154.8653  140.2927  155.5518 H   0  0  0  0  0  0  0  0  0  0  0  0  # atno 8010 bound_to 7997
  140.3166  144.2756  150.6190 H   0  0  0  0  0  0  0  0  0  0  0  0  # atno 10167 bound_to 10162
  157.2764  130.7233  149.6532 H   0  0  0  0  0  0  0  0  0  0  0  0  # atno 10718 bound_to 10713
  154.6567  135.5336  153.7967 H   0  0  0  0  0  0  0  0  0  0  0  0  # atno 10763 bound_to 10752
  153.0417  135.6495  154.0935 H   0  0  0  0  0  0  0  0  0  0  0  0  # atno 10764 bound_to 10752
  154.0847  135.2944  155.3263 H   0  0  0  0  0  0  0  0  0  0  0  0  # atno 10765 bound_to 10752
  140.7334  134.3596  157.5162 H   0  0  0  0  0  0  0  0  0  0  0  0  # atno 11005 bound_to 11000
  146.2713  139.6643  142.9294 LP  0  0  0  0  0  0  0  0  0  0  0  0  # atno 17320 bound_to 7965
  145.4668  141.0435  143.2720 LP  0  0  0  0  0  0  0  0  0  0  0  0  # atno 17321 bound_to 7965
  140.5521  143.2205  151.7909 LP  0  0  0  0  0  0  0  0  0  0  0  0  # atno 17342 bound_to 10162
  139.4882  144.4462  151.9707 LP  0  0  0  0  0  0  0  0  0  0  0  0  # atno 17343 bound_to 10162
  155.9664  130.4351  150.5079 LP  0  0  0  0  0  0  0  0  0  0  0  0  # atno 17370 bound_to 10713
  157.3014  131.0646  151.2065 LP  0  0  0  0  0  0  0  0  0  0  0  0  # atno 17371 bound_to 10713
  139.8821  134.9033  156.2852 LP  0  0  0  0  0  0  0  0  0  0  0  0  # atno 17394 bound_to 11000
  140.9901  133.7214  156.0801 LP  0  0  0  0  0  0  0  0  0  0  0  0  # atno 17395 bound_to 11000

$$$$
