AV-unprocessed.smi:1209|AV-procd|sdf|5073|dock8
  -GOLD-   22720 4123D 1   1.00000     0.00000
 Structure written by MMmdl.
 49 51  0  0  0  0  0  0  0  0  2 V2000
  145.0722  135.9651  149.9375 C   0  0  0  0  0  0  0  0  0  0  0  0
  145.8527  137.1597  150.3678 C   0  0  0  0  0  0  0  0  0  0  0  0
  146.1470  137.6885  151.5923 C   0  0  0  0  0  0  0  0  0  0  0  0
  146.9301  138.8346  151.2836 C   0  0  0  0  0  0  0  0  0  0  0  0
  147.5416  139.8271  152.2350 C   0  0  0  0  0  0  0  0  0  0  0  0
  146.5265  140.4301  153.1373 N   0  3  1  0  0  0  0  0  0  0  0  0
  146.0147  139.4679  154.1457 C   0  0  0  0  0  0  0  0  0  0  0  0
  146.9965  141.7034  153.7455 C   0  0  0  0  0  0  0  0  0  0  0  0
  147.8522  141.4751  155.0078 C   0  0  2  0  0  0  0  0  0  0  0  0
  147.3543  142.2960  156.0478 O   0  0  0  0  0  0  0  0  0  0  0  0
  149.3380  141.8027  154.7603 C   0  0  0  0  0  0  0  0  0  0  0  0
  150.2261  141.0349  155.6153 N   0  0  0  0  0  0  0  0  0  0  0  0
  150.6407  139.7683  155.4206 C   0  0  0  0  0  0  0  0  0  0  0  0
  151.4525  139.2458  156.3348 N   0  0  0  0  0  0  0  0  0  0  0  0
  151.5815  140.2966  157.2268 C   0  0  0  0  0  0  0  0  0  0  0  0
  152.3127  140.3919  158.4309 C   0  0  0  0  0  0  0  0  0  0  0  0
  152.2989  141.5803  159.1952 C   0  0  0  0  0  0  0  0  0  0  0  0
  153.0964  141.6366  160.4863 C   0  0  0  0  0  0  0  0  0  0  0  0
  151.5471  142.6993  158.7552 C   0  0  0  0  0  0  0  0  0  0  0  0
  151.5190  143.9868  159.5595 C   0  0  0  0  0  0  0  0  0  0  0  0
  150.8106  142.6211  157.5546 C   0  0  0  0  0  0  0  0  0  0  0  0
  150.8297  141.4319  156.8042 C   0  0  0  0  0  0  0  0  0  0  0  0
  147.0889  138.9836  149.9786 N   0  0  0  0  0  0  0  0  0  0  0  0
  146.4079  137.9151  149.3854 O   0  0  0  0  0  0  0  0  0  0  0  0
  144.5110  135.5449  150.7724 H   0  0  0  0  0  0  0  0  0  0  0  0
  145.7339  135.1901  149.5503 H   0  0  0  0  0  0  0  0  0  0  0  0
  144.3623  136.2280  149.1530 H   0  0  0  0  0  0  0  0  0  0  0  0
  145.8454  137.3134  152.5593 H   0  0  0  0  0  0  0  0  0  0  0  0
  148.3342  139.3684  152.8290 H   0  0  0  0  0  0  0  0  0  0  0  0
  148.0187  140.6107  151.6452 H   0  0  0  0  0  0  0  0  0  0  0  0
  146.8210  139.1111  154.7878 H   0  0  0  0  0  0  0  0  0  0  0  0
  145.5541  138.6030  153.6689 H   0  0  0  0  0  0  0  0  0  0  0  0
  145.2528  139.9167  154.7813 H   0  0  0  0  0  0  0  0  0  0  0  0
  147.5550  142.2716  153.0000 H   0  0  0  0  0  0  0  0  0  0  0  0
  146.1455  142.3272  154.0232 H   0  0  0  0  0  0  0  0  0  0  0  0
  147.7788  140.4380  155.3334 H   0  0  0  0  0  0  0  0  0  0  0  0
  147.7066  143.1669  155.9437 H   0  0  0  0  0  0  0  0  0  0  0  0
  149.6010  141.5925  153.7227 H   0  0  0  0  0  0  0  0  0  0  0  0
  149.5309  142.8645  154.9195 H   0  0  0  0  0  0  0  0  0  0  0  0
  150.3263  139.1962  154.5599 H   0  0  0  0  0  0  0  0  0  0  0  0
  152.8859  139.5396  158.7652 H   0  0  0  0  0  0  0  0  0  0  0  0
  153.8714  142.4006  160.4235 H   0  0  0  0  0  0  0  0  0  0  0  0
  153.5821  140.6834  160.6961 H   0  0  0  0  0  0  0  0  0  0  0  0
  152.4455  141.8714  161.3285 H   0  0  0  0  0  0  0  0  0  0  0  0
  150.9311  144.7564  159.0588 H   0  0  0  0  0  0  0  0  0  0  0  0
  152.5288  144.3748  159.6962 H   0  0  0  0  0  0  0  0  0  0  0  0
  151.0780  143.8134  160.5413 H   0  0  0  0  0  0  0  0  0  0  0  0
  150.2324  143.4657  157.2109 H   0  0  0  0  0  0  0  0  0  0  0  0
  145.7465  140.6805  152.5456 H   0  0  0  0  0  0  0  0  0  0  0  0
  1  2  1  0  0  0  0
  1 25  1  0  0  0  0
  1 26  1  0  0  0  0
  1 27  1  0  0  0  0
  2 24  1  0  0  0  0
  2  3  2  0  0  0  0
  3  4  1  0  0  0  0
  3 28  1  0  0  0  0
  4  5  1  0  0  0  0
  4 23  2  0  0  0  0
  5  6  1  0  0  0  0
  5 29  1  0  0  0  0
  5 30  1  0  0  0  0
  6  7  1  0  0  0  0
  6  8  1  0  0  0  0
  6 49  1  0  0  0  0
  7 31  1  0  0  0  0
  7 32  1  0  0  0  0
  7 33  1  0  0  0  0
  8  9  1  0  0  0  0
  8 34  1  0  0  0  0
  8 35  1  0  0  0  0
  9 10  1  0  0  0  0
  9 11  1  0  0  0  0
  9 36  1  0  0  0  0
 10 37  1  0  0  0  0
 11 12  1  0  0  0  0
 11 38  1  0  0  0  0
 11 39  1  0  0  0  0
 12 22  1  0  0  0  0
 12 13  1  0  0  0  0
 13 14  2  0  0  0  0
 13 40  1  0  0  0  0
 14 15  1  0  0  0  0
 15 22  2  0  0  0  0
 15 16  1  0  0  0  0
 16 17  2  0  0  0  0
 16 41  1  0  0  0  0
 17 18  1  0  0  0  0
 17 19  1  0  0  0  0
 18 42  1  0  0  0  0
 18 43  1  0  0  0  0
 18 44  1  0  0  0  0
 19 20  1  0  0  0  0
 19 21  2  0  0  0  0
 20 45  1  0  0  0  0
 20 46  1  0  0  0  0
 20 47  1  0  0  0  0
 21 22  1  0  0  0  0
 21 48  1  0  0  0  0
 23 24  1  0  0  0  0
M  CHG  1   6   1
M  END
> <s_m_source_file>
AV-unprocessed.smi

> <i_m_source_file_index>
1209

> <i_lp_mmshare_version>
43012

> <i_f3d_flags>
0

> <s_epik_input>
W0NIM11jMVtjSF1jKG5vMSlbQ0gyXU4oW0NIM10pW0NIMl1bQ0BIXShbT0hdKVtDSDJdbihbY0hdbjIpYyhjMjMpW2NIXWMoW0NIM10pYyhbY0hdMylbQ0gzXQ==

> <s_epik_cmdline>
J2VwaWtfcHl0aG9uJywgJy1waCcsICc3LjAnLCAnLXRuJywgJzgnLCAnLW1hJywgJzIwMCcsICctbWV0YWxfYmluZGluZycsICctaW1hZScsICc8aW5maWxlLm1hZT4nLCAnLW9tYWUnLCAnPG91dGZpbGUubWFlPic=

> <r_epik_Ionization_Penalty>
2.05249

> <r_epik_Ionization_Penalty_Charging>
1.96618

> <r_epik_Ionization_Penalty_Neutral>
0.0863156

> <r_epik_State_Penalty>
2.19215

> <r_epik_Charging_Adjusted_Penalty>
4.15833

> <i_epik_Tot_Q>
1

> <i_epik_Tot_abs_Q>
1

> <r_epik_Metal_State_Penalty>
2.17654

> <b_epik_Metal_Only>
0

> <s_lp_Force_Field>
OPLS_2005

> <r_lp_Energy>
10.2768

> <b_lp_Chiralities_Consistent>
1

> <s_lp_Variant>
AV-unprocessed.smi:1209-5

> <Gold.Version>
5.8.1

> <Gold.Id.Protein>
6NUR|6NUR_protein|mol2

> <Gold.PLP.Fitness>
54.3734

> <Gold.PLP.PLP>
-45.4195

> <Gold.PLP.part.hbond>
-3.5641

> <Gold.PLP.part.metal>
0.0000

> <Gold.PLP.part.buried>
2.2565

> <Gold.PLP.part.nonpolar>
-47.1821

> <Gold.PLP.part.repulsive>
3.9348

> <Gold.PLP.ligand.clash>
0.0000

> <Gold.PLP.ligand.torsion>
1.6529

> <Gold.PLP.Chemscore.Hbond>
4.0000

> <Gold.PLP.Chemscore.CHOScore>
0.0000

> <Gold.PLP.Chemscore.Metal>
0.0000

> <Gold.Chemscore.Hbonds>
donor molecule, donor type, donor heavy atom, donor atom, acceptor molecule, acceptor atom, score
      L1  H     6    49       P1 10175  1.51
      L1  H    10    37       P1  8028  0.90

> <Gold.PLP.Chemscore.Internal.Correction>
0.2597

> <Gold.Rescore>
     Score         DG    S(hbond)    S(metal)    S(lipo)     H(rot)  DE(clash)    DE(int)     intcor
     16.35     -21.04       2.32        0.00     122.16       2.53       2.80       1.89       ----

> <Gold.Chemscore.Fitness>
16.3540

> <Gold.Chemscore.DG>
-21.0425

> <Gold.Chemscore.ZeroCoef>
-5.4800

> <Gold.Chemscore.Hbond>
2.3217

> <Gold.Chemscore.Metal>
0.0000

> <Gold.Chemscore.Lipo>
122.1629

> <Gold.Chemscore.Internal_Hbond>
0.0000

> <Gold.Chemscore.DEClash>
2.8006

> <Gold.Chemscore.DEInternal>
1.8879

> <Gold.Chemscore.Rot>
2.5332

> <Gold.Chemscore.Internal.Correction>
   9.000000E+99

> <Gold.Chemscore.Hbonds>
donor molecule, donor type, donor heavy atom, donor atom, acceptor molecule, acceptor atom, score
      L1  H     6    49       P1 10175  0.25
      L1  H    10    37       P1  8028  0.18

> <Gold.Chemscore.Hbond.Weighted>
-7.7545

> <Gold.Chemscore.Metal.Weighted>
-0.0000

> <Gold.Chemscore.Lipo.Weighted>
-14.2931

> <Gold.Chemscore.Internal_Hbond.Weighted>
0.0000

> <Gold.Chemscore.DEClash.Weighted>
2.8006

> <Gold.Chemscore.DEInternal.Weighted>
1.8879

> <Gold.Chemscore.Rot.Weighted>
6.4851

> <Gold.Chemscore.Internal.Correction.Weighted>
   9.000000E+99

> <Gold.Protein.RotatedTorsions>
[ 6907 6896 6895 6894 ] final  -99.30 input  -60.11 | X-H torsion
[ 7974 7965 7964 7962 ] final   14.71 input  175.53 | X-H torsion
[ 8008 7997 7996 7995 ] final  -61.00 input   59.86 | X-H torsion
[ 10167 10162 10161 10158 ] final  -17.08 input  -65.29 | X-H torsion
[ 10718 10713 10712 10709 ] final   27.64 input   66.30 | X-H torsion
[ 10763 10752 10751 10750 ] final  100.96 input  -60.55 | X-H torsion
[ 11005 11000 10999 10996 ] final  141.40 input  -57.11 | X-H torsion

> <Gold.Protein.ActiveResidues>
 VAL166  LYS551  ARG553  GLY616  TRP617  ASP618  TYR619  PRO620  LYS621  CYS622 
 ASP623  PHE694  ASN695  SER759  ASP760  ASP761  ALA762  ILE779  LEU786  VAL792 
 PHE793  MET794  SER795  GLU796  ALA797  LYS798  CYS799  TRP800  GLU811  SER814 

> <Gold.Protein.RotatedAtoms>
  150.7075  134.1061  159.3983 H   0  0  0  0  0  0  0  0  0  0  0  0  # atno 6907 bound_to 6896
  151.9048  135.0361  160.0519 H   0  0  0  0  0  0  0  0  0  0  0  0  # atno 6908 bound_to 6896
  152.2385  133.5080  159.5293 H   0  0  0  0  0  0  0  0  0  0  0  0  # atno 6909 bound_to 6896
  146.2298  139.9002  142.8540 H   0  0  0  0  0  0  0  0  0  0  0  0  # atno 7974 bound_to 7965
  154.4426  140.1027  156.6361 H   0  0  0  0  0  0  0  0  0  0  0  0  # atno 8008 bound_to 7997
  155.5552  140.3486  155.4459 H   0  0  0  0  0  0  0  0  0  0  0  0  # atno 8009 bound_to 7997
  156.0500  140.1302  157.0050 H   0  0  0  0  0  0  0  0  0  0  0  0  # atno 8010 bound_to 7997
  140.7242  143.5051  150.9819 H   0  0  0  0  0  0  0  0  0  0  0  0  # atno 10167 bound_to 10162
  157.2229  130.6987  149.6278 H   0  0  0  0  0  0  0  0  0  0  0  0  # atno 10718 bound_to 10713
  153.3206  135.4061  155.1413 H   0  0  0  0  0  0  0  0  0  0  0  0  # atno 10763 bound_to 10752
  154.8599  135.3586  154.5602 H   0  0  0  0  0  0  0  0  0  0  0  0  # atno 10764 bound_to 10752
  153.6035  135.7070  153.5434 H   0  0  0  0  0  0  0  0  0  0  0  0  # atno 10765 bound_to 10752
  140.0398  134.9310  157.0822 H   0  0  0  0  0  0  0  0  0  0  0  0  # atno 11005 bound_to 11000
  145.2331  140.9981  143.3979 LP  0  0  0  0  0  0  0  0  0  0  0  0  # atno 17320 bound_to 7965
  144.9514  139.4079  143.6401 LP  0  0  0  0  0  0  0  0  0  0  0  0  # atno 17321 bound_to 7965
  139.8763  143.7129  152.3161 LP  0  0  0  0  0  0  0  0  0  0  0  0  # atno 17342 bound_to 10162
  139.7395  144.7563  151.0674 LP  0  0  0  0  0  0  0  0  0  0  0  0  # atno 17343 bound_to 10162
  155.9681  130.4514  150.5734 LP  0  0  0  0  0  0  0  0  0  0  0  0  # atno 17370 bound_to 10713
  157.3558  131.0741  151.1677 LP  0  0  0  0  0  0  0  0  0  0  0  0  # atno 17371 bound_to 10713
  140.4087  134.2004  155.7163 LP  0  0  0  0  0  0  0  0  0  0  0  0  # atno 17394 bound_to 11000
  141.1877  133.8276  157.1022 LP  0  0  0  0  0  0  0  0  0  0  0  0  # atno 17395 bound_to 11000

$$$$
