AV-unprocessed.smi:630|AV-procd|sdf|3117|dock5
  -GOLD-   22720 0 43D 1   1.00000     0.00000
 Structure written by MMmdl.
 37 38  0  0  0  0  0  0  0  0  1 V2000
  145.1366  136.0896  149.9007 N   0  0  0  0  0  0  0  0  0  0  0  0
  145.4473  135.5656  151.0894 C   0  0  0  0  0  0  0  0  0  0  0  0
  145.3454  136.2091  152.1320 O   0  0  0  0  0  0  0  0  0  0  0  0
  145.9467  134.1080  151.1115 C   0  0  2  0  0  0  0  0  0  0  0  0
  144.8764  133.2000  150.4586 C   0  0  0  0  0  0  0  0  0  0  0  0
  145.4290  131.8385  150.0061 C   0  0  0  0  0  0  0  0  0  0  0  0
  145.3940  130.7334  151.0741 C   0  0  0  0  0  0  0  0  0  0  0  0
  145.7068  131.1731  152.5140 C   0  0  0  0  0  0  0  0  0  0  0  0
  146.8379  132.2044  152.6566 C   0  0  0  0  0  0  0  0  0  0  0  0
  146.3549  133.6701  152.5478 C   0  0  1  0  0  0  0  0  0  0  0  0
  147.4129  134.5517  153.0501 N   0  0  0  0  0  0  0  0  0  0  0  0
  147.8166  134.6403  154.3263 C   0  0  0  0  0  0  0  0  0  0  0  0
  147.3598  133.9460  155.2348 O   0  0  0  0  0  0  0  0  0  0  0  0
  148.7704  135.5770  154.4683 N   0  0  0  0  0  0  0  0  0  0  0  0
  149.4328  135.9827  155.6564 C   0  0  0  0  0  0  0  0  0  0  0  0
  148.9341  135.8307  156.8889 N   0  0  0  0  0  0  0  0  0  0  0  0
  149.7996  136.3218  157.8693 C   0  0  0  0  0  0  0  0  0  0  0  0
  150.9620  136.8473  157.3622 C   0  0  0  0  0  0  0  0  0  0  0  0
  151.0159  136.7457  155.6225 S   0  0  0  0  0  0  0  0  0  0  0  0
  144.8019  137.0408  149.8467 H   0  0  0  0  0  0  0  0  0  0  0  0
  145.2324  135.5352  149.0625 H   0  0  0  0  0  0  0  0  0  0  0  0
  146.8403  134.0687  150.4855 H   0  0  0  0  0  0  0  0  0  0  0  0
  144.0163  133.0683  151.1167 H   0  0  0  0  0  0  0  0  0  0  0  0
  144.4884  133.6992  149.5688 H   0  0  0  0  0  0  0  0  0  0  0  0
  144.8552  131.4900  149.1466 H   0  0  0  0  0  0  0  0  0  0  0  0
  146.4478  131.9605  149.6368 H   0  0  0  0  0  0  0  0  0  0  0  0
  144.4095  130.2639  151.0703 H   0  0  0  0  0  0  0  0  0  0  0  0
  146.0922  129.9498  150.7775 H   0  0  0  0  0  0  0  0  0  0  0  0
  144.8024  131.5579  152.9867 H   0  0  0  0  0  0  0  0  0  0  0  0
  145.9674  130.2810  153.0848 H   0  0  0  0  0  0  0  0  0  0  0  0
  147.2753  132.0601  153.6458 H   0  0  0  0  0  0  0  0  0  0  0  0
  147.6422  132.0012  151.9483 H   0  0  0  0  0  0  0  0  0  0  0  0
  145.4816  133.7853  153.1933 H   0  0  0  0  0  0  0  0  0  0  0  0
  147.8522  135.1581  152.3736 H   0  0  0  0  0  0  0  0  0  0  0  0
  149.0465  136.0663  153.6301 H   0  0  0  0  0  0  0  0  0  0  0  0
  149.5077  136.2568  158.9071 H   0  0  0  0  0  0  0  0  0  0  0  0
  151.7863  137.2862  157.9044 H   0  0  0  0  0  0  0  0  0  0  0  0
  1  2  1  0  0  0  0
  1 20  1  0  0  0  0
  1 21  1  0  0  0  0
  2  3  2  0  0  0  0
  2  4  1  0  0  0  0
  4 10  1  0  0  0  0
  4  5  1  0  0  0  0
  4 22  1  0  0  0  0
  5  6  1  0  0  0  0
  5 23  1  0  0  0  0
  5 24  1  0  0  0  0
  6  7  1  0  0  0  0
  6 25  1  0  0  0  0
  6 26  1  0  0  0  0
  7  8  1  0  0  0  0
  7 27  1  0  0  0  0
  7 28  1  0  0  0  0
  8  9  1  0  0  0  0
  8 29  1  0  0  0  0
  8 30  1  0  0  0  0
  9 10  1  0  0  0  0
  9 31  1  0  0  0  0
  9 32  1  0  0  0  0
 10 11  1  0  0  0  0
 10 33  1  0  0  0  0
 11 12  1  0  0  0  0
 11 34  1  0  0  0  0
 12 13  2  0  0  0  0
 12 14  1  0  0  0  0
 14 15  1  0  0  0  0
 14 35  1  0  0  0  0
 15 19  1  0  0  0  0
 15 16  2  0  0  0  0
 16 17  1  0  0  0  0
 17 18  2  0  0  0  0
 17 36  1  0  0  0  0
 18 19  1  0  0  0  0
 18 37  1  0  0  0  0
M  END
> <s_m_source_file>
AV-unprocessed.smi

> <i_m_source_file_index>
630

> <i_lp_mmshare_version>
43012

> <i_f3d_flags>
0

> <s_epik_input>
W05IMl1DKD1PKVtDQEBIXTFbQ0gyXVtDSDJdW0NIMl1bQ0gyXVtDSDJdW0NASF0xW05IXUMoPU8pW05IXWMybltjSF1bY0hdczI=

> <s_epik_cmdline>
J2VwaWtfcHl0aG9uJywgJy1waCcsICc3LjAnLCAnLXRuJywgJzgnLCAnLW1hJywgJzIwMCcsICctbWV0YWxfYmluZGluZycsICctaW1hZScsICc8aW5maWxlLm1hZT4nLCAnLW9tYWUnLCAnPG91dGZpbGUubWFlPic=

> <r_lp_tautomer_probability>
0.999

> <r_epik_Ionization_Penalty>
0.000342689

> <r_epik_Ionization_Penalty_Charging>
0

> <r_epik_Ionization_Penalty_Neutral>
0.000342689

> <r_epik_State_Penalty>
0.000177984

> <r_epik_Charging_Adjusted_Penalty>
0.000177984

> <i_epik_Tot_Q>
0

> <i_epik_Tot_abs_Q>
0

> <r_epik_Metal_State_Penalty>
0.00743087

> <b_epik_Metal_Only>
0

> <s_lp_Force_Field>
OPLS_2005

> <r_lp_Energy>
11.5687

> <b_lp_Chiralities_Consistent>
1

> <s_lp_Variant>
AV-unprocessed.smi:630-1

> <Gold.Version>
5.8.1

> <Gold.Id.Protein>
6NUR|6NUR_protein|mol2

> <Gold.PLP.Fitness>
39.1905

> <Gold.PLP.PLP>
-27.6687

> <Gold.PLP.part.hbond>
-4.0000

> <Gold.PLP.part.metal>
0.0000

> <Gold.PLP.part.buried>
-5.4095

> <Gold.PLP.part.nonpolar>
-19.1432

> <Gold.PLP.part.repulsive>
0.3368

> <Gold.PLP.ligand.clash>
0.0000

> <Gold.PLP.ligand.torsion>
0.2572

> <Gold.PLP.Chemscore.Hbond>
3.9920

> <Gold.PLP.Chemscore.CHOScore>
0.0000

> <Gold.PLP.Chemscore.Metal>
0.0000

> <Gold.Chemscore.Hbonds>
donor molecule, donor type, donor heavy atom, donor atom, acceptor molecule, acceptor atom, score
      L1  H     1    20       P1 10171  1.00
      L1  H     1    21       P1  7921  1.00
      L1  H    11    34       P1  7948  1.00
      L1  H    14    35       P1  7948  0.99

> <Gold.PLP.Chemscore.Internal.Correction>
0.0601

> <Gold.Rescore>
     Score         DG    S(hbond)    S(metal)    S(lipo)     H(rot)  DE(clash)    DE(int)     intcor
     20.53     -21.96       3.86        0.00      63.90       1.52       0.02       1.42       ----

> <Gold.Chemscore.Fitness>
20.5256

> <Gold.Chemscore.DG>
-21.9566

> <Gold.Chemscore.ZeroCoef>
-5.4800

> <Gold.Chemscore.Hbond>
3.8585

> <Gold.Chemscore.Metal>
0.0000

> <Gold.Chemscore.Lipo>
63.9014

> <Gold.Chemscore.Internal_Hbond>
0.0000

> <Gold.Chemscore.DEClash>
0.0155

> <Gold.Chemscore.DEInternal>
1.4155

> <Gold.Chemscore.Rot>
1.5184

> <Gold.Chemscore.Internal.Correction>
   9.000000E+99

> <Gold.Chemscore.Hbonds>
donor molecule, donor type, donor heavy atom, donor atom, acceptor molecule, acceptor atom, score
      L1  H     1    20       P1 10171  1.00
      L1  H     1    21       P1  7921  0.98
      L1  H    11    34       P1  7948  0.93
      L1  H    14    35       P1  7948  0.89

> <Gold.Chemscore.Hbond.Weighted>
-12.8874

> <Gold.Chemscore.Metal.Weighted>
-0.0000

> <Gold.Chemscore.Lipo.Weighted>
-7.4765

> <Gold.Chemscore.Internal_Hbond.Weighted>
0.0000

> <Gold.Chemscore.DEClash.Weighted>
0.0155

> <Gold.Chemscore.DEInternal.Weighted>
1.4155

> <Gold.Chemscore.Rot.Weighted>
3.8872

> <Gold.Chemscore.Internal.Correction.Weighted>
   9.000000E+99

> <Gold.Protein.RotatedTorsions>
[ 6907 6896 6895 6894 ] final -161.74 input  -60.11 | X-H torsion
[ 7974 7965 7964 7962 ] final   -6.62 input  175.53 | X-H torsion
[ 8008 7997 7996 7995 ] final  -68.30 input   59.86 | X-H torsion
[ 10167 10162 10161 10158 ] final   57.87 input  -65.29 | X-H torsion
[ 10718 10713 10712 10709 ] final  -31.10 input   66.30 | X-H torsion
[ 10763 10752 10751 10750 ] final   19.81 input  -60.55 | X-H torsion
[ 11005 11000 10999 10996 ] final  -27.57 input  -57.11 | X-H torsion

> <Gold.Protein.ActiveResidues>
 VAL166  LYS551  ARG553  GLY616  TRP617  ASP618  TYR619  PRO620  LYS621  CYS622 
 ASP623  PHE694  ASN695  SER759  ASP760  ASP761  ALA762  ILE779  LEU786  VAL792 
 PHE793  MET794  SER795  GLU796  ALA797  LYS798  CYS799  TRP800  GLU811  SER814 

> <Gold.Protein.RotatedAtoms>
  151.3693  133.3860  159.2697 H   0  0  0  0  0  0  0  0  0  0  0  0  # atno 6907 bound_to 6896
  150.9663  134.9044  159.7772 H   0  0  0  0  0  0  0  0  0  0  0  0  # atno 6908 bound_to 6896
  152.5168  134.3654  159.9351 H   0  0  0  0  0  0  0  0  0  0  0  0  # atno 6909 bound_to 6896
  146.2326  140.2198  142.8337 H   0  0  0  0  0  0  0  0  0  0  0  0  # atno 7974 bound_to 7965
  154.4859  140.0875  156.7484 H   0  0  0  0  0  0  0  0  0  0  0  0  # atno 8008 bound_to 7997
  155.4352  140.3451  155.4266 H   0  0  0  0  0  0  0  0  0  0  0  0  # atno 8009 bound_to 7997
  156.1260  140.1487  156.9124 H   0  0  0  0  0  0  0  0  0  0  0  0  # atno 8010 bound_to 7997
  140.1934  144.4063  150.6561 H   0  0  0  0  0  0  0  0  0  0  0  0  # atno 10167 bound_to 10162
  156.3915  130.4373  149.7391 H   0  0  0  0  0  0  0  0  0  0  0  0  # atno 10718 bound_to 10713
  153.1130  135.6701  153.9466 H   0  0  0  0  0  0  0  0  0  0  0  0  # atno 10763 bound_to 10752
  153.9004  135.3036  155.3450 H   0  0  0  0  0  0  0  0  0  0  0  0  # atno 10764 bound_to 10752
  154.7549  135.5017  153.9434 H   0  0  0  0  0  0  0  0  0  0  0  0  # atno 10765 bound_to 10752
  140.9131  133.7448  156.0697 H   0  0  0  0  0  0  0  0  0  0  0  0  # atno 11005 bound_to 11000
  144.9641  140.8304  143.5495 LP  0  0  0  0  0  0  0  0  0  0  0  0  # atno 17320 bound_to 7965
  145.2172  139.2176  143.5112 LP  0  0  0  0  0  0  0  0  0  0  0  0  # atno 17321 bound_to 7965
  140.6440  143.2209  151.6226 LP  0  0  0  0  0  0  0  0  0  0  0  0  # atno 17342 bound_to 10162
  139.5247  144.3097  152.1003 LP  0  0  0  0  0  0  0  0  0  0  0  0  # atno 17343 bound_to 10162
  156.4443  130.7876  151.2897 LP  0  0  0  0  0  0  0  0  0  0  0  0  # atno 17370 bound_to 10713
  157.7499  131.0115  150.3348 LP  0  0  0  0  0  0  0  0  0  0  0  0  # atno 17371 bound_to 10713
  140.8085  134.3427  157.5419 LP  0  0  0  0  0  0  0  0  0  0  0  0  # atno 17394 bound_to 11000
  139.8761  134.9240  156.3339 LP  0  0  0  0  0  0  0  0  0  0  0  0  # atno 17395 bound_to 11000

$$$$
