AV-unprocessed.smi:2845|AV-procd|sdf|10946|dock4
  -GOLD-   2272015393D 1   1.00000     0.00000
 Structure written by MMmdl.
 42 44  0  0  0  0  0  0  0  0  1 V2000
  152.9369  142.7919  161.2147 C   0  0  0  0  0  0  0  0  0  0  0  0
  152.2973  142.4685  159.8761 C   0  0  0  0  0  0  0  0  0  0  0  0
  152.7298  141.3258  159.1665 C   0  0  0  0  0  0  0  0  0  0  0  0
  152.1620  140.9905  157.9179 C   0  0  0  0  0  0  0  0  0  0  0  0
  152.4338  139.9362  157.0630 N   0  0  0  0  0  0  0  0  0  0  0  0
  151.5834  140.1727  156.0687 C   0  0  0  0  0  0  0  0  0  0  0  0
  150.7885  141.2543  156.1796 N   0  0  0  0  0  0  0  0  0  0  0  0
  149.7950  141.7059  155.2210 C   0  0  0  0  0  0  0  0  0  0  0  0
  148.3568  141.3692  155.6579 C   0  0  1  0  0  0  0  0  0  0  0  0
  147.8929  142.3517  156.5651 O   0  0  0  0  0  0  0  0  0  0  0  0
  147.3975  141.2725  154.4566 C   0  0  0  0  0  0  0  0  0  0  0  0
  146.3937  142.3210  154.4654 N   0  0  0  0  0  0  0  0  0  0  0  0
  146.0628  143.2075  153.5220 C   0  0  0  0  0  0  0  0  0  0  0  0
  145.0791  144.0258  153.8712 N   0  0  0  0  0  0  0  0  0  0  0  0
  144.8411  143.5475  155.1266 C   0  0  0  0  0  0  0  0  0  0  0  0
  143.5481  144.2707  156.1845 S   0  0  2  0  0  0  0  0  0  0  0  0
  143.5255  145.9276  155.3508 C   0  0  0  0  0  0  0  0  0  0  0  0
  144.1894  144.4669  157.5598 O   0  0  0  0  0  0  0  0  0  0  0  0
  145.5960  142.5310  155.5395 N   0  0  0  0  0  0  0  0  0  0  0  0
  151.1392  141.8349  157.3942 C   0  0  0  0  0  0  0  0  0  0  0  0
  150.6992  142.9738  158.0923 C   0  0  0  0  0  0  0  0  0  0  0  0
  151.2789  143.2955  159.3377 C   0  0  0  0  0  0  0  0  0  0  0  0
  150.7985  144.5288  160.0820 C   0  0  0  0  0  0  0  0  0  0  0  0
  153.7055  142.0636  161.4755 H   0  0  0  0  0  0  0  0  0  0  0  0
  152.1881  142.7861  162.0070 H   0  0  0  0  0  0  0  0  0  0  0  0
  153.4052  143.7760  161.1869 H   0  0  0  0  0  0  0  0  0  0  0  0
  153.5050  140.6950  159.5761 H   0  0  0  0  0  0  0  0  0  0  0  0
  151.5331  139.5204  155.2089 H   0  0  0  0  0  0  0  0  0  0  0  0
  149.9068  142.7808  155.0738 H   0  0  0  0  0  0  0  0  0  0  0  0
  150.0154  141.2363  154.2616 H   0  0  0  0  0  0  0  0  0  0  0  0
  148.3624  140.4115  156.1804 H   0  0  0  0  0  0  0  0  0  0  0  0
  148.0066  143.2037  156.1716 H   0  0  0  0  0  0  0  0  0  0  0  0
  147.9495  141.3130  153.5160 H   0  0  0  0  0  0  0  0  0  0  0  0
  146.8769  140.3141  154.4711 H   0  0  0  0  0  0  0  0  0  0  0  0
  146.5498  143.2524  152.5589 H   0  0  0  0  0  0  0  0  0  0  0  0
  143.9161  145.8644  154.3350 H   0  0  0  0  0  0  0  0  0  0  0  0
  144.1315  146.6391  155.9115 H   0  0  0  0  0  0  0  0  0  0  0  0
  142.5046  146.3058  155.3017 H   0  0  0  0  0  0  0  0  0  0  0  0
  149.9213  143.5943  157.6730 H   0  0  0  0  0  0  0  0  0  0  0  0
  149.9984  145.0339  159.5402 H   0  0  0  0  0  0  0  0  0  0  0  0
  151.6154  145.2390  160.2106 H   0  0  0  0  0  0  0  0  0  0  0  0
  150.4160  144.2576  161.0662 H   0  0  0  0  0  0  0  0  0  0  0  0
  1  2  1  0  0  0  0
  1 24  1  0  0  0  0
  1 25  1  0  0  0  0
  1 26  1  0  0  0  0
  2 22  1  0  0  0  0
  2  3  2  0  0  0  0
  3  4  1  0  0  0  0
  3 27  1  0  0  0  0
  4 20  2  0  0  0  0
  4  5  1  0  0  0  0
  5  6  2  0  0  0  0
  6  7  1  0  0  0  0
  6 28  1  0  0  0  0
  7  8  1  0  0  0  0
  7 20  1  0  0  0  0
  8  9  1  0  0  0  0
  8 29  1  0  0  0  0
  8 30  1  0  0  0  0
  9 10  1  0  0  0  0
  9 11  1  0  0  0  0
  9 31  1  0  0  0  0
 10 32  1  0  0  0  0
 11 12  1  0  0  0  0
 11 33  1  0  0  0  0
 11 34  1  0  0  0  0
 12 19  1  0  0  0  0
 12 13  1  0  0  0  0
 13 14  2  0  0  0  0
 13 35  1  0  0  0  0
 14 15  1  0  0  0  0
 15 16  1  0  0  0  0
 15 19  2  0  0  0  0
 16 17  1  0  0  0  0
 16 18  2  0  0  0  0
 17 36  1  0  0  0  0
 17 37  1  0  0  0  0
 17 38  1  0  0  0  0
 20 21  1  0  0  0  0
 21 22  2  0  0  0  0
 21 39  1  0  0  0  0
 22 23  1  0  0  0  0
 23 40  1  0  0  0  0
 23 41  1  0  0  0  0
 23 42  1  0  0  0  0
M  END
> <s_m_source_file>
AV-unprocessed.smi

> <i_m_source_file_index>
2845

> <i_lp_mmshare_version>
43012

> <i_f3d_flags>
0

> <s_epik_input>
W0NIM11jKFtjSF0xKWMoW0NIM10pW2NIXWMoYzEyKW4oW2NIXW4yKVtDSDJdW0NASF0oW09IXSlbQ0gyXW4zW2NIXW5jKG4zKVtTQF0oPU8pW0NIM10=

> <s_epik_cmdline>
J2VwaWtfcHl0aG9uJywgJy1waCcsICc3LjAnLCAnLXRuJywgJzgnLCAnLW1hJywgJzIwMCcsICctbWV0YWxfYmluZGluZycsICctaW1hZScsICc8aW5maWxlLm1hZT4nLCAnLW9tYWUnLCAnPG91dGZpbGUubWFlPic=

> <r_lp_tautomer_probability>
1

> <r_epik_Ionization_Penalty>
0.0968684

> <r_epik_Ionization_Penalty_Charging>
0

> <r_epik_Ionization_Penalty_Neutral>
0.0968684

> <r_epik_State_Penalty>
0.0870047

> <r_epik_Charging_Adjusted_Penalty>
0.0870047

> <i_epik_Tot_Q>
0

> <i_epik_Tot_abs_Q>
0

> <r_epik_Metal_State_Penalty>
0.0746849

> <b_epik_Metal_Only>
0

> <s_lp_Force_Field>
OPLS_2005

> <r_lp_Energy>
9.68664

> <b_lp_Chiralities_Consistent>
1

> <s_lp_Variant>
AV-unprocessed.smi:2845-4

> <Gold.Version>
5.8.1

> <Gold.Id.Protein>
6NUR|6NUR_protein|mol2

> <Gold.PLP.Fitness>
49.8208

> <Gold.PLP.PLP>
-46.3014

> <Gold.PLP.part.hbond>
-2.0000

> <Gold.PLP.part.metal>
0.0000

> <Gold.PLP.part.buried>
-6.1922

> <Gold.PLP.part.nonpolar>
-38.0928

> <Gold.PLP.part.repulsive>
0.4215

> <Gold.PLP.ligand.clash>
0.0000

> <Gold.PLP.ligand.torsion>
1.7563

> <Gold.PLP.Chemscore.Hbond>
2.0000

> <Gold.PLP.Chemscore.CHOScore>
0.0000

> <Gold.PLP.Chemscore.Metal>
0.0000

> <Gold.Chemscore.Hbonds>
donor molecule, donor type, donor heavy atom, donor atom, acceptor molecule, acceptor atom, score
      L1  H    10    32       P1  8028  1.00
      P1  H  7997  8009       L1     5  1.00

> <Gold.PLP.Chemscore.Internal.Correction>
1.0319

> <Gold.Rescore>
     Score         DG    S(hbond)    S(metal)    S(lipo)     H(rot)  DE(clash)    DE(int)     intcor
     11.15     -14.62       1.39        0.00      97.80       2.71       0.07       3.39       ----

> <Gold.Chemscore.Fitness>
11.1477

> <Gold.Chemscore.DG>
-14.6165

> <Gold.Chemscore.ZeroCoef>
-5.4800

> <Gold.Chemscore.Hbond>
1.3872

> <Gold.Chemscore.Metal>
0.0000

> <Gold.Chemscore.Lipo>
97.8030

> <Gold.Chemscore.Internal_Hbond>
0.0000

> <Gold.Chemscore.DEClash>
0.0749

> <Gold.Chemscore.DEInternal>
3.3939

> <Gold.Chemscore.Rot>
2.7108

> <Gold.Chemscore.Internal.Correction>
   9.000000E+99

> <Gold.Chemscore.Hbonds>
donor molecule, donor type, donor heavy atom, donor atom, acceptor molecule, acceptor atom, score
      L1  H    10    32       P1  8028  0.34
      P1  H  7997  8009       L1     5  0.47

> <Gold.Chemscore.Hbond.Weighted>
-4.6332

> <Gold.Chemscore.Metal.Weighted>
-0.0000

> <Gold.Chemscore.Lipo.Weighted>
-11.4429

> <Gold.Chemscore.Internal_Hbond.Weighted>
0.0000

> <Gold.Chemscore.DEClash.Weighted>
0.0749

> <Gold.Chemscore.DEInternal.Weighted>
3.3939

> <Gold.Chemscore.Rot.Weighted>
6.9396

> <Gold.Chemscore.Internal.Correction.Weighted>
   9.000000E+99

> <Gold.Protein.RotatedTorsions>
[ 6907 6896 6895 6894 ] final  142.41 input  -60.11 | X-H torsion
[ 7974 7965 7964 7962 ] final  141.87 input  175.53 | X-H torsion
[ 8008 7997 7996 7995 ] final -174.63 input   59.86 | X-H torsion
[ 10167 10162 10161 10158 ] final  103.16 input  -65.29 | X-H torsion
[ 10718 10713 10712 10709 ] final  170.00 input   66.30 | X-H torsion
[ 10763 10752 10751 10750 ] final  166.37 input  -60.55 | X-H torsion
[ 11005 11000 10999 10996 ] final -118.07 input  -57.11 | X-H torsion

> <Gold.Protein.ActiveResidues>
 VAL166  LYS551  ARG553  GLY616  TRP617  ASP618  TYR619  PRO620  LYS621  CYS622 
 ASP623  PHE694  ASN695  SER759  ASP760  ASP761  ALA762  ILE779  LEU786  VAL792 
 PHE793  MET794  SER795  GLU796  ALA797  LYS798  CYS799  TRP800  GLU811  SER814 

> <Gold.Protein.RotatedAtoms>
  152.2190  133.4969  159.5151 H   0  0  0  0  0  0  0  0  0  0  0  0  # atno 6907 bound_to 6896
  150.7008  134.1367  159.4099 H   0  0  0  0  0  0  0  0  0  0  0  0  # atno 6908 bound_to 6896
  151.9287  135.0266  160.0578 H   0  0  0  0  0  0  0  0  0  0  0  0  # atno 6909 bound_to 6896
  144.9057  139.5361  143.5732 H   0  0  0  0  0  0  0  0  0  0  0  0  # atno 7974 bound_to 7965
  155.9726  140.1166  157.0799 H   0  0  0  0  0  0  0  0  0  0  0  0  # atno 8008 bound_to 7997
  154.4160  140.1160  156.5394 H   0  0  0  0  0  0  0  0  0  0  0  0  # atno 8009 bound_to 7997
  155.6577  140.3473  155.4773 H   0  0  0  0  0  0  0  0  0  0  0  0  # atno 8010 bound_to 7997
  139.7287  144.7041  151.0757 H   0  0  0  0  0  0  0  0  0  0  0  0  # atno 10167 bound_to 10162
  157.0145  131.0214  151.2793 H   0  0  0  0  0  0  0  0  0  0  0  0  # atno 10718 bound_to 10713
  154.3380  135.2754  155.2437 H   0  0  0  0  0  0  0  0  0  0  0  0  # atno 10763 bound_to 10752
  154.4720  135.5880  153.6332 H   0  0  0  0  0  0  0  0  0  0  0  0  # atno 10764 bound_to 10752
  152.9860  135.6090  154.3578 H   0  0  0  0  0  0  0  0  0  0  0  0  # atno 10765 bound_to 10752
  141.0311  133.9979  157.3141 H   0  0  0  0  0  0  0  0  0  0  0  0  # atno 11005 bound_to 11000
  146.3132  139.7824  142.9003 LP  0  0  0  0  0  0  0  0  0  0  0  0  # atno 17320 bound_to 7965
  145.3539  141.0313  143.3323 LP  0  0  0  0  0  0  0  0  0  0  0  0  # atno 17321 bound_to 7965
  140.7767  143.5072  150.9698 LP  0  0  0  0  0  0  0  0  0  0  0  0  # atno 17342 bound_to 10162
  139.8760  143.7133  152.3162 LP  0  0  0  0  0  0  0  0  0  0  0  0  # atno 17343 bound_to 10162
  157.5296  130.8050  149.7901 LP  0  0  0  0  0  0  0  0  0  0  0  0  # atno 17370 bound_to 10713
  156.0124  130.3827  150.2220 LP  0  0  0  0  0  0  0  0  0  0  0  0  # atno 17371 bound_to 10713
  139.9209  135.0200  156.8059 LP  0  0  0  0  0  0  0  0  0  0  0  0  # atno 17394 bound_to 11000
  140.6404  133.9823  155.7705 LP  0  0  0  0  0  0  0  0  0  0  0  0  # atno 17395 bound_to 11000

$$$$
