AV-unprocessed.smi:2426|AV-procd|sdf|9577|dock1
  -GOLD-   2272013213D 1   1.00000     0.00000
 Structure written by MMmdl.
 36 37  0  0  0  0  0  0  0  0  1 V2000
  153.4924  134.5921  157.6846 C   0  0  0  0  0  0  0  0  0  0  0  0
  152.3979  135.2323  157.0383 O   0  0  0  0  0  0  0  0  0  0  0  0
  151.3180  134.4586  156.6669 C   0  0  0  0  0  0  0  0  0  0  0  0
  150.5058  134.8766  155.5926 C   0  0  0  0  0  0  0  0  0  0  0  0
  149.4120  134.0536  155.2422 C   0  0  0  0  0  0  0  0  0  0  0  0
  148.6209  134.5090  154.1545 N   0  0  0  0  0  0  0  0  0  0  0  0
  147.3579  134.1646  153.8473 C   0  0  0  0  0  0  0  0  0  0  0  0
  146.6589  133.3801  154.4894 O   0  0  0  0  0  0  0  0  0  0  0  0
  146.9452  134.7837  152.7309 N   0  0  0  0  0  0  0  0  0  0  0  0
  145.6406  134.6154  152.0952 C   0  0  1  0  0  0  0  0  0  0  0  0
  145.4806  135.6649  150.9864 C   0  0  0  0  0  0  0  0  0  0  0  0
  145.4993  133.1886  151.5607 C   0  0  0  0  0  0  0  0  0  0  0  0
  146.2855  132.7526  150.3145 C   0  0  0  0  0  0  0  0  0  0  0  0
  145.1003  131.8602  149.9355 C   0  0  0  0  0  0  0  0  0  0  0  0
  144.2271  132.7641  150.8097 C   0  0  0  0  0  0  0  0  0  0  0  0
  149.1764  132.9111  155.9337 N   0  0  0  0  0  0  0  0  0  0  0  0
  150.0031  132.6039  156.9348 C   0  0  0  0  0  0  0  0  0  0  0  0
  151.0585  133.3114  157.3396 N   0  0  0  0  0  0  0  0  0  0  0  0
  154.2629  135.3303  157.9060 H   0  0  0  0  0  0  0  0  0  0  0  0
  153.9404  133.8275  157.0479 H   0  0  0  0  0  0  0  0  0  0  0  0
  153.1874  134.1382  158.6287 H   0  0  0  0  0  0  0  0  0  0  0  0
  150.7195  135.7925  155.0611 H   0  0  0  0  0  0  0  0  0  0  0  0
  149.0729  135.1616  153.5316 H   0  0  0  0  0  0  0  0  0  0  0  0
  147.5899  135.4112  152.2731 H   0  0  0  0  0  0  0  0  0  0  0  0
  144.8551  134.8031  152.8294 H   0  0  0  0  0  0  0  0  0  0  0  0
  144.5012  135.5898  150.5132 H   0  0  0  0  0  0  0  0  0  0  0  0
  146.2355  135.5410  150.2092 H   0  0  0  0  0  0  0  0  0  0  0  0
  145.5741  136.6756  151.3851 H   0  0  0  0  0  0  0  0  0  0  0  0
  145.6894  132.4619  152.3541 H   0  0  0  0  0  0  0  0  0  0  0  0
  146.4423  133.5672  149.6056 H   0  0  0  0  0  0  0  0  0  0  0  0
  147.2125  132.2181  150.5238 H   0  0  0  0  0  0  0  0  0  0  0  0
  144.8450  131.8640  148.8755 H   0  0  0  0  0  0  0  0  0  0  0  0
  145.1887  130.8465  150.3298 H   0  0  0  0  0  0  0  0  0  0  0  0
  143.4908  132.2410  151.4203 H   0  0  0  0  0  0  0  0  0  0  0  0
  143.7737  133.5813  150.2463 H   0  0  0  0  0  0  0  0  0  0  0  0
  149.7969  131.6899  157.4715 H   0  0  0  0  0  0  0  0  0  0  0  0
  1  2  1  0  0  0  0
  1 19  1  0  0  0  0
  1 20  1  0  0  0  0
  1 21  1  0  0  0  0
  2  3  1  0  0  0  0
  3 18  1  0  0  0  0
  3  4  2  0  0  0  0
  4  5  1  0  0  0  0
  4 22  1  0  0  0  0
  5  6  1  0  0  0  0
  5 16  2  0  0  0  0
  6  7  1  0  0  0  0
  6 23  1  0  0  0  0
  7  8  2  0  0  0  0
  7  9  1  0  0  0  0
  9 10  1  0  0  0  0
  9 24  1  0  0  0  0
 10 11  1  0  0  0  0
 10 12  1  0  0  0  0
 10 25  1  0  0  0  0
 11 26  1  0  0  0  0
 11 27  1  0  0  0  0
 11 28  1  0  0  0  0
 12 15  1  0  0  0  0
 12 13  1  0  0  0  0
 12 29  1  0  0  0  0
 13 14  1  0  0  0  0
 13 30  1  0  0  0  0
 13 31  1  0  0  0  0
 14 15  1  0  0  0  0
 14 32  1  0  0  0  0
 14 33  1  0  0  0  0
 15 34  1  0  0  0  0
 15 35  1  0  0  0  0
 16 17  1  0  0  0  0
 17 18  2  0  0  0  0
 17 36  1  0  0  0  0
M  END
> <s_m_source_file>
AV-unprocessed.smi

> <i_m_source_file_index>
2426

> <i_lp_mmshare_version>
43012

> <i_f3d_flags>
0

> <s_epik_input>
W0NIM11PYzFbY0hdYyhuW2NIXW4xKVtOSF1DKD1PKVtOSF1bQ0BIXShbQ0gzXSlbQ0hdMltDSDJdW0NIMl1bQ0gyXTI=

> <s_epik_cmdline>
J2VwaWtfcHl0aG9uJywgJy1waCcsICc3LjAnLCAnLXRuJywgJzgnLCAnLW1hJywgJzIwMCcsICctbWV0YWxfYmluZGluZycsICctaW1hZScsICc8aW5maWxlLm1hZT4nLCAnLW9tYWUnLCAnPG91dGZpbGUubWFlPic=

> <r_lp_tautomer_probability>
1

> <r_epik_Ionization_Penalty>
2.84534e-05

> <r_epik_Ionization_Penalty_Charging>
0

> <r_epik_Ionization_Penalty_Neutral>
2.84534e-05

> <r_epik_State_Penalty>
-0

> <r_epik_Charging_Adjusted_Penalty>
0

> <i_epik_Tot_Q>
0

> <i_epik_Tot_abs_Q>
0

> <r_epik_Metal_State_Penalty>
-0

> <b_epik_Metal_Only>
0

> <s_lp_Force_Field>
OPLS_2005

> <r_lp_Energy>
11.0753

> <b_lp_Chiralities_Consistent>
1

> <s_lp_Variant>
AV-unprocessed.smi:2426-2

> <Gold.Version>
5.8.1

> <Gold.Id.Protein>
6NUR|6NUR_protein|mol2

> <Gold.PLP.Fitness>
37.1865

> <Gold.PLP.PLP>
-27.2349

> <Gold.PLP.part.hbond>
-4.0375

> <Gold.PLP.part.metal>
0.0000

> <Gold.PLP.part.buried>
-2.5439

> <Gold.PLP.part.nonpolar>
-20.9051

> <Gold.PLP.part.repulsive>
0.0570

> <Gold.PLP.ligand.clash>
0.0000

> <Gold.PLP.ligand.torsion>
0.5841

> <Gold.PLP.Chemscore.Hbond>
3.6679

> <Gold.PLP.Chemscore.CHOScore>
0.0000

> <Gold.PLP.Chemscore.Metal>
0.0000

> <Gold.Chemscore.Hbonds>
donor molecule, donor type, donor heavy atom, donor atom, acceptor molecule, acceptor atom, score
      L1  H     6    23       P1  7948  0.96
      L1  H     9    24       P1  7948  1.00
      P1  H  6896  6908       L1    18  0.78
      P1  H 10752 10763       L1     2  0.71

> <Gold.PLP.Chemscore.Internal.Correction>
0.1160

> <Gold.Rescore>
     Score         DG    S(hbond)    S(metal)    S(lipo)     H(rot)  DE(clash)    DE(int)     intcor
     13.31     -15.34       2.27        0.00      54.37       1.60       0.28       1.76       ----

> <Gold.Chemscore.Fitness>
13.3055

> <Gold.Chemscore.DG>
-15.3390

> <Gold.Chemscore.ZeroCoef>
-5.4800

> <Gold.Chemscore.Hbond>
2.2715

> <Gold.Chemscore.Metal>
0.0000

> <Gold.Chemscore.Lipo>
54.3669

> <Gold.Chemscore.Internal_Hbond>
0.0000

> <Gold.Chemscore.DEClash>
0.2757

> <Gold.Chemscore.DEInternal>
1.7578

> <Gold.Chemscore.Rot>
1.5971

> <Gold.Chemscore.Internal.Correction>
   9.000000E+99

> <Gold.Chemscore.Hbonds>
donor molecule, donor type, donor heavy atom, donor atom, acceptor molecule, acceptor atom, score
      L1  H     6    23       P1  7948  0.36
      L1  H     9    24       P1  7948  0.99
      P1  H  6896  6908       L1    18  0.64
      P1  H 10752 10763       L1     2  0.02

> <Gold.Chemscore.Hbond.Weighted>
-7.5867

> <Gold.Chemscore.Metal.Weighted>
-0.0000

> <Gold.Chemscore.Lipo.Weighted>
-6.3609

> <Gold.Chemscore.Internal_Hbond.Weighted>
0.0000

> <Gold.Chemscore.DEClash.Weighted>
0.2757

> <Gold.Chemscore.DEInternal.Weighted>
1.7578

> <Gold.Chemscore.Rot.Weighted>
4.0886

> <Gold.Chemscore.Internal.Correction.Weighted>
   9.000000E+99

> <Gold.Protein.RotatedTorsions>
[ 6907 6896 6895 6894 ] final   82.56 input  -60.11 | X-H torsion
[ 7974 7965 7964 7962 ] final -139.52 input  175.53 | X-H torsion
[ 8008 7997 7996 7995 ] final  -41.01 input   59.86 | X-H torsion
[ 10167 10162 10161 10158 ] final -178.52 input  -65.29 | X-H torsion
[ 10718 10713 10712 10709 ] final   13.50 input   66.30 | X-H torsion
[ 10763 10752 10751 10750 ] final   98.59 input  -60.55 | X-H torsion
[ 11005 11000 10999 10996 ] final   95.99 input  -57.11 | X-H torsion

> <Gold.Protein.ActiveResidues>
 VAL166  LYS551  ARG553  GLY616  TRP617  ASP618  TYR619  PRO620  LYS621  CYS622 
 ASP623  PHE694  ASN695  SER759  ASP760  ASP761  ALA762  ILE779  LEU786  VAL792 
 PHE793  MET794  SER795  GLU796  ALA797  LYS798  CYS799  TRP800  GLU811  SER814 

> <Gold.Protein.RotatedAtoms>
  152.5302  134.3031  159.9085 H   0  0  0  0  0  0  0  0  0  0  0  0  # atno 6907 bound_to 6896
  151.2982  133.4128  159.2645 H   0  0  0  0  0  0  0  0  0  0  0  0  # atno 6908 bound_to 6896
  151.0142  134.9436  159.8081 H   0  0  0  0  0  0  0  0  0  0  0  0  # atno 6909 bound_to 6896
  144.8670  140.6308  143.5291 H   0  0  0  0  0  0  0  0  0  0  0  0  # atno 7974 bound_to 7965
  154.4007  140.1510  156.3120 H   0  0  0  0  0  0  0  0  0  0  0  0  # atno 8008 bound_to 7997
  155.8606  140.3453  155.5732 H   0  0  0  0  0  0  0  0  0  0  0  0  # atno 8009 bound_to 7997
  155.7884  140.0853  157.2013 H   0  0  0  0  0  0  0  0  0  0  0  0  # atno 8010 bound_to 7997
  139.5428  144.2316  152.0930 H   0  0  0  0  0  0  0  0  0  0  0  0  # atno 10167 bound_to 10162
  157.0255  130.6172  149.5727 H   0  0  0  0  0  0  0  0  0  0  0  0  # atno 10718 bound_to 10713
  153.2909  135.4143  155.1166 H   0  0  0  0  0  0  0  0  0  0  0  0  # atno 10763 bound_to 10752
  154.8520  135.3518  154.5982 H   0  0  0  0  0  0  0  0  0  0  0  0  # atno 10764 bound_to 10752
  153.6405  135.7057  153.5301 H   0  0  0  0  0  0  0  0  0  0  0  0  # atno 10765 bound_to 10752
  139.8785  134.8928  156.4093 H   0  0  0  0  0  0  0  0  0  0  0  0  # atno 11005 bound_to 11000
  145.4203  139.1565  143.4078 LP  0  0  0  0  0  0  0  0  0  0  0  0  # atno 17320 bound_to 7965
  146.2903  140.4312  142.8742 LP  0  0  0  0  0  0  0  0  0  0  0  0  # atno 17321 bound_to 7965
  140.1797  144.4856  150.6535 LP  0  0  0  0  0  0  0  0  0  0  0  0  # atno 17342 bound_to 10162
  140.6665  143.2270  151.5730 LP  0  0  0  0  0  0  0  0  0  0  0  0  # atno 17343 bound_to 10162
  156.0087  130.5177  150.7918 LP  0  0  0  0  0  0  0  0  0  0  0  0  # atno 17370 bound_to 10713
  157.5217  131.0932  151.0070 LP  0  0  0  0  0  0  0  0  0  0  0  0  # atno 17371 bound_to 10713
  140.9212  133.7644  155.9909 LP  0  0  0  0  0  0  0  0  0  0  0  0  # atno 17394 bound_to 11000
  140.8437  134.3036  157.5303 LP  0  0  0  0  0  0  0  0  0  0  0  0  # atno 17395 bound_to 11000

$$$$
