AV-unprocessed.smi:1601|AV-procd|sdf|6436|dock2
  -GOLD-   22720 7 83D 1   1.00000     0.00000
 Structure written by MMmdl.
 42 43  0  0  0  0  0  0  0  0  2 V2000
  149.2377  133.1620  154.1132 C   0  0  0  0  0  0  0  0  0  0  0  0
  147.8517  133.8361  154.2740 C   0  0  1  0  0  0  0  0  0  0  0  0
  147.9743  135.1083  155.1550 C   0  0  0  0  0  0  0  0  0  0  0  0
  148.8267  136.1245  154.5497 N   0  0  0  0  0  0  0  0  0  0  0  0
  149.5194  137.0469  155.2344 C   0  0  0  0  0  0  0  0  0  0  0  0
  149.5216  137.1063  156.4646 O   0  0  0  0  0  0  0  0  0  0  0  0
  150.3220  138.0514  154.3923 C   0  0  2  0  0  0  0  0  0  0  0  0
  151.8011  138.1457  154.8127 C   0  0  0  0  0  0  0  0  0  0  0  0
  149.6816  139.3602  154.4255 N   0  0  0  0  0  0  0  0  0  0  0  0
  148.3924  139.7038  154.0664 C   0  0  0  0  0  0  0  0  0  0  0  0
  148.2598  141.0494  154.2550 C   0  0  0  0  0  0  0  0  0  0  0  0
  149.5378  141.4505  154.7340 C   0  0  0  0  0  0  0  0  0  0  0  0
  150.3865  140.4400  154.8304 N   0  0  0  0  0  0  0  0  0  0  0  0
  147.2200  134.1269  152.9425 N   0  3  0  0  0  0  0  0  0  0  0  0
  146.9116  132.9035  152.1490 C   0  0  0  0  0  0  0  0  0  0  0  0
  146.2824  133.2535  150.7901 C   0  0  0  0  0  0  0  0  0  0  0  0
  145.1085  134.0235  150.9911 O   0  0  0  0  0  0  0  0  0  0  0  0
  145.4071  135.2542  151.6294 C   0  0  0  0  0  0  0  0  0  0  0  0
  146.0063  134.9888  153.0210 C   0  0  0  0  0  0  0  0  0  0  0  0
  149.7380  133.0090  155.0692 H   0  0  0  0  0  0  0  0  0  0  0  0
  149.9010  133.7654  153.4927 H   0  0  0  0  0  0  0  0  0  0  0  0
  149.1677  132.1696  153.6704 H   0  0  0  0  0  0  0  0  0  0  0  0
  147.2006  133.1344  154.7984 H   0  0  0  0  0  0  0  0  0  0  0  0
  146.9821  135.5206  155.3476 H   0  0  0  0  0  0  0  0  0  0  0  0
  148.4276  134.8839  156.1196 H   0  0  0  0  0  0  0  0  0  0  0  0
  148.8776  136.1448  153.5409 H   0  0  0  0  0  0  0  0  0  0  0  0
  150.3016  137.6898  153.3621 H   0  0  0  0  0  0  0  0  0  0  0  0
  152.2897  137.1722  154.7606 H   0  0  0  0  0  0  0  0  0  0  0  0
  151.9113  138.5197  155.8314 H   0  0  0  0  0  0  0  0  0  0  0  0
  152.3487  138.8198  154.1533 H   0  0  0  0  0  0  0  0  0  0  0  0
  147.6851  138.9692  153.7098 H   0  0  0  0  0  0  0  0  0  0  0  0
  147.3839  141.6552  154.0770 H   0  0  0  0  0  0  0  0  0  0  0  0
  149.8725  142.4398  155.0097 H   0  0  0  0  0  0  0  0  0  0  0  0
  147.8126  132.3279  151.9458 H   0  0  0  0  0  0  0  0  0  0  0  0
  146.2371  132.2608  152.7168 H   0  0  0  0  0  0  0  0  0  0  0  0
  146.9890  133.7962  150.1597 H   0  0  0  0  0  0  0  0  0  0  0  0
  146.0164  132.3420  150.2549 H   0  0  0  0  0  0  0  0  0  0  0  0
  146.0909  135.8425  151.0154 H   0  0  0  0  0  0  0  0  0  0  0  0
  144.4881  135.8334  151.7224 H   0  0  0  0  0  0  0  0  0  0  0  0
  145.2624  134.5161  153.6644 H   0  0  0  0  0  0  0  0  0  0  0  0
  146.2407  135.9601  153.4520 H   0  0  0  0  0  0  0  0  0  0  0  0
  147.9029  134.6475  152.4104 H   0  0  0  0  0  0  0  0  0  0  0  0
  1  2  1  0  0  0  0
  1 20  1  0  0  0  0
  1 21  1  0  0  0  0
  1 22  1  0  0  0  0
  2  3  1  0  0  0  0
  2 14  1  0  0  0  0
  2 23  1  0  0  0  0
  3  4  1  0  0  0  0
  3 24  1  0  0  0  0
  3 25  1  0  0  0  0
  4  5  1  0  0  0  0
  4 26  1  0  0  0  0
  5  6  2  0  0  0  0
  5  7  1  0  0  0  0
  7  8  1  0  0  0  0
  7  9  1  0  0  0  0
  7 27  1  0  0  0  0
  8 28  1  0  0  0  0
  8 29  1  0  0  0  0
  8 30  1  0  0  0  0
  9 13  1  0  0  0  0
  9 10  1  0  0  0  0
 10 11  2  0  0  0  0
 10 31  1  0  0  0  0
 11 12  1  0  0  0  0
 11 32  1  0  0  0  0
 12 13  2  0  0  0  0
 12 33  1  0  0  0  0
 14 19  1  0  0  0  0
 14 15  1  0  0  0  0
 14 42  1  0  0  0  0
 15 16  1  0  0  0  0
 15 34  1  0  0  0  0
 15 35  1  0  0  0  0
 16 17  1  0  0  0  0
 16 36  1  0  0  0  0
 16 37  1  0  0  0  0
 17 18  1  0  0  0  0
 18 19  1  0  0  0  0
 18 38  1  0  0  0  0
 18 39  1  0  0  0  0
 19 40  1  0  0  0  0
 19 41  1  0  0  0  0
M  CHG  1  14   1
M  END
> <s_m_source_file>
AV-unprocessed.smi

> <i_m_source_file_index>
1601

> <i_lp_mmshare_version>
43012

> <i_f3d_flags>
0

> <s_epik_input>
W0NIMl0xW0NIMl1PW0NIMl1bQ0gyXU4xW0NASF0oW0NIM10pW0NIMl1bTkhdQyg9TylbQ0BIXShbQ0gzXSluMltjSF1bY0hdW2NIXW4y

> <s_epik_cmdline>
J2VwaWtfcHl0aG9uJywgJy1waCcsICc3LjAnLCAnLXRuJywgJzgnLCAnLW1hJywgJzIwMCcsICctbWV0YWxfYmluZGluZycsICctaW1hZScsICc8aW5maWxlLm1hZT4nLCAnLW9tYWUnLCAnPG91dGZpbGUubWFlPic=

> <r_lp_tautomer_probability>
1

> <r_epik_Ionization_Penalty>
0.732551

> <r_epik_Ionization_Penalty_Charging>
0.732531

> <r_epik_Ionization_Penalty_Neutral>
2.04647e-05

> <r_epik_State_Penalty>
0.757939

> <r_epik_Charging_Adjusted_Penalty>
1.49047

> <i_epik_Tot_Q>
1

> <i_epik_Tot_abs_Q>
1

> <r_epik_Metal_State_Penalty>
0.757952

> <b_epik_Metal_Only>
0

> <s_lp_Force_Field>
OPLS_2005

> <r_lp_Energy>
25.0975

> <b_lp_Chiralities_Consistent>
1

> <s_lp_Variant>
AV-unprocessed.smi:1601-6

> <Gold.Version>
5.8.1

> <Gold.Id.Protein>
6NUR|6NUR_protein|mol2

> <Gold.PLP.Fitness>
48.7406

> <Gold.PLP.PLP>
-34.5995

> <Gold.PLP.part.hbond>
-3.0000

> <Gold.PLP.part.metal>
0.0000

> <Gold.PLP.part.buried>
-2.8302

> <Gold.PLP.part.nonpolar>
-28.7225

> <Gold.PLP.part.repulsive>
0.2470

> <Gold.PLP.ligand.clash>
0.0000

> <Gold.PLP.ligand.torsion>
0.5009

> <Gold.PLP.Chemscore.Hbond>
3.9920

> <Gold.PLP.Chemscore.CHOScore>
1.0000

> <Gold.PLP.Chemscore.Metal>
0.0000

> <Gold.Chemscore.Hbonds>
donor molecule, donor type, donor heavy atom, donor atom, acceptor molecule, acceptor atom, score
      L1  H     4    26       P1  7948  1.00
      L1  H    14    42       P1  7948  2.00
      P1  H  7989  7998       L1    13  1.00
      L1  C    12    33       P1  8028  0.93

> <Gold.PLP.Chemscore.Internal.Correction>
0.1668

> <Gold.Rescore>
     Score         DG    S(hbond)    S(metal)    S(lipo)     H(rot)  DE(clash)    DE(int)     intcor
     16.84     -17.52       2.66        0.00      67.62       1.86       0.01       0.67       ----

> <Gold.Chemscore.Fitness>
16.8430

> <Gold.Chemscore.DG>
-17.5208

> <Gold.Chemscore.ZeroCoef>
-5.4800

> <Gold.Chemscore.Hbond>
2.6644

> <Gold.Chemscore.Metal>
0.0000

> <Gold.Chemscore.Lipo>
67.6188

> <Gold.Chemscore.Internal_Hbond>
0.0000

> <Gold.Chemscore.DEClash>
0.0106

> <Gold.Chemscore.DEInternal>
0.6671

> <Gold.Chemscore.Rot>
1.8631

> <Gold.Chemscore.Internal.Correction>
   9.000000E+99

> <Gold.Chemscore.Hbonds>
donor molecule, donor type, donor heavy atom, donor atom, acceptor molecule, acceptor atom, score
      L1  H     4    26       P1  7948  0.99
      L1  H    14    42       P1  7948  0.59
      P1  H  7989  7998       L1    13  0.20

> <Gold.Chemscore.Hbond.Weighted>
-8.8990

> <Gold.Chemscore.Metal.Weighted>
-0.0000

> <Gold.Chemscore.Lipo.Weighted>
-7.9114

> <Gold.Chemscore.Internal_Hbond.Weighted>
0.0000

> <Gold.Chemscore.DEClash.Weighted>
0.0106

> <Gold.Chemscore.DEInternal.Weighted>
0.6671

> <Gold.Chemscore.Rot.Weighted>
4.7697

> <Gold.Chemscore.Internal.Correction.Weighted>
   9.000000E+99

> <Gold.Protein.RotatedTorsions>
[ 6907 6896 6895 6894 ] final   89.67 input  -60.11 | X-H torsion
[ 7974 7965 7964 7962 ] final -160.01 input  175.53 | X-H torsion
[ 8008 7997 7996 7995 ] final    4.79 input   59.86 | X-H torsion
[ 10167 10162 10161 10158 ] final   16.58 input  -65.29 | X-H torsion
[ 10718 10713 10712 10709 ] final  -45.77 input   66.30 | X-H torsion
[ 10763 10752 10751 10750 ] final  167.77 input  -60.55 | X-H torsion
[ 11005 11000 10999 10996 ] final  172.51 input  -57.11 | X-H torsion

> <Gold.Protein.ActiveResidues>
 VAL166  LYS551  ARG553  GLY616  TRP617  ASP618  TYR619  PRO620  LYS621  CYS622 
 ASP623  PHE694  ASN695  SER759  ASP760  ASP761  ALA762  ILE779  LEU786  VAL792 
 PHE793  MET794  SER795  GLU796  ALA797  LYS798  CYS799  TRP800  GLU811  SER814 

> <Gold.Protein.RotatedAtoms>
  152.5438  134.1930  159.8681 H   0  0  0  0  0  0  0  0  0  0  0  0  # atno 6907 bound_to 6896
  151.1924  133.4652  159.2602 H   0  0  0  0  0  0  0  0  0  0  0  0  # atno 6908 bound_to 6896
  151.1070  135.0017  159.8531 H   0  0  0  0  0  0  0  0  0  0  0  0  # atno 6909 bound_to 6896
  144.7443  140.3602  143.6097 H   0  0  0  0  0  0  0  0  0  0  0  0  # atno 7974 bound_to 7965
  154.7203  140.2710  155.6548 H   0  0  0  0  0  0  0  0  0  0  0  0  # atno 8008 bound_to 7997
  156.2821  140.2736  156.1797 H   0  0  0  0  0  0  0  0  0  0  0  0  # atno 8009 bound_to 7997
  155.0516  140.0371  157.2535 H   0  0  0  0  0  0  0  0  0  0  0  0  # atno 8010 bound_to 7997
  140.5787  143.9022  150.6772 H   0  0  0  0  0  0  0  0  0  0  0  0  # atno 10167 bound_to 10162
  156.2250  130.4168  149.8946 H   0  0  0  0  0  0  0  0  0  0  0  0  # atno 10718 bound_to 10713
  154.3587  135.2753  155.2332 H   0  0  0  0  0  0  0  0  0  0  0  0  # atno 10763 bound_to 10752
  154.4530  135.5926  153.6207 H   0  0  0  0  0  0  0  0  0  0  0  0  # atno 10764 bound_to 10752
  152.9845  135.6046  154.3805 H   0  0  0  0  0  0  0  0  0  0  0  0  # atno 10765 bound_to 10752
  140.3305  134.7361  157.4130 H   0  0  0  0  0  0  0  0  0  0  0  0  # atno 11005 bound_to 11000
  145.7185  139.1703  143.2498 LP  0  0  0  0  0  0  0  0  0  0  0  0  # atno 17320 bound_to 7965
  146.1295  140.7205  142.9419 LP  0  0  0  0  0  0  0  0  0  0  0  0  # atno 17321 bound_to 7965
  140.2516  143.3589  152.1401 LP  0  0  0  0  0  0  0  0  0  0  0  0  # atno 17342 bound_to 10162
  139.5157  144.6967  151.5610 LP  0  0  0  0  0  0  0  0  0  0  0  0  # atno 17343 bound_to 10162
  156.6579  130.8770  151.3542 LP  0  0  0  0  0  0  0  0  0  0  0  0  # atno 17370 bound_to 10713
  157.7106  130.9436  150.1076 LP  0  0  0  0  0  0  0  0  0  0  0  0  # atno 17371 bound_to 10713
  140.0865  134.5659  155.8487 LP  0  0  0  0  0  0  0  0  0  0  0  0  # atno 17394 bound_to 11000
  141.2064  133.6655  156.6243 LP  0  0  0  0  0  0  0  0  0  0  0  0  # atno 17395 bound_to 11000

$$$$
